pyridine_urea_6411
     RDKit          3D

 18 19  0  0  0  0  0  0  0  0999 V2000
   13.3380   -2.2090   22.7380 C   0  0  0  0  0  0  0  0  0  0  0  0
   12.9170   -1.0960   22.8300 C   0  0  0  0  0  0  0  0  0  0  0  0
   13.0530    0.4200   23.0200 C   0  0  0  0  0  0  0  0  0  0  0  0
   11.9630    1.3460   23.0380 C   0  0  0  0  0  0  0  0  0  0  0  0
   12.2220    2.7320   23.2210 O   0  0  0  0  0  0  0  0  0  0  0  0
   10.7660    0.8510   22.8710 C   0  0  0  0  0  0  0  0  0  0  0  0
   10.2920   -0.5610   22.6480 C   0  0  0  0  0  0  0  0  0  0  0  0
    8.8850   -0.8800   22.4590 N   0  0  0  0  0  0  0  0  0  0  0  0
    8.2370   -0.0720   21.5670 C   0  0  0  0  0  0  0  0  0  0  0  0
    8.7910    1.2030   21.1450 O   0  0  0  0  0  0  0  0  0  0  0  0
    6.9880   -0.6450   21.1270 N   0  0  0  0  0  0  0  0  0  0  0  0
    6.4280    0.0140   19.9680 C   0  0  0  0  0  0  0  0  0  0  0  0
    5.1770    0.8010   20.1950 C   0  0  0  0  0  0  0  0  0  0  0  0
    4.5680    1.4920   19.1580 C   0  0  0  0  0  0  0  0  0  0  0  0
    5.1360    1.4490   17.8890 C   0  0  0  0  0  0  0  0  0  0  0  0
    6.3470    0.6750   17.6710 N   0  0  0  0  0  0  0  0  0  0  0  0
    6.9330   -0.0030   18.6980 C   0  0  0  0  0  0  0  0  0  0  0  0
   11.4620   -1.5970   22.6300 C   0  0  0  0  0  0  0  0  0  0  0  0
  1  2  1  0
  2  3  2  0
  3  4  1  0
  4  5  1  0
  4  6  2  0
  6  7  1  0
  7  8  1  0
  8  9  1  0
  9 10  2  0
  9 11  1  0
 11 12  1  0
 12 13  2  0
 13 14  1  0
 14 15  2  0
 15 16  1  0
 12 17  1  0
 16 17  2  0
  2 18  1  0
  7 18  2  0
M  END
