pyridine_urea_9186
     RDKit          3D

 18 19  0  0  0  0  0  0  0  0999 V2000
    9.3040    0.1660   25.1380 C   0  0  0  0  0  0  0  0  0  0  0  0
   10.0450    0.0200   23.8370 C   0  0  0  0  0  0  0  0  0  0  0  0
   10.1370   -1.2010   23.1610 C   0  0  2  0  0  0  0  0  0  0  0  0
   11.2790   -1.3340   22.3590 C   0  0  0  0  0  0  0  0  0  0  0  0
   12.2280   -0.4100   22.7450 C   0  0  0  0  0  0  0  0  0  0  0  0
   11.8720    0.8970   22.6590 C   0  0  0  0  0  0  0  0  0  0  0  0
   12.0580    1.0120   23.9470 C   0  0  0  0  0  0  0  0  0  0  0  0
   12.5660   -0.4600   24.1320 C   0  0  0  0  0  0  0  0  0  0  0  0
    9.0570   -1.4050   22.2570 N   0  0  0  0  0  0  0  0  0  0  0  0
    8.4470   -0.3980   21.5640 C   0  0  0  0  0  0  0  0  0  0  0  0
    9.0310    0.6760   21.4650 O   0  0  0  0  0  0  0  0  0  0  0  0
    7.2140   -0.6900   21.0510 N   0  0  0  0  0  0  0  0  0  0  0  0
    6.4760    0.0070   20.0790 C   0  0  0  0  0  0  0  0  0  0  0  0
    5.3050    0.7280   20.2970 C   0  0  0  0  0  0  0  0  0  0  0  0
    4.6660    1.3870   19.2520 C   0  0  0  0  0  0  0  0  0  0  0  0
    5.2270    1.3050   17.9960 C   0  0  0  0  0  0  0  0  0  0  0  0
    6.3530    0.6170   17.7430 N   0  0  0  0  0  0  0  0  0  0  0  0
    6.9420   -0.0110   18.7770 C   0  0  0  0  0  0  0  0  0  0  0  0
  1  2  3  0
  3  2  1  6
  3  4  1  0
  4  5  1  0
  5  6  1  0
  6  7  1  0
  5  8  1  0
  7  8  1  0
  3  9  1  0
  9 10  1  0
 10 11  2  0
 10 12  1  0
 12 13  1  0
 13 14  2  0
 14 15  1  0
 15 16  2  0
 16 17  1  0
 13 18  1  0
 17 18  2  0
M  END
