pyridine_urea_1586
     RDKit          3D

 19 20  0  0  0  0  0  0  0  0999 V2000
   13.7100   -2.8660   24.9610 C   0  0  0  0  0  0  0  0  0  0  0  0
   12.8980   -1.7870   24.3860 C   0  0  0  0  0  0  0  0  0  0  0  0
   13.2240   -0.6540   23.7020 C   0  0  0  0  0  0  0  0  0  0  0  0
   12.2270    0.1410   23.3060 N   0  0  0  0  0  0  0  0  0  0  0  0
   11.0450   -0.3720   23.6650 C   0  0  0  0  0  0  0  0  0  0  0  0
    9.8800    0.1410   23.3760 C   0  0  1  0  0  0  0  0  0  0  0  0
    9.7620    1.4290   22.8420 C   0  0  0  0  0  0  0  0  0  0  0  0
    9.6650   -0.9450   22.3420 C   0  0  0  0  0  0  0  0  0  0  0  0
    8.3720   -1.1360   22.1090 N   0  0  0  0  0  0  0  0  0  0  0  0
    7.7060   -0.2300   21.2310 C   0  0  0  0  0  0  0  0  0  0  0  0
    8.1460    0.8570   20.8710 O   0  0  0  0  0  0  0  0  0  0  0  0
    6.5450   -0.7400   20.8630 N   0  0  0  0  0  0  0  0  0  0  0  0
    6.0130    0.0160   19.9050 C   0  0  0  0  0  0  0  0  0  0  0  0
    4.8470    0.7520   20.0350 C   0  0  0  0  0  0  0  0  0  0  0  0
    4.4320    1.5010   18.9520 C   0  0  0  0  0  0  0  0  0  0  0  0
    5.1680    1.5080   17.7870 C   0  0  0  0  0  0  0  0  0  0  0  0
    6.3020    0.7960   17.6380 N   0  0  0  0  0  0  0  0  0  0  0  0
    6.6920    0.0710   18.7000 C   0  0  0  0  0  0  0  0  0  0  0  0
   11.1080   -1.8730   24.5380 S   0  0  0  0  0  0  0  0  0  0  0  0
  1  2  1  0
  2  3  2  0
  3  4  1  0
  4  5  2  0
  5  6  1  0
  6  7  1  6
  6  8  1  0
  8  9  1  0
  9 10  1  0
 10 11  2  0
 10 12  1  0
 12 13  1  0
 13 14  2  0
 14 15  1  0
 15 16  2  0
 16 17  1  0
 13 18  1  0
 17 18  2  0
  2 19  1  0
  5 19  1  0
M  END
