pyridine_urea_13570
     RDKit          3D

 29 31  0  0  0  0  0  0  0  0999 V2000
    5.2670   -2.3920   20.3020 C   0  0  0  0  0  0  0  0  0  0  0  0
    4.8940   -3.3790   21.2790 O   0  0  0  0  0  0  0  0  0  0  0  0
    5.9560   -3.7310   22.0810 C   0  0  0  0  0  0  0  0  0  0  0  0
    7.3070   -2.9920   21.9170 C   0  0  0  0  0  0  0  0  0  0  0  0
    8.5170   -3.3760   22.7670 C   0  0  0  0  0  0  0  0  0  0  0  0
    9.8780   -2.7230   22.6250 C   0  0  0  0  0  0  0  0  0  0  0  0
   10.6020   -2.5460   21.3780 N   0  0  0  0  0  0  0  0  0  0  0  0
   11.6860   -1.9940   21.5240 O   0  0  0  0  0  0  0  0  0  0  0  0
   11.7570   -1.7520   22.8810 C   0  0  0  0  0  0  0  0  0  0  0  0
   12.8950   -1.0970   23.2870 C   0  0  0  0  0  0  0  0  0  0  0  0
   12.7340    0.2710   23.1760 C   0  0  0  0  0  0  0  0  0  0  0  0
   11.9130    0.7260   24.1790 C   0  0  0  0  0  0  0  0  0  0  0  0
   10.5760    0.4090   24.0380 C   0  0  0  0  0  0  0  0  0  0  0  0
   10.2160    0.1540   22.7160 C   0  0  0  0  0  0  0  0  0  0  0  0
    8.9050   -0.1820   22.5790 N   0  0  0  0  0  0  0  0  0  0  0  0
    8.1960    0.3470   21.5050 C   0  0  0  0  0  0  0  0  0  0  0  0
    8.6260    1.5950   20.9650 O   0  0  0  0  0  0  0  0  0  0  0  0
    7.1580   -0.3990   21.0980 N   0  0  0  0  0  0  0  0  0  0  0  0
    6.4710    0.1790   20.0980 C   0  0  0  0  0  0  0  0  0  0  0  0
    5.3290    0.9360   20.2270 C   0  0  0  0  0  0  0  0  0  0  0  0
    4.6530    1.5370   19.1780 C   0  0  0  0  0  0  0  0  0  0  0  0
    5.1530    1.3760   17.8970 C   0  0  0  0  0  0  0  0  0  0  0  0
    6.2550    0.6510   17.6390 N   0  0  0  0  0  0  0  0  0  0  0  0
    6.9270    0.0320   18.8040 C   0  0  0  0  0  0  0  0  0  0  0  0
   10.6200   -2.2070   23.6770 N   0  0  0  0  0  0  0  0  0  0  0  0
    8.3620   -4.4750   23.7740 C   0  0  0  0  0  0  0  0  0  0  0  0
    7.0170   -5.1710   23.9200 C   0  0  0  0  0  0  0  0  0  0  0  0
    5.8930   -4.8550   23.1590 C   0  0  0  0  0  0  0  0  0  0  0  0
    4.8520   -5.4760   23.3440 O   0  0  0  0  0  0  0  0  0  0  0  0
  1  2  1  0
  2  3  1  0
  3  4  2  0
  4  5  1  0
  5  6  1  0
  6  7  2  0
  7  8  1  0
  8  9  1  0
  9 10  1  0
 10 11  1  0
 11 12  1  0
 12 13  1  0
 13 14  1  0
 14 15  1  0
 15 16  1  0
 16 17  2  0
 16 18  1  0
 18 19  1  0
 19 20  2  0
 20 21  1  0
 21 22  2  0
 22 23  1  0
 19 24  1  0
 23 24  2  0
  6 25  1  0
  9 25  2  0
  5 26  2  0
 26 27  1  0
  3 28  1  0
 27 28  2  0
 28 29  1  0
M  END
