pyridine_urea_285
     RDKit          3D

 27 28  0  0  0  0  0  0  0  0999 V2000
   17.7130   -5.2170   20.8840 C   0  0  0  0  0  0  0  0  0  0  0  0
   16.6710   -5.9870   20.9610 N   0  0  0  0  0  0  0  0  0  0  0  0
   15.7740   -5.8100   19.9440 C   0  0  0  0  0  0  0  0  0  0  0  0
   16.0450   -5.3170   21.9020 C   0  0  0  0  0  0  0  0  0  0  0  0
   14.7660   -4.7290   21.1050 C   0  0  0  0  0  0  0  0  0  0  0  0
   13.7420   -3.6510   21.6020 C   0  0  0  0  0  0  0  0  0  0  0  0
   12.4430   -2.9840   21.0660 C   0  0  0  0  0  0  0  0  0  0  0  0
   11.7810   -2.7920   22.2360 N   0  0  0  0  0  0  0  0  0  0  0  0
   12.6960   -2.3570   23.6370 S   0  0  0  0  0  0  0  0  0  0  0  0
   12.0090   -2.8550   24.8120 O   0  0  0  0  0  0  0  0  0  0  0  0
   14.0980   -2.4700   23.4930 O   0  0  0  0  0  0  0  0  0  0  0  0
   12.1370   -0.7760   23.3160 C   0  0  0  0  0  0  0  0  0  0  0  0
   12.8720    0.3100   23.2160 C   0  0  0  0  0  0  0  0  0  0  0  0
   11.9290    1.4050   22.9190 C   0  0  0  0  0  0  0  0  0  0  0  0
   10.5630    1.2950   22.7790 C   0  0  0  0  0  0  0  0  0  0  0  0
    9.8020    0.1490   22.8830 C   0  0  0  0  0  0  0  0  0  0  0  0
    8.4130   -0.0440   22.7350 N   0  0  0  0  0  0  0  0  0  0  0  0
    8.0370    0.3700   21.5280 C   0  0  0  0  0  0  0  0  0  0  0  0
    8.6180    1.5310   20.9120 O   0  0  0  0  0  0  0  0  0  0  0  0
    7.0650   -0.4080   20.9810 N   0  0  0  0  0  0  0  0  0  0  0  0
    6.3230    0.1910   19.9920 C   0  0  0  0  0  0  0  0  0  0  0  0
    5.0540    0.9250   20.2130 C   0  0  0  0  0  0  0  0  0  0  0  0
    4.4230    1.5410   19.0190 C   0  0  0  0  0  0  0  0  0  0  0  0
    5.0770    1.3750   17.8010 C   0  0  0  0  0  0  0  0  0  0  0  0
    6.2220    0.6860   17.6360 N   0  0  0  0  0  0  0  0  0  0  0  0
    6.7990    0.1270   18.7050 C   0  0  0  0  0  0  0  0  0  0  0  0
   10.7830   -0.9190   23.1800 C   0  0  0  0  0  0  0  0  0  0  0  0
  1  2  1  0
  2  3  1  0
  2  4  1  0
  4  5  1  0
  5  6  1  0
  6  7  1  0
  7  8  1  0
  9  8  1  0
  9 10  2  0
  9 11  2  0
  9 12  1  0
 12 13  2  0
 13 14  1  0
 14 15  2  0
 15 16  1  0
 16 17  1  0
 17 18  1  0
 18 19  2  0
 18 20  1  0
 20 21  1  0
 21 22  2  0
 22 23  1  0
 23 24  2  0
 24 25  1  0
 21 26  1  0
 25 26  2  0
 12 27  1  0
 16 27  2  0
M  END
