pyridine_urea_7902
     RDKit          3D

 26 28  0  0  0  0  0  0  0  0999 V2000
    9.0700   -5.3480   26.3410 C   0  0  0  0  0  0  0  0  0  0  0  0
    8.1150   -4.1500   26.3220 C   0  0  0  0  0  0  0  0  0  0  0  0
    8.6400   -3.0840   25.4670 N   0  0  0  0  0  0  0  0  0  0  0  0
    8.5100   -1.7340   25.7700 C   0  0  0  0  0  0  0  0  0  0  0  0
    9.3250   -0.8400   25.0290 C   0  0  0  0  0  0  0  0  0  0  0  0
   10.0390   -1.5110   23.9110 N   0  0  0  0  0  0  0  0  0  0  0  0
   10.4920   -0.6470   22.8210 C   0  0  0  0  0  0  0  0  0  0  0  0
   11.6070    0.1480   23.1240 C   0  0  0  0  0  0  0  0  0  0  0  0
   12.9570   -0.2150   22.9930 C   0  0  0  0  0  0  0  0  0  0  0  0
   12.2590    0.9340   23.4390 C   0  0  0  0  0  0  0  0  0  0  0  0
   10.8510    0.5910   23.2290 C   0  0  0  0  0  0  0  0  0  0  0  0
   10.3150   -0.5980   22.6690 C   0  0  0  0  0  0  0  0  0  0  0  0
    8.9550   -0.6570   22.4360 N   0  0  0  0  0  0  0  0  0  0  0  0
    8.4020    0.1110   21.4540 C   0  0  0  0  0  0  0  0  0  0  0  0
    8.7980    1.2360   21.1090 O   0  0  0  0  0  0  0  0  0  0  0  0
    7.3360   -0.5430   20.9310 N   0  0  0  0  0  0  0  0  0  0  0  0
    6.5600    0.1100   20.0380 C   0  0  0  0  0  0  0  0  0  0  0  0
    5.4070    0.8480   20.3360 C   0  0  0  0  0  0  0  0  0  0  0  0
    4.7170    1.4720   19.2980 C   0  0  0  0  0  0  0  0  0  0  0  0
    5.1910    1.3450   18.0030 C   0  0  0  0  0  0  0  0  0  0  0  0
    6.2870    0.6380   17.6970 N   0  0  0  0  0  0  0  0  0  0  0  0
    6.9380    0.0420   18.7140 C   0  0  0  0  0  0  0  0  0  0  0  0
   10.0890    1.5470   23.6140 C   0  0  0  0  0  0  0  0  0  0  0  0
   11.4440    1.7320   23.7370 C   0  0  0  0  0  0  0  0  0  0  0  0
    9.6680   -2.8510   23.4590 C   0  0  0  0  0  0  0  0  0  0  0  0
    8.5360   -3.3680   24.0370 C   0  0  0  0  0  0  0  0  0  0  0  0
  1  2  1  0
  2  3  1  0
  3  4  1  0
  4  5  1  0
  5  6  1  0
  6  7  1  0
  7  8  1  0
  8  9  2  0
  9 10  1  0
 10 11  2  0
 11 12  1  0
 12 13  1  0
 13 14  1  0
 14 15  2  0
 14 16  1  0
 16 17  1  0
 17 18  2  0
 18 19  1  0
 19 20  2  0
 20 21  1  0
 17 22  1  0
 21 22  2  0
 11 23  1  0
  8 24  1  0
 23 24  2  0
  6 25  1  0
  3 26  1  0
 25 26  1  0
M  END
