pyridine_urea_1222
     RDKit          3D

 21 23  0  0  0  0  0  0  0  0999 V2000
    8.9670    0.2330   21.4560 O   0  0  0  0  0  0  0  0  0  0  0  0
    8.1320   -0.6630   21.5150 C   0  0  0  0  0  0  0  0  0  0  0  0
    8.3780   -1.9210   22.0260 N   0  0  0  0  0  0  0  0  0  0  0  0
    9.1480   -2.1380   23.2200 C   0  0  0  0  0  0  0  0  0  0  0  0
   10.4320   -1.3940   23.0450 C   0  0  0  0  0  0  0  0  0  0  0  0
    9.5050   -0.5610   23.7700 C   0  0  0  0  0  0  0  0  0  0  0  0
    9.6420    0.7560   24.2820 C   0  0  0  0  0  0  0  0  0  0  0  0
   10.7820    1.4990   24.1460 C   0  0  0  0  0  0  0  0  0  0  0  0
   11.7280    0.8730   23.5070 C   0  0  0  0  0  0  0  0  0  0  0  0
   12.9080    1.2570   23.1970 N   0  0  0  0  0  0  0  0  0  0  0  0
   13.7040    0.4190   22.5290 C   0  0  0  0  0  0  0  0  0  0  0  0
   13.3950   -0.8720   22.1040 C   0  0  0  0  0  0  0  0  0  0  0  0
   12.1550   -1.3030   22.4140 C   0  0  0  0  0  0  0  0  0  0  0  0
   11.4470   -0.3490   23.0970 C   0  0  0  0  0  0  0  0  0  0  0  0
    6.8220   -0.6100   21.1150 N   0  0  0  0  0  0  0  0  0  0  0  0
    6.3260    0.0390   20.0490 C   0  0  0  0  0  0  0  0  0  0  0  0
    5.1620    0.7760   20.2450 C   0  0  0  0  0  0  0  0  0  0  0  0
    4.6160    1.4770   19.1280 C   0  0  0  0  0  0  0  0  0  0  0  0
    5.2620    1.3900   17.9250 C   0  0  0  0  0  0  0  0  0  0  0  0
    6.4150    0.6560   17.7290 N   0  0  0  0  0  0  0  0  0  0  0  0
    6.9030    0.0070   18.7960 C   0  0  0  0  0  0  0  0  0  0  0  0
  1  2  2  0
  2  3  1  0
  3  4  1  0
  4  5  1  0
  5  6  2  0
  6  7  1  0
  7  8  2  0
  8  9  1  0
  9 10  1  0
 10 11  2  0
 11 12  1  0
 12 13  2  0
  5 14  1  0
  9 14  2  0
 13 14  1  0
  2 15  1  0
 15 16  1  0
 16 17  2  0
 17 18  1  0
 18 19  2  0
 19 20  1  0
 16 21  1  0
 20 21  2  0
M  END
