pyridine_urea_3626
     RDKit          3D

 17 18  0  0  0  0  0  0  0  0999 V2000
    8.6600   -3.0160   23.1140 C   0  0  0  0  0  0  0  0  0  0  0  0
    9.6040   -1.9710   22.5050 C   0  0  1  0  0  0  0  0  0  0  0  0
    9.0730   -0.6170   22.6780 N   0  0  0  0  0  0  0  0  0  0  0  0
    8.5610    0.1110   21.6150 C   0  0  0  0  0  0  0  0  0  0  0  0
    9.0370    1.1950   21.2490 O   0  0  0  0  0  0  0  0  0  0  0  0
    7.4630   -0.5210   21.0670 N   0  0  0  0  0  0  0  0  0  0  0  0
    6.6790    0.0640   20.0680 C   0  0  0  0  0  0  0  0  0  0  0  0
    5.4160    0.8250   20.4670 C   0  0  0  0  0  0  0  0  0  0  0  0
    4.5830    1.4740   19.3770 C   0  0  0  0  0  0  0  0  0  0  0  0
    5.1540    1.2630   17.9860 C   0  0  0  0  0  0  0  0  0  0  0  0
    6.2730    0.5680   17.7250 N   0  0  0  0  0  0  0  0  0  0  0  0
    6.9840    0.0040   18.7280 C   0  0  0  0  0  0  0  0  0  0  0  0
   10.9700   -2.0990   23.1730 C   0  0  0  0  0  0  0  0  0  0  0  0
   12.1000   -2.1930   22.4680 N   0  0  0  0  0  0  0  0  0  0  0  0
   13.0590   -2.2950   23.3810 C   0  0  0  0  0  0  0  0  0  0  0  0
   12.3800   -2.2480   24.5820 C   0  0  0  0  0  0  0  0  0  0  0  0
   11.1460   -2.1310   24.4100 O   0  0  0  0  0  0  0  0  0  0  0  0
  2  1  1  1
  2  3  1  0
  3  4  1  0
  4  5  2  0
  4  6  1  0
  6  7  1  0
  7  8  2  0
  8  9  1  0
  9 10  2  0
 10 11  1  0
  7 12  1  0
 11 12  2  0
  2 13  1  0
 13 14  2  0
 14 15  1  0
 15 16  2  0
 13 17  1  0
 16 17  1  0
M  END
