pyridine_urea_9748
     RDKit          3D

 28 30  0  0  0  0  0  0  0  0999 V2000
   11.3510    1.7830   22.9200 C   0  0  0  0  0  0  0  0  0  0  0  0
   10.1030    0.9910   23.4040 C   0  0  0  0  0  0  0  0  0  0  0  0
    9.6010    0.2150   22.3010 C   0  0  2  0  0  0  0  0  0  0  0  0
    8.5480   -0.5640   22.4080 N   0  0  0  0  0  0  0  0  0  0  0  0
    7.7910   -0.0690   21.4640 C   0  0  0  0  0  0  0  0  0  0  0  0
    8.0640    1.0250   20.9860 O   0  0  0  0  0  0  0  0  0  0  0  0
    6.6890   -0.8600   21.0500 N   0  0  0  0  0  0  0  0  0  0  0  0
    6.1560   -0.1540   20.0320 C   0  0  0  0  0  0  0  0  0  0  0  0
    4.8480    0.6190   20.1550 C   0  0  0  0  0  0  0  0  0  0  0  0
    4.3500    1.4170   18.9530 C   0  0  0  0  0  0  0  0  0  0  0  0
    5.1300    1.3880   17.8020 C   0  0  0  0  0  0  0  0  0  0  0  0
    6.2720    0.7200   17.6490 N   0  0  0  0  0  0  0  0  0  0  0  0
    6.7690    0.0030   18.6550 C   0  0  0  0  0  0  0  0  0  0  0  0
   10.7360   -0.6110   22.0990 C   0  0  0  0  0  0  0  0  0  0  0  0
   10.8680   -1.7870   21.5170 C   0  0  0  0  0  0  0  0  0  0  0  0
   12.3210   -2.1020   21.6050 C   0  0  0  0  0  0  0  0  0  0  0  0
   13.4760   -1.2220   22.2960 C   0  0  0  0  0  0  0  0  0  0  0  0
   13.0060   -0.0530   22.8360 C   0  0  0  0  0  0  0  0  0  0  0  0
   11.9260   -0.5800   22.3450 C   0  0  0  0  0  0  0  0  0  0  0  0
   12.3120   -1.6230   21.8480 O   0  0  0  0  0  0  0  0  0  0  0  0
   12.8640   -2.5730   22.7320 C   0  0  0  0  0  0  0  0  0  0  0  0
   11.8070   -2.9550   23.5150 C   0  0  0  0  0  0  0  0  0  0  0  0
   10.7210   -3.2290   23.0870 O   0  0  0  0  0  0  0  0  0  0  0  0
   12.0500   -2.9080   24.7540 N   0  0  0  0  0  0  0  0  0  0  0  0
   13.3090   -3.3830   25.0570 C   0  0  0  0  0  0  0  0  0  0  0  0
   13.9100   -2.3910   25.5830 C   0  0  0  0  0  0  0  0  0  0  0  0
   13.2770   -1.3490   25.1650 C   0  0  0  0  0  0  0  0  0  0  0  0
   11.9590   -1.6200   24.9450 C   0  0  0  0  0  0  0  0  0  0  0  0
  1  2  1  0
  3  2  1  1
  3  4  1  0
  4  5  1  0
  5  6  2  0
  5  7  1  0
  7  8  1  0
  8  9  2  0
  9 10  1  0
 10 11  2  0
 11 12  1  0
  8 13  1  0
 12 13  2  0
  3 14  1  0
 14 15  2  0
 15 16  1  0
 16 17  2  0
 17 18  1  0
 14 19  1  0
 18 19  2  0
 19 20  1  0
 20 21  1  0
 21 22  1  0
 22 23  2  0
 22 24  1  0
 24 25  1  0
 25 26  1  0
 26 27  1  0
 24 28  1  0
 27 28  1  0
M  END
