pyridine_urea_11986
     RDKit          3D

 24 26  0  0  0  0  0  0  0  0999 V2000
    9.0990    1.2310   21.2760 O   0  0  0  0  0  0  0  0  0  0  0  0
    8.5880    0.1600   21.6080 C   0  0  0  0  0  0  0  0  0  0  0  0
    7.4500   -0.4090   21.0660 N   0  0  0  0  0  0  0  0  0  0  0  0
    6.6780    0.1490   20.0340 C   0  0  0  0  0  0  0  0  0  0  0  0
    5.5400    0.8950   20.3570 C   0  0  0  0  0  0  0  0  0  0  0  0
    4.7730    1.4690   19.3400 C   0  0  0  0  0  0  0  0  0  0  0  0
    5.1750    1.2730   18.0400 C   0  0  0  0  0  0  0  0  0  0  0  0
    6.2530    0.5570   17.7050 N   0  0  0  0  0  0  0  0  0  0  0  0
    6.9770    0.0110   18.7030 C   0  0  0  0  0  0  0  0  0  0  0  0
    9.0960   -0.6490   22.6110 N   0  0  0  0  0  0  0  0  0  0  0  0
   10.5250   -0.6640   23.0490 C   0  0  0  0  0  0  0  0  0  0  0  0
   11.3960   -1.2100   21.9900 C   0  0  0  0  0  0  0  0  0  0  0  0
   12.6560   -0.5730   22.0400 C   0  0  0  0  0  0  0  0  0  0  0  0
   13.1210   -0.7930   23.1530 N   0  0  0  0  0  0  0  0  0  0  0  0
   13.1230   -2.1170   23.0700 C   0  0  0  0  0  0  0  0  0  0  0  0
   13.4000   -2.7020   22.0460 O   0  0  0  0  0  0  0  0  0  0  0  0
   12.7420   -2.8760   24.1090 C   0  0  0  0  0  0  0  0  0  0  0  0
   11.4310   -3.2980   24.3070 C   0  0  0  0  0  0  0  0  0  0  0  0
   11.1400   -4.0770   25.4280 C   0  0  0  0  0  0  0  0  0  0  0  0
   12.0840   -4.4390   26.3240 N   0  0  0  0  0  0  0  0  0  0  0  0
   13.3700   -4.0050   26.0900 C   0  0  0  0  0  0  0  0  0  0  0  0
   13.7040   -3.2190   24.9890 C   0  0  0  0  0  0  0  0  0  0  0  0
   12.2060   -0.2280   23.9790 C   0  0  0  0  0  0  0  0  0  0  0  0
   11.0980    0.5300   23.4810 C   0  0  0  0  0  0  0  0  0  0  0  0
  1  2  2  0
  2  3  1  0
  3  4  1  0
  4  5  2  0
  5  6  1  0
  6  7  2  0
  7  8  1  0
  4  9  1  0
  8  9  2  0
  2 10  1  0
 10 11  1  0
 11 12  1  0
 12 13  1  0
 13 14  1  0
 14 15  1  0
 15 16  2  0
 15 17  1  0
 17 18  2  0
 18 19  1  0
 19 20  2  0
 20 21  1  0
 17 22  1  0
 21 22  2  0
 14 23  1  0
 11 24  1  0
 23 24  1  0
M  END
