pyridine_urea_7233
     RDKit          3D

 19 19  0  0  0  0  0  0  0  0999 V2000
   11.1630   -2.7690   23.8950 C   0  0  0  0  0  0  0  0  0  0  0  0
   12.5190   -2.1720   23.5660 C   0  0  0  0  0  0  0  0  0  0  0  0
   12.9340   -2.2630   22.2370 C   0  0  0  0  0  0  0  0  0  0  0  0
   13.5850   -2.8260   24.4340 C   0  0  0  0  0  0  0  0  0  0  0  0
   12.5420   -0.4830   24.0370 S   0  0  0  0  0  0  0  0  0  0  0  0
   12.7740   -0.4420   25.4510 O   0  0  0  0  0  0  0  0  0  0  0  0
   13.3800    0.2080   23.0910 O   0  0  0  0  0  0  0  0  0  0  0  0
   10.8910   -0.0230   23.7450 C   0  0  0  0  0  0  0  0  0  0  0  0
   10.4480   -0.1320   22.4510 C   0  0  0  0  0  0  0  0  0  0  0  0
    9.0680   -0.5790   22.3950 N   0  0  0  0  0  0  0  0  0  0  0  0
    8.2920    0.1000   21.5010 C   0  0  0  0  0  0  0  0  0  0  0  0
    8.6410    1.1970   21.0430 O   0  0  0  0  0  0  0  0  0  0  0  0
    7.0520   -0.6310   21.1870 N   0  0  0  0  0  0  0  0  0  0  0  0
    6.4350    0.0150   20.0510 C   0  0  0  0  0  0  0  0  0  0  0  0
    5.2870    0.7780   20.2730 C   0  0  0  0  0  0  0  0  0  0  0  0
    4.6560    1.4380   19.2340 C   0  0  0  0  0  0  0  0  0  0  0  0
    5.1560    1.3530   17.9430 C   0  0  0  0  0  0  0  0  0  0  0  0
    6.2490    0.6330   17.6470 N   0  0  0  0  0  0  0  0  0  0  0  0
    6.9000   -0.0570   18.7600 C   0  0  0  0  0  0  0  0  0  0  0  0
  2  1  1  0
  2  3  1  0
  2  4  1  0
  2  5  1  0
  5  6  2  0
  5  7  2  0
  5  8  1  0
  8  9  1  0
  9 10  1  0
 10 11  1  0
 11 12  2  0
 11 13  1  0
 13 14  1  0
 14 15  2  0
 15 16  1  0
 16 17  2  0
 17 18  1  0
 14 19  1  0
 18 19  2  0
M  END
