pyridine_urea_10518
     RDKit          3D

 22 24  0  0  0  0  0  0  0  0999 V2000
    8.4810    0.9130   21.1960 O   0  0  0  0  0  0  0  0  0  0  0  0
    8.4790   -0.3050   21.3090 C   0  0  0  0  0  0  0  0  0  0  0  0
    9.2230   -1.0040   22.2110 N   0  0  0  0  0  0  0  0  0  0  0  0
   10.4960   -0.5250   22.4520 C   0  0  0  0  0  0  0  0  0  0  0  0
   10.7030    0.9260   22.8720 C   0  0  0  0  0  0  0  0  0  0  0  0
   12.1580    1.3050   23.0580 C   0  0  0  0  0  0  0  0  0  0  0  0
   13.1650    0.2500   22.8280 C   0  0  0  0  0  0  0  0  0  0  0  0
   12.8870   -1.0110   22.4650 N   0  0  0  0  0  0  0  0  0  0  0  0
   11.5940   -1.3600   22.2890 C   0  0  0  0  0  0  0  0  0  0  0  0
    7.7470   -1.1020   20.4750 N   0  0  0  0  0  0  0  0  0  0  0  0
    6.3730   -0.7420   20.2140 C   0  0  1  0  0  0  0  0  0  0  0  0
    6.1170    0.3390   21.0600 C   0  0  0  0  0  0  0  0  0  0  0  0
    6.2330    1.3760   20.2100 C   0  0  0  0  0  0  0  0  0  0  0  0
    6.7870    2.3520   20.7000 O   0  0  0  0  0  0  0  0  0  0  0  0
    5.7460    1.1840   19.0250 N   0  0  0  0  0  0  0  0  0  0  0  0
    4.4440    1.6690   19.1560 C   0  0  0  0  0  0  0  0  0  0  0  0
    4.0820    2.7440   18.3800 C   0  0  0  0  0  0  0  0  0  0  0  0
    2.8090    3.4260   18.4160 C   0  0  0  0  0  0  0  0  0  0  0  0
    1.8490    2.8100   19.4390 C   0  0  0  0  0  0  0  0  0  0  0  0
    2.2640    1.7350   20.1710 C   0  0  0  0  0  0  0  0  0  0  0  0
    3.5110    1.1620   20.0560 C   0  0  0  0  0  0  0  0  0  0  0  0
    6.0970   -0.2660   18.8820 C   0  0  0  0  0  0  0  0  0  0  0  0
  1  2  2  0
  2  3  1  0
  3  4  1  0
  4  5  2  0
  5  6  1  0
  6  7  2  0
  7  8  1  0
  4  9  1  0
  8  9  2  0
  2 10  1  0
 11 10  1  6
 11 12  1  0
 12 13  1  0
 13 14  2  0
 13 15  1  0
 15 16  1  0
 16 17  2  0
 17 18  1  0
 18 19  2  0
 19 20  1  0
 16 21  1  0
 20 21  2  0
 11 22  1  0
 15 22  1  0
M  END
