pyridine_urea_6971
     RDKit          3D

 20 20  0  0  0  0  0  0  0  0999 V2000
   13.1810   -1.9510   23.1530 C   0  0  0  0  0  0  0  0  0  0  0  0
   11.9930   -1.7500   22.9130 O   0  0  0  0  0  0  0  0  0  0  0  0
   11.5880   -1.7920   21.6020 C   0  0  0  0  0  0  0  0  0  0  0  0
   12.5560   -2.5230   21.4250 O   0  0  0  0  0  0  0  0  0  0  0  0
   10.6230   -0.9590   22.1730 C   0  0  2  0  0  0  0  0  0  0  0  0
   10.4450   -1.0970   23.4940 C   0  0  0  0  0  0  0  0  0  0  0  0
   11.0640   -0.1000   24.1590 C   0  0  0  0  0  0  0  0  0  0  0  0
   10.1260    0.6490   24.8750 C   0  0  0  0  0  0  0  0  0  0  0  0
   12.2220    0.5150   23.5750 C   0  0  0  0  0  0  0  0  0  0  0  0
   11.5370   -0.6380   25.3370 C   0  0  0  0  0  0  0  0  0  0  0  0
    9.3340   -1.2600   21.5940 N   0  0  0  0  0  0  0  0  0  0  0  0
    8.4400   -0.1150   21.2800 C   0  0  0  0  0  0  0  0  0  0  0  0
    8.8360    1.2060   21.1720 O   0  0  0  0  0  0  0  0  0  0  0  0
    7.0810   -0.5720   21.0750 N   0  0  0  0  0  0  0  0  0  0  0  0
    6.4140    0.0800   20.0430 C   0  0  0  0  0  0  0  0  0  0  0  0
    5.2320    0.8020   20.2450 C   0  0  0  0  0  0  0  0  0  0  0  0
    4.5600    1.5080   19.1150 C   0  0  0  0  0  0  0  0  0  0  0  0
    5.1540    1.4190   17.8600 C   0  0  0  0  0  0  0  0  0  0  0  0
    6.3270    0.6790   17.7160 N   0  0  0  0  0  0  0  0  0  0  0  0
    6.9130    0.0470   18.7540 C   0  0  0  0  0  0  0  0  0  0  0  0
  1  2  1  0
  2  3  1  0
  3  4  2  0
  3  5  1  0
  5  6  1  1
  7  6  1  0
  7  8  1  0
  7  9  1  0
  7 10  1  0
  5 11  1  0
 11 12  1  0
 12 13  2  0
 12 14  1  0
 14 15  1  0
 15 16  2  0
 16 17  1  0
 17 18  2  0
 18 19  1  0
 15 20  1  0
 19 20  2  0
M  END
