pyridine_urea_235
     RDKit          3D

 19 21  0  0  0  0  0  0  0  0999 V2000
    8.9460    0.4950   21.3920 O   0  0  0  0  0  0  0  0  0  0  0  0
    8.1190   -0.2970   21.8160 C   0  0  0  0  0  0  0  0  0  0  0  0
    8.1280   -0.8200   23.1110 N   0  0  0  0  0  0  0  0  0  0  0  0
    9.1260   -1.7530   23.6560 C   0  0  0  0  0  0  0  0  0  0  0  0
   10.5490   -1.3800   23.2550 C   0  0  0  0  0  0  0  0  0  0  0  0
   11.6350   -1.6740   24.1190 N   0  0  0  0  0  0  0  0  0  0  0  0
   12.3580   -0.8300   24.9130 C   0  0  0  0  0  0  0  0  0  0  0  0
   13.1890   -1.7010   25.4230 C   0  0  0  0  0  0  0  0  0  0  0  0
   13.0810   -3.0880   25.0120 C   0  0  0  0  0  0  0  0  0  0  0  0
   12.0110   -3.0540   24.1230 N   0  0  0  0  0  0  0  0  0  0  0  0
   10.7520   -1.2920   21.7060 C   0  0  0  0  0  0  0  0  0  0  0  0
   10.8340   -0.2530   22.3330 C   0  0  0  0  0  0  0  0  0  0  0  0
    7.0370   -0.7630   21.1020 N   0  0  0  0  0  0  0  0  0  0  0  0
    6.4280   -0.0990   20.0970 C   0  0  0  0  0  0  0  0  0  0  0  0
    5.2550    0.6310   20.2620 C   0  0  0  0  0  0  0  0  0  0  0  0
    4.6390    1.3220   19.2320 C   0  0  0  0  0  0  0  0  0  0  0  0
    5.2200    1.2800   17.9930 C   0  0  0  0  0  0  0  0  0  0  0  0
    6.3500    0.5900   17.7560 N   0  0  0  0  0  0  0  0  0  0  0  0
    6.9230   -0.0770   18.7960 C   0  0  0  0  0  0  0  0  0  0  0  0
  1  2  2  0
  2  3  1  0
  3  4  1  0
  5  4  1  0
  5  6  1  0
  6  7  1  0
  7  8  2  0
  8  9  1  0
  6 10  1  0
  9 10  2  0
  5 11  1  0
  5 12  1  0
 11 12  1  0
  2 13  1  0
 13 14  1  0
 14 15  2  0
 15 16  1  0
 16 17  2  0
 17 18  1  0
 14 19  1  0
 18 19  2  0
M  END
