pyridine_urea_12198
     RDKit          3D

 23 25  0  0  0  0  0  0  0  0999 V2000
   10.6700   -1.8640   23.7940 C   0  0  0  0  0  0  0  0  0  0  0  0
    9.3690   -1.5010   23.0820 C   0  0  2  0  0  0  0  0  0  0  0  0
    9.3720   -0.1020   22.7290 N   0  0  0  0  0  0  0  0  0  0  0  0
    8.6900    0.4290   21.6430 C   0  0  0  0  0  0  0  0  0  0  0  0
    9.0400    1.5100   21.1740 O   0  0  0  0  0  0  0  0  0  0  0  0
    7.6200   -0.3180   21.1800 N   0  0  0  0  0  0  0  0  0  0  0  0
    6.7750    0.1590   20.0890 C   0  0  0  0  0  0  0  0  0  0  0  0
    5.6590    0.9370   20.3700 C   0  0  0  0  0  0  0  0  0  0  0  0
    4.8070    1.4640   19.3950 C   0  0  0  0  0  0  0  0  0  0  0  0
    5.1180    1.1780   18.0710 C   0  0  0  0  0  0  0  0  0  0  0  0
    6.2040    0.4060   17.7690 N   0  0  0  0  0  0  0  0  0  0  0  0
    7.0300   -0.1070   18.7640 C   0  0  0  0  0  0  0  0  0  0  0  0
    8.1340   -1.7630   23.9120 C   0  0  0  0  0  0  0  0  0  0  0  0
    7.9590   -0.9410   24.9900 O   0  0  0  0  0  0  0  0  0  0  0  0
    7.3150   -2.7310   23.5540 N   0  0  0  0  0  0  0  0  0  0  0  0
    6.2900   -3.1730   24.3510 C   0  0  0  0  0  0  0  0  0  0  0  0
    6.0920   -4.4440   23.9240 C   0  0  0  0  0  0  0  0  0  0  0  0
    5.0780   -5.3400   24.1570 C   0  0  0  0  0  0  0  0  0  0  0  0
    5.0910   -6.6120   23.5920 C   0  0  0  0  0  0  0  0  0  0  0  0
    6.1880   -6.9500   22.7740 C   0  0  0  0  0  0  0  0  0  0  0  0
    7.1960   -6.0370   22.5500 C   0  0  0  0  0  0  0  0  0  0  0  0
    7.1240   -4.8050   23.1320 C   0  0  0  0  0  0  0  0  0  0  0  0
    8.0610   -3.8160   22.9850 C   0  0  0  0  0  0  0  0  0  0  0  0
  2  1  1  1
  2  3  1  0
  3  4  1  0
  4  5  2  0
  4  6  1  0
  6  7  1  0
  7  8  2  0
  8  9  1  0
  9 10  2  0
 10 11  1  0
  7 12  1  0
 11 12  2  0
  2 13  1  0
 13 14  2  0
 13 15  1  0
 15 16  1  0
 16 17  1  0
 17 18  1  0
 18 19  2  0
 19 20  1  0
 20 21  2  0
 17 22  2  0
 21 22  1  0
 15 23  1  0
 22 23  1  0
M  END
