pyridine_urea_10347
     RDKit          3D

 22 24  0  0  0  0  0  0  0  0999 V2000
   10.8520    3.4170   23.5660 O   0  0  0  0  0  0  0  0  0  0  0  0
   11.1360    2.2150   23.5520 C   0  0  0  0  0  0  0  0  0  0  0  0
    9.9960    1.0700   24.0330 C   0  0  0  0  0  0  0  0  0  0  0  0
   10.6050   -0.3550   23.9290 C   0  0  1  0  0  0  0  0  0  0  0  0
    9.9110   -1.3190   22.9300 C   0  0  0  0  0  0  0  0  0  0  0  0
    9.5640   -0.8130   21.6020 N   0  0  0  0  0  0  0  0  0  0  0  0
    8.5240    0.0610   21.3220 C   0  0  0  0  0  0  0  0  0  0  0  0
    8.7450    1.4670   21.1440 O   0  0  0  0  0  0  0  0  0  0  0  0
    7.3240   -0.5560   21.1760 N   0  0  0  0  0  0  0  0  0  0  0  0
    6.5670    0.0360   20.2150 C   0  0  0  0  0  0  0  0  0  0  0  0
    5.4090    0.7770   20.4420 C   0  0  0  0  0  0  0  0  0  0  0  0
    4.7060    1.3640   19.3890 C   0  0  0  0  0  0  0  0  0  0  0  0
    5.1560    1.2160   18.0930 C   0  0  0  0  0  0  0  0  0  0  0  0
    6.2530    0.5180   17.7580 N   0  0  0  0  0  0  0  0  0  0  0  0
    6.9510   -0.0640   18.7690 C   0  0  0  0  0  0  0  0  0  0  0  0
   11.6380    0.5540   23.4810 C   0  0  0  0  0  0  0  0  0  0  0  0
   11.1910    1.8160   23.6860 C   0  0  0  0  0  0  0  0  0  0  0  0
   12.3650    1.0680   23.1670 C   0  0  0  0  0  0  0  0  0  0  0  0
   11.5010   -0.1350   23.5220 C   0  0  0  0  0  0  0  0  0  0  0  0
   12.6220   -0.5010   23.0400 C   0  0  0  0  0  0  0  0  0  0  0  0
   13.0590    0.6850   22.8580 C   0  0  0  0  0  0  0  0  0  0  0  0
   12.5240    1.9450   23.0880 N   0  0  0  0  0  0  0  0  0  0  0  0
  1  2  2  0
  2  3  1  0
  3  4  1  0
  4  5  1  6
  5  6  1  0
  6  7  1  0
  7  8  2  0
  7  9  1  0
  9 10  1  0
 10 11  2  0
 11 12  1  0
 12 13  2  0
 13 14  1  0
 10 15  1  0
 14 15  2  0
  4 16  1  0
 16 17  1  0
 17 18  2  0
 18 19  1  0
 19 20  2  0
 16 21  2  0
 20 21  1  0
  2 22  1  0
 21 22  1  0
M  END
