pyridine_urea_6393
     RDKit          3D

 19 19  0  0  0  0  0  0  0  0999 V2000
   12.4800    3.7480   22.5170 C   0  0  0  0  0  0  0  0  0  0  0  0
   11.4760    3.2380   22.9440 C   0  0  0  0  0  0  0  0  0  0  0  0
   11.5880    1.7720   23.0960 N   0  0  0  0  0  0  0  0  0  0  0  0
   12.8220    1.1160   22.7950 C   0  0  0  0  0  0  0  0  0  0  0  0
   12.9210   -0.0150   23.7020 C   0  0  0  0  0  0  0  0  0  0  0  0
   10.9160    1.1640   24.1040 C   0  0  0  0  0  0  0  0  0  0  0  0
    9.9820    0.0000   23.7910 C   0  0  0  0  0  0  0  0  0  0  0  0
   10.2110   -0.5990   22.4590 C   0  0  1  0  0  0  0  0  0  0  0  0
   11.1710   -1.5240   22.2950 C   0  0  0  0  0  0  0  0  0  0  0  0
    8.9560   -1.1340   22.0130 N   0  0  0  0  0  0  0  0  0  0  0  0
    8.1170   -0.2440   21.3440 C   0  0  0  0  0  0  0  0  0  0  0  0
    8.4650    0.9010   21.0970 O   0  0  0  0  0  0  0  0  0  0  0  0
    6.9340   -0.7890   21.0220 N   0  0  0  0  0  0  0  0  0  0  0  0
    6.2770   -0.0670   20.0910 C   0  0  0  0  0  0  0  0  0  0  0  0
    5.0880    0.6310   20.3020 C   0  0  0  0  0  0  0  0  0  0  0  0
    4.5510    1.3320   19.2510 C   0  0  0  0  0  0  0  0  0  0  0  0
    5.2370    1.3350   17.9250 C   0  0  0  0  0  0  0  0  0  0  0  0
    6.3780    0.6700   17.6940 N   0  0  0  0  0  0  0  0  0  0  0  0
    6.8860   -0.0170   18.7450 C   0  0  0  0  0  0  0  0  0  0  0  0
  1  2  1  0
  2  3  1  0
  3  4  1  0
  4  5  1  0
  3  6  1  0
  6  7  1  0
  7  8  1  0
  8  9  1  1
  8 10  1  0
 10 11  1  0
 11 12  2  0
 11 13  1  0
 13 14  1  0
 14 15  2  0
 15 16  1  0
 16 17  2  0
 17 18  1  0
 14 19  1  0
 18 19  2  0
M  END
