pyridine_urea_4554
     RDKit          3D

 23 25  0  0  0  0  0  0  0  0999 V2000
   10.5180    1.7190   24.4670 C   0  0  0  0  0  0  0  0  0  0  0  0
   11.0320    0.3950   23.9810 C   0  0  0  0  0  0  0  0  0  0  0  0
   10.2790    0.0300   22.7450 C   0  0  0  0  0  0  0  0  0  0  0  0
    9.9700   -0.8530   21.6570 C   0  0  1  0  0  0  0  0  0  0  0  0
   10.8220   -2.1030   21.7450 C   0  0  0  0  0  0  0  0  0  0  0  0
    8.6210   -1.2130   21.9920 N   0  0  0  0  0  0  0  0  0  0  0  0
    7.8350   -0.2070   21.5710 C   0  0  0  0  0  0  0  0  0  0  0  0
    8.2180    0.9550   21.6300 O   0  0  0  0  0  0  0  0  0  0  0  0
    6.6640   -0.6460   21.0560 N   0  0  0  0  0  0  0  0  0  0  0  0
    6.1610    0.0290   19.9560 C   0  0  0  0  0  0  0  0  0  0  0  0
    4.9700    0.7310   20.1000 C   0  0  0  0  0  0  0  0  0  0  0  0
    4.4670    1.4320   19.0110 C   0  0  0  0  0  0  0  0  0  0  0  0
    5.1740    1.4010   17.8270 C   0  0  0  0  0  0  0  0  0  0  0  0
    6.3200    0.7190   17.6740 N   0  0  0  0  0  0  0  0  0  0  0  0
    6.7920    0.0480   18.7350 C   0  0  0  0  0  0  0  0  0  0  0  0
   10.9860   -1.1560   22.5390 O   0  0  0  0  0  0  0  0  0  0  0  0
   11.8860   -1.4400   23.4290 C   0  0  0  0  0  0  0  0  0  0  0  0
   12.6460   -2.6560   23.2750 C   0  0  0  0  0  0  0  0  0  0  0  0
   13.5160   -2.8900   24.2820 C   0  0  0  0  0  0  0  0  0  0  0  0
   13.6600   -1.9830   25.4020 C   0  0  0  0  0  0  0  0  0  0  0  0
   14.5370   -2.3190   26.3560 F   0  0  0  0  0  0  0  0  0  0  0  0
   12.8930   -0.8140   25.4240 C   0  0  0  0  0  0  0  0  0  0  0  0
   12.0480   -0.6400   24.4070 C   0  0  0  0  0  0  0  0  0  0  0  0
  1  2  1  0
  2  3  2  0
  3  4  1  0
  4  5  1  1
  4  6  1  0
  6  7  1  0
  7  8  2  0
  7  9  1  0
  9 10  1  0
 10 11  2  0
 11 12  1  0
 12 13  2  0
 13 14  1  0
 10 15  1  0
 14 15  2  0
  3 16  1  0
 16 17  1  0
 17 18  1  0
 18 19  2  0
 19 20  1  0
 20 21  1  0
 20 22  2  0
  2 23  1  0
 17 23  2  0
 22 23  1  0
M  END
