pyridine_urea_3598
     RDKit          3D

 17 17  0  0  0  0  0  0  0  0999 V2000
   12.8520   -1.1590   24.3570 C   0  0  0  0  0  0  0  0  0  0  0  0
   12.4210    0.1320   23.6740 C   0  0  0  0  0  0  0  0  0  0  0  0
   13.2260    0.3020   22.4720 C   0  0  0  0  0  0  0  0  0  0  0  0
   10.9360    0.1130   23.3000 C   0  0  0  0  0  0  0  0  0  0  0  0
   10.5890   -1.0950   22.4770 C   0  0  0  0  0  0  0  0  0  0  0  0
   11.6190   -1.9870   21.7830 C   0  0  0  0  0  0  0  0  0  0  0  0
   10.9690   -2.4240   23.0180 C   0  0  0  0  0  0  0  0  0  0  0  0
    9.2100   -1.2690   22.0530 N   0  0  0  0  0  0  0  0  0  0  0  0
    8.4990   -0.2150   21.5180 C   0  0  0  0  0  0  0  0  0  0  0  0
    8.9440    0.9210   21.4750 O   0  0  0  0  0  0  0  0  0  0  0  0
    7.2610   -0.6140   21.0580 N   0  0  0  0  0  0  0  0  0  0  0  0
    6.4980    0.0510   20.0790 C   0  0  0  0  0  0  0  0  0  0  0  0
    5.3330    0.7590   20.3110 C   0  0  0  0  0  0  0  0  0  0  0  0
    4.6680    1.3860   19.2610 C   0  0  0  0  0  0  0  0  0  0  0  0
    5.2040    1.2840   17.9880 C   0  0  0  0  0  0  0  0  0  0  0  0
    6.3260    0.6020   17.7360 N   0  0  0  0  0  0  0  0  0  0  0  0
    6.9390    0.0050   18.7730 C   0  0  0  0  0  0  0  0  0  0  0  0
  1  2  1  0
  2  3  1  0
  2  4  1  0
  4  5  1  0
  5  6  1  0
  5  7  1  0
  5  8  1  0
  8  9  1  0
  9 10  2  0
  9 11  1  0
 11 12  1  0
 12 13  2  0
 13 14  1  0
 14 15  2  0
 15 16  1  0
 12 17  1  0
 16 17  2  0
M  END
