pyridine_urea_3963
     RDKit          3D

 28 31  0  0  0  0  0  0  0  0999 V2000
    8.6240    0.8760   21.1170 O   0  0  0  0  0  0  0  0  0  0  0  0
    8.2280   -0.2300   21.4700 C   0  0  0  0  0  0  0  0  0  0  0  0
    7.0860   -0.8000   21.0020 N   0  0  0  0  0  0  0  0  0  0  0  0
    6.4070   -0.1170   19.9880 C   0  0  0  0  0  0  0  0  0  0  0  0
    5.2070    0.5490   20.2640 C   0  0  0  0  0  0  0  0  0  0  0  0
    4.5550    1.2480   19.2440 C   0  0  0  0  0  0  0  0  0  0  0  0
    5.1320    1.2520   17.9900 C   0  0  0  0  0  0  0  0  0  0  0  0
    6.2750    0.6150   17.7090 N   0  0  0  0  0  0  0  0  0  0  0  0
    6.8820   -0.0520   18.7030 C   0  0  0  0  0  0  0  0  0  0  0  0
    8.9450   -0.9370   22.3990 N   0  0  0  0  0  0  0  0  0  0  0  0
    9.7570   -0.0070   23.1740 C   0  0  2  0  0  0  0  0  0  0  0  0
   11.1600    0.3900   22.7270 C   0  0  0  0  0  0  0  0  0  0  0  0
   12.3070    1.1830   22.4930 C   0  0  0  0  0  0  0  0  0  0  0  0
   12.5840    2.5310   22.7120 C   0  0  0  0  0  0  0  0  0  0  0  0
   11.6930    3.3650   23.2260 C   0  0  0  0  0  0  0  0  0  0  0  0
   10.5200    2.8760   23.5450 C   0  0  0  0  0  0  0  0  0  0  0  0
   10.2030    1.5380   23.3550 C   0  0  0  0  0  0  0  0  0  0  0  0
    9.5800    3.7220   24.0860 O   0  0  0  0  0  0  0  0  0  0  0  0
    9.7390    5.0480   23.5570 C   0  0  0  0  0  0  0  0  0  0  0  0
   11.1490    5.5820   23.8660 C   0  0  0  0  0  0  0  0  0  0  0  0
   12.1690    4.7060   23.3590 O   0  0  0  0  0  0  0  0  0  0  0  0
   10.5820   -0.3040   24.3860 C   0  0  0  0  0  0  0  0  0  0  0  0
   11.5610   -0.7420   25.2360 C   0  0  0  0  0  0  0  0  0  0  0  0
   12.7460   -1.4790   25.0790 C   0  0  0  0  0  0  0  0  0  0  0  0
   13.1400   -1.9680   23.9030 C   0  0  0  0  0  0  0  0  0  0  0  0
   12.2990   -1.6870   22.9220 C   0  0  0  0  0  0  0  0  0  0  0  0
   11.1520   -0.9270   23.1960 C   0  0  0  0  0  0  0  0  0  0  0  0
   10.2330   -0.7250   21.7870 Cl  0  0  0  0  0  0  0  0  0  0  0  0
  1  2  2  0
  2  3  1  0
  3  4  1  0
  4  5  2  0
  5  6  1  0
  6  7  2  0
  7  8  1  0
  4  9  1  0
  8  9  2  0
  2 10  1  0
 11 10  1  6
 11 12  1  0
 12 13  2  0
 13 14  1  0
 14 15  2  0
 15 16  1  0
 12 17  1  0
 16 17  2  0
 16 18  1  0
 18 19  1  0
 19 20  1  0
 15 21  1  0
 20 21  1  0
 11 22  1  0
 22 23  2  0
 23 24  1  0
 24 25  2  0
 25 26  1  0
 22 27  1  0
 26 27  2  0
 27 28  1  0
M  END
