pyridine_urea_9323
     RDKit          3D

 17 18  0  0  0  0  0  0  0  0999 V2000
   12.2930   -1.4190   24.7070 C   0  0  0  0  0  0  0  0  0  0  0  0
   12.8790   -0.3370   23.8520 C   0  0  0  0  0  0  0  0  0  0  0  0
   12.4490   -0.2960   22.5960 C   0  0  1  0  0  0  0  0  0  0  0  0
   12.3680   -1.5360   22.1040 C   0  0  0  0  0  0  0  0  0  0  0  0
   11.1040   -1.4880   22.6080 C   0  0  2  0  0  0  0  0  0  0  0  0
   10.0050   -2.0090   21.9950 C   0  0  0  0  0  0  0  0  0  0  0  0
    9.1820   -1.2380   21.1840 N   0  0  0  0  0  0  0  0  0  0  0  0
    8.3990   -0.1510   21.4390 C   0  0  0  0  0  0  0  0  0  0  0  0
    8.7990    0.9420   21.8030 O   0  0  0  0  0  0  0  0  0  0  0  0
    7.0840   -0.4730   21.1720 N   0  0  0  0  0  0  0  0  0  0  0  0
    6.3370    0.1740   20.0970 C   0  0  0  0  0  0  0  0  0  0  0  0
    5.1550    0.8690   20.2500 C   0  0  0  0  0  0  0  0  0  0  0  0
    4.5550    1.4600   19.1410 C   0  0  0  0  0  0  0  0  0  0  0  0
    5.1740    1.3290   17.9070 C   0  0  0  0  0  0  0  0  0  0  0  0
    6.3190    0.6520   17.7310 N   0  0  0  0  0  0  0  0  0  0  0  0
    6.8640    0.0940   18.8190 C   0  0  0  0  0  0  0  0  0  0  0  0
   11.0950    0.0440   22.8110 C   0  0  0  0  0  0  0  0  0  0  0  0
  1  2  1  0
  3  2  1  1
  3  4  1  0
  4  5  1  0
  5  6  1  6
  6  7  1  0
  7  8  1  0
  8  9  2  0
  8 10  1  0
 10 11  1  0
 11 12  2  0
 12 13  1  0
 13 14  2  0
 14 15  1  0
 11 16  1  0
 15 16  2  0
  3 17  1  0
  5 17  1  0
M  END
