pyridine_urea_13724
     RDKit          3D

 25 27  0  0  0  0  0  0  0  0999 V2000
   10.2220    0.1920   23.6800 C   0  0  0  0  0  0  0  0  0  0  0  0
   11.6730    0.2970   23.1610 C   0  0  0  0  0  0  0  0  0  0  0  0
   12.5570    1.3680   23.6680 C   0  0  0  0  0  0  0  0  0  0  0  0
   12.6270    0.2660   22.7240 C   0  0  0  0  0  0  0  0  0  0  0  0
   11.2340   -0.4550   22.6300 C   0  0  0  0  0  0  0  0  0  0  0  0
    9.9870   -0.2700   23.2330 C   0  0  0  0  0  0  0  0  0  0  0  0
    9.0440   -0.8360   22.4000 N   0  0  0  0  0  0  0  0  0  0  0  0
    8.4720    0.0710   21.5380 C   0  0  0  0  0  0  0  0  0  0  0  0
    8.9750    1.1700   21.2460 O   0  0  0  0  0  0  0  0  0  0  0  0
    7.2730   -0.4240   21.0830 N   0  0  0  0  0  0  0  0  0  0  0  0
    6.5540    0.1490   20.0350 C   0  0  0  0  0  0  0  0  0  0  0  0
    5.4010    0.8740   20.3070 C   0  0  0  0  0  0  0  0  0  0  0  0
    4.7010    1.4570   19.2800 C   0  0  0  0  0  0  0  0  0  0  0  0
    5.1420    1.3240   17.9730 C   0  0  0  0  0  0  0  0  0  0  0  0
    6.2460    0.6230   17.6770 N   0  0  0  0  0  0  0  0  0  0  0  0
    6.9250    0.0520   18.7070 C   0  0  0  0  0  0  0  0  0  0  0  0
   11.4870   -1.4720   21.6640 C   0  0  0  0  0  0  0  0  0  0  0  0
   10.3800   -1.8800   21.7220 O   0  0  0  0  0  0  0  0  0  0  0  0
   11.0190   -2.4130   22.7620 C   0  0  0  0  0  0  0  0  0  0  0  0
   12.3110   -1.9990   22.5160 C   0  0  0  0  0  0  0  0  0  0  0  0
   13.3940   -2.2320   23.2620 C   0  0  0  0  0  0  0  0  0  0  0  0
   13.2910   -2.9420   24.3650 C   0  0  0  0  0  0  0  0  0  0  0  0
   11.8980   -3.4370   24.6540 C   0  0  0  0  0  0  0  0  0  0  0  0
   10.6870   -3.1460   23.8190 C   0  0  0  0  0  0  0  0  0  0  0  0
   12.6260   -0.5460   22.0680 C   0  0  0  0  0  0  0  0  0  0  0  0
  1  2  1  0
  2  3  2  0
  3  4  1  0
  4  5  2  0
  5  6  1  0
  6  7  1  0
  7  8  1  0
  8  9  2  0
  8 10  1  0
 10 11  1  0
 11 12  2  0
 12 13  1  0
 13 14  2  0
 14 15  1  0
 11 16  1  0
 15 16  2  0
  5 17  1  0
 17 18  1  0
 18 19  1  0
 19 20  2  0
 20 21  1  0
 21 22  2  0
 22 23  1  0
 19 24  1  0
 23 24  2  0
  2 25  1  0
 17 25  2  0
M  END
