pyridine_urea_12374
     RDKit          3D

 22 24  0  0  0  0  0  0  0  0999 V2000
    8.7350    0.9990   21.2610 O   0  0  0  0  0  0  0  0  0  0  0  0
    8.5320   -0.2090   21.2620 C   0  0  0  0  0  0  0  0  0  0  0  0
    7.2790   -0.7340   21.0470 N   0  0  0  0  0  0  0  0  0  0  0  0
    6.5160   -0.0390   20.0330 C   0  0  0  0  0  0  0  0  0  0  0  0
    5.1900    0.7120   20.3960 C   0  0  0  0  0  0  0  0  0  0  0  0
    4.5330    1.3690   19.3590 C   0  0  0  0  0  0  0  0  0  0  0  0
    5.1780    1.2890   17.9700 C   0  0  0  0  0  0  0  0  0  0  0  0
    6.3210    0.6200   17.7200 N   0  0  0  0  0  0  0  0  0  0  0  0
    6.9470   -0.0150   18.7300 C   0  0  0  0  0  0  0  0  0  0  0  0
    9.4880   -1.1670   21.4590 N   0  0  0  0  0  0  0  0  0  0  0  0
   10.3470   -0.9350   22.5900 C   0  0  0  0  0  0  0  0  0  0  0  0
   11.8450   -0.9940   22.4010 C   0  0  0  0  0  0  0  0  0  0  0  0
   12.6430   -0.7150   23.6610 C   0  0  0  0  0  0  0  0  0  0  0  0
   11.8610   -0.4270   24.9760 C   0  0  0  0  0  0  0  0  0  0  0  0
   10.2970   -0.4260   24.9700 C   0  0  0  0  0  0  0  0  0  0  0  0
    9.3030   -0.2410   25.9360 N   0  0  0  0  0  0  0  0  0  0  0  0
    9.4430    0.2720   27.1840 C   0  0  0  0  0  0  0  0  0  0  0  0
    8.5960   -0.0670   28.2490 C   0  0  0  0  0  0  0  0  0  0  0  0
    7.3410   -0.5210   27.8030 C   0  0  0  0  0  0  0  0  0  0  0  0
    7.0020   -0.1230   26.5140 C   0  0  0  0  0  0  0  0  0  0  0  0
    7.9010   -0.4930   25.5380 C   0  0  0  0  0  0  0  0  0  0  0  0
    9.7210   -0.6760   23.7600 C   0  0  0  0  0  0  0  0  0  0  0  0
  1  2  2  0
  2  3  1  0
  3  4  1  0
  4  5  2  0
  5  6  1  0
  6  7  2  0
  7  8  1  0
  4  9  1  0
  8  9  2  0
  2 10  1  0
 10 11  1  0
 11 12  2  0
 12 13  1  0
 13 14  2  0
 14 15  1  0
 15 16  1  0
 16 17  1  0
 17 18  1  0
 18 19  1  0
 19 20  1  0
 16 21  1  0
 20 21  1  0
 11 22  1  0
 15 22  2  0
M  END
