pyridine_urea_11324
     RDKit          3D

 22 24  0  0  0  0  0  0  0  0999 V2000
    8.7970    1.2120   21.0740 O   0  0  0  0  0  0  0  0  0  0  0  0
    8.6110    0.0200   21.3580 C   0  0  0  0  0  0  0  0  0  0  0  0
    7.4210   -0.6160   21.0830 N   0  0  0  0  0  0  0  0  0  0  0  0
    6.6440    0.0040   20.0360 C   0  0  0  0  0  0  0  0  0  0  0  0
    5.3940    0.7610   20.4660 C   0  0  0  0  0  0  0  0  0  0  0  0
    4.6410    1.3970   19.3470 C   0  0  0  0  0  0  0  0  0  0  0  0
    5.1260    1.2510   18.0620 C   0  0  0  0  0  0  0  0  0  0  0  0
    6.2340    0.5660   17.7340 N   0  0  0  0  0  0  0  0  0  0  0  0
    6.9550   -0.0320   18.7040 C   0  0  0  0  0  0  0  0  0  0  0  0
    9.5590   -0.7840   21.9700 N   0  0  0  0  0  0  0  0  0  0  0  0
   10.1250   -0.2760   23.2330 C   0  0  2  0  0  0  0  0  0  0  0  0
    9.1010    0.3510   23.8260 C   0  0  0  0  0  0  0  0  0  0  0  0
    9.2000    1.7360   23.2670 C   0  0  0  0  0  0  0  0  0  0  0  0
    8.2500    2.6960   23.6500 C   0  0  0  0  0  0  0  0  0  0  0  0
    7.2080    2.3620   24.5550 C   0  0  0  0  0  0  0  0  0  0  0  0
    7.1360    1.0750   25.0700 C   0  0  0  0  0  0  0  0  0  0  0  0
    8.0980   -0.0080   24.7230 C   0  0  0  0  0  0  0  0  0  0  0  0
    7.9400   -1.2370   25.2690 F   0  0  0  0  0  0  0  0  0  0  0  0
   11.5150    0.4680   23.0540 C   0  0  0  0  0  0  0  0  0  0  0  0
   12.0090   -0.8300   23.4990 C   0  0  1  0  0  0  0  0  0  0  0  0
   13.0200   -0.7110   24.3800 F   0  0  0  0  0  0  0  0  0  0  0  0
   10.8840   -1.3890   24.0630 C   0  0  0  0  0  0  0  0  0  0  0  0
  1  2  2  0
  2  3  1  0
  3  4  1  0
  4  5  2  0
  5  6  1  0
  6  7  2  0
  7  8  1  0
  4  9  1  0
  8  9  2  0
  2 10  1  0
 11 10  1  6
 11 12  1  0
 12 13  2  0
 13 14  1  0
 14 15  2  0
 15 16  1  0
 12 17  1  0
 16 17  2  0
 17 18  1  0
 11 19  1  0
 19 20  1  0
 20 21  1  1
 11 22  1  0
 20 22  1  0
M  END
