pyridine_urea_10485
     RDKit          3D

 22 24  0  0  0  0  0  0  0  0999 V2000
    8.3940    0.2670   21.2850 O   0  0  0  0  0  0  0  0  0  0  0  0
    7.7420   -0.7500   21.5190 C   0  0  0  0  0  0  0  0  0  0  0  0
    6.5830   -1.0380   20.8930 N   0  0  0  0  0  0  0  0  0  0  0  0
    6.0340   -0.1810   19.9510 C   0  0  0  0  0  0  0  0  0  0  0  0
    4.7700    0.6460   20.2020 C   0  0  0  0  0  0  0  0  0  0  0  0
    4.3610    1.5190   19.0280 C   0  0  0  0  0  0  0  0  0  0  0  0
    5.2140    1.4730   17.8010 C   0  0  0  0  0  0  0  0  0  0  0  0
    6.3110    0.7030   17.6870 N   0  0  0  0  0  0  0  0  0  0  0  0
    6.6820   -0.0760   18.7260 C   0  0  0  0  0  0  0  0  0  0  0  0
    8.0990   -1.7300   22.4380 N   0  0  0  0  0  0  0  0  0  0  0  0
    9.4810   -1.8260   22.7620 C   0  0  1  0  0  0  0  0  0  0  0  0
   10.0250   -1.0940   21.7450 C   0  0  0  0  0  0  0  0  0  0  0  0
    9.7600    0.1450   22.2190 C   0  0  0  0  0  0  0  0  0  0  0  0
   10.1090    0.2330   23.4330 N   0  0  0  0  0  0  0  0  0  0  0  0
   11.3680    0.4430   23.2300 C   0  0  0  0  0  0  0  0  0  0  0  0
   11.6000    1.7880   22.9470 C   0  0  0  0  0  0  0  0  0  0  0  0
   12.8460    2.2430   22.6820 C   0  0  0  0  0  0  0  0  0  0  0  0
   13.7740    1.0480   22.7320 C   0  0  0  0  0  0  0  0  0  0  0  0
   13.4660   -0.2420   23.0110 C   0  0  0  0  0  0  0  0  0  0  0  0
   12.2640   -0.5690   23.2790 C   0  0  0  0  0  0  0  0  0  0  0  0
   11.9550   -2.3930   23.6790 Br  0  0  0  0  0  0  0  0  0  0  0  0
    9.7330   -1.0910   23.9320 C   0  0  0  0  0  0  0  0  0  0  0  0
  1  2  2  0
  2  3  1  0
  3  4  1  0
  4  5  2  0
  5  6  1  0
  6  7  2  0
  7  8  1  0
  4  9  1  0
  8  9  2  0
  2 10  1  0
 11 10  1  6
 11 12  1  0
 12 13  1  0
 13 14  1  0
 14 15  1  0
 15 16  2  0
 16 17  1  0
 17 18  2  0
 18 19  1  0
 15 20  1  0
 19 20  2  0
 20 21  1  0
 11 22  1  0
 14 22  1  0
M  END
