pyridine_urea_13586
     RDKit          3D

 29 32  0  0  0  0  0  0  0  0999 V2000
    8.6430    0.2810   21.0980 O   0  0  0  0  0  0  0  0  0  0  0  0
    8.0290   -0.6800   21.5160 C   0  0  0  0  0  0  0  0  0  0  0  0
    8.4260   -1.5720   22.4890 N   0  0  0  0  0  0  0  0  0  0  0  0
    9.7450   -1.6840   22.9500 C   0  0  0  0  0  0  0  0  0  0  0  0
   10.7890   -0.8200   22.2380 C   0  0  2  0  0  0  0  0  0  0  0  0
   12.0270   -0.4420   22.9740 C   0  0  0  0  0  0  0  0  0  0  0  0
   13.1470   -0.1490   23.5750 C   0  0  0  0  0  0  0  0  0  0  0  0
   12.2290    0.4660   24.1950 C   0  0  0  0  0  0  0  0  0  0  0  0
   11.0030   -0.0290   23.4960 C   0  0  0  0  0  0  0  0  0  0  0  0
    9.3840    0.3400   23.9060 Cl  0  0  0  0  0  0  0  0  0  0  0  0
   11.3230   -0.9750   22.3310 C   0  0  0  0  0  0  0  0  0  0  0  0
   12.6770   -1.2080   22.1710 C   0  0  0  0  0  0  0  0  0  0  0  0
   12.6330   -2.2900   20.8970 Cl  0  0  0  0  0  0  0  0  0  0  0  0
   10.5000    0.5950   22.1100 N   0  0  0  0  0  0  0  0  0  0  0  0
    9.3350    1.2660   22.5640 C   0  0  0  0  0  0  0  0  0  0  0  0
    9.3220    2.6640   22.3820 C   0  0  0  0  0  0  0  0  0  0  0  0
   10.6220    3.2590   22.4900 C   0  0  0  0  0  0  0  0  0  0  0  0
   10.9650    4.9770   22.4590 S   0  0  0  0  0  0  0  0  0  0  0  0
   12.6530    4.7790   22.5830 C   0  0  0  0  0  0  0  0  0  0  0  0
   12.9470    3.4600   22.6760 C   0  0  0  0  0  0  0  0  0  0  0  0
   11.9510    2.5250   22.6620 C   0  0  0  0  0  0  0  0  0  0  0  0
   11.6230    1.1520   22.7450 C   0  0  0  0  0  0  0  0  0  0  0  0
    6.7940   -0.9600   21.0010 N   0  0  0  0  0  0  0  0  0  0  0  0
    6.2750   -0.2130   20.0060 C   0  0  0  0  0  0  0  0  0  0  0  0
    4.9950    0.5790   20.2480 C   0  0  0  0  0  0  0  0  0  0  0  0
    4.4820    1.4030   19.0800 C   0  0  0  0  0  0  0  0  0  0  0  0
    5.2060    1.3730   17.9020 C   0  0  0  0  0  0  0  0  0  0  0  0
    6.3390    0.6520   17.7310 N   0  0  0  0  0  0  0  0  0  0  0  0
    6.8300   -0.0990   18.7490 C   0  0  0  0  0  0  0  0  0  0  0  0
  1  2  2  0
  2  3  1  0
  3  4  1  0
  5  4  1  1
  5  6  1  0
  6  7  2  0
  7  8  1  0
  8  9  2  0
  9 10  1  0
  9 11  1  0
  6 12  1  0
 11 12  2  0
 12 13  1  0
  5 14  1  0
 14 15  1  0
 15 16  1  0
 16 17  1  0
 17 18  1  0
 18 19  1  0
 19 20  2  0
 17 21  2  0
 20 21  1  0
 14 22  1  0
 21 22  1  0
  2 23  1  0
 23 24  1  0
 24 25  2  0
 25 26  1  0
 26 27  2  0
 27 28  1  0
 24 29  1  0
 28 29  2  0
M  END
