pyridine_urea_1157
     RDKit          3D

 21 23  0  0  0  0  0  0  0  0999 V2000
    9.9900   -4.8410   26.6600 C   0  0  0  0  0  0  0  0  0  0  0  0
   10.6980   -3.7360   25.8260 C   0  0  0  0  0  0  0  0  0  0  0  0
   12.2230   -3.8060   25.8340 C   0  0  0  0  0  0  0  0  0  0  0  0
   12.9450   -2.9180   25.0840 C   0  0  0  0  0  0  0  0  0  0  0  0
   12.1510   -1.9570   24.3690 N   0  0  0  0  0  0  0  0  0  0  0  0
   12.5670   -0.9500   23.5420 C   0  0  0  0  0  0  0  0  0  0  0  0
   11.4830   -0.1510   23.0230 C   0  0  0  0  0  0  0  0  0  0  0  0
   10.2480    0.3770   22.7310 C   0  0  0  0  0  0  0  0  0  0  0  0
    9.3270   -0.3560   22.0580 N   0  0  0  0  0  0  0  0  0  0  0  0
    8.3280    0.1700   21.3050 C   0  0  0  0  0  0  0  0  0  0  0  0
    8.4970    1.3330   20.9150 O   0  0  0  0  0  0  0  0  0  0  0  0
    7.2390   -0.5670   21.0230 N   0  0  0  0  0  0  0  0  0  0  0  0
    6.5220    0.0260   20.0440 C   0  0  0  0  0  0  0  0  0  0  0  0
    5.3460    0.7100   20.3840 C   0  0  0  0  0  0  0  0  0  0  0  0
    4.6150    1.3460   19.3720 C   0  0  0  0  0  0  0  0  0  0  0  0
    5.1350    1.2590   17.9790 C   0  0  0  0  0  0  0  0  0  0  0  0
    6.2530    0.5890   17.6910 N   0  0  0  0  0  0  0  0  0  0  0  0
    6.9070   -0.0020   18.7170 C   0  0  0  0  0  0  0  0  0  0  0  0
   10.4710   -0.9110   23.6830 N   0  0  0  0  0  0  0  0  0  0  0  0
   10.8210   -1.9340   24.4380 C   0  0  0  0  0  0  0  0  0  0  0  0
   10.0470   -2.8270   25.1640 N   0  0  0  0  0  0  0  0  0  0  0  0
  1  2  1  0
  2  3  1  0
  3  4  2  0
  4  5  1  0
  5  6  1  0
  6  7  2  0
  7  8  1  0
  8  9  1  0
  9 10  1  0
 10 11  2  0
 10 12  1  0
 12 13  1  0
 13 14  2  0
 14 15  1  0
 15 16  2  0
 16 17  1  0
 13 18  1  0
 17 18  2  0
  7 19  1  0
  5 20  1  0
 19 20  2  0
  2 21  2  0
 20 21  1  0
M  END
