pyridine_urea_12681
     RDKit          3D

 20 20  0  0  0  0  0  0  0  0999 V2000
    8.6380   -4.0740   24.8730 C   0  0  0  0  0  0  0  0  0  0  0  0
    8.5150   -3.1340   23.6450 C   0  0  0  0  0  0  0  0  0  0  0  0
    9.7900   -2.5320   23.4160 O   0  0  0  0  0  0  0  0  0  0  0  0
    9.6290   -1.1680   23.5710 C   0  0  0  0  0  0  0  0  0  0  0  0
    9.1150   -1.6620   24.8530 O   0  0  0  0  0  0  0  0  0  0  0  0
   10.1870   -1.2060   22.2880 C   0  0  1  0  0  0  0  0  0  0  0  0
   11.1630   -2.1690   22.0130 C   0  0  0  0  0  0  0  0  0  0  0  0
   12.4960   -1.7830   21.7640 C   0  0  0  0  0  0  0  0  0  0  0  0
   12.8510   -0.5650   22.2610 C   0  0  0  0  0  0  0  0  0  0  0  0
   13.6460   -0.4480   23.3710 N   0  0  0  0  0  0  0  0  0  0  0  0
    9.0440   -1.2910   21.5520 N   0  0  0  0  0  0  0  0  0  0  0  0
    8.3200   -0.1600   21.2870 C   0  0  0  0  0  0  0  0  0  0  0  0
    8.8680    1.1690   21.1740 O   0  0  0  0  0  0  0  0  0  0  0  0
    7.0110   -0.4430   21.1300 N   0  0  0  0  0  0  0  0  0  0  0  0
    6.4070    0.1490   20.0810 C   0  0  0  0  0  0  0  0  0  0  0  0
    5.2260    0.8670   20.3240 C   0  0  0  0  0  0  0  0  0  0  0  0
    4.6070    1.4900   19.2350 C   0  0  0  0  0  0  0  0  0  0  0  0
    5.2310    1.3580   17.8980 C   0  0  0  0  0  0  0  0  0  0  0  0
    6.3500    0.6680   17.6800 N   0  0  0  0  0  0  0  0  0  0  0  0
    6.8960    0.0860   18.7760 C   0  0  0  0  0  0  0  0  0  0  0  0
  1  2  1  0
  2  3  1  0
  3  4  1  0
  4  5  2  0
  4  6  1  0
  6  7  1  1
  7  8  1  0
  8  9  1  0
  9 10  3  0
  6 11  1  0
 11 12  1  0
 12 13  2  0
 12 14  1  0
 14 15  1  0
 15 16  2  0
 16 17  1  0
 17 18  2  0
 18 19  1  0
 15 20  1  0
 19 20  2  0
M  END
