pyridine_urea_6928
     RDKit          3D

 21 22  0  0  0  0  0  0  0  0999 V2000
    9.7760   -1.2480   21.5770 C   0  0  0  0  0  0  0  0  0  0  0  0
   10.8750   -1.2320   22.5850 C   0  0  0  0  0  0  0  0  0  0  0  0
   11.4600   -1.9880   21.7920 C   0  0  0  0  0  0  0  0  0  0  0  0
   12.1500   -1.8340   22.7370 C   0  0  0  0  0  0  0  0  0  0  0  0
   13.3640   -2.4250   22.9530 C   0  0  0  0  0  0  0  0  0  0  0  0
   11.4070   -0.8650   23.6460 C   0  0  0  0  0  0  0  0  0  0  0  0
   10.1470   -0.0230   23.7740 C   0  0  0  0  0  0  0  0  0  0  0  0
    9.0040   -0.7540   23.9310 C   0  0  0  0  0  0  0  0  0  0  0  0
    7.9690   -0.0230   23.1760 N   0  0  0  0  0  0  0  0  0  0  0  0
    8.0900    0.3100   21.7200 C   0  0  0  0  0  0  0  0  0  0  0  0
    8.8360    1.1920   21.2670 O   0  0  0  0  0  0  0  0  0  0  0  0
    7.1880   -0.5380   20.9760 N   0  0  0  0  0  0  0  0  0  0  0  0
    6.4970    0.1040   19.9690 C   0  0  0  0  0  0  0  0  0  0  0  0
    5.3220    0.8220   20.1970 C   0  0  0  0  0  0  0  0  0  0  0  0
    4.6330    1.5130   19.0900 C   0  0  0  0  0  0  0  0  0  0  0  0
    5.1410    1.4650   17.8050 C   0  0  0  0  0  0  0  0  0  0  0  0
    6.3190    0.7180   17.6510 N   0  0  0  0  0  0  0  0  0  0  0  0
    6.9460    0.0800   18.6670 C   0  0  0  0  0  0  0  0  0  0  0  0
   12.2820   -1.0670   24.2290 C   0  0  0  0  0  0  0  0  0  0  0  0
   12.8770   -0.8090   25.3110 C   0  0  0  0  0  0  0  0  0  0  0  0
   12.4840   -1.8560   23.0110 C   0  0  0  0  0  0  0  0  0  0  0  0
  1  2  1  0
  2  3  2  0
  3  4  1  0
  4  5  1  0
  4  6  2  0
  6  7  1  0
  7  8  1  0
  8  9  1  0
  9 10  1  0
 10 11  2  0
 10 12  1  0
 12 13  1  0
 13 14  2  0
 14 15  1  0
 15 16  2  0
 16 17  1  0
 13 18  1  0
 17 18  2  0
  6 19  1  0
 19 20  1  0
  2 21  1  0
 19 21  2  0
M  END
