pyridine_urea_4750
     RDKit          3D

 22 24  0  0  0  0  0  0  0  0999 V2000
    8.4160    1.3540   20.7610 O   0  0  0  0  0  0  0  0  0  0  0  0
    8.4240    0.2080   21.1950 C   0  0  0  0  0  0  0  0  0  0  0  0
    7.3840   -0.6320   20.9620 N   0  0  0  0  0  0  0  0  0  0  0  0
    6.6280   -0.0380   19.9130 C   0  0  0  0  0  0  0  0  0  0  0  0
    5.3630    0.7340   20.3070 C   0  0  0  0  0  0  0  0  0  0  0  0
    4.6090    1.3670   19.3260 C   0  0  0  0  0  0  0  0  0  0  0  0
    5.0540    1.2650   18.0120 C   0  0  0  0  0  0  0  0  0  0  0  0
    6.1840    0.5540   17.7120 N   0  0  0  0  0  0  0  0  0  0  0  0
    6.9830   -0.1060   18.6420 C   0  0  0  0  0  0  0  0  0  0  0  0
    9.4390   -0.2560   21.9320 N   0  0  0  0  0  0  0  0  0  0  0  0
   10.3390   -0.3770   22.8760 C   0  0  0  0  0  0  0  0  0  0  0  0
   11.6970   -0.6200   22.6780 C   0  0  0  0  0  0  0  0  0  0  0  0
   12.5000   -0.6650   23.8010 C   0  0  0  0  0  0  0  0  0  0  0  0
   11.9280   -0.4860   25.0820 C   0  0  0  0  0  0  0  0  0  0  0  0
   10.5080   -0.2650   25.2230 C   0  0  0  0  0  0  0  0  0  0  0  0
    9.4230   -0.0520   26.3320 C   0  0  0  0  0  0  0  0  0  0  0  0
    8.0510   -0.0800   26.0920 C   0  0  0  0  0  0  0  0  0  0  0  0
    7.1380    0.1200   27.1770 C   0  0  0  0  0  0  0  0  0  0  0  0
    7.6670    0.3340   28.4240 C   0  0  0  0  0  0  0  0  0  0  0  0
    9.0230    0.3670   28.6890 N   0  0  0  0  0  0  0  0  0  0  0  0
    9.8470    0.1720   27.6380 C   0  0  0  0  0  0  0  0  0  0  0  0
    9.8110   -0.2180   24.0850 C   0  0  0  0  0  0  0  0  0  0  0  0
  1  2  2  0
  2  3  1  0
  3  4  1  0
  4  5  2  0
  5  6  1  0
  6  7  2  0
  7  8  1  0
  4  9  1  0
  8  9  2  0
  2 10  1  0
 10 11  1  0
 11 12  2  0
 12 13  1  0
 13 14  2  0
 14 15  1  0
 15 16  1  0
 16 17  2  0
 17 18  1  0
 18 19  2  0
 19 20  1  0
 16 21  1  0
 20 21  2  0
 11 22  1  0
 15 22  2  0
M  END
