pyridine_urea_9211
     RDKit          3D

 18 19  0  0  0  0  0  0  0  0999 V2000
    8.8360    0.6210   21.3880 O   0  0  0  0  0  0  0  0  0  0  0  0
    8.2400   -0.4270   21.6110 C   0  0  0  0  0  0  0  0  0  0  0  0
    8.6410   -1.4140   22.4730 N   0  0  0  0  0  0  0  0  0  0  0  0
    9.9620   -1.7360   22.7910 C   0  0  0  0  0  0  0  0  0  0  0  0
   10.8660   -0.7560   22.4820 C   0  0  1  0  0  0  0  0  0  0  0  0
   10.6700    0.4210   23.1990 C   0  0  0  0  0  0  0  0  0  0  0  0
   11.8260    0.6390   23.8900 C   0  0  0  0  0  0  0  0  0  0  0  0
   12.7680   -0.2670   23.4530 C   0  0  0  0  0  0  0  0  0  0  0  0
   13.3070   -0.8720   24.5240 F   0  0  0  0  0  0  0  0  0  0  0  0
   13.7290    0.3960   22.8040 F   0  0  0  0  0  0  0  0  0  0  0  0
   12.2220   -1.1260   22.5390 C   0  0  0  0  0  0  0  0  0  0  0  0
    7.0470   -0.7890   21.0430 N   0  0  0  0  0  0  0  0  0  0  0  0
    6.3320   -0.0190   20.0270 C   0  0  0  0  0  0  0  0  0  0  0  0
    5.1580    0.6880   20.2260 C   0  0  0  0  0  0  0  0  0  0  0  0
    4.5870    1.3890   19.1640 C   0  0  0  0  0  0  0  0  0  0  0  0
    5.2170    1.3570   17.9310 C   0  0  0  0  0  0  0  0  0  0  0  0
    6.3530    0.6740   17.7170 N   0  0  0  0  0  0  0  0  0  0  0  0
    6.8750    0.0090   18.7590 C   0  0  0  0  0  0  0  0  0  0  0  0
  1  2  2  0
  2  3  1  0
  3  4  1  0
  5  4  1  1
  5  6  1  0
  6  7  1  0
  7  8  1  0
  8  9  1  0
  8 10  1  0
  5 11  1  0
  8 11  1  0
  2 12  1  0
 12 13  1  0
 13 14  2  0
 14 15  1  0
 15 16  2  0
 16 17  1  0
 13 18  1  0
 17 18  2  0
M  END
