pyridine_urea_5053
     RDKit          3D

 20 21  0  0  0  0  0  0  0  0999 V2000
    9.8820   -0.2670   25.5740 C   0  0  0  0  0  0  0  0  0  0  0  0
   10.0880    0.1870   24.1700 C   0  0  0  0  0  0  0  0  0  0  0  0
    9.8080    1.5230   23.8590 C   0  0  0  0  0  0  0  0  0  0  0  0
    9.2610   -0.7310   23.2400 C   0  0  0  0  0  0  0  0  0  0  0  0
    8.1310   -0.1920   22.8370 N   0  0  0  0  0  0  0  0  0  0  0  0
    8.0870    0.2120   21.5620 C   0  0  0  0  0  0  0  0  0  0  0  0
    8.7390    1.1760   21.1280 O   0  0  0  0  0  0  0  0  0  0  0  0
    7.2340   -0.5840   20.8990 N   0  0  0  0  0  0  0  0  0  0  0  0
    6.5100    0.0710   19.9880 C   0  0  0  0  0  0  0  0  0  0  0  0
    5.3260    0.7840   20.2250 C   0  0  0  0  0  0  0  0  0  0  0  0
    4.5900    1.5190   19.0900 C   0  0  0  0  0  0  0  0  0  0  0  0
    5.1650    1.4360   17.8320 C   0  0  0  0  0  0  0  0  0  0  0  0
    6.3020    0.7230   17.6790 N   0  0  0  0  0  0  0  0  0  0  0  0
    6.9650    0.0560   18.6930 C   0  0  0  0  0  0  0  0  0  0  0  0
   11.4510   -0.2190   23.6740 C   0  0  1  0  0  0  0  0  0  0  0  0
   11.2570   -1.0650   22.8190 O   0  0  0  0  0  0  0  0  0  0  0  0
   12.3490    0.6850   23.1490 C   0  0  0  0  0  0  0  0  0  0  0  0
   13.4140   -0.0280   22.7320 C   0  0  0  0  0  0  0  0  0  0  0  0
   13.6360   -0.9510   23.6830 O   0  0  0  0  0  0  0  0  0  0  0  0
   12.5400   -0.8890   24.5790 C   0  0  0  0  0  0  0  0  0  0  0  0
  2  1  1  0
  2  3  1  0
  2  4  1  0
  4  5  1  0
  5  6  1  0
  6  7  2  0
  6  8  1  0
  8  9  1  0
  9 10  2  0
 10 11  1  0
 11 12  2  0
 12 13  1  0
  9 14  1  0
 13 14  2  0
  2 15  1  0
 15 16  1  6
 15 17  1  0
 17 18  1  0
 18 19  1  0
 15 20  1  0
 19 20  1  0
M  END
