pyridine_urea_12410
     RDKit          3D

 22 23  0  0  0  0  0  0  0  0999 V2000
    8.6140    0.7370   21.3790 O   0  0  0  0  0  0  0  0  0  0  0  0
    8.0060   -0.2810   21.6830 C   0  0  0  0  0  0  0  0  0  0  0  0
    8.3530   -1.1080   22.7320 N   0  0  0  0  0  0  0  0  0  0  0  0
    9.6070   -0.8410   23.3840 C   0  0  0  0  0  0  0  0  0  0  0  0
   10.5820   -0.1560   22.4050 C   0  0  2  0  0  0  0  0  0  0  0  0
   11.3080   -1.2070   21.7830 O   0  0  0  0  0  0  0  0  0  0  0  0
   11.4020    0.8510   22.9060 C   0  0  0  0  0  0  0  0  0  0  0  0
   12.5250    0.5410   22.7670 O   0  0  0  0  0  0  0  0  0  0  0  0
   12.8770   -0.5180   23.4930 C   0  0  0  0  0  0  0  0  0  0  0  0
   13.0080   -0.6260   24.8230 C   0  0  0  0  0  0  0  0  0  0  0  0
   13.4430   -1.8700   25.5340 C   0  0  0  0  0  0  0  0  0  0  0  0
   13.7260   -3.1160   24.8710 C   0  0  0  0  0  0  0  0  0  0  0  0
   13.5550   -2.9110   23.3980 C   0  0  0  0  0  0  0  0  0  0  0  0
   13.1450   -1.6450   22.8000 C   0  0  0  0  0  0  0  0  0  0  0  0
   13.0900   -1.9670   20.9930 Br  0  0  0  0  0  0  0  0  0  0  0  0
    6.8980   -0.7530   21.0430 N   0  0  0  0  0  0  0  0  0  0  0  0
    6.3280   -0.0530   19.9830 C   0  0  0  0  0  0  0  0  0  0  0  0
    5.0360    0.7220   20.1930 C   0  0  0  0  0  0  0  0  0  0  0  0
    4.5170    1.4150   19.1100 C   0  0  0  0  0  0  0  0  0  0  0  0
    5.2070    1.3600   17.9000 C   0  0  0  0  0  0  0  0  0  0  0  0
    6.3460    0.6780   17.6860 N   0  0  0  0  0  0  0  0  0  0  0  0
    6.8630   -0.0010   18.7240 C   0  0  0  0  0  0  0  0  0  0  0  0
  1  2  2  0
  2  3  1  0
  3  4  1  0
  4  5  1  0
  5  6  1  1
  5  7  1  0
  7  8  1  0
  8  9  1  0
  9 10  2  0
 10 11  1  0
 11 12  2  0
 12 13  1  0
  9 14  1  0
 13 14  2  0
 14 15  1  0
  2 16  1  0
 16 17  1  0
 17 18  2  0
 18 19  1  0
 19 20  2  0
 20 21  1  0
 17 22  1  0
 21 22  2  0
M  END
