pyridine_urea_3319
     RDKit          3D

 19 20  0  0  0  0  0  0  0  0999 V2000
   12.8250   -2.7010   21.0870 C   0  0  0  0  0  0  0  0  0  0  0  0
   11.9070   -2.6090   22.1580 O   0  0  0  0  0  0  0  0  0  0  0  0
   11.4330   -1.3670   22.3990 C   0  0  1  0  0  0  0  0  0  0  0  0
   10.2070   -1.1400   23.0370 C   0  0  0  0  0  0  0  0  0  0  0  0
    9.0550   -1.3910   22.1750 N   0  0  0  0  0  0  0  0  0  0  0  0
    8.4320   -0.3460   21.5170 C   0  0  0  0  0  0  0  0  0  0  0  0
    8.9710    0.7360   21.3320 O   0  0  0  0  0  0  0  0  0  0  0  0
    7.0780   -0.7190   21.0980 N   0  0  0  0  0  0  0  0  0  0  0  0
    6.4440   -0.0460   20.0730 C   0  0  0  0  0  0  0  0  0  0  0  0
    5.1640    0.7160   20.3820 C   0  0  0  0  0  0  0  0  0  0  0  0
    4.5620    1.3920   19.3230 C   0  0  0  0  0  0  0  0  0  0  0  0
    5.2400    1.3100   17.9500 C   0  0  0  0  0  0  0  0  0  0  0  0
    6.3720    0.6130   17.7400 N   0  0  0  0  0  0  0  0  0  0  0  0
    6.9380   -0.0400   18.7820 C   0  0  0  0  0  0  0  0  0  0  0  0
   12.5020   -0.6600   23.2040 C   0  0  1  0  0  0  0  0  0  0  0  0
   12.4600    0.7280   23.1410 C   0  0  0  0  0  0  0  0  0  0  0  0
   11.3790    1.1650   23.8940 C   0  0  0  0  0  0  0  0  0  0  0  0
   11.2520    0.1910   24.8230 O   0  0  0  0  0  0  0  0  0  0  0  0
   12.2210   -0.8320   24.5560 C   0  0  0  0  0  0  0  0  0  0  0  0
  1  2  1  0
  2  3  1  0
  3  4  1  1
  4  5  1  0
  5  6  1  0
  6  7  2  0
  6  8  1  0
  8  9  1  0
  9 10  2  0
 10 11  1  0
 11 12  2  0
 12 13  1  0
  9 14  1  0
 13 14  2  0
  3 15  1  0
 15 16  1  6
 16 17  1  0
 17 18  1  0
 15 19  1  0
 18 19  1  0
M  END
