pyridine_urea_675
     RDKit          3D

 22 23  0  0  0  0  0  0  0  0999 V2000
   11.9810   -2.4490   21.4550 C   0  0  0  0  0  0  0  0  0  0  0  0
   13.0830   -1.2290   21.9210 S   0  0  0  0  0  0  0  0  0  0  0  0
   13.8640   -1.6190   23.0230 O   0  0  0  0  0  0  0  0  0  0  0  0
   13.7640   -0.8890   20.7090 O   0  0  0  0  0  0  0  0  0  0  0  0
   11.8470   -0.1230   22.5350 C   0  0  2  0  0  0  0  0  0  0  0  0
   10.4970   -0.4260   22.8570 C   0  0  0  0  0  0  0  0  0  0  0  0
    9.6640   -1.0180   21.8120 N   0  0  0  0  0  0  0  0  0  0  0  0
    8.5870   -0.1060   21.3910 C   0  0  0  0  0  0  0  0  0  0  0  0
    8.9100    1.2800   21.1520 O   0  0  0  0  0  0  0  0  0  0  0  0
    7.2980   -0.5820   21.2110 N   0  0  0  0  0  0  0  0  0  0  0  0
    6.5630    0.0400   20.1190 C   0  0  0  0  0  0  0  0  0  0  0  0
    5.3970    0.7780   20.3350 C   0  0  0  0  0  0  0  0  0  0  0  0
    4.6590    1.4520   19.1730 C   0  0  0  0  0  0  0  0  0  0  0  0
    5.1410    1.3410   17.8890 C   0  0  0  0  0  0  0  0  0  0  0  0
    6.2780    0.5970   17.7590 N   0  0  0  0  0  0  0  0  0  0  0  0
    6.9920   -0.0480   18.7810 C   0  0  0  0  0  0  0  0  0  0  0  0
   12.3880    0.3920   23.8950 C   0  0  0  0  0  0  0  0  0  0  0  0
   12.2540    1.3020   23.0500 C   0  0  2  0  0  0  0  0  0  0  0  0
   11.2500    2.3640   23.3200 C   0  0  0  0  0  0  0  0  0  0  0  0
   11.7530    3.6190   23.4750 F   0  0  0  0  0  0  0  0  0  0  0  0
   10.4990    2.0930   24.4130 F   0  0  0  0  0  0  0  0  0  0  0  0
   10.3290    2.5000   22.3330 F   0  0  0  0  0  0  0  0  0  0  0  0
  2  1  1  0
  2  3  2  0
  2  4  2  0
  2  5  1  0
  5  6  1  1
  6  7  1  0
  7  8  1  0
  8  9  2  0
  8 10  1  0
 10 11  1  0
 11 12  2  0
 12 13  1  0
 13 14  2  0
 14 15  1  0
 11 16  1  0
 15 16  2  0
  5 17  1  0
  5 18  1  0
 17 18  1  0
 18 19  1  1
 19 20  1  0
 19 21  1  0
 19 22  1  0
M  END
