pyridine_urea_8289
     RDKit          3D

 23 24  0  0  0  0  0  0  0  0999 V2000
   13.4900    5.2180   23.0180 C   0  0  0  0  0  0  0  0  0  0  0  0
   13.3410    4.2520   22.0110 O   0  0  0  0  0  0  0  0  0  0  0  0
   12.1260    4.4730   21.3430 C   0  0  0  0  0  0  0  0  0  0  0  0
   11.0000    3.9020   22.2660 C   0  0  0  0  0  0  0  0  0  0  0  0
   11.4090    3.2780   23.4170 C   0  0  0  0  0  0  0  0  0  0  0  0
   12.5390    2.4920   23.3940 O   0  0  0  0  0  0  0  0  0  0  0  0
   12.2950    1.1090   23.1910 C   0  0  0  0  0  0  0  0  0  0  0  0
   13.2060    0.2070   22.6610 C   0  0  0  0  0  0  0  0  0  0  0  0
   12.8150   -1.2430   22.4700 C   0  0  0  0  0  0  0  0  0  0  0  0
   11.4540   -1.7330   22.8440 C   0  0  0  0  0  0  0  0  0  0  0  0
   10.6100   -0.5960   23.4080 C   0  0  0  0  0  0  0  0  0  0  0  0
    9.2410   -1.0700   23.7670 C   0  0  0  0  0  0  0  0  0  0  0  0
    8.5110   -1.4080   22.5630 N   0  0  0  0  0  0  0  0  0  0  0  0
    8.2000   -0.4380   21.6370 C   0  0  0  0  0  0  0  0  0  0  0  0
    8.9550    0.6820   21.4050 O   0  0  0  0  0  0  0  0  0  0  0  0
    6.9930   -0.7740   20.9860 N   0  0  0  0  0  0  0  0  0  0  0  0
    6.3400   -0.0420   20.0230 C   0  0  0  0  0  0  0  0  0  0  0  0
    5.1580    0.6740   20.2240 C   0  0  0  0  0  0  0  0  0  0  0  0
    4.6090    1.3810   19.1560 C   0  0  0  0  0  0  0  0  0  0  0  0
    5.2480    1.3550   17.9280 C   0  0  0  0  0  0  0  0  0  0  0  0
    6.3820    0.6690   17.7180 N   0  0  0  0  0  0  0  0  0  0  0  0
    6.8950   -0.0080   18.7570 C   0  0  0  0  0  0  0  0  0  0  0  0
   11.0320    0.7130   23.5600 C   0  0  0  0  0  0  0  0  0  0  0  0
  1  2  1  0
  2  3  1  0
  3  4  1  0
  4  5  1  0
  5  6  1  0
  6  7  1  0
  7  8  2  0
  8  9  1  0
  9 10  2  0
 10 11  1  0
 11 12  1  0
 12 13  1  0
 13 14  1  0
 14 15  2  0
 14 16  1  0
 16 17  1  0
 17 18  2  0
 18 19  1  0
 19 20  2  0
 20 21  1  0
 17 22  1  0
 21 22  2  0
  7 23  1  0
 11 23  2  0
M  END
