pyridine_urea_8309
     RDKit          3D

 23 25  0  0  0  0  0  0  0  0999 V2000
   14.0990   -2.8610   25.8410 C   0  0  0  0  0  0  0  0  0  0  0  0
   12.9520   -3.5560   25.5100 O   0  0  0  0  0  0  0  0  0  0  0  0
   12.1610   -2.5970   24.9080 C   0  0  0  0  0  0  0  0  0  0  0  0
   12.4670   -1.1680   25.1980 C   0  0  0  0  0  0  0  0  0  0  0  0
   11.9290    0.0360   24.8200 C   0  0  0  0  0  0  0  0  0  0  0  0
   10.7480   -0.3220   23.8320 C   0  0  0  0  0  0  0  0  0  0  0  0
    9.8250   -0.8160   23.0420 C   0  0  1  0  0  0  0  0  0  0  0  0
    8.5480   -0.1040   22.9950 N   0  0  0  0  0  0  0  0  0  0  0  0
    8.2220    0.2880   21.6280 C   0  0  0  0  0  0  0  0  0  0  0  0
    8.8070    1.4020   21.0460 O   0  0  0  0  0  0  0  0  0  0  0  0
    7.2530   -0.6090   21.0620 N   0  0  0  0  0  0  0  0  0  0  0  0
    6.5520    0.0380   20.0610 C   0  0  0  0  0  0  0  0  0  0  0  0
    5.2760    0.7820   20.4260 C   0  0  0  0  0  0  0  0  0  0  0  0
    4.5800    1.4730   19.2720 C   0  0  0  0  0  0  0  0  0  0  0  0
    5.2010    1.3650   17.9000 C   0  0  0  0  0  0  0  0  0  0  0  0
    6.3320    0.6710   17.7000 N   0  0  0  0  0  0  0  0  0  0  0  0
    6.9550    0.0480   18.7370 C   0  0  0  0  0  0  0  0  0  0  0  0
   10.7760   -0.5680   22.0890 C   0  0  0  0  0  0  0  0  0  0  0  0
   11.6060    0.4380   22.6110 C   0  0  0  0  0  0  0  0  0  0  0  0
   12.7070   -0.3500   22.5810 C   0  0  0  0  0  0  0  0  0  0  0  0
   12.0910   -1.4960   22.0440 C   0  0  0  0  0  0  0  0  0  0  0  0
   10.5510   -1.7340   23.6360 C   0  0  0  0  0  0  0  0  0  0  0  0
   11.1790   -2.7970   24.1240 C   0  0  0  0  0  0  0  0  0  0  0  0
  1  2  1  0
  2  3  1  0
  3  4  2  0
  4  5  1  0
  5  6  2  0
  6  7  1  0
  7  8  1  6
  8  9  1  0
  9 10  2  0
  9 11  1  0
 11 12  1  0
 12 13  2  0
 13 14  1  0
 14 15  2  0
 15 16  1  0
 12 17  1  0
 16 17  2  0
  7 18  1  0
 18 19  1  0
 19 20  1  0
 18 21  1  0
 20 21  1  0
  6 22  1  0
  3 23  1  0
 22 23  2  0
M  END
