pyridine_urea_5454
     RDKit          3D

 18 18  0  0  0  0  0  0  0  0999 V2000
    7.6730   -0.0670   26.2070 C   0  0  0  0  0  0  0  0  0  0  0  0
    8.3720    0.3380   25.0880 N   0  0  0  0  0  0  0  0  0  0  0  0
    9.7920    0.0560   25.0650 C   0  0  0  0  0  0  0  0  0  0  0  0
   10.5280   -0.5450   26.1070 O   0  0  0  0  0  0  0  0  0  0  0  0
   10.6300    0.4320   23.7910 C   0  0  0  0  0  0  0  0  0  0  0  0
   10.3580    1.6700   23.2160 C   0  0  0  0  0  0  0  0  0  0  0  0
   12.1390    0.5170   24.0900 C   0  0  0  0  0  0  0  0  0  0  0  0
   10.3920   -0.7140   22.7900 C   0  0  0  0  0  0  0  0  0  0  0  0
    9.0560   -0.8630   22.4210 N   0  0  0  0  0  0  0  0  0  0  0  0
    8.3700    0.0240   21.4750 C   0  0  0  0  0  0  0  0  0  0  0  0
    8.8650    1.2740   21.1270 O   0  0  0  0  0  0  0  0  0  0  0  0
    7.2050   -0.5460   21.0140 N   0  0  0  0  0  0  0  0  0  0  0  0
    6.4890    0.0820   20.0090 C   0  0  0  0  0  0  0  0  0  0  0  0
    5.1980    0.8020   20.3490 C   0  0  0  0  0  0  0  0  0  0  0  0
    4.4970    1.4830   19.2010 C   0  0  0  0  0  0  0  0  0  0  0  0
    5.1470    1.3800   17.8440 C   0  0  0  0  0  0  0  0  0  0  0  0
    6.2930    0.7040   17.6570 N   0  0  0  0  0  0  0  0  0  0  0  0
    6.9090    0.0950   18.6960 C   0  0  0  0  0  0  0  0  0  0  0  0
  1  2  1  0
  2  3  1  0
  3  4  2  0
  5  3  1  0
  5  6  1  0
  5  7  1  0
  5  8  1  0
  8  9  1  0
  9 10  1  0
 10 11  2  0
 10 12  1  0
 12 13  1  0
 13 14  2  0
 14 15  1  0
 15 16  2  0
 16 17  1  0
 13 18  1  0
 17 18  2  0
M  END
