pyridine_urea_6885
     RDKit          3D

 20 21  0  0  0  0  0  0  0  0999 V2000
   10.2250   -0.1110   24.8720 C   0  0  0  0  0  0  0  0  0  0  0  0
   10.2120   -0.0560   23.3370 C   0  0  2  0  0  0  0  0  0  0  0  0
    8.9510   -0.6230   22.7900 N   0  0  0  0  0  0  0  0  0  0  0  0
    8.3440    0.0400   21.6310 C   0  0  0  0  0  0  0  0  0  0  0  0
    8.9470    1.2850   21.1950 O   0  0  0  0  0  0  0  0  0  0  0  0
    7.2330   -0.5710   21.0780 N   0  0  0  0  0  0  0  0  0  0  0  0
    6.4980    0.0940   20.0240 C   0  0  0  0  0  0  0  0  0  0  0  0
    5.3440    0.8200   20.3340 C   0  0  0  0  0  0  0  0  0  0  0  0
    4.6610    1.4750   19.3180 C   0  0  0  0  0  0  0  0  0  0  0  0
    5.1710    1.3970   17.8890 C   0  0  0  0  0  0  0  0  0  0  0  0
    6.2910    0.6670   17.6460 N   0  0  0  0  0  0  0  0  0  0  0  0
    6.9430    0.0230   18.7040 C   0  0  0  0  0  0  0  0  0  0  0  0
   11.3350   -0.8260   22.7570 C   0  0  0  0  0  0  0  0  0  0  0  0
   11.0790   -1.9890   22.3060 C   0  0  0  0  0  0  0  0  0  0  0  0
   12.3470   -1.4940   22.2530 C   0  0  0  0  0  0  0  0  0  0  0  0
   11.8190   -0.0930   22.9720 C   0  0  0  0  0  0  0  0  0  0  0  0
   10.1220    0.5000   23.5760 Br  0  0  0  0  0  0  0  0  0  0  0  0
   12.9130    0.7410   23.1000 C   0  0  0  0  0  0  0  0  0  0  0  0
   12.7370   -0.4580   22.6140 C   0  0  0  0  0  0  0  0  0  0  0  0
   13.7410   -1.1710   22.0820 F   0  0  0  0  0  0  0  0  0  0  0  0
  2  1  1  1
  2  3  1  0
  3  4  1  0
  4  5  2  0
  4  6  1  0
  6  7  1  0
  7  8  2  0
  8  9  1  0
  9 10  2  0
 10 11  1  0
  7 12  1  0
 11 12  2  0
  2 13  1  0
 13 14  2  0
 14 15  1  0
 15 16  2  0
 16 17  1  0
 16 18  1  0
 13 19  1  0
 18 19  2  0
 19 20  1  0
M  END
