pyridine_urea_1875
     RDKit          3D

 17 18  0  0  0  0  0  0  0  0999 V2000
    8.9810    1.0000   21.5880 O   0  0  0  0  0  0  0  0  0  0  0  0
    8.5980   -0.1460   21.4250 C   0  0  0  0  0  0  0  0  0  0  0  0
    7.3070   -0.5180   21.1200 N   0  0  0  0  0  0  0  0  0  0  0  0
    6.5740    0.0680   20.0730 C   0  0  0  0  0  0  0  0  0  0  0  0
    5.4070    0.7830   20.3680 C   0  0  0  0  0  0  0  0  0  0  0  0
    4.6820    1.3850   19.3370 C   0  0  0  0  0  0  0  0  0  0  0  0
    5.1520    1.2510   18.0470 C   0  0  0  0  0  0  0  0  0  0  0  0
    6.2590    0.5660   17.7370 N   0  0  0  0  0  0  0  0  0  0  0  0
    6.9420   -0.0100   18.7480 C   0  0  0  0  0  0  0  0  0  0  0  0
    9.4560   -1.2150   21.4810 N   0  0  0  0  0  0  0  0  0  0  0  0
   10.4140   -1.4320   22.5710 C   0  0  2  0  0  0  0  0  0  0  0  0
    9.9040   -2.4520   23.5970 C   0  0  0  0  0  0  0  0  0  0  0  0
   11.0360   -2.8300   24.3840 O   0  0  0  0  0  0  0  0  0  0  0  0
   10.8470   -0.1510   23.2640 C   0  0  0  0  0  0  0  0  0  0  0  0
   12.1710   -0.3430   23.0710 C   0  0  2  0  0  0  0  0  0  0  0  0
   12.7330    0.6230   22.4060 O   0  0  0  0  0  0  0  0  0  0  0  0
   11.8410   -1.4600   22.3270 C   0  0  0  0  0  0  0  0  0  0  0  0
  1  2  2  0
  2  3  1  0
  3  4  1  0
  4  5  2  0
  5  6  1  0
  6  7  2  0
  7  8  1  0
  4  9  1  0
  8  9  2  0
  2 10  1  0
 11 10  1  0
 11 12  1  1
 12 13  1  0
 11 14  1  0
 14 15  1  0
 15 16  1  6
 11 17  1  0
 15 17  1  0
M  END
