pyridine_urea_15188
     RDKit          3D

 18 18  0  0  0  0  0  0  0  0999 V2000
   13.2550   -1.9520   24.7270 C   0  0  0  0  0  0  0  0  0  0  0  0
   12.9190   -0.7250   23.8450 C   0  0  0  0  0  0  0  0  0  0  0  0
   11.8510    0.0610   24.5410 C   0  0  0  0  0  0  0  0  0  0  0  0
   10.4590   -0.1000   24.0050 C   0  0  0  0  0  0  0  0  0  0  0  0
   10.4910   -0.5590   22.5580 C   0  0  2  0  0  0  0  0  0  0  0  0
    9.1620   -0.8990   22.1140 N   0  0  0  0  0  0  0  0  0  0  0  0
    8.4580    0.0580   21.4220 C   0  0  0  0  0  0  0  0  0  0  0  0
    8.9190    1.1810   21.1820 O   0  0  0  0  0  0  0  0  0  0  0  0
    7.2240   -0.4170   21.0550 N   0  0  0  0  0  0  0  0  0  0  0  0
    6.5080    0.1570   20.0110 C   0  0  0  0  0  0  0  0  0  0  0  0
    5.3410    0.8700   20.2880 C   0  0  0  0  0  0  0  0  0  0  0  0
    4.6360    1.4630   19.2440 C   0  0  0  0  0  0  0  0  0  0  0  0
    5.1300    1.3160   17.9650 C   0  0  0  0  0  0  0  0  0  0  0  0
    6.2400    0.6260   17.6780 N   0  0  0  0  0  0  0  0  0  0  0  0
    6.9010    0.0640   18.7000 C   0  0  0  0  0  0  0  0  0  0  0  0
   11.3190   -1.6350   22.2930 C   0  0  1  0  0  0  0  0  0  0  0  0
   12.7630   -1.3100   21.9870 C   0  0  0  0  0  0  0  0  0  0  0  0
   11.4180   -2.4820   23.1750 O   0  0  0  0  0  0  0  0  0  0  0  0
  1  2  1  0
  2  3  1  0
  3  4  1  0
  5  4  1  1
  5  6  1  0
  6  7  1  0
  7  8  2  0
  7  9  1  0
  9 10  1  0
 10 11  2  0
 11 12  1  0
 12 13  2  0
 13 14  1  0
 10 15  1  0
 14 15  2  0
  5 16  1  0
 16 17  1  1
 16 18  1  0
M  END
