pyridine_urea_9654
     RDKit          3D

 20 22  0  0  0  0  0  0  0  0999 V2000
    8.7460    0.7680   21.2670 O   0  0  0  0  0  0  0  0  0  0  0  0
    8.3570   -0.3620   21.5390 C   0  0  0  0  0  0  0  0  0  0  0  0
    7.1430   -0.8510   21.1160 N   0  0  0  0  0  0  0  0  0  0  0  0
    6.4920   -0.1130   20.0580 C   0  0  0  0  0  0  0  0  0  0  0  0
    5.1990    0.6220   20.3990 C   0  0  0  0  0  0  0  0  0  0  0  0
    4.5190    1.4110   19.2800 C   0  0  0  0  0  0  0  0  0  0  0  0
    5.2240    1.3730   17.9220 C   0  0  0  0  0  0  0  0  0  0  0  0
    6.4080    0.6420   17.7710 N   0  0  0  0  0  0  0  0  0  0  0  0
    7.0060   -0.0620   18.7830 C   0  0  0  0  0  0  0  0  0  0  0  0
    9.0860   -1.2600   22.3000 N   0  0  0  0  0  0  0  0  0  0  0  0
   10.4480   -0.9500   22.4800 C   0  0  2  0  0  0  0  0  0  0  0  0
   11.3430   -1.5320   23.1350 C   0  0  0  0  0  0  0  0  0  0  0  0
   10.6920   -0.5650   24.0160 C   0  0  1  0  0  0  0  0  0  0  0  0
   10.9330    0.7550   23.8660 C   0  0  0  0  0  0  0  0  0  0  0  0
   10.2930    1.8920   24.1120 C   0  0  0  0  0  0  0  0  0  0  0  0
   11.1680    2.9660   23.6380 C   0  0  0  0  0  0  0  0  0  0  0  0
   12.6060    2.7170   22.9750 C   0  0  0  0  0  0  0  0  0  0  0  0
   13.4280    4.1640   22.4960 Cl  0  0  0  0  0  0  0  0  0  0  0  0
   13.1290    1.3560   22.8150 C   0  0  0  0  0  0  0  0  0  0  0  0
   11.9040    1.4420   23.3840 C   0  0  0  0  0  0  0  0  0  0  0  0
  1  2  2  0
  2  3  1  0
  3  4  1  0
  4  5  2  0
  5  6  1  0
  6  7  2  0
  7  8  1  0
  4  9  1  0
  8  9  2  0
  2 10  1  0
 11 10  1  1
 11 12  1  0
 11 13  1  0
 12 13  1  0
 13 14  1  6
 14 15  2  0
 15 16  1  0
 16 17  2  0
 17 18  1  0
 17 19  1  0
 14 20  1  0
 19 20  2  0
M  END
