pyridine_urea_8438
     RDKit          3D

 22 23  0  0  0  0  0  0  0  0999 V2000
    8.7390    0.3800   21.3840 O   0  0  0  0  0  0  0  0  0  0  0  0
    7.8600   -0.4080   21.7260 C   0  0  0  0  0  0  0  0  0  0  0  0
    7.7120   -1.0290   22.9410 N   0  0  0  0  0  0  0  0  0  0  0  0
    8.6520   -1.8540   23.5400 C   0  0  0  0  0  0  0  0  0  0  0  0
    9.8730   -1.3880   23.2830 C   0  0  0  0  0  0  0  0  0  0  0  0
   10.5030   -1.9580   22.1630 C   0  0  0  0  0  0  0  0  0  0  0  0
   11.7200   -1.5110   21.8530 C   0  0  0  0  0  0  0  0  0  0  0  0
   12.1340   -0.4690   22.7940 C   0  0  0  0  0  0  0  0  0  0  0  0
   13.0210    0.3810   23.1830 C   0  0  0  0  0  0  0  0  0  0  0  0
   12.5380    1.6540   23.2830 F   0  0  0  0  0  0  0  0  0  0  0  0
   14.0610    0.3790   22.4070 F   0  0  0  0  0  0  0  0  0  0  0  0
   13.3010   -0.1130   24.4050 F   0  0  0  0  0  0  0  0  0  0  0  0
   11.5680    0.1840   23.9760 C   0  0  0  0  0  0  0  0  0  0  0  0
   10.3460   -0.3930   24.1540 C   0  0  0  0  0  0  0  0  0  0  0  0
    9.3500    0.1120   25.4780 Cl  0  0  0  0  0  0  0  0  0  0  0  0
    6.8280   -0.8160   20.9440 N   0  0  0  0  0  0  0  0  0  0  0  0
    6.2830   -0.0660   19.9140 C   0  0  0  0  0  0  0  0  0  0  0  0
    5.0920    0.6250   20.1420 C   0  0  0  0  0  0  0  0  0  0  0  0
    4.5530    1.3870   19.0940 C   0  0  0  0  0  0  0  0  0  0  0  0
    5.2160    1.4280   17.8800 C   0  0  0  0  0  0  0  0  0  0  0  0
    6.3590    0.7630   17.6580 N   0  0  0  0  0  0  0  0  0  0  0  0
    6.8630    0.0330   18.6710 C   0  0  0  0  0  0  0  0  0  0  0  0
  1  2  2  0
  2  3  1  0
  3  4  1  0
  4  5  1  0
  5  6  2  0
  6  7  1  0
  7  8  2  0
  8  9  1  0
  9 10  1  0
  9 11  1  0
  9 12  1  0
  8 13  1  0
  5 14  1  0
 13 14  2  0
 14 15  1  0
  2 16  1  0
 16 17  1  0
 17 18  2  0
 18 19  1  0
 19 20  2  0
 20 21  1  0
 17 22  1  0
 21 22  2  0
M  END
