pyridine_urea_15084
     RDKit          3D

 19 21  0  0  0  0  0  0  0  0999 V2000
    8.9860    1.2920   21.1720 O   0  0  0  0  0  0  0  0  0  0  0  0
    8.5560    0.2600   21.7050 C   0  0  0  0  0  0  0  0  0  0  0  0
    7.5370   -0.5240   21.1560 N   0  0  0  0  0  0  0  0  0  0  0  0
    6.7320    0.0730   20.1090 C   0  0  0  0  0  0  0  0  0  0  0  0
    5.5030    0.8840   20.5240 C   0  0  0  0  0  0  0  0  0  0  0  0
    4.6680    1.5280   19.4160 C   0  0  0  0  0  0  0  0  0  0  0  0
    5.1670    1.2880   17.9960 C   0  0  0  0  0  0  0  0  0  0  0  0
    6.3080    0.5130   17.7770 N   0  0  0  0  0  0  0  0  0  0  0  0
    7.0430   -0.0620   18.7760 C   0  0  0  0  0  0  0  0  0  0  0  0
    9.0240   -0.2110   22.9470 N   0  0  0  0  0  0  0  0  0  0  0  0
   10.2820   -0.9130   23.1600 C   0  0  1  0  0  0  0  0  0  0  0  0
   11.4640   -0.6430   22.4000 C   0  0  0  0  0  0  0  0  0  0  0  0
   12.5340   -0.6270   23.2980 C   0  0  1  0  0  0  0  0  0  0  0  0
   12.2730    0.5990   23.6170 C   0  0  0  0  0  0  0  0  0  0  0  0
   10.8920    0.4490   23.3980 C   0  0  0  0  0  0  0  0  0  0  0  0
   10.5270   -0.9050   22.8250 C   0  0  0  0  0  0  0  0  0  0  0  0
   11.3570   -2.1010   23.3530 C   0  0  0  0  0  0  0  0  0  0  0  0
   12.1000   -1.4920   24.1770 N   0  0  0  0  0  0  0  0  0  0  0  0
   10.9810   -0.8650   24.5620 C   0  0  0  0  0  0  0  0  0  0  0  0
  1  2  2  0
  2  3  1  0
  3  4  1  0
  4  5  2  0
  5  6  1  0
  6  7  2  0
  7  8  1  0
  4  9  1  0
  8  9  2  0
  2 10  1  0
 11 10  1  1
 11 12  1  0
 13 12  1  6
 13 14  1  0
 14 15  1  0
 15 16  1  0
 16 17  1  0
 13 18  1  0
 17 18  1  0
 11 19  1  0
 18 19  1  0
M  END
