pyridine_urea_13225
     RDKit          3D

 17 18  0  0  0  0  0  0  0  0999 V2000
    9.0590    0.8670   21.4230 O   0  0  0  0  0  0  0  0  0  0  0  0
    8.5170   -0.2070   21.6240 C   0  0  0  0  0  0  0  0  0  0  0  0
    7.3010   -0.6170   21.1080 N   0  0  0  0  0  0  0  0  0  0  0  0
    6.5870    0.0130   20.0700 C   0  0  0  0  0  0  0  0  0  0  0  0
    5.4310    0.7430   20.3760 C   0  0  0  0  0  0  0  0  0  0  0  0
    4.7170    1.3810   19.3620 C   0  0  0  0  0  0  0  0  0  0  0  0
    5.1840    1.2670   18.0700 C   0  0  0  0  0  0  0  0  0  0  0  0
    6.2830    0.5710   17.7470 N   0  0  0  0  0  0  0  0  0  0  0  0
    6.9570   -0.0380   18.7450 C   0  0  0  0  0  0  0  0  0  0  0  0
    9.0820   -1.1810   22.4260 N   0  0  0  0  0  0  0  0  0  0  0  0
   10.3480   -1.0120   23.1450 C   0  0  1  0  0  0  0  0  0  0  0  0
   11.5260   -1.4860   22.2690 C   0  0  0  0  0  0  0  0  0  0  0  0
   12.7450   -0.8560   22.5070 C   0  0  0  0  0  0  0  0  0  0  0  0
   12.6930    0.4380   22.9620 C   0  0  0  0  0  0  0  0  0  0  0  0
   11.8410    0.6160   24.0330 C   0  0  0  0  0  0  0  0  0  0  0  0
   10.5070    0.2330   23.8100 C   0  0  1  0  0  0  0  0  0  0  0  0
    9.6950    1.1830   23.2550 O   0  0  0  0  0  0  0  0  0  0  0  0
  1  2  2  0
  2  3  1  0
  3  4  1  0
  4  5  2  0
  5  6  1  0
  6  7  2  0
  7  8  1  0
  4  9  1  0
  8  9  2  0
  2 10  1  0
 11 10  1  6
 11 12  1  0
 12 13  1  0
 13 14  1  0
 14 15  1  0
 11 16  1  0
 15 16  1  0
 16 17  1  6
M  END
