pyridine_urea_1929
     RDKit          3D

 25 27  0  0  0  0  0  0  0  0999 V2000
   15.0440   -4.8940   20.5430 C   0  0  0  0  0  0  0  0  0  0  0  0
   14.0700   -3.6180   20.2720 C   0  0  0  0  0  0  0  0  0  0  0  0
   13.4320   -2.6870   21.3140 N   0  0  0  0  0  0  0  0  0  0  0  0
   13.4020   -2.8170   22.6740 C   0  0  0  0  0  0  0  0  0  0  0  0
   14.1660   -3.3200   23.4480 O   0  0  0  0  0  0  0  0  0  0  0  0
   12.2640   -2.1120   23.2990 C   0  0  0  0  0  0  0  0  0  0  0  0
   12.2310   -0.6890   22.8050 C   0  0  1  0  0  0  0  0  0  0  0  0
   11.9410    0.2510   23.6820 N   0  0  0  0  0  0  0  0  0  0  0  0
   11.4050   -0.5110   24.6010 C   0  0  0  0  0  0  0  0  0  0  0  0
   10.3540   -1.2020   24.0580 C   0  0  0  0  0  0  0  0  0  0  0  0
    9.8740   -0.4540   23.0010 C   0  0  1  0  0  0  0  0  0  0  0  0
    8.5770   -0.2730   22.8070 N   0  0  0  0  0  0  0  0  0  0  0  0
    8.2270    0.2160   21.6020 C   0  0  0  0  0  0  0  0  0  0  0  0
    8.8530    1.2040   21.1750 O   0  0  0  0  0  0  0  0  0  0  0  0
    7.2090   -0.4250   20.9900 N   0  0  0  0  0  0  0  0  0  0  0  0
    6.4960    0.1590   19.9560 C   0  0  0  0  0  0  0  0  0  0  0  0
    5.3190    0.8570   20.2760 C   0  0  0  0  0  0  0  0  0  0  0  0
    4.5220    1.5160   19.2980 C   0  0  0  0  0  0  0  0  0  0  0  0
    5.1390    1.3380   17.9130 C   0  0  0  0  0  0  0  0  0  0  0  0
    6.2530    0.6570   17.6470 N   0  0  0  0  0  0  0  0  0  0  0  0
    6.9010    0.0880   18.6610 C   0  0  0  0  0  0  0  0  0  0  0  0
   10.6780    0.8520   23.2420 C   0  0  0  0  0  0  0  0  0  0  0  0
   13.3110   -0.4750   22.0450 N   0  0  0  0  0  0  0  0  0  0  0  0
   13.6270   -1.3700   21.0350 C   0  0  0  0  0  0  0  0  0  0  0  0
   14.1060   -0.9590   19.9990 O   0  0  0  0  0  0  0  0  0  0  0  0
  1  2  1  0
  2  3  1  0
  3  4  1  0
  4  5  2  0
  4  6  1  0
  6  7  1  0
  7  8  1  1
  8  9  1  0
  9 10  1  0
 10 11  1  0
 11 12  1  1
 12 13  1  0
 13 14  2  0
 13 15  1  0
 15 16  1  0
 16 17  2  0
 17 18  1  0
 18 19  2  0
 19 20  1  0
 16 21  1  0
 20 21  2  0
  8 22  1  0
 11 22  1  0
  7 23  1  0
  3 24  1  0
 23 24  1  0
 24 25  2  0
M  END
