pyridine_urea_14480
     RDKit          3D

 21 23  0  0  0  0  0  0  0  0999 V2000
    8.4380    0.7980   20.9000 O   0  0  0  0  0  0  0  0  0  0  0  0
    7.7990   -0.1410   21.3410 C   0  0  0  0  0  0  0  0  0  0  0  0
    8.0550   -0.6820   22.6110 N   0  0  0  0  0  0  0  0  0  0  0  0
    9.0860   -0.0050   23.1510 C   0  0  0  0  0  0  0  0  0  0  0  0
   10.1690   -0.7740   23.2660 C   0  0  0  0  0  0  0  0  0  0  0  0
   11.4090   -1.3660   23.3590 C   0  0  0  0  0  0  0  0  0  0  0  0
   12.6780   -0.9350   23.3120 C   0  0  0  0  0  0  0  0  0  0  0  0
   13.6740   -2.3090   23.5230 Cl  0  0  0  0  0  0  0  0  0  0  0  0
   13.0810    0.4630   23.1140 C   0  0  0  0  0  0  0  0  0  0  0  0
   11.8730    1.2790   22.9920 C   0  0  0  0  0  0  0  0  0  0  0  0
   10.5820    0.5860   23.0790 C   0  0  0  0  0  0  0  0  0  0  0  0
    9.7380    1.4570   22.9540 O   0  0  0  0  0  0  0  0  0  0  0  0
   10.3480    2.7140   22.8620 C   0  0  0  0  0  0  0  0  0  0  0  0
   11.7690    2.6570   22.8030 C   0  0  0  0  0  0  0  0  0  0  0  0
    6.7590   -0.7500   20.7290 N   0  0  0  0  0  0  0  0  0  0  0  0
    6.1160   -0.0080   19.8160 C   0  0  0  0  0  0  0  0  0  0  0  0
    4.9090    0.6240   19.9870 C   0  0  0  0  0  0  0  0  0  0  0  0
    4.4210    1.3630   18.9490 C   0  0  0  0  0  0  0  0  0  0  0  0
    5.1190    1.4700   17.7650 C   0  0  0  0  0  0  0  0  0  0  0  0
    6.2950    0.8530   17.5800 N   0  0  0  0  0  0  0  0  0  0  0  0
    6.7570    0.1330   18.6110 C   0  0  0  0  0  0  0  0  0  0  0  0
  1  2  2  0
  2  3  1  0
  3  4  1  0
  4  5  1  0
  5  6  2  0
  6  7  1  0
  7  8  1  0
  7  9  2  0
  9 10  1  0
  5 11  1  0
 10 11  2  0
 11 12  1  0
 12 13  1  0
 10 14  1  0
 13 14  1  0
  2 15  1  0
 15 16  1  0
 16 17  2  0
 17 18  1  0
 18 19  2  0
 19 20  1  0
 16 21  1  0
 20 21  2  0
M  END
