pyridine_urea_9758
     RDKit          3D

 28 29  0  0  0  0  0  0  0  0999 V2000
    8.5740    1.0740   21.1610 O   0  0  0  0  0  0  0  0  0  0  0  0
    8.3000   -0.1110   21.2780 C   0  0  0  0  0  0  0  0  0  0  0  0
    7.0570   -0.6380   21.0490 N   0  0  0  0  0  0  0  0  0  0  0  0
    6.3920    0.0440   19.9940 C   0  0  0  0  0  0  0  0  0  0  0  0
    5.1070    0.7850   20.3250 C   0  0  0  0  0  0  0  0  0  0  0  0
    4.4270    1.5290   19.1830 C   0  0  0  0  0  0  0  0  0  0  0  0
    5.1340    1.4370   17.8300 C   0  0  0  0  0  0  0  0  0  0  0  0
    6.3140    0.6990   17.7000 N   0  0  0  0  0  0  0  0  0  0  0  0
    6.9050    0.0380   18.7270 C   0  0  0  0  0  0  0  0  0  0  0  0
    9.2030   -1.0530   21.6350 N   0  0  0  0  0  0  0  0  0  0  0  0
   10.0090   -0.8050   22.7320 C   0  0  0  0  0  0  0  0  0  0  0  0
    9.6300   -0.3240   23.9940 C   0  0  0  0  0  0  0  0  0  0  0  0
   10.4350   -0.0910   25.0980 C   0  0  0  0  0  0  0  0  0  0  0  0
    9.8320    0.3290   26.1100 O   0  0  0  0  0  0  0  0  0  0  0  0
    8.5010   -0.2170   26.2830 C   0  0  0  0  0  0  0  0  0  0  0  0
    7.4340    0.6900   26.2670 C   0  0  0  0  0  0  0  0  0  0  0  0
    6.1910    0.2240   26.5330 F   0  0  0  0  0  0  0  0  0  0  0  0
    7.3230    1.2900   25.0480 F   0  0  0  0  0  0  0  0  0  0  0  0
    7.6380    1.6810   27.1640 F   0  0  0  0  0  0  0  0  0  0  0  0
   11.9300   -0.4060   24.8540 C   0  0  0  0  0  0  0  0  0  0  0  0
   12.4260   -0.9080   23.5850 C   0  0  0  0  0  0  0  0  0  0  0  0
   13.5640   -1.1870   23.3690 O   0  0  0  0  0  0  0  0  0  0  0  0
   13.3910   -2.4240   22.8500 C   0  0  0  0  0  0  0  0  0  0  0  0
   13.1250   -2.2610   21.3940 C   0  0  0  0  0  0  0  0  0  0  0  0
   13.6760   -3.1870   20.6050 F   0  0  0  0  0  0  0  0  0  0  0  0
   13.6510   -1.1210   20.9320 F   0  0  0  0  0  0  0  0  0  0  0  0
   11.8100   -2.2580   21.1490 F   0  0  0  0  0  0  0  0  0  0  0  0
   11.4610   -1.1260   22.4540 C   0  0  0  0  0  0  0  0  0  0  0  0
  1  2  2  0
  2  3  1  0
  3  4  1  0
  4  5  2  0
  5  6  1  0
  6  7  2  0
  7  8  1  0
  4  9  1  0
  8  9  2  0
  2 10  1  0
 10 11  1  0
 11 12  2  0
 12 13  1  0
 13 14  1  0
 14 15  1  0
 15 16  1  0
 16 17  1  0
 16 18  1  0
 16 19  1  0
 13 20  2  0
 20 21  1  0
 21 22  1  0
 22 23  1  0
 23 24  1  0
 24 25  1  0
 24 26  1  0
 24 27  1  0
 11 28  1  0
 21 28  2  0
M  END
