pyridine_urea_14666
     RDKit          3D

 21 22  0  0  0  0  0  0  0  0999 V2000
   10.7450   -1.2930   22.3150 C   0  0  0  0  0  0  0  0  0  0  0  0
    9.7660   -1.1390   23.4720 C   0  0  2  0  0  0  0  0  0  0  0  0
    8.4080   -1.1770   22.9630 N   0  0  0  0  0  0  0  0  0  0  0  0
    8.1030   -0.4420   21.7370 C   0  0  0  0  0  0  0  0  0  0  0  0
    8.9730    0.6320   21.3530 O   0  0  0  0  0  0  0  0  0  0  0  0
    6.9700   -0.8570   21.0720 N   0  0  0  0  0  0  0  0  0  0  0  0
    6.3570   -0.0880   20.0060 C   0  0  0  0  0  0  0  0  0  0  0  0
    5.1850    0.6270   20.2700 C   0  0  0  0  0  0  0  0  0  0  0  0
    4.5920    1.3760   19.2560 C   0  0  0  0  0  0  0  0  0  0  0  0
    5.2250    1.4140   17.8750 C   0  0  0  0  0  0  0  0  0  0  0  0
    6.3670    0.6930   17.6790 N   0  0  0  0  0  0  0  0  0  0  0  0
    6.9220   -0.0490   18.7310 C   0  0  0  0  0  0  0  0  0  0  0  0
    9.9510    0.0980   24.3030 C   0  0  2  0  0  0  0  0  0  0  0  0
    8.7950    0.9560   24.3710 O   0  0  0  0  0  0  0  0  0  0  0  0
   10.9930    0.8370   23.8360 C   0  0  0  0  0  0  0  0  0  0  0  0
   11.3640    2.0810   23.6660 C   0  0  0  0  0  0  0  0  0  0  0  0
   12.7590    1.9650   23.0250 C   0  0  0  0  0  0  0  0  0  0  0  0
   13.3530    0.6010   22.7460 C   0  0  0  0  0  0  0  0  0  0  0  0
   12.6810   -0.6270   23.0410 C   0  0  0  0  0  0  0  0  0  0  0  0
   13.7510   -1.2480   22.5340 F   0  0  0  0  0  0  0  0  0  0  0  0
   12.1340    0.4810   23.3100 C   0  0  0  0  0  0  0  0  0  0  0  0
  2  1  1  6
  2  3  1  0
  3  4  1  0
  4  5  2  0
  4  6  1  0
  6  7  1  0
  7  8  2  0
  8  9  1  0
  9 10  2  0
 10 11  1  0
  7 12  1  0
 11 12  2  0
  2 13  1  0
 13 14  1  6
 13 15  1  0
 15 16  2  0
 16 17  1  0
 17 18  2  0
 18 19  1  0
 19 20  1  0
 15 21  1  0
 19 21  2  0
M  END
