pyridine_urea_11648
     RDKit          3D

 28 31  0  0  0  0  0  0  0  0999 V2000
    8.9800    0.7430   21.8100 O   0  0  0  0  0  0  0  0  0  0  0  0
    8.4580   -0.3260   21.5270 C   0  0  0  0  0  0  0  0  0  0  0  0
    7.1440   -0.5420   21.1700 N   0  0  0  0  0  0  0  0  0  0  0  0
    6.4800    0.0560   20.0840 C   0  0  0  0  0  0  0  0  0  0  0  0
    5.3870    0.8820   20.3540 C   0  0  0  0  0  0  0  0  0  0  0  0
    4.7050    1.5020   19.3120 C   0  0  0  0  0  0  0  0  0  0  0  0
    5.1420    1.2750   18.0250 C   0  0  0  0  0  0  0  0  0  0  0  0
    6.1810    0.4860   17.7280 N   0  0  0  0  0  0  0  0  0  0  0  0
    6.8260   -0.1090   18.7530 C   0  0  0  0  0  0  0  0  0  0  0  0
    9.1460   -1.5020   21.4900 N   0  0  0  0  0  0  0  0  0  0  0  0
   10.2640   -1.8380   22.3750 C   0  0  0  0  0  0  0  0  0  0  0  0
   11.4660   -0.9300   22.1130 C   0  0  0  0  0  0  0  0  0  0  0  0
   12.3830   -0.8620   23.1450 C   0  0  0  0  0  0  0  0  0  0  0  0
   12.3930   -1.8420   24.0990 N   0  0  0  0  0  0  0  0  0  0  0  0
   13.5690   -1.6100   24.7540 C   0  0  1  0  0  0  0  0  0  0  0  0
   13.8580   -1.7200   26.0440 C   0  0  0  0  0  0  0  0  0  0  0  0
   15.2500   -1.8410   26.5530 C   0  0  0  0  0  0  0  0  0  0  0  0
   16.0520   -2.3250   25.8050 N   0  0  0  0  0  0  0  0  0  0  0  0
   17.8740   -1.9200   25.5940 C   0  0  0  0  0  0  0  0  0  0  0  0
   18.8220   -1.4060   24.3250 C   0  0  0  0  0  0  0  0  0  0  0  0
   20.3150   -1.1370   24.2970 C   0  0  0  0  0  0  0  0  0  0  0  0
   21.0740   -1.3190   25.3730 C   0  0  0  0  0  0  0  0  0  0  0  0
   22.7750   -1.0150   25.3520 Cl  0  0  0  0  0  0  0  0  0  0  0  0
   20.3700   -1.7610   26.4240 C   0  0  0  0  0  0  0  0  0  0  0  0
   19.0380   -1.9920   26.4270 N   0  0  0  0  0  0  0  0  0  0  0  0
   14.4870   -2.7210   24.9070 C   0  0  0  0  0  0  0  0  0  0  0  0
   11.1420   -1.3000   24.6780 C   0  0  0  0  0  0  0  0  0  0  0  0
   10.1130   -1.6390   23.8370 C   0  0  0  0  0  0  0  0  0  0  0  0
  1  2  2  0
  2  3  1  0
  3  4  1  0
  4  5  2  0
  5  6  1  0
  6  7  2  0
  7  8  1  0
  4  9  1  0
  8  9  2  0
  2 10  1  0
 10 11  1  0
 11 12  1  0
 12 13  1  0
 13 14  1  0
 15 14  1  1
 15 16  1  0
 16 17  1  0
 17 18  1  0
 18 19  1  0
 19 20  2  0
 20 21  1  0
 21 22  2  0
 22 23  1  0
 22 24  1  0
 19 25  1  0
 24 25  2  0
 15 26  1  0
 18 26  1  0
 14 27  1  0
 11 28  1  0
 27 28  1  0
M  END
