pyridine_urea_4395
     RDKit          3D

 23 25  0  0  0  0  0  0  0  0999 V2000
   13.1900   -2.4600   21.0750 C   0  0  0  0  0  0  0  0  0  0  0  0
   13.0390   -1.9580   22.5050 C   0  0  0  0  0  0  0  0  0  0  0  0
   13.7380   -2.7260   23.5710 C   0  0  0  0  0  0  0  0  0  0  0  0
   13.6050   -2.3040   25.0110 C   0  0  0  0  0  0  0  0  0  0  0  0
   14.0680   -3.0400   25.8650 O   0  0  0  0  0  0  0  0  0  0  0  0
   12.9070   -1.0080   25.1260 N   0  0  0  0  0  0  0  0  0  0  0  0
   12.2880   -0.4690   24.0250 C   0  0  0  0  0  0  0  0  0  0  0  0
   11.4990    0.6280   24.1550 N   0  0  0  0  0  0  0  0  0  0  0  0
   11.3780    1.0940   22.9070 C   0  0  0  0  0  0  0  0  0  0  0  0
   10.5810    0.0190   22.1880 C   0  0  0  0  0  0  0  0  0  0  0  0
    9.7930   -0.4070   23.2330 C   0  0  2  0  0  0  0  0  0  0  0  0
    8.4800   -0.3250   22.9340 N   0  0  0  0  0  0  0  0  0  0  0  0
    8.1500    0.1920   21.7020 C   0  0  0  0  0  0  0  0  0  0  0  0
    8.6680    1.1870   21.1570 O   0  0  0  0  0  0  0  0  0  0  0  0
    7.1510   -0.5220   21.1300 N   0  0  0  0  0  0  0  0  0  0  0  0
    6.5580    0.0460   20.0530 C   0  0  0  0  0  0  0  0  0  0  0  0
    5.4310    0.7710   20.4230 C   0  0  0  0  0  0  0  0  0  0  0  0
    4.7320    1.4180   19.4100 C   0  0  0  0  0  0  0  0  0  0  0  0
    5.1820    1.3300   17.9970 C   0  0  0  0  0  0  0  0  0  0  0  0
    6.2750    0.6080   17.6990 N   0  0  0  0  0  0  0  0  0  0  0  0
    6.9220   -0.0060   18.7200 C   0  0  0  0  0  0  0  0  0  0  0  0
   10.1450    0.3080   24.4270 C   0  0  0  0  0  0  0  0  0  0  0  0
   12.3350   -0.9010   22.8210 N   0  0  0  0  0  0  0  0  0  0  0  0
  1  2  1  0
  2  3  2  0
  3  4  1  0
  4  5  2  0
  4  6  1  0
  6  7  1  0
  7  8  1  0
  8  9  1  0
  9 10  1  0
 10 11  1  0
 11 12  1  6
 12 13  1  0
 13 14  2  0
 13 15  1  0
 15 16  1  0
 16 17  2  0
 17 18  1  0
 18 19  2  0
 19 20  1  0
 16 21  1  0
 20 21  2  0
  8 22  1  0
 11 22  1  0
  2 23  1  0
  7 23  2  0
M  END
