pyridine_urea_13606
     RDKit          3D

 28 30  0  0  0  0  0  0  0  0999 V2000
    9.1640   -1.5410   21.1130 O   0  0  0  0  0  0  0  0  0  0  0  0
    8.5460   -0.5640   21.3680 C   0  0  0  0  0  0  0  0  0  0  0  0
    7.1830   -0.4160   21.2260 N   0  0  0  0  0  0  0  0  0  0  0  0
    6.4650    0.1980   20.1900 C   0  0  0  0  0  0  0  0  0  0  0  0
    5.1840    1.0100   20.4400 C   0  0  0  0  0  0  0  0  0  0  0  0
    4.5600    1.6010   19.1800 C   0  0  0  0  0  0  0  0  0  0  0  0
    5.2440    1.3370   17.8820 C   0  0  0  0  0  0  0  0  0  0  0  0
    6.3650    0.6040   17.7730 N   0  0  0  0  0  0  0  0  0  0  0  0
    6.9240    0.0700   18.8820 C   0  0  0  0  0  0  0  0  0  0  0  0
    9.2030    0.5270   21.8660 N   0  0  0  0  0  0  0  0  0  0  0  0
   10.3210    0.3330   22.7640 C   0  0  1  0  0  0  0  0  0  0  0  0
    9.6370    0.0740   23.9400 C   0  0  0  0  0  0  0  0  0  0  0  0
   10.2710    0.1090   25.1220 C   0  0  0  0  0  0  0  0  0  0  0  0
    9.5860   -0.1200   26.3030 C   0  0  0  0  0  0  0  0  0  0  0  0
    8.2040   -0.3990   26.3310 C   0  0  0  0  0  0  0  0  0  0  0  0
    7.4200   -0.6650   27.8440 Cl  0  0  0  0  0  0  0  0  0  0  0  0
    7.4110   -0.4740   25.1620 C   0  0  0  0  0  0  0  0  0  0  0  0
    8.2550   -0.2080   23.9140 C   0  0  0  0  0  0  0  0  0  0  0  0
   11.3620   -0.5510   22.3540 C   0  0  0  0  0  0  0  0  0  0  0  0
   11.9340   -0.7630   23.5650 C   0  0  0  0  0  0  0  0  0  0  0  0
   11.5950   -0.2950   24.7690 C   0  0  0  0  0  0  0  0  0  0  0  0
   12.6910   -1.0910   24.9540 C   0  0  0  0  0  0  0  0  0  0  0  0
   13.2120   -1.7250   23.6870 C   0  0  0  0  0  0  0  0  0  0  0  0
   12.4740   -1.4030   22.3810 C   0  0  0  0  0  0  0  0  0  0  0  0
   12.9830   -2.0000   21.3370 C   0  0  0  0  0  0  0  0  0  0  0  0
   13.5710   -3.0690   21.7800 F   0  0  0  0  0  0  0  0  0  0  0  0
   12.0420   -2.4730   20.5910 F   0  0  0  0  0  0  0  0  0  0  0  0
   13.8430   -1.3470   20.5640 F   0  0  0  0  0  0  0  0  0  0  0  0
  1  2  2  0
  2  3  1  0
  3  4  1  0
  4  5  2  0
  5  6  1  0
  6  7  2  0
  7  8  1  0
  4  9  1  0
  8  9  2  0
  2 10  1  0
 11 10  1  6
 11 12  1  0
 12 13  2  0
 13 14  1  0
 14 15  2  0
 15 16  1  0
 15 17  1  0
 12 18  1  0
 17 18  2  0
 11 19  1  0
 19 20  2  0
 20 21  1  0
 21 22  2  0
 22 23  1  0
 19 24  1  0
 23 24  2  0
 24 25  1  0
 25 26  1  0
 25 27  1  0
 25 28  1  0
M  END
