pyridine_urea_9286
     RDKit          3D

 17 17  0  0  0  0  0  0  0  0999 V2000
   11.6560   -1.3920   24.5070 C   0  0  0  0  0  0  0  0  0  0  0  0
   10.4840   -0.7950   23.7850 C   0  0  0  0  0  0  0  0  0  0  0  0
   10.5590   -0.7610   22.4460 C   0  0  1  0  0  0  0  0  0  0  0  0
   11.6550   -1.4910   22.0020 C   0  0  0  0  0  0  0  0  0  0  0  0
   12.9140   -0.9590   22.3020 C   0  0  0  0  0  0  0  0  0  0  0  0
   13.0670    0.2650   22.9850 C   0  0  0  0  0  0  0  0  0  0  0  0
   12.1540    1.0550   22.7860 O   0  0  0  0  0  0  0  0  0  0  0  0
    9.3670   -1.1230   21.7910 N   0  0  0  0  0  0  0  0  0  0  0  0
    8.4890   -0.1500   21.3390 C   0  0  0  0  0  0  0  0  0  0  0  0
    8.9200    1.2100   21.1910 O   0  0  0  0  0  0  0  0  0  0  0  0
    7.2280   -0.6240   21.0360 N   0  0  0  0  0  0  0  0  0  0  0  0
    6.4130    0.0610   20.0410 C   0  0  0  0  0  0  0  0  0  0  0  0
    5.2290    0.7370   20.2580 C   0  0  0  0  0  0  0  0  0  0  0  0
    4.5670    1.3690   19.2060 C   0  0  0  0  0  0  0  0  0  0  0  0
    5.1410    1.2940   17.9490 C   0  0  0  0  0  0  0  0  0  0  0  0
    6.2840    0.6390   17.7050 N   0  0  0  0  0  0  0  0  0  0  0  0
    6.8830    0.0440   18.7450 C   0  0  0  0  0  0  0  0  0  0  0  0
  1  2  1  0
  3  2  1  1
  3  4  1  0
  4  5  1  0
  5  6  1  0
  6  7  1  0
  3  8  1  0
  8  9  1  0
  9 10  2  0
  9 11  1  0
 11 12  1  0
 12 13  2  0
 13 14  1  0
 14 15  2  0
 15 16  1  0
 12 17  1  0
 16 17  2  0
M  END
