pyridine_urea_2274
     RDKit          3D

 25 27  0  0  0  0  0  0  0  0999 V2000
    8.9600    1.1130   21.1940 O   0  0  0  0  0  0  0  0  0  0  0  0
    8.5550   -0.0010   21.5340 C   0  0  0  0  0  0  0  0  0  0  0  0
    9.1070   -0.7380   22.5610 N   0  0  0  0  0  0  0  0  0  0  0  0
   10.4270   -0.5440   23.0080 C   0  0  0  0  0  0  0  0  0  0  0  0
   11.2190   -1.5460   23.9010 C   0  0  0  0  0  0  0  0  0  0  0  0
   12.6360   -1.0630   24.1990 C   0  0  0  0  0  0  0  0  0  0  0  0
   12.8070    0.2160   23.5440 C   0  0  0  0  0  0  0  0  0  0  0  0
   12.2870    1.1390   22.8190 N   0  0  0  0  0  0  0  0  0  0  0  0
   11.0250    0.6710   22.5750 C   0  0  0  0  0  0  0  0  0  0  0  0
    7.4860   -0.6390   20.9220 N   0  0  0  0  0  0  0  0  0  0  0  0
    6.2730    0.1040   20.6450 C   0  0  2  0  0  0  0  0  0  0  0  0
    5.4000   -0.5560   19.7660 C   0  0  0  0  0  0  0  0  0  0  0  0
    5.6510   -0.3740   18.4030 C   0  0  0  0  0  0  0  0  0  0  0  0
    5.6620    0.9290   17.9800 C   0  0  0  0  0  0  0  0  0  0  0  0
    5.5260    1.6220   19.1150 N   0  0  0  0  0  0  0  0  0  0  0  0
    4.1850    1.9380   19.6280 C   0  0  0  0  0  0  0  0  0  0  0  0
    3.5970    2.8610   18.7290 C   0  0  0  0  0  0  0  0  0  0  0  0
    2.2020    3.2900   19.0960 C   0  0  0  0  0  0  0  0  0  0  0  0
    1.5670    2.8260   20.1980 C   0  0  0  0  0  0  0  0  0  0  0  0
    0.2890    3.2680   20.4640 F   0  0  0  0  0  0  0  0  0  0  0  0
    2.1740    1.9190   21.0620 C   0  0  0  0  0  0  0  0  0  0  0  0
    3.4780    1.3750   20.9220 C   0  0  0  0  0  0  0  0  0  0  0  0
    3.9420    0.4910   21.8500 F   0  0  0  0  0  0  0  0  0  0  0  0
    6.6490    1.4710   20.0720 C   0  0  0  0  0  0  0  0  0  0  0  0
    7.7680    2.2660   20.4450 O   0  0  0  0  0  0  0  0  0  0  0  0
  1  2  2  0
  2  3  1  0
  3  4  1  0
  4  5  2  0
  5  6  1  0
  6  7  2  0
  7  8  1  0
  4  9  1  0
  8  9  2  0
  2 10  1  0
 11 10  1  6
 11 12  1  0
 12 13  1  0
 13 14  1  0
 14 15  1  0
 15 16  1  0
 16 17  2  0
 17 18  1  0
 18 19  2  0
 19 20  1  0
 19 21  1  0
 16 22  1  0
 21 22  2  0
 22 23  1  0
 11 24  1  0
 15 24  1  0
 24 25  2  0
M  END
