pyridine_urea_12923
     RDKit          3D

 20 20  0  0  0  0  0  0  0  0999 V2000
    8.2000   -0.5230   29.0130 C   0  0  0  0  0  0  0  0  0  0  0  0
    7.6730   -0.2600   27.5740 C   0  0  0  0  0  0  0  0  0  0  0  0
    6.5360   -1.1280   27.2320 N   0  0  0  0  0  0  0  0  0  0  0  0
    5.6550   -1.5290   28.2040 C   0  0  0  0  0  0  0  0  0  0  0  0
    6.1750   -2.5720   28.9590 C   0  0  0  0  0  0  0  0  0  0  0  0
    6.4250   -1.8610   26.0610 C   0  0  0  0  0  0  0  0  0  0  0  0
    7.1430   -1.2130   25.0520 C   0  0  0  0  0  0  0  0  0  0  0  0
    8.0620   -1.8540   24.2560 O   0  0  0  0  0  0  0  0  0  0  0  0
    9.2320   -1.0940   23.9260 C   0  0  0  0  0  0  0  0  0  0  0  0
    9.8910   -1.6360   22.8140 C   0  0  0  0  0  0  0  0  0  0  0  0
    9.2820   -1.2690   21.6170 N   0  0  0  0  0  0  0  0  0  0  0  0
    8.4240   -0.2070   21.3810 C   0  0  0  0  0  0  0  0  0  0  0  0
    8.8740    1.1170   21.3740 O   0  0  0  0  0  0  0  0  0  0  0  0
    7.1580   -0.6280   21.1350 N   0  0  0  0  0  0  0  0  0  0  0  0
    6.5290   -0.0040   20.1130 C   0  0  0  0  0  0  0  0  0  0  0  0
    5.3510    0.7210   20.3560 C   0  0  0  0  0  0  0  0  0  0  0  0
    4.6840    1.4070   19.2190 C   0  0  0  0  0  0  0  0  0  0  0  0
    5.1970    1.3410   17.9630 C   0  0  0  0  0  0  0  0  0  0  0  0
    6.3390    0.6270   17.7360 N   0  0  0  0  0  0  0  0  0  0  0  0
    6.9530   -0.0100   18.7840 C   0  0  0  0  0  0  0  0  0  0  0  0
  1  2  1  0
  2  3  1  0
  3  4  1  0
  4  5  1  0
  3  6  1  0
  6  7  1  0
  7  8  1  0
  8  9  1  0
  9 10  1  0
 10 11  1  0
 11 12  1  0
 12 13  2  0
 12 14  1  0
 14 15  1  0
 15 16  2  0
 16 17  1  0
 17 18  2  0
 18 19  1  0
 15 20  1  0
 19 20  2  0
M  END
