pyridine_urea_7134
     RDKit          3D

 19 21  0  0  0  0  0  0  0  0999 V2000
    8.7700    1.2540   21.1380 O   0  0  0  0  0  0  0  0  0  0  0  0
    8.3840    0.1280   21.4870 C   0  0  0  0  0  0  0  0  0  0  0  0
    7.2620   -0.5070   20.9960 N   0  0  0  0  0  0  0  0  0  0  0  0
    6.4620    0.1180   20.0360 C   0  0  0  0  0  0  0  0  0  0  0  0
    5.2850    0.8110   20.2850 C   0  0  0  0  0  0  0  0  0  0  0  0
    4.6020    1.4110   19.2270 C   0  0  0  0  0  0  0  0  0  0  0  0
    5.1340    1.2880   17.9580 C   0  0  0  0  0  0  0  0  0  0  0  0
    6.2580    0.6150   17.6910 N   0  0  0  0  0  0  0  0  0  0  0  0
    6.8910    0.0500   18.7270 C   0  0  0  0  0  0  0  0  0  0  0  0
    9.0560   -0.6320   22.4170 N   0  0  0  0  0  0  0  0  0  0  0  0
   10.3540   -0.2870   22.8070 C   0  0  2  0  0  0  0  0  0  0  0  0
   11.3950   -1.0510   22.3320 C   0  0  0  0  0  0  0  0  0  0  0  0
   12.6050   -0.4030   22.5320 C   0  0  0  0  0  0  0  0  0  0  0  0
   12.6720    0.0820   23.8110 C   0  0  0  0  0  0  0  0  0  0  0  0
   11.8140   -0.6360   24.6270 C   0  0  2  0  0  0  0  0  0  0  0  0
   12.0910   -2.0920   24.4630 C   0  0  0  0  0  0  0  0  0  0  0  0
   13.1990   -2.4940   23.7360 C   0  0  0  0  0  0  0  0  0  0  0  0
   13.3700   -2.6810   25.1120 C   0  0  0  0  0  0  0  0  0  0  0  0
   10.4870   -0.2940   24.3410 C   0  0  0  0  0  0  0  0  0  0  0  0
  1  2  2  0
  2  3  1  0
  3  4  1  0
  4  5  2  0
  5  6  1  0
  6  7  2  0
  7  8  1  0
  4  9  1  0
  8  9  2  0
  2 10  1  0
 11 10  1  1
 11 12  1  0
 12 13  1  0
 13 14  1  0
 14 15  1  0
 15 16  1  6
 16 17  1  0
 16 18  1  0
 17 18  1  0
 11 19  1  0
 15 19  1  0
M  END
