pyridine_urea_7393
     RDKit          3D

 17 18  0  0  0  0  0  0  0  0999 V2000
    9.5610   -0.2920   25.7330 C   0  0  0  0  0  0  0  0  0  0  0  0
   10.7400   -0.5320   24.7950 C   0  0  0  0  0  0  0  0  0  0  0  0
   12.6200   -0.4310   25.0700 S   0  0  0  0  0  0  0  0  0  0  0  0
   13.1980   -0.8360   23.3400 C   0  0  0  0  0  0  0  0  0  0  0  0
   12.0180   -0.7640   23.7890 C   0  0  0  0  0  0  0  0  0  0  0  0
   10.8090   -0.9230   23.3860 C   0  0  0  0  0  0  0  0  0  0  0  0
   10.0310   -1.2520   22.3190 C   0  0  0  0  0  0  0  0  0  0  0  0
    8.8200   -0.5610   22.5320 N   0  0  0  0  0  0  0  0  0  0  0  0
    8.5820    0.4200   21.6750 C   0  0  0  0  0  0  0  0  0  0  0  0
    9.2580    1.4210   21.4740 O   0  0  0  0  0  0  0  0  0  0  0  0
    7.5360    0.2750   20.9620 N   0  0  0  0  0  0  0  0  0  0  0  0
    6.6600    0.4680   19.9860 C   0  0  0  0  0  0  0  0  0  0  0  0
    5.4680    1.1370   20.2590 C   0  0  0  0  0  0  0  0  0  0  0  0
    4.6220    1.3490   19.2090 C   0  0  0  0  0  0  0  0  0  0  0  0
    4.9750    0.9050   17.9720 C   0  0  0  0  0  0  0  0  0  0  0  0
    6.0920    0.2560   17.6770 N   0  0  0  0  0  0  0  0  0  0  0  0
    6.9140    0.0480   18.7000 C   0  0  0  0  0  0  0  0  0  0  0  0
  1  2  1  0
  2  3  1  0
  3  4  1  0
  4  5  2  0
  2  6  2  0
  5  6  1  0
  6  7  1  0
  7  8  1  0
  8  9  1  0
  9 10  2  0
  9 11  1  0
 11 12  1  0
 12 13  2  0
 13 14  1  0
 14 15  2  0
 15 16  1  0
 12 17  1  0
 16 17  2  0
M  END
