pyridine_urea_13458
     RDKit          3D

 19 19  0  0  0  0  0  0  0  0999 V2000
    9.8760   -0.6910   23.8250 C   0  0  0  0  0  0  0  0  0  0  0  0
   10.3920   -1.5100   22.6690 C   0  0  1  0  0  0  0  0  0  0  0  0
    9.5220   -1.2650   21.5110 N   0  0  0  0  0  0  0  0  0  0  0  0
    8.6550   -0.1930   21.4420 C   0  0  0  0  0  0  0  0  0  0  0  0
    9.0230    0.9590   21.6070 O   0  0  0  0  0  0  0  0  0  0  0  0
    7.3640   -0.5750   21.1240 N   0  0  0  0  0  0  0  0  0  0  0  0
    6.6420    0.0210   20.0780 C   0  0  0  0  0  0  0  0  0  0  0  0
    5.4000    0.8120   20.3640 C   0  0  0  0  0  0  0  0  0  0  0  0
    4.6850    1.4270   19.3470 C   0  0  0  0  0  0  0  0  0  0  0  0
    5.0980    1.3330   18.0150 C   0  0  0  0  0  0  0  0  0  0  0  0
    6.2890    0.5580   17.7630 N   0  0  0  0  0  0  0  0  0  0  0  0
    6.9920   -0.0490   18.7620 C   0  0  0  0  0  0  0  0  0  0  0  0
   11.9230   -1.2730   22.4580 C   0  0  0  0  0  0  0  0  0  0  0  0
   12.2620   -1.7930   21.2480 F   0  0  0  0  0  0  0  0  0  0  0  0
   12.0820    0.0680   22.3280 F   0  0  0  0  0  0  0  0  0  0  0  0
   12.6080   -1.7930   23.5220 C   0  0  0  0  0  0  0  0  0  0  0  0
   11.8130   -2.5430   24.3350 F   0  0  0  0  0  0  0  0  0  0  0  0
   13.5990   -2.6070   23.1240 F   0  0  0  0  0  0  0  0  0  0  0  0
   13.1360   -0.8370   24.3020 F   0  0  0  0  0  0  0  0  0  0  0  0
  2  1  1  1
  2  3  1  0
  3  4  1  0
  4  5  2  0
  4  6  1  0
  6  7  1  0
  7  8  2  0
  8  9  1  0
  9 10  2  0
 10 11  1  0
  7 12  1  0
 11 12  2  0
  2 13  1  0
 13 14  1  0
 13 15  1  0
 13 16  1  0
 16 17  1  0
 16 18  1  0
 16 19  1  0
M  END
