pyridine_urea_10625
     RDKit          3D

 21 22  0  0  0  0  0  0  0  0999 V2000
   10.1140   -0.1850   24.5400 C   0  0  0  0  0  0  0  0  0  0  0  0
    9.9200   -0.0880   23.0210 C   0  0  0  0  0  0  0  0  0  0  0  0
    9.5480    1.3700   22.6730 C   0  0  0  0  0  0  0  0  0  0  0  0
   11.1790   -0.4720   22.2330 C   0  0  0  0  0  0  0  0  0  0  0  0
   12.0970   -1.4370   22.8150 C   0  0  0  0  0  0  0  0  0  0  0  0
   12.8190   -2.4930   22.7900 C   0  0  0  0  0  0  0  0  0  0  0  0
   13.3700   -2.4980   24.1490 C   0  0  0  0  0  0  0  0  0  0  0  0
   13.0880   -1.4330   25.2180 C   0  0  0  0  0  0  0  0  0  0  0  0
   12.2350   -0.2850   24.9510 C   0  0  0  0  0  0  0  0  0  0  0  0
   12.4600   -1.1610   24.1340 C   0  0  0  0  0  0  0  0  0  0  0  0
   13.5640   -2.4760   24.9020 Br  0  0  0  0  0  0  0  0  0  0  0  0
    8.8050   -0.9580   22.6210 N   0  0  0  0  0  0  0  0  0  0  0  0
    8.2240   -0.1730   21.5380 C   0  0  0  0  0  0  0  0  0  0  0  0
    8.7100    0.8520   21.1050 O   0  0  0  0  0  0  0  0  0  0  0  0
    7.0650   -0.6930   21.0580 N   0  0  0  0  0  0  0  0  0  0  0  0
    6.4260   -0.0350   20.0120 C   0  0  0  0  0  0  0  0  0  0  0  0
    5.1380    0.7350   20.2390 C   0  0  0  0  0  0  0  0  0  0  0  0
    4.5560    1.3840   19.1840 C   0  0  0  0  0  0  0  0  0  0  0  0
    5.1600    1.3190   17.9420 C   0  0  0  0  0  0  0  0  0  0  0  0
    6.2970    0.6440   17.6880 N   0  0  0  0  0  0  0  0  0  0  0  0
    6.8980   -0.0120   18.7170 C   0  0  0  0  0  0  0  0  0  0  0  0
  1  2  1  0
  2  3  1  0
  2  4  1  0
  4  5  1  0
  5  6  2  0
  6  7  1  0
  7  8  2  0
  8  9  1  0
  5 10  1  0
  9 10  2  0
 10 11  1  0
  2 12  1  0
 12 13  1  0
 13 14  2  0
 13 15  1  0
 15 16  1  0
 16 17  2  0
 17 18  1  0
 18 19  2  0
 19 20  1  0
 16 21  1  0
 20 21  2  0
M  END
