pyridine_urea_7021
     RDKit          3D

 20 21  0  0  0  0  0  0  0  0999 V2000
    9.0830   -3.2780   23.8040 C   0  0  0  0  0  0  0  0  0  0  0  0
    9.4560   -2.4790   22.2890 S   0  0  0  0  0  0  0  0  0  0  0  0
   10.7860   -1.3310   22.5700 C   0  0  0  0  0  0  0  0  0  0  0  0
   11.9550   -1.7230   21.9570 C   0  0  0  0  0  0  0  0  0  0  0  0
   13.0840   -1.0110   21.9920 C   0  0  0  0  0  0  0  0  0  0  0  0
   13.0130    0.1310   22.6550 C   0  0  0  0  0  0  0  0  0  0  0  0
   14.0210    0.9360   22.7460 F   0  0  0  0  0  0  0  0  0  0  0  0
   11.8890    0.5410   23.2690 C   0  0  0  0  0  0  0  0  0  0  0  0
   10.4970   -0.1570   23.3590 C   0  0  0  0  0  0  0  0  0  0  0  0
    9.3980   -0.9450   23.2980 C   0  0  0  0  0  0  0  0  0  0  0  0
    8.3070   -0.0360   22.9980 N   0  0  0  0  0  0  0  0  0  0  0  0
    8.1680    0.3800   21.5940 C   0  0  0  0  0  0  0  0  0  0  0  0
    8.7970    1.3260   21.1040 O   0  0  0  0  0  0  0  0  0  0  0  0
    7.1940   -0.4710   20.9520 N   0  0  0  0  0  0  0  0  0  0  0  0
    6.4830    0.1540   19.9590 C   0  0  0  0  0  0  0  0  0  0  0  0
    5.2990    0.8560   20.2050 C   0  0  0  0  0  0  0  0  0  0  0  0
    4.6000    1.5360   19.0870 C   0  0  0  0  0  0  0  0  0  0  0  0
    5.1240    1.4700   17.8070 C   0  0  0  0  0  0  0  0  0  0  0  0
    6.3020    0.7390   17.6450 N   0  0  0  0  0  0  0  0  0  0  0  0
    6.9310    0.1220   18.6630 C   0  0  0  0  0  0  0  0  0  0  0  0
  1  2  1  0
  2  3  1  0
  3  4  2  0
  4  5  1  0
  5  6  2  0
  6  7  1  0
  6  8  1  0
  3  9  1  0
  8  9  2  0
  9 10  1  0
 10 11  1  0
 11 12  1  0
 12 13  2  0
 12 14  1  0
 14 15  1  0
 15 16  2  0
 16 17  1  0
 17 18  2  0
 18 19  1  0
 15 20  1  0
 19 20  2  0
M  END
