pyridine_urea_2165
     RDKit          3D

 29 31  0  0  0  0  0  0  0  0999 V2000
    8.6650    1.2970   21.0940 O   0  0  0  0  0  0  0  0  0  0  0  0
    8.2510    0.1950   21.4880 C   0  0  0  0  0  0  0  0  0  0  0  0
    7.1870   -0.4950   20.9840 N   0  0  0  0  0  0  0  0  0  0  0  0
    6.3940    0.1300   20.0410 C   0  0  0  0  0  0  0  0  0  0  0  0
    5.0620    0.8230   20.3480 C   0  0  0  0  0  0  0  0  0  0  0  0
    4.4150    1.4630   19.1290 C   0  0  0  0  0  0  0  0  0  0  0  0
    5.1360    1.3430   17.8270 C   0  0  0  0  0  0  0  0  0  0  0  0
    6.3000    0.6960   17.6790 N   0  0  0  0  0  0  0  0  0  0  0  0
    6.8740    0.1280   18.7480 C   0  0  0  0  0  0  0  0  0  0  0  0
    8.8840   -0.4410   22.5060 N   0  0  0  0  0  0  0  0  0  0  0  0
   10.2220    0.0070   22.6050 C   0  0  0  0  0  0  0  0  0  0  0  0
   10.5050    1.2610   23.0900 C   0  0  0  0  0  0  0  0  0  0  0  0
   11.7940    1.7620   23.1860 C   0  0  0  0  0  0  0  0  0  0  0  0
   12.8760    1.0370   22.7960 C   0  0  0  0  0  0  0  0  0  0  0  0
   12.7020   -0.2320   22.2760 C   0  0  0  0  0  0  0  0  0  0  0  0
   13.7010   -0.9440   21.8210 N   0  0  0  0  0  0  0  0  0  0  0  0
   13.2390   -1.8850   21.0100 C   0  0  0  0  0  0  0  0  0  0  0  0
   12.3680   -2.8570   20.6540 O   0  0  0  0  0  0  0  0  0  0  0  0
   12.3660   -1.9640   22.2120 C   0  0  0  0  0  0  0  0  0  0  0  0
   13.0900   -1.5600   23.3130 C   0  0  0  0  0  0  0  0  0  0  0  0
   12.6060   -1.4640   24.5750 C   0  0  0  0  0  0  0  0  0  0  0  0
   11.3050   -1.7820   24.7880 C   0  0  0  0  0  0  0  0  0  0  0  0
   10.5780   -2.2110   23.7250 C   0  0  0  0  0  0  0  0  0  0  0  0
    9.1370   -2.7000   23.3970 C   0  0  0  0  0  0  0  0  0  0  0  0
    8.1840   -1.9950   24.0700 F   0  0  0  0  0  0  0  0  0  0  0  0
    8.8880   -3.9800   23.7740 F   0  0  0  0  0  0  0  0  0  0  0  0
    8.7950   -2.6250   22.0880 F   0  0  0  0  0  0  0  0  0  0  0  0
   11.0120   -2.3550   22.3170 C   0  0  0  0  0  0  0  0  0  0  0  0
   11.4280   -0.7950   22.1700 C   0  0  0  0  0  0  0  0  0  0  0  0
  1  2  2  0
  2  3  1  0
  3  4  1  0
  4  5  2  0
  5  6  1  0
  6  7  2  0
  7  8  1  0
  4  9  1  0
  8  9  2  0
  2 10  1  0
 10 11  1  0
 11 12  2  0
 12 13  1  0
 13 14  2  0
 14 15  1  0
 15 16  1  0
 16 17  1  0
 17 18  2  0
 17 19  1  0
 19 20  2  0
 20 21  1  0
 21 22  2  0
 22 23  1  0
 23 24  1  0
 24 25  1  0
 24 26  1  0
 24 27  1  0
 19 28  1  0
 23 28  2  0
 11 29  1  0
 15 29  2  0
M  END
