pyridine_urea_1775
     RDKit          3D

 17 17  0  0  0  0  0  0  0  0999 V2000
    7.8570   -1.1520   29.3850 C   0  0  0  0  0  0  0  0  0  0  0  0
    6.8790   -0.2990   28.7940 O   0  0  0  0  0  0  0  0  0  0  0  0
    6.5570   -0.6510   27.4980 C   0  0  0  0  0  0  0  0  0  0  0  0
    7.2970   -0.0300   26.4930 C   0  0  0  0  0  0  0  0  0  0  0  0
    8.0320   -0.8540   25.6150 N   0  0  0  0  0  0  0  0  0  0  0  0
    8.0350   -0.8650   24.2310 C   0  0  0  0  0  0  0  0  0  0  0  0
    8.9750   -1.5860   23.5150 C   0  0  0  0  0  0  0  0  0  0  0  0
    9.2250   -1.3240   22.2150 N   0  0  0  0  0  0  0  0  0  0  0  0
    8.6630   -0.2360   21.6290 C   0  0  0  0  0  0  0  0  0  0  0  0
    9.1920    0.8790   21.5940 O   0  0  0  0  0  0  0  0  0  0  0  0
    7.4110   -0.5790   21.1140 N   0  0  0  0  0  0  0  0  0  0  0  0
    6.6640    0.0600   20.0320 C   0  0  0  0  0  0  0  0  0  0  0  0
    5.3980    0.8550   20.3380 C   0  0  0  0  0  0  0  0  0  0  0  0
    4.7130    1.4530   19.3100 C   0  0  0  0  0  0  0  0  0  0  0  0
    5.2020    1.3150   18.0120 C   0  0  0  0  0  0  0  0  0  0  0  0
    6.3220    0.6080   17.7140 N   0  0  0  0  0  0  0  0  0  0  0  0
    7.0300   -0.0040   18.7060 C   0  0  0  0  0  0  0  0  0  0  0  0
  1  2  1  0
  2  3  1  0
  3  4  1  0
  4  5  1  0
  5  6  1  0
  6  7  1  0
  7  8  1  0
  8  9  1  0
  9 10  2  0
  9 11  1  0
 11 12  1  0
 12 13  2  0
 13 14  1  0
 14 15  2  0
 15 16  1  0
 12 17  1  0
 16 17  2  0
M  END
