pyridine_urea_8346
     RDKit          3D

 22 23  0  0  0  0  0  0  0  0999 V2000
    8.6210    0.4010   26.2870 C   0  0  0  0  0  0  0  0  0  0  0  0
   10.0140    0.1440   26.2290 O   0  0  0  0  0  0  0  0  0  0  0  0
   10.3950   -0.6240   25.0900 C   0  0  0  0  0  0  0  0  0  0  0  0
    9.1710   -1.4810   24.6900 C   0  0  0  0  0  0  0  0  0  0  0  0
    9.1540   -2.3620   23.6840 C   0  0  0  0  0  0  0  0  0  0  0  0
    7.5140   -3.3660   23.3640 Br  0  0  0  0  0  0  0  0  0  0  0  0
   10.4550   -2.4170   22.9750 C   0  0  0  0  0  0  0  0  0  0  0  0
   11.5280   -1.6010   23.3770 C   0  0  0  0  0  0  0  0  0  0  0  0
   11.7120   -0.5230   24.5330 C   0  0  0  0  0  0  0  0  0  0  0  0
   12.9210   -0.6990   23.6910 C   0  0  0  0  0  0  0  0  0  0  0  0
   12.1630   -0.4780   22.4150 C   0  0  0  0  0  0  0  0  0  0  0  0
   10.7940    0.1980   22.7370 C   0  0  0  0  0  0  0  0  0  0  0  0
    9.5880   -0.4470   22.1810 N   0  0  0  0  0  0  0  0  0  0  0  0
    8.7150    0.3330   21.4440 C   0  0  0  0  0  0  0  0  0  0  0  0
    8.9660    1.5090   21.1950 O   0  0  0  0  0  0  0  0  0  0  0  0
    7.5400   -0.3520   21.0230 N   0  0  0  0  0  0  0  0  0  0  0  0
    6.6610    0.1860   20.0950 C   0  0  0  0  0  0  0  0  0  0  0  0
    5.4930    0.8960   20.4080 C   0  0  0  0  0  0  0  0  0  0  0  0
    4.7200    1.4010   19.3620 C   0  0  0  0  0  0  0  0  0  0  0  0
    5.1450    1.1730   18.0720 C   0  0  0  0  0  0  0  0  0  0  0  0
    6.2410    0.4950   17.7300 N   0  0  0  0  0  0  0  0  0  0  0  0
    6.9710    0.0160   18.7540 C   0  0  0  0  0  0  0  0  0  0  0  0
  1  2  1  0
  2  3  1  0
  3  4  2  0
  4  5  1  0
  5  6  1  0
  5  7  2  0
  7  8  1  0
  3  9  1  0
  8  9  2  0
  9 10  1  0
 10 11  1  0
 11 12  1  0
 12 13  1  0
 13 14  1  0
 14 15  2  0
 14 16  1  0
 16 17  1  0
 17 18  2  0
 18 19  1  0
 19 20  2  0
 20 21  1  0
 17 22  1  0
 21 22  2  0
M  END
