pyridine_urea_4101
     RDKit          3D

 26 28  0  0  0  0  0  0  0  0999 V2000
   13.4350   -2.5000   20.7700 C   0  0  0  0  0  0  0  0  0  0  0  0
   13.3270   -2.3050   22.1990 C   0  0  1  0  0  0  0  0  0  0  0  0
   12.2700   -1.7230   22.5500 C   0  0  0  0  0  0  0  0  0  0  0  0
   12.6900   -0.8790   23.4660 N   0  0  0  0  0  0  0  0  0  0  0  0
   11.8700    0.0650   23.5720 C   0  0  0  0  0  0  0  0  0  0  0  0
   12.0850    1.3590   23.5470 C   0  0  0  0  0  0  0  0  0  0  0  0
   11.0230    2.2400   23.6580 C   0  0  0  0  0  0  0  0  0  0  0  0
    9.6050    2.0190   23.8070 C   0  0  0  0  0  0  0  0  0  0  0  0
    8.3330    1.1650   23.9390 C   0  0  0  0  0  0  0  0  0  0  0  0
    8.3480    0.1350   22.9040 N   0  0  0  0  0  0  0  0  0  0  0  0
    8.1850    0.3530   21.5780 C   0  0  0  0  0  0  0  0  0  0  0  0
    8.8110    1.2660   21.0220 O   0  0  0  0  0  0  0  0  0  0  0  0
    7.2910   -0.4680   20.9900 N   0  0  0  0  0  0  0  0  0  0  0  0
    6.5870    0.1060   20.0020 C   0  0  0  0  0  0  0  0  0  0  0  0
    5.4270    0.8150   20.3180 C   0  0  0  0  0  0  0  0  0  0  0  0
    4.6980    1.4270   19.3030 C   0  0  0  0  0  0  0  0  0  0  0  0
    5.1620    1.3030   18.0120 C   0  0  0  0  0  0  0  0  0  0  0  0
    6.2680    0.6190   17.6820 N   0  0  0  0  0  0  0  0  0  0  0  0
    6.9510    0.0390   18.6820 C   0  0  0  0  0  0  0  0  0  0  0  0
    9.6160    0.5130   23.8120 C   0  0  0  0  0  0  0  0  0  0  0  0
   10.6220   -0.3240   23.7050 C   0  0  0  0  0  0  0  0  0  0  0  0
   10.2170   -1.6190   23.7490 F   0  0  0  0  0  0  0  0  0  0  0  0
   13.2080   -1.6480   24.5580 C   0  0  0  0  0  0  0  0  0  0  0  0
   12.9330   -2.9540   24.2870 C   0  0  1  0  0  0  0  0  0  0  0  0
   11.5730   -3.2180   24.3860 C   0  0  0  0  0  0  0  0  0  0  0  0
   13.3340   -3.2460   22.9690 O   0  0  0  0  0  0  0  0  0  0  0  0
  2  1  1  6
  2  3  1  0
  3  4  1  0
  4  5  1  0
  5  6  2  0
  6  7  1  0
  7  8  2  0
  8  9  1  0
  9 10  1  0
 10 11  1  0
 11 12  2  0
 11 13  1  0
 13 14  1  0
 14 15  2  0
 15 16  1  0
 16 17  2  0
 17 18  1  0
 14 19  1  0
 18 19  2  0
  8 20  1  0
  5 21  1  0
 20 21  2  0
 21 22  1  0
  4 23  1  0
 23 24  1  0
 24 25  1  6
  2 26  1  0
 24 26  1  0
M  END
