pyridine_urea_1570
     RDKit          3D

 19 20  0  0  0  0  0  0  0  0999 V2000
   10.6370    0.5170   23.0220 C   0  0  0  0  0  0  0  0  0  0  0  0
   10.1560   -0.8900   22.9910 C   0  0  2  0  0  0  0  0  0  0  0  0
   10.8400   -1.8870   22.3000 C   0  0  0  0  0  0  0  0  0  0  0  0
   11.8020   -1.4400   21.7120 O   0  0  0  0  0  0  0  0  0  0  0  0
   12.9370   -1.5120   22.4370 C   0  0  2  0  0  0  0  0  0  0  0  0
   13.0500   -2.5170   23.3660 C   0  0  0  0  0  0  0  0  0  0  0  0
   13.0770   -2.1240   24.6960 C   0  0  0  0  0  0  0  0  0  0  0  0
   13.2660   -0.9120   24.7010 O   0  0  0  0  0  0  0  0  0  0  0  0
   13.0260   -0.3550   23.3900 C   0  0  0  0  0  0  0  0  0  0  0  0
    8.8100   -0.8240   22.4780 N   0  0  0  0  0  0  0  0  0  0  0  0
    8.3350    0.0360   21.5390 C   0  0  0  0  0  0  0  0  0  0  0  0
    8.8960    1.1050   21.2380 O   0  0  0  0  0  0  0  0  0  0  0  0
    7.1070   -0.4630   20.9800 N   0  0  0  0  0  0  0  0  0  0  0  0
    6.4510    0.1280   19.9730 C   0  0  0  0  0  0  0  0  0  0  0  0
    5.2820    0.8400   20.2430 C   0  0  0  0  0  0  0  0  0  0  0  0
    4.6180    1.4690   19.1960 C   0  0  0  0  0  0  0  0  0  0  0  0
    5.1460    1.3600   17.9250 C   0  0  0  0  0  0  0  0  0  0  0  0
    6.2590    0.6730   17.6490 N   0  0  0  0  0  0  0  0  0  0  0  0
    6.8820    0.0750   18.6720 C   0  0  0  0  0  0  0  0  0  0  0  0
  2  1  1  6
  2  3  1  0
  3  4  1  0
  5  4  1  1
  5  6  1  0
  6  7  1  0
  7  8  1  0
  5  9  1  0
  8  9  1  0
  2 10  1  0
 10 11  1  0
 11 12  2  0
 11 13  1  0
 13 14  1  0
 14 15  2  0
 15 16  1  0
 16 17  2  0
 17 18  1  0
 14 19  1  0
 18 19  2  0
M  END
