pyridine_urea_13268
     RDKit          3D

 15 16  0  0  0  0  0  0  0  0999 V2000
    8.9570    1.1550   21.2540 O   0  0  0  0  0  0  0  0  0  0  0  0
    8.4580    0.0770   21.6180 C   0  0  0  0  0  0  0  0  0  0  0  0
    8.8970   -0.7510   22.6120 N   0  0  0  0  0  0  0  0  0  0  0  0
   10.1670   -1.3210   22.6970 C   0  0  0  0  0  0  0  0  0  0  0  0
   11.0720   -0.6990   23.5370 C   0  0  2  0  0  0  0  0  0  0  0  0
   11.6030    0.5050   23.0020 C   0  0  0  0  0  0  0  0  0  0  0  0
   12.8640   -0.0150   23.0910 C   0  0  0  0  0  0  0  0  0  0  0  0
   12.3820   -1.1210   23.6030 N   0  0  0  0  0  0  0  0  0  0  0  0
    7.3230   -0.4330   21.0430 N   0  0  0  0  0  0  0  0  0  0  0  0
    6.5720    0.1490   20.0350 C   0  0  0  0  0  0  0  0  0  0  0  0
    5.4070    0.8430   20.3390 C   0  0  0  0  0  0  0  0  0  0  0  0
    4.6120    1.4970   19.2100 C   0  0  0  0  0  0  0  0  0  0  0  0
    5.1280    1.3430   17.9340 C   0  0  0  0  0  0  0  0  0  0  0  0
    6.2530    0.6560   17.6720 N   0  0  0  0  0  0  0  0  0  0  0  0
    6.9170    0.0960   18.7070 C   0  0  0  0  0  0  0  0  0  0  0  0
  1  2  2  0
  2  3  1  0
  3  4  1  0
  5  4  1  6
  5  6  1  0
  6  7  1  0
  5  8  1  0
  7  8  1  0
  2  9  1  0
  9 10  1  0
 10 11  2  0
 11 12  1  0
 12 13  2  0
 13 14  1  0
 10 15  1  0
 14 15  2  0
M  END
