pyridine_urea_13994
     RDKit          3D

 23 25  0  0  0  0  0  0  0  0999 V2000
   11.3100   -2.3020   23.1950 C   0  0  0  0  0  0  0  0  0  0  0  0
   10.8990   -1.1780   23.1600 C   0  0  0  0  0  0  0  0  0  0  0  0
    9.8340   -0.1240   22.9850 C   0  0  0  0  0  0  0  0  0  0  0  0
    8.5310   -0.7070   22.6880 N   0  0  0  0  0  0  0  0  0  0  0  0
    8.0490   -0.0070   21.4890 C   0  0  0  0  0  0  0  0  0  0  0  0
    8.6270    1.2230   21.0050 O   0  0  0  0  0  0  0  0  0  0  0  0
    6.9900   -0.7390   21.0040 N   0  0  0  0  0  0  0  0  0  0  0  0
    6.5150   -0.0960   19.9780 C   0  0  0  0  0  0  0  0  0  0  0  0
    5.2420    0.6900   20.3300 C   0  0  0  0  0  0  0  0  0  0  0  0
    4.6530    1.4400   19.2030 C   0  0  0  0  0  0  0  0  0  0  0  0
    5.2450    1.3860   18.0040 C   0  0  0  0  0  0  0  0  0  0  0  0
    6.3680    0.6820   17.7200 N   0  0  0  0  0  0  0  0  0  0  0  0
    6.9750   -0.0390   18.6950 C   0  0  0  0  0  0  0  0  0  0  0  0
    9.9740    1.3930   23.0920 C   0  0  0  0  0  0  0  0  0  0  0  0
   11.1910    1.9360   23.3700 C   0  0  0  0  0  0  0  0  0  0  0  0
   12.2300    1.0960   23.5480 C   0  0  0  0  0  0  0  0  0  0  0  0
   12.1670   -0.3960   23.4730 C   0  0  0  0  0  0  0  0  0  0  0  0
   13.2350   -1.0990   23.6930 N   0  0  0  0  0  0  0  0  0  0  0  0
   13.2010   -1.8910   24.7830 C   0  0  0  0  0  0  0  0  0  0  0  0
   13.9990   -2.9210   24.4410 N   0  0  0  0  0  0  0  0  0  0  0  0
   13.7510   -3.0780   23.1100 N   0  0  0  0  0  0  0  0  0  0  0  0
   13.4440   -1.9030   22.5820 C   0  0  0  0  0  0  0  0  0  0  0  0
   13.3440   -1.4590   21.2370 O   0  0  0  0  0  0  0  0  0  0  0  0
  1  2  1  0
  2  3  2  0
  3  4  1  0
  4  5  1  0
  5  6  2  0
  5  7  1  0
  7  8  1  0
  8  9  2  0
  9 10  1  0
 10 11  2  0
 11 12  1  0
  8 13  1  0
 12 13  2  0
  3 14  1  0
 14 15  2  0
 15 16  1  0
  2 17  1  0
 16 17  2  0
 17 18  1  0
 18 19  1  0
 19 20  1  0
 20 21  1  0
 18 22  1  0
 21 22  1  0
 22 23  2  0
M  END
