pyridine_urea_13814
     RDKit          3D

 24 25  0  0  0  0  0  0  0  0999 V2000
    8.7310    3.5060   25.1370 C   0  0  0  0  0  0  0  0  0  0  0  0
    9.0700    2.6680   24.0370 O   0  0  0  0  0  0  0  0  0  0  0  0
    8.4670    1.3790   24.1270 C   0  0  0  0  0  0  0  0  0  0  0  0
    7.6120    1.0790   24.9480 O   0  0  0  0  0  0  0  0  0  0  0  0
    9.0330    0.4430   23.0610 C   0  0  1  0  0  0  0  0  0  0  0  0
    9.8420   -0.5560   23.6500 C   0  0  0  0  0  0  0  0  0  0  0  0
   10.7070   -1.1400   22.8690 C   0  0  0  0  0  0  0  0  0  0  0  0
   11.1470   -2.0630   22.0830 C   0  0  0  0  0  0  0  0  0  0  0  0
   12.5160   -1.4310   21.9230 C   0  0  0  0  0  0  0  0  0  0  0  0
   13.3140   -2.5870   20.9020 Br  0  0  0  0  0  0  0  0  0  0  0  0
   13.1490   -0.1500   22.4550 C   0  0  0  0  0  0  0  0  0  0  0  0
   12.0740    0.5960   23.2530 C   0  0  0  0  0  0  0  0  0  0  0  0
   10.2770    0.1580   23.5550 Br  0  0  0  0  0  0  0  0  0  0  0  0
   11.8810   -0.4210   22.7690 C   0  0  0  0  0  0  0  0  0  0  0  0
    7.9280   -0.3360   22.5980 N   0  0  0  0  0  0  0  0  0  0  0  0
    7.8010    0.1430   21.2720 C   0  0  0  0  0  0  0  0  0  0  0  0
    8.5730    1.2710   20.8350 O   0  0  0  0  0  0  0  0  0  0  0  0
    6.8790   -0.5700   20.6080 N   0  0  0  0  0  0  0  0  0  0  0  0
    6.1660    0.1410   19.7060 C   0  0  0  0  0  0  0  0  0  0  0  0
    4.8050    0.6350   20.2220 C   0  0  0  0  0  0  0  0  0  0  0  0
    4.3930    1.3750   18.9750 C   0  0  0  0  0  0  0  0  0  0  0  0
    5.1310    1.5240   17.7030 C   0  0  0  0  0  0  0  0  0  0  0  0
    6.2970    1.0010   17.4750 N   0  0  0  0  0  0  0  0  0  0  0  0
    6.7690    0.3260   18.4940 C   0  0  0  0  0  0  0  0  0  0  0  0
  1  2  1  0
  2  3  1  0
  3  4  2  0
  3  5  1  0
  5  6  1  1
  6  7  1  0
  7  8  2  0
  8  9  1  0
  9 10  1  0
  9 11  2  0
 11 12  1  0
 12 13  1  0
  7 14  1  0
 12 14  2  0
  5 15  1  0
 15 16  1  0
 16 17  2  0
 16 18  1  0
 18 19  1  0
 19 20  2  0
 20 21  1  0
 21 22  2  0
 22 23  1  0
 19 24  1  0
 23 24  2  0
M  END
