pyridine_urea_10263
     RDKit          3D

 23 25  0  0  0  0  0  0  0  0999 V2000
    8.9170    0.8370   21.3670 O   0  0  0  0  0  0  0  0  0  0  0  0
    8.3910   -0.2300   21.6440 C   0  0  0  0  0  0  0  0  0  0  0  0
    7.2310   -0.7020   21.0420 N   0  0  0  0  0  0  0  0  0  0  0  0
    6.4740   -0.0070   20.0760 C   0  0  0  0  0  0  0  0  0  0  0  0
    5.2980    0.7040   20.3170 C   0  0  0  0  0  0  0  0  0  0  0  0
    4.6490    1.3580   19.2660 C   0  0  0  0  0  0  0  0  0  0  0  0
    5.2030    1.2780   18.0040 C   0  0  0  0  0  0  0  0  0  0  0  0
    6.3280    0.5990   17.7410 N   0  0  0  0  0  0  0  0  0  0  0  0
    6.9300   -0.0240   18.7720 C   0  0  0  0  0  0  0  0  0  0  0  0
    8.8710   -1.1160   22.6070 N   0  0  0  0  0  0  0  0  0  0  0  0
   10.1890   -1.1550   23.1240 C   0  0  1  0  0  0  0  0  0  0  0  0
   11.0890   -1.0540   22.1090 C   0  0  0  0  0  0  0  0  0  0  0  0
   12.4450   -0.9870   22.4040 C   0  0  0  0  0  0  0  0  0  0  0  0
   12.7880    0.0440   23.2530 C   0  0  0  0  0  0  0  0  0  0  0  0
   11.7850    0.3960   24.1580 C   0  0  0  0  0  0  0  0  0  0  0  0
   10.4220   -0.2430   24.1800 C   0  0  2  0  0  0  0  0  0  0  0  0
   10.0130   -0.6570   25.2660 O   0  0  0  0  0  0  0  0  0  0  0  0
    9.1720    0.1240   26.0470 C   0  0  0  0  0  0  0  0  0  0  0  0
    8.5370    1.2620   25.5700 C   0  0  0  0  0  0  0  0  0  0  0  0
    7.7060    2.0230   26.3700 C   0  0  0  0  0  0  0  0  0  0  0  0
    7.4890    1.6510   27.6900 C   0  0  0  0  0  0  0  0  0  0  0  0
    8.1130    0.5070   28.2050 C   0  0  0  0  0  0  0  0  0  0  0  0
    8.9520   -0.2600   27.3930 C   0  0  0  0  0  0  0  0  0  0  0  0
  1  2  2  0
  2  3  1  0
  3  4  1  0
  4  5  2  0
  5  6  1  0
  6  7  2  0
  7  8  1  0
  4  9  1  0
  8  9  2  0
  2 10  1  0
 11 10  1  6
 11 12  1  0
 12 13  1  0
 13 14  1  0
 14 15  1  0
 11 16  1  0
 15 16  1  0
 16 17  1  1
 17 18  1  0
 18 19  2  0
 19 20  1  0
 20 21  2  0
 21 22  1  0
 18 23  1  0
 22 23  2  0
M  END
