pyridine_urea_10696
     RDKit          3D

 20 21  0  0  0  0  0  0  0  0999 V2000
    8.8930    0.8340   21.3670 O   0  0  0  0  0  0  0  0  0  0  0  0
    8.4690   -0.3050   21.5060 C   0  0  0  0  0  0  0  0  0  0  0  0
    9.1840   -1.3720   21.9980 N   0  0  0  0  0  0  0  0  0  0  0  0
   10.1360   -1.2960   23.0300 C   0  0  0  0  0  0  0  0  0  0  0  0
   11.5740   -1.8440   22.9070 C   0  0  0  0  0  0  0  0  0  0  0  0
   11.8730   -2.1950   21.6300 F   0  0  0  0  0  0  0  0  0  0  0  0
   11.6900   -2.9660   23.6770 F   0  0  0  0  0  0  0  0  0  0  0  0
   12.5870   -0.8400   23.4360 C   0  0  0  0  0  0  0  0  0  0  0  0
   12.6130    0.3290   22.5370 C   0  0  0  0  0  0  0  0  0  0  0  0
   12.4470    1.6320   22.9960 C   0  0  0  0  0  0  0  0  0  0  0  0
   11.8720    1.6470   24.0540 O   0  0  0  0  0  0  0  0  0  0  0  0
   11.2220    0.4240   24.3290 C   0  0  0  0  0  0  0  0  0  0  0  0
   12.1790   -0.5090   24.6890 C   0  0  0  0  0  0  0  0  0  0  0  0
    7.1940   -0.6820   21.1680 N   0  0  0  0  0  0  0  0  0  0  0  0
    6.5030   -0.0280   20.1460 C   0  0  0  0  0  0  0  0  0  0  0  0
    5.3330    0.7100   20.3440 C   0  0  0  0  0  0  0  0  0  0  0  0
    4.6450    1.3860   19.3170 C   0  0  0  0  0  0  0  0  0  0  0  0
    5.1530    1.3220   18.0060 C   0  0  0  0  0  0  0  0  0  0  0  0
    6.2530    0.6460   17.6780 N   0  0  0  0  0  0  0  0  0  0  0  0
    6.8860    0.0140   18.6800 C   0  0  0  0  0  0  0  0  0  0  0  0
  1  2  2  0
  2  3  1  0
  3  4  1  0
  4  5  1  0
  5  6  1  0
  5  7  1  0
  5  8  1  0
  8  9  1  0
  9 10  1  0
 10 11  1  0
 11 12  1  0
  8 13  1  0
 12 13  1  0
  2 14  1  0
 14 15  1  0
 15 16  2  0
 16 17  1  0
 17 18  2  0
 18 19  1  0
 15 20  1  0
 19 20  2  0
M  END
