pyridine_urea_13280
     RDKit          3D

 14 15  0  0  0  0  0  0  0  0999 V2000
    8.9880    1.2310   21.2200 O   0  0  0  0  0  0  0  0  0  0  0  0
    8.6200    0.0790   21.4880 C   0  0  0  0  0  0  0  0  0  0  0  0
    9.3110   -0.7910   22.3060 N   0  0  0  0  0  0  0  0  0  0  0  0
   10.4450   -0.4600   23.0840 C   0  0  0  0  0  0  0  0  0  0  0  0
   11.7040   -0.8960   22.6380 C   0  0  0  0  0  0  0  0  0  0  0  0
   12.6550   -0.9600   23.4930 C   0  0  0  0  0  0  0  0  0  0  0  0
   12.7860    0.2720   22.7850 C   0  0  0  0  0  0  0  0  0  0  0  0
    7.4600   -0.5000   21.0140 N   0  0  0  0  0  0  0  0  0  0  0  0
    6.6520    0.0900   20.1020 C   0  0  0  0  0  0  0  0  0  0  0  0
    5.4850    0.8320   20.4030 C   0  0  0  0  0  0  0  0  0  0  0  0
    4.6740    1.4730   19.2520 C   0  0  0  0  0  0  0  0  0  0  0  0
    5.1590    1.2710   17.9780 C   0  0  0  0  0  0  0  0  0  0  0  0
    6.2670    0.5510   17.7530 N   0  0  0  0  0  0  0  0  0  0  0  0
    7.0030   -0.0340   18.7700 C   0  0  0  0  0  0  0  0  0  0  0  0
  1  2  2  0
  2  3  1  0
  3  4  1  0
  4  5  1  0
  5  6  1  0
  5  7  1  0
  6  7  1  0
  2  8  1  0
  8  9  1  0
  9 10  2  0
 10 11  1  0
 11 12  2  0
 12 13  1  0
  9 14  1  0
 13 14  2  0
M  END
