pyridine_urea_6058
     RDKit          3D

 25 27  0  0  0  0  0  0  0  0999 V2000
    8.7220    1.2600   21.0460 O   0  0  0  0  0  0  0  0  0  0  0  0
    8.0660    0.3200   21.5160 C   0  0  0  0  0  0  0  0  0  0  0  0
    8.2930   -0.2030   22.8010 N   0  0  0  0  0  0  0  0  0  0  0  0
    9.6010   -0.3100   23.0550 C   0  0  0  0  0  0  0  0  0  0  0  0
   10.2210    0.2640   24.1370 C   0  0  0  0  0  0  0  0  0  0  0  0
   11.5560    0.0320   24.2380 C   0  0  0  0  0  0  0  0  0  0  0  0
   12.1690   -0.7410   23.2820 C   0  0  0  0  0  0  0  0  0  0  0  0
   13.5190   -0.9760   23.4700 C   0  0  0  0  0  0  0  0  0  0  0  0
   13.3630   -1.7400   24.7810 C   0  0  0  0  0  0  0  0  0  0  0  0
   12.6550   -3.0410   24.5660 C   0  0  0  0  0  0  0  0  0  0  0  0
   11.3640   -3.2660   25.0290 C   0  0  0  0  0  0  0  0  0  0  0  0
   11.1790   -4.2280   26.0050 C   0  0  0  0  0  0  0  0  0  0  0  0
    9.9140   -4.5280   26.5110 C   0  0  0  0  0  0  0  0  0  0  0  0
    8.8140   -3.8430   26.0300 C   0  0  0  0  0  0  0  0  0  0  0  0
    8.9850   -2.8750   25.0560 C   0  0  0  0  0  0  0  0  0  0  0  0
   10.2500   -2.5830   24.5510 C   0  0  0  0  0  0  0  0  0  0  0  0
   11.5290   -1.2900   22.2040 C   0  0  0  0  0  0  0  0  0  0  0  0
   10.2010   -1.0780   22.0690 C   0  0  0  0  0  0  0  0  0  0  0  0
    7.0370   -0.3640   20.9380 N   0  0  0  0  0  0  0  0  0  0  0  0
    6.3490    0.2510   19.8590 C   0  0  0  0  0  0  0  0  0  0  0  0
    5.1720    0.9370   20.1140 C   0  0  0  0  0  0  0  0  0  0  0  0
    4.5460    1.5540   19.0410 C   0  0  0  0  0  0  0  0  0  0  0  0
    5.1160    1.4580   17.7770 C   0  0  0  0  0  0  0  0  0  0  0  0
    6.2530    0.7730   17.5440 N   0  0  0  0  0  0  0  0  0  0  0  0
    6.8410    0.1880   18.5920 C   0  0  0  0  0  0  0  0  0  0  0  0
  1  2  2  0
  2  3  1  0
  3  4  1  0
  4  5  2  0
  5  6  1  0
  6  7  2  0
  7  8  1  0
  8  9  1  0
  9 10  1  0
 10 11  1  0
 11 12  2  0
 12 13  1  0
 13 14  2  0
 14 15  1  0
 11 16  1  0
 15 16  2  0
  7 17  1  0
  4 18  1  0
 17 18  2  0
  2 19  1  0
 19 20  1  0
 20 21  2  0
 21 22  1  0
 22 23  2  0
 23 24  1  0
 20 25  1  0
 24 25  2  0
M  END
