pyridine_urea_11915
     RDKit          3D

 24 26  0  0  0  0  0  0  0  0999 V2000
    5.9740   -0.7550   28.1630 C   0  0  0  0  0  0  0  0  0  0  0  0
    7.2170   -0.5950   27.2870 C   0  0  0  0  0  0  0  0  0  0  0  0
    7.2180   -0.8550   25.9180 C   0  0  0  0  0  0  0  0  0  0  0  0
    8.3190   -0.7320   25.0600 C   0  0  0  0  0  0  0  0  0  0  0  0
    9.5040   -0.3140   25.6580 C   0  0  0  0  0  0  0  0  0  0  0  0
   10.5800   -0.2250   24.6190 N   0  0  0  0  0  0  0  0  0  0  0  0
   11.9790   -0.1920   24.6090 C   0  0  0  0  0  0  0  0  0  0  0  0
   12.4730   -0.8420   23.4480 C   0  0  0  0  0  0  0  0  0  0  0  0
   11.3550   -1.4660   22.6100 C   0  0  0  0  0  0  0  0  0  0  0  0
   10.3630   -0.5210   22.3470 C   0  0  1  0  0  0  0  0  0  0  0  0
    9.1700   -1.0630   21.9600 N   0  0  0  0  0  0  0  0  0  0  0  0
    8.2100   -0.2750   21.3080 C   0  0  0  0  0  0  0  0  0  0  0  0
    8.4750    0.8930   21.0580 O   0  0  0  0  0  0  0  0  0  0  0  0
    7.0400   -0.8530   20.9800 N   0  0  0  0  0  0  0  0  0  0  0  0
    6.3730   -0.1270   20.0560 C   0  0  0  0  0  0  0  0  0  0  0  0
    5.1890    0.5890   20.2580 C   0  0  0  0  0  0  0  0  0  0  0  0
    4.6320    1.3070   19.2060 C   0  0  0  0  0  0  0  0  0  0  0  0
    5.2260    1.3290   17.9680 C   0  0  0  0  0  0  0  0  0  0  0  0
    6.3590    0.6610   17.7010 N   0  0  0  0  0  0  0  0  0  0  0  0
    6.9130   -0.0680   18.7730 C   0  0  0  0  0  0  0  0  0  0  0  0
   10.0600    0.3030   23.3890 C   0  0  0  0  0  0  0  0  0  0  0  0
    9.4210    1.3150   23.1920 O   0  0  0  0  0  0  0  0  0  0  0  0
    9.6070   -0.0280   27.0310 C   0  0  0  0  0  0  0  0  0  0  0  0
    8.5260   -0.1360   27.9110 C   0  0  0  0  0  0  0  0  0  0  0  0
  1  2  1  0
  2  3  2  0
  3  4  1  0
  4  5  2  0
  5  6  1  0
  6  7  1  0
  7  8  1  0
  8  9  1  0
  9 10  1  0
 10 11  1  1
 11 12  1  0
 12 13  2  0
 12 14  1  0
 14 15  1  0
 15 16  2  0
 16 17  1  0
 17 18  2  0
 18 19  1  0
 15 20  1  0
 19 20  2  0
  6 21  1  0
 10 21  1  0
 21 22  2  0
  5 23  1  0
  2 24  1  0
 23 24  2  0
M  END
