pyridine_urea_7069
     RDKit          3D

 20 20  0  0  0  0  0  0  0  0999 V2000
    6.0980   -3.6210   22.3290 C   0  0  0  0  0  0  0  0  0  0  0  0
    7.3620   -4.0230   23.0790 C   0  0  0  0  0  0  0  0  0  0  0  0
    7.6020   -3.1700   24.2440 N   0  0  0  0  0  0  0  0  0  0  0  0
    6.5060   -3.0650   25.2040 C   0  0  0  0  0  0  0  0  0  0  0  0
    8.1120   -1.8380   23.9030 C   0  0  0  0  0  0  0  0  0  0  0  0
    7.6970   -0.8340   24.5120 O   0  0  0  0  0  0  0  0  0  0  0  0
    9.0600   -1.6140   22.9200 C   0  0  1  0  0  0  0  0  0  0  0  0
    9.3010   -0.3440   22.5650 N   0  0  0  0  0  0  0  0  0  0  0  0
    8.5760    0.2480   21.5740 C   0  0  0  0  0  0  0  0  0  0  0  0
    8.8950    1.3690   21.1410 O   0  0  0  0  0  0  0  0  0  0  0  0
    7.4150   -0.5300   21.1220 N   0  0  0  0  0  0  0  0  0  0  0  0
    6.6670    0.0510   20.0820 C   0  0  0  0  0  0  0  0  0  0  0  0
    5.5220    0.8090   20.3970 C   0  0  0  0  0  0  0  0  0  0  0  0
    4.7570    1.4240   19.3870 C   0  0  0  0  0  0  0  0  0  0  0  0
    5.1480    1.2740   18.0680 C   0  0  0  0  0  0  0  0  0  0  0  0
    6.2650    0.5220   17.7610 N   0  0  0  0  0  0  0  0  0  0  0  0
    6.9940   -0.0680   18.7490 C   0  0  0  0  0  0  0  0  0  0  0  0
   10.2690   -2.2850   23.1330 C   0  0  0  0  0  0  0  0  0  0  0  0
   11.2110   -2.1600   22.1100 C   0  0  0  0  0  0  0  0  0  0  0  0
   11.0450   -1.8490   24.4020 C   0  0  0  0  0  0  0  0  0  0  0  0
  1  2  1  0
  2  3  1  0
  3  4  1  0
  3  5  1  0
  5  6  2  0
  5  7  1  0
  7  8  1  1
  8  9  1  0
  9 10  2  0
  9 11  1  0
 11 12  1  0
 12 13  2  0
 13 14  1  0
 14 15  2  0
 15 16  1  0
 12 17  1  0
 16 17  2  0
  7 18  1  0
 18 19  1  0
 18 20  1  0
M  END
