pyridine_urea_5743
     RDKit          3D

 20 21  0  0  0  0  0  0  0  0999 V2000
    8.6500    0.9270   21.1500 O   0  0  0  0  0  0  0  0  0  0  0  0
    8.3440   -0.2100   21.4810 C   0  0  0  0  0  0  0  0  0  0  0  0
    7.0850   -0.7940   21.0440 N   0  0  0  0  0  0  0  0  0  0  0  0
    6.4180   -0.0860   20.0470 C   0  0  0  0  0  0  0  0  0  0  0  0
    5.2330    0.6020   20.3150 C   0  0  0  0  0  0  0  0  0  0  0  0
    4.6170    1.3040   19.2750 C   0  0  0  0  0  0  0  0  0  0  0  0
    5.2040    1.2940   18.0060 C   0  0  0  0  0  0  0  0  0  0  0  0
    6.3390    0.6280   17.7430 N   0  0  0  0  0  0  0  0  0  0  0  0
    6.9200   -0.0450   18.7630 C   0  0  0  0  0  0  0  0  0  0  0  0
    9.0930   -1.0470   22.2760 N   0  0  0  0  0  0  0  0  0  0  0  0
   10.4220   -0.5650   22.6290 C   0  0  2  0  0  0  0  0  0  0  0  0
   11.5070   -1.5370   22.2180 C   0  0  0  0  0  0  0  0  0  0  0  0
   12.6800   -0.8550   22.2630 C   0  0  0  0  0  0  0  0  0  0  0  0
   12.8470    0.1430   23.2000 C   0  0  0  0  0  0  0  0  0  0  0  0
   11.8540    0.4570   24.1440 C   0  0  0  0  0  0  0  0  0  0  0  0
   10.5890   -0.1100   23.9320 C   0  0  1  0  0  0  0  0  0  0  0  0
    9.6110    0.8050   24.3010 C   0  0  0  0  0  0  0  0  0  0  0  0
    8.4470    0.7750   23.6350 F   0  0  0  0  0  0  0  0  0  0  0  0
    9.9650    2.1130   24.2290 F   0  0  0  0  0  0  0  0  0  0  0  0
    9.2570    0.5850   25.5840 F   0  0  0  0  0  0  0  0  0  0  0  0
  1  2  2  0
  2  3  1  0
  3  4  1  0
  4  5  2  0
  5  6  1  0
  6  7  2  0
  7  8  1  0
  4  9  1  0
  8  9  2  0
  2 10  1  0
 11 10  1  1
 11 12  1  0
 12 13  1  0
 13 14  2  0
 14 15  1  0
 11 16  1  0
 15 16  1  0
 16 17  1  6
 17 18  1  0
 17 19  1  0
 17 20  1  0
M  END
