pyridine_urea_12388
     RDKit          3D

 22 24  0  0  0  0  0  0  0  0999 V2000
    8.6800    1.2620   20.5040 O   0  0  0  0  0  0  0  0  0  0  0  0
    8.2330    0.3830   21.1950 C   0  0  0  0  0  0  0  0  0  0  0  0
    8.5940    0.3160   22.4730 N   0  0  0  0  0  0  0  0  0  0  0  0
   10.0590    0.6400   22.6040 C   0  0  0  0  0  0  0  0  0  0  0  0
   10.5580    1.4730   24.0050 C   0  0  0  0  0  0  0  0  0  0  0  0
   11.4390    0.7990   24.7930 C   0  0  0  0  0  0  0  0  0  0  0  0
   12.0000   -0.5040   24.6130 C   0  0  0  0  0  0  0  0  0  0  0  0
   11.4960   -1.0660   23.4930 C   0  0  0  0  0  0  0  0  0  0  0  0
   11.8160   -2.2640   23.0020 N   0  0  0  0  0  0  0  0  0  0  0  0
   12.8430   -3.0400   23.7020 C   0  0  0  0  0  0  0  0  0  0  0  0
   13.9950   -3.2100   22.7090 C   0  0  0  0  0  0  0  0  0  0  0  0
   13.3870   -2.6920   21.3510 C   0  0  0  0  0  0  0  0  0  0  0  0
   12.1530   -1.9610   21.7250 C   0  0  0  0  0  0  0  0  0  0  0  0
   10.5910   -0.5740   22.5940 N   0  0  0  0  0  0  0  0  0  0  0  0
   10.1430    0.7780   22.8380 C   0  0  0  0  0  0  0  0  0  0  0  0
    7.2730   -0.4290   20.7650 N   0  0  0  0  0  0  0  0  0  0  0  0
    6.5650    0.1100   19.7720 C   0  0  0  0  0  0  0  0  0  0  0  0
    5.3270    0.6870   19.9900 C   0  0  0  0  0  0  0  0  0  0  0  0
    4.5870    1.2340   18.9500 C   0  0  0  0  0  0  0  0  0  0  0  0
    5.1600    1.1740   17.6900 C   0  0  0  0  0  0  0  0  0  0  0  0
    6.3690    0.6040   17.4420 N   0  0  0  0  0  0  0  0  0  0  0  0
    7.0230    0.1010   18.4900 C   0  0  0  0  0  0  0  0  0  0  0  0
  1  2  2  0
  2  3  1  0
  3  4  1  0
  4  5  1  0
  5  6  2  0
  6  7  1  0
  7  8  2  0
  8  9  1  0
  9 10  1  0
 10 11  1  0
 11 12  1  0
  9 13  1  0
 12 13  1  0
  8 14  1  0
  5 15  1  0
 14 15  2  0
  2 16  1  0
 16 17  1  0
 17 18  2  0
 18 19  1  0
 19 20  2  0
 20 21  1  0
 17 22  1  0
 21 22  2  0
M  END
