pyridine_urea_11277
     RDKit          3D

 16 17  0  0  0  0  0  0  0  0999 V2000
    8.8780    0.7810   21.5130 O   0  0  0  0  0  0  0  0  0  0  0  0
    8.3880   -0.3360   21.4000 C   0  0  0  0  0  0  0  0  0  0  0  0
    9.1190   -1.4890   21.5850 N   0  0  0  0  0  0  0  0  0  0  0  0
   10.0620   -1.5940   22.6800 C   0  0  0  0  0  0  0  0  0  0  0  0
   11.2940   -0.7790   22.3660 C   0  0  1  0  0  0  0  0  0  0  0  0
   11.8570   -0.1560   23.5710 C   0  0  0  0  0  0  0  0  0  0  0  0
   13.0270   -0.6570   23.4160 C   0  0  1  0  0  0  0  0  0  0  0  0
   13.2400   -1.2890   24.4450 O   0  0  0  0  0  0  0  0  0  0  0  0
   12.7630   -1.3630   22.1250 C   0  0  0  0  0  0  0  0  0  0  0  0
    7.0880   -0.6300   21.0550 N   0  0  0  0  0  0  0  0  0  0  0  0
    6.3250    0.0690   20.1050 C   0  0  0  0  0  0  0  0  0  0  0  0
    5.1690    0.7070   20.4390 C   0  0  0  0  0  0  0  0  0  0  0  0
    4.6220    1.3660   19.1770 C   0  0  0  0  0  0  0  0  0  0  0  0
    5.2350    1.2940   17.9460 C   0  0  0  0  0  0  0  0  0  0  0  0
    6.3590    0.6370   17.7470 N   0  0  0  0  0  0  0  0  0  0  0  0
    6.8570    0.0500   18.8260 C   0  0  0  0  0  0  0  0  0  0  0  0
  1  2  2  0
  2  3  1  0
  3  4  1  0
  5  4  1  1
  5  6  1  0
  6  7  1  0
  7  8  1  1
  5  9  1  0
  7  9  1  0
  2 10  1  0
 10 11  1  0
 11 12  2  0
 12 13  1  0
 13 14  2  0
 14 15  1  0
 11 16  1  0
 15 16  2  0
M  END
