pyridine_urea_8293
     RDKit          3D

 23 25  0  0  0  0  0  0  0  0999 V2000
    9.0440    0.8160   21.4690 O   0  0  0  0  0  0  0  0  0  0  0  0
    8.7040   -0.3430   21.3670 C   0  0  0  0  0  0  0  0  0  0  0  0
    9.6010   -1.4070   21.5030 N   0  0  0  0  0  0  0  0  0  0  0  0
   10.4640   -1.6020   22.6820 C   0  0  0  0  0  0  0  0  0  0  0  0
   12.0580   -1.6230   22.5370 C   0  0  0  0  0  0  0  0  0  0  0  0
   12.1770   -0.4990   22.7190 C   0  0  0  0  0  0  0  0  0  0  0  0
   11.6570    0.6670   22.9430 C   0  0  0  0  0  0  0  0  0  0  0  0
   10.4060    1.2180   23.0880 C   0  0  0  0  0  0  0  0  0  0  0  0
   10.1380    2.5510   22.3780 C   0  0  0  0  0  0  0  0  0  0  0  0
    8.8100    3.2250   22.4050 C   0  0  0  0  0  0  0  0  0  0  0  0
    7.8300    2.4130   23.2130 C   0  0  0  0  0  0  0  0  0  0  0  0
    8.2100    1.0760   23.9050 C   0  0  0  0  0  0  0  0  0  0  0  0
    9.5600    0.2620   23.9580 C   0  0  0  0  0  0  0  0  0  0  0  0
    8.6380   -0.4060   24.6820 F   0  0  0  0  0  0  0  0  0  0  0  0
   12.9120    0.9680   22.9260 O   0  0  0  0  0  0  0  0  0  0  0  0
   13.3340   -0.5580   22.6270 N   0  0  0  0  0  0  0  0  0  0  0  0
    7.4170   -0.7310   21.0490 N   0  0  0  0  0  0  0  0  0  0  0  0
    6.6780   -0.1010   20.0950 C   0  0  0  0  0  0  0  0  0  0  0  0
    5.5420    0.6370   20.4590 C   0  0  0  0  0  0  0  0  0  0  0  0
    4.7840    1.3030   19.4760 C   0  0  0  0  0  0  0  0  0  0  0  0
    5.1550    1.2350   18.1370 C   0  0  0  0  0  0  0  0  0  0  0  0
    6.2220    0.5480   17.7170 N   0  0  0  0  0  0  0  0  0  0  0  0
    6.9930   -0.1370   18.7570 C   0  0  0  0  0  0  0  0  0  0  0  0
  1  2  2  0
  2  3  1  0
  3  4  1  0
  4  5  1  0
  5  6  1  0
  6  7  2  0
  7  8  1  0
  8  9  2  0
  9 10  1  0
 10 11  2  0
 11 12  1  0
  8 13  1  0
 12 13  2  0
 13 14  1  0
  7 15  1  0
  5 16  2  0
 15 16  1  0
  2 17  1  0
 17 18  1  0
 18 19  2  0
 19 20  1  0
 20 21  2  0
 21 22  1  0
 18 23  1  0
 22 23  2  0
M  END
