pyridine_urea_13905
     RDKit          3D

 24 25  0  0  0  0  0  0  0  0999 V2000
   13.1480    5.5650   22.5700 C   0  0  0  0  0  0  0  0  0  0  0  0
   12.4300    5.8840   23.4830 C   0  0  0  0  0  0  0  0  0  0  0  0
   11.9360    6.8960   24.5740 C   0  0  0  0  0  0  0  0  0  0  0  0
   10.8420    6.6720   25.5600 C   0  0  0  0  0  0  0  0  0  0  0  0
   10.3190    7.8080   26.7600 Cl  0  0  0  0  0  0  0  0  0  0  0  0
   10.2500    5.4730   25.4610 C   0  0  0  0  0  0  0  0  0  0  0  0
   10.5550    4.3580   24.4980 C   0  0  0  0  0  0  0  0  0  0  0  0
   11.6600    4.6370   23.5450 C   0  0  0  0  0  0  0  0  0  0  0  0
   12.0010    3.3590   22.4730 S   0  0  0  0  0  0  0  0  0  0  0  0
   11.8910    3.9800   21.1760 O   0  0  0  0  0  0  0  0  0  0  0  0
   13.2760    2.8130   22.8120 O   0  0  0  0  0  0  0  0  0  0  0  0
   11.0050    2.0980   22.9690 N   0  0  0  0  0  0  0  0  0  0  0  0
   11.5320    0.7990   22.9320 C   0  0  0  0  0  0  0  0  0  0  0  0
   10.4350   -0.2160   22.7450 C   0  0  0  0  0  0  0  0  0  0  0  0
    9.1870   -0.6780   22.4200 N   0  0  0  0  0  0  0  0  0  0  0  0
    8.3250    0.0180   21.4400 C   0  0  0  0  0  0  0  0  0  0  0  0
    8.7100    1.1930   21.0610 O   0  0  0  0  0  0  0  0  0  0  0  0
    7.2070   -0.6250   21.0390 N   0  0  0  0  0  0  0  0  0  0  0  0
    6.5680   -0.0230   20.0110 C   0  0  0  0  0  0  0  0  0  0  0  0
    5.4220    0.7160   20.2690 C   0  0  0  0  0  0  0  0  0  0  0  0
    4.4600    1.5280   19.3730 C   0  0  0  0  0  0  0  0  0  0  0  0
    5.1780    1.2690   18.0530 C   0  0  0  0  0  0  0  0  0  0  0  0
    6.2740    0.5690   17.7200 N   0  0  0  0  0  0  0  0  0  0  0  0
    6.9650   -0.0830   18.7390 C   0  0  0  0  0  0  0  0  0  0  0  0
  1  2  1  0
  2  3  2  0
  3  4  1  0
  4  5  1  0
  4  6  2  0
  6  7  1  0
  2  8  1  0
  7  8  2  0
  8  9  1  0
  9 10  2  0
  9 11  2  0
  9 12  1  0
 12 13  1  0
 13 14  1  0
 14 15  1  0
 15 16  1  0
 16 17  2  0
 16 18  1  0
 18 19  1  0
 19 20  2  0
 20 21  1  0
 21 22  2  0
 22 23  1  0
 19 24  1  0
 23 24  2  0
M  END
