pyridine_urea_12493
     RDKit          3D

 21 22  0  0  0  0  0  0  0  0999 V2000
    8.8810    1.0640   21.2690 O   0  0  0  0  0  0  0  0  0  0  0  0
    8.1890    0.1050   21.6550 C   0  0  0  0  0  0  0  0  0  0  0  0
    8.2510   -0.4670   22.9060 N   0  0  0  0  0  0  0  0  0  0  0  0
    9.5170   -0.7870   23.4990 C   0  0  0  0  0  0  0  0  0  0  0  0
   10.0810    0.3480   24.4250 C   0  0  0  0  0  0  0  0  0  0  0  0
   10.1440   -0.1720   25.6930 F   0  0  0  0  0  0  0  0  0  0  0  0
    9.1560    1.3460   24.5110 F   0  0  0  0  0  0  0  0  0  0  0  0
   11.2910    0.8280   23.9910 C   0  0  0  0  0  0  0  0  0  0  0  0
   12.6300    0.8920   23.3090 C   0  0  0  0  0  0  0  0  0  0  0  0
   13.3120   -0.0240   22.5560 C   0  0  0  0  0  0  0  0  0  0  0  0
   13.1040   -1.4430   22.0650 C   0  0  0  0  0  0  0  0  0  0  0  0
   11.7630   -1.5540   22.7430 C   0  0  0  0  0  0  0  0  0  0  0  0
   11.1620   -2.7500   22.5680 F   0  0  0  0  0  0  0  0  0  0  0  0
   11.0610   -0.4800   23.5690 C   0  0  0  0  0  0  0  0  0  0  0  0
    7.2320   -0.5570   20.9480 N   0  0  0  0  0  0  0  0  0  0  0  0
    6.5500    0.0700   19.9590 C   0  0  0  0  0  0  0  0  0  0  0  0
    5.2780    0.8600   20.2960 C   0  0  0  0  0  0  0  0  0  0  0  0
    4.6140    1.5430   19.1170 C   0  0  0  0  0  0  0  0  0  0  0  0
    5.1530    1.4300   17.8630 C   0  0  0  0  0  0  0  0  0  0  0  0
    6.2780    0.7030   17.6310 N   0  0  0  0  0  0  0  0  0  0  0  0
    6.9600    0.0400   18.6450 C   0  0  0  0  0  0  0  0  0  0  0  0
  1  2  2  0
  2  3  1  0
  3  4  1  0
  4  5  1  0
  5  6  1  0
  5  7  1  0
  5  8  1  0
  8  9  2  0
  9 10  1  0
 10 11  2  0
 11 12  1  0
 12 13  1  0
  8 14  1  0
 12 14  2  0
  2 15  1  0
 15 16  1  0
 16 17  2  0
 17 18  1  0
 18 19  2  0
 19 20  1  0
 16 21  1  0
 20 21  2  0
M  END
