pyridine_urea_968
     RDKit          3D

 22 24  0  0  0  0  0  0  0  0999 V2000
    8.6390    1.2700   21.0130 O   0  0  0  0  0  0  0  0  0  0  0  0
    8.4290    0.0960   21.3480 C   0  0  0  0  0  0  0  0  0  0  0  0
    7.1700   -0.5650   21.0490 N   0  0  0  0  0  0  0  0  0  0  0  0
    6.4640    0.0610   20.0430 C   0  0  0  0  0  0  0  0  0  0  0  0
    5.2880    0.7610   20.3180 C   0  0  0  0  0  0  0  0  0  0  0  0
    4.6310    1.3910   19.2620 C   0  0  0  0  0  0  0  0  0  0  0  0
    5.1700    1.2970   17.9770 C   0  0  0  0  0  0  0  0  0  0  0  0
    6.2920    0.6190   17.7070 N   0  0  0  0  0  0  0  0  0  0  0  0
    6.9160    0.0150   18.7430 C   0  0  0  0  0  0  0  0  0  0  0  0
    9.3010   -0.7210   22.0140 N   0  0  0  0  0  0  0  0  0  0  0  0
   10.2100   -0.0710   22.9400 C   0  0  2  0  0  0  0  0  0  0  0  0
   11.6170   -0.7020   22.7850 C   0  0  0  0  0  0  0  0  0  0  0  0
   11.7710   -1.8660   22.4080 C   0  0  0  0  0  0  0  0  0  0  0  0
   12.9130   -1.4330   22.5830 C   0  0  0  0  0  0  0  0  0  0  0  0
   11.7880   -0.2830   22.9380 C   0  0  0  0  0  0  0  0  0  0  0  0
   12.4060    0.8810   23.3310 C   0  0  0  0  0  0  0  0  0  0  0  0
   13.0130   -0.0440   23.0400 C   0  0  0  0  0  0  0  0  0  0  0  0
    9.7880    0.0730   24.2550 C   0  0  0  0  0  0  0  0  0  0  0  0
    8.7790    0.7440   24.8210 N   0  0  0  0  0  0  0  0  0  0  0  0
    8.8610    0.5040   26.1230 C   0  0  0  0  0  0  0  0  0  0  0  0
    9.8810   -0.2990   26.4630 N   0  0  0  0  0  0  0  0  0  0  0  0
   10.4480   -0.5540   25.2440 N   0  0  0  0  0  0  0  0  0  0  0  0
  1  2  2  0
  2  3  1  0
  3  4  1  0
  4  5  2  0
  5  6  1  0
  6  7  2  0
  7  8  1  0
  4  9  1  0
  8  9  2  0
  2 10  1  0
 11 10  1  6
 11 12  1  0
 12 13  2  0
 13 14  1  0
 14 15  2  0
 15 16  1  0
 12 17  1  0
 16 17  2  0
 11 18  1  0
 18 19  2  0
 19 20  1  0
 20 21  2  0
 18 22  1  0
 21 22  1  0
M  END
