pyridine_urea_14622
     RDKit          3D

 23 24  0  0  0  0  0  0  0  0999 V2000
   13.7100    3.4810   22.7590 C   0  0  0  0  0  0  0  0  0  0  0  0
   13.3090    4.5160   21.9830 N   0  0  0  0  0  0  0  0  0  0  0  0
   14.2050    5.4860   21.7430 C   0  0  0  0  0  0  0  0  0  0  0  0
   12.0490    5.0470   22.4320 C   0  0  0  0  0  0  0  0  0  0  0  0
   11.9610    4.9760   23.7680 C   0  0  0  0  0  0  0  0  0  0  0  0
   11.7420    3.6740   24.0550 C   0  0  0  0  0  0  0  0  0  0  0  0
   12.5270    2.7860   23.5790 O   0  0  0  0  0  0  0  0  0  0  0  0
   11.9270    1.6240   23.1900 C   0  0  0  0  0  0  0  0  0  0  0  0
   10.4420    1.7100   23.1870 C   0  0  0  0  0  0  0  0  0  0  0  0
    9.6940    0.6920   22.8450 C   0  0  0  0  0  0  0  0  0  0  0  0
   10.2490   -0.4850   22.4760 C   0  0  0  0  0  0  0  0  0  0  0  0
    9.2230   -1.4120   22.0970 N   0  0  0  0  0  0  0  0  0  0  0  0
    8.3140   -0.6180   21.3470 C   0  0  0  0  0  0  0  0  0  0  0  0
    8.6320    0.5140   20.9980 O   0  0  0  0  0  0  0  0  0  0  0  0
    7.1140   -1.1370   21.0640 N   0  0  0  0  0  0  0  0  0  0  0  0
    6.4790   -0.3260   20.0260 C   0  0  0  0  0  0  0  0  0  0  0  0
    5.1680    0.3520   20.3150 C   0  0  0  0  0  0  0  0  0  0  0  0
    4.5930    1.1390   19.2810 C   0  0  0  0  0  0  0  0  0  0  0  0
    5.2320    1.2710   18.0480 C   0  0  0  0  0  0  0  0  0  0  0  0
    6.4130    0.6410   17.8320 N   0  0  0  0  0  0  0  0  0  0  0  0
    7.0500   -0.1500   18.7830 C   0  0  0  0  0  0  0  0  0  0  0  0
   11.6580   -0.7010   22.4600 C   0  0  0  0  0  0  0  0  0  0  0  0
   12.5250    0.3850   22.8270 C   0  0  0  0  0  0  0  0  0  0  0  0
  1  2  1  0
  2  3  1  0
  2  4  1  0
  4  5  1  0
  5  6  1  0
  6  7  1  0
  7  8  1  0
  8  9  2  0
  9 10  1  0
 10 11  2  0
 11 12  1  0
 12 13  1  0
 13 14  2  0
 13 15  1  0
 15 16  1  0
 16 17  2  0
 17 18  1  0
 18 19  2  0
 19 20  1  0
 16 21  1  0
 20 21  2  0
 11 22  1  0
  8 23  1  0
 22 23  2  0
M  END
