pyridine_urea_2425
     RDKit          3D

 24 25  0  0  0  0  0  0  0  0999 V2000
    6.5310   -1.5830   27.4210 C   0  0  0  0  0  0  0  0  0  0  0  0
    7.0930   -0.9900   26.5030 O   0  0  0  0  0  0  0  0  0  0  0  0
    7.9160    0.0070   26.9170 C   0  0  0  0  0  0  0  0  0  0  0  0
    8.9840    0.2290   26.0380 C   0  0  0  0  0  0  0  0  0  0  0  0
    8.8960   -0.2630   24.7420 C   0  0  0  0  0  0  0  0  0  0  0  0
   10.0430   -0.8140   24.1970 C   0  0  1  0  0  0  0  0  0  0  0  0
    9.7810   -1.6960   23.1350 C   0  0  0  0  0  0  0  0  0  0  0  0
    8.5350   -1.3910   22.4850 N   0  0  0  0  0  0  0  0  0  0  0  0
    8.4140   -0.2870   21.7260 C   0  0  0  0  0  0  0  0  0  0  0  0
    9.3460    0.7890   21.6990 O   0  0  0  0  0  0  0  0  0  0  0  0
    7.3390   -0.2700   20.9820 N   0  0  0  0  0  0  0  0  0  0  0  0
    6.5710    0.2430   19.9970 C   0  0  0  0  0  0  0  0  0  0  0  0
    5.3950    0.9430   20.3150 C   0  0  0  0  0  0  0  0  0  0  0  0
    4.6730    1.4700   19.2620 C   0  0  0  0  0  0  0  0  0  0  0  0
    5.1120    1.2990   17.9730 C   0  0  0  0  0  0  0  0  0  0  0  0
    6.2150    0.6270   17.6430 N   0  0  0  0  0  0  0  0  0  0  0  0
    6.9150    0.1160   18.6670 C   0  0  0  0  0  0  0  0  0  0  0  0
   11.1100    0.0740   23.9620 C   0  0  0  0  0  0  0  0  0  0  0  0
   12.3350    0.7900   23.5560 C   0  0  0  0  0  0  0  0  0  0  0  0
   13.3740    0.3370   22.7410 C   0  0  0  0  0  0  0  0  0  0  0  0
   13.1650   -0.8670   22.3310 C   0  0  0  0  0  0  0  0  0  0  0  0
   11.9550   -0.2420   23.3450 Cl  0  0  0  0  0  0  0  0  0  0  0  0
   12.2650   -1.7610   22.4730 C   0  0  0  0  0  0  0  0  0  0  0  0
   11.2660   -1.2430   23.2930 C   0  0  0  0  0  0  0  0  0  0  0  0
  1  2  1  0
  2  3  1  0
  3  4  1  0
  4  5  1  0
  6  5  1  6
  6  7  1  0
  7  8  1  0
  8  9  1  0
  9 10  2  0
  9 11  1  0
 11 12  1  0
 12 13  2  0
 13 14  1  0
 14 15  2  0
 15 16  1  0
 12 17  1  0
 16 17  2  0
  6 18  1  0
 18 19  2  0
 19 20  1  0
 20 21  2  0
 21 22  1  0
 21 23  1  0
 18 24  1  0
 23 24  2  0
M  END
