pyridine_urea_7231
     RDKit          3D

 19 20  0  0  0  0  0  0  0  0999 V2000
    7.5670   -1.4650   29.2390 O   0  0  0  0  0  0  0  0  0  0  0  0
    7.4390   -2.1360   28.2250 C   0  0  0  0  0  0  0  0  0  0  0  0
    7.7450   -1.5050   26.8680 C   0  0  0  0  0  0  0  0  0  0  0  0
    7.7100   -2.4330   25.7300 N   0  0  0  0  0  0  0  0  0  0  0  0
    8.5830   -2.0340   24.6310 C   0  0  0  0  0  0  0  0  0  0  0  0
    7.9340   -1.3010   23.6510 C   0  0  0  0  0  0  0  0  0  0  0  0
    8.8600   -0.8310   22.7270 N   0  0  0  0  0  0  0  0  0  0  0  0
    8.3570   -0.0560   21.6010 C   0  0  0  0  0  0  0  0  0  0  0  0
    8.9720    1.1880   21.2010 O   0  0  0  0  0  0  0  0  0  0  0  0
    7.1860   -0.6770   20.9810 N   0  0  0  0  0  0  0  0  0  0  0  0
    6.5240    0.0020   20.0030 C   0  0  0  0  0  0  0  0  0  0  0  0
    5.2510    0.8270   20.1670 C   0  0  0  0  0  0  0  0  0  0  0  0
    4.6070    1.5200   19.1490 C   0  0  0  0  0  0  0  0  0  0  0  0
    5.1340    1.4920   17.8420 C   0  0  0  0  0  0  0  0  0  0  0  0
    6.3400    0.6970   17.6920 N   0  0  0  0  0  0  0  0  0  0  0  0
    6.9830   -0.0060   18.7240 C   0  0  0  0  0  0  0  0  0  0  0  0
    7.6990   -3.8890   25.9080 C   0  0  0  0  0  0  0  0  0  0  0  0
    7.4410   -4.3420   27.2960 C   0  0  0  0  0  0  0  0  0  0  0  0
    7.0230   -3.4630   28.2360 N   0  0  0  0  0  0  0  0  0  0  0  0
  1  2  2  0
  2  3  1  0
  3  4  1  0
  4  5  1  0
  5  6  1  0
  6  7  1  0
  7  8  1  0
  8  9  2  0
  8 10  1  0
 10 11  1  0
 11 12  2  0
 12 13  1  0
 13 14  2  0
 14 15  1  0
 11 16  1  0
 15 16  2  0
  4 17  1  0
 17 18  1  0
  2 19  1  0
 18 19  1  0
M  END
