pyridine_urea_2181
     RDKit          3D

 28 30  0  0  0  0  0  0  0  0999 V2000
   10.1030    4.5300   22.3790 N   0  0  0  0  0  0  0  0  0  0  0  0
    9.8010    3.4630   23.1710 C   0  0  0  0  0  0  0  0  0  0  0  0
    8.7000    3.5720   24.0820 O   0  0  0  0  0  0  0  0  0  0  0  0
   10.6660    2.1910   22.9860 C   0  0  0  0  0  0  0  0  0  0  0  0
    9.8140    1.0180   22.7650 C   0  0  0  0  0  0  0  0  0  0  0  0
   10.2770   -0.3650   22.5270 C   0  0  0  0  0  0  0  0  0  0  0  0
    9.2830   -1.2550   22.2860 N   0  0  0  0  0  0  0  0  0  0  0  0
    8.3380   -0.5560   21.4750 C   0  0  0  0  0  0  0  0  0  0  0  0
    8.6490    0.7730   21.0680 O   0  0  0  0  0  0  0  0  0  0  0  0
    7.0880   -1.1450   21.0640 N   0  0  0  0  0  0  0  0  0  0  0  0
    6.3570   -0.3630   20.1340 C   0  0  0  0  0  0  0  0  0  0  0  0
    5.1390    0.3160   20.3570 C   0  0  0  0  0  0  0  0  0  0  0  0
    4.5510    1.0760   19.3210 C   0  0  0  0  0  0  0  0  0  0  0  0
    5.1760    1.1540   18.0930 C   0  0  0  0  0  0  0  0  0  0  0  0
    6.3330    0.5450   17.7790 N   0  0  0  0  0  0  0  0  0  0  0  0
    6.9540   -0.2240   18.7640 C   0  0  0  0  0  0  0  0  0  0  0  0
   11.8170   -0.5660   22.5560 C   0  0  0  0  0  0  0  0  0  0  0  0
   12.7450    0.5430   22.7760 C   0  0  0  0  0  0  0  0  0  0  0  0
   12.1590    1.9920   22.9850 C   0  0  0  0  0  0  0  0  0  0  0  0
   13.0700    3.0750   23.1640 O   0  0  0  0  0  0  0  0  0  0  0  0
   12.6220    4.4180   22.8150 C   0  0  0  0  0  0  0  0  0  0  0  0
   11.8650    5.0620   23.8380 C   0  0  0  0  0  0  0  0  0  0  0  0
   10.8660    4.3310   24.4830 C   0  0  0  0  0  0  0  0  0  0  0  0
   10.0500    4.7990   25.4940 C   0  0  0  0  0  0  0  0  0  0  0  0
   10.2470    6.2330   25.9470 C   0  0  0  0  0  0  0  0  0  0  0  0
   11.3320    7.0160   25.2300 C   0  0  0  0  0  0  0  0  0  0  0  0
   11.5960    8.8070   25.7650 Br  0  0  0  0  0  0  0  0  0  0  0  0
   12.0890    6.4110   24.2160 C   0  0  0  0  0  0  0  0  0  0  0  0
  1  2  1  0
  2  3  2  0
  2  4  1  0
  4  5  2  0
  5  6  1  0
  6  7  1  0
  7  8  1  0
  8  9  2  0
  8 10  1  0
 10 11  1  0
 11 12  2  0
 12 13  1  0
 13 14  2  0
 14 15  1  0
 11 16  1  0
 15 16  2  0
  6 17  2  0
 17 18  1  0
  4 19  1  0
 18 19  2  0
 19 20  1  0
 20 21  1  0
 21 22  1  0
 22 23  2  0
 23 24  1  0
 24 25  2  0
 25 26  1  0
 26 27  1  0
 22 28  1  0
 26 28  2  0
M  END
