pyridine_urea_7352
     RDKit          3D

 18 18  0  0  0  0  0  0  0  0999 V2000
   13.2130   -1.2440   21.9200 C   0  0  0  0  0  0  0  0  0  0  0  0
   12.9260   -2.6120   22.4990 C   0  0  0  0  0  0  0  0  0  0  0  0
   12.8880   -2.5790   23.8800 C   0  0  0  0  0  0  0  0  0  0  0  0
   12.2850   -1.4670   24.4180 C   0  0  0  0  0  0  0  0  0  0  0  0
   11.1720   -1.0620   23.5400 N   0  0  0  0  0  0  0  0  0  0  0  0
   11.0740    0.1710   22.9880 C   0  0  0  0  0  0  0  0  0  0  0  0
   10.1810   -1.9870   23.6350 C   0  0  0  0  0  0  0  0  0  0  0  0
    9.6150   -2.2950   22.3980 C   0  0  0  0  0  0  0  0  0  0  0  0
    9.0980   -1.2930   21.7120 N   0  0  0  0  0  0  0  0  0  0  0  0
    8.3620   -0.1700   21.4340 C   0  0  0  0  0  0  0  0  0  0  0  0
    8.8490    0.9490   21.3520 O   0  0  0  0  0  0  0  0  0  0  0  0
    7.0650   -0.5040   21.2610 N   0  0  0  0  0  0  0  0  0  0  0  0
    6.4620    0.0760   20.2050 C   0  0  0  0  0  0  0  0  0  0  0  0
    5.3070    0.8140   20.3240 C   0  0  0  0  0  0  0  0  0  0  0  0
    4.7030    1.4150   19.2450 C   0  0  0  0  0  0  0  0  0  0  0  0
    5.1660    1.3600   17.9330 C   0  0  0  0  0  0  0  0  0  0  0  0
    6.3200    0.6350   17.7030 N   0  0  0  0  0  0  0  0  0  0  0  0
    6.9340    0.0240   18.7670 C   0  0  0  0  0  0  0  0  0  0  0  0
  1  2  1  0
  2  3  1  0
  3  4  1  0
  4  5  1  0
  5  6  1  0
  5  7  1  0
  7  8  1  0
  8  9  1  0
  9 10  1  0
 10 11  2  0
 10 12  1  0
 12 13  1  0
 13 14  2  0
 14 15  1  0
 15 16  2  0
 16 17  1  0
 13 18  1  0
 17 18  2  0
M  END
