pyridine_urea_12171
     RDKit          3D

 23 25  0  0  0  0  0  0  0  0999 V2000
   13.4680   -2.8180   20.7920 C   0  0  0  0  0  0  0  0  0  0  0  0
   13.2870   -2.3220   22.1700 C   0  0  0  0  0  0  0  0  0  0  0  0
   12.6230   -1.1990   22.0900 N   0  0  0  0  0  0  0  0  0  0  0  0
   12.5010   -0.8110   23.3110 C   0  0  0  0  0  0  0  0  0  0  0  0
   11.8250    0.2280   23.2430 C   0  0  0  0  0  0  0  0  0  0  0  0
   12.2470    1.4520   23.1050 C   0  0  0  0  0  0  0  0  0  0  0  0
   11.2830    2.4360   23.0260 C   0  0  0  0  0  0  0  0  0  0  0  0
    9.8320    2.3500   23.0740 C   0  0  0  0  0  0  0  0  0  0  0  0
    8.4350    1.7450   23.1770 C   0  0  0  0  0  0  0  0  0  0  0  0
    7.9390    1.1730   22.0240 N   0  0  0  0  0  0  0  0  0  0  0  0
    8.2260   -0.0700   21.4370 C   0  0  0  0  0  0  0  0  0  0  0  0
    9.3740   -0.4330   21.3540 O   0  0  0  0  0  0  0  0  0  0  0  0
    7.1530   -0.7450   20.9840 N   0  0  0  0  0  0  0  0  0  0  0  0
    6.4550   -0.0600   20.0520 C   0  0  0  0  0  0  0  0  0  0  0  0
    5.2600    0.6630   20.2600 C   0  0  0  0  0  0  0  0  0  0  0  0
    4.6320    1.3550   19.2000 C   0  0  0  0  0  0  0  0  0  0  0  0
    5.2140    1.3160   17.9360 C   0  0  0  0  0  0  0  0  0  0  0  0
    6.3500    0.6170   17.7620 N   0  0  0  0  0  0  0  0  0  0  0  0
    6.9520   -0.0490   18.7670 C   0  0  0  0  0  0  0  0  0  0  0  0
    9.6190    0.8190   23.2410 C   0  0  0  0  0  0  0  0  0  0  0  0
   10.5650   -0.0940   23.3060 C   0  0  0  0  0  0  0  0  0  0  0  0
   13.0910   -1.6180   24.4880 C   0  0  0  0  0  0  0  0  0  0  0  0
   13.8140   -2.9830   23.7650 S   0  0  0  0  0  0  0  0  0  0  0  0
  1  2  1  0
  2  3  2  0
  3  4  1  0
  4  5  1  0
  5  6  2  0
  6  7  1  0
  7  8  2  0
  8  9  1  0
  9 10  1  0
 10 11  1  0
 11 12  2  0
 11 13  1  0
 13 14  1  0
 14 15  2  0
 15 16  1  0
 16 17  2  0
 17 18  1  0
 14 19  1  0
 18 19  2  0
  8 20  1  0
  5 21  1  0
 20 21  2  0
  4 22  2  0
  2 23  1  0
 22 23  1  0
M  END
