pyridine_urea_8605
     RDKit          3D

 21 22  0  0  0  0  0  0  0  0999 V2000
    8.8690    1.1610   21.1350 O   0  0  0  0  0  0  0  0  0  0  0  0
    8.4380    0.0840   21.5580 C   0  0  0  0  0  0  0  0  0  0  0  0
    7.3090   -0.5230   21.0760 N   0  0  0  0  0  0  0  0  0  0  0  0
    6.5600    0.0500   20.0390 C   0  0  0  0  0  0  0  0  0  0  0  0
    5.3820    0.7390   20.3390 C   0  0  0  0  0  0  0  0  0  0  0  0
    4.6470    1.3360   19.3120 C   0  0  0  0  0  0  0  0  0  0  0  0
    5.1250    1.2170   18.0250 C   0  0  0  0  0  0  0  0  0  0  0  0
    6.2430    0.5540   17.7140 N   0  0  0  0  0  0  0  0  0  0  0  0
    6.9340   -0.0140   18.7180 C   0  0  0  0  0  0  0  0  0  0  0  0
    9.0820   -0.6040   22.5800 N   0  0  0  0  0  0  0  0  0  0  0  0
   10.2200    0.0680   23.2050 C   0  0  0  0  0  0  0  0  0  0  0  0
   10.1270    1.5770   22.7920 C   0  0  0  0  0  0  0  0  0  0  0  0
   11.2230    2.3910   23.0980 C   0  0  0  0  0  0  0  0  0  0  0  0
   12.3540    1.8050   23.4970 F   0  0  0  0  0  0  0  0  0  0  0  0
   11.6160    3.2070   22.0830 F   0  0  0  0  0  0  0  0  0  0  0  0
   10.8940    3.2930   24.0390 F   0  0  0  0  0  0  0  0  0  0  0  0
   11.4320   -0.3330   22.4330 C   0  0  0  0  0  0  0  0  0  0  0  0
   12.4640   -1.1860   22.8360 C   0  0  0  0  0  0  0  0  0  0  0  0
   12.3280   -1.4320   24.0090 O   0  0  0  0  0  0  0  0  0  0  0  0
   11.9260   -0.2740   24.7070 C   0  0  0  0  0  0  0  0  0  0  0  0
   10.5500   -0.1460   24.5320 C   0  0  0  0  0  0  0  0  0  0  0  0
  1  2  2  0
  2  3  1  0
  3  4  1  0
  4  5  2  0
  5  6  1  0
  6  7  2  0
  7  8  1  0
  4  9  1  0
  8  9  2  0
  2 10  1  0
 11 10  1  0
 11 12  1  0
 12 13  1  0
 13 14  1  0
 13 15  1  0
 13 16  1  0
 11 17  1  0
 17 18  1  0
 18 19  1  0
 19 20  1  0
 11 21  1  0
 20 21  1  0
M  END
