pyridine_urea_12458
     RDKit          3D

 21 22  0  0  0  0  0  0  0  0999 V2000
   12.6550    3.7190   22.2690 C   0  0  0  0  0  0  0  0  0  0  0  0
   11.3370    3.0780   22.7000 C   0  0  0  0  0  0  0  0  0  0  0  0
   11.4050    1.6380   22.6680 O   0  0  0  0  0  0  0  0  0  0  0  0
   11.4060    1.0240   23.8820 C   0  0  1  0  0  0  0  0  0  0  0  0
   10.2290    0.3380   24.1100 C   0  0  0  0  0  0  0  0  0  0  0  0
   10.0930   -0.8250   23.1180 C   0  0  0  0  0  0  0  0  0  0  0  0
    8.8160   -0.7840   22.6230 N   0  0  0  0  0  0  0  0  0  0  0  0
    8.3520    0.0350   21.5940 C   0  0  0  0  0  0  0  0  0  0  0  0
    8.8880    1.0920   21.2170 O   0  0  0  0  0  0  0  0  0  0  0  0
    7.1780   -0.5090   21.0670 N   0  0  0  0  0  0  0  0  0  0  0  0
    6.4970    0.1240   19.9510 C   0  0  0  0  0  0  0  0  0  0  0  0
    5.2030    0.8510   20.3460 C   0  0  0  0  0  0  0  0  0  0  0  0
    4.5050    1.5390   19.1820 C   0  0  0  0  0  0  0  0  0  0  0  0
    5.1610    1.4170   17.8290 C   0  0  0  0  0  0  0  0  0  0  0  0
    6.3110    0.7280   17.6160 N   0  0  0  0  0  0  0  0  0  0  0  0
    6.9610    0.0950   18.6560 C   0  0  0  0  0  0  0  0  0  0  0  0
   12.4840   -0.1240   23.9450 C   0  0  0  0  0  0  0  0  0  0  0  0
   12.2830   -1.4120   24.4750 C   0  0  0  0  0  0  0  0  0  0  0  0
   12.4200   -2.2990   23.4130 C   0  0  0  0  0  0  0  0  0  0  0  0
   12.6820   -1.5980   22.2600 C   0  0  0  0  0  0  0  0  0  0  0  0
   12.9350   -0.3050   22.6450 C   0  0  0  0  0  0  0  0  0  0  0  0
  1  2  1  0
  2  3  1  0
  3  4  1  0
  4  5  1  6
  5  6  1  0
  6  7  1  0
  7  8  1  0
  8  9  2  0
  8 10  1  0
 10 11  1  0
 11 12  2  0
 12 13  1  0
 13 14  2  0
 14 15  1  0
 11 16  1  0
 15 16  2  0
  4 17  1  0
 17 18  1  0
 18 19  1  0
 19 20  1  0
 17 21  1  0
 20 21  1  0
M  END
