pyridine_urea_8940
     RDKit          3D

 20 21  0  0  0  0  0  0  0  0999 V2000
   14.3950   -2.8840   25.7060 N   0  0  0  0  0  0  0  0  0  0  0  0
   13.6900   -2.2300   25.0630 C   0  0  0  0  0  0  0  0  0  0  0  0
   12.6970   -1.3920   24.2440 C   0  0  0  0  0  0  0  0  0  0  0  0
   13.0980   -1.0420   22.8630 C   0  0  0  0  0  0  0  0  0  0  0  0
   12.0470   -0.4000   22.5160 C   0  0  0  0  0  0  0  0  0  0  0  0
   10.8470    0.0350   22.8680 C   0  0  0  0  0  0  0  0  0  0  0  0
   10.1400    0.7240   21.9880 F   0  0  0  0  0  0  0  0  0  0  0  0
   10.2320   -0.1750   24.1330 C   0  0  0  0  0  0  0  0  0  0  0  0
    9.3700    0.5230   23.3560 C   0  0  0  0  0  0  0  0  0  0  0  0
    8.6950   -0.2540   22.4810 N   0  0  0  0  0  0  0  0  0  0  0  0
    8.0640    0.1570   21.3700 C   0  0  0  0  0  0  0  0  0  0  0  0
    8.4620    1.2240   20.8690 O   0  0  0  0  0  0  0  0  0  0  0  0
    7.0490   -0.5920   20.9290 N   0  0  0  0  0  0  0  0  0  0  0  0
    6.4020    0.0420   19.9510 C   0  0  0  0  0  0  0  0  0  0  0  0
    5.2040    0.7020   20.2490 C   0  0  0  0  0  0  0  0  0  0  0  0
    4.5380    1.3860   19.2240 C   0  0  0  0  0  0  0  0  0  0  0  0
    5.1600    1.3650   17.8700 C   0  0  0  0  0  0  0  0  0  0  0  0
    6.3020    0.7140   17.6330 N   0  0  0  0  0  0  0  0  0  0  0  0
    6.8850    0.0760   18.6630 C   0  0  0  0  0  0  0  0  0  0  0  0
   11.4420   -0.9900   24.7750 C   0  0  0  0  0  0  0  0  0  0  0  0
  1  2  3  0
  2  3  1  0
  3  4  2  0
  4  5  1  0
  5  6  2  0
  6  7  1  0
  6  8  1  0
  8  9  1  0
  9 10  1  0
 10 11  1  0
 11 12  2  0
 11 13  1  0
 13 14  1  0
 14 15  2  0
 15 16  1  0
 16 17  2  0
 17 18  1  0
 14 19  1  0
 18 19  2  0
  3 20  1  0
  8 20  2  0
M  END
