pyridine_urea_7784
     RDKit          3D

 29 31  0  0  0  0  0  0  0  0999 V2000
    8.8000    0.5940   21.2110 O   0  0  0  0  0  0  0  0  0  0  0  0
    8.2790   -0.5150   21.1760 C   0  0  0  0  0  0  0  0  0  0  0  0
    6.9640   -0.7420   20.8970 N   0  0  0  0  0  0  0  0  0  0  0  0
    6.3240   -0.0220   19.9040 C   0  0  0  0  0  0  0  0  0  0  0  0
    5.1170    0.6240   20.1620 C   0  0  0  0  0  0  0  0  0  0  0  0
    4.5060    1.3570   19.1420 C   0  0  0  0  0  0  0  0  0  0  0  0
    5.1380    1.4070   17.9130 C   0  0  0  0  0  0  0  0  0  0  0  0
    6.2960    0.7840   17.6570 N   0  0  0  0  0  0  0  0  0  0  0  0
    6.8560    0.0870   18.6530 C   0  0  0  0  0  0  0  0  0  0  0  0
    8.9680   -1.6800   21.4090 N   0  0  0  0  0  0  0  0  0  0  0  0
    9.8830   -1.6270   22.5390 C   0  0  2  0  0  0  0  0  0  0  0  0
    9.6690   -0.1870   23.0570 C   0  0  0  0  0  0  0  0  0  0  0  0
    9.3530    1.1370   23.5440 C   0  0  0  0  0  0  0  0  0  0  0  0
    8.1360    1.7520   23.8590 C   0  0  0  0  0  0  0  0  0  0  0  0
    6.9720    1.0900   23.7490 C   0  0  0  0  0  0  0  0  0  0  0  0
    5.5000    1.9180   24.1610 Cl  0  0  0  0  0  0  0  0  0  0  0  0
    7.0530   -0.1830   23.3220 C   0  0  0  0  0  0  0  0  0  0  0  0
    8.3110   -0.7370   23.0120 C   0  0  0  0  0  0  0  0  0  0  0  0
   11.3350   -1.4740   22.1310 C   0  0  0  0  0  0  0  0  0  0  0  0
   12.6540   -0.9500   22.1900 C   0  0  0  0  0  0  0  0  0  0  0  0
   13.1550   -0.0110   23.0690 C   0  0  0  0  0  0  0  0  0  0  0  0
   12.4000    0.5050   24.0520 C   0  0  0  0  0  0  0  0  0  0  0  0
   11.1760    0.0720   24.1350 C   0  0  0  0  0  0  0  0  0  0  0  0
   10.2740    0.5260   25.1770 O   0  0  0  0  0  0  0  0  0  0  0  0
    9.4230   -0.4700   25.7760 C   0  0  0  0  0  0  0  0  0  0  0  0
    9.6280   -1.6740   25.2280 F   0  0  0  0  0  0  0  0  0  0  0  0
    8.1280   -0.1530   25.5270 F   0  0  0  0  0  0  0  0  0  0  0  0
    9.5610   -0.5560   27.1110 F   0  0  0  0  0  0  0  0  0  0  0  0
   10.7360   -0.8190   23.2280 C   0  0  0  0  0  0  0  0  0  0  0  0
  1  2  2  0
  2  3  1  0
  3  4  1  0
  4  5  2  0
  5  6  1  0
  6  7  2  0
  7  8  1  0
  4  9  1  0
  8  9  2  0
  2 10  1  0
 11 10  1  6
 11 12  1  0
 12 13  2  0
 13 14  1  0
 14 15  2  0
 15 16  1  0
 15 17  1  0
 12 18  1  0
 17 18  2  0
 11 19  1  0
 19 20  2  0
 20 21  1  0
 21 22  2  0
 22 23  1  0
 23 24  1  0
 24 25  1  0
 25 26  1  0
 25 27  1  0
 25 28  1  0
 19 29  1  0
 23 29  2  0
M  END
