pyridine_urea_3667
     RDKit          3D

 24 26  0  0  0  0  0  0  0  0999 V2000
   12.8140   -0.6770   25.1540 C   0  0  0  0  0  0  0  0  0  0  0  0
   13.2400   -2.1210   25.0100 C   0  0  0  0  0  0  0  0  0  0  0  0
   14.1840   -2.6270   26.0270 C   0  0  0  0  0  0  0  0  0  0  0  0
   12.0120   -2.7860   24.5900 C   0  0  0  0  0  0  0  0  0  0  0  0
   12.3010   -2.4240   23.2480 N   0  0  0  0  0  0  0  0  0  0  0  0
   11.8080   -1.2240   23.0440 C   0  0  0  0  0  0  0  0  0  0  0  0
   10.3620   -1.4480   23.1880 C   0  0  0  0  0  0  0  0  0  0  0  0
    9.1480   -0.5730   23.0890 C   0  0  0  0  0  0  0  0  0  0  0  0
    8.4450    0.6220   22.8850 N   0  0  0  0  0  0  0  0  0  0  0  0
    8.1460    0.8030   21.5460 C   0  0  0  0  0  0  0  0  0  0  0  0
    8.6940    1.6840   20.9030 O   0  0  0  0  0  0  0  0  0  0  0  0
    7.2330   -0.0950   21.1300 N   0  0  0  0  0  0  0  0  0  0  0  0
    6.5740    0.3140   20.0390 C   0  0  0  0  0  0  0  0  0  0  0  0
    5.4740    1.1260   20.2750 C   0  0  0  0  0  0  0  0  0  0  0  0
    4.7360    1.6290   19.2350 C   0  0  0  0  0  0  0  0  0  0  0  0
    5.1370    1.2940   17.9770 C   0  0  0  0  0  0  0  0  0  0  0  0
    6.1900    0.5020   17.6650 N   0  0  0  0  0  0  0  0  0  0  0  0
    6.9890   -0.0520   18.7560 C   0  0  0  0  0  0  0  0  0  0  0  0
   10.1600    0.6410   22.7950 C   0  0  0  0  0  0  0  0  0  0  0  0
   11.6310    0.8860   22.6600 C   0  0  0  0  0  0  0  0  0  0  0  0
   12.4470   -0.0970   22.7860 C   0  0  0  0  0  0  0  0  0  0  0  0
   13.7790    0.0540   22.6590 O   0  0  0  0  0  0  0  0  0  0  0  0
   13.5130   -2.7440   23.6450 C   0  0  0  0  0  0  0  0  0  0  0  0
   14.4240   -3.2900   23.2360 O   0  0  0  0  0  0  0  0  0  0  0  0
  2  1  1  0
  2  3  1  0
  2  4  1  0
  4  5  1  0
  5  6  1  0
  6  7  2  0
  7  8  1  0
  8  9  1  0
  9 10  1  0
 10 11  2  0
 10 12  1  0
 12 13  1  0
 13 14  2  0
 14 15  1  0
 15 16  2  0
 16 17  1  0
 13 18  1  0
 17 18  2  0
  8 19  2  0
 19 20  1  0
  6 21  1  0
 20 21  2  0
 21 22  1  0
  2 23  1  0
  5 23  1  0
 23 24  2  0
M  END
