pyridine_urea_6636
     RDKit          3D

 22 23  0  0  0  0  0  0  0  0999 V2000
   12.9790   -1.6710   22.7230 C   0  0  0  0  0  0  0  0  0  0  0  0
   12.5750   -0.1730   22.8890 C   0  0  0  0  0  0  0  0  0  0  0  0
   13.3930    0.8660   22.8080 C   0  0  0  0  0  0  0  0  0  0  0  0
   12.1340    1.6150   23.1120 C   0  0  0  0  0  0  0  0  0  0  0  0
   11.5210    0.0370   23.0600 C   0  0  0  0  0  0  0  0  0  0  0  0
   10.4460   -0.8830   23.1500 C   0  0  2  0  0  0  0  0  0  0  0  0
   10.3490   -1.5930   24.3410 C   0  0  0  0  0  0  0  0  0  0  0  0
   10.6160   -1.8960   22.0090 C   0  0  0  0  0  0  0  0  0  0  0  0
   11.6240   -1.7340   21.3520 O   0  0  0  0  0  0  0  0  0  0  0  0
    9.1930   -0.3130   22.8990 N   0  0  0  0  0  0  0  0  0  0  0  0
    8.6940    0.2540   21.7040 C   0  0  0  0  0  0  0  0  0  0  0  0
    9.1550    1.3040   21.2380 O   0  0  0  0  0  0  0  0  0  0  0  0
    7.6220   -0.4380   21.1370 N   0  0  0  0  0  0  0  0  0  0  0  0
    6.7470    0.1140   20.1650 C   0  0  0  0  0  0  0  0  0  0  0  0
    5.5890    0.8920   20.4580 C   0  0  0  0  0  0  0  0  0  0  0  0
    4.7110    1.4750   19.4800 C   0  0  0  0  0  0  0  0  0  0  0  0
    5.1720    1.1600   18.0680 C   0  0  0  0  0  0  0  0  0  0  0  0
    6.2650    0.4140   17.8040 N   0  0  0  0  0  0  0  0  0  0  0  0
    7.0380   -0.1050   18.8290 C   0  0  0  0  0  0  0  0  0  0  0  0
   10.1310    0.5500   23.3930 C   0  0  0  0  0  0  0  0  0  0  0  0
   11.3530    0.9470   23.1920 C   0  0  0  0  0  0  0  0  0  0  0  0
   11.9730    2.1880   23.1680 C   0  0  0  0  0  0  0  0  0  0  0  0
  1  2  1  0
  2  3  2  0
  3  4  1  0
  4  5  2  0
  5  6  1  0
  6  7  1  1
  6  8  1  0
  8  9  1  0
  6 10  1  0
 10 11  1  0
 11 12  2  0
 11 13  1  0
 13 14  1  0
 14 15  2  0
 15 16  1  0
 16 17  2  0
 17 18  1  0
 14 19  1  0
 18 19  2  0
  5 20  1  0
  2 21  1  0
 20 21  2  0
 21 22  1  0
M  END
