pyridine_urea_1036
     RDKit          3D

 22 24  0  0  0  0  0  0  0  0999 V2000
    8.3470    1.0270   21.1330 O   0  0  0  0  0  0  0  0  0  0  0  0
    8.0950   -0.1110   21.5080 C   0  0  0  0  0  0  0  0  0  0  0  0
    6.9220   -0.8020   21.0330 N   0  0  0  0  0  0  0  0  0  0  0  0
    6.3070   -0.0950   20.0160 C   0  0  0  0  0  0  0  0  0  0  0  0
    5.1150    0.5980   20.2380 C   0  0  0  0  0  0  0  0  0  0  0  0
    4.5480    1.3080   19.1800 C   0  0  0  0  0  0  0  0  0  0  0  0
    5.1910    1.3020   17.9390 C   0  0  0  0  0  0  0  0  0  0  0  0
    6.3350    0.6350   17.7180 N   0  0  0  0  0  0  0  0  0  0  0  0
    6.8690   -0.0500   18.7570 C   0  0  0  0  0  0  0  0  0  0  0  0
    8.8600   -0.8330   22.3690 N   0  0  0  0  0  0  0  0  0  0  0  0
   10.1850   -0.2850   22.3840 C   0  0  2  0  0  0  0  0  0  0  0  0
   11.2430   -1.3200   22.1450 C   0  0  0  0  0  0  0  0  0  0  0  0
   12.3870   -0.6610   22.5120 C   0  0  0  0  0  0  0  0  0  0  0  0
   12.0700    0.4480   23.2090 N   0  0  0  0  0  0  0  0  0  0  0  0
   12.5660    0.3260   24.3910 C   0  0  0  0  0  0  0  0  0  0  0  0
   12.9900   -0.3760   25.5420 O   0  0  0  0  0  0  0  0  0  0  0  0
   12.2780   -0.9910   24.0830 C   0  0  0  0  0  0  0  0  0  0  0  0
   12.6270   -1.7270   25.1600 C   0  0  0  0  0  0  0  0  0  0  0  0
   13.3750   -2.7470   24.7360 C   0  0  0  0  0  0  0  0  0  0  0  0
   13.2820   -2.7040   23.3770 C   0  0  0  0  0  0  0  0  0  0  0  0
   13.0190   -1.4070   22.9590 C   0  0  0  0  0  0  0  0  0  0  0  0
   10.6190    0.5890   23.3610 C   0  0  0  0  0  0  0  0  0  0  0  0
  1  2  2  0
  2  3  1  0
  3  4  1  0
  4  5  2  0
  5  6  1  0
  6  7  2  0
  7  8  1  0
  4  9  1  0
  8  9  2  0
  2 10  1  0
 11 10  1  1
 11 12  1  0
 12 13  1  0
 13 14  1  0
 14 15  1  0
 15 16  2  0
 15 17  1  0
 17 18  1  0
 18 19  1  0
 19 20  1  0
 17 21  1  0
 20 21  1  0
 11 22  1  0
 14 22  1  0
M  END
