pyridine_urea_13401
     RDKit          3D

 20 22  0  0  0  0  0  0  0  0999 V2000
    8.4440    0.4470   21.2550 O   0  0  0  0  0  0  0  0  0  0  0  0
    7.7830   -0.5800   21.4170 C   0  0  0  0  0  0  0  0  0  0  0  0
    6.6030   -0.8740   20.8550 N   0  0  0  0  0  0  0  0  0  0  0  0
    6.0370   -0.0500   19.9130 C   0  0  0  0  0  0  0  0  0  0  0  0
    4.7720    0.7720   20.1590 C   0  0  0  0  0  0  0  0  0  0  0  0
    4.3540    1.6130   18.9660 C   0  0  0  0  0  0  0  0  0  0  0  0
    5.2010    1.5350   17.7400 C   0  0  0  0  0  0  0  0  0  0  0  0
    6.3010    0.7650   17.6360 N   0  0  0  0  0  0  0  0  0  0  0  0
    6.6760    0.0210   18.6910 C   0  0  0  0  0  0  0  0  0  0  0  0
    8.1920   -1.5830   22.2180 N   0  0  0  0  0  0  0  0  0  0  0  0
    9.4910   -1.3210   22.5880 C   0  0  0  0  0  0  0  0  0  0  0  0
   10.5190   -1.6250   21.7490 C   0  0  0  0  0  0  0  0  0  0  0  0
   11.8050   -1.5720   21.5960 N   0  0  0  0  0  0  0  0  0  0  0  0
   12.0660   -0.9500   22.7610 C   0  0  0  0  0  0  0  0  0  0  0  0
   11.1420   -0.6040   23.7460 C   0  0  0  0  0  0  0  0  0  0  0  0
    9.7630   -0.7310   23.8030 C   0  0  0  0  0  0  0  0  0  0  0  0
   12.0430   -0.0350   24.8110 C   0  0  0  0  0  0  0  0  0  0  0  0
   13.2180   -0.5960   24.5660 N   0  0  0  0  0  0  0  0  0  0  0  0
   13.2750   -0.4790   23.2870 C   0  0  0  0  0  0  0  0  0  0  0  0
   14.1000    0.0270   22.6440 O   0  0  0  0  0  0  0  0  0  0  0  0
  1  2  2  0
  2  3  1  0
  3  4  1  0
  4  5  2  0
  5  6  1  0
  6  7  2  0
  7  8  1  0
  4  9  1  0
  8  9  2  0
  2 10  1  0
 10 11  1  0
 11 12  2  0
 12 13  1  0
 13 14  2  0
 14 15  1  0
 11 16  1  0
 15 16  2  0
 15 17  1  0
 17 18  1  0
 14 19  1  0
 18 19  1  0
 19 20  2  0
M  END
