pyridine_urea_14188
     RDKit          3D

 22 23  0  0  0  0  0  0  0  0999 V2000
   13.5200   -1.2960   24.2350 C   0  0  0  0  0  0  0  0  0  0  0  0
   13.8140   -0.2590   23.2400 O   0  0  0  0  0  0  0  0  0  0  0  0
   12.5710   -0.0610   23.0480 C   0  0  0  0  0  0  0  0  0  0  0  0
   11.8270    1.0270   23.3130 C   0  0  0  0  0  0  0  0  0  0  0  0
   10.4470    0.9810   23.1270 C   0  0  0  0  0  0  0  0  0  0  0  0
    9.8290   -0.1680   22.6590 C   0  0  0  0  0  0  0  0  0  0  0  0
    8.4880   -0.4020   22.4540 N   0  0  0  0  0  0  0  0  0  0  0  0
    8.0480    0.2310   21.3790 C   0  0  0  0  0  0  0  0  0  0  0  0
    8.5250    1.2850   20.9490 O   0  0  0  0  0  0  0  0  0  0  0  0
    7.0010   -0.4270   20.8290 N   0  0  0  0  0  0  0  0  0  0  0  0
    6.2970    0.2120   19.8580 C   0  0  0  0  0  0  0  0  0  0  0  0
    4.9790    0.9260   20.0160 C   0  0  0  0  0  0  0  0  0  0  0  0
    4.4090    1.5500   18.9470 C   0  0  0  0  0  0  0  0  0  0  0  0
    5.1040    1.4860   17.7390 C   0  0  0  0  0  0  0  0  0  0  0  0
    6.2800    0.8420   17.5690 N   0  0  0  0  0  0  0  0  0  0  0  0
    6.8380    0.2280   18.6130 C   0  0  0  0  0  0  0  0  0  0  0  0
   10.6300   -1.3430   22.2990 C   0  0  0  0  0  0  0  0  0  0  0  0
   11.9260   -1.2710   22.4820 C   0  0  0  0  0  0  0  0  0  0  0  0
   12.8480   -2.5620   22.0470 S   0  0  0  0  0  0  0  0  0  0  0  0
   13.5950   -1.5770   20.8430 C   0  0  0  0  0  0  0  0  0  0  0  0
   13.7340   -3.0400   23.0720 O   0  0  0  0  0  0  0  0  0  0  0  0
   12.0290   -3.3230   21.2180 O   0  0  0  0  0  0  0  0  0  0  0  0
  1  2  1  0
  2  3  1  0
  3  4  2  0
  4  5  1  0
  5  6  2  0
  6  7  1  0
  7  8  1  0
  8  9  2  0
  8 10  1  0
 10 11  1  0
 11 12  2  0
 12 13  1  0
 13 14  2  0
 14 15  1  0
 11 16  1  0
 15 16  2  0
  6 17  1  0
  3 18  1  0
 17 18  2  0
 18 19  1  0
 19 20  1  0
 19 21  2  0
 19 22  2  0
M  END
