pyridine_urea_6017
     RDKit          3D

 26 28  0  0  0  0  0  0  0  0999 V2000
    8.5530    0.6380   21.1500 O   0  0  0  0  0  0  0  0  0  0  0  0
    7.9170   -0.3210   21.5690 C   0  0  0  0  0  0  0  0  0  0  0  0
    6.6300   -0.6890   21.0530 N   0  0  0  0  0  0  0  0  0  0  0  0
    6.1520    0.0090   19.9800 C   0  0  0  0  0  0  0  0  0  0  0  0
    4.9860    0.7480   20.1260 C   0  0  0  0  0  0  0  0  0  0  0  0
    4.5170    1.4600   19.0320 C   0  0  0  0  0  0  0  0  0  0  0  0
    5.2320    1.4070   17.8340 C   0  0  0  0  0  0  0  0  0  0  0  0
    6.3590    0.6910   17.6870 N   0  0  0  0  0  0  0  0  0  0  0  0
    6.8000    0.0020   18.7640 C   0  0  0  0  0  0  0  0  0  0  0  0
    8.2620   -1.1680   22.5640 N   0  0  0  0  0  0  0  0  0  0  0  0
    9.4360   -0.8100   23.2680 C   0  0  0  0  0  0  0  0  0  0  0  0
    9.4790   -0.5360   24.7140 C   0  0  0  0  0  0  0  0  0  0  0  0
   10.6800   -0.2080   25.2450 C   0  0  0  0  0  0  0  0  0  0  0  0
   11.8730   -0.1030   24.5040 C   0  0  0  0  0  0  0  0  0  0  0  0
   11.9940   -0.3230   23.1340 C   0  0  0  0  0  0  0  0  0  0  0  0
   12.9930   -0.2720   22.3400 C   0  0  0  0  0  0  0  0  0  0  0  0
   14.0050    0.3570   22.4870 O   0  0  0  0  0  0  0  0  0  0  0  0
   12.5880   -1.0090   21.4440 O   0  0  0  0  0  0  0  0  0  0  0  0
   13.5660   -1.2600   20.5100 C   0  0  0  0  0  0  0  0  0  0  0  0
   13.7530   -2.3620   20.7810 C   0  0  0  0  0  0  0  0  0  0  0  0
   14.4580   -3.2930   20.0060 C   0  0  0  0  0  0  0  0  0  0  0  0
   14.8830   -4.4930   20.2840 C   0  0  0  0  0  0  0  0  0  0  0  0
   14.6240   -4.6610   21.3350 C   0  0  0  0  0  0  0  0  0  0  0  0
   13.7570   -3.5950   22.2640 C   0  0  0  0  0  0  0  0  0  0  0  0
   13.3330   -2.5120   21.9250 C   0  0  0  0  0  0  0  0  0  0  0  0
   10.6790   -0.7040   22.4940 C   0  0  0  0  0  0  0  0  0  0  0  0
  1  2  2  0
  2  3  1  0
  3  4  1  0
  4  5  2  0
  5  6  1  0
  6  7  2  0
  7  8  1  0
  4  9  1  0
  8  9  2  0
  2 10  1  0
 10 11  1  0
 11 12  2  0
 12 13  1  0
 13 14  2  0
 14 15  1  0
 15 16  1  0
 16 17  2  0
 16 18  1  0
 18 19  1  0
 19 20  1  0
 20 21  2  0
 21 22  1  0
 22 23  2  0
 23 24  1  0
 20 25  1  0
 24 25  2  0
 11 26  1  0
 15 26  2  0
M  END
