pyridine_urea_12564
     RDKit          3D

 21 22  0  0  0  0  0  0  0  0999 V2000
   11.8450   -2.3860   21.2710 C   0  0  0  0  0  0  0  0  0  0  0  0
   13.2870   -1.6670   21.8880 S   0  0  0  0  0  0  0  0  0  0  0  0
   13.9440   -1.1360   20.7270 O   0  0  0  0  0  0  0  0  0  0  0  0
   13.8170   -2.5390   22.9070 O   0  0  0  0  0  0  0  0  0  0  0  0
   12.3400   -0.5020   22.6800 C   0  0  0  0  0  0  0  0  0  0  0  0
   12.5470    0.9240   23.0840 C   0  0  0  0  0  0  0  0  0  0  0  0
   11.4970    1.5630   23.7070 C   0  0  0  0  0  0  0  0  0  0  0  0
   10.0600    1.0420   24.0920 C   0  0  0  0  0  0  0  0  0  0  0  0
    8.9250    0.2630   24.2760 C   0  0  0  0  0  0  0  0  0  0  0  0
    7.9060    0.3120   23.1790 N   0  0  0  0  0  0  0  0  0  0  0  0
    8.2610    0.4180   21.7540 C   0  0  0  0  0  0  0  0  0  0  0  0
    9.0340    1.2610   21.2910 O   0  0  0  0  0  0  0  0  0  0  0  0
    7.5180   -0.5750   21.0290 N   0  0  0  0  0  0  0  0  0  0  0  0
    6.7240    0.0410   20.0700 C   0  0  0  0  0  0  0  0  0  0  0  0
    5.4830    0.8090   20.5070 C   0  0  0  0  0  0  0  0  0  0  0  0
    4.6760    1.4690   19.4130 C   0  0  0  0  0  0  0  0  0  0  0  0
    5.1690    1.3060   18.0000 C   0  0  0  0  0  0  0  0  0  0  0  0
    6.2720    0.5990   17.7120 N   0  0  0  0  0  0  0  0  0  0  0  0
    6.9930    0.0080   18.7100 C   0  0  0  0  0  0  0  0  0  0  0  0
   10.1610   -0.2810   23.6150 C   0  0  0  0  0  0  0  0  0  0  0  0
   11.1380   -0.9820   22.9950 C   0  0  0  0  0  0  0  0  0  0  0  0
  2  1  1  0
  2  3  2  0
  2  4  2  0
  2  5  1  0
  5  6  2  0
  6  7  1  0
  7  8  2  0
  8  9  1  0
  9 10  1  0
 10 11  1  0
 11 12  2  0
 11 13  1  0
 13 14  1  0
 14 15  2  0
 15 16  1  0
 16 17  2  0
 17 18  1  0
 14 19  1  0
 18 19  2  0
  8 20  1  0
  5 21  1  0
 20 21  2  0
M  END
