pyridine_urea_11318
     RDKit          3D

 18 19  0  0  0  0  0  0  0  0999 V2000
   10.6740   -0.4330   25.5610 C   0  0  0  0  0  0  0  0  0  0  0  0
   11.6810   -0.5030   24.9150 C   0  0  0  0  0  0  0  0  0  0  0  0
   12.6020   -0.6480   23.7300 C   0  0  2  0  0  0  0  0  0  0  0  0
   12.7130    0.3540   22.8580 C   0  0  0  0  0  0  0  0  0  0  0  0
   11.7190   -0.6070   22.4090 C   0  0  1  0  0  0  0  0  0  0  0  0
   11.8880   -2.1200   22.2060 C   0  0  0  0  0  0  0  0  0  0  0  0
   12.6840   -2.7710   22.8630 O   0  0  0  0  0  0  0  0  0  0  0  0
   10.4820   -0.0210   22.6200 C   0  0  0  0  0  0  0  0  0  0  0  0
    9.3700   -0.7080   22.0000 N   0  0  0  0  0  0  0  0  0  0  0  0
    8.4740    0.1040   21.3530 C   0  0  0  0  0  0  0  0  0  0  0  0
    8.7370    1.2860   21.1090 O   0  0  0  0  0  0  0  0  0  0  0  0
    7.3020   -0.5150   21.0030 N   0  0  0  0  0  0  0  0  0  0  0  0
    6.4780    0.1030   20.0590 C   0  0  0  0  0  0  0  0  0  0  0  0
    5.2910    0.7850   20.3240 C   0  0  0  0  0  0  0  0  0  0  0  0
    4.6400    1.3560   19.2450 C   0  0  0  0  0  0  0  0  0  0  0  0
    5.1350    1.2580   17.9760 C   0  0  0  0  0  0  0  0  0  0  0  0
    6.2590    0.6040   17.6860 N   0  0  0  0  0  0  0  0  0  0  0  0
    6.8970    0.0450   18.7330 C   0  0  0  0  0  0  0  0  0  0  0  0
  1  2  2  3
  3  2  1  1
  3  4  1  0
  3  5  1  0
  4  5  1  0
  5  6  1  6
  6  7  1  0
  5  8  1  0
  8  9  1  0
  9 10  1  0
 10 11  2  0
 10 12  1  0
 12 13  1  0
 13 14  2  0
 14 15  1  0
 15 16  2  0
 16 17  1  0
 13 18  1  0
 17 18  2  0
M  END
