pyridine_urea_2785
     RDKit          3D

 22 23  0  0  0  0  0  0  0  0999 V2000
    8.6310    1.0790   21.0120 O   0  0  0  0  0  0  0  0  0  0  0  0
    8.0540    0.0230   21.3260 C   0  0  0  0  0  0  0  0  0  0  0  0
    7.0340   -0.6060   20.6840 N   0  0  0  0  0  0  0  0  0  0  0  0
    6.3230    0.1460   19.7380 C   0  0  0  0  0  0  0  0  0  0  0  0
    4.9570    0.7920   20.1030 C   0  0  0  0  0  0  0  0  0  0  0  0
    4.3540    1.5190   19.0950 C   0  0  0  0  0  0  0  0  0  0  0  0
    5.1040    1.5920   17.7600 C   0  0  0  0  0  0  0  0  0  0  0  0
    6.2900    0.9950   17.5220 N   0  0  0  0  0  0  0  0  0  0  0  0
    6.8490    0.3000   18.5090 C   0  0  0  0  0  0  0  0  0  0  0  0
    8.2540   -0.7660   22.3700 N   0  0  0  0  0  0  0  0  0  0  0  0
    9.5470   -1.0360   22.8480 C   0  0  0  0  0  0  0  0  0  0  0  0
   10.6800   -1.2010   21.9130 C   0  0  0  0  0  0  0  0  0  0  0  0
   11.9310   -1.5090   22.6430 C   0  0  0  0  0  0  0  0  0  0  0  0
   13.0900   -1.7480   21.8420 C   0  0  0  0  0  0  0  0  0  0  0  0
   13.7320   -0.6850   21.4590 F   0  0  0  0  0  0  0  0  0  0  0  0
   13.0160   -2.5220   20.7690 F   0  0  0  0  0  0  0  0  0  0  0  0
   13.8440   -2.4340   22.7110 F   0  0  0  0  0  0  0  0  0  0  0  0
   12.0080   -1.5900   23.9910 C   0  0  0  0  0  0  0  0  0  0  0  0
   13.4030   -1.9630   24.8950 Cl  0  0  0  0  0  0  0  0  0  0  0  0
   10.8010   -1.3790   24.7680 C   0  0  0  0  0  0  0  0  0  0  0  0
    9.6220   -1.1300   24.1620 C   0  0  0  0  0  0  0  0  0  0  0  0
    8.4140   -0.9590   24.7710 O   0  0  0  0  0  0  0  0  0  0  0  0
  1  2  2  0
  2  3  1  0
  3  4  1  0
  4  5  2  0
  5  6  1  0
  6  7  2  0
  7  8  1  0
  4  9  1  0
  8  9  2  0
  2 10  1  0
 10 11  1  0
 11 12  2  0
 12 13  1  0
 13 14  1  0
 14 15  1  0
 14 16  1  0
 14 17  1  0
 13 18  2  0
 18 19  1  0
 18 20  1  0
 11 21  1  0
 20 21  2  0
 21 22  1  0
M  END
