pyridine_urea_920
     RDKit          3D

 22 24  0  0  0  0  0  0  0  0999 V2000
    9.0250    1.2560   21.2180 O   0  0  0  0  0  0  0  0  0  0  0  0
    8.5710    0.1480   21.5340 C   0  0  0  0  0  0  0  0  0  0  0  0
    9.1960   -0.6630   22.5690 N   0  0  0  0  0  0  0  0  0  0  0  0
    9.3840   -2.0220   22.3370 C   0  0  0  0  0  0  0  0  0  0  0  0
    8.7870   -2.8660   23.2730 C   0  0  0  0  0  0  0  0  0  0  0  0
    8.1760   -4.0710   22.9800 C   0  0  0  0  0  0  0  0  0  0  0  0
    7.7230   -4.5760   24.1420 C   0  0  0  0  0  0  0  0  0  0  0  0
    7.9990   -3.7760   25.1540 N   0  0  0  0  0  0  0  0  0  0  0  0
    7.6490   -4.0470   26.4350 C   0  0  0  0  0  0  0  0  0  0  0  0
    6.1520   -4.3070   26.4410 C   0  0  0  0  0  0  0  0  0  0  0  0
    5.8980   -5.4190   27.4640 C   0  0  0  0  0  0  0  0  0  0  0  0
    6.8020   -5.3200   28.5140 C   0  0  0  0  0  0  0  0  0  0  0  0
    8.1120   -5.5720   28.0810 C   0  0  0  0  0  0  0  0  0  0  0  0
    8.3200   -5.2170   26.7640 C   0  0  0  0  0  0  0  0  0  0  0  0
    8.6920   -2.6490   24.6640 N   0  0  0  0  0  0  0  0  0  0  0  0
    7.4500   -0.4590   21.0080 N   0  0  0  0  0  0  0  0  0  0  0  0
    6.5940    0.1470   20.0790 C   0  0  0  0  0  0  0  0  0  0  0  0
    5.4360    0.8500   20.3900 C   0  0  0  0  0  0  0  0  0  0  0  0
    4.7340    1.3990   19.3320 C   0  0  0  0  0  0  0  0  0  0  0  0
    5.1580    1.2560   18.0360 C   0  0  0  0  0  0  0  0  0  0  0  0
    6.2560    0.5800   17.6980 N   0  0  0  0  0  0  0  0  0  0  0  0
    6.9410    0.0440   18.7320 C   0  0  0  0  0  0  0  0  0  0  0  0
  1  2  2  0
  2  3  1  0
  3  4  1  0
  4  5  1  0
  5  6  1  0
  6  7  2  0
  7  8  1  0
  8  9  1  0
  9 10  1  0
 10 11  1  0
 11 12  1  0
 12 13  1  0
  9 14  1  0
 13 14  1  0
  5 15  2  0
  8 15  1  0
  2 16  1  0
 16 17  1  0
 17 18  2  0
 18 19  1  0
 19 20  2  0
 20 21  1  0
 17 22  1  0
 21 22  2  0
M  END
