pyridine_urea_3917
     RDKit          3D

 21 23  0  0  0  0  0  0  0  0999 V2000
    8.8640    1.0510   21.4630 O   0  0  0  0  0  0  0  0  0  0  0  0
    8.5510   -0.1250   21.4400 C   0  0  0  0  0  0  0  0  0  0  0  0
    7.3110   -0.5970   21.0830 N   0  0  0  0  0  0  0  0  0  0  0  0
    6.5710    0.0130   20.0610 C   0  0  0  0  0  0  0  0  0  0  0  0
    5.4020    0.7180   20.3730 C   0  0  0  0  0  0  0  0  0  0  0  0
    4.6770    1.3430   19.3550 C   0  0  0  0  0  0  0  0  0  0  0  0
    5.1450    1.2390   18.0620 C   0  0  0  0  0  0  0  0  0  0  0  0
    6.2540    0.5630   17.7360 N   0  0  0  0  0  0  0  0  0  0  0  0
    6.9390   -0.0330   18.7350 C   0  0  0  0  0  0  0  0  0  0  0  0
    9.4640   -1.1090   21.7260 N   0  0  0  0  0  0  0  0  0  0  0  0
   10.7120   -0.7280   22.4110 C   0  0  2  0  0  0  0  0  0  0  0  0
   11.7720   -1.7830   22.0830 C   0  0  0  0  0  0  0  0  0  0  0  0
   12.7590   -1.7900   23.0480 C   0  0  0  0  0  0  0  0  0  0  0  0
   12.2600   -2.2190   24.1120 O   0  0  0  0  0  0  0  0  0  0  0  0
   11.0010   -1.7360   24.3690 C   0  0  0  0  0  0  0  0  0  0  0  0
   10.7090   -0.5130   23.7780 C   0  0  0  0  0  0  0  0  0  0  0  0
    9.5020    0.0220   24.2750 C   0  0  0  0  0  0  0  0  0  0  0  0
    9.4570    1.4040   24.5290 C   0  0  0  0  0  0  0  0  0  0  0  0
   10.3690    2.1080   23.5330 C   0  0  0  0  0  0  0  0  0  0  0  0
   11.7680    1.5490   23.3820 C   0  0  0  0  0  0  0  0  0  0  0  0
   11.8410    0.3100   23.9110 C   0  0  0  0  0  0  0  0  0  0  0  0
  1  2  2  0
  2  3  1  0
  3  4  1  0
  4  5  2  0
  5  6  1  0
  6  7  2  0
  7  8  1  0
  4  9  1  0
  8  9  2  0
  2 10  1  0
 11 10  1  1
 11 12  1  0
 12 13  1  0
 13 14  1  0
 14 15  1  0
 11 16  1  0
 16 15  1  0
 16 17  1  0
 17 18  1  0
 18 19  1  0
 19 20  1  0
 16 21  1  0
 20 21  1  0
M  END
