pyridine_urea_7700
     RDKit          3D

 16 17  0  0  0  0  0  0  0  0999 V2000
   13.5990    0.4610   22.7110 C   0  0  0  0  0  0  0  0  0  0  0  0
   12.0640    1.2470   23.1040 S   0  0  0  0  0  0  0  0  0  0  0  0
   11.4620   -0.4140   23.3910 C   0  0  2  0  0  0  0  0  0  0  0  0
   10.7930   -0.9650   22.3410 C   0  0  0  0  0  0  0  0  0  0  0  0
    9.7760   -1.1550   23.1890 C   0  0  2  0  0  0  0  0  0  0  0  0
    8.5690   -0.4090   22.8070 N   0  0  0  0  0  0  0  0  0  0  0  0
    8.3140    0.0870   21.5670 C   0  0  0  0  0  0  0  0  0  0  0  0
    8.8910    1.1080   21.1600 O   0  0  0  0  0  0  0  0  0  0  0  0
    7.3850   -0.6250   20.8940 N   0  0  0  0  0  0  0  0  0  0  0  0
    6.5790    0.0510   20.0460 C   0  0  0  0  0  0  0  0  0  0  0  0
    5.4220    0.7600   20.3780 C   0  0  0  0  0  0  0  0  0  0  0  0
    4.6690    1.4630   19.2570 C   0  0  0  0  0  0  0  0  0  0  0  0
    5.1820    1.3570   17.9670 C   0  0  0  0  0  0  0  0  0  0  0  0
    6.2930    0.6600   17.6900 N   0  0  0  0  0  0  0  0  0  0  0  0
    6.9300    0.0480   18.7100 C   0  0  0  0  0  0  0  0  0  0  0  0
   10.4520   -0.4810   24.3890 C   0  0  0  0  0  0  0  0  0  0  0  0
  1  2  1  0
  3  2  1  6
  3  4  1  0
  4  5  1  0
  5  6  1  6
  6  7  1  0
  7  8  2  0
  7  9  1  0
  9 10  1  0
 10 11  2  0
 11 12  1  0
 12 13  2  0
 13 14  1  0
 10 15  1  0
 14 15  2  0
  3 16  1  0
  5 16  1  0
M  END
