pyridine_urea_484
     RDKit          3D

 25 27  0  0  0  0  0  0  0  0999 V2000
   13.1250    4.9740   21.5070 C   0  0  0  0  0  0  0  0  0  0  0  0
   13.0330    4.5060   22.6150 O   0  0  0  0  0  0  0  0  0  0  0  0
   11.8730    4.8150   23.2320 C   0  0  0  0  0  0  0  0  0  0  0  0
   11.6730    6.1530   23.6050 C   0  0  0  0  0  0  0  0  0  0  0  0
   10.5060    6.5860   24.2490 C   0  0  0  0  0  0  0  0  0  0  0  0
    9.5320    5.6470   24.5160 C   0  0  0  0  0  0  0  0  0  0  0  0
    9.6480    4.3040   24.1810 C   0  0  0  0  0  0  0  0  0  0  0  0
   10.9250    3.8140   23.4730 C   0  0  0  0  0  0  0  0  0  0  0  0
   11.0980    2.4680   23.1240 C   0  0  0  0  0  0  0  0  0  0  0  0
   12.4820    2.0110   22.9000 N   0  0  0  0  0  0  0  0  0  0  0  0
   12.2810    0.6590   22.6320 O   0  0  0  0  0  0  0  0  0  0  0  0
   10.8650    0.4470   22.7090 C   0  0  0  0  0  0  0  0  0  0  0  0
   10.4880   -0.8740   22.4630 C   0  0  1  0  0  0  0  0  0  0  0  0
   10.8920   -1.7500   23.4860 C   0  0  0  0  0  0  0  0  0  0  0  0
    9.1050   -0.9190   22.3330 N   0  0  0  0  0  0  0  0  0  0  0  0
    8.3580   -0.0100   21.4460 C   0  0  0  0  0  0  0  0  0  0  0  0
    8.7610    1.1050   21.0930 O   0  0  0  0  0  0  0  0  0  0  0  0
    7.1730   -0.5620   21.0800 N   0  0  0  0  0  0  0  0  0  0  0  0
    6.5380    0.0410   20.0500 C   0  0  0  0  0  0  0  0  0  0  0  0
    5.3810    0.7850   20.3210 C   0  0  0  0  0  0  0  0  0  0  0  0
    4.7060    1.4280   19.2800 C   0  0  0  0  0  0  0  0  0  0  0  0
    5.1920    1.3220   17.9930 C   0  0  0  0  0  0  0  0  0  0  0  0
    6.2880    0.6180   17.6870 N   0  0  0  0  0  0  0  0  0  0  0  0
    6.9490   -0.0190   18.7370 C   0  0  0  0  0  0  0  0  0  0  0  0
   10.1450    1.5220   22.9950 N   0  0  0  0  0  0  0  0  0  0  0  0
  1  2  1  0
  2  3  1  0
  3  4  2  0
  4  5  1  0
  5  6  2  0
  6  7  1  0
  3  8  1  0
  7  8  2  0
  8  9  1  0
  9 10  2  0
 10 11  1  0
 11 12  1  0
 12 13  1  0
 13 14  1  1
 13 15  1  0
 15 16  1  0
 16 17  2  0
 16 18  1  0
 18 19  1  0
 19 20  2  0
 20 21  1  0
 21 22  2  0
 22 23  1  0
 19 24  1  0
 23 24  2  0
  9 25  1  0
 12 25  2  0
M  END
