pyridine_urea_647
     RDKit          3D

 24 25  0  0  0  0  0  0  0  0999 V2000
    8.7100   -2.0210   25.3690 C   0  0  0  0  0  0  0  0  0  0  0  0
    9.7350   -1.3760   25.5520 O   0  0  0  0  0  0  0  0  0  0  0  0
    9.6800   -0.0250   25.3500 C   0  0  0  0  0  0  0  0  0  0  0  0
    9.3520    0.7260   26.2570 O   0  0  0  0  0  0  0  0  0  0  0  0
    9.9830    0.3940   24.0260 C   0  0  2  0  0  0  0  0  0  0  0  0
    9.8440   -0.7030   23.1590 C   0  0  0  0  0  0  0  0  0  0  0  0
    8.4540   -0.7740   22.7080 N   0  0  0  0  0  0  0  0  0  0  0  0
    8.0440   -0.1070   21.5480 C   0  0  0  0  0  0  0  0  0  0  0  0
    8.6550    1.1260   21.0680 O   0  0  0  0  0  0  0  0  0  0  0  0
    7.0140   -0.7470   20.9700 N   0  0  0  0  0  0  0  0  0  0  0  0
    6.4490   -0.0700   19.9720 C   0  0  0  0  0  0  0  0  0  0  0  0
    5.1620    0.7520   20.1610 C   0  0  0  0  0  0  0  0  0  0  0  0
    4.5560    1.4740   19.1380 C   0  0  0  0  0  0  0  0  0  0  0  0
    5.1830    1.4240   17.8890 C   0  0  0  0  0  0  0  0  0  0  0  0
    6.3340    0.6870   17.7020 N   0  0  0  0  0  0  0  0  0  0  0  0
    6.9630   -0.0480   18.7060 C   0  0  0  0  0  0  0  0  0  0  0  0
   11.2420    1.0400   23.7520 C   0  0  0  0  0  0  0  0  0  0  0  0
   12.3360    0.1340   23.4700 C   0  0  0  0  0  0  0  0  0  0  0  0
   13.1290   -0.8960   22.9590 C   0  0  0  0  0  0  0  0  0  0  0  0
   12.8810   -1.8820   22.0500 C   0  0  0  0  0  0  0  0  0  0  0  0
   11.7450   -2.0490   21.4250 C   0  0  0  0  0  0  0  0  0  0  0  0
   10.8420   -1.1360   21.7630 C   0  0  0  0  0  0  0  0  0  0  0  0
   11.1540   -0.1420   22.7010 C   0  0  0  0  0  0  0  0  0  0  0  0
   10.1120    0.7520   22.9050 C   0  0  0  0  0  0  0  0  0  0  0  0
  1  2  1  0
  2  3  1  0
  3  4  2  0
  3  5  1  0
  5  6  1  6
  6  7  1  0
  7  8  1  0
  8  9  2  0
  8 10  1  0
 10 11  1  0
 11 12  2  0
 12 13  1  0
 13 14  2  0
 14 15  1  0
 11 16  1  0
 15 16  2  0
  5 17  1  0
 17 18  1  0
 18 19  2  0
 19 20  1  0
 20 21  2  0
 21 22  1  0
 18 23  1  0
 22 23  2  0
 23 24  1  0
M  END
