pyridine_urea_2764
     RDKit          3D

 22 23  0  0  0  0  0  0  0  0999 V2000
    8.8630    1.2280   21.2430 O   0  0  0  0  0  0  0  0  0  0  0  0
    8.1680    0.2850   21.6560 C   0  0  0  0  0  0  0  0  0  0  0  0
    8.2050   -0.1880   22.9600 N   0  0  0  0  0  0  0  0  0  0  0  0
    8.6800    0.6860   24.0340 C   0  0  0  0  0  0  0  0  0  0  0  0
   10.1960    0.8930   23.9130 C   0  0  0  0  0  0  0  0  0  0  0  0
   11.5240    0.6360   23.5990 C   0  0  0  0  0  0  0  0  0  0  0  0
   12.1270   -0.5880   22.9370 C   0  0  0  0  0  0  0  0  0  0  0  0
   13.3900   -0.6670   22.7130 C   0  0  0  0  0  0  0  0  0  0  0  0
   13.8640   -1.4490   23.7020 F   0  0  0  0  0  0  0  0  0  0  0  0
   13.9220    0.5650   22.7080 F   0  0  0  0  0  0  0  0  0  0  0  0
   13.6320   -1.2760   21.5220 F   0  0  0  0  0  0  0  0  0  0  0  0
   11.4580   -1.6590   22.5470 C   0  0  0  0  0  0  0  0  0  0  0  0
   10.0340   -1.6070   22.8040 C   0  0  0  0  0  0  0  0  0  0  0  0
    8.8730   -2.8100   22.4580 Cl  0  0  0  0  0  0  0  0  0  0  0  0
    9.5550   -0.4060   23.4250 N   0  0  0  0  0  0  0  0  0  0  0  0
    7.2470   -0.4260   20.9300 N   0  0  0  0  0  0  0  0  0  0  0  0
    6.4760    0.1690   20.0190 C   0  0  0  0  0  0  0  0  0  0  0  0
    5.1640    0.8710   20.3300 C   0  0  0  0  0  0  0  0  0  0  0  0
    4.4510    1.5140   19.1550 C   0  0  0  0  0  0  0  0  0  0  0  0
    5.1580    1.3610   17.8210 C   0  0  0  0  0  0  0  0  0  0  0  0
    6.3150    0.7010   17.6760 N   0  0  0  0  0  0  0  0  0  0  0  0
    6.9180    0.1460   18.7200 C   0  0  0  0  0  0  0  0  0  0  0  0
  1  2  2  0
  2  3  1  0
  3  4  1  0
  4  5  1  0
  5  6  2  0
  6  7  1  0
  7  8  1  0
  8  9  1  0
  8 10  1  0
  8 11  1  0
  7 12  2  0
 12 13  1  0
 13 14  1  0
  5 15  1  0
 13 15  2  0
  2 16  1  0
 16 17  1  0
 17 18  2  0
 18 19  1  0
 19 20  2  0
 20 21  1  0
 17 22  1  0
 21 22  2  0
M  END
