pyridine_urea_265
     RDKit          3D

 36 41  0  0  0  0  0  0  0  0999 V2000
    8.6020    0.9150   21.0420 O   0  0  0  0  0  0  0  0  0  0  0  0
    8.2490   -0.2400   21.2530 C   0  0  0  0  0  0  0  0  0  0  0  0
    6.9840   -0.6920   21.0020 N   0  0  0  0  0  0  0  0  0  0  0  0
    6.3600    0.0070   19.9300 C   0  0  0  0  0  0  0  0  0  0  0  0
    5.0490    0.7170   20.2320 C   0  0  0  0  0  0  0  0  0  0  0  0
    4.4720    1.4390   19.0680 C   0  0  0  0  0  0  0  0  0  0  0  0
    5.1510    1.4040   17.8630 C   0  0  0  0  0  0  0  0  0  0  0  0
    6.3100    0.7490   17.6600 N   0  0  0  0  0  0  0  0  0  0  0  0
    6.8750    0.0790   18.6710 C   0  0  0  0  0  0  0  0  0  0  0  0
    9.0560   -1.2070   21.7390 N   0  0  0  0  0  0  0  0  0  0  0  0
   10.2800   -0.8160   22.4170 C   0  0  0  0  0  0  0  0  0  0  0  0
   11.3670   -1.6280   22.3060 C   0  0  0  0  0  0  0  0  0  0  0  0
   12.5050   -1.0240   23.0780 C   0  0  0  0  0  0  0  0  0  0  0  0
   12.4830    0.1390   23.7890 C   0  0  0  0  0  0  0  0  0  0  0  0
   11.3550    0.9090   23.8580 C   0  0  0  0  0  0  0  0  0  0  0  0
   10.2480    0.4920   23.1980 C   0  0  0  0  0  0  0  0  0  0  0  0
    8.9610    1.3660   23.2020 C   0  0  0  0  0  0  0  0  0  0  0  0
    8.6110    0.4610   24.3490 C   0  0  0  0  0  0  0  0  0  0  0  0
    7.3880   -0.4640   24.2110 C   0  0  0  0  0  0  0  0  0  0  0  0
    6.1520   -0.0520   24.6880 C   0  0  0  0  0  0  0  0  0  0  0  0
    5.1510   -0.8930   24.5420 N   0  0  0  0  0  0  0  0  0  0  0  0
    5.6940   -2.0710   23.8760 C   0  0  0  0  0  0  0  0  0  0  0  0
    5.0660   -3.2460   23.4870 C   0  0  0  0  0  0  0  0  0  0  0  0
    5.8180   -4.2330   22.8670 C   0  0  0  0  0  0  0  0  0  0  0  0
    7.1830   -4.0390   22.6420 C   0  0  0  0  0  0  0  0  0  0  0  0
    7.8180   -2.8590   23.0270 C   0  0  0  0  0  0  0  0  0  0  0  0
    7.0930   -1.8150   23.6660 C   0  0  0  0  0  0  0  0  0  0  0  0
    8.1120    1.4390   25.4030 C   0  0  0  0  0  0  0  0  0  0  0  0
    7.5200    2.6740   25.1790 C   0  0  0  0  0  0  0  0  0  0  0  0
    7.1960    3.2430   26.3810 N   0  0  0  0  0  0  0  0  0  0  0  0
    7.5650    2.4110   27.4070 C   0  0  0  0  0  0  0  0  0  0  0  0
    7.4360    2.5740   28.7940 C   0  0  0  0  0  0  0  0  0  0  0  0
    7.9150    1.5480   29.6150 C   0  0  0  0  0  0  0  0  0  0  0  0
    8.4960    0.4100   29.0700 C   0  0  0  0  0  0  0  0  0  0  0  0
    8.6100    0.2720   27.6860 C   0  0  0  0  0  0  0  0  0  0  0  0
    8.1430    1.2780   26.8310 C   0  0  0  0  0  0  0  0  0  0  0  0
  1  2  2  0
  2  3  1  0
  3  4  1  0
  4  5  2  0
  5  6  1  0
  6  7  2  0
  7  8  1  0
  4  9  1  0
  8  9  2  0
  2 10  1  0
 10 11  1  0
 11 12  2  0
 12 13  1  0
 13 14  2  0
 14 15  1  0
 11 16  1  0
 15 16  2  0
 16 17  1  0
 17 18  1  0
 18 19  1  0
 19 20  2  0
 20 21  1  0
 21 22  1  0
 22 23  1  0
 23 24  2  0
 24 25  1  0
 25 26  2  0
 19 27  1  0
 22 27  2  0
 26 27  1  0
 18 28  1  0
 28 29  2  0
 29 30  1  0
 30 31  1  0
 31 32  1  0
 32 33  2  0
 33 34  1  0
 34 35  2  0
 28 36  1  0
 31 36  2  0
 35 36  1  0
M  END
