pyridine_urea_7082
     RDKit          3D

 20 20  0  0  0  0  0  0  0  0999 V2000
   13.0780   -2.0610   21.2570 C   0  0  0  0  0  0  0  0  0  0  0  0
   13.1110   -1.9350   22.7650 C   0  0  0  0  0  0  0  0  0  0  0  0
   11.9200   -1.3440   23.2600 O   0  0  0  0  0  0  0  0  0  0  0  0
   10.7440   -1.9160   22.8840 C   0  0  0  0  0  0  0  0  0  0  0  0
   11.3650   -2.9490   23.1090 O   0  0  0  0  0  0  0  0  0  0  0  0
   10.3190   -0.6060   22.7230 C   0  0  1  0  0  0  0  0  0  0  0  0
    8.8680   -0.6200   22.5950 N   0  0  0  0  0  0  0  0  0  0  0  0
    8.2830    0.0530   21.5270 C   0  0  0  0  0  0  0  0  0  0  0  0
    8.7850    1.3360   21.0800 O   0  0  0  0  0  0  0  0  0  0  0  0
    7.2240   -0.6180   21.0190 N   0  0  0  0  0  0  0  0  0  0  0  0
    6.5800    0.0090   20.0220 C   0  0  0  0  0  0  0  0  0  0  0  0
    5.3060    0.8390   20.2500 C   0  0  0  0  0  0  0  0  0  0  0  0
    4.6240    1.5050   19.2340 C   0  0  0  0  0  0  0  0  0  0  0  0
    5.1650    1.3880   17.9490 C   0  0  0  0  0  0  0  0  0  0  0  0
    6.3020    0.6450   17.7240 N   0  0  0  0  0  0  0  0  0  0  0  0
    7.0030   -0.0380   18.7200 C   0  0  0  0  0  0  0  0  0  0  0  0
   10.6330    0.2200   23.9630 C   0  0  1  0  0  0  0  0  0  0  0  0
   11.0270   -0.5790   25.1610 C   0  0  0  0  0  0  0  0  0  0  0  0
   11.5440    1.2010   23.5580 C   0  0  0  0  0  0  0  0  0  0  0  0
   12.8050    0.7420   23.1860 C   0  0  0  0  0  0  0  0  0  0  0  0
  1  2  1  0
  2  3  1  0
  3  4  1  0
  4  5  2  0
  4  6  1  0
  6  7  1  1
  7  8  1  0
  8  9  2  0
  8 10  1  0
 10 11  1  0
 11 12  2  0
 12 13  1  0
 13 14  2  0
 14 15  1  0
 11 16  1  0
 15 16  2  0
  6 17  1  0
 17 18  1  1
 17 19  1  0
 19 20  1  0
M  END
