pyridine_urea_4816
     RDKit          3D

 21 23  0  0  0  0  0  0  0  0999 V2000
    8.7110    1.1190   21.0620 O   0  0  0  0  0  0  0  0  0  0  0  0
    8.1870    0.0510   21.4220 C   0  0  0  0  0  0  0  0  0  0  0  0
    8.6930   -0.6620   22.4350 N   0  0  0  0  0  0  0  0  0  0  0  0
    9.5560    0.1000   23.2560 C   0  0  0  0  0  0  0  0  0  0  0  0
   10.2750   -0.7640   24.2520 C   0  0  2  0  0  0  0  0  0  0  0  0
   11.1760   -0.1290   24.9800 C   0  0  0  0  0  0  0  0  0  0  0  0
   12.4430   -0.4790   24.6530 C   0  0  0  0  0  0  0  0  0  0  0  0
   12.2600   -1.2180   23.5380 C   0  0  2  0  0  0  0  0  0  0  0  0
   13.1880   -2.1890   23.3110 C   0  0  0  0  0  0  0  0  0  0  0  0
   13.1640   -2.4280   21.9480 C   0  0  0  0  0  0  0  0  0  0  0  0
   11.8660   -2.4060   21.5220 C   0  0  0  0  0  0  0  0  0  0  0  0
   11.4230   -1.1290   21.6350 O   0  0  0  0  0  0  0  0  0  0  0  0
   12.1650   -0.3760   22.4810 C   0  0  0  0  0  0  0  0  0  0  0  0
   11.1210   -1.6860   23.5760 O   0  0  0  0  0  0  0  0  0  0  0  0
    7.0720   -0.5300   20.9210 N   0  0  0  0  0  0  0  0  0  0  0  0
    6.4100    0.1100   19.9100 C   0  0  0  0  0  0  0  0  0  0  0  0
    5.1650    0.8890   20.1620 C   0  0  0  0  0  0  0  0  0  0  0  0
    4.5300    1.5480   19.1480 C   0  0  0  0  0  0  0  0  0  0  0  0
    5.1240    1.4380   17.8680 C   0  0  0  0  0  0  0  0  0  0  0  0
    6.2370    0.7390   17.5840 N   0  0  0  0  0  0  0  0  0  0  0  0
    6.8280    0.1100   18.6150 C   0  0  0  0  0  0  0  0  0  0  0  0
  1  2  2  0
  2  3  1  0
  3  4  1  0
  5  4  1  6
  5  6  1  0
  6  7  1  0
  8  7  1  1
  8  9  1  0
  9 10  1  0
 10 11  1  0
 11 12  1  0
  8 13  1  0
 12 13  1  0
  5 14  1  0
  8 14  1  0
  2 15  1  0
 15 16  1  0
 16 17  2  0
 17 18  1  0
 18 19  2  0
 19 20  1  0
 16 21  1  0
 20 21  2  0
M  END
