pyridine_urea_14298
     RDKit          3D

 22 24  0  0  0  0  0  0  0  0999 V2000
    8.6600    0.2940   21.1780 O   0  0  0  0  0  0  0  0  0  0  0  0
    8.1240   -0.7930   20.9610 C   0  0  0  0  0  0  0  0  0  0  0  0
    6.6940   -0.8990   20.8640 N   0  0  0  0  0  0  0  0  0  0  0  0
    6.1500   -0.1030   19.8920 C   0  0  0  0  0  0  0  0  0  0  0  0
    4.9680    0.5940   20.1160 C   0  0  0  0  0  0  0  0  0  0  0  0
    4.4770    1.3930   19.0840 C   0  0  0  0  0  0  0  0  0  0  0  0
    5.1820    1.4600   17.8800 C   0  0  0  0  0  0  0  0  0  0  0  0
    6.3250    0.7820   17.6640 N   0  0  0  0  0  0  0  0  0  0  0  0
    6.7800    0.0170   18.6780 C   0  0  0  0  0  0  0  0  0  0  0  0
    8.7830   -1.9860   20.7950 N   0  0  0  0  0  0  0  0  0  0  0  0
    9.9550   -1.8290   21.4990 C   0  0  0  0  0  0  0  0  0  0  0  0
   11.4810   -1.8740   21.1400 C   0  0  0  0  0  0  0  0  0  0  0  0
   12.3550   -1.5740   21.9720 C   0  0  0  0  0  0  0  0  0  0  0  0
   11.8840   -1.2930   23.1050 C   0  0  0  0  0  0  0  0  0  0  0  0
   10.4480   -1.3230   23.5910 C   0  0  0  0  0  0  0  0  0  0  0  0
    9.8790   -1.0930   24.9070 N   0  0  0  0  0  0  0  0  0  0  0  0
    8.7200   -1.6360   25.5010 C   0  0  0  0  0  0  0  0  0  0  0  0
    8.2960   -2.9020   25.1390 C   0  0  0  0  0  0  0  0  0  0  0  0
    6.9100   -2.8960   25.0710 C   0  0  0  0  0  0  0  0  0  0  0  0
    6.4880   -1.5830   25.2850 C   0  0  0  0  0  0  0  0  0  0  0  0
    7.6260   -0.7700   25.4240 C   0  0  0  0  0  0  0  0  0  0  0  0
    9.5670   -1.5560   22.7980 C   0  0  0  0  0  0  0  0  0  0  0  0
  1  2  2  0
  2  3  1  0
  3  4  1  0
  4  5  2  0
  5  6  1  0
  6  7  2  0
  7  8  1  0
  4  9  1  0
  8  9  2  0
  2 10  1  0
 10 11  1  0
 11 12  2  0
 12 13  1  0
 13 14  2  0
 14 15  1  0
 15 16  1  0
 16 17  1  0
 17 18  1  0
 18 19  1  0
 19 20  1  0
 17 21  1  0
 20 21  1  0
 11 22  1  0
 15 22  2  0
M  END
