pyridine_urea_9178
     RDKit          3D

 19 19  0  0  0  0  0  0  0  0999 V2000
   12.2890    3.1530   22.6140 C   0  0  0  0  0  0  0  0  0  0  0  0
   12.0010    1.7560   22.6650 O   0  0  0  0  0  0  0  0  0  0  0  0
   11.5680    1.3210   23.8980 C   0  0  0  0  0  0  0  0  0  0  0  0
   10.5660    0.3600   23.9140 C   0  0  0  0  0  0  0  0  0  0  0  0
   10.4350   -0.4190   22.7800 C   0  0  2  0  0  0  0  0  0  0  0  0
    9.1420   -0.7430   22.3140 N   0  0  0  0  0  0  0  0  0  0  0  0
    8.3920    0.0440   21.4480 C   0  0  0  0  0  0  0  0  0  0  0  0
    8.7330    1.1760   21.0740 O   0  0  0  0  0  0  0  0  0  0  0  0
    7.2480   -0.5790   21.0780 N   0  0  0  0  0  0  0  0  0  0  0  0
    6.5650    0.0310   20.0780 C   0  0  0  0  0  0  0  0  0  0  0  0
    5.4040    0.7360   20.3930 C   0  0  0  0  0  0  0  0  0  0  0  0
    4.6510    1.4330   19.2440 C   0  0  0  0  0  0  0  0  0  0  0  0
    5.1850    1.3090   17.9850 C   0  0  0  0  0  0  0  0  0  0  0  0
    6.3030    0.6140   17.7310 N   0  0  0  0  0  0  0  0  0  0  0  0
    6.9510    0.0050   18.7520 C   0  0  0  0  0  0  0  0  0  0  0  0
   11.3350   -1.4720   22.7600 C   0  0  0  0  0  0  0  0  0  0  0  0
   10.8080   -2.7290   23.1980 O   0  0  0  0  0  0  0  0  0  0  0  0
   12.4640   -1.1900   22.3860 O   0  0  0  0  0  0  0  0  0  0  0  0
   12.9310   -2.0620   21.3560 C   0  0  0  0  0  0  0  0  0  0  0  0
  1  2  1  0
  2  3  1  0
  3  4  1  0
  5  4  1  1
  5  6  1  0
  6  7  1  0
  7  8  2  0
  7  9  1  0
  9 10  1  0
 10 11  2  0
 11 12  1  0
 12 13  2  0
 13 14  1  0
 10 15  1  0
 14 15  2  0
  5 16  1  0
 16 17  2  0
 16 18  1  0
 18 19  1  0
M  END
