pyridine_urea_14326
     RDKit          3D

 22 24  0  0  0  0  0  0  0  0999 V2000
    9.7300    4.6940   23.0670 C   0  0  0  0  0  0  0  0  0  0  0  0
   10.3520    3.3310   22.9820 C   0  0  0  0  0  0  0  0  0  0  0  0
    9.6520    2.1120   23.1220 N   0  0  0  0  0  0  0  0  0  0  0  0
   10.6610    1.2330   22.9640 C   0  0  0  0  0  0  0  0  0  0  0  0
   10.4000   -0.1460   23.0510 C   0  0  0  0  0  0  0  0  0  0  0  0
    9.0060   -0.4310   22.7100 N   0  0  0  0  0  0  0  0  0  0  0  0
    8.4630    0.1780   21.5870 C   0  0  0  0  0  0  0  0  0  0  0  0
    8.9430    1.2420   21.1870 O   0  0  0  0  0  0  0  0  0  0  0  0
    7.3900   -0.5030   21.0440 N   0  0  0  0  0  0  0  0  0  0  0  0
    6.5670    0.0970   20.0850 C   0  0  0  0  0  0  0  0  0  0  0  0
    5.2750    0.8340   20.3440 C   0  0  0  0  0  0  0  0  0  0  0  0
    4.5430    1.4430   19.1670 C   0  0  0  0  0  0  0  0  0  0  0  0
    5.1360    1.2650   17.9360 C   0  0  0  0  0  0  0  0  0  0  0  0
    6.2830    0.5930   17.7270 N   0  0  0  0  0  0  0  0  0  0  0  0
    6.9560    0.0360   18.7600 C   0  0  0  0  0  0  0  0  0  0  0  0
   11.2370   -0.9590   22.3110 C   0  0  0  0  0  0  0  0  0  0  0  0
   12.5740   -0.6610   22.4690 C   0  0  0  0  0  0  0  0  0  0  0  0
   12.8740   -0.8720   23.7870 C   0  0  0  0  0  0  0  0  0  0  0  0
   11.9690   -0.2440   24.6300 C   0  0  0  0  0  0  0  0  0  0  0  0
   10.6590   -0.6030   24.3260 C   0  0  0  0  0  0  0  0  0  0  0  0
   11.8060    1.9210   22.7580 N   0  0  0  0  0  0  0  0  0  0  0  0
   11.5520    3.1840   22.7810 O   0  0  0  0  0  0  0  0  0  0  0  0
  1  2  1  0
  2  3  2  0
  3  4  1  0
  4  5  1  0
  5  6  1  0
  6  7  1  0
  7  8  2  0
  7  9  1  0
  9 10  1  0
 10 11  2  0
 11 12  1  0
 12 13  2  0
 13 14  1  0
 10 15  1  0
 14 15  2  0
  5 16  1  0
 16 17  1  0
 17 18  1  0
 18 19  1  0
  5 20  1  0
 19 20  1  0
  4 21  2  0
  2 22  1  0
 21 22  1  0
M  END
