pyridine_urea_14454
     RDKit          3D

 21 22  0  0  0  0  0  0  0  0999 V2000
    8.5690    1.0460   21.3410 O   0  0  0  0  0  0  0  0  0  0  0  0
    8.2730   -0.1230   21.1470 C   0  0  0  0  0  0  0  0  0  0  0  0
    6.9100   -0.5730   21.0190 N   0  0  0  0  0  0  0  0  0  0  0  0
    6.2760    0.0840   19.9950 C   0  0  0  0  0  0  0  0  0  0  0  0
    5.0870    0.7740   20.2020 C   0  0  0  0  0  0  0  0  0  0  0  0
    4.5140    1.4360   19.1190 C   0  0  0  0  0  0  0  0  0  0  0  0
    5.1550    1.3770   17.8800 C   0  0  0  0  0  0  0  0  0  0  0  0
    6.2970    0.7050   17.6770 N   0  0  0  0  0  0  0  0  0  0  0  0
    6.8310    0.0740   18.7380 C   0  0  0  0  0  0  0  0  0  0  0  0
    9.1460   -1.1390   20.9950 N   0  0  0  0  0  0  0  0  0  0  0  0
   10.1540   -1.1740   21.9690 C   0  0  0  0  0  0  0  0  0  0  0  0
   11.5860   -1.6200   21.6110 C   0  0  0  0  0  0  0  0  0  0  0  0
   12.4650   -1.6200   22.6280 C   0  0  0  0  0  0  0  0  0  0  0  0
   11.8680   -1.2330   23.7820 C   0  0  0  0  0  0  0  0  0  0  0  0
   12.1050   -1.0730   25.0270 C   0  0  0  0  0  0  0  0  0  0  0  0
   12.8820   -0.1120   25.3100 F   0  0  0  0  0  0  0  0  0  0  0  0
   10.9640   -0.8870   25.7110 F   0  0  0  0  0  0  0  0  0  0  0  0
   12.7380   -2.1950   25.4400 F   0  0  0  0  0  0  0  0  0  0  0  0
   10.5770   -0.8090   24.1770 C   0  0  0  0  0  0  0  0  0  0  0  0
    9.5810   -0.2060   25.9320 I   0  0  0  0  0  0  0  0  0  0  0  0
    9.7170   -0.7870   23.1950 C   0  0  0  0  0  0  0  0  0  0  0  0
  1  2  2  0
  2  3  1  0
  3  4  1  0
  4  5  2  0
  5  6  1  0
  6  7  2  0
  7  8  1  0
  4  9  1  0
  8  9  2  0
  2 10  1  0
 10 11  1  0
 11 12  2  0
 12 13  1  0
 13 14  2  0
 14 15  1  0
 15 16  1  0
 15 17  1  0
 15 18  1  0
 14 19  1  0
 19 20  1  0
 11 21  1  0
 19 21  2  0
M  END
