pyridine_urea_11961
     RDKit          3D

 24 25  0  0  0  0  0  0  0  0999 V2000
   14.0680    2.8970   21.7150 C   0  0  0  0  0  0  0  0  0  0  0  0
   13.0730    3.4830   22.6420 C   0  0  0  0  0  0  0  0  0  0  0  0
   13.5420    4.5990   23.3390 C   0  0  0  0  0  0  0  0  0  0  0  0
   11.9560    4.0080   21.7930 C   0  0  0  0  0  0  0  0  0  0  0  0
   12.5570    2.3700   23.4250 N   0  0  0  0  0  0  0  0  0  0  0  0
   13.2830    0.8180   23.2720 S   0  0  0  0  0  0  0  0  0  0  0  0
   13.3830    0.0700   24.5010 O   0  0  0  0  0  0  0  0  0  0  0  0
   14.1710    0.7420   22.1520 O   0  0  0  0  0  0  0  0  0  0  0  0
   11.9130    0.1200   22.9480 C   0  0  0  0  0  0  0  0  0  0  0  0
   10.7370    0.6500   23.2820 C   0  0  0  0  0  0  0  0  0  0  0  0
    9.6000    0.0610   22.9980 C   0  0  0  0  0  0  0  0  0  0  0  0
    9.5430   -1.2510   22.2730 C   0  0  0  0  0  0  0  0  0  0  0  0
    8.3350   -1.6930   22.0250 N   0  0  0  0  0  0  0  0  0  0  0  0
    7.6160   -0.7400   21.3170 C   0  0  0  0  0  0  0  0  0  0  0  0
    8.3490    0.4750   21.0290 O   0  0  0  0  0  0  0  0  0  0  0  0
    6.3640   -0.9440   20.9560 N   0  0  0  0  0  0  0  0  0  0  0  0
    5.9660   -0.1400   19.9600 C   0  0  0  0  0  0  0  0  0  0  0  0
    4.8250    0.6750   20.0090 C   0  0  0  0  0  0  0  0  0  0  0  0
    4.4790    1.4960   18.9290 C   0  0  0  0  0  0  0  0  0  0  0  0
    5.2910    1.4860   17.8020 C   0  0  0  0  0  0  0  0  0  0  0  0
    6.3830    0.6940   17.7700 N   0  0  0  0  0  0  0  0  0  0  0  0
    6.7380   -0.1030   18.8010 C   0  0  0  0  0  0  0  0  0  0  0  0
   10.9060   -1.7810   21.9540 C   0  0  0  0  0  0  0  0  0  0  0  0
   12.0140   -1.0740   22.3070 C   0  0  0  0  0  0  0  0  0  0  0  0
  1  2  1  0
  2  3  1  0
  2  4  1  0
  2  5  1  0
  6  5  1  0
  6  7  2  0
  6  8  2  0
  6  9  1  0
  9 10  2  0
 10 11  1  0
 11 12  2  0
 12 13  1  0
 13 14  1  0
 14 15  2  0
 14 16  1  0
 16 17  1  0
 17 18  2  0
 18 19  1  0
 19 20  2  0
 20 21  1  0
 17 22  1  0
 21 22  2  0
 12 23  1  0
  9 24  1  0
 23 24  2  0
M  END
