pyridine_urea_5523
     RDKit          3D

 17 18  0  0  0  0  0  0  0  0999 V2000
   12.7060   -1.3940   24.5590 C   0  0  0  0  0  0  0  0  0  0  0  0
   12.9640   -0.5010   23.3380 C   0  0  1  0  0  0  0  0  0  0  0  0
   12.7390   -1.5240   22.2180 C   0  0  0  0  0  0  0  0  0  0  0  0
   11.4060   -1.8570   22.0510 C   0  0  0  0  0  0  0  0  0  0  0  0
   10.5020   -1.0010   22.9590 C   0  0  2  0  0  0  0  0  0  0  0  0
    9.1990   -1.0900   22.4700 N   0  0  0  0  0  0  0  0  0  0  0  0
    8.5070   -0.1880   21.6350 C   0  0  0  0  0  0  0  0  0  0  0  0
    8.9840    0.9160   21.4140 O   0  0  0  0  0  0  0  0  0  0  0  0
    7.2880   -0.6760   21.1330 N   0  0  0  0  0  0  0  0  0  0  0  0
    6.5810   -0.0200   20.0210 C   0  0  0  0  0  0  0  0  0  0  0  0
    5.3240    0.7450   20.4660 C   0  0  0  0  0  0  0  0  0  0  0  0
    4.5530    1.4720   19.3530 C   0  0  0  0  0  0  0  0  0  0  0  0
    5.1550    1.3270   17.9680 C   0  0  0  0  0  0  0  0  0  0  0  0
    6.2790    0.6060   17.7070 N   0  0  0  0  0  0  0  0  0  0  0  0
    6.9750   -0.0530   18.7040 C   0  0  0  0  0  0  0  0  0  0  0  0
   10.8200    0.3530   22.9700 C   0  0  0  0  0  0  0  0  0  0  0  0
   12.1920    0.6330   23.0800 C   0  0  0  0  0  0  0  0  0  0  0  0
  2  1  1  1
  2  3  1  0
  3  4  1  0
  4  5  1  0
  5  6  1  6
  6  7  1  0
  7  8  2  0
  7  9  1  0
  9 10  1  0
 10 11  2  0
 11 12  1  0
 12 13  2  0
 13 14  1  0
 10 15  1  0
 14 15  2  0
  5 16  1  0
  2 17  1  0
 16 17  1  0
M  END
