pyridine_urea_425
     RDKit          3D

 25 27  0  0  0  0  0  0  0  0999 V2000
    8.4060    0.6030   21.2100 O   0  0  0  0  0  0  0  0  0  0  0  0
    7.8420   -0.4110   21.6100 C   0  0  0  0  0  0  0  0  0  0  0  0
    6.7140   -0.8970   21.0180 N   0  0  0  0  0  0  0  0  0  0  0  0
    6.1260   -0.1270   20.0130 C   0  0  0  0  0  0  0  0  0  0  0  0
    4.9480    0.5960   20.1370 C   0  0  0  0  0  0  0  0  0  0  0  0
    4.4750    1.3420   19.0580 C   0  0  0  0  0  0  0  0  0  0  0  0
    5.2030    1.3380   17.8870 C   0  0  0  0  0  0  0  0  0  0  0  0
    6.3450    0.6460   17.7350 N   0  0  0  0  0  0  0  0  0  0  0  0
    6.7780   -0.0640   18.7910 C   0  0  0  0  0  0  0  0  0  0  0  0
    8.3310   -1.1280   22.6800 N   0  0  0  0  0  0  0  0  0  0  0  0
    9.6130   -0.7120   22.8670 C   0  0  0  0  0  0  0  0  0  0  0  0
   10.5590   -1.3860   22.1330 C   0  0  0  0  0  0  0  0  0  0  0  0
   11.8410   -0.9820   22.1970 C   0  0  0  0  0  0  0  0  0  0  0  0
   12.1380    0.0820   22.9790 C   0  0  0  0  0  0  0  0  0  0  0  0
   13.6640    0.5050   22.8930 Cl  0  0  0  0  0  0  0  0  0  0  0  0
   11.2800    0.7930   23.7710 C   0  0  0  0  0  0  0  0  0  0  0  0
    9.8950    0.3720   23.7310 C   0  0  0  0  0  0  0  0  0  0  0  0
    8.9570    1.0690   24.5040 C   0  0  0  0  0  0  0  0  0  0  0  0
    8.6930    2.4090   24.2060 C   0  0  0  0  0  0  0  0  0  0  0  0
    7.7660    3.1330   24.9520 C   0  0  0  0  0  0  0  0  0  0  0  0
    7.0980    2.5160   26.0010 C   0  0  0  0  0  0  0  0  0  0  0  0
    7.3420    1.1850   26.3190 C   0  0  0  0  0  0  0  0  0  0  0  0
    6.4590    0.5090   27.6460 Cl  0  0  0  0  0  0  0  0  0  0  0  0
    8.2660    0.4590   25.5800 C   0  0  0  0  0  0  0  0  0  0  0  0
    8.5710   -1.2050   25.9800 Cl  0  0  0  0  0  0  0  0  0  0  0  0
  1  2  2  0
  2  3  1  0
  3  4  1  0
  4  5  2  0
  5  6  1  0
  6  7  2  0
  7  8  1  0
  4  9  1  0
  8  9  2  0
  2 10  1  0
 10 11  1  0
 11 12  2  0
 12 13  1  0
 13 14  2  0
 14 15  1  0
 14 16  1  0
 11 17  1  0
 16 17  2  0
 17 18  1  0
 18 19  2  0
 19 20  1  0
 20 21  2  0
 21 22  1  0
 22 23  1  0
 18 24  1  0
 22 24  2  0
 24 25  1  0
M  END
