pyridine_urea_6043
     RDKit          3D

 25 27  0  0  0  0  0  0  0  0999 V2000
    8.6000    0.3280   21.1130 O   0  0  0  0  0  0  0  0  0  0  0  0
    8.1360   -0.6910   21.6120 C   0  0  0  0  0  0  0  0  0  0  0  0
    6.8460   -1.1520   21.1320 N   0  0  0  0  0  0  0  0  0  0  0  0
    6.3040   -0.3420   20.1140 C   0  0  0  0  0  0  0  0  0  0  0  0
    5.1250    0.3780   20.3280 C   0  0  0  0  0  0  0  0  0  0  0  0
    4.6180    1.1750   19.2960 C   0  0  0  0  0  0  0  0  0  0  0  0
    5.3010    1.2350   18.0780 C   0  0  0  0  0  0  0  0  0  0  0  0
    6.4360    0.5470   17.8530 N   0  0  0  0  0  0  0  0  0  0  0  0
    6.9160   -0.2240   18.8700 C   0  0  0  0  0  0  0  0  0  0  0  0
    8.7810   -1.4120   22.6200 N   0  0  0  0  0  0  0  0  0  0  0  0
    9.9460   -0.6090   22.7950 C   0  0  0  0  0  0  0  0  0  0  0  0
   11.3710   -0.9760   22.3910 C   0  0  0  0  0  0  0  0  0  0  0  0
   12.3530   -0.0180   22.5310 C   0  0  0  0  0  0  0  0  0  0  0  0
   12.0360    1.2470   23.0280 C   0  0  0  0  0  0  0  0  0  0  0  0
   12.9400    2.2400   23.0600 C   0  0  0  0  0  0  0  0  0  0  0  0
   14.0270    1.9100   22.7980 O   0  0  0  0  0  0  0  0  0  0  0  0
   12.5310    3.6040   23.2410 N   0  0  0  0  0  0  0  0  0  0  0  0
   11.4380    4.1940   22.6070 C   0  0  0  0  0  0  0  0  0  0  0  0
   11.0470    5.4640   22.9890 C   0  0  0  0  0  0  0  0  0  0  0  0
   12.0920    6.3320   22.9400 O   0  0  0  0  0  0  0  0  0  0  0  0
   13.2210    5.5980   22.4470 C   0  0  0  0  0  0  0  0  0  0  0  0
   13.4950    4.5780   23.3690 C   0  0  0  0  0  0  0  0  0  0  0  0
   10.7850    1.6110   23.4760 C   0  0  0  0  0  0  0  0  0  0  0  0
   10.5150    2.8210   23.9850 F   0  0  0  0  0  0  0  0  0  0  0  0
    9.7270    0.7580   23.3920 C   0  0  0  0  0  0  0  0  0  0  0  0
  1  2  2  0
  2  3  1  0
  3  4  1  0
  4  5  2  0
  5  6  1  0
  6  7  2  0
  7  8  1  0
  4  9  1  0
  8  9  2  0
  2 10  1  0
 10 11  1  0
 11 12  2  0
 12 13  1  0
 13 14  2  0
 14 15  1  0
 15 16  2  0
 15 17  1  0
 17 18  1  0
 18 19  1  0
 19 20  1  0
 20 21  1  0
 17 22  1  0
 21 22  1  0
 14 23  1  0
 23 24  1  0
 11 25  1  0
 23 25  2  0
M  END
