pyridine_urea_7010
     RDKit          3D

 20 22  0  0  0  0  0  0  0  0999 V2000
    8.9940    1.1930   21.2340 O   0  0  0  0  0  0  0  0  0  0  0  0
    8.6570    0.0380   21.5250 C   0  0  0  0  0  0  0  0  0  0  0  0
    7.5160   -0.5820   21.0120 N   0  0  0  0  0  0  0  0  0  0  0  0
    6.6440    0.0510   20.0920 C   0  0  0  0  0  0  0  0  0  0  0  0
    5.4780    0.7520   20.4040 C   0  0  0  0  0  0  0  0  0  0  0  0
    4.7230    1.3420   19.3830 C   0  0  0  0  0  0  0  0  0  0  0  0
    5.1630    1.2080   18.0820 C   0  0  0  0  0  0  0  0  0  0  0  0
    6.2690    0.5350   17.7490 N   0  0  0  0  0  0  0  0  0  0  0  0
    6.9740   -0.0210   18.7510 C   0  0  0  0  0  0  0  0  0  0  0  0
    9.3970   -0.7860   22.3900 N   0  0  0  0  0  0  0  0  0  0  0  0
   10.4730   -0.3190   23.2030 C   0  0  2  0  0  0  0  0  0  0  0  0
   10.3920    1.0580   23.3610 C   0  0  0  0  0  0  0  0  0  0  0  0
   11.5730    1.7990   23.1780 C   0  0  0  0  0  0  0  0  0  0  0  0
   11.5830    3.1900   23.2790 C   0  0  0  0  0  0  0  0  0  0  0  0
   10.4090    3.8680   23.5720 C   0  0  0  0  0  0  0  0  0  0  0  0
    9.1780    3.0760   23.7750 C   0  0  0  0  0  0  0  0  0  0  0  0
    9.2070    1.6670   23.6610 N   0  0  0  0  0  0  0  0  0  0  0  0
   11.6910   -0.7890   22.6590 C   0  0  0  0  0  0  0  0  0  0  0  0
   12.7430   -0.1580   22.9290 C   0  0  0  0  0  0  0  0  0  0  0  0
   12.6530   -1.4840   23.5160 C   0  0  0  0  0  0  0  0  0  0  0  0
  1  2  2  0
  2  3  1  0
  3  4  1  0
  4  5  2  0
  5  6  1  0
  6  7  2  0
  7  8  1  0
  4  9  1  0
  8  9  2  0
  2 10  1  0
 11 10  1  6
 11 12  1  0
 12 13  2  0
 13 14  1  0
 14 15  2  0
 15 16  1  0
 12 17  1  0
 16 17  2  0
 11 18  1  0
 18 19  1  0
 18 20  1  0
 19 20  1  0
M  END
