pyridine_urea_6229
     RDKit          3D

 24 26  0  0  0  0  0  0  0  0999 V2000
    8.6970    1.2460   21.6340 O   0  0  0  0  0  0  0  0  0  0  0  0
    8.6270    0.0500   21.4110 C   0  0  0  0  0  0  0  0  0  0  0  0
    7.4350   -0.5840   21.0990 N   0  0  0  0  0  0  0  0  0  0  0  0
    6.6620    0.0270   20.0380 C   0  0  0  0  0  0  0  0  0  0  0  0
    5.4010    0.7820   20.4480 C   0  0  0  0  0  0  0  0  0  0  0  0
    4.6570    1.4100   19.3200 C   0  0  0  0  0  0  0  0  0  0  0  0
    5.1490    1.2620   18.0390 C   0  0  0  0  0  0  0  0  0  0  0  0
    6.2630    0.5770   17.7250 N   0  0  0  0  0  0  0  0  0  0  0  0
    6.9790   -0.0140   18.7050 C   0  0  0  0  0  0  0  0  0  0  0  0
    9.7420   -0.7620   21.3880 N   0  0  0  0  0  0  0  0  0  0  0  0
   10.2330   -1.4930   22.5590 C   0  0  2  0  0  0  0  0  0  0  0  0
    9.5860   -1.0490   23.6340 C   0  0  0  0  0  0  0  0  0  0  0  0
   10.1150    0.3020   23.9530 C   0  0  0  0  0  0  0  0  0  0  0  0
    9.5680    0.9720   25.0340 C   0  0  0  0  0  0  0  0  0  0  0  0
    8.5410    0.3910   25.8200 C   0  0  0  0  0  0  0  0  0  0  0  0
    8.0340   -0.8730   25.5340 C   0  0  0  0  0  0  0  0  0  0  0  0
    8.5740   -1.6550   24.3730 C   0  0  0  0  0  0  0  0  0  0  0  0
    7.9530   -3.2160   23.9960 Cl  0  0  0  0  0  0  0  0  0  0  0  0
   11.7940   -1.7200   22.5310 C   0  0  0  0  0  0  0  0  0  0  0  0
   12.1620   -0.2700   22.6270 C   0  0  0  0  0  0  0  0  0  0  0  0
   12.6310    0.1920   23.8440 C   0  0  0  0  0  0  0  0  0  0  0  0
   12.5040   -0.7360   24.8860 C   0  0  0  0  0  0  0  0  0  0  0  0
   12.9390   -2.0090   24.5760 C   0  0  0  0  0  0  0  0  0  0  0  0
   12.3190   -2.5830   23.4930 C   0  0  0  0  0  0  0  0  0  0  0  0
  1  2  2  0
  2  3  1  0
  3  4  1  0
  4  5  2  0
  5  6  1  0
  6  7  2  0
  7  8  1  0
  4  9  1  0
  8  9  2  0
  2 10  1  0
 11 10  1  6
 11 12  1  0
 12 13  2  0
 13 14  1  0
 14 15  2  0
 15 16  1  0
 12 17  1  0
 16 17  2  0
 17 18  1  0
 11 19  1  0
 19 20  1  0
 20 21  1  0
 21 22  1  0
 22 23  1  0
 19 24  1  0
 23 24  1  0
M  END
