pyridine_urea_14979
     RDKit          3D

 19 20  0  0  0  0  0  0  0  0999 V2000
   12.9310    0.9660   23.1830 C   0  0  0  0  0  0  0  0  0  0  0  0
   12.5840   -0.3590   22.5430 C   0  0  0  0  0  0  0  0  0  0  0  0
   13.5210   -1.2000   21.8020 N   0  0  0  0  0  0  0  0  0  0  0  0
   12.7500   -2.2810   21.4130 N   0  0  0  0  0  0  0  0  0  0  0  0
   13.3890   -3.1660   20.7330 C   0  0  0  0  0  0  0  0  0  0  0  0
   11.4460   -2.1500   21.8640 C   0  0  0  0  0  0  0  0  0  0  0  0
   11.1790   -0.9150   22.6460 C   0  0  0  0  0  0  0  0  0  0  0  0
    9.9260   -0.3970   23.3050 C   0  0  1  0  0  0  0  0  0  0  0  0
   10.1920    1.0900   23.5260 C   0  0  0  0  0  0  0  0  0  0  0  0
    8.9010   -0.7620   22.4420 N   0  0  0  0  0  0  0  0  0  0  0  0
    8.3420    0.0400   21.4860 C   0  0  0  0  0  0  0  0  0  0  0  0
    8.8160    1.1340   21.1370 O   0  0  0  0  0  0  0  0  0  0  0  0
    7.2410   -0.5770   21.0580 N   0  0  0  0  0  0  0  0  0  0  0  0
    6.5670    0.0750   20.0500 C   0  0  0  0  0  0  0  0  0  0  0  0
    5.4270    0.8060   20.3100 C   0  0  0  0  0  0  0  0  0  0  0  0
    4.7810    1.4450   19.2690 C   0  0  0  0  0  0  0  0  0  0  0  0
    5.2480    1.3600   17.9700 C   0  0  0  0  0  0  0  0  0  0  0  0
    6.3640    0.6460   17.6870 N   0  0  0  0  0  0  0  0  0  0  0  0
    6.9710    0.0290   18.7290 C   0  0  0  0  0  0  0  0  0  0  0  0
  1  2  1  0
  2  3  2  0
  3  4  1  0
  4  5  1  0
  4  6  1  0
  2  7  1  0
  6  7  2  0
  7  8  1  0
  8  9  1  6
  8 10  1  0
 10 11  1  0
 11 12  2  0
 11 13  1  0
 13 14  1  0
 14 15  2  0
 15 16  1  0
 16 17  2  0
 17 18  1  0
 14 19  1  0
 18 19  2  0
M  END
