pyridine_urea_5227
     RDKit          3D

 19 21  0  0  0  0  0  0  0  0999 V2000
    8.6650    0.8310   21.3260 O   0  0  0  0  0  0  0  0  0  0  0  0
    8.2660   -0.3230   21.4020 C   0  0  0  0  0  0  0  0  0  0  0  0
    7.0380   -0.7440   20.9980 N   0  0  0  0  0  0  0  0  0  0  0  0
    6.3860   -0.0540   19.9750 C   0  0  0  0  0  0  0  0  0  0  0  0
    5.1870    0.6140   20.2300 C   0  0  0  0  0  0  0  0  0  0  0  0
    4.5580    1.3170   19.2000 C   0  0  0  0  0  0  0  0  0  0  0  0
    5.1580    1.3190   17.9570 C   0  0  0  0  0  0  0  0  0  0  0  0
    6.3060    0.6750   17.6990 N   0  0  0  0  0  0  0  0  0  0  0  0
    6.8900    0.0060   18.7040 C   0  0  0  0  0  0  0  0  0  0  0  0
    9.0610   -1.3100   21.9150 N   0  0  0  0  0  0  0  0  0  0  0  0
   10.3040   -0.7820   22.3980 C   0  0  2  0  0  0  0  0  0  0  0  0
   11.5190   -1.6620   22.2600 C   0  0  0  0  0  0  0  0  0  0  0  0
   12.4210   -1.3780   23.2860 C   0  0  0  0  0  0  0  0  0  0  0  0
   12.5340   -0.0740   23.7840 C   0  0  1  0  0  0  0  0  0  0  0  0
   13.0040    0.8010   22.8490 C   0  0  0  0  0  0  0  0  0  0  0  0
   12.3260    1.9840   23.0390 C   0  0  0  0  0  0  0  0  0  0  0  0
   11.2080    1.6980   23.7930 C   0  0  0  0  0  0  0  0  0  0  0  0
   11.2360    0.3650   24.2230 C   0  0  1  0  0  0  0  0  0  0  0  0
   10.2390   -0.3590   23.6770 C   0  0  0  0  0  0  0  0  0  0  0  0
  1  2  2  0
  2  3  1  0
  3  4  1  0
  4  5  2  0
  5  6  1  0
  6  7  2  0
  7  8  1  0
  4  9  1  0
  8  9  2  0
  2 10  1  0
 11 10  1  1
 11 12  1  0
 12 13  1  0
 14 13  1  6
 14 15  1  0
 15 16  1  0
 16 17  1  0
 14 18  1  0
 18 17  1  6
 11 19  1  0
 18 19  1  0
M  END
