pyridine_urea_14932
     RDKit          3D

 19 20  0  0  0  0  0  0  0  0999 V2000
   13.6870    0.3160   22.8170 C   0  0  0  0  0  0  0  0  0  0  0  0
   12.2850    0.2150   22.8720 C   0  0  0  0  0  0  0  0  0  0  0  0
   11.9590   -1.2270   22.7960 C   0  0  0  0  0  0  0  0  0  0  0  0
   10.5500   -1.6250   22.8010 C   0  0  0  0  0  0  0  0  0  0  0  0
   10.1300   -2.8830   22.7260 F   0  0  0  0  0  0  0  0  0  0  0  0
    9.5910   -0.4650   22.8900 C   0  0  0  0  0  0  0  0  0  0  0  0
    8.2170   -0.7410   22.8420 N   0  0  0  0  0  0  0  0  0  0  0  0
    7.8050   -0.1480   21.6810 C   0  0  0  0  0  0  0  0  0  0  0  0
    8.4080    0.8170   21.2240 O   0  0  0  0  0  0  0  0  0  0  0  0
    6.7220   -0.7110   21.0970 N   0  0  0  0  0  0  0  0  0  0  0  0
    6.2070   -0.0430   19.9990 C   0  0  0  0  0  0  0  0  0  0  0  0
    5.0280    0.6730   20.1070 C   0  0  0  0  0  0  0  0  0  0  0  0
    4.4770    1.3800   19.0530 C   0  0  0  0  0  0  0  0  0  0  0  0
    5.1550    1.3570   17.8530 C   0  0  0  0  0  0  0  0  0  0  0  0
    6.3100    0.6670   17.6880 N   0  0  0  0  0  0  0  0  0  0  0  0
    6.7910   -0.0030   18.7550 C   0  0  0  0  0  0  0  0  0  0  0  0
    9.8730    0.8860   22.9820 C   0  0  0  0  0  0  0  0  0  0  0  0
   11.2760    1.3070   22.9700 C   0  0  0  0  0  0  0  0  0  0  0  0
   11.6390    2.6630   23.0170 C   0  0  0  0  0  0  0  0  0  0  0  0
  1  2  1  0
  2  3  2  0
  3  4  1  0
  4  5  1  0
  4  6  2  0
  6  7  1  0
  7  8  1  0
  8  9  2  0
  8 10  1  0
 10 11  1  0
 11 12  2  0
 12 13  1  0
 13 14  2  0
 14 15  1  0
 11 16  1  0
 15 16  2  0
  6 17  1  0
  2 18  1  0
 17 18  2  0
 18 19  1  0
M  END
