pyridine_urea_9275
     RDKit          3D

 17 18  0  0  0  0  0  0  0  0999 V2000
   12.8830    0.7340   23.1830 C   0  0  0  0  0  0  0  0  0  0  0  0
   12.3470   -0.5770   23.6560 C   0  0  0  0  0  0  0  0  0  0  0  0
   13.0410   -1.4320   24.5230 C   0  0  0  0  0  0  0  0  0  0  0  0
   12.3450   -1.4100   22.3500 C   0  0  0  0  0  0  0  0  0  0  0  0
   11.0720   -1.6860   21.9460 C   0  0  0  0  0  0  0  0  0  0  0  0
   10.1880   -1.3800   22.9110 C   0  0  2  0  0  0  0  0  0  0  0  0
    8.9070   -0.8600   22.5970 N   0  0  0  0  0  0  0  0  0  0  0  0
    8.5030    0.0020   21.5860 C   0  0  0  0  0  0  0  0  0  0  0  0
    9.0300    1.0850   21.2770 O   0  0  0  0  0  0  0  0  0  0  0  0
    7.3770   -0.5400   20.9830 N   0  0  0  0  0  0  0  0  0  0  0  0
    6.5230    0.1410   20.0120 C   0  0  0  0  0  0  0  0  0  0  0  0
    5.3700    0.8520   20.2990 C   0  0  0  0  0  0  0  0  0  0  0  0
    4.6660    1.4640   19.2630 C   0  0  0  0  0  0  0  0  0  0  0  0
    5.1510    1.3360   17.9750 C   0  0  0  0  0  0  0  0  0  0  0  0
    6.2580    0.6450   17.6750 N   0  0  0  0  0  0  0  0  0  0  0  0
    6.9090    0.0700   18.6950 C   0  0  0  0  0  0  0  0  0  0  0  0
   10.9280   -0.6280   23.7930 C   0  0  0  0  0  0  0  0  0  0  0  0
  2  1  1  0
  2  3  1  0
  2  4  1  0
  4  5  1  0
  5  6  1  0
  6  7  1  6
  7  8  1  0
  8  9  2  0
  8 10  1  0
 10 11  1  0
 11 12  2  0
 12 13  1  0
 13 14  2  0
 14 15  1  0
 11 16  1  0
 15 16  2  0
  2 17  1  0
  6 17  1  0
M  END
