pyridine_urea_7240
     RDKit          3D

 19 20  0  0  0  0  0  0  0  0999 V2000
    8.7580    0.8320   21.2270 O   0  0  0  0  0  0  0  0  0  0  0  0
    8.1510   -0.1770   21.5590 C   0  0  0  0  0  0  0  0  0  0  0  0
    8.4700   -0.9490   22.6410 N   0  0  0  0  0  0  0  0  0  0  0  0
    9.2960   -0.5220   23.6740 C   0  0  0  0  0  0  0  0  0  0  0  0
   10.6400   -0.6180   23.5330 C   0  0  0  0  0  0  0  0  0  0  0  0
   11.3420    0.1740   24.4090 C   0  0  0  0  0  0  0  0  0  0  0  0
   12.6030    0.3910   23.9310 C   0  0  0  0  0  0  0  0  0  0  0  0
   12.8270    0.0550   22.6180 C   0  0  0  0  0  0  0  0  0  0  0  0
   12.7700   -1.4260   22.1970 C   0  0  0  0  0  0  0  0  0  0  0  0
   13.1410   -2.2920   23.2260 C   0  0  0  0  0  0  0  0  0  0  0  0
   12.1560   -2.4610   24.1900 C   0  0  0  0  0  0  0  0  0  0  0  0
   10.9130   -2.0610   23.7430 C   0  0  0  0  0  0  0  0  0  0  0  0
    7.0550   -0.6930   20.9300 N   0  0  0  0  0  0  0  0  0  0  0  0
    6.3430    0.0190   19.9700 C   0  0  0  0  0  0  0  0  0  0  0  0
    5.0660    0.7500   20.1830 C   0  0  0  0  0  0  0  0  0  0  0  0
    4.5170    1.4190   19.0910 C   0  0  0  0  0  0  0  0  0  0  0  0
    5.1810    1.3740   17.8680 C   0  0  0  0  0  0  0  0  0  0  0  0
    6.3310    0.7090   17.6720 N   0  0  0  0  0  0  0  0  0  0  0  0
    6.8800    0.0560   18.7050 C   0  0  0  0  0  0  0  0  0  0  0  0
  1  2  2  0
  2  3  1  0
  3  4  1  0
  4  5  1  0
  5  6  1  0
  6  7  1  0
  7  8  1  0
  8  9  1  0
  9 10  1  0
 10 11  1  0
  5 12  1  0
 11 12  1  0
  2 13  1  0
 13 14  1  0
 14 15  2  0
 15 16  1  0
 16 17  2  0
 17 18  1  0
 14 19  1  0
 18 19  2  0
M  END
