pyridine_urea_11446
     RDKit          3D

 19 22  0  0  0  0  0  0  0  0999 V2000
    8.5440    0.9220   21.2380 O   0  0  0  0  0  0  0  0  0  0  0  0
    8.1520   -0.2230   21.4290 C   0  0  0  0  0  0  0  0  0  0  0  0
    6.9010   -0.6590   21.1000 N   0  0  0  0  0  0  0  0  0  0  0  0
    6.3300    0.0250   19.9790 C   0  0  0  0  0  0  0  0  0  0  0  0
    5.0370    0.7740   20.2420 C   0  0  0  0  0  0  0  0  0  0  0  0
    4.4900    1.4830   19.0570 C   0  0  0  0  0  0  0  0  0  0  0  0
    5.1820    1.3990   17.8620 C   0  0  0  0  0  0  0  0  0  0  0  0
    6.3230    0.7100   17.6890 N   0  0  0  0  0  0  0  0  0  0  0  0
    6.8670    0.0490   18.7210 C   0  0  0  0  0  0  0  0  0  0  0  0
    8.9070   -1.1990   21.9870 N   0  0  0  0  0  0  0  0  0  0  0  0
   10.3220   -0.8910   22.1490 C   0  0  2  0  0  0  0  0  0  0  0  0
   11.1360   -1.8910   21.6870 C   0  0  0  0  0  0  0  0  0  0  0  0
   11.8520   -1.3150   22.7840 C   0  0  2  0  0  0  0  0  0  0  0  0
   12.0840   -1.8750   23.9400 C   0  0  1  0  0  0  0  0  0  0  0  0
   13.0490   -2.0290   24.7660 C   0  0  0  0  0  0  0  0  0  0  0  0
   12.8500   -0.6620   25.0730 C   0  0  0  0  0  0  0  0  0  0  0  0
   11.4930    0.0290   24.6270 C   0  0  1  0  0  0  0  0  0  0  0  0
   12.6460   -0.5210   24.1040 C   0  0  0  0  0  0  0  0  0  0  0  0
   10.6310   -0.7770   23.6620 C   0  0  1  0  0  0  0  0  0  0  0  0
  1  2  2  0
  2  3  1  0
  3  4  1  0
  4  5  2  0
  5  6  1  0
  6  7  2  0
  7  8  1  0
  4  9  1  0
  8  9  2  0
  2 10  1  0
 11 10  1  1
 11 12  1  0
 13 12  1  6
 13 14  1  0
 14 15  1  6
 15 16  1  0
 17 16  1  1
 14 18  1  0
 17 18  1  0
 19 11  1  6
 13 19  1  0
 17 19  1  0
M  END
