pyridine_urea_6233
     RDKit          3D

 24 25  0  0  0  0  0  0  0  0999 V2000
   10.1450    0.6670   24.6810 C   0  0  0  0  0  0  0  0  0  0  0  0
   10.6280    1.4400   23.8910 C   0  0  0  0  0  0  0  0  0  0  0  0
   11.1940    2.7690   23.3260 C   0  0  0  0  0  0  0  0  0  0  0  0
    9.4820    1.4440   22.8690 C   0  0  0  0  0  0  0  0  0  0  0  0
   11.9140    0.7200   23.3320 C   0  0  0  0  0  0  0  0  0  0  0  0
   12.3300   -0.8500   23.1690 C   0  0  0  0  0  0  0  0  0  0  0  0
   12.9170    0.3190   22.9110 C   0  0  0  0  0  0  0  0  0  0  0  0
   11.8570    1.0350   23.3590 C   0  0  0  0  0  0  0  0  0  0  0  0
   10.8460   -0.0560   23.8120 C   0  0  0  0  0  0  0  0  0  0  0  0
    9.5430    0.1660   24.3170 C   0  0  0  0  0  0  0  0  0  0  0  0
   11.6410   -0.8640   24.8640 C   0  0  0  0  0  0  0  0  0  0  0  0
   10.3010   -1.0170   22.7300 C   0  0  0  0  0  0  0  0  0  0  0  0
    8.8580   -1.0700   22.5300 N   0  0  0  0  0  0  0  0  0  0  0  0
    8.2710   -0.3080   21.5270 C   0  0  0  0  0  0  0  0  0  0  0  0
    8.7190    0.7530   21.1290 O   0  0  0  0  0  0  0  0  0  0  0  0
    7.0550   -0.9040   21.0200 N   0  0  0  0  0  0  0  0  0  0  0  0
    6.3710   -0.1410   20.0520 C   0  0  0  0  0  0  0  0  0  0  0  0
    5.0950    0.6260   20.2680 C   0  0  0  0  0  0  0  0  0  0  0  0
    4.5710    1.3330   19.1790 C   0  0  0  0  0  0  0  0  0  0  0  0
    5.2400    1.2980   17.9660 C   0  0  0  0  0  0  0  0  0  0  0  0
    6.3800    0.6190   17.7450 N   0  0  0  0  0  0  0  0  0  0  0  0
    6.9120   -0.0780   18.7780 C   0  0  0  0  0  0  0  0  0  0  0  0
   11.9320    2.5110   23.3040 C   0  0  0  0  0  0  0  0  0  0  0  0
   12.9310    1.6910   22.8810 C   0  0  0  0  0  0  0  0  0  0  0  0
  2  1  1  0
  2  3  1  0
  2  4  1  0
  2  5  1  0
  5  6  2  0
  6  7  1  0
  7  8  2  0
  8  9  1  0
  9 10  1  0
  9 11  1  0
  9 12  1  0
 12 13  1  0
 13 14  1  0
 14 15  2  0
 14 16  1  0
 16 17  1  0
 17 18  2  0
 18 19  1  0
 19 20  2  0
 20 21  1  0
 17 22  1  0
 21 22  2  0
  8 23  1  0
  5 24  1  0
 23 24  2  0
M  END
