pyridine_urea_5894
     RDKit          3D

 28 30  0  0  0  0  0  0  0  0999 V2000
    8.6370    1.9050   21.0650 O   0  0  0  0  0  0  0  0  0  0  0  0
    8.6880    0.7160   21.2990 C   0  0  0  0  0  0  0  0  0  0  0  0
    7.5380   -0.1620   21.0650 N   0  0  0  0  0  0  0  0  0  0  0  0
    6.6970    0.2890   20.0700 C   0  0  0  0  0  0  0  0  0  0  0  0
    5.5580    1.0300   20.3850 C   0  0  0  0  0  0  0  0  0  0  0  0
    4.7560    1.4870   19.3420 C   0  0  0  0  0  0  0  0  0  0  0  0
    5.1240    1.1840   18.0330 C   0  0  0  0  0  0  0  0  0  0  0  0
    6.2050    0.4670   17.7170 N   0  0  0  0  0  0  0  0  0  0  0  0
    6.9700    0.0310   18.7440 C   0  0  0  0  0  0  0  0  0  0  0  0
    9.7860    0.0540   21.7550 N   0  0  0  0  0  0  0  0  0  0  0  0
    9.4670   -1.0180   22.5720 C   0  0  2  0  0  0  0  0  0  0  0  0
    8.8520   -0.4560   23.8360 C   0  0  0  0  0  0  0  0  0  0  0  0
    9.7030    0.3960   24.5730 C   0  0  0  0  0  0  0  0  0  0  0  0
    8.7910    0.7060   25.6430 C   0  0  0  0  0  0  0  0  0  0  0  0
    7.4800    0.3270   25.9260 C   0  0  0  0  0  0  0  0  0  0  0  0
    6.8280   -0.4930   25.1110 C   0  0  0  0  0  0  0  0  0  0  0  0
    5.2090   -0.9990   25.4080 Cl  0  0  0  0  0  0  0  0  0  0  0  0
    7.5290   -0.8900   24.0470 C   0  0  0  0  0  0  0  0  0  0  0  0
   10.2230   -2.0510   22.9550 C   0  0  0  0  0  0  0  0  0  0  0  0
   11.1310   -1.3550   23.6100 C   0  0  0  0  0  0  0  0  0  0  0  0
   11.4110   -0.0770   23.8860 C   0  0  0  0  0  0  0  0  0  0  0  0
   12.4460   -0.4680   24.5960 C   0  0  0  0  0  0  0  0  0  0  0  0
   12.4490   -1.8990   24.4940 C   0  0  0  0  0  0  0  0  0  0  0  0
   13.3700   -2.7130   25.0790 C   0  0  0  0  0  0  0  0  0  0  0  0
   12.8090   -3.7690   25.7240 F   0  0  0  0  0  0  0  0  0  0  0  0
   14.1850   -2.1810   25.9940 F   0  0  0  0  0  0  0  0  0  0  0  0
   14.0860   -3.1650   24.0500 F   0  0  0  0  0  0  0  0  0  0  0  0
   11.4490   -2.6560   23.7280 C   0  0  0  0  0  0  0  0  0  0  0  0
  1  2  2  0
  2  3  1  0
  3  4  1  0
  4  5  2  0
  5  6  1  0
  6  7  2  0
  7  8  1  0
  4  9  1  0
  8  9  2  0
  2 10  1  0
 11 10  1  1
 11 12  1  0
 12 13  2  0
 13 14  1  0
 14 15  2  0
 15 16  1  0
 16 17  1  0
 12 18  1  0
 16 18  2  0
 11 19  1  0
 19 20  2  0
 20 21  1  0
 21 22  2  0
 22 23  1  0
 23 24  1  0
 24 25  1  0
 24 26  1  0
 24 27  1  0
 19 28  1  0
 23 28  2  0
M  END
