pyridine_urea_12017
     RDKit          3D

 24 26  0  0  0  0  0  0  0  0999 V2000
   13.6260   -3.4500   20.4320 C   0  0  0  0  0  0  0  0  0  0  0  0
   12.9420   -2.4380   21.2810 C   0  0  0  0  0  0  0  0  0  0  0  0
   13.5570   -1.3010   21.4140 C   0  0  0  0  0  0  0  0  0  0  0  0
   13.1910   -0.2350   22.1830 C   0  0  0  0  0  0  0  0  0  0  0  0
   12.0220   -0.4390   22.8270 C   0  0  0  0  0  0  0  0  0  0  0  0
   11.2970   -1.6140   22.6960 C   0  0  0  0  0  0  0  0  0  0  0  0
   10.2130   -1.4070   23.4670 N   0  0  0  0  0  0  0  0  0  0  0  0
   10.6200   -0.1850   23.4600 C   0  0  0  0  0  0  0  0  0  0  0  0
   12.0340    0.3060   23.7020 C   0  0  0  0  0  0  0  0  0  0  0  0
   12.2350    1.6340   23.6030 C   0  0  0  0  0  0  0  0  0  0  0  0
   11.1940    2.4640   23.3240 C   0  0  0  0  0  0  0  0  0  0  0  0
    9.8950    2.0180   23.1000 C   0  0  0  0  0  0  0  0  0  0  0  0
    9.6250    0.6590   23.1580 C   0  0  0  0  0  0  0  0  0  0  0  0
    8.4090    0.1410   22.8920 N   0  0  0  0  0  0  0  0  0  0  0  0
    8.0100    0.3380   21.5670 C   0  0  0  0  0  0  0  0  0  0  0  0
    8.5290    1.2540   20.9210 O   0  0  0  0  0  0  0  0  0  0  0  0
    7.0660   -0.5100   21.1230 N   0  0  0  0  0  0  0  0  0  0  0  0
    6.3600    0.1060   20.0890 C   0  0  0  0  0  0  0  0  0  0  0  0
    5.1630    0.8010   20.2520 C   0  0  0  0  0  0  0  0  0  0  0  0
    4.5600    1.3960   19.1510 C   0  0  0  0  0  0  0  0  0  0  0  0
    5.1760    1.2790   17.9180 C   0  0  0  0  0  0  0  0  0  0  0  0
    6.3230    0.6080   17.7390 N   0  0  0  0  0  0  0  0  0  0  0  0
    6.8870    0.0380   18.8170 C   0  0  0  0  0  0  0  0  0  0  0  0
   11.6590   -2.6220   21.9770 C   0  0  0  0  0  0  0  0  0  0  0  0
  1  2  1  0
  2  3  2  0
  3  4  1  0
  4  5  2  0
  5  6  1  0
  6  7  1  0
  7  8  1  0
  8  9  2  0
  9 10  1  0
 10 11  2  0
 11 12  1  0
  8 13  1  0
 12 13  2  0
 13 14  1  0
 14 15  1  0
 15 16  2  0
 15 17  1  0
 17 18  1  0
 18 19  2  0
 19 20  1  0
 20 21  2  0
 21 22  1  0
 18 23  1  0
 22 23  2  0
  2 24  1  0
  6 24  2  0
M  END
