pyridine_urea_12350
     RDKit          3D

 22 22  0  0  0  0  0  0  0  0999 V2000
   11.0390   -1.5410   24.2830 C   0  0  0  0  0  0  0  0  0  0  0  0
   10.4710   -2.6270   23.3830 C   0  0  0  0  0  0  0  0  0  0  0  0
    9.3740   -2.0050   22.4400 C   0  0  1  0  0  0  0  0  0  0  0  0
    8.2220   -2.8030   22.4310 C   0  0  0  0  0  0  0  0  0  0  0  0
    7.5710   -3.2350   23.6000 N   0  0  0  0  0  0  0  0  0  0  0  0
    7.2410   -4.5580   23.7480 C   0  0  0  0  0  0  0  0  0  0  0  0
    7.0850   -2.3160   24.5540 C   0  0  0  0  0  0  0  0  0  0  0  0
    5.8530   -2.7670   25.3570 C   0  0  0  0  0  0  0  0  0  0  0  0
    4.5920   -3.1830   24.6060 C   0  0  0  0  0  0  0  0  0  0  0  0
    3.3990   -2.7460   25.3000 N   0  0  0  0  0  0  0  0  0  0  0  0
    3.2270   -1.4070   25.5970 C   0  0  0  0  0  0  0  0  0  0  0  0
    2.4130   -3.6930   25.1030 C   0  0  0  0  0  0  0  0  0  0  0  0
    9.0550   -0.6570   22.4880 N   0  0  0  0  0  0  0  0  0  0  0  0
    8.4510    0.1680   21.5060 C   0  0  0  0  0  0  0  0  0  0  0  0
    8.8520    1.2950   21.1740 O   0  0  0  0  0  0  0  0  0  0  0  0
    7.3600   -0.4660   21.0030 N   0  0  0  0  0  0  0  0  0  0  0  0
    6.5900    0.1600   20.0770 C   0  0  0  0  0  0  0  0  0  0  0  0
    5.4560    0.9200   20.3540 C   0  0  0  0  0  0  0  0  0  0  0  0
    4.7560    1.5180   19.3060 C   0  0  0  0  0  0  0  0  0  0  0  0
    5.2100    1.3360   18.0120 C   0  0  0  0  0  0  0  0  0  0  0  0
    6.2920    0.6050   17.7150 N   0  0  0  0  0  0  0  0  0  0  0  0
    6.9510    0.0370   18.7450 C   0  0  0  0  0  0  0  0  0  0  0  0
  1  2  1  0
  3  2  1  1
  3  4  1  0
  4  5  1  0
  5  6  1  0
  5  7  1  0
  7  8  1  0
  8  9  1  0
  9 10  1  0
 10 11  1  0
 10 12  1  0
  3 13  1  0
 13 14  1  0
 14 15  2  0
 14 16  1  0
 16 17  1  0
 17 18  2  0
 18 19  1  0
 19 20  2  0
 20 21  1  0
 17 22  1  0
 21 22  2  0
M  END
