pyridine_urea_1140
     RDKit          3D

 21 23  0  0  0  0  0  0  0  0999 V2000
   13.2830   -1.8590   21.2640 C   0  0  0  0  0  0  0  0  0  0  0  0
   13.6140   -1.7360   22.6830 N   0  0  0  0  0  0  0  0  0  0  0  0
   13.5060   -0.4340   23.1910 C   0  0  0  0  0  0  0  0  0  0  0  0
   12.2300   -0.1390   23.1200 C   0  0  0  0  0  0  0  0  0  0  0  0
   11.6870    1.1090   22.9780 C   0  0  0  0  0  0  0  0  0  0  0  0
   10.3100    1.1050   22.8750 C   0  0  0  0  0  0  0  0  0  0  0  0
    9.5220   -0.1610   22.9160 C   0  0  0  0  0  0  0  0  0  0  0  0
    8.2160   -0.0430   22.7570 N   0  0  0  0  0  0  0  0  0  0  0  0
    7.8610    0.3180   21.4750 C   0  0  0  0  0  0  0  0  0  0  0  0
    8.3850    1.2850   20.9050 O   0  0  0  0  0  0  0  0  0  0  0  0
    6.9280   -0.4990   20.9650 N   0  0  0  0  0  0  0  0  0  0  0  0
    6.3060    0.1290   19.9780 C   0  0  0  0  0  0  0  0  0  0  0  0
    5.1270    0.8500   20.1050 C   0  0  0  0  0  0  0  0  0  0  0  0
    4.5290    1.5170   19.0260 C   0  0  0  0  0  0  0  0  0  0  0  0
    5.1370    1.4580   17.7780 C   0  0  0  0  0  0  0  0  0  0  0  0
    6.3140    0.7190   17.6670 N   0  0  0  0  0  0  0  0  0  0  0  0
    6.8850    0.0680   18.7380 C   0  0  0  0  0  0  0  0  0  0  0  0
   10.2130   -1.4470   23.0990 C   0  0  0  0  0  0  0  0  0  0  0  0
   11.5300   -1.3100   23.1910 C   0  0  0  0  0  0  0  0  0  0  0  0
   12.4490   -2.2790   23.3650 C   0  0  0  0  0  0  0  0  0  0  0  0
   12.0610   -3.4030   24.1240 O   0  0  0  0  0  0  0  0  0  0  0  0
  1  2  1  0
  2  3  1  0
  3  4  1  0
  4  5  2  0
  5  6  1  0
  6  7  2  0
  7  8  1  0
  8  9  1  0
  9 10  2  0
  9 11  1  0
 11 12  1  0
 12 13  2  0
 13 14  1  0
 14 15  2  0
 15 16  1  0
 12 17  1  0
 16 17  2  0
  7 18  1  0
  4 19  1  0
 18 19  2  0
  2 20  1  0
 19 20  1  0
 20 21  2  0
M  END
