pyridine_urea_9092
     RDKit          3D

 19 20  0  0  0  0  0  0  0  0999 V2000
   13.7530   -2.4210   24.7430 C   0  0  0  0  0  0  0  0  0  0  0  0
   13.8120   -1.1720   24.0500 O   0  0  0  0  0  0  0  0  0  0  0  0
   12.5970   -0.7800   23.7340 C   0  0  0  0  0  0  0  0  0  0  0  0
   12.1190    0.6530   23.6700 C   0  0  0  0  0  0  0  0  0  0  0  0
   10.8120    0.8550   23.3510 C   0  0  0  0  0  0  0  0  0  0  0  0
    9.9780   -0.2250   23.1050 C   0  0  0  0  0  0  0  0  0  0  0  0
    8.6110    0.0410   22.8000 N   0  0  0  0  0  0  0  0  0  0  0  0
    8.3290    0.4900   21.5570 C   0  0  0  0  0  0  0  0  0  0  0  0
    8.9210    1.4500   21.0690 O   0  0  0  0  0  0  0  0  0  0  0  0
    7.3260   -0.2550   20.9980 N   0  0  0  0  0  0  0  0  0  0  0  0
    6.5500    0.2900   20.0010 C   0  0  0  0  0  0  0  0  0  0  0  0
    5.3920    1.0410   20.1790 C   0  0  0  0  0  0  0  0  0  0  0  0
    4.6830    1.5830   19.1400 C   0  0  0  0  0  0  0  0  0  0  0  0
    5.1080    1.3970   17.8460 C   0  0  0  0  0  0  0  0  0  0  0  0
    6.2350    0.6490   17.6300 N   0  0  0  0  0  0  0  0  0  0  0  0
    6.9490    0.0990   18.6950 C   0  0  0  0  0  0  0  0  0  0  0  0
   10.4470   -1.5130   23.1600 C   0  0  0  0  0  0  0  0  0  0  0  0
    9.2130   -2.8920   22.8200 Br  0  0  0  0  0  0  0  0  0  0  0  0
   11.7410   -1.8100   23.4630 C   0  0  0  0  0  0  0  0  0  0  0  0
  1  2  1  0
  2  3  1  0
  3  4  2  0
  4  5  1  0
  5  6  2  0
  6  7  1  0
  7  8  1  0
  8  9  2  0
  8 10  1  0
 10 11  1  0
 11 12  2  0
 12 13  1  0
 13 14  2  0
 14 15  1  0
 11 16  1  0
 15 16  2  0
  6 17  1  0
 17 18  1  0
  3 19  1  0
 17 19  2  0
M  END
