pyridine_urea_10076
     RDKit          3D

 24 27  0  0  0  0  0  0  0  0999 V2000
    8.4190    1.4880   20.7590 O   0  0  0  0  0  0  0  0  0  0  0  0
    7.7380    0.6640   21.3590 C   0  0  0  0  0  0  0  0  0  0  0  0
    6.8460   -0.2130   20.8400 N   0  0  0  0  0  0  0  0  0  0  0  0
    6.1660    0.3560   19.8290 C   0  0  0  0  0  0  0  0  0  0  0  0
    4.9570    0.9950   19.9580 C   0  0  0  0  0  0  0  0  0  0  0  0
    4.4050    1.5810   18.8410 C   0  0  0  0  0  0  0  0  0  0  0  0
    5.1040    1.4890   17.6600 C   0  0  0  0  0  0  0  0  0  0  0  0
    6.2760    0.8500   17.5260 N   0  0  0  0  0  0  0  0  0  0  0  0
    6.7730    0.3010   18.6140 C   0  0  0  0  0  0  0  0  0  0  0  0
    7.8200    0.5260   22.6610 N   0  0  0  0  0  0  0  0  0  0  0  0
    9.0250    0.1020   22.9600 C   0  0  0  0  0  0  0  0  0  0  0  0
    9.7220   -0.4060   21.8640 C   0  0  0  0  0  0  0  0  0  0  0  0
   10.9600   -0.8890   22.0050 C   0  0  0  0  0  0  0  0  0  0  0  0
   11.4180   -0.8490   23.2160 C   0  0  0  0  0  0  0  0  0  0  0  0
   10.7740   -0.3780   24.2960 C   0  0  0  0  0  0  0  0  0  0  0  0
    9.4900    0.1680   24.2280 C   0  0  0  0  0  0  0  0  0  0  0  0
   11.4640   -0.5270   25.3080 N   0  0  0  0  0  0  0  0  0  0  0  0
   12.5310   -1.1280   24.7660 C   0  0  0  0  0  0  0  0  0  0  0  0
   12.5190   -1.2900   23.4780 N   0  0  0  0  0  0  0  0  0  0  0  0
   13.4420   -1.8360   22.7400 C   0  0  0  0  0  0  0  0  0  0  0  0
   13.8280   -2.9870   23.3350 C   0  0  0  0  0  0  0  0  0  0  0  0
   13.5050   -3.1930   24.6710 C   0  0  0  0  0  0  0  0  0  0  0  0
   14.1110   -2.4600   25.5600 C   0  0  0  0  0  0  0  0  0  0  0  0
   13.3330   -1.4680   25.6480 C   0  0  0  0  0  0  0  0  0  0  0  0
  1  2  2  0
  2  3  1  0
  3  4  1  0
  4  5  2  0
  5  6  1  0
  6  7  2  0
  7  8  1  0
  4  9  1  0
  8  9  2  0
  2 10  1  0
 10 11  1  0
 11 12  2  0
 12 13  1  0
 13 14  2  0
 14 15  1  0
 11 16  1  0
 15 16  2  0
 15 17  1  0
 17 18  2  0
 14 19  1  0
 18 19  1  0
 19 20  1  0
 20 21  1  0
 21 22  1  0
 22 23  1  0
 18 24  1  0
 23 24  1  0
M  END
