pyridine_urea_11276
     RDKit          3D

 17 18  0  0  0  0  0  0  0  0999 V2000
    9.4580    3.3490   22.2800 C   0  0  0  0  0  0  0  0  0  0  0  0
    9.3310    1.9900   22.6610 O   0  0  0  0  0  0  0  0  0  0  0  0
   10.5770    1.3060   22.7050 C   0  0  0  0  0  0  0  0  0  0  0  0
   11.6720    1.8560   22.8070 O   0  0  0  0  0  0  0  0  0  0  0  0
   10.3440   -0.2000   22.6090 C   0  0  0  0  0  0  0  0  0  0  0  0
    8.9330   -0.6280   22.6420 N   0  0  0  0  0  0  0  0  0  0  0  0
    8.2460    0.0310   21.5030 C   0  0  0  0  0  0  0  0  0  0  0  0
    8.7630    1.2400   21.0620 O   0  0  0  0  0  0  0  0  0  0  0  0
    7.1510   -0.7040   21.0850 N   0  0  0  0  0  0  0  0  0  0  0  0
    6.6280   -0.0970   20.0440 C   0  0  0  0  0  0  0  0  0  0  0  0
    5.3820    0.7190   20.4280 C   0  0  0  0  0  0  0  0  0  0  0  0
    4.7330    1.4310   19.3050 C   0  0  0  0  0  0  0  0  0  0  0  0
    5.2540    1.3240   18.0770 C   0  0  0  0  0  0  0  0  0  0  0  0
    6.3520    0.6000   17.7560 N   0  0  0  0  0  0  0  0  0  0  0  0
    7.0110   -0.0900   18.7250 C   0  0  0  0  0  0  0  0  0  0  0  0
   11.2120   -1.0180   23.5540 C   0  0  0  0  0  0  0  0  0  0  0  0
   11.6380   -1.1710   22.3270 C   0  0  0  0  0  0  0  0  0  0  0  0
  1  2  1  0
  2  3  1  0
  3  4  2  0
  5  3  1  0
  5  6  1  0
  6  7  1  0
  7  8  2  0
  7  9  1  0
  9 10  1  0
 10 11  2  0
 11 12  1  0
 12 13  2  0
 13 14  1  0
 10 15  1  0
 14 15  2  0
  5 16  1  0
  5 17  1  0
 16 17  1  0
M  END
