pyridine_urea_5538
     RDKit          3D

 17 17  0  0  0  0  0  0  0  0999 V2000
    7.6240    0.1850   24.7910 C   0  0  0  0  0  0  0  0  0  0  0  0
    8.6440   -0.0910   23.8370 O   0  0  0  0  0  0  0  0  0  0  0  0
    9.3320   -1.2930   24.1720 C   0  0  0  0  0  0  0  0  0  0  0  0
   10.0870   -1.7970   22.8940 C   0  0  0  0  0  0  0  0  0  0  0  0
   11.4860   -1.8320   22.9430 C   0  0  0  0  0  0  0  0  0  0  0  0
   12.2370   -1.0850   22.0920 O   0  0  0  0  0  0  0  0  0  0  0  0
   13.0130   -1.9410   21.2500 C   0  0  0  0  0  0  0  0  0  0  0  0
    9.5970   -1.1580   21.6830 N   0  0  0  0  0  0  0  0  0  0  0  0
    8.7690   -0.0430   21.5370 C   0  0  0  0  0  0  0  0  0  0  0  0
    9.1890    1.0980   21.7000 O   0  0  0  0  0  0  0  0  0  0  0  0
    7.4560   -0.4360   21.1760 N   0  0  0  0  0  0  0  0  0  0  0  0
    6.6840    0.1440   20.0640 C   0  0  0  0  0  0  0  0  0  0  0  0
    5.4640    0.9570   20.5510 C   0  0  0  0  0  0  0  0  0  0  0  0
    4.6890    1.5710   19.3810 C   0  0  0  0  0  0  0  0  0  0  0  0
    5.1630    1.3360   17.9700 C   0  0  0  0  0  0  0  0  0  0  0  0
    6.2610    0.5790   17.7030 N   0  0  0  0  0  0  0  0  0  0  0  0
    6.9950    0.0010   18.7250 C   0  0  0  0  0  0  0  0  0  0  0  0
  1  2  1  0
  2  3  1  0
  3  4  1  0
  4  5  1  0
  5  6  1  0
  6  7  1  0
  4  8  1  0
  8  9  1  0
  9 10  2  0
  9 11  1  0
 11 12  1  0
 12 13  2  0
 13 14  1  0
 14 15  2  0
 15 16  1  0
 12 17  1  0
 16 17  2  0
M  END
