pyridine_urea_1074
     RDKit          3D

 22 23  0  0  0  0  0  0  0  0999 V2000
   15.0100    1.0920   18.8200 C   0  0  0  0  0  0  0  0  0  0  0  0
   14.3560   -0.0890   19.5250 C   0  0  0  0  0  0  0  0  0  0  0  0
   14.1850    0.8340   20.5410 N   0  0  0  0  0  0  0  0  0  0  0  0
   15.0790    1.6660   19.7410 C   0  0  0  0  0  0  0  0  0  0  0  0
   15.4170    3.0140   19.6760 C   0  0  0  0  0  0  0  0  0  0  0  0
   13.6590    0.6520   21.9090 C   0  0  0  0  0  0  0  0  0  0  0  0
   12.5380   -0.2250   22.6020 C   0  0  0  0  0  0  0  0  0  0  0  0
   12.8920   -0.7780   23.9160 C   0  0  0  0  0  0  0  0  0  0  0  0
   11.8560   -1.5790   24.6400 C   0  0  0  0  0  0  0  0  0  0  0  0
   10.5910   -1.8270   24.1670 C   0  0  0  0  0  0  0  0  0  0  0  0
   10.1820   -1.3610   22.9590 C   0  0  0  0  0  0  0  0  0  0  0  0
    8.9250   -1.5380   22.3860 N   0  0  0  0  0  0  0  0  0  0  0  0
    8.2960   -0.5750   21.5820 C   0  0  0  0  0  0  0  0  0  0  0  0
    8.7760    0.5350   21.4030 O   0  0  0  0  0  0  0  0  0  0  0  0
    7.1230   -1.0170   21.0730 N   0  0  0  0  0  0  0  0  0  0  0  0
    6.4720   -0.2400   20.1460 C   0  0  0  0  0  0  0  0  0  0  0  0
    5.3110    0.5210   20.3820 C   0  0  0  0  0  0  0  0  0  0  0  0
    4.7530    1.2710   19.3320 C   0  0  0  0  0  0  0  0  0  0  0  0
    5.2990    1.2960   18.0650 C   0  0  0  0  0  0  0  0  0  0  0  0
    6.4100    0.5870   17.7850 N   0  0  0  0  0  0  0  0  0  0  0  0
    6.9840   -0.1850   18.8480 C   0  0  0  0  0  0  0  0  0  0  0  0
   11.1850   -0.5790   22.2020 C   0  0  0  0  0  0  0  0  0  0  0  0
  1  2  1  0
  2  3  1  0
  3  4  1  0
  4  5  1  0
  3  6  1  0
  6  7  1  0
  7  8  2  0
  8  9  1  0
  9 10  2  0
 10 11  1  0
 11 12  1  0
 12 13  1  0
 13 14  2  0
 13 15  1  0
 15 16  1  0
 16 17  2  0
 17 18  1  0
 18 19  2  0
 19 20  1  0
 16 21  1  0
 20 21  2  0
  7 22  1  0
 11 22  2  0
M  END
