pyridine_urea_6331
     RDKit          3D

 23 25  0  0  0  0  0  0  0  0999 V2000
    4.7740    2.1450   17.3700 O   0  0  0  0  0  0  0  0  0  0  0  0
    5.2240    1.3000   18.1030 C   0  0  0  0  0  0  0  0  0  0  0  0
    4.7420    0.7800   19.0170 C   0  0  0  0  0  0  0  0  0  0  0  0
    4.9370   -0.0180   20.2710 C   0  0  0  0  0  0  0  0  0  0  0  0
    6.4010    0.1950   20.4330 C   0  0  2  0  0  0  0  0  0  0  0  0
    7.1710   -0.7880   21.1990 N   0  0  0  0  0  0  0  0  0  0  0  0
    8.4190   -0.2940   21.5870 C   0  0  0  0  0  0  0  0  0  0  0  0
    8.8030    0.8030   21.2020 O   0  0  0  0  0  0  0  0  0  0  0  0
    9.1400   -1.0900   22.4050 N   0  0  0  0  0  0  0  0  0  0  0  0
   10.4460   -0.7080   22.5330 C   0  0  0  0  0  0  0  0  0  0  0  0
   10.6960    0.7190   22.8450 C   0  0  0  0  0  0  0  0  0  0  0  0
   11.9140    1.2980   22.9970 C   0  0  0  0  0  0  0  0  0  0  0  0
   12.9590    0.2420   22.8080 C   0  0  0  0  0  0  0  0  0  0  0  0
   12.8110   -1.0580   22.5290 N   0  0  0  0  0  0  0  0  0  0  0  0
   11.5540   -1.5140   22.3930 C   0  0  0  0  0  0  0  0  0  0  0  0
    6.4060    1.4090   21.3840 C   0  0  0  0  0  0  0  0  0  0  0  0
    5.4610    1.2250   22.4010 C   0  0  0  0  0  0  0  0  0  0  0  0
    5.0850    2.1420   23.5970 C   0  0  0  0  0  0  0  0  0  0  0  0
    6.0480    3.2940   23.3280 C   0  0  0  0  0  0  0  0  0  0  0  0
    7.0530    3.4750   22.2340 C   0  0  0  0  0  0  0  0  0  0  0  0
    7.2090    2.5210   21.2820 C   0  0  0  0  0  0  0  0  0  0  0  0
    7.1150    0.3620   19.2140 C   0  0  0  0  0  0  0  0  0  0  0  0
    6.4610    0.7500   18.0790 N   0  0  0  0  0  0  0  0  0  0  0  0
  1  2  2  0
  2  3  1  0
  3  4  1  0
  4  5  1  0
  5  6  1  1
  6  7  1  0
  7  8  2  0
  7  9  1  0
  9 10  1  0
 10 11  2  0
 11 12  1  0
 12 13  2  0
 13 14  1  0
 10 15  1  0
 14 15  2  0
  5 16  1  0
 16 17  2  0
 17 18  1  0
 18 19  2  0
 19 20  1  0
 16 21  1  0
 20 21  2  0
  5 22  1  0
  2 23  1  0
 22 23  1  0
M  END
