pyridine_urea_4647
     RDKit          3D

 22 23  0  0  0  0  0  0  0  0999 V2000
   13.5980   -2.4540   24.6560 C   0  0  0  0  0  0  0  0  0  0  0  0
   13.3060   -0.9390   24.5310 C   0  0  0  0  0  0  0  0  0  0  0  0
   12.8260   -0.4170   25.7400 O   0  0  0  0  0  0  0  0  0  0  0  0
   13.4820   -0.2060   23.2800 N   0  0  0  0  0  0  0  0  0  0  0  0
   12.2490   -0.2120   22.9450 C   0  0  0  0  0  0  0  0  0  0  0  0
   11.9950   -1.4410   22.4690 C   0  0  0  0  0  0  0  0  0  0  0  0
   13.0080   -2.3530   22.3670 C   0  0  0  0  0  0  0  0  0  0  0  0
   10.7340   -1.7380   22.1100 C   0  0  0  0  0  0  0  0  0  0  0  0
    9.7950   -0.7700   22.2560 C   0  0  0  0  0  0  0  0  0  0  0  0
    8.5480   -0.9960   21.9420 N   0  0  0  0  0  0  0  0  0  0  0  0
    7.7810   -0.1490   21.2890 C   0  0  0  0  0  0  0  0  0  0  0  0
    8.2200    1.1730   20.9460 O   0  0  0  0  0  0  0  0  0  0  0  0
    6.5940   -0.6310   20.9690 N   0  0  0  0  0  0  0  0  0  0  0  0
    6.1110    0.0470   19.9370 C   0  0  0  0  0  0  0  0  0  0  0  0
    4.9310    0.7590   20.1220 C   0  0  0  0  0  0  0  0  0  0  0  0
    4.4210    1.4920   19.0530 C   0  0  0  0  0  0  0  0  0  0  0  0
    5.1780    1.4660   17.7690 C   0  0  0  0  0  0  0  0  0  0  0  0
    6.3070    0.7600   17.6330 N   0  0  0  0  0  0  0  0  0  0  0  0
    6.7410    0.0760   18.7070 C   0  0  0  0  0  0  0  0  0  0  0  0
   10.0820    0.5120   22.7290 C   0  0  0  0  0  0  0  0  0  0  0  0
   11.3420    0.8060   23.0740 C   0  0  0  0  0  0  0  0  0  0  0  0
   11.6820    2.1670   23.5610 C   0  0  0  0  0  0  0  0  0  0  0  0
  1  2  1  0
  2  3  2  0
  2  4  1  0
  4  5  1  0
  5  6  2  0
  6  7  1  0
  6  8  1  0
  8  9  2  0
  9 10  1  0
 10 11  1  0
 11 12  2  0
 11 13  1  0
 13 14  1  0
 14 15  2  0
 15 16  1  0
 16 17  2  0
 17 18  1  0
 14 19  1  0
 18 19  2  0
  9 20  1  0
  5 21  1  0
 20 21  2  0
 21 22  1  0
M  END
