pyridine_urea_12382
     RDKit          3D

 22 23  0  0  0  0  0  0  0  0999 V2000
   13.7980   -1.2250   20.5170 C   0  0  0  0  0  0  0  0  0  0  0  0
   13.1080   -2.4080   21.0790 C   0  0  0  0  0  0  0  0  0  0  0  0
   13.9350   -3.4770   20.3310 C   0  0  0  0  0  0  0  0  0  0  0  0
   13.3910   -2.2280   22.5610 C   0  0  0  0  0  0  0  0  0  0  0  0
   13.5310   -3.1950   23.2590 O   0  0  0  0  0  0  0  0  0  0  0  0
   13.4390   -0.8990   22.8690 N   0  0  0  0  0  0  0  0  0  0  0  0
   12.3490   -0.2180   23.0690 C   0  0  0  0  0  0  0  0  0  0  0  0
   12.3660    1.0270   23.6010 C   0  0  0  0  0  0  0  0  0  0  0  0
   11.1150    1.7930   23.8420 C   0  0  0  0  0  0  0  0  0  0  0  0
    9.7790    1.2390   23.4970 C   0  0  0  0  0  0  0  0  0  0  0  0
    9.9340   -0.1440   22.8900 C   0  0  0  0  0  0  0  0  0  0  0  0
    8.8070   -0.7990   22.4550 N   0  0  0  0  0  0  0  0  0  0  0  0
    8.1660   -0.0910   21.4830 C   0  0  0  0  0  0  0  0  0  0  0  0
    8.6240    1.1420   21.0480 O   0  0  0  0  0  0  0  0  0  0  0  0
    7.0340   -0.6870   20.9980 N   0  0  0  0  0  0  0  0  0  0  0  0
    6.3900   -0.0310   19.9600 C   0  0  0  0  0  0  0  0  0  0  0  0
    5.0870    0.7030   20.2120 C   0  0  0  0  0  0  0  0  0  0  0  0
    4.4960    1.3650   19.1450 C   0  0  0  0  0  0  0  0  0  0  0  0
    5.1340    1.3200   17.9060 C   0  0  0  0  0  0  0  0  0  0  0  0
    6.2870    0.6650   17.6760 N   0  0  0  0  0  0  0  0  0  0  0  0
    6.8800    0.0120   18.6880 C   0  0  0  0  0  0  0  0  0  0  0  0
   11.1480   -0.7960   22.7120 C   0  0  0  0  0  0  0  0  0  0  0  0
  1  2  1  0
  2  3  1  0
  2  4  1  0
  4  5  2  0
  4  6  1  0
  6  7  1  0
  7  8  2  0
  8  9  1  0
  9 10  2  0
 10 11  1  0
 11 12  1  0
 12 13  1  0
 13 14  2  0
 13 15  1  0
 15 16  1  0
 16 17  2  0
 17 18  1  0
 18 19  2  0
 19 20  1  0
 16 21  1  0
 20 21  2  0
  7 22  1  0
 11 22  2  0
M  END
