pyridine_urea_10189
     RDKit          3D

 23 24  0  0  0  0  0  0  0  0999 V2000
    8.6560    1.6230   23.6840 C   0  0  0  0  0  0  0  0  0  0  0  0
   10.0770    1.2400   23.3220 C   0  0  0  0  0  0  0  0  0  0  0  0
   11.1730    2.0500   23.4820 C   0  0  0  0  0  0  0  0  0  0  0  0
   12.4200    1.6430   23.1200 C   0  0  0  0  0  0  0  0  0  0  0  0
   13.2980    2.5150   23.3170 O   0  0  0  0  0  0  0  0  0  0  0  0
   13.5970    3.8040   22.7650 C   0  0  0  0  0  0  0  0  0  0  0  0
   14.4090    4.7950   23.6220 C   0  0  0  0  0  0  0  0  0  0  0  0
   16.3000    4.8010   24.4270 C   0  0  0  0  0  0  0  0  0  0  0  0
   17.8230    4.9340   24.2840 N   0  0  0  0  0  0  0  0  0  0  0  0
   16.5230    4.2250   25.2440 O   0  0  0  0  0  0  0  0  0  0  0  0
   12.7270    0.3730   22.5850 C   0  0  0  0  0  0  0  0  0  0  0  0
   11.6760   -0.5450   22.3710 C   0  0  0  0  0  0  0  0  0  0  0  0
   10.3700   -0.1470   22.7000 C   0  0  0  0  0  0  0  0  0  0  0  0
    9.2670   -0.9390   22.4650 N   0  0  0  0  0  0  0  0  0  0  0  0
    8.3470   -0.3050   21.5850 C   0  0  0  0  0  0  0  0  0  0  0  0
    8.5140    0.8170   21.1160 O   0  0  0  0  0  0  0  0  0  0  0  0
    7.2140   -0.9410   21.2210 N   0  0  0  0  0  0  0  0  0  0  0  0
    6.5550   -0.2260   20.1010 C   0  0  0  0  0  0  0  0  0  0  0  0
    5.3830    0.5080   20.4010 C   0  0  0  0  0  0  0  0  0  0  0  0
    4.7130    1.2200   19.3920 C   0  0  0  0  0  0  0  0  0  0  0  0
    5.1630    1.2400   18.0840 C   0  0  0  0  0  0  0  0  0  0  0  0
    6.3020    0.5220   17.7980 N   0  0  0  0  0  0  0  0  0  0  0  0
    6.9890   -0.2020   18.7860 C   0  0  0  0  0  0  0  0  0  0  0  0
  1  2  1  0
  2  3  2  0
  3  4  1  0
  4  5  1  0
  5  6  1  0
  6  7  1  0
  7  8  1  0
  8  9  1  0
  8 10  2  0
  4 11  2  0
 11 12  1  0
  2 13  1  0
 12 13  2  0
 13 14  1  0
 14 15  1  0
 15 16  2  0
 15 17  1  0
 17 18  1  0
 18 19  2  0
 19 20  1  0
 20 21  2  0
 21 22  1  0
 18 23  1  0
 22 23  2  0
M  END
