pyridine_urea_10014
     RDKit          3D

 24 26  0  0  0  0  0  0  0  0999 V2000
   14.8470   -5.0640   20.7270 C   0  0  0  0  0  0  0  0  0  0  0  0
   13.7910   -3.9530   20.5810 C   0  0  0  0  0  0  0  0  0  0  0  0
   13.2800   -3.0250   21.6680 N   0  0  0  0  0  0  0  0  0  0  0  0
   13.5680   -3.0160   23.1000 C   0  0  0  0  0  0  0  0  0  0  0  0
   13.3780   -1.8560   23.7620 C   0  0  0  0  0  0  0  0  0  0  0  0
   13.2490   -0.6750   23.0900 N   0  0  0  0  0  0  0  0  0  0  0  0
   12.0330   -0.0960   23.2960 C   0  0  0  0  0  0  0  0  0  0  0  0
   11.9910    1.1140   23.8480 C   0  0  0  0  0  0  0  0  0  0  0  0
   10.6880    1.8200   24.0900 C   0  0  0  0  0  0  0  0  0  0  0  0
    9.5430    1.1600   23.7040 C   0  0  0  0  0  0  0  0  0  0  0  0
    9.6330   -0.1080   23.1090 C   0  0  0  0  0  0  0  0  0  0  0  0
    8.5440   -0.7680   22.6710 N   0  0  0  0  0  0  0  0  0  0  0  0
    7.9990   -0.1770   21.5380 C   0  0  0  0  0  0  0  0  0  0  0  0
    8.4980    0.8490   21.1000 O   0  0  0  0  0  0  0  0  0  0  0  0
    6.8920   -0.8000   20.9960 N   0  0  0  0  0  0  0  0  0  0  0  0
    6.3000   -0.1110   19.9820 C   0  0  0  0  0  0  0  0  0  0  0  0
    5.0390    0.6330   20.1830 C   0  0  0  0  0  0  0  0  0  0  0  0
    4.4970    1.3390   19.1220 C   0  0  0  0  0  0  0  0  0  0  0  0
    5.1740    1.3140   17.9070 C   0  0  0  0  0  0  0  0  0  0  0  0
    6.3260    0.6370   17.6920 N   0  0  0  0  0  0  0  0  0  0  0  0
    6.8590   -0.0570   18.7240 C   0  0  0  0  0  0  0  0  0  0  0  0
   10.8600   -0.7040   22.9250 C   0  0  0  0  0  0  0  0  0  0  0  0
   13.2700   -0.6290   21.7530 C   0  0  0  0  0  0  0  0  0  0  0  0
   13.2310   -1.7710   21.0230 C   0  0  0  0  0  0  0  0  0  0  0  0
  1  2  1  0
  2  3  1  0
  3  4  1  0
  4  5  1  0
  5  6  1  0
  6  7  1  0
  7  8  2  0
  8  9  1  0
  9 10  2  0
 10 11  1  0
 11 12  1  0
 12 13  1  0
 13 14  2  0
 13 15  1  0
 15 16  1  0
 16 17  2  0
 17 18  1  0
 18 19  2  0
 19 20  1  0
 16 21  1  0
 20 21  2  0
  7 22  1  0
 11 22  2  0
  6 23  1  0
  3 24  1  0
 23 24  1  0
M  END
