pyridine_urea_5833
     RDKit          3D

 23 25  0  0  0  0  0  0  0  0999 V2000
    8.5880    0.7320   21.1980 O   0  0  0  0  0  0  0  0  0  0  0  0
    8.1030   -0.3650   21.4450 C   0  0  0  0  0  0  0  0  0  0  0  0
    6.7320   -0.6670   21.1040 N   0  0  0  0  0  0  0  0  0  0  0  0
    6.2080    0.0150   20.0290 C   0  0  0  0  0  0  0  0  0  0  0  0
    5.0280    0.7410   20.1850 C   0  0  0  0  0  0  0  0  0  0  0  0
    4.5290    1.4300   19.0830 C   0  0  0  0  0  0  0  0  0  0  0  0
    5.2200    1.3730   17.8740 C   0  0  0  0  0  0  0  0  0  0  0  0
    6.3560    0.6700   17.7160 N   0  0  0  0  0  0  0  0  0  0  0  0
    6.8270    0.0040   18.7960 C   0  0  0  0  0  0  0  0  0  0  0  0
    8.6890   -1.4390   22.0450 N   0  0  0  0  0  0  0  0  0  0  0  0
    9.7290   -1.2110   23.0110 C   0  0  2  0  0  0  0  0  0  0  0  0
    9.7550   -0.1020   23.8190 C   0  0  0  0  0  0  0  0  0  0  0  0
   10.5890    0.0890   22.6270 C   0  0  1  0  0  0  0  0  0  0  0  0
   11.9150   -0.2470   22.6470 C   0  0  0  0  0  0  0  0  0  0  0  0
   12.2420   -1.5320   22.3090 C   0  0  0  0  0  0  0  0  0  0  0  0
   13.3440   -1.2490   22.5130 C   0  0  0  0  0  0  0  0  0  0  0  0
   13.0270    0.0620   22.8490 C   0  0  0  0  0  0  0  0  0  0  0  0
   11.6790    0.8010   22.9170 C   0  0  0  0  0  0  0  0  0  0  0  0
   11.2070    2.0830   23.2110 C   0  0  0  0  0  0  0  0  0  0  0  0
   10.6170    2.0760   24.4140 F   0  0  0  0  0  0  0  0  0  0  0  0
   12.1660    3.0180   23.1880 F   0  0  0  0  0  0  0  0  0  0  0  0
   10.2450    2.4910   22.3540 F   0  0  0  0  0  0  0  0  0  0  0  0
   12.8870    0.8900   23.0640 C   0  0  0  0  0  0  0  0  0  0  0  0
  1  2  2  0
  2  3  1  0
  3  4  1  0
  4  5  2  0
  5  6  1  0
  6  7  2  0
  7  8  1  0
  4  9  1  0
  8  9  2  0
  2 10  1  0
 11 10  1  6
 11 12  1  0
 11 13  1  0
 12 13  1  0
 13 14  1  1
 14 15  2  0
 15 16  1  0
 16 17  2  0
 17 18  1  0
 18 19  1  0
 19 20  1  0
 19 21  1  0
 19 22  1  0
 14 23  1  0
 18 23  2  0
M  END
