pyridine_urea_14367
     RDKit          3D

 20 21  0  0  0  0  0  0  0  0999 V2000
    9.3440    2.3800   24.1110 C   0  0  0  0  0  0  0  0  0  0  0  0
    9.1020    0.9070   24.1380 C   0  0  0  0  0  0  0  0  0  0  0  0
    7.8710    0.4760   23.6430 C   0  0  0  0  0  0  0  0  0  0  0  0
    9.0670    0.4380   25.6030 C   0  0  0  0  0  0  0  0  0  0  0  0
   10.3520    0.2070   23.4710 C   0  0  0  0  0  0  0  0  0  0  0  0
   11.6940    0.7340   23.8880 C   0  0  0  0  0  0  0  0  0  0  0  0
   12.9190    0.0960   23.2870 C   0  0  0  0  0  0  0  0  0  0  0  0
   12.7350   -1.0320   22.3180 C   0  0  0  0  0  0  0  0  0  0  0  0
   11.4600   -1.4220   22.0090 C   0  0  0  0  0  0  0  0  0  0  0  0
   10.3020   -0.8430   22.5380 C   0  0  0  0  0  0  0  0  0  0  0  0
    9.0730   -1.2150   22.1910 N   0  0  0  0  0  0  0  0  0  0  0  0
    8.3050   -0.3790   21.4210 C   0  0  0  0  0  0  0  0  0  0  0  0
    8.6980    0.7530   21.1780 O   0  0  0  0  0  0  0  0  0  0  0  0
    7.1160   -0.8790   20.9740 N   0  0  0  0  0  0  0  0  0  0  0  0
    6.3790   -0.1380   20.0340 C   0  0  0  0  0  0  0  0  0  0  0  0
    5.1930    0.5370   20.2540 C   0  0  0  0  0  0  0  0  0  0  0  0
    4.5660    1.2560   19.2400 C   0  0  0  0  0  0  0  0  0  0  0  0
    5.1770    1.2730   17.9940 C   0  0  0  0  0  0  0  0  0  0  0  0
    6.3270    0.6240   17.7420 N   0  0  0  0  0  0  0  0  0  0  0  0
    6.8990   -0.0620   18.7540 C   0  0  0  0  0  0  0  0  0  0  0  0
  2  1  1  0
  2  3  1  0
  2  4  1  0
  2  5  1  0
  5  6  2  0
  6  7  1  0
  7  8  2  0
  8  9  1  0
  5 10  1  0
  9 10  2  0
 10 11  1  0
 11 12  1  0
 12 13  2  0
 12 14  1  0
 14 15  1  0
 15 16  2  0
 16 17  1  0
 17 18  2  0
 18 19  1  0
 15 20  1  0
 19 20  2  0
M  END
