pyridine_urea_1256
     RDKit          3D

 21 23  0  0  0  0  0  0  0  0999 V2000
    8.4210    0.9070   21.0400 O   0  0  0  0  0  0  0  0  0  0  0  0
    8.2260   -0.2010   21.5240 C   0  0  0  0  0  0  0  0  0  0  0  0
    7.1210   -0.8910   21.1220 N   0  0  0  0  0  0  0  0  0  0  0  0
    6.5080   -0.2100   20.0030 C   0  0  0  0  0  0  0  0  0  0  0  0
    5.2100    0.5710   20.2870 C   0  0  0  0  0  0  0  0  0  0  0  0
    4.5690    1.2750   19.2660 C   0  0  0  0  0  0  0  0  0  0  0  0
    5.1440    1.2470   17.9980 C   0  0  0  0  0  0  0  0  0  0  0  0
    6.3000    0.5350   17.7880 N   0  0  0  0  0  0  0  0  0  0  0  0
    6.9930   -0.1970   18.7560 C   0  0  0  0  0  0  0  0  0  0  0  0
    9.0690   -0.7610   22.4480 N   0  0  0  0  0  0  0  0  0  0  0  0
   10.0980   -0.9720   23.3070 C   0  0  1  0  0  0  0  0  0  0  0  0
   11.0440   -1.9230   22.9460 C   0  0  0  0  0  0  0  0  0  0  0  0
   12.2480   -1.4080   22.4940 C   0  0  0  0  0  0  0  0  0  0  0  0
   12.5950   -0.1530   23.0340 O   0  0  0  0  0  0  0  0  0  0  0  0
   11.8910    1.0970   23.1000 C   0  0  0  0  0  0  0  0  0  0  0  0
   13.1630    1.7470   22.9330 C   0  0  0  0  0  0  0  0  0  0  0  0
   12.2670    2.7100   23.0370 C   0  0  0  0  0  0  0  0  0  0  0  0
   11.5860    1.4810   23.1390 C   0  0  0  0  0  0  0  0  0  0  0  0
   12.8980    1.2800   22.9770 F   0  0  0  0  0  0  0  0  0  0  0  0
   11.8550   -0.0600   23.1210 C   0  0  0  0  0  0  0  0  0  0  0  0
   10.7280    0.3260   23.2520 C   0  0  0  0  0  0  0  0  0  0  0  0
  1  2  2  0
  2  3  1  0
  3  4  1  0
  4  5  2  0
  5  6  1  0
  6  7  2  0
  7  8  1  0
  4  9  1  0
  8  9  2  0
  2 10  1  0
 11 10  1  6
 11 12  1  0
 12 13  1  0
 13 14  1  0
 14 15  1  0
 15 16  2  0
 16 17  1  0
 17 18  2  0
 18 19  1  0
 18 20  1  0
 11 21  1  0
 15 21  1  0
 20 21  2  0
M  END
