pyridine_urea_5403
     RDKit          3D

 19 20  0  0  0  0  0  0  0  0999 V2000
    8.8610    0.9030   21.2970 O   0  0  0  0  0  0  0  0  0  0  0  0
    8.4260   -0.2400   21.2030 C   0  0  0  0  0  0  0  0  0  0  0  0
    9.2230   -1.3290   21.3310 N   0  0  0  0  0  0  0  0  0  0  0  0
    9.8960   -1.3690   22.5680 C   0  0  0  0  0  0  0  0  0  0  0  0
    8.9120   -0.6920   23.5710 C   0  0  0  0  0  0  0  0  0  0  0  0
    8.9690   -1.1440   24.8470 C   0  0  0  0  0  0  0  0  0  0  0  0
    7.6950   -0.8820   25.5070 N   0  0  0  0  0  0  0  0  0  0  0  0
    7.6700   -0.2120   26.7130 C   0  0  0  0  0  0  0  0  0  0  0  0
    6.8220   -0.8380   27.6400 C   0  0  0  0  0  0  0  0  0  0  0  0
    5.5280   -1.4230   27.0670 C   0  0  0  0  0  0  0  0  0  0  0  0
    5.4330   -1.3290   25.5550 C   0  0  0  0  0  0  0  0  0  0  0  0
    6.7970   -1.8780   25.1620 C   0  0  0  0  0  0  0  0  0  0  0  0
    7.1360   -0.5880   20.9530 N   0  0  0  0  0  0  0  0  0  0  0  0
    6.3770    0.0840   20.0150 C   0  0  0  0  0  0  0  0  0  0  0  0
    5.0710    0.8100   20.2540 C   0  0  0  0  0  0  0  0  0  0  0  0
    4.4760    1.4820   19.0460 C   0  0  0  0  0  0  0  0  0  0  0  0
    5.1320    1.4000   17.8360 C   0  0  0  0  0  0  0  0  0  0  0  0
    6.2950    0.7310   17.6720 N   0  0  0  0  0  0  0  0  0  0  0  0
    6.8640    0.1100   18.7250 C   0  0  0  0  0  0  0  0  0  0  0  0
  1  2  2  0
  2  3  1  0
  3  4  1  0
  4  5  1  0
  5  6  1  0
  6  7  1  0
  7  8  1  0
  8  9  1  0
  9 10  1  0
 10 11  1  0
  7 12  1  0
 11 12  1  0
  2 13  1  0
 13 14  1  0
 14 15  2  0
 15 16  1  0
 16 17  2  0
 17 18  1  0
 14 19  1  0
 18 19  2  0
M  END
