pyridine_urea_13027
     RDKit          3D

 18 19  0  0  0  0  0  0  0  0999 V2000
    8.7630    1.1960   21.1640 O   0  0  0  0  0  0  0  0  0  0  0  0
    8.4760    0.0300   21.4780 C   0  0  0  0  0  0  0  0  0  0  0  0
    9.1810   -0.7510   22.3480 N   0  0  0  0  0  0  0  0  0  0  0  0
   10.5130   -0.4360   22.5510 C   0  0  0  0  0  0  0  0  0  0  0  0
   11.5070   -1.3420   22.4530 C   0  0  0  0  0  0  0  0  0  0  0  0
   12.8330   -0.9500   22.6550 C   0  0  0  0  0  0  0  0  0  0  0  0
   13.3550    0.3310   22.9610 C   0  0  0  0  0  0  0  0  0  0  0  0
   12.2290    1.1010   23.0180 N   0  0  0  0  0  0  0  0  0  0  0  0
   10.9410    0.7850   22.8440 C   0  0  0  0  0  0  0  0  0  0  0  0
    7.3830   -0.6120   20.9730 N   0  0  0  0  0  0  0  0  0  0  0  0
    6.5670    0.1910   20.0990 C   0  0  2  0  0  0  0  0  0  0  0  0
    5.2350    0.5030   20.8060 C   0  0  0  0  0  0  0  0  0  0  0  0
    4.1610    0.6700   19.8410 O   0  0  0  0  0  0  0  0  0  0  0  0
    4.6050    1.6330   18.9710 C   0  0  0  0  0  0  0  0  0  0  0  0
    5.1720    1.3290   17.7540 C   0  0  0  0  0  0  0  0  0  0  0  0
    6.3600    0.7450   17.7740 N   0  0  0  0  0  0  0  0  0  0  0  0
    6.4210   -0.1410   18.7710 C   0  0  0  0  0  0  0  0  0  0  0  0
    6.2720   -1.5540   18.5330 O   0  0  0  0  0  0  0  0  0  0  0  0
  1  2  2  0
  2  3  1  0
  3  4  1  0
  4  5  2  0
  5  6  1  0
  6  7  2  0
  7  8  1  0
  4  9  1  0
  8  9  2  0
  2 10  1  0
 11 10  1  1
 11 12  1  0
 12 13  1  0
 13 14  1  0
 14 15  1  0
 15 16  1  0
 11 17  1  0
 16 17  1  0
 17 18  2  0
M  END
