pyridine_urea_695
     RDKit          3D

 23 24  0  0  0  0  0  0  0  0999 V2000
    8.7800    1.4170   21.1020 O   0  0  0  0  0  0  0  0  0  0  0  0
    8.1230    0.3780   21.1690 C   0  0  0  0  0  0  0  0  0  0  0  0
    8.5850   -0.8680   21.2360 N   0  0  0  0  0  0  0  0  0  0  0  0
    8.3070   -1.7260   22.2680 C   0  0  0  0  0  0  0  0  0  0  0  0
    9.4080   -2.1710   22.7980 C   0  0  0  0  0  0  0  0  0  0  0  0
    9.3320   -0.7230   22.6000 C   0  0  0  0  0  0  0  0  0  0  0  0
   10.2040    0.3380   22.8380 C   0  0  0  0  0  0  0  0  0  0  0  0
   11.3810    0.0680   23.3490 C   0  0  0  0  0  0  0  0  0  0  0  0
   11.4970   -1.3750   23.5800 C   0  0  0  0  0  0  0  0  0  0  0  0
   12.8990   -1.9560   24.1890 S   0  0  0  0  0  0  0  0  0  0  0  0
   13.9150   -3.1870   23.1180 F   0  0  0  0  0  0  0  0  0  0  0  0
   13.7250   -1.6580   25.8520 F   0  0  0  0  0  0  0  0  0  0  0  0
   13.4390   -0.1210   24.1980 F   0  0  0  0  0  0  0  0  0  0  0  0
   12.8170   -3.3180   24.9480 F   0  0  0  0  0  0  0  0  0  0  0  0
   13.9870   -1.3100   22.4860 F   0  0  0  0  0  0  0  0  0  0  0  0
   10.6350   -2.2850   23.3360 C   0  0  0  0  0  0  0  0  0  0  0  0
    6.7900    0.2260   21.1610 N   0  0  0  0  0  0  0  0  0  0  0  0
    6.1550    0.6750   19.9710 C   0  0  0  0  0  0  0  0  0  0  0  0
    4.9950    1.3890   20.0880 C   0  0  0  0  0  0  0  0  0  0  0  0
    4.4310    1.8450   18.9250 C   0  0  0  0  0  0  0  0  0  0  0  0
    5.1120    1.5350   17.6530 C   0  0  0  0  0  0  0  0  0  0  0  0
    6.2430    0.8110   17.5990 N   0  0  0  0  0  0  0  0  0  0  0  0
    6.7410    0.3960   18.7550 C   0  0  0  0  0  0  0  0  0  0  0  0
  1  2  2  0
  2  3  1  0
  3  4  1  0
  4  5  1  0
  5  6  2  0
  6  7  1  0
  7  8  2  0
  8  9  1  0
  9 10  1  0
 10 11  1  0
 10 12  1  0
 10 13  1  0
 10 14  1  0
 10 15  1  0
  5 16  1  0
  9 16  2  0
  2 17  1  0
 17 18  1  0
 18 19  2  0
 19 20  1  0
 20 21  2  0
 21 22  1  0
 18 23  1  0
 22 23  2  0
M  END
