pyridine_urea_3043
     RDKit          3D

 21 21  0  0  0  0  0  0  0  0999 V2000
   10.6160   -2.3770   22.1170 C   0  0  0  0  0  0  0  0  0  0  0  0
   10.1450   -1.2590   23.0030 C   0  0  1  0  0  0  0  0  0  0  0  0
   10.9950   -0.1380   22.4190 C   0  0  0  0  0  0  0  0  0  0  0  0
   11.5500    0.6660   23.3140 C   0  0  0  0  0  0  0  0  0  0  0  0
   12.8930    1.2170   22.8990 C   0  0  0  0  0  0  0  0  0  0  0  0
   13.7200    0.3810   22.5860 O   0  0  0  0  0  0  0  0  0  0  0  0
   13.1950    2.5670   22.8860 O   0  0  0  0  0  0  0  0  0  0  0  0
   12.2720    3.6770   22.7100 C   0  0  0  0  0  0  0  0  0  0  0  0
   12.6380    4.3900   21.4090 C   0  0  0  0  0  0  0  0  0  0  0  0
   12.0530    4.8610   23.6870 C   0  0  0  0  0  0  0  0  0  0  0  0
   10.8460    3.0540   22.5560 C   0  0  0  0  0  0  0  0  0  0  0  0
    8.7460   -0.9530   22.7020 N   0  0  0  0  0  0  0  0  0  0  0  0
    8.3890   -0.1070   21.6510 C   0  0  0  0  0  0  0  0  0  0  0  0
    9.0520    1.1220   21.2880 O   0  0  0  0  0  0  0  0  0  0  0  0
    7.2500   -0.6270   21.0160 N   0  0  0  0  0  0  0  0  0  0  0  0
    6.5470    0.0170   20.0000 C   0  0  0  0  0  0  0  0  0  0  0  0
    5.2900    0.8130   20.3040 C   0  0  0  0  0  0  0  0  0  0  0  0
    4.6190    1.4620   19.2750 C   0  0  0  0  0  0  0  0  0  0  0  0
    5.1600    1.3340   17.9960 C   0  0  0  0  0  0  0  0  0  0  0  0
    6.2630    0.6340   17.6730 N   0  0  0  0  0  0  0  0  0  0  0  0
    6.9040    0.0110   18.6810 C   0  0  0  0  0  0  0  0  0  0  0  0
  2  1  1  6
  2  3  1  0
  3  4  1  0
  4  5  1  0
  5  6  2  0
  5  7  1  0
  8  7  1  0
  8  9  1  0
  8 10  1  0
  8 11  1  0
  2 12  1  0
 12 13  1  0
 13 14  2  0
 13 15  1  0
 15 16  1  0
 16 17  2  0
 17 18  1  0
 18 19  2  0
 19 20  1  0
 16 21  1  0
 20 21  2  0
M  END
