pyridine_urea_14496
     RDKit          3D

 21 22  0  0  0  0  0  0  0  0999 V2000
   12.8470    0.9560   23.2780 C   0  0  0  0  0  0  0  0  0  0  0  0
   12.2200   -0.1900   23.9970 C   0  0  0  0  0  0  0  0  0  0  0  0
   12.3110   -0.5470   25.3080 C   0  0  0  0  0  0  0  0  0  0  0  0
   10.7360   -0.0140   23.7570 C   0  0  0  0  0  0  0  0  0  0  0  0
   10.1600   -0.9790   22.9520 C   0  0  2  0  0  0  0  0  0  0  0  0
    8.8110   -0.8960   22.5190 N   0  0  0  0  0  0  0  0  0  0  0  0
    8.4200   -0.0130   21.5320 C   0  0  0  0  0  0  0  0  0  0  0  0
    8.9780    1.0610   21.2590 O   0  0  0  0  0  0  0  0  0  0  0  0
    7.2970   -0.5340   20.9360 N   0  0  0  0  0  0  0  0  0  0  0  0
    6.5140    0.1250   19.9980 C   0  0  0  0  0  0  0  0  0  0  0  0
    5.2450    0.9150   20.2560 C   0  0  0  0  0  0  0  0  0  0  0  0
    4.6060    1.5180   19.1970 C   0  0  0  0  0  0  0  0  0  0  0  0
    5.1550    1.3770   17.9180 C   0  0  0  0  0  0  0  0  0  0  0  0
    6.2760    0.6740   17.6560 N   0  0  0  0  0  0  0  0  0  0  0  0
    6.8990    0.0860   18.6850 C   0  0  0  0  0  0  0  0  0  0  0  0
   10.4170   -2.4370   23.3720 C   0  0  0  0  0  0  0  0  0  0  0  0
   11.6350   -2.6650   23.9060 N   0  0  0  0  0  0  0  0  0  0  0  0
    9.5370   -3.2780   23.2310 O   0  0  0  0  0  0  0  0  0  0  0  0
   11.1470   -1.6940   21.9710 C   0  0  0  0  0  0  0  0  0  0  0  0
   12.5160   -1.4690   22.1430 C   0  0  0  0  0  0  0  0  0  0  0  0
   12.7590   -1.3810   23.4400 O   0  0  0  0  0  0  0  0  0  0  0  0
  2  1  1  0
  2  3  1  0
  2  4  1  0
  4  5  1  0
  5  6  1  6
  6  7  1  0
  7  8  2  0
  7  9  1  0
  9 10  1  0
 10 11  2  0
 11 12  1  0
 12 13  2  0
 13 14  1  0
 10 15  1  0
 14 15  2  0
  5 16  1  0
 16 17  1  0
 16 18  2  0
  5 19  1  0
 19 20  1  0
  2 21  1  0
 20 21  1  0
M  END
