pyridine_urea_8865
     RDKit          3D

 20 20  0  0  0  0  0  0  0  0999 V2000
   10.3120    0.4580   23.2080 C   0  0  0  0  0  0  0  0  0  0  0  0
   10.2480   -1.0570   22.8440 C   0  0  2  0  0  0  0  0  0  0  0  0
   11.5870   -1.5620   22.2310 C   0  0  0  0  0  0  0  0  0  0  0  0
   12.7530   -0.8390   22.4680 C   0  0  0  0  0  0  0  0  0  0  0  0
   12.5970    0.3680   23.1030 C   0  0  0  0  0  0  0  0  0  0  0  0
   12.7030    1.1570   24.0030 O   0  0  0  0  0  0  0  0  0  0  0  0
   13.2240   -0.4130   23.8050 O   0  0  0  0  0  0  0  0  0  0  0  0
   12.6230   -1.0520   24.9380 C   0  0  0  0  0  0  0  0  0  0  0  0
   11.2420   -0.9710   25.0430 C   0  0  0  0  0  0  0  0  0  0  0  0
   12.8970   -2.5680   24.8200 C   0  0  0  0  0  0  0  0  0  0  0  0
    9.1510   -1.3370   21.9270 N   0  0  0  0  0  0  0  0  0  0  0  0
    8.4800   -0.2290   21.4930 C   0  0  0  0  0  0  0  0  0  0  0  0
    9.0100    0.8680   21.4020 O   0  0  0  0  0  0  0  0  0  0  0  0
    7.1460   -0.5100   21.1520 N   0  0  0  0  0  0  0  0  0  0  0  0
    6.5160    0.0580   20.0690 C   0  0  0  0  0  0  0  0  0  0  0  0
    5.3730    0.7910   20.4030 C   0  0  0  0  0  0  0  0  0  0  0  0
    4.6590    1.4530   19.2700 C   0  0  0  0  0  0  0  0  0  0  0  0
    5.1510    1.3060   17.9970 C   0  0  0  0  0  0  0  0  0  0  0  0
    6.2530    0.5890   17.6910 N   0  0  0  0  0  0  0  0  0  0  0  0
    6.9270   -0.0350   18.7540 C   0  0  0  0  0  0  0  0  0  0  0  0
  2  1  1  6
  2  3  1  0
  3  4  1  0
  4  5  1  0
  5  6  2  0
  5  7  1  0
  7  8  1  0
  8  9  1  0
  8 10  1  0
  2 11  1  0
 11 12  1  0
 12 13  2  0
 12 14  1  0
 14 15  1  0
 15 16  2  0
 16 17  1  0
 17 18  2  0
 18 19  1  0
 15 20  1  0
 19 20  2  0
M  END
