pyridine_urea_15008
     RDKit          3D

 19 20  0  0  0  0  0  0  0  0999 V2000
    8.7870    1.1860   21.1650 O   0  0  0  0  0  0  0  0  0  0  0  0
    8.4190    0.0670   21.5620 C   0  0  0  0  0  0  0  0  0  0  0  0
    7.3000   -0.6010   21.0960 N   0  0  0  0  0  0  0  0  0  0  0  0
    6.5690    0.0490   20.0440 C   0  0  0  0  0  0  0  0  0  0  0  0
    5.3020    0.8100   20.4210 C   0  0  0  0  0  0  0  0  0  0  0  0
    4.5450    1.5150   19.2960 C   0  0  0  0  0  0  0  0  0  0  0  0
    5.1620    1.3730   17.9040 C   0  0  0  0  0  0  0  0  0  0  0  0
    6.3310    0.6310   17.7290 N   0  0  0  0  0  0  0  0  0  0  0  0
    6.9920    0.0020   18.7400 C   0  0  0  0  0  0  0  0  0  0  0  0
    9.1040   -0.6610   22.5240 N   0  0  0  0  0  0  0  0  0  0  0  0
   10.5070   -0.7230   22.3820 C   0  0  2  0  0  0  0  0  0  0  0  0
   11.1160   -1.8690   21.8630 C   0  0  0  0  0  0  0  0  0  0  0  0
   11.6830   -2.5130   22.9230 F   0  0  0  0  0  0  0  0  0  0  0  0
   11.1640   -0.5180   23.7610 C   0  0  0  0  0  0  0  0  0  0  0  0
   10.7180   -0.9520   24.8240 C   0  0  0  0  0  0  0  0  0  0  0  0
   11.9210   -0.2060   24.6500 C   0  0  0  0  0  0  0  0  0  0  0  0
   11.5480   -0.1970   23.1560 C   0  0  0  0  0  0  0  0  0  0  0  0
   12.8090    0.6070   22.9370 C   0  0  0  0  0  0  0  0  0  0  0  0
   12.3700    0.1760   24.0380 C   0  0  0  0  0  0  0  0  0  0  0  0
  1  2  2  0
  2  3  1  0
  3  4  1  0
  4  5  2  0
  5  6  1  0
  6  7  2  0
  7  8  1  0
  4  9  1  0
  8  9  2  0
  2 10  1  0
 10 11  1  0
 11 12  1  1
 12 13  1  0
 11 14  1  0
 14 15  2  0
 15 16  1  0
 16 17  2  0
 17 18  1  0
 14 19  1  0
 18 19  2  0
M  END
