pyridine_urea_389
     RDKit          3D

 26 28  0  0  0  0  0  0  0  0999 V2000
    9.0390    0.6160   21.4280 O   0  0  0  0  0  0  0  0  0  0  0  0
    8.5110   -0.4860   21.3840 C   0  0  0  0  0  0  0  0  0  0  0  0
    9.1580   -1.6920   21.6360 N   0  0  0  0  0  0  0  0  0  0  0  0
   10.2550   -1.9440   22.4990 C   0  0  0  0  0  0  0  0  0  0  0  0
   11.4440   -1.2460   22.3980 C   0  0  0  0  0  0  0  0  0  0  0  0
   12.5350   -0.3020   22.4880 C   0  0  0  0  0  0  0  0  0  0  0  0
   12.6380    0.9060   23.1580 C   0  0  0  0  0  0  0  0  0  0  0  0
   11.6130    1.3820   23.8960 C   0  0  0  0  0  0  0  0  0  0  0  0
   10.4250    0.5190   23.9320 C   0  0  0  0  0  0  0  0  0  0  0  0
    9.2370    0.8930   24.7300 N   0  0  0  0  0  0  0  0  0  0  0  0
    9.2370   -0.0140   25.8760 C   0  0  0  0  0  0  0  0  0  0  0  0
   10.2200   -0.6080   26.2720 O   0  0  0  0  0  0  0  0  0  0  0  0
    8.0520   -0.2510   26.5780 C   0  0  0  0  0  0  0  0  0  0  0  0
    8.1710   -0.7590   27.8700 C   0  0  0  0  0  0  0  0  0  0  0  0
    7.0310   -1.0200   28.6150 C   0  0  0  0  0  0  0  0  0  0  0  0
    5.7160   -0.7400   27.9930 C   0  0  0  0  0  0  0  0  0  0  0  0
    5.6060   -0.2470   26.7410 N   0  0  0  0  0  0  0  0  0  0  0  0
    6.7680   -0.0150   26.0650 C   0  0  0  0  0  0  0  0  0  0  0  0
   10.4370   -0.6460   23.2210 C   0  0  0  0  0  0  0  0  0  0  0  0
    7.1890   -0.7170   21.0580 N   0  0  0  0  0  0  0  0  0  0  0  0
    6.4500   -0.0130   20.0900 C   0  0  0  0  0  0  0  0  0  0  0  0
    5.2810    0.7100   20.3100 C   0  0  0  0  0  0  0  0  0  0  0  0
    4.6480    1.3740   19.2610 C   0  0  0  0  0  0  0  0  0  0  0  0
    5.2120    1.2950   18.0050 C   0  0  0  0  0  0  0  0  0  0  0  0
    6.3360    0.6020   17.7570 N   0  0  0  0  0  0  0  0  0  0  0  0
    6.9220   -0.0300   18.7880 C   0  0  0  0  0  0  0  0  0  0  0  0
  1  2  2  0
  2  3  1  0
  3  4  1  0
  4  5  1  0
  5  6  2  0
  6  7  1  0
  7  8  2  0
  8  9  1  0
  9 10  1  0
 10 11  1  0
 11 12  2  0
 11 13  1  0
 13 14  2  0
 14 15  1  0
 15 16  2  0
 16 17  1  0
 13 18  1  0
 17 18  2  0
  5 19  1  0
  9 19  2  0
  2 20  1  0
 20 21  1  0
 21 22  2  0
 22 23  1  0
 23 24  2  0
 24 25  1  0
 21 26  1  0
 25 26  2  0
M  END
