pyridine_urea_431
     RDKit          3D

 25 27  0  0  0  0  0  0  0  0999 V2000
   12.8960   -1.0370   24.7880 C   0  0  0  0  0  0  0  0  0  0  0  0
   13.0350   -0.2420   23.6460 N   0  0  0  0  0  0  0  0  0  0  0  0
   12.7740    1.1310   23.4620 C   0  0  0  0  0  0  0  0  0  0  0  0
   11.7030    1.7570   22.8640 C   0  0  0  0  0  0  0  0  0  0  0  0
   10.7400    0.8930   22.2720 O   0  0  0  0  0  0  0  0  0  0  0  0
   11.0370   -0.5360   22.3210 C   0  0  2  0  0  0  0  0  0  0  0  0
   10.1150   -1.0970   23.1900 C   0  0  2  0  0  0  0  0  0  0  0  0
    8.9830   -1.4460   22.4640 N   0  0  0  0  0  0  0  0  0  0  0  0
    8.4020   -0.4680   21.6670 C   0  0  0  0  0  0  0  0  0  0  0  0
    8.9520    0.6040   21.4080 O   0  0  0  0  0  0  0  0  0  0  0  0
    7.0580   -0.8360   21.1840 N   0  0  0  0  0  0  0  0  0  0  0  0
    6.4790   -0.1350   20.0950 C   0  0  0  0  0  0  0  0  0  0  0  0
    5.3040    0.6130   20.3180 C   0  0  0  0  0  0  0  0  0  0  0  0
    4.6830    1.3390   19.2750 C   0  0  0  0  0  0  0  0  0  0  0  0
    5.2450    1.3120   18.0110 C   0  0  0  0  0  0  0  0  0  0  0  0
    6.3950    0.5750   17.7940 N   0  0  0  0  0  0  0  0  0  0  0  0
    6.9840   -0.1260   18.8060 C   0  0  0  0  0  0  0  0  0  0  0  0
    9.5920   -0.3340   24.2570 C   0  0  0  0  0  0  0  0  0  0  0  0
   10.7830    0.3090   24.1460 C   0  0  0  0  0  0  0  0  0  0  0  0
   11.3750   -0.4600   23.2190 C   0  0  0  0  0  0  0  0  0  0  0  0
   11.0370   -1.6030   22.4800 C   0  0  0  0  0  0  0  0  0  0  0  0
   12.1610   -2.2980   21.3640 Cl  0  0  0  0  0  0  0  0  0  0  0  0
    9.6820   -2.1030   22.7720 C   0  0  0  0  0  0  0  0  0  0  0  0
    8.8580   -1.4010   23.7680 C   0  0  0  0  0  0  0  0  0  0  0  0
   12.5440   -0.8950   22.5100 C   0  0  0  0  0  0  0  0  0  0  0  0
  1  2  1  0
  2  3  1  0
  3  4  1  0
  4  5  1  0
  5  6  1  0
  6  7  1  0
  7  8  1  6
  8  9  1  0
  9 10  2  0
  9 11  1  0
 11 12  1  0
 12 13  2  0
 13 14  1  0
 14 15  2  0
 15 16  1  0
 12 17  1  0
 16 17  2  0
  7 18  1  0
 18 19  2  0
 19 20  1  0
 20 21  2  0
 21 22  1  0
 21 23  1  0
 18 24  1  0
 23 24  2  0
  2 25  1  0
  6 25  1  1
M  END
