pyridine_urea_11604
     RDKit          3D

 29 31  0  0  0  0  0  0  0  0999 V2000
   13.1350    6.3560   22.7280 C   0  0  0  0  0  0  0  0  0  0  0  0
   12.2900    5.8060   21.7410 O   0  0  0  0  0  0  0  0  0  0  0  0
   12.6070    4.4890   21.5040 C   0  0  0  0  0  0  0  0  0  0  0  0
   12.1920    3.5700   22.4680 C   0  0  0  0  0  0  0  0  0  0  0  0
   10.8140    3.2740   22.5350 N   0  0  0  0  0  0  0  0  0  0  0  0
    9.8850    4.0380   23.1960 C   0  0  0  0  0  0  0  0  0  0  0  0
    9.7170    5.4670   23.2210 O   0  0  0  0  0  0  0  0  0  0  0  0
    9.0090    3.3550   23.9440 C   0  0  0  0  0  0  0  0  0  0  0  0
    9.3150    2.0190   23.7430 C   0  0  1  0  0  0  0  0  0  0  0  0
    8.2800    1.3140   23.0970 C   0  0  0  0  0  0  0  0  0  0  0  0
    8.1700   -0.0920   23.0310 N   0  0  0  0  0  0  0  0  0  0  0  0
    7.8200   -0.8660   21.8010 C   0  0  0  0  0  0  0  0  0  0  0  0
    8.6030   -1.4910   21.1170 O   0  0  0  0  0  0  0  0  0  0  0  0
    6.4970   -0.8510   21.4280 N   0  0  0  0  0  0  0  0  0  0  0  0
    6.0340   -0.1600   20.2870 C   0  0  0  0  0  0  0  0  0  0  0  0
    4.8440    0.6020   20.2990 C   0  0  0  0  0  0  0  0  0  0  0  0
    4.4530    1.2620   19.1360 C   0  0  0  0  0  0  0  0  0  0  0  0
    5.2070    1.1760   17.9920 C   0  0  0  0  0  0  0  0  0  0  0  0
    6.3400    0.4770   17.8810 N   0  0  0  0  0  0  0  0  0  0  0  0
    6.7320   -0.1760   19.0250 C   0  0  0  0  0  0  0  0  0  0  0  0
   10.6320    1.9340   23.0820 C   0  0  1  0  0  0  0  0  0  0  0  0
   10.0410    0.9570   22.2470 C   0  0  0  0  0  0  0  0  0  0  0  0
   10.3290   -0.3390   21.9950 C   0  0  0  0  0  0  0  0  0  0  0  0
    9.3670   -0.7740   21.1490 N   0  0  0  0  0  0  0  0  0  0  0  0
    8.5390    0.3480   20.9390 N   0  0  0  0  0  0  0  0  0  0  0  0
    7.3620    0.4140   20.0880 C   0  0  0  0  0  0  0  0  0  0  0  0
    6.8560   -0.8660   19.7440 C   0  0  0  0  0  0  0  0  0  0  0  0
    6.4260    1.2580   20.7300 C   0  0  0  0  0  0  0  0  0  0  0  0
    8.9450    1.4130   21.6010 C   0  0  0  0  0  0  0  0  0  0  0  0
  1  2  1  0
  2  3  1  0
  3  4  1  0
  4  5  1  0
  5  6  1  0
  6  7  2  0
  6  8  1  0
  8  9  1  0
  9 10  1  6
 10 11  1  0
 11 12  1  0
 12 13  2  0
 12 14  1  0
 14 15  1  0
 15 16  2  0
 16 17  1  0
 17 18  2  0
 18 19  1  0
 15 20  1  0
 19 20  2  0
  5 21  1  0
  9 21  1  0
 21 22  1  6
 22 23  1  0
 23 24  2  0
 24 25  1  0
 25 26  1  0
 26 27  1  0
 26 28  1  0
 22 29  2  0
 25 29  1  0
M  END
