pyridine_urea_10486
     RDKit          3D

 22 23  0  0  0  0  0  0  0  0999 V2000
   12.7600    6.1140   22.1460 C   0  0  0  0  0  0  0  0  0  0  0  0
   12.9670    4.6730   21.6770 C   0  0  0  0  0  0  0  0  0  0  0  0
   12.6470    3.8020   22.8850 C   0  0  0  0  0  0  0  0  0  0  0  0
   11.9370    4.4090   23.6780 O   0  0  0  0  0  0  0  0  0  0  0  0
   13.2010    2.3970   22.9290 N   0  0  0  0  0  0  0  0  0  0  0  0
   12.2870    1.4040   22.8840 C   0  0  0  0  0  0  0  0  0  0  0  0
   11.0260    1.9430   23.0550 C   0  0  0  0  0  0  0  0  0  0  0  0
   10.1210    1.0350   23.0260 C   0  0  0  0  0  0  0  0  0  0  0  0
   10.4000   -0.3160   22.8280 C   0  0  0  0  0  0  0  0  0  0  0  0
   11.4050   -1.3550   22.6010 C   0  0  0  0  0  0  0  0  0  0  0  0
   10.1130   -1.8850   22.6380 C   0  0  0  0  0  0  0  0  0  0  0  0
    9.3990   -1.4720   21.5010 N   0  0  0  0  0  0  0  0  0  0  0  0
    8.4500   -0.4230   21.3120 C   0  0  0  0  0  0  0  0  0  0  0  0
    8.8040    0.9370   21.3180 O   0  0  0  0  0  0  0  0  0  0  0  0
    7.1990   -0.8840   21.0820 N   0  0  0  0  0  0  0  0  0  0  0  0
    6.4840   -0.1560   20.1750 C   0  0  0  0  0  0  0  0  0  0  0  0
    5.2890    0.5740   20.4680 C   0  0  0  0  0  0  0  0  0  0  0  0
    4.6930    1.3130   19.2660 C   0  0  0  0  0  0  0  0  0  0  0  0
    5.2580    1.2750   18.0180 C   0  0  0  0  0  0  0  0  0  0  0  0
    6.3690    0.5880   17.7530 N   0  0  0  0  0  0  0  0  0  0  0  0
    6.9610   -0.1250   18.8650 C   0  0  0  0  0  0  0  0  0  0  0  0
   12.3870   -0.1120   22.6830 C   0  0  0  0  0  0  0  0  0  0  0  0
  1  2  1  0
  2  3  1  0
  3  4  2  0
  3  5  1  0
  5  6  1  0
  6  7  2  0
  7  8  1  0
  8  9  2  0
  9 10  1  0
 10 11  1  0
 11 12  1  0
 12 13  1  0
 13 14  2  0
 13 15  1  0
 15 16  1  0
 16 17  2  0
 17 18  1  0
 18 19  2  0
 19 20  1  0
 16 21  1  0
 20 21  2  0
  6 22  1  0
 10 22  2  0
M  END
