pyridine_urea_374
     RDKit          3D

 26 28  0  0  0  0  0  0  0  0999 V2000
   13.9440   -0.8010   20.0380 C   0  0  0  0  0  0  0  0  0  0  0  0
   13.2590   -1.5090   20.7120 C   0  0  1  0  0  0  0  0  0  0  0  0
   11.9870   -2.0730   21.2640 C   0  0  0  0  0  0  0  0  0  0  0  0
   12.5270   -2.1500   22.5720 N   0  0  0  0  0  0  0  0  0  0  0  0
   13.0900   -0.8110   22.5810 C   0  0  0  0  0  0  0  0  0  0  0  0
   13.7280   -0.2000   21.5150 O   0  0  0  0  0  0  0  0  0  0  0  0
   12.9050   -0.0580   23.6620 C   0  0  0  0  0  0  0  0  0  0  0  0
   11.6260    0.1040   23.8150 N   0  0  0  0  0  0  0  0  0  0  0  0
   10.2720   -0.0560   23.6070 C   0  0  0  0  0  0  0  0  0  0  0  0
    9.7290   -0.9100   22.6380 C   0  0  0  0  0  0  0  0  0  0  0  0
    8.4700   -1.1830   22.2890 N   0  0  0  0  0  0  0  0  0  0  0  0
    7.7810   -0.3440   21.4330 C   0  0  0  0  0  0  0  0  0  0  0  0
    8.1060    0.7920   21.1270 O   0  0  0  0  0  0  0  0  0  0  0  0
    6.6740   -0.8930   20.9340 N   0  0  0  0  0  0  0  0  0  0  0  0
    6.1750   -0.1480   19.9540 C   0  0  0  0  0  0  0  0  0  0  0  0
    5.0170    0.6010   20.0870 C   0  0  0  0  0  0  0  0  0  0  0  0
    4.5120    1.3760   19.0640 C   0  0  0  0  0  0  0  0  0  0  0  0
    5.1890    1.4000   17.8760 C   0  0  0  0  0  0  0  0  0  0  0  0
    6.3180    0.6930   17.6790 N   0  0  0  0  0  0  0  0  0  0  0  0
    6.7810   -0.0590   18.7110 C   0  0  0  0  0  0  0  0  0  0  0  0
   10.9800   -1.4040   22.1110 C   0  0  0  0  0  0  0  0  0  0  0  0
   11.9750   -0.8090   22.7970 N   0  0  0  0  0  0  0  0  0  0  0  0
   13.4080   -3.0830   22.5890 C   0  0  0  0  0  0  0  0  0  0  0  0
   13.4390   -3.5910   21.1980 C   0  0  2  0  0  0  0  0  0  0  0  0
   14.4060   -4.5550   20.7310 C   0  0  0  0  0  0  0  0  0  0  0  0
   13.7750   -2.7060   20.4740 O   0  0  0  0  0  0  0  0  0  0  0  0
  2  1  1  6
  2  3  1  0
  3  4  1  0
  4  5  1  0
  5  6  2  0
  5  7  1  0
  7  8  1  0
  8  9  1  0
  9 10  2  0
 10 11  1  0
 11 12  1  0
 12 13  2  0
 12 14  1  0
 14 15  1  0
 15 16  2  0
 16 17  1  0
 17 18  2  0
 18 19  1  0
 15 20  1  0
 19 20  2  0
 10 21  1  0
  8 22  1  0
 21 22  2  0
  4 23  1  0
 23 24  1  0
 24 25  1  1
  2 26  1  0
 24 26  1  0
M  END
