pyridine_urea_2851
     RDKit          3D

 22 23  0  0  0  0  0  0  0  0999 V2000
   11.3150    0.1570   24.4790 C   0  0  0  0  0  0  0  0  0  0  0  0
   10.2060    0.3360   23.5120 C   0  0  1  0  0  0  0  0  0  0  0  0
    8.7930    0.2240   24.0770 C   0  0  0  0  0  0  0  0  0  0  0  0
    8.0020   -0.5030   23.0910 N   0  0  0  0  0  0  0  0  0  0  0  0
    7.9590   -0.1430   21.7580 C   0  0  0  0  0  0  0  0  0  0  0  0
    8.7200    0.6630   21.2510 O   0  0  0  0  0  0  0  0  0  0  0  0
    6.8960   -0.8140   21.0590 N   0  0  0  0  0  0  0  0  0  0  0  0
    6.2980   -0.0980   20.0640 C   0  0  0  0  0  0  0  0  0  0  0  0
    5.1150    0.5950   20.3190 C   0  0  0  0  0  0  0  0  0  0  0  0
    4.5080    1.3810   19.1830 C   0  0  0  0  0  0  0  0  0  0  0  0
    5.2220    1.3610   17.8650 C   0  0  0  0  0  0  0  0  0  0  0  0
    6.3600    0.6550   17.7110 N   0  0  0  0  0  0  0  0  0  0  0  0
    6.8530   -0.0360   18.7810 C   0  0  0  0  0  0  0  0  0  0  0  0
   10.6230    1.8780   22.8440 S   0  0  0  0  0  0  0  0  0  0  0  0
    9.6650    2.2940   21.8510 O   0  0  0  0  0  0  0  0  0  0  0  0
   11.3750    2.6910   23.7630 O   0  0  0  0  0  0  0  0  0  0  0  0
   11.4750    0.4090   22.4370 C   0  0  0  0  0  0  0  0  0  0  0  0
   10.5750   -0.7360   21.9400 C   0  0  0  0  0  0  0  0  0  0  0  0
   11.2630   -2.0260   21.6110 C   0  0  0  0  0  0  0  0  0  0  0  0
   12.6150   -2.1380   21.7600 C   0  0  0  0  0  0  0  0  0  0  0  0
   13.3430   -1.0680   22.2180 C   0  0  0  0  0  0  0  0  0  0  0  0
   12.8190    0.1620   22.5460 C   0  0  0  0  0  0  0  0  0  0  0  0
  2  1  1  1
  2  3  1  0
  3  4  1  0
  4  5  1  0
  5  6  2  0
  5  7  1  0
  7  8  1  0
  8  9  2  0
  9 10  1  0
 10 11  2  0
 11 12  1  0
  8 13  1  0
 12 13  2  0
  2 14  1  0
 14 15  2  0
 14 16  2  0
 14 17  1  0
 17 18  2  0
 18 19  1  0
 19 20  2  0
 20 21  1  0
 17 22  1  0
 21 22  2  0
M  END
