pyridine_urea_1098
     RDKit          3D

 21 23  0  0  0  0  0  0  0  0999 V2000
   13.1560   -2.4910   20.8610 C   0  0  0  0  0  0  0  0  0  0  0  0
   12.3930   -1.7880   21.8510 C   0  0  0  0  0  0  0  0  0  0  0  0
   11.0900   -2.2240   22.0390 N   0  0  0  0  0  0  0  0  0  0  0  0
   10.6750   -1.4320   22.9890 C   0  0  0  0  0  0  0  0  0  0  0  0
    9.4040   -1.5510   23.4590 C   0  0  0  0  0  0  0  0  0  0  0  0
    8.5570   -1.6650   22.2980 N   0  0  0  0  0  0  0  0  0  0  0  0
    8.1830   -0.5660   21.5500 C   0  0  0  0  0  0  0  0  0  0  0  0
    8.9020    0.4200   21.4480 O   0  0  0  0  0  0  0  0  0  0  0  0
    6.9500   -0.7920   21.0050 N   0  0  0  0  0  0  0  0  0  0  0  0
    6.3040   -0.0290   20.0310 C   0  0  0  0  0  0  0  0  0  0  0  0
    5.0300    0.7620   20.2670 C   0  0  0  0  0  0  0  0  0  0  0  0
    4.5370    1.5070   19.0400 C   0  0  0  0  0  0  0  0  0  0  0  0
    5.2350    1.4250   17.8590 C   0  0  0  0  0  0  0  0  0  0  0  0
    6.3620    0.7010   17.7110 N   0  0  0  0  0  0  0  0  0  0  0  0
    6.8550    0.0110   18.7640 C   0  0  0  0  0  0  0  0  0  0  0  0
   11.6160   -0.5870   23.3720 C   0  0  0  0  0  0  0  0  0  0  0  0
   12.7920   -0.7370   22.6280 N   0  0  0  0  0  0  0  0  0  0  0  0
   13.0070    0.3100   23.4850 C   0  0  0  0  0  0  0  0  0  0  0  0
   12.3780    1.4770   23.0910 C   0  0  0  0  0  0  0  0  0  0  0  0
   11.2080    1.4360   23.6840 C   0  0  0  0  0  0  0  0  0  0  0  0
   11.4550    0.3210   24.3930 C   0  0  0  0  0  0  0  0  0  0  0  0
  1  2  1  0
  2  3  2  0
  3  4  1  0
  4  5  1  0
  5  6  1  0
  6  7  1  0
  7  8  2  0
  7  9  1  0
  9 10  1  0
 10 11  2  0
 11 12  1  0
 12 13  2  0
 13 14  1  0
 10 15  1  0
 14 15  2  0
  4 16  2  0
  2 17  1  0
 16 17  1  0
 17 18  1  0
 18 19  1  0
 19 20  1  0
 16 21  1  0
 20 21  1  0
M  END
