pyridine_urea_7215
     RDKit          3D

 19 20  0  0  0  0  0  0  0  0999 V2000
   14.8680   -4.9750   20.7160 C   0  0  0  0  0  0  0  0  0  0  0  0
   13.8550   -3.8340   20.4640 C   0  0  0  0  0  0  0  0  0  0  0  0
   12.7900   -4.3640   19.8480 C   0  0  0  0  0  0  0  0  0  0  0  0
   13.1230   -2.9680   21.5490 C   0  0  0  0  0  0  0  0  0  0  0  0
   11.7520   -2.6820   21.3180 N   0  0  0  0  0  0  0  0  0  0  0  0
   11.3160   -1.9600   22.3780 C   0  0  0  0  0  0  0  0  0  0  0  0
    9.9350   -1.6230   22.3810 C   0  0  0  0  0  0  0  0  0  0  0  0
    9.5550   -0.3160   22.4710 N   0  0  0  0  0  0  0  0  0  0  0  0
    8.7640    0.3900   21.5710 C   0  0  0  0  0  0  0  0  0  0  0  0
    9.0340    1.5350   21.2140 O   0  0  0  0  0  0  0  0  0  0  0  0
    7.6340   -0.2990   21.1290 N   0  0  0  0  0  0  0  0  0  0  0  0
    6.7850    0.1670   20.0980 C   0  0  0  0  0  0  0  0  0  0  0  0
    5.6510    0.9180   20.4430 C   0  0  0  0  0  0  0  0  0  0  0  0
    4.8200    1.4030   19.4340 C   0  0  0  0  0  0  0  0  0  0  0  0
    5.1470    1.1250   18.1180 C   0  0  0  0  0  0  0  0  0  0  0  0
    6.2100    0.4070   17.7590 N   0  0  0  0  0  0  0  0  0  0  0  0
    7.0000   -0.0560   18.7540 C   0  0  0  0  0  0  0  0  0  0  0  0
   12.3050   -1.7090   23.2890 N   0  0  0  0  0  0  0  0  0  0  0  0
   13.4180   -2.3460   22.7560 N   0  0  0  0  0  0  0  0  0  0  0  0
  1  2  1  0
  2  3  1  0
  2  4  1  0
  4  5  2  0
  5  6  1  0
  6  7  1  0
  7  8  1  0
  8  9  1  0
  9 10  2  0
  9 11  1  0
 11 12  1  0
 12 13  2  0
 13 14  1  0
 14 15  2  0
 15 16  1  0
 12 17  1  0
 16 17  2  0
  6 18  2  0
  4 19  1  0
 18 19  1  0
M  END
