pyridine_urea_12759
     RDKit          3D

 20 21  0  0  0  0  0  0  0  0999 V2000
    8.9340    1.1870   21.2210 O   0  0  0  0  0  0  0  0  0  0  0  0
    8.4430    0.1170   21.5880 C   0  0  0  0  0  0  0  0  0  0  0  0
    9.0000   -0.6270   22.6010 N   0  0  0  0  0  0  0  0  0  0  0  0
   10.4130   -0.9380   22.5400 C   0  0  0  0  0  0  0  0  0  0  0  0
   11.3230    0.2270   22.9880 C   0  0  0  0  0  0  0  0  0  0  0  0
   10.8290    1.5390   22.9880 C   0  0  0  0  0  0  0  0  0  0  0  0
   11.6530    2.4060   23.3160 O   0  0  0  0  0  0  0  0  0  0  0  0
   11.2550    3.6120   22.7630 C   0  0  0  0  0  0  0  0  0  0  0  0
   12.3170    4.2960   22.1600 C   0  0  0  0  0  0  0  0  0  0  0  0
   12.5290    5.5460   22.7410 C   0  0  0  0  0  0  0  0  0  0  0  0
   11.5550    6.2780   22.8360 O   0  0  0  0  0  0  0  0  0  0  0  0
   10.3730    5.5940   23.2540 C   0  0  0  0  0  0  0  0  0  0  0  0
   10.7050    4.3670   23.8040 C   0  0  0  0  0  0  0  0  0  0  0  0
    7.3070   -0.4610   21.0860 N   0  0  0  0  0  0  0  0  0  0  0  0
    6.6180    0.0910   20.0330 C   0  0  0  0  0  0  0  0  0  0  0  0
    5.4850    0.8200   20.4090 C   0  0  0  0  0  0  0  0  0  0  0  0
    4.7140    1.4630   19.3080 C   0  0  0  0  0  0  0  0  0  0  0  0
    5.1480    1.3100   18.0170 C   0  0  0  0  0  0  0  0  0  0  0  0
    6.2370    0.5960   17.6660 N   0  0  0  0  0  0  0  0  0  0  0  0
    6.9640   -0.0140   18.7080 C   0  0  0  0  0  0  0  0  0  0  0  0
  1  2  2  0
  2  3  1  0
  3  4  1  0
  4  5  1  0
  5  6  1  0
  6  7  1  0
  7  8  1  0
  8  9  1  0
  9 10  1  0
 10 11  1  0
 11 12  1  0
  8 13  1  0
 12 13  1  0
  2 14  1  0
 14 15  1  0
 15 16  2  0
 16 17  1  0
 17 18  2  0
 18 19  1  0
 15 20  1  0
 19 20  2  0
M  END
