pyridine_urea_14439
     RDKit          3D

 21 22  0  0  0  0  0  0  0  0999 V2000
    8.7410    1.2550   21.1080 O   0  0  0  0  0  0  0  0  0  0  0  0
    8.3020    0.1820   21.5480 C   0  0  0  0  0  0  0  0  0  0  0  0
    7.1590   -0.5250   20.9870 N   0  0  0  0  0  0  0  0  0  0  0  0
    6.4700    0.1160   19.9890 C   0  0  0  0  0  0  0  0  0  0  0  0
    5.3080    0.8330   20.2740 C   0  0  0  0  0  0  0  0  0  0  0  0
    4.6530    1.4760   19.2260 C   0  0  0  0  0  0  0  0  0  0  0  0
    5.1850    1.3760   17.9360 C   0  0  0  0  0  0  0  0  0  0  0  0
    6.2980    0.6800   17.6620 N   0  0  0  0  0  0  0  0  0  0  0  0
    6.9140    0.0650   18.6900 C   0  0  0  0  0  0  0  0  0  0  0  0
    8.7900   -0.5250   22.6110 N   0  0  0  0  0  0  0  0  0  0  0  0
   10.2140   -0.6520   22.8040 C   0  0  1  0  0  0  0  0  0  0  0  0
   10.5770    0.1190   24.0730 C   0  0  0  0  0  0  0  0  0  0  0  0
   11.9080    0.4520   24.1730 C   0  0  2  0  0  0  0  0  0  0  0  0
   12.5660    0.5320   22.9680 C   0  0  0  0  0  0  0  0  0  0  0  0
   13.0250   -0.7200   22.7360 C   0  0  0  0  0  0  0  0  0  0  0  0
   12.9550   -1.2060   24.0110 C   0  0  0  0  0  0  0  0  0  0  0  0
   12.5830   -0.3660   24.8420 O   0  0  0  0  0  0  0  0  0  0  0  0
   10.6290   -1.9830   22.6720 C   0  0  0  0  0  0  0  0  0  0  0  0
    9.6040   -2.7670   22.3070 F   0  0  0  0  0  0  0  0  0  0  0  0
   11.0730   -2.5160   23.8440 F   0  0  0  0  0  0  0  0  0  0  0  0
   11.5940   -2.1220   21.7430 F   0  0  0  0  0  0  0  0  0  0  0  0
  1  2  2  0
  2  3  1  0
  3  4  1  0
  4  5  2  0
  5  6  1  0
  6  7  2  0
  7  8  1  0
  4  9  1  0
  8  9  2  0
  2 10  1  0
 10 11  1  0
 11 12  1  1
 13 12  1  6
 13 14  1  0
 14 15  1  0
 15 16  1  0
 13 17  1  0
 16 17  1  0
 11 18  1  0
 18 19  1  0
 18 20  1  0
 18 21  1  0
M  END
