pyridine_urea_5394
     RDKit          3D

 18 19  0  0  0  0  0  0  0  0999 V2000
    9.7710   -0.0350   25.4140 C   0  0  0  0  0  0  0  0  0  0  0  0
   10.4280   -0.0110   24.0320 C   0  0  0  0  0  0  0  0  0  0  0  0
   10.3700    1.4690   23.5040 C   0  0  0  0  0  0  0  0  0  0  0  0
    9.6390   -0.9410   23.1290 C   0  0  0  0  0  0  0  0  0  0  0  0
    8.4810   -0.3330   22.7100 N   0  0  0  0  0  0  0  0  0  0  0  0
    8.1380    0.1250   21.4890 C   0  0  0  0  0  0  0  0  0  0  0  0
    8.6890    1.1600   21.0750 O   0  0  0  0  0  0  0  0  0  0  0  0
    7.2110   -0.6250   20.8760 N   0  0  0  0  0  0  0  0  0  0  0  0
    6.4960    0.0460   19.9790 C   0  0  0  0  0  0  0  0  0  0  0  0
    5.2060    0.8220   20.2490 C   0  0  0  0  0  0  0  0  0  0  0  0
    4.4590    1.5810   19.1610 C   0  0  0  0  0  0  0  0  0  0  0  0
    5.1590    1.4590   17.8180 C   0  0  0  0  0  0  0  0  0  0  0  0
    6.3100    0.7330   17.6730 N   0  0  0  0  0  0  0  0  0  0  0  0
    6.9560    0.0520   18.6920 C   0  0  0  0  0  0  0  0  0  0  0  0
   11.6480   -0.6390   23.8650 C   0  0  0  0  0  0  0  0  0  0  0  0
   12.8310    0.1470   23.8200 C   0  0  0  0  0  0  0  0  0  0  0  0
   13.0540   -0.5860   22.6730 C   0  0  0  0  0  0  0  0  0  0  0  0
   11.8120   -1.3430   22.6400 C   0  0  0  0  0  0  0  0  0  0  0  0
  2  1  1  0
  2  3  1  0
  2  4  1  0
  4  5  1  0
  5  6  1  0
  6  7  2  0
  6  8  1  0
  8  9  1  0
  9 10  2  0
 10 11  1  0
 11 12  2  0
 12 13  1  0
  9 14  1  0
 13 14  2  0
  2 15  1  0
 15 16  1  0
 16 17  1  0
 15 18  1  0
 17 18  1  0
M  END
