pyridine_urea_4202
     RDKit          3D

 25 27  0  0  0  0  0  0  0  0999 V2000
    8.5300    0.7490   21.0850 O   0  0  0  0  0  0  0  0  0  0  0  0
    8.0640   -0.3650   21.2980 C   0  0  0  0  0  0  0  0  0  0  0  0
    6.8500   -0.7830   20.8870 N   0  0  0  0  0  0  0  0  0  0  0  0
    6.2490   -0.0540   19.8800 C   0  0  0  0  0  0  0  0  0  0  0  0
    5.0360    0.5940   20.1060 C   0  0  0  0  0  0  0  0  0  0  0  0
    4.4620    1.3390   19.0810 C   0  0  0  0  0  0  0  0  0  0  0  0
    5.1290    1.4020   17.8750 C   0  0  0  0  0  0  0  0  0  0  0  0
    6.2920    0.7780   17.6450 N   0  0  0  0  0  0  0  0  0  0  0  0
    6.8200    0.0680   18.6470 C   0  0  0  0  0  0  0  0  0  0  0  0
    8.7500   -1.2840   21.9900 N   0  0  0  0  0  0  0  0  0  0  0  0
    9.7200   -0.6500   22.8140 C   0  0  0  0  0  0  0  0  0  0  0  0
    9.4600   -0.8670   24.3000 C   0  0  0  0  0  0  0  0  0  0  0  0
   10.5220   -0.4530   25.0440 C   0  0  0  0  0  0  0  0  0  0  0  0
   11.3930    0.3250   24.3960 N   0  0  0  0  0  0  0  0  0  0  0  0
   10.8680    1.4590   23.9690 C   0  0  0  0  0  0  0  0  0  0  0  0
   11.7520    2.1170   23.2000 C   0  0  0  0  0  0  0  0  0  0  0  0
   12.7890    1.2770   22.8070 C   0  0  0  0  0  0  0  0  0  0  0  0
   12.9800   -0.0560   23.2110 C   0  0  0  0  0  0  0  0  0  0  0  0
   12.9190   -0.4240   24.6390 C   0  0  0  0  0  0  0  0  0  0  0  0
   13.1620   -1.8470   25.0200 C   0  0  0  0  0  0  0  0  0  0  0  0
   13.4080   -2.7520   24.0400 C   0  0  0  0  0  0  0  0  0  0  0  0
   13.4380   -2.3800   22.6810 C   0  0  0  0  0  0  0  0  0  0  0  0
   13.2390   -1.0540   22.2580 C   0  0  0  0  0  0  0  0  0  0  0  0
   12.1260   -0.4450   23.3230 C   0  0  0  0  0  0  0  0  0  0  0  0
   11.1110   -1.1190   22.6940 C   0  0  0  0  0  0  0  0  0  0  0  0
  1  2  2  0
  2  3  1  0
  3  4  1  0
  4  5  2  0
  5  6  1  0
  6  7  2  0
  7  8  1  0
  4  9  1  0
  8  9  2  0
  2 10  1  0
 10 11  1  0
 11 12  1  0
 12 13  1  0
 13 14  1  0
 14 15  1  0
 15 16  1  0
 16 17  1  0
 17 18  1  0
 18 19  2  0
 19 20  1  0
 20 21  2  0
 21 22  1  0
 18 23  1  0
 22 23  2  0
 14 24  1  0
 11 25  1  0
 24 25  1  0
M  END
