pyridine_urea_1296
     RDKit          3D

 21 22  0  0  0  0  0  0  0  0999 V2000
    8.5020    0.6990   21.2730 O   0  0  0  0  0  0  0  0  0  0  0  0
    7.8720   -0.2960   21.6210 C   0  0  0  0  0  0  0  0  0  0  0  0
    8.2690   -1.0310   22.6820 N   0  0  0  0  0  0  0  0  0  0  0  0
    9.6160   -0.7070   22.9120 C   0  0  0  0  0  0  0  0  0  0  0  0
   10.5230   -1.4850   21.9940 C   0  0  0  0  0  0  0  0  0  0  0  0
   11.8360   -1.2730   22.0610 C   0  0  0  0  0  0  0  0  0  0  0  0
   12.2580   -0.3530   22.9670 C   0  0  0  0  0  0  0  0  0  0  0  0
   13.5310   -0.1970   22.9690 C   0  0  0  0  0  0  0  0  0  0  0  0
   13.8130   -0.9560   23.8760 O   0  0  0  0  0  0  0  0  0  0  0  0
   13.3710   -2.3130   23.7010 C   0  0  0  0  0  0  0  0  0  0  0  0
   12.7550   -2.7100   24.8730 C   0  0  0  0  0  0  0  0  0  0  0  0
   13.7250   -3.2080   25.8050 O   0  0  0  0  0  0  0  0  0  0  0  0
   11.4790    0.3810   23.8350 C   0  0  0  0  0  0  0  0  0  0  0  0
   10.1120    0.2020   23.8170 C   0  0  0  0  0  0  0  0  0  0  0  0
    6.7570   -0.7630   21.0210 N   0  0  0  0  0  0  0  0  0  0  0  0
    6.2510   -0.0660   19.9390 C   0  0  0  0  0  0  0  0  0  0  0  0
    4.9860    0.7050   20.0740 C   0  0  0  0  0  0  0  0  0  0  0  0
    4.4200    1.4390   19.0660 C   0  0  0  0  0  0  0  0  0  0  0  0
    5.1710    1.3950   17.8560 C   0  0  0  0  0  0  0  0  0  0  0  0
    6.3250    0.7050   17.6800 N   0  0  0  0  0  0  0  0  0  0  0  0
    6.8380   -0.0050   18.7060 C   0  0  0  0  0  0  0  0  0  0  0  0
  1  2  2  0
  2  3  1  0
  3  4  1  0
  4  5  2  0
  5  6  1  0
  6  7  2  0
  7  8  1  0
  8  9  1  0
  9 10  1  0
 10 11  1  0
 11 12  1  0
  7 13  1  0
  4 14  1  0
 13 14  2  0
  2 15  1  0
 15 16  1  0
 16 17  2  0
 17 18  1  0
 18 19  2  0
 19 20  1  0
 16 21  1  0
 20 21  2  0
M  END
