pyridine_urea_13943
     RDKit          3D

 24 26  0  0  0  0  0  0  0  0999 V2000
    8.9540    1.2710   21.1890 O   0  0  0  0  0  0  0  0  0  0  0  0
    8.4980    0.1690   21.5240 C   0  0  0  0  0  0  0  0  0  0  0  0
    9.0580   -0.5750   22.5420 N   0  0  0  0  0  0  0  0  0  0  0  0
    9.8880   -1.7330   22.2440 C   0  0  0  0  0  0  0  0  0  0  0  0
   11.3860   -1.5770   22.5300 C   0  0  0  0  0  0  0  0  0  0  0  0
   11.8080   -0.2700   23.0810 C   0  0  0  0  0  0  0  0  0  0  0  0
   12.6530    0.6790   22.8950 C   0  0  0  0  0  0  0  0  0  0  0  0
   11.4840    0.3300   23.8970 C   0  0  0  0  0  0  0  0  0  0  0  0
   10.3930   -0.7630   24.2390 C   0  0  0  0  0  0  0  0  0  0  0  0
   10.2380    0.0980   25.0730 C   0  0  0  0  0  0  0  0  0  0  0  0
    9.1850    0.3750   26.4280 Cl  0  0  0  0  0  0  0  0  0  0  0  0
   11.3410    0.6290   24.2850 C   0  0  0  0  0  0  0  0  0  0  0  0
   11.8820   -2.2980   23.8170 C   0  0  0  0  0  0  0  0  0  0  0  0
   13.2780   -2.2400   23.8040 C   0  0  0  0  0  0  0  0  0  0  0  0
   13.8630   -1.2430   23.0810 O   0  0  0  0  0  0  0  0  0  0  0  0
   13.3570   -1.0330   21.8190 C   0  0  0  0  0  0  0  0  0  0  0  0
   12.3880   -2.0560   21.5320 C   0  0  0  0  0  0  0  0  0  0  0  0
    7.3930   -0.4620   20.9930 N   0  0  0  0  0  0  0  0  0  0  0  0
    6.5700    0.1400   20.0420 C   0  0  0  0  0  0  0  0  0  0  0  0
    5.3010    0.8900   20.3070 C   0  0  0  0  0  0  0  0  0  0  0  0
    4.6010    1.4540   19.2460 C   0  0  0  0  0  0  0  0  0  0  0  0
    5.1230    1.2910   17.9720 C   0  0  0  0  0  0  0  0  0  0  0  0
    6.2550    0.6120   17.6940 N   0  0  0  0  0  0  0  0  0  0  0  0
    6.9370    0.0620   18.7180 C   0  0  0  0  0  0  0  0  0  0  0  0
  1  2  2  0
  2  3  1  0
  3  4  1  0
  5  4  1  0
  5  6  1  0
  6  7  2  0
  7  8  1  0
  8  9  2  0
  9 10  1  0
 10 11  1  0
  6 12  1  0
 10 12  2  0
  5 13  1  0
 13 14  1  0
 14 15  1  0
 15 16  1  0
  5 17  1  0
 16 17  1  0
  2 18  1  0
 18 19  1  0
 19 20  2  0
 20 21  1  0
 21 22  2  0
 22 23  1  0
 19 24  1  0
 23 24  2  0
M  END
