pyridine_urea_5010
     RDKit          3D

 21 22  0  0  0  0  0  0  0  0999 V2000
   13.9780   -2.7150   25.7840 C   0  0  0  0  0  0  0  0  0  0  0  0
   13.0130   -2.5410   24.6760 C   0  0  0  0  0  0  0  0  0  0  0  0
   13.5720   -2.3130   23.4290 C   0  0  0  0  0  0  0  0  0  0  0  0
   13.8280   -1.0850   23.2860 O   0  0  0  0  0  0  0  0  0  0  0  0
   12.5870   -0.6680   23.2880 C   0  0  0  0  0  0  0  0  0  0  0  0
   12.0080    0.4150   23.9420 C   0  0  0  0  0  0  0  0  0  0  0  0
   10.5050    0.6450   23.8010 C   0  0  0  0  0  0  0  0  0  0  0  0
    9.8370   -0.2790   23.0060 C   0  0  0  0  0  0  0  0  0  0  0  0
    8.4480   -0.0770   22.8690 N   0  0  0  0  0  0  0  0  0  0  0  0
    8.1460    0.3880   21.6350 C   0  0  0  0  0  0  0  0  0  0  0  0
    8.8570    1.5340   21.0800 O   0  0  0  0  0  0  0  0  0  0  0  0
    7.1440   -0.3330   21.0510 N   0  0  0  0  0  0  0  0  0  0  0  0
    6.3940    0.2320   20.0370 C   0  0  0  0  0  0  0  0  0  0  0  0
    5.2010    0.9060   20.2040 C   0  0  0  0  0  0  0  0  0  0  0  0
    4.5540    1.4550   19.1100 C   0  0  0  0  0  0  0  0  0  0  0  0
    5.1460    1.3060   17.8610 C   0  0  0  0  0  0  0  0  0  0  0  0
    6.2990    0.6480   17.6710 N   0  0  0  0  0  0  0  0  0  0  0  0
    6.8850    0.1300   18.7560 C   0  0  0  0  0  0  0  0  0  0  0  0
   10.5710   -1.3410   22.3850 C   0  0  0  0  0  0  0  0  0  0  0  0
    9.5730   -2.0190   21.7070 C   0  0  0  0  0  0  0  0  0  0  0  0
   11.8890   -1.5460   22.5010 C   0  0  0  0  0  0  0  0  0  0  0  0
  1  2  1  0
  2  3  1  0
  3  4  1  0
  4  5  1  0
  5  6  2  0
  6  7  1  0
  7  8  2  0
  8  9  1  0
  9 10  1  0
 10 11  2  0
 10 12  1  0
 12 13  1  0
 13 14  2  0
 14 15  1  0
 15 16  2  0
 16 17  1  0
 13 18  1  0
 17 18  2  0
  8 19  1  0
 19 20  1  0
  5 21  1  0
 19 21  2  0
M  END
