pyridine_urea_3866
     RDKit          3D

 22 24  0  0  0  0  0  0  0  0999 V2000
    8.7390    1.2400   21.1420 O   0  0  0  0  0  0  0  0  0  0  0  0
    8.4320    0.0530   21.3120 C   0  0  0  0  0  0  0  0  0  0  0  0
    9.2670   -0.9170   21.7760 N   0  0  0  0  0  0  0  0  0  0  0  0
    9.9170   -0.8830   23.0240 C   0  0  0  0  0  0  0  0  0  0  0  0
   10.0820    0.3750   23.6300 C   0  0  1  0  0  0  0  0  0  0  0  0
   11.3240    0.4800   23.2370 C   0  0  2  0  0  0  0  0  0  0  0  0
   12.1180   -0.0400   24.2300 C   0  0  0  0  0  0  0  0  0  0  0  0
   12.4820   -1.0340   23.4000 C   0  0  0  0  0  0  0  0  0  0  0  0
   12.1400   -1.2970   22.1210 C   0  0  0  0  0  0  0  0  0  0  0  0
   13.1010   -2.3150   22.7300 C   0  0  0  0  0  0  0  0  0  0  0  0
   13.4900   -2.0920   24.0740 C   0  0  0  0  0  0  0  0  0  0  0  0
   13.0100   -0.9560   24.8290 C   0  0  0  0  0  0  0  0  0  0  0  0
   10.8520    1.7590   23.2220 C   0  0  0  0  0  0  0  0  0  0  0  0
   11.2380    2.6500   24.0990 F   0  0  0  0  0  0  0  0  0  0  0  0
   10.3370    2.4580   22.1830 F   0  0  0  0  0  0  0  0  0  0  0  0
    7.1950   -0.4680   21.0250 N   0  0  0  0  0  0  0  0  0  0  0  0
    6.3870    0.1610   20.0810 C   0  0  0  0  0  0  0  0  0  0  0  0
    5.1840    0.8010   20.3720 C   0  0  0  0  0  0  0  0  0  0  0  0
    4.5140    1.4310   19.2000 C   0  0  0  0  0  0  0  0  0  0  0  0
    5.1700    1.3250   17.8520 C   0  0  0  0  0  0  0  0  0  0  0  0
    6.3170    0.6800   17.6740 N   0  0  0  0  0  0  0  0  0  0  0  0
    6.8730    0.1300   18.7700 C   0  0  0  0  0  0  0  0  0  0  0  0
  1  2  2  0
  2  3  1  0
  3  4  1  0
  5  4  1  6
  5  6  1  0
  6  7  1  1
  7  8  2  0
  8  9  1  0
  9 10  2  0
 10 11  1  0
  7 12  1  0
 11 12  2  0
  5 13  1  0
  6 13  1  0
 13 14  1  0
 13 15  1  0
  2 16  1  0
 16 17  1  0
 17 18  2  0
 18 19  1  0
 19 20  2  0
 20 21  1  0
 17 22  1  0
 21 22  2  0
M  END
