pyridine_urea_13442
     RDKit          3D

 20 21  0  0  0  0  0  0  0  0999 V2000
    9.3020    0.4940   25.1680 C   0  0  0  0  0  0  0  0  0  0  0  0
    8.8950    1.7130   24.5260 O   0  0  0  0  0  0  0  0  0  0  0  0
    9.1920    1.7440   23.1870 C   0  0  0  0  0  0  0  0  0  0  0  0
   10.4380    0.8810   22.9330 C   0  0  0  0  0  0  0  0  0  0  0  0
   11.7960    1.4810   23.0190 C   0  0  0  0  0  0  0  0  0  0  0  0
   11.9650    2.9390   23.2780 C   0  0  0  0  0  0  0  0  0  0  0  0
   12.9950    0.5740   22.8020 C   0  0  0  0  0  0  0  0  0  0  0  0
   12.8210   -0.7740   22.5000 C   0  0  0  0  0  0  0  0  0  0  0  0
   11.5250   -1.3520   22.3770 C   0  0  0  0  0  0  0  0  0  0  0  0
   10.3490   -0.6050   22.5720 C   0  0  0  0  0  0  0  0  0  0  0  0
    9.0360   -1.1960   22.4130 N   0  0  0  0  0  0  0  0  0  0  0  0
    8.3040   -0.4170   21.5190 C   0  0  0  0  0  0  0  0  0  0  0  0
    8.8260    0.8360   21.1580 O   0  0  0  0  0  0  0  0  0  0  0  0
    7.1190   -0.9180   21.0420 N   0  0  0  0  0  0  0  0  0  0  0  0
    6.3700   -0.1690   20.1040 C   0  0  0  0  0  0  0  0  0  0  0  0
    5.1420    0.5040   20.3830 C   0  0  0  0  0  0  0  0  0  0  0  0
    4.5820    1.2460   19.1760 C   0  0  0  0  0  0  0  0  0  0  0  0
    5.2180    1.2440   17.9670 C   0  0  0  0  0  0  0  0  0  0  0  0
    6.3660    0.5890   17.7650 N   0  0  0  0  0  0  0  0  0  0  0  0
    6.8970   -0.0850   18.8140 C   0  0  0  0  0  0  0  0  0  0  0  0
  1  2  1  0
  2  3  1  0
  3  4  1  0
  4  5  2  0
  5  6  1  0
  5  7  1  0
  7  8  2  0
  8  9  1  0
  4 10  1  0
  9 10  2  0
 10 11  1  0
 11 12  1  0
 12 13  2  0
 12 14  1  0
 14 15  1  0
 15 16  2  0
 16 17  1  0
 17 18  2  0
 18 19  1  0
 15 20  1  0
 19 20  2  0
M  END
