pyridine_urea_10044
     RDKit          3D

 24 26  0  0  0  0  0  0  0  0999 V2000
    9.1390   -1.0040   20.8930 O   0  0  0  0  0  0  0  0  0  0  0  0
    8.6200   -0.3940   21.7520 C   0  0  0  0  0  0  0  0  0  0  0  0
    9.3220   -0.0550   22.9280 N   0  0  0  0  0  0  0  0  0  0  0  0
   10.5950    0.6120   22.8590 C   0  0  0  0  0  0  0  0  0  0  0  0
   11.8390   -0.0400   22.7400 C   0  0  0  0  0  0  0  0  0  0  0  0
   13.0520    0.6990   22.6170 C   0  0  0  0  0  0  0  0  0  0  0  0
   13.0630    2.1280   22.6020 C   0  0  0  0  0  0  0  0  0  0  0  0
   14.4650    2.7390   22.3560 O   0  0  0  0  0  0  0  0  0  0  0  0
   15.1150    4.0760   22.4210 C   0  0  0  0  0  0  0  0  0  0  0  0
   16.5830    4.4550   23.2260 C   0  0  0  0  0  0  0  0  0  0  0  0
   17.4820    5.0410   22.7100 C   0  0  0  0  0  0  0  0  0  0  0  0
   18.8060    5.6070   23.0880 C   0  0  0  0  0  0  0  0  0  0  0  0
   19.2810    5.4380   24.2410 C   0  0  0  0  0  0  0  0  0  0  0  0
   18.4110    4.7690   24.8950 N   0  0  0  0  0  0  0  0  0  0  0  0
   17.1490    4.3510   24.3700 C   0  0  0  0  0  0  0  0  0  0  0  0
   11.8260    2.7480   22.7690 C   0  0  0  0  0  0  0  0  0  0  0  0
   10.6130    2.0140   22.8920 C   0  0  0  0  0  0  0  0  0  0  0  0
    7.2870    0.0140   21.6180 N   0  0  0  0  0  0  0  0  0  0  0  0
    6.6240    0.3550   20.4330 C   0  0  0  0  0  0  0  0  0  0  0  0
    5.4920    1.1560   20.5460 C   0  0  0  0  0  0  0  0  0  0  0  0
    4.8210    1.5150   19.3790 C   0  0  0  0  0  0  0  0  0  0  0  0
    5.2820    1.0780   18.1480 C   0  0  0  0  0  0  0  0  0  0  0  0
    6.3820    0.2880   17.9700 N   0  0  0  0  0  0  0  0  0  0  0  0
    7.0180   -0.0510   19.1510 C   0  0  0  0  0  0  0  0  0  0  0  0
  1  2  2  0
  2  3  1  0
  3  4  1  0
  4  5  2  0
  5  6  1  0
  6  7  2  0
  7  8  1  0
  8  9  1  0
  9 10  1  0
 10 11  2  0
 11 12  1  0
 12 13  2  0
 13 14  1  0
 10 15  1  0
 14 15  2  0
  7 16  1  0
  4 17  1  0
 16 17  2  0
  2 18  1  0
 18 19  1  0
 19 20  2  0
 20 21  1  0
 21 22  2  0
 22 23  1  0
 19 24  1  0
 23 24  2  0
M  END
