pyridine_urea_13304
     RDKit          3D

 32 34  0  0  0  0  0  0  0  0999 V2000
    8.8540    1.1180   21.2250 O   0  0  0  0  0  0  0  0  0  0  0  0
    8.2370    0.1350   21.6700 C   0  0  0  0  0  0  0  0  0  0  0  0
    7.1720   -0.4880   21.0760 N   0  0  0  0  0  0  0  0  0  0  0  0
    6.4870    0.0980   20.0170 C   0  0  0  0  0  0  0  0  0  0  0  0
    5.3200    0.8160   20.2860 C   0  0  0  0  0  0  0  0  0  0  0  0
    4.6280    1.4290   19.2410 C   0  0  0  0  0  0  0  0  0  0  0  0
    5.1390    1.2940   17.9710 C   0  0  0  0  0  0  0  0  0  0  0  0
    6.2500    0.6030   17.6870 N   0  0  0  0  0  0  0  0  0  0  0  0
    6.8980    0.0210   18.7100 C   0  0  0  0  0  0  0  0  0  0  0  0
    8.5640   -0.4550   22.8760 N   0  0  0  0  0  0  0  0  0  0  0  0
    9.9220   -0.2450   23.3040 C   0  0  1  0  0  0  0  0  0  0  0  0
   10.7940   -0.6040   22.1470 C   0  0  0  0  0  0  0  0  0  0  0  0
   12.0970   -0.4020   22.4730 C   0  0  0  0  0  0  0  0  0  0  0  0
   12.3880   -1.3100   23.3340 C   0  0  0  0  0  0  0  0  0  0  0  0
   13.5320   -1.2230   23.9450 C   0  0  0  0  0  0  0  0  0  0  0  0
   13.9140   -2.1980   24.8460 C   0  0  0  0  0  0  0  0  0  0  0  0
   13.1500   -3.2040   25.1060 C   0  0  0  0  0  0  0  0  0  0  0  0
   13.6730   -4.0740   25.9650 F   0  0  0  0  0  0  0  0  0  0  0  0
   11.9320   -3.2420   24.4680 C   0  0  0  0  0  0  0  0  0  0  0  0
   11.1150   -4.2090   24.7070 F   0  0  0  0  0  0  0  0  0  0  0  0
   11.5510   -2.3270   23.5960 C   0  0  0  0  0  0  0  0  0  0  0  0
   10.1730    1.2470   23.5260 C   0  0  0  0  0  0  0  0  0  0  0  0
    9.8970    2.4450   23.9780 C   0  0  0  0  0  0  0  0  0  0  0  0
   11.2940    2.2170   23.1280 C   0  0  0  0  0  0  0  0  0  0  0  0
   12.2010    3.3230   22.8500 C   0  0  0  0  0  0  0  0  0  0  0  0
   13.3450    3.6620   22.2770 F   0  0  0  0  0  0  0  0  0  0  0  0
   11.3570    3.8040   23.4210 C   0  0  0  0  0  0  0  0  0  0  0  0
   10.9920    5.0860   23.8900 C   0  0  0  0  0  0  0  0  0  0  0  0
   11.0640    6.0340   22.9160 F   0  0  0  0  0  0  0  0  0  0  0  0
   11.7730    5.5650   24.8950 F   0  0  0  0  0  0  0  0  0  0  0  0
    9.7050    5.1690   24.3510 F   0  0  0  0  0  0  0  0  0  0  0  0
   10.9920    2.3450   23.3070 C   0  0  0  0  0  0  0  0  0  0  0  0
  1  2  2  0
  2  3  1  0
  3  4  1  0
  4  5  2  0
  5  6  1  0
  6  7  2  0
  7  8  1  0
  4  9  1  0
  8  9  2  0
  2 10  1  0
 10 11  1  0
 11 12  1  6
 12 13  1  0
 13 14  1  0
 14 15  2  0
 15 16  1  0
 16 17  2  0
 17 18  1  0
 17 19  1  0
 19 20  1  0
 14 21  1  0
 19 21  2  0
 11 22  1  0
 22 23  2  0
 23 24  1  0
 24 25  2  0
 25 26  1  0
 25 27  1  0
 27 28  1  0
 28 29  1  0
 28 30  1  0
 28 31  1  0
 22 32  1  0
 27 32  2  0
M  END
