pyridine_urea_1728
     RDKit          3D

 18 19  0  0  0  0  0  0  0  0999 V2000
    8.9590    0.9380   21.6570 O   0  0  0  0  0  0  0  0  0  0  0  0
    8.6510   -0.2250   21.4530 C   0  0  0  0  0  0  0  0  0  0  0  0
    9.5170   -1.2970   21.5410 N   0  0  0  0  0  0  0  0  0  0  0  0
   10.4480   -1.5850   22.5750 C   0  0  0  0  0  0  0  0  0  0  0  0
   11.8330   -1.6770   22.2550 C   0  0  0  0  0  0  0  0  0  0  0  0
   12.6450   -0.7110   22.8410 C   0  0  0  0  0  0  0  0  0  0  0  0
   11.8280    0.0720   23.5850 C   0  0  0  0  0  0  0  0  0  0  0  0
   11.0400    1.0890   24.2150 C   0  0  0  0  0  0  0  0  0  0  0  0
   11.0500    2.3500   23.7970 C   0  0  0  0  0  0  0  0  0  0  0  0
   11.9870    2.2940   22.7230 C   0  0  0  0  0  0  0  0  0  0  0  0
   12.3490    0.9100   22.7150 O   0  0  0  0  0  0  0  0  0  0  0  0
    7.3840   -0.6230   21.0630 N   0  0  0  0  0  0  0  0  0  0  0  0
    6.6440   -0.0170   20.0850 C   0  0  0  0  0  0  0  0  0  0  0  0
    5.4910    0.7000   20.4290 C   0  0  0  0  0  0  0  0  0  0  0  0
    4.7490    1.3270   19.4250 C   0  0  0  0  0  0  0  0  0  0  0  0
    5.1730    1.2210   18.1140 C   0  0  0  0  0  0  0  0  0  0  0  0
    6.2650    0.5380   17.7600 N   0  0  0  0  0  0  0  0  0  0  0  0
    6.9680   -0.0610   18.7450 C   0  0  0  0  0  0  0  0  0  0  0  0
  1  2  2  0
  2  3  1  0
  3  4  1  0
  4  5  1  0
  5  6  1  0
  6  7  1  0
  7  8  2  0
  8  9  1  0
  9 10  2  0
  7 11  1  0
 10 11  1  0
  2 12  1  0
 12 13  1  0
 13 14  2  0
 14 15  1  0
 15 16  2  0
 16 17  1  0
 13 18  1  0
 17 18  2  0
M  END
