pyridine_urea_8692
     RDKit          3D

 21 22  0  0  0  0  0  0  0  0999 V2000
   10.8240   -2.5910   24.6580 C   0  0  0  0  0  0  0  0  0  0  0  0
   11.4910   -1.4390   25.1550 O   0  0  0  0  0  0  0  0  0  0  0  0
   11.1810   -0.3430   24.4280 C   0  0  0  0  0  0  0  0  0  0  0  0
   10.2270   -0.5040   25.2180 C   0  0  0  0  0  0  0  0  0  0  0  0
   11.4820   -1.1350   24.9480 C   0  0  0  0  0  0  0  0  0  0  0  0
   11.4440   -0.0050   23.9120 C   0  0  0  0  0  0  0  0  0  0  0  0
   11.5530    1.0170   22.8780 C   0  0  0  0  0  0  0  0  0  0  0  0
   10.2260    1.2900   22.5980 C   0  0  0  0  0  0  0  0  0  0  0  0
    9.4790    0.0830   22.2250 N   0  0  0  0  0  0  0  0  0  0  0  0
    8.4730    0.4420   21.3860 C   0  0  0  0  0  0  0  0  0  0  0  0
    8.4890    1.7830   20.8550 O   0  0  0  0  0  0  0  0  0  0  0  0
    7.4850   -0.4510   21.0670 N   0  0  0  0  0  0  0  0  0  0  0  0
    6.5880    0.0530   20.1150 C   0  0  0  0  0  0  0  0  0  0  0  0
    5.3890    0.6860   20.3890 C   0  0  0  0  0  0  0  0  0  0  0  0
    4.6030    1.1830   19.3580 C   0  0  0  0  0  0  0  0  0  0  0  0
    5.0620    1.0210   18.0540 C   0  0  0  0  0  0  0  0  0  0  0  0
    6.2080    0.4030   17.7500 N   0  0  0  0  0  0  0  0  0  0  0  0
    6.9380   -0.0650   18.7810 C   0  0  0  0  0  0  0  0  0  0  0  0
   12.7450   -0.1740   23.2130 C   0  0  0  0  0  0  0  0  0  0  0  0
   12.3960   -0.8920   24.0930 C   0  0  0  0  0  0  0  0  0  0  0  0
   13.3620   -2.3880   24.7680 Br  0  0  0  0  0  0  0  0  0  0  0  0
  1  2  1  0
  2  3  1  0
  3  4  2  0
  4  5  1  0
  5  6  2  0
  6  7  1  0
  7  8  1  0
  8  9  1  0
  9 10  1  0
 10 11  2  0
 10 12  1  0
 12 13  1  0
 13 14  2  0
 14 15  1  0
 15 16  2  0
 16 17  1  0
 13 18  1  0
 17 18  2  0
  6 19  1  0
  3 20  1  0
 19 20  2  0
 20 21  1  0
M  END
