pyridine_urea_3622
     RDKit          3D

 17 18  0  0  0  0  0  0  0  0999 V2000
   10.1990    1.5660   22.8780 C   0  0  0  0  0  0  0  0  0  0  0  0
   10.9090    0.3760   22.2910 C   0  0  0  0  0  0  0  0  0  0  0  0
   11.1370   -0.7180   23.2190 C   0  0  0  0  0  0  0  0  0  0  0  0
   10.0550   -1.7470   22.9640 C   0  0  0  0  0  0  0  0  0  0  0  0
    8.7330   -1.0590   22.7850 N   0  0  0  0  0  0  0  0  0  0  0  0
    8.3380   -0.3070   21.6680 C   0  0  0  0  0  0  0  0  0  0  0  0
    8.9020    0.7030   21.3020 O   0  0  0  0  0  0  0  0  0  0  0  0
    7.1880   -0.8260   21.0360 N   0  0  0  0  0  0  0  0  0  0  0  0
    6.4590   -0.1100   20.1000 C   0  0  0  0  0  0  0  0  0  0  0  0
    5.1590    0.6580   20.3760 C   0  0  0  0  0  0  0  0  0  0  0  0
    4.6150    1.3120   19.2640 C   0  0  0  0  0  0  0  0  0  0  0  0
    5.2350    1.2460   18.0210 C   0  0  0  0  0  0  0  0  0  0  0  0
    6.3680    0.5730   17.7840 N   0  0  0  0  0  0  0  0  0  0  0  0
    6.9460   -0.0830   18.8100 C   0  0  0  0  0  0  0  0  0  0  0  0
   11.4220   -0.2880   24.4690 C   0  0  0  0  0  0  0  0  0  0  0  0
   12.6860   -0.2920   24.2350 C   0  0  0  0  0  0  0  0  0  0  0  0
   12.6700   -1.2090   23.0460 C   0  0  0  0  0  0  0  0  0  0  0  0
  1  2  1  0
  3  2  1  0
  3  4  1  0
  4  5  1  0
  5  6  1  0
  6  7  2  0
  6  8  1  0
  8  9  1  0
  9 10  2  0
 10 11  1  0
 11 12  2  0
 12 13  1  0
  9 14  1  0
 13 14  2  0
  3 15  1  0
 15 16  1  0
  3 17  1  0
 16 17  1  0
M  END
