pyridine_urea_2468
     RDKit          3D

 24 26  0  0  0  0  0  0  0  0999 V2000
   11.4660    1.0650   22.8010 C   0  0  0  0  0  0  0  0  0  0  0  0
   12.0090   -0.1630   23.5310 C   0  0  0  0  0  0  0  0  0  0  0  0
   12.9510    0.6330   22.9210 C   0  0  0  0  0  0  0  0  0  0  0  0
   13.0450   -0.3990   23.5910 C   0  0  0  0  0  0  0  0  0  0  0  0
   11.7170   -0.8500   23.9930 C   0  0  0  0  0  0  0  0  0  0  0  0
   10.4060   -0.4750   23.8300 C   0  0  1  0  0  0  0  0  0  0  0  0
   10.0010   -1.0720   22.6370 C   0  0  0  0  0  0  0  0  0  0  0  0
    8.5610   -0.9930   22.5440 N   0  0  0  0  0  0  0  0  0  0  0  0
    8.0930   -0.1430   21.6050 C   0  0  0  0  0  0  0  0  0  0  0  0
    8.6930    0.8730   21.2700 O   0  0  0  0  0  0  0  0  0  0  0  0
    6.9000   -0.5750   21.1200 N   0  0  0  0  0  0  0  0  0  0  0  0
    6.3210    0.0700   20.0450 C   0  0  0  0  0  0  0  0  0  0  0  0
    5.1350    0.7890   20.1480 C   0  0  0  0  0  0  0  0  0  0  0  0
    4.5530    1.4560   19.0880 C   0  0  0  0  0  0  0  0  0  0  0  0
    5.1820    1.4070   17.8640 C   0  0  0  0  0  0  0  0  0  0  0  0
    6.3200    0.7510   17.6120 N   0  0  0  0  0  0  0  0  0  0  0  0
    6.8890    0.0980   18.6400 C   0  0  0  0  0  0  0  0  0  0  0  0
    9.4890   -0.8950   24.7730 N   0  0  0  0  0  0  0  0  0  0  0  0
    8.3510   -0.1570   24.9840 C   0  0  0  0  0  0  0  0  0  0  0  0
    7.3140   -1.0470   25.2060 C   0  0  0  0  0  0  0  0  0  0  0  0
    7.8570   -2.3260   25.1160 C   0  0  0  0  0  0  0  0  0  0  0  0
    9.2320   -2.2950   24.8420 C   0  0  0  0  0  0  0  0  0  0  0  0
   12.1900   -1.7990   24.5710 C   0  0  0  0  0  0  0  0  0  0  0  0
   13.3070   -1.2190   24.0870 C   0  0  0  0  0  0  0  0  0  0  0  0
  1  2  1  0
  2  3  2  0
  3  4  1  0
  4  5  2  0
  5  6  1  0
  6  7  1  6
  7  8  1  0
  8  9  1  0
  9 10  2  0
  9 11  1  0
 11 12  1  0
 12 13  2  0
 13 14  1  0
 14 15  2  0
 15 16  1  0
 12 17  1  0
 16 17  2  0
  6 18  1  0
 18 19  1  0
 19 20  1  0
 20 21  1  0
 18 22  1  0
 21 22  1  0
  5 23  1  0
  2 24  1  0
 23 24  2  0
M  END
