pyridine_urea_3833
     RDKit          3D

 18 20  0  0  0  0  0  0  0  0999 V2000
   13.1450   -0.1280   22.3200 C   0  0  0  0  0  0  0  0  0  0  0  0
   12.1720   -1.2440   22.1490 C   0  0  0  0  0  0  0  0  0  0  0  0
   12.4350   -2.1810   21.1930 C   0  0  0  0  0  0  0  0  0  0  0  0
   12.5420   -1.9650   23.3190 O   0  0  0  0  0  0  0  0  0  0  0  0
   12.1330   -1.1920   24.3190 C   0  0  0  0  0  0  0  0  0  0  0  0
   10.8870   -0.6970   24.0090 C   0  0  1  0  0  0  0  0  0  0  0  0
   10.5840    0.2790   23.2680 C   0  0  0  0  0  0  0  0  0  0  0  0
   10.8170   -0.8520   22.4310 C   0  0  1  0  0  0  0  0  0  0  0  0
    9.5950   -1.2670   21.7460 N   0  0  0  0  0  0  0  0  0  0  0  0
    8.6880   -0.2660   21.4300 C   0  0  0  0  0  0  0  0  0  0  0  0
    9.0540    1.1130   21.4730 O   0  0  0  0  0  0  0  0  0  0  0  0
    7.3690   -0.7300   21.0280 N   0  0  0  0  0  0  0  0  0  0  0  0
    6.6190   -0.0970   20.0740 C   0  0  0  0  0  0  0  0  0  0  0  0
    5.4750    0.6190   20.4560 C   0  0  0  0  0  0  0  0  0  0  0  0
    4.7480    1.2660   19.4590 C   0  0  0  0  0  0  0  0  0  0  0  0
    5.1570    1.1940   18.1490 C   0  0  0  0  0  0  0  0  0  0  0  0
    6.2310    0.5200   17.7440 N   0  0  0  0  0  0  0  0  0  0  0  0
    6.9360   -0.1100   18.7200 C   0  0  0  0  0  0  0  0  0  0  0  0
  2  1  1  0
  2  3  1  0
  2  4  1  0
  4  5  1  0
  6  5  1  6
  6  7  1  0
  2  8  1  0
  6  8  1  0
  7  8  1  0
  8  9  1  1
  9 10  1  0
 10 11  2  0
 10 12  1  0
 12 13  1  0
 13 14  2  0
 14 15  1  0
 15 16  2  0
 16 17  1  0
 13 18  1  0
 17 18  2  0
M  END
