pyridine_urea_8209
     RDKit          3D

 23 25  0  0  0  0  0  0  0  0999 V2000
   10.5740   -0.9380   21.6170 C   0  0  0  0  0  0  0  0  0  0  0  0
    9.9560   -1.6480   22.7430 C   0  0  2  0  0  0  0  0  0  0  0  0
    8.5490   -1.3120   22.7940 N   0  0  0  0  0  0  0  0  0  0  0  0
    8.1470   -0.3790   21.7220 C   0  0  0  0  0  0  0  0  0  0  0  0
    8.7420    0.6540   21.4210 O   0  0  0  0  0  0  0  0  0  0  0  0
    6.9000   -0.9170   21.0880 N   0  0  0  0  0  0  0  0  0  0  0  0
    6.3360   -0.1220   20.0050 C   0  0  0  0  0  0  0  0  0  0  0  0
    5.0570    0.6960   20.2480 C   0  0  0  0  0  0  0  0  0  0  0  0
    4.5420    1.4440   19.2040 C   0  0  0  0  0  0  0  0  0  0  0  0
    5.2310    1.4490   17.8570 C   0  0  0  0  0  0  0  0  0  0  0  0
    6.3720    0.6940   17.6950 N   0  0  0  0  0  0  0  0  0  0  0  0
    6.9130   -0.0740   18.7420 C   0  0  0  0  0  0  0  0  0  0  0  0
   10.5110   -1.0920   24.0040 C   0  0  0  0  0  0  0  0  0  0  0  0
    9.8530   -0.7400   25.0600 C   0  0  0  0  0  0  0  0  0  0  0  0
   11.2390   -0.4730   25.4240 C   0  0  0  0  0  0  0  0  0  0  0  0
   11.4550   -1.0840   23.8190 C   0  0  0  0  0  0  0  0  0  0  0  0
   12.2150   -1.4560   22.7090 C   0  0  0  0  0  0  0  0  0  0  0  0
   12.1730   -2.6690   22.1390 N   0  0  0  0  0  0  0  0  0  0  0  0
   13.0430   -2.6450   21.0900 N   0  0  0  0  0  0  0  0  0  0  0  0
   13.6160   -1.4630   21.0030 N   0  0  0  0  0  0  0  0  0  0  0  0
   13.1170   -0.7230   22.0030 N   0  0  0  0  0  0  0  0  0  0  0  0
   12.9070   -0.8340   24.0250 C   0  0  0  0  0  0  0  0  0  0  0  0
   11.8100   -0.6890   24.6810 C   0  0  0  0  0  0  0  0  0  0  0  0
  2  1  1  6
  2  3  1  0
  3  4  1  0
  4  5  2  0
  4  6  1  0
  6  7  1  0
  7  8  2  0
  8  9  1  0
  9 10  2  0
 10 11  1  0
  7 12  1  0
 11 12  2  0
  2 13  1  0
 13 14  2  0
 14 15  1  0
 15 16  2  0
 16 17  1  0
 17 18  2  0
 18 19  1  0
 19 20  2  0
 17 21  1  0
 20 21  1  0
 16 22  1  0
 13 23  1  0
 22 23  2  0
M  END
