pyridine_urea_13367
     RDKit          3D

 18 19  0  0  0  0  0  0  0  0999 V2000
    8.9510    1.1980   21.2330 O   0  0  0  0  0  0  0  0  0  0  0  0
    8.4950    0.0880   21.5450 C   0  0  0  0  0  0  0  0  0  0  0  0
    9.0620   -0.7890   22.4380 N   0  0  0  0  0  0  0  0  0  0  0  0
    8.8620   -0.8250   23.8310 C   0  0  0  0  0  0  0  0  0  0  0  0
    9.6220    0.0440   24.6060 C   0  0  0  0  0  0  0  0  0  0  0  0
   10.8440    0.1890   24.0340 C   0  0  0  0  0  0  0  0  0  0  0  0
   11.1960    1.4080   23.5630 C   0  0  0  0  0  0  0  0  0  0  0  0
   12.5170    1.5830   22.8950 C   0  0  0  0  0  0  0  0  0  0  0  0
   13.1800    0.3680   22.6670 C   0  0  0  0  0  0  0  0  0  0  0  0
   12.9930   -0.6010   23.8160 C   0  0  0  0  0  0  0  0  0  0  0  0
   11.6790   -0.9260   23.9240 C   0  0  0  0  0  0  0  0  0  0  0  0
    7.3250   -0.4460   21.0590 N   0  0  0  0  0  0  0  0  0  0  0  0
    6.5760    0.1390   20.0390 C   0  0  0  0  0  0  0  0  0  0  0  0
    5.4220    0.8660   20.3610 C   0  0  0  0  0  0  0  0  0  0  0  0
    4.7310    1.4400   19.3030 C   0  0  0  0  0  0  0  0  0  0  0  0
    5.1550    1.3030   18.0080 C   0  0  0  0  0  0  0  0  0  0  0  0
    6.2410    0.6110   17.6690 N   0  0  0  0  0  0  0  0  0  0  0  0
    6.9240    0.0450   18.6940 C   0  0  0  0  0  0  0  0  0  0  0  0
  1  2  2  0
  2  3  1  0
  3  4  1  0
  4  5  1  0
  5  6  1  0
  6  7  2  0
  7  8  1  0
  8  9  1  0
  9 10  1  0
  6 11  1  0
 10 11  1  0
  2 12  1  0
 12 13  1  0
 13 14  2  0
 14 15  1  0
 15 16  2  0
 16 17  1  0
 13 18  1  0
 17 18  2  0
M  END
