pyridine_urea_14663
     RDKit          3D

 20 21  0  0  0  0  0  0  0  0999 V2000
    8.9370    1.1610   21.1570 O   0  0  0  0  0  0  0  0  0  0  0  0
    8.5920   -0.0170   21.3070 C   0  0  0  0  0  0  0  0  0  0  0  0
    9.3970   -1.0300   21.7810 N   0  0  0  0  0  0  0  0  0  0  0  0
    9.4500   -1.3080   23.1320 C   0  0  0  0  0  0  0  0  0  0  0  0
    8.6600   -0.4730   23.9000 C   0  0  0  0  0  0  0  0  0  0  0  0
    8.6180   -0.6680   25.2580 C   0  0  0  0  0  0  0  0  0  0  0  0
    7.8110    0.2530   25.9290 N   0  0  0  0  0  0  0  0  0  0  0  0
    7.4860    0.0460   27.6060 S   0  0  0  0  0  0  0  0  0  0  0  0
    8.7160   -0.2060   28.3140 O   0  0  0  0  0  0  0  0  0  0  0  0
    6.5900    1.1050   28.0190 O   0  0  0  0  0  0  0  0  0  0  0  0
    6.5410   -1.4550   27.5940 C   0  0  0  0  0  0  0  0  0  0  0  0
    5.3980   -1.4820   28.1020 C   0  0  0  0  0  0  0  0  0  0  0  0
    6.5760   -2.2030   28.8900 C   0  0  0  0  0  0  0  0  0  0  0  0
    7.3210   -0.4800   21.0140 N   0  0  0  0  0  0  0  0  0  0  0  0
    6.5680    0.1170   20.0110 C   0  0  0  0  0  0  0  0  0  0  0  0
    5.4110    0.8280   20.3210 C   0  0  0  0  0  0  0  0  0  0  0  0
    4.7120    1.4210   19.2970 C   0  0  0  0  0  0  0  0  0  0  0  0
    5.1220    1.3310   17.9830 C   0  0  0  0  0  0  0  0  0  0  0  0
    6.2250    0.6400   17.6660 N   0  0  0  0  0  0  0  0  0  0  0  0
    6.9140    0.0550   18.6770 C   0  0  0  0  0  0  0  0  0  0  0  0
  1  2  2  0
  2  3  1  0
  3  4  1  0
  4  5  1  0
  5  6  1  0
  6  7  1  0
  8  7  1  0
  8  9  2  0
  8 10  2  0
  8 11  1  0
 11 12  1  0
 11 13  1  0
 12 13  1  0
  2 14  1  0
 14 15  1  0
 15 16  2  0
 16 17  1  0
 17 18  2  0
 18 19  1  0
 15 20  1  0
 19 20  2  0
M  END
