pyridine_urea_7138
     RDKit          3D

 19 20  0  0  0  0  0  0  0  0999 V2000
   13.6350   -2.8420   23.5870 C   0  0  0  0  0  0  0  0  0  0  0  0
   12.8550   -2.6160   22.4780 N   0  0  0  0  0  0  0  0  0  0  0  0
   13.1580   -2.7770   21.1080 C   0  0  0  0  0  0  0  0  0  0  0  0
   12.3140   -1.3530   22.7110 C   0  0  0  0  0  0  0  0  0  0  0  0
   11.0840   -1.1070   22.9270 N   0  0  0  0  0  0  0  0  0  0  0  0
   10.9500    0.2750   23.1220 C   0  0  0  0  0  0  0  0  0  0  0  0
    9.6890    0.7120   23.3690 C   0  0  0  0  0  0  0  0  0  0  0  0
    8.8050   -0.2120   22.6590 N   0  0  0  0  0  0  0  0  0  0  0  0
    8.2130    0.1950   21.4840 C   0  0  0  0  0  0  0  0  0  0  0  0
    8.5960    1.2610   20.9740 O   0  0  0  0  0  0  0  0  0  0  0  0
    7.2310   -0.6570   21.0340 N   0  0  0  0  0  0  0  0  0  0  0  0
    6.5340    0.0170   20.0200 C   0  0  0  0  0  0  0  0  0  0  0  0
    5.3770    0.7400   20.3130 C   0  0  0  0  0  0  0  0  0  0  0  0
    4.7060    1.4100   19.2800 C   0  0  0  0  0  0  0  0  0  0  0  0
    5.2150    1.3360   17.9940 C   0  0  0  0  0  0  0  0  0  0  0  0
    6.3180    0.6420   17.7060 N   0  0  0  0  0  0  0  0  0  0  0  0
    6.9480    0.0010   18.7110 C   0  0  0  0  0  0  0  0  0  0  0  0
   11.9770    1.3160   23.0980 C   0  0  0  0  0  0  0  0  0  0  0  0
   13.2600    0.0260   22.7440 S   0  0  0  0  0  0  0  0  0  0  0  0
  1  2  1  0
  2  3  1  0
  2  4  1  0
  4  5  2  0
  5  6  1  0
  6  7  1  0
  7  8  1  0
  8  9  1  0
  9 10  2  0
  9 11  1  0
 11 12  1  0
 12 13  2  0
 13 14  1  0
 14 15  2  0
 15 16  1  0
 12 17  1  0
 16 17  2  0
  6 18  2  0
  4 19  1  0
 18 19  1  0
M  END
