pyridine_urea_6360
     RDKit          3D

 23 24  0  0  0  0  0  0  0  0999 V2000
   12.4030   -1.9010   24.4350 C   0  0  0  0  0  0  0  0  0  0  0  0
   11.2990   -0.9880   24.5190 O   0  0  0  0  0  0  0  0  0  0  0  0
   10.4810   -0.6950   23.3390 C   0  0  0  0  0  0  0  0  0  0  0  0
    9.5050   -0.9670   24.0420 O   0  0  0  0  0  0  0  0  0  0  0  0
   11.9150   -0.4740   22.8680 C   0  0  0  0  0  0  0  0  0  0  0  0
   12.7560    0.7200   23.3360 C   0  0  0  0  0  0  0  0  0  0  0  0
   12.9330   -0.2760   22.6090 C   0  0  0  0  0  0  0  0  0  0  0  0
   11.6320   -1.0880   22.3780 C   0  0  0  0  0  0  0  0  0  0  0  0
   10.1960   -0.8810   22.7850 C   0  0  1  0  0  0  0  0  0  0  0  0
    9.9630    0.4510   22.9170 C   0  0  0  0  0  0  0  0  0  0  0  0
    9.3360   -1.4010   21.6800 N   0  0  0  0  0  0  0  0  0  0  0  0
    8.5630   -0.2620   21.4840 C   0  0  0  0  0  0  0  0  0  0  0  0
    8.9990    0.8800   21.4880 O   0  0  0  0  0  0  0  0  0  0  0  0
    7.2440   -0.5820   21.2280 N   0  0  0  0  0  0  0  0  0  0  0  0
    6.5170    0.0480   20.1120 C   0  0  0  0  0  0  0  0  0  0  0  0
    5.3830    0.7770   20.4650 C   0  0  0  0  0  0  0  0  0  0  0  0
    4.6700    1.4050   19.4650 C   0  0  0  0  0  0  0  0  0  0  0  0
    5.1410    1.2800   18.0440 C   0  0  0  0  0  0  0  0  0  0  0  0
    6.2290    0.5700   17.7030 N   0  0  0  0  0  0  0  0  0  0  0  0
    6.9080   -0.0370   18.7040 C   0  0  0  0  0  0  0  0  0  0  0  0
   11.5520   -2.2900   21.6310 C   0  0  0  0  0  0  0  0  0  0  0  0
   12.7260   -1.5490   21.8340 C   0  0  0  0  0  0  0  0  0  0  0  0
   13.0550   -2.5990   21.0030 C   0  0  0  0  0  0  0  0  0  0  0  0
  1  2  1  0
  2  3  1  0
  3  4  2  0
  3  5  1  0
  5  6  2  0
  6  7  1  0
  7  8  2  0
  8  9  1  0
  9 10  1  6
  9 11  1  0
 11 12  1  0
 12 13  2  0
 12 14  1  0
 14 15  1  0
 15 16  2  0
 16 17  1  0
 17 18  2  0
 18 19  1  0
 15 20  1  0
 19 20  2  0
  8 21  1  0
  5 22  1  0
 21 22  2  0
 22 23  1  0
M  END
