pyridine_urea_7668
     RDKit          3D

 17 19  0  0  0  0  0  0  0  0999 V2000
    9.0280    0.7760   21.4230 O   0  0  0  0  0  0  0  0  0  0  0  0
    8.4970   -0.2960   21.6620 C   0  0  0  0  0  0  0  0  0  0  0  0
    9.0330   -1.2820   22.4640 N   0  0  0  0  0  0  0  0  0  0  0  0
   10.3510   -1.8010   22.4330 C   0  0  0  0  0  0  0  0  0  0  0  0
   11.3990   -0.9040   22.2610 C   0  0  2  0  0  0  0  0  0  0  0  0
   12.6560   -1.1430   22.2550 C   0  0  0  0  0  0  0  0  0  0  0  0
   12.2650   -0.8580   23.5900 C   0  0  1  0  0  0  0  0  0  0  0  0
   12.1450    0.3610   24.1760 C   0  0  0  0  0  0  0  0  0  0  0  0
   11.8410    1.4800   23.4040 C   0  0  0  0  0  0  0  0  0  0  0  0
   10.6550    0.8070   24.0680 C   0  0  0  0  0  0  0  0  0  0  0  0
    7.2660   -0.6850   21.1850 N   0  0  0  0  0  0  0  0  0  0  0  0
    6.5650   -0.0350   20.1550 C   0  0  0  0  0  0  0  0  0  0  0  0
    5.4050    0.7170   20.3780 C   0  0  0  0  0  0  0  0  0  0  0  0
    4.7050    1.3770   19.3650 C   0  0  0  0  0  0  0  0  0  0  0  0
    5.1670    1.2950   18.0590 C   0  0  0  0  0  0  0  0  0  0  0  0
    6.2600    0.6020   17.7050 N   0  0  0  0  0  0  0  0  0  0  0  0
    6.9310   -0.0330   18.6860 C   0  0  0  0  0  0  0  0  0  0  0  0
  1  2  2  0
  2  3  1  0
  3  4  1  0
  5  4  1  1
  5  6  1  0
  5  7  1  0
  6  7  1  0
  7  8  1  6
  8  9  1  0
  8 10  1  0
  9 10  1  0
  2 11  1  0
 11 12  1  0
 12 13  2  0
 13 14  1  0
 14 15  2  0
 15 16  1  0
 12 17  1  0
 16 17  2  0
M  END
