pyridine_urea_2713
     RDKit          3D

 23 25  0  0  0  0  0  0  0  0999 V2000
    8.9680    1.3260   21.2140 O   0  0  0  0  0  0  0  0  0  0  0  0
    8.2160    0.4430   21.6330 C   0  0  0  0  0  0  0  0  0  0  0  0
    8.1650    0.0140   22.9240 N   0  0  0  0  0  0  0  0  0  0  0  0
    6.9260   -0.6260   23.3600 C   0  0  0  0  0  0  0  0  0  0  0  0
    7.0760   -2.1790   23.4120 C   0  0  0  0  0  0  0  0  0  0  0  0
    8.5110   -2.5590   23.2240 N   0  0  0  0  0  0  0  0  0  0  0  0
    9.4850   -1.4790   23.4830 C   0  0  0  0  0  0  0  0  0  0  0  0
    9.1410   -0.4090   24.5420 C   0  0  0  0  0  0  0  0  0  0  0  0
   10.0360    0.6080   24.8030 C   0  0  0  0  0  0  0  0  0  0  0  0
   11.3730    0.6990   24.0880 C   0  0  0  0  0  0  0  0  0  0  0  0
   11.6460   -0.3810   23.0820 C   0  0  0  0  0  0  0  0  0  0  0  0
   12.9960   -0.2520   22.4280 C   0  0  0  0  0  0  0  0  0  0  0  0
   13.3180   -1.3190   21.4020 C   0  0  0  0  0  0  0  0  0  0  0  0
   12.3400   -2.4120   21.0750 C   0  0  0  0  0  0  0  0  0  0  0  0
   11.0330   -2.3580   21.8480 C   0  0  0  0  0  0  0  0  0  0  0  0
   10.7420   -1.4080   22.7850 C   0  0  0  0  0  0  0  0  0  0  0  0
    7.2890   -0.2550   20.9300 N   0  0  0  0  0  0  0  0  0  0  0  0
    6.5410    0.2730   19.9130 C   0  0  0  0  0  0  0  0  0  0  0  0
    5.3700    0.9640   20.2270 C   0  0  0  0  0  0  0  0  0  0  0  0
    4.6600    1.5070   19.1870 C   0  0  0  0  0  0  0  0  0  0  0  0
    5.1180    1.3560   17.8840 C   0  0  0  0  0  0  0  0  0  0  0  0
    6.2280    0.6850   17.5810 N   0  0  0  0  0  0  0  0  0  0  0  0
    6.9080    0.1630   18.6060 C   0  0  0  0  0  0  0  0  0  0  0  0
  1  2  2  0
  2  3  1  0
  3  4  1  0
  4  5  1  0
  5  6  1  0
  6  7  1  0
  7  8  2  0
  8  9  1  0
  9 10  2  0
 10 11  1  0
 11 12  1  0
 12 13  2  0
 13 14  1  0
 14 15  2  0
  7 16  1  0
 11 16  2  0
 15 16  1  0
  2 17  1  0
 17 18  1  0
 18 19  2  0
 19 20  1  0
 20 21  2  0
 21 22  1  0
 18 23  1  0
 22 23  2  0
M  END
