pyridine_urea_3763
     RDKit          3D

 18 19  0  0  0  0  0  0  0  0999 V2000
   13.1400   -2.3940   21.1890 C   0  0  0  0  0  0  0  0  0  0  0  0
   13.2360   -1.7730   22.5790 C   0  0  0  0  0  0  0  0  0  0  0  0
   12.4130   -0.5200   22.6780 C   0  0  2  0  0  0  0  0  0  0  0  0
   12.4990    0.1620   23.9980 C   0  0  0  0  0  0  0  0  0  0  0  0
   11.1120    0.4790   24.5080 C   0  0  0  0  0  0  0  0  0  0  0  0
   10.0200    0.3590   23.5000 C   0  0  0  0  0  0  0  0  0  0  0  0
    9.8990   -1.1200   23.1780 C   0  0  1  0  0  0  0  0  0  0  0  0
    8.6330   -1.3780   22.4930 N   0  0  0  0  0  0  0  0  0  0  0  0
    8.1830   -0.4440   21.5790 C   0  0  0  0  0  0  0  0  0  0  0  0
    8.7830    0.5980   21.3460 O   0  0  0  0  0  0  0  0  0  0  0  0
    7.0010   -0.8230   21.0010 N   0  0  0  0  0  0  0  0  0  0  0  0
    6.3240   -0.0720   20.0330 C   0  0  0  0  0  0  0  0  0  0  0  0
    5.1490    0.6260   20.2090 C   0  0  0  0  0  0  0  0  0  0  0  0
    4.6060    1.3350   19.1550 C   0  0  0  0  0  0  0  0  0  0  0  0
    5.2220    1.3610   17.9160 C   0  0  0  0  0  0  0  0  0  0  0  0
    6.3650    0.6880   17.7040 N   0  0  0  0  0  0  0  0  0  0  0  0
    6.8680    0.0030   18.7570 C   0  0  0  0  0  0  0  0  0  0  0  0
   10.9980   -0.8710   22.1660 C   0  0  0  0  0  0  0  0  0  0  0  0
  1  2  2  3
  3  2  1  1
  3  4  1  0
  4  5  1  0
  5  6  1  0
  6  7  1  0
  7  8  1  6
  8  9  1  0
  9 10  2  0
  9 11  1  0
 11 12  1  0
 12 13  2  0
 13 14  1  0
 14 15  2  0
 15 16  1  0
 12 17  1  0
 16 17  2  0
  3 18  1  0
  7 18  1  0
M  END
