pyridine_urea_11618
     RDKit          3D

 29 32  0  0  0  0  0  0  0  0999 V2000
    8.8250   -0.9520   20.6600 O   0  0  0  0  0  0  0  0  0  0  0  0
    8.0840   -0.7480   21.5540 C   0  0  0  0  0  0  0  0  0  0  0  0
    6.7470   -0.5430   21.3880 N   0  0  0  0  0  0  0  0  0  0  0  0
    6.2400    0.0610   20.2180 C   0  0  0  0  0  0  0  0  0  0  0  0
    5.0670    0.8130   20.3040 C   0  0  0  0  0  0  0  0  0  0  0  0
    4.5460    1.4310   19.1680 C   0  0  0  0  0  0  0  0  0  0  0  0
    5.2170    1.2810   17.9720 C   0  0  0  0  0  0  0  0  0  0  0  0
    6.3460    0.5650   17.8480 N   0  0  0  0  0  0  0  0  0  0  0  0
    6.8330   -0.0300   18.9600 C   0  0  0  0  0  0  0  0  0  0  0  0
    8.6090   -0.6420   22.8000 N   0  0  0  0  0  0  0  0  0  0  0  0
    9.7750    0.2130   22.7230 C   0  0  2  0  0  0  0  0  0  0  0  0
   11.0710   -0.4410   22.2310 C   0  0  0  0  0  0  0  0  0  0  0  0
   11.9030   -1.0720   23.0730 C   0  0  0  0  0  0  0  0  0  0  0  0
   12.5890   -2.2380   22.8660 C   0  0  0  0  0  0  0  0  0  0  0  0
   13.4000   -2.7240   23.8540 C   0  0  0  0  0  0  0  0  0  0  0  0
   13.5500   -2.0930   25.0490 C   0  0  0  0  0  0  0  0  0  0  0  0
   14.3470   -2.6360   25.9700 F   0  0  0  0  0  0  0  0  0  0  0  0
   12.9080   -0.9180   25.3190 C   0  0  0  0  0  0  0  0  0  0  0  0
   12.0140   -0.3050   24.3230 C   0  0  0  0  0  0  0  0  0  0  0  0
   10.1550    1.0970   23.8660 C   0  0  1  0  0  0  0  0  0  0  0  0
   11.4910    1.4090   23.9490 C   0  0  0  0  0  0  0  0  0  0  0  0
   12.1100    1.8150   22.9860 O   0  0  0  0  0  0  0  0  0  0  0  0
   11.6850    3.0880   22.8820 C   0  0  0  0  0  0  0  0  0  0  0  0
   12.5480    4.0840   22.4280 C   0  0  0  0  0  0  0  0  0  0  0  0
   12.1000    5.4010   22.3360 C   0  0  0  0  0  0  0  0  0  0  0  0
   10.7850    5.7140   22.7030 C   0  0  0  0  0  0  0  0  0  0  0  0
    9.9230    4.6980   23.1580 C   0  0  0  0  0  0  0  0  0  0  0  0
   10.3780    3.3800   23.2470 C   0  0  0  0  0  0  0  0  0  0  0  0
    9.5100    2.3920   23.7050 O   0  0  0  0  0  0  0  0  0  0  0  0
  1  2  2  0
  2  3  1  0
  3  4  1  0
  4  5  2  0
  5  6  1  0
  6  7  2  0
  7  8  1  0
  4  9  1  0
  8  9  2  0
  2 10  1  0
 10 11  1  0
 11 12  1  1
 12 13  1  0
 13 14  2  0
 14 15  1  0
 15 16  2  0
 16 17  1  0
 16 18  1  0
 13 19  1  0
 18 19  2  0
 11 20  1  0
 20 21  1  6
 21 22  1  0
 22 23  1  0
 23 24  2  0
 24 25  1  0
 25 26  2  0
 26 27  1  0
 23 28  1  0
 27 28  2  0
 20 29  1  0
 28 29  1  0
M  END
