pyridine_urea_7656
     RDKit          3D

 24 25  0  0  0  0  0  0  0  0999 V2000
    9.4990   -3.1250   23.1960 C   0  0  0  0  0  0  0  0  0  0  0  0
   10.6110   -2.3400   23.1660 N   0  0  0  0  0  0  0  0  0  0  0  0
   12.1160   -2.6480   23.0640 N   0  0  0  0  0  0  0  0  0  0  0  0
   12.9450   -1.4040   23.0710 C   0  0  0  0  0  0  0  0  0  0  0  0
   11.7600   -1.4850   23.1370 C   0  0  0  0  0  0  0  0  0  0  0  0
   10.6010   -1.0770   23.2250 C   0  0  0  0  0  0  0  0  0  0  0  0
    9.6000   -0.1610   23.3300 C   0  0  2  0  0  0  0  0  0  0  0  0
    8.5440   -0.7240   22.7080 N   0  0  0  0  0  0  0  0  0  0  0  0
    8.1010   -0.1260   21.5870 C   0  0  0  0  0  0  0  0  0  0  0  0
    8.5680    0.8950   21.1010 O   0  0  0  0  0  0  0  0  0  0  0  0
    7.0270   -0.7890   21.0530 N   0  0  0  0  0  0  0  0  0  0  0  0
    6.4450   -0.1120   20.0190 C   0  0  0  0  0  0  0  0  0  0  0  0
    5.1670    0.6820   20.2070 C   0  0  0  0  0  0  0  0  0  0  0  0
    4.5700    1.3910   19.1670 C   0  0  0  0  0  0  0  0  0  0  0  0
    5.1600    1.3800   17.9030 C   0  0  0  0  0  0  0  0  0  0  0  0
    6.3260    0.6530   17.7120 N   0  0  0  0  0  0  0  0  0  0  0  0
    6.9210   -0.0540   18.7310 C   0  0  0  0  0  0  0  0  0  0  0  0
   10.0810    1.0470   22.6400 C   0  0  0  0  0  0  0  0  0  0  0  0
    9.3770    2.0480   22.5950 O   0  0  0  0  0  0  0  0  0  0  0  0
   11.1580    0.8240   22.1930 O   0  0  0  0  0  0  0  0  0  0  0  0
   12.2460    0.9520   23.0630 C   0  0  0  0  0  0  0  0  0  0  0  0
   12.4230    2.3260   23.0070 C   0  0  0  0  0  0  0  0  0  0  0  0
   13.4950    0.2280   22.6120 C   0  0  0  0  0  0  0  0  0  0  0  0
   11.8430    0.3180   24.3900 C   0  0  0  0  0  0  0  0  0  0  0  0
  1  2  1  0
  2  3  1  0
  3  4  2  0
  4  5  1  0
  2  6  1  0
  5  6  2  0
  6  7  1  0
  7  8  1  6
  8  9  1  0
  9 10  2  0
  9 11  1  0
 11 12  1  0
 12 13  2  0
 13 14  1  0
 14 15  2  0
 15 16  1  0
 12 17  1  0
 16 17  2  0
  7 18  1  0
 18 19  2  0
 18 20  1  0
 21 20  1  0
 21 22  1  0
 21 23  1  0
 21 24  1  0
M  END
