pyridine_urea_692
     RDKit          3D

 24 26  0  0  0  0  0  0  0  0999 V2000
   13.1430    6.5660   22.1330 C   0  0  0  0  0  0  0  0  0  0  0  0
   13.9800    5.8380   22.5220 O   0  0  0  0  0  0  0  0  0  0  0  0
   13.4620    4.8740   23.2430 C   0  0  0  0  0  0  0  0  0  0  0  0
   12.7180    3.9880   22.5170 C   0  0  0  0  0  0  0  0  0  0  0  0
   12.6110    4.0840   21.2950 O   0  0  0  0  0  0  0  0  0  0  0  0
   12.0650    3.0540   23.3820 N   0  0  0  0  0  0  0  0  0  0  0  0
   10.7960    3.7810   23.5710 C   0  0  0  0  0  0  0  0  0  0  0  0
    9.8120    2.8530   23.6980 C   0  0  0  0  0  0  0  0  0  0  0  0
   10.2990    1.6340   23.2990 C   0  0  0  0  0  0  0  0  0  0  0  0
    9.5600    0.4060   23.0430 C   0  0  0  0  0  0  0  0  0  0  0  0
   10.1490   -0.7260   22.6230 C   0  0  0  0  0  0  0  0  0  0  0  0
    9.1960   -1.7590   22.3480 N   0  0  0  0  0  0  0  0  0  0  0  0
    8.3670   -0.8230   21.4950 C   0  0  0  0  0  0  0  0  0  0  0  0
    8.8010    0.4340   21.1870 O   0  0  0  0  0  0  0  0  0  0  0  0
    7.1390   -1.2240   21.0220 N   0  0  0  0  0  0  0  0  0  0  0  0
    6.4240   -0.3960   20.1090 C   0  0  0  0  0  0  0  0  0  0  0  0
    5.2350    0.3020   20.3570 C   0  0  0  0  0  0  0  0  0  0  0  0
    4.5840    1.1480   19.3140 C   0  0  0  0  0  0  0  0  0  0  0  0
    5.2380    1.1990   18.0860 C   0  0  0  0  0  0  0  0  0  0  0  0
    6.3790    0.5480   17.8050 N   0  0  0  0  0  0  0  0  0  0  0  0
    6.9480   -0.2410   18.8250 C   0  0  0  0  0  0  0  0  0  0  0  0
   11.6750   -0.7060   22.4700 C   0  0  0  0  0  0  0  0  0  0  0  0
   12.3890    0.5160   22.7310 C   0  0  0  0  0  0  0  0  0  0  0  0
   11.6350    1.6570   23.1190 C   0  0  0  0  0  0  0  0  0  0  0  0
  1  2  1  0
  2  3  1  0
  3  4  1  0
  4  5  2  0
  4  6  1  0
  6  7  1  0
  7  8  1  0
  8  9  1  0
  9 10  2  0
 10 11  1  0
 11 12  1  0
 12 13  1  0
 13 14  2  0
 13 15  1  0
 15 16  1  0
 16 17  2  0
 17 18  1  0
 18 19  2  0
 19 20  1  0
 16 21  1  0
 20 21  2  0
 11 22  2  0
 22 23  1  0
  6 24  1  0
  9 24  1  0
 23 24  2  0
M  END
