pyridine_urea_14080
     RDKit          3D

 23 25  0  0  0  0  0  0  0  0999 V2000
   12.6060   -0.8920   25.2710 C   0  0  0  0  0  0  0  0  0  0  0  0
   11.4980   -0.5560   25.0110 C   0  0  0  0  0  0  0  0  0  0  0  0
   10.0360   -0.0890   24.8230 C   0  0  0  0  0  0  0  0  0  0  0  0
    9.3290   -0.0810   23.4550 C   0  0  0  0  0  0  0  0  0  0  0  0
    8.0030    0.3080   23.1600 N   0  0  0  0  0  0  0  0  0  0  0  0
    7.8920    0.5280   21.7970 C   0  0  0  0  0  0  0  0  0  0  0  0
    8.6850    1.5620   21.1220 O   0  0  0  0  0  0  0  0  0  0  0  0
    7.0180   -0.3190   21.2130 N   0  0  0  0  0  0  0  0  0  0  0  0
    6.4490    0.1780   20.0970 C   0  0  0  0  0  0  0  0  0  0  0  0
    5.2040    0.9640   20.2550 C   0  0  0  0  0  0  0  0  0  0  0  0
    4.5050    1.5490   19.2530 C   0  0  0  0  0  0  0  0  0  0  0  0
    5.2310    1.2520   17.9640 C   0  0  0  0  0  0  0  0  0  0  0  0
    6.3500    0.5460   17.7610 N   0  0  0  0  0  0  0  0  0  0  0  0
    6.9420    0.0140   18.8320 C   0  0  0  0  0  0  0  0  0  0  0  0
    9.9210   -0.4970   22.1280 C   0  0  0  0  0  0  0  0  0  0  0  0
   11.1230   -0.8520   22.3750 C   0  0  0  0  0  0  0  0  0  0  0  0
   11.6980   -0.8310   23.6940 C   0  0  0  0  0  0  0  0  0  0  0  0
   12.4650   -1.2390   22.6810 C   0  0  0  0  0  0  0  0  0  0  0  0
   12.4910   -2.5820   22.1480 C   0  0  0  0  0  0  0  0  0  0  0  0
   13.2500   -2.8040   21.0340 C   0  0  0  0  0  0  0  0  0  0  0  0
   13.8520   -1.9590   20.5110 N   0  0  0  0  0  0  0  0  0  0  0  0
   13.7670   -0.8130   21.0770 C   0  0  0  0  0  0  0  0  0  0  0  0
   13.1660   -0.3130   22.1200 C   0  0  0  0  0  0  0  0  0  0  0  0
  1  2  1  0
  2  3  2  0
  3  4  1  0
  4  5  1  0
  5  6  1  0
  6  7  2  0
  6  8  1  0
  8  9  1  0
  9 10  2  0
 10 11  1  0
 11 12  2  0
 12 13  1  0
  9 14  1  0
 13 14  2  0
  4 15  2  0
 15 16  1  0
  2 17  1  0
 16 17  2  0
 17 18  1  0
 18 19  2  0
 19 20  1  0
 20 21  2  0
 21 22  1  0
 18 23  1  0
 22 23  2  0
M  END
