pyridine_urea_5298
     RDKit          3D

 19 20  0  0  0  0  0  0  0  0999 V2000
   10.8290    0.9820   22.9310 C   0  0  0  0  0  0  0  0  0  0  0  0
   11.5990   -0.2820   23.2200 C   0  0  0  0  0  0  0  0  0  0  0  0
   12.5300    0.7160   23.0370 C   0  0  0  0  0  0  0  0  0  0  0  0
   12.9830   -0.4330   23.2870 C   0  0  0  0  0  0  0  0  0  0  0  0
   11.5140   -0.7070   23.2620 C   0  0  0  0  0  0  0  0  0  0  0  0
   10.2500    0.1260   22.9980 C   0  0  0  0  0  0  0  0  0  0  0  0
    9.2160   -0.6500   22.3410 N   0  0  0  0  0  0  0  0  0  0  0  0
    8.4420    0.0870   21.4710 C   0  0  0  0  0  0  0  0  0  0  0  0
    8.7810    1.2220   21.1110 O   0  0  0  0  0  0  0  0  0  0  0  0
    7.2310   -0.5930   21.0620 N   0  0  0  0  0  0  0  0  0  0  0  0
    6.5450    0.0130   20.0430 C   0  0  0  0  0  0  0  0  0  0  0  0
    5.3850    0.7360   20.3080 C   0  0  0  0  0  0  0  0  0  0  0  0
    4.6790    1.3720   19.3180 C   0  0  0  0  0  0  0  0  0  0  0  0
    5.1480    1.2840   18.0190 C   0  0  0  0  0  0  0  0  0  0  0  0
    6.2560    0.5910   17.7090 N   0  0  0  0  0  0  0  0  0  0  0  0
    6.9250   -0.0250   18.7180 C   0  0  0  0  0  0  0  0  0  0  0  0
   11.5660   -1.9530   23.5480 N   0  0  0  0  0  0  0  0  0  0  0  0
   12.7140   -1.3320   23.4800 C   0  0  0  0  0  0  0  0  0  0  0  0
   13.2730   -2.5640   23.7590 C   0  0  0  0  0  0  0  0  0  0  0  0
  1  2  1  0
  2  3  2  0
  3  4  1  0
  4  5  2  0
  5  6  1  0
  6  7  1  0
  7  8  1  0
  8  9  2  0
  8 10  1  0
 10 11  1  0
 11 12  2  0
 12 13  1  0
 13 14  2  0
 14 15  1  0
 11 16  1  0
 15 16  2  0
  5 17  1  0
  2 18  1  0
 17 18  2  0
 18 19  1  0
M  END
