pyridine_urea_10532
     RDKit          3D

 22 23  0  0  0  0  0  0  0  0999 V2000
   10.2810   -2.3300   22.6820 C   0  0  0  0  0  0  0  0  0  0  0  0
   10.7130   -0.9810   22.1310 C   0  0  0  0  0  0  0  0  0  0  0  0
   12.2580   -0.8950   22.2690 C   0  0  0  0  0  0  0  0  0  0  0  0
    9.7870    0.1430   22.7350 C   0  0  2  0  0  0  0  0  0  0  0  0
   10.2310    0.8520   23.9600 C   0  0  0  0  0  0  0  0  0  0  0  0
   11.5190    0.8860   23.7590 C   0  0  0  0  0  0  0  0  0  0  0  0
   12.9130    0.6050   23.6550 C   0  0  0  0  0  0  0  0  0  0  0  0
   13.1810   -0.6800   24.1220 C   0  0  0  0  0  0  0  0  0  0  0  0
   12.5550   -1.6840   24.6320 C   0  0  0  0  0  0  0  0  0  0  0  0
   13.3720   -3.0820   25.0850 Cl  0  0  0  0  0  0  0  0  0  0  0  0
   11.3120   -1.5510   24.7700 C   0  0  0  0  0  0  0  0  0  0  0  0
   10.7560   -0.3850   24.3850 C   0  0  0  0  0  0  0  0  0  0  0  0
    8.4490   -0.3400   22.6980 N   0  0  0  0  0  0  0  0  0  0  0  0
    8.0180    0.2080   21.5390 C   0  0  0  0  0  0  0  0  0  0  0  0
    8.5590    1.2190   21.0600 O   0  0  0  0  0  0  0  0  0  0  0  0
    6.9670   -0.4630   21.0060 N   0  0  0  0  0  0  0  0  0  0  0  0
    6.3640    0.1180   19.9510 C   0  0  0  0  0  0  0  0  0  0  0  0
    5.1950    0.8120   20.1200 C   0  0  0  0  0  0  0  0  0  0  0  0
    4.5450    1.4540   19.0940 C   0  0  0  0  0  0  0  0  0  0  0  0
    5.1250    1.3770   17.8450 C   0  0  0  0  0  0  0  0  0  0  0  0
    6.2680    0.6960   17.6280 N   0  0  0  0  0  0  0  0  0  0  0  0
    6.8630    0.0810   18.6740 C   0  0  0  0  0  0  0  0  0  0  0  0
  1  2  1  0
  2  3  1  0
  2  4  1  0
  4  5  1  1
  5  6  1  0
  6  7  2  0
  7  8  1  0
  8  9  2  0
  9 10  1  0
  9 11  1  0
  6 12  1  0
 11 12  2  0
  4 13  1  0
 13 14  1  0
 14 15  2  0
 14 16  1  0
 16 17  1  0
 17 18  2  0
 18 19  1  0
 19 20  2  0
 20 21  1  0
 17 22  1  0
 21 22  2  0
M  END
