pyridine_urea_7343
     RDKit          3D

 18 19  0  0  0  0  0  0  0  0999 V2000
    6.0460    2.1460   20.5560 C   0  0  0  0  0  0  0  0  0  0  0  0
    5.3320    0.9740   19.8920 C   0  0  0  0  0  0  0  0  0  0  0  0
    4.0100    0.8730   20.2920 C   0  0  0  0  0  0  0  0  0  0  0  0
    5.2460    1.2510   18.3920 C   0  0  0  0  0  0  0  0  0  0  0  0
    6.4880    0.7050   17.9370 N   0  0  0  0  0  0  0  0  0  0  0  0
    6.8780   -0.2420   18.7860 C   0  0  0  0  0  0  0  0  0  0  0  0
    7.7190   -1.0990   18.6760 O   0  0  0  0  0  0  0  0  0  0  0  0
    6.1220   -0.2180   19.9720 C   0  0  1  0  0  0  0  0  0  0  0  0
    6.9870   -0.5320   21.1330 N   0  0  0  0  0  0  0  0  0  0  0  0
    8.2240    0.0180   21.4530 C   0  0  0  0  0  0  0  0  0  0  0  0
    8.7250    1.2980   21.0170 O   0  0  0  0  0  0  0  0  0  0  0  0
    9.0390   -0.7420   22.2700 N   0  0  0  0  0  0  0  0  0  0  0  0
   10.3910   -0.4420   22.4930 C   0  0  0  0  0  0  0  0  0  0  0  0
   10.6740    0.8450   22.9570 C   0  0  0  0  0  0  0  0  0  0  0  0
   11.9960    1.1880   23.1730 C   0  0  0  0  0  0  0  0  0  0  0  0
   13.0030    0.2940   22.9460 C   0  0  0  0  0  0  0  0  0  0  0  0
   12.7810   -0.9520   22.5040 N   0  0  0  0  0  0  0  0  0  0  0  0
   11.4790   -1.2910   22.2870 C   0  0  0  0  0  0  0  0  0  0  0  0
  2  1  1  0
  2  3  1  0
  2  4  1  0
  4  5  1  0
  5  6  1  0
  6  7  2  0
  2  8  1  0
  6  8  1  0
  8  9  1  1
  9 10  1  0
 10 11  2  0
 10 12  1  0
 12 13  1  0
 13 14  2  0
 14 15  1  0
 15 16  2  0
 16 17  1  0
 13 18  1  0
 17 18  2  0
M  END
