pyridine_urea_6693
     RDKit          3D

 22 23  0  0  0  0  0  0  0  0999 V2000
   13.6250   -3.1030   25.2990 C   0  0  0  0  0  0  0  0  0  0  0  0
   12.4860   -2.8890   24.3030 C   0  0  0  0  0  0  0  0  0  0  0  0
   13.1380   -2.6710   22.9230 C   0  0  0  0  0  0  0  0  0  0  0  0
   11.8800   -1.6030   24.7750 C   0  0  0  0  0  0  0  0  0  0  0  0
   13.0180   -0.8240   25.3180 C   0  0  0  0  0  0  0  0  0  0  0  0
   13.4280   -0.1910   24.3740 O   0  0  0  0  0  0  0  0  0  0  0  0
   12.2770   -0.3560   23.7030 C   0  0  0  0  0  0  0  0  0  0  0  0
   11.2620   -0.2300   24.4960 C   0  0  0  0  0  0  0  0  0  0  0  0
    9.9750   -0.3700   24.1460 C   0  0  0  0  0  0  0  0  0  0  0  0
    9.2340   -0.6630   23.0060 C   0  0  0  0  0  0  0  0  0  0  0  0
    8.9630   -0.9740   21.6710 N   0  0  0  0  0  0  0  0  0  0  0  0
    8.1780   -0.0310   21.1380 C   0  0  0  0  0  0  0  0  0  0  0  0
    8.6670    1.2900   20.9710 O   0  0  0  0  0  0  0  0  0  0  0  0
    6.9530   -0.5220   20.8450 N   0  0  0  0  0  0  0  0  0  0  0  0
    6.2100    0.1640   19.9240 C   0  0  0  0  0  0  0  0  0  0  0  0
    4.9700    0.8020   20.1870 C   0  0  0  0  0  0  0  0  0  0  0  0
    4.4440    1.4980   18.9440 C   0  0  0  0  0  0  0  0  0  0  0  0
    5.1470    1.4560   17.7710 C   0  0  0  0  0  0  0  0  0  0  0  0
    6.3040    0.8220   17.6000 N   0  0  0  0  0  0  0  0  0  0  0  0
    6.7900    0.2040   18.6700 C   0  0  0  0  0  0  0  0  0  0  0  0
   10.6270   -0.7750   22.1640 C   0  0  0  0  0  0  0  0  0  0  0  0
   11.9590   -0.6340   22.4850 C   0  0  0  0  0  0  0  0  0  0  0  0
  1  2  1  0
  2  3  1  0
  2  4  1  0
  4  5  1  0
  5  6  1  0
  6  7  1  0
  7  8  2  0
  8  9  1  0
  9 10  2  0
 10 11  1  0
 11 12  1  0
 12 13  2  0
 12 14  1  0
 14 15  1  0
 15 16  2  0
 16 17  1  0
 17 18  2  0
 18 19  1  0
 15 20  1  0
 19 20  2  0
 10 21  1  0
  7 22  1  0
 21 22  2  0
M  END
