pyridine_urea_1563
     RDKit          3D

 19 20  0  0  0  0  0  0  0  0999 V2000
   10.1910   -0.4930   25.5630 C   0  0  0  0  0  0  0  0  0  0  0  0
   11.1640   -1.3900   24.8180 C   0  0  0  0  0  0  0  0  0  0  0  0
   11.9440   -0.5830   23.9340 N   0  0  0  0  0  0  0  0  0  0  0  0
   13.1580   -0.9330   23.5480 C   0  0  0  0  0  0  0  0  0  0  0  0
   13.5900    0.0670   22.7220 N   0  0  0  0  0  0  0  0  0  0  0  0
   12.5520    1.0060   22.6680 N   0  0  0  0  0  0  0  0  0  0  0  0
   11.5410    0.5870   23.4130 C   0  0  0  0  0  0  0  0  0  0  0  0
   10.3210    1.1440   23.6470 C   0  0  0  0  0  0  0  0  0  0  0  0
    9.3340    0.1610   23.7690 C   0  0  0  0  0  0  0  0  0  0  0  0
    9.0320   -0.4290   22.4900 N   0  0  0  0  0  0  0  0  0  0  0  0
    8.4010    0.1860   21.4760 C   0  0  0  0  0  0  0  0  0  0  0  0
    8.8590    1.2740   21.1050 O   0  0  0  0  0  0  0  0  0  0  0  0
    7.2940   -0.4360   20.9890 N   0  0  0  0  0  0  0  0  0  0  0  0
    6.5450    0.1400   19.9760 C   0  0  0  0  0  0  0  0  0  0  0  0
    5.3920    0.8370   20.2930 C   0  0  0  0  0  0  0  0  0  0  0  0
    4.6540    1.4380   19.2780 C   0  0  0  0  0  0  0  0  0  0  0  0
    5.1150    1.3070   17.9790 C   0  0  0  0  0  0  0  0  0  0  0  0
    6.2200    0.6270   17.6540 N   0  0  0  0  0  0  0  0  0  0  0  0
    6.9050    0.0610   18.6570 C   0  0  0  0  0  0  0  0  0  0  0  0
  1  2  1  0
  2  3  1  0
  3  4  1  0
  4  5  2  0
  5  6  1  0
  3  7  1  0
  6  7  2  0
  7  8  1  0
  8  9  1  0
  9 10  1  0
 10 11  1  0
 11 12  2  0
 11 13  1  0
 13 14  1  0
 14 15  2  0
 15 16  1  0
 16 17  2  0
 17 18  1  0
 14 19  1  0
 18 19  2  0
M  END
