pyridine_urea_6130
     RDKit          3D

 24 25  0  0  0  0  0  0  0  0999 V2000
    9.8280    3.1120   22.1440 C   0  0  0  0  0  0  0  0  0  0  0  0
    9.8520    1.7340   21.7870 O   0  0  0  0  0  0  0  0  0  0  0  0
   10.1240    0.9310   22.9020 C   0  0  1  0  0  0  0  0  0  0  0  0
    8.9080    1.2990   23.7660 C   0  0  0  0  0  0  0  0  0  0  0  0
   10.1090   -0.5570   22.5690 C   0  0  0  0  0  0  0  0  0  0  0  0
    8.6730   -0.5720   22.4500 N   0  0  0  0  0  0  0  0  0  0  0  0
    8.0970    0.0950   21.4110 C   0  0  0  0  0  0  0  0  0  0  0  0
    8.5230    1.1780   20.9910 O   0  0  0  0  0  0  0  0  0  0  0  0
    7.0340   -0.5840   20.9600 N   0  0  0  0  0  0  0  0  0  0  0  0
    6.4280    0.0350   19.9410 C   0  0  0  0  0  0  0  0  0  0  0  0
    5.1840    0.7920   20.2100 C   0  0  0  0  0  0  0  0  0  0  0  0
    4.4470    1.4880   19.3040 C   0  0  0  0  0  0  0  0  0  0  0  0
    5.1690    1.3200   17.9850 C   0  0  0  0  0  0  0  0  0  0  0  0
    6.2870    0.6440   17.6920 N   0  0  0  0  0  0  0  0  0  0  0  0
    6.9030    0.0070   18.6800 C   0  0  0  0  0  0  0  0  0  0  0  0
   11.5990    1.2450   23.2080 C   0  0  0  0  0  0  0  0  0  0  0  0
   12.4420    0.9670   22.1480 O   0  0  0  0  0  0  0  0  0  0  0  0
   13.1710   -0.2240   22.3400 C   0  0  0  0  0  0  0  0  0  0  0  0
   12.2320   -1.2840   22.7600 C   0  0  0  0  0  0  0  0  0  0  0  0
   13.1910   -1.4750   23.8250 C   0  0  0  0  0  0  0  0  0  0  0  0
   12.8080   -2.5570   24.7440 C   0  0  0  0  0  0  0  0  0  0  0  0
   11.6000   -3.2320   24.4830 C   0  0  0  0  0  0  0  0  0  0  0  0
   10.7380   -2.9270   23.3970 C   0  0  0  0  0  0  0  0  0  0  0  0
   11.0630   -1.9310   22.4980 C   0  0  0  0  0  0  0  0  0  0  0  0
  1  2  1  0
  3  2  1  0
  3  4  1  1
  3  5  1  0
  5  6  1  0
  6  7  1  0
  7  8  2  0
  7  9  1  0
  9 10  1  0
 10 11  2  0
 11 12  1  0
 12 13  2  0
 13 14  1  0
 10 15  1  0
 14 15  2  0
  3 16  1  0
 16 17  1  0
 17 18  1  0
 18 19  1  0
 19 20  2  0
 20 21  1  0
 21 22  2  0
 22 23  1  0
 19 24  1  0
 23 24  2  0
M  END
