pyridine_urea_8835
     RDKit          3D

 20 21  0  0  0  0  0  0  0  0999 V2000
   10.8740   -1.2190   24.5150 C   0  0  0  0  0  0  0  0  0  0  0  0
   10.7150   -0.0120   23.5230 C   0  0  2  0  0  0  0  0  0  0  0  0
   10.1790   -0.8230   22.3510 C   0  0  0  0  0  0  0  0  0  0  0  0
    8.7560   -0.7570   22.3870 N   0  0  0  0  0  0  0  0  0  0  0  0
    8.2170    0.1160   21.5020 C   0  0  0  0  0  0  0  0  0  0  0  0
    8.7760    1.1710   21.1640 O   0  0  0  0  0  0  0  0  0  0  0  0
    7.0080   -0.3430   21.0680 N   0  0  0  0  0  0  0  0  0  0  0  0
    6.3770    0.2240   19.9830 C   0  0  0  0  0  0  0  0  0  0  0  0
    5.2030    0.9440   20.1910 C   0  0  0  0  0  0  0  0  0  0  0  0
    4.5770    1.5370   19.1080 C   0  0  0  0  0  0  0  0  0  0  0  0
    5.1490    1.3890   17.8550 C   0  0  0  0  0  0  0  0  0  0  0  0
    6.2690    0.6920   17.6390 N   0  0  0  0  0  0  0  0  0  0  0  0
    6.8550    0.1270   18.7020 C   0  0  0  0  0  0  0  0  0  0  0  0
   11.8520    0.7990   23.1940 C   0  0  0  0  0  0  0  0  0  0  0  0
   12.2980   -0.1980   22.4790 C   0  0  0  0  0  0  0  0  0  0  0  0
   12.8720   -1.4760   22.0180 C   0  0  0  0  0  0  0  0  0  0  0  0
   13.4280   -2.6810   22.3040 C   0  0  0  0  0  0  0  0  0  0  0  0
   13.4400   -2.5640   23.7180 C   0  0  0  0  0  0  0  0  0  0  0  0
   12.9950   -1.5180   24.3610 C   0  0  0  0  0  0  0  0  0  0  0  0
   12.4680   -0.4370   23.7700 N   0  0  0  0  0  0  0  0  0  0  0  0
  2  1  1  1
  2  3  1  0
  3  4  1  0
  4  5  1  0
  5  6  2  0
  5  7  1  0
  7  8  1  0
  8  9  2  0
  9 10  1  0
 10 11  2  0
 11 12  1  0
  8 13  1  0
 12 13  2  0
  2 14  1  0
 14 15  1  0
 15 16  2  0
 16 17  1  0
 17 18  2  0
 18 19  1  0
 15 20  1  0
 19 20  2  0
M  END
