pyridine_urea_13276
     RDKit          3D

 14 14  0  0  0  0  0  0  0  0999 V2000
   11.5630   -1.8930   21.8600 C   0  0  0  0  0  0  0  0  0  0  0  0
   10.6050   -0.8660   22.3860 C   0  0  2  0  0  0  0  0  0  0  0  0
   10.7680   -0.5960   23.7080 C   0  0  0  0  0  0  0  0  0  0  0  0
   10.9750   -1.6230   24.5460 F   0  0  0  0  0  0  0  0  0  0  0  0
    9.2370   -1.2800   22.1180 N   0  0  0  0  0  0  0  0  0  0  0  0
    8.5040   -0.2750   21.5070 C   0  0  0  0  0  0  0  0  0  0  0  0
    8.9260    0.8610   21.3470 O   0  0  0  0  0  0  0  0  0  0  0  0
    7.1770   -0.7500   21.0790 N   0  0  0  0  0  0  0  0  0  0  0  0
    6.5070   -0.0720   20.0810 C   0  0  0  0  0  0  0  0  0  0  0  0
    5.2250    0.6850   20.4250 C   0  0  0  0  0  0  0  0  0  0  0  0
    4.5930    1.3610   19.3810 C   0  0  0  0  0  0  0  0  0  0  0  0
    5.2350    1.2870   17.9910 C   0  0  0  0  0  0  0  0  0  0  0  0
    6.3660    0.5970   17.7510 N   0  0  0  0  0  0  0  0  0  0  0  0
    6.9610   -0.0550   18.7770 C   0  0  0  0  0  0  0  0  0  0  0  0
  2  1  1  1
  2  3  1  0
  3  4  1  0
  2  5  1  0
  5  6  1  0
  6  7  2  0
  6  8  1  0
  8  9  1  0
  9 10  2  0
 10 11  1  0
 11 12  2  0
 12 13  1  0
  9 14  1  0
 13 14  2  0
M  END
