pyridine_urea_12897
     RDKit          3D

 19 20  0  0  0  0  0  0  0  0999 V2000
    7.0190    0.6830   22.3910 O   0  0  0  0  0  0  0  0  0  0  0  0
    7.6010   -0.2770   21.9500 C   0  0  0  0  0  0  0  0  0  0  0  0
    7.0080   -1.0730   21.0290 N   0  0  0  0  0  0  0  0  0  0  0  0
    6.4770   -0.3160   19.9240 C   0  0  0  0  0  0  0  0  0  0  0  0
    5.1830    0.4750   20.2100 C   0  0  0  0  0  0  0  0  0  0  0  0
    4.5890    1.2530   19.2150 C   0  0  0  0  0  0  0  0  0  0  0  0
    5.2080    1.2870   17.9700 C   0  0  0  0  0  0  0  0  0  0  0  0
    6.3560    0.5640   17.7640 N   0  0  0  0  0  0  0  0  0  0  0  0
    7.0070   -0.2400   18.7080 C   0  0  0  0  0  0  0  0  0  0  0  0
    8.8800   -0.5420   22.2600 N   0  0  0  0  0  0  0  0  0  0  0  0
   10.1730   -0.3670   22.4460 C   0  0  0  0  0  0  0  0  0  0  0  0
   11.1550   -1.3620   22.4550 C   0  0  0  0  0  0  0  0  0  0  0  0
   12.4790   -0.9650   22.6210 C   0  0  0  0  0  0  0  0  0  0  0  0
   12.7950    0.3870   22.7640 C   0  0  0  0  0  0  0  0  0  0  0  0
   14.0030    0.7640   22.8790 F   0  0  0  0  0  0  0  0  0  0  0  0
   11.8490    1.3850   22.7720 C   0  0  0  0  0  0  0  0  0  0  0  0
   12.2070    3.0590   22.9230 Cl  0  0  0  0  0  0  0  0  0  0  0  0
   10.4830    0.9470   22.6100 C   0  0  0  0  0  0  0  0  0  0  0  0
    9.4430    1.7910   22.5840 F   0  0  0  0  0  0  0  0  0  0  0  0
  1  2  2  0
  2  3  1  0
  3  4  1  0
  4  5  2  0
  5  6  1  0
  6  7  2  0
  7  8  1  0
  4  9  1  0
  8  9  2  0
  2 10  1  0
 10 11  1  0
 11 12  2  0
 12 13  1  0
 13 14  2  0
 14 15  1  0
 14 16  1  0
 16 17  1  0
 11 18  1  0
 16 18  2  0
 18 19  1  0
M  END
