pyridine_urea_8936
     RDKit          3D

 20 21  0  0  0  0  0  0  0  0999 V2000
    8.8820    1.4020   21.1250 O   0  0  0  0  0  0  0  0  0  0  0  0
    8.4080    0.3180   21.4580 C   0  0  0  0  0  0  0  0  0  0  0  0
    8.9560   -0.4300   22.4350 N   0  0  0  0  0  0  0  0  0  0  0  0
    8.0930   -1.0300   23.4090 C   0  0  0  0  0  0  0  0  0  0  0  0
    8.8070   -2.2580   23.9360 C   0  0  0  0  0  0  0  0  0  0  0  0
   10.1250   -2.0790   24.2410 N   0  0  0  0  0  0  0  0  0  0  0  0
   10.8190   -2.2840   23.1060 C   0  0  0  0  0  0  0  0  0  0  0  0
   12.0960   -1.9480   22.8240 C   0  0  0  0  0  0  0  0  0  0  0  0
   12.8980   -2.3390   21.1880 Br  0  0  0  0  0  0  0  0  0  0  0  0
   12.7510   -1.2930   23.8410 C   0  0  0  0  0  0  0  0  0  0  0  0
   11.9960   -0.8280   24.9200 C   0  0  0  0  0  0  0  0  0  0  0  0
   10.5870   -1.0180   24.9920 C   0  0  0  0  0  0  0  0  0  0  0  0
    9.8650   -0.1220   25.8410 O   0  0  0  0  0  0  0  0  0  0  0  0
    7.2870   -0.2930   20.9590 N   0  0  0  0  0  0  0  0  0  0  0  0
    6.5610    0.2490   19.9790 C   0  0  0  0  0  0  0  0  0  0  0  0
    5.4070    0.9610   20.3140 C   0  0  0  0  0  0  0  0  0  0  0  0
    4.6560    1.5480   19.2960 C   0  0  0  0  0  0  0  0  0  0  0  0
    5.1450    1.3720   17.9000 C   0  0  0  0  0  0  0  0  0  0  0  0
    6.2450    0.6720   17.6210 N   0  0  0  0  0  0  0  0  0  0  0  0
    6.9160    0.1360   18.6560 C   0  0  0  0  0  0  0  0  0  0  0  0
  1  2  2  0
  2  3  1  0
  3  4  1  0
  4  5  1  0
  5  6  1  0
  6  7  1  0
  7  8  2  0
  8  9  1  0
  8 10  1  0
 10 11  2  0
  6 12  1  0
 11 12  1  0
 12 13  2  0
  2 14  1  0
 14 15  1  0
 15 16  2  0
 16 17  1  0
 17 18  2  0
 18 19  1  0
 15 20  1  0
 19 20  2  0
M  END
