pyridine_urea_2203
     RDKit          3D

 27 29  0  0  0  0  0  0  0  0999 V2000
    9.0340    1.1340   21.2370 O   0  0  0  0  0  0  0  0  0  0  0  0
    8.5700    0.0400   21.5850 C   0  0  0  0  0  0  0  0  0  0  0  0
    9.1880   -0.9060   22.3840 N   0  0  0  0  0  0  0  0  0  0  0  0
    8.5720   -1.8250   23.2600 C   0  0  0  0  0  0  0  0  0  0  0  0
    7.2350   -2.5070   22.9030 C   0  0  0  0  0  0  0  0  0  0  0  0
    7.0990   -3.8840   23.5690 C   0  0  0  0  0  0  0  0  0  0  0  0
    5.9590   -4.0200   24.5500 C   0  0  0  0  0  0  0  0  0  0  0  0
    5.4470   -5.2370   24.8260 N   0  0  0  0  0  0  0  0  0  0  0  0
    4.1310   -5.4390   24.6400 C   0  0  0  0  0  0  0  0  0  0  0  0
    3.4010   -6.2290   25.5490 C   0  0  0  0  0  0  0  0  0  0  0  0
    3.3380   -5.8370   26.9120 C   0  0  0  0  0  0  0  0  0  0  0  0
    2.6930   -6.6730   27.8280 C   0  0  0  0  0  0  0  0  0  0  0  0
    3.4510   -6.8210   28.9890 C   0  0  0  0  0  0  0  0  0  0  0  0
    4.6970   -7.4830   28.9740 C   0  0  0  0  0  0  0  0  0  0  0  0
    5.5330   -7.6680   30.1340 C   0  0  0  0  0  0  0  0  0  0  0  0
    4.9220   -7.0660   31.4190 C   0  0  0  0  0  0  0  0  0  0  0  0
    3.7020   -6.4310   31.3750 C   0  0  0  0  0  0  0  0  0  0  0  0
    2.9990   -6.3160   30.1980 C   0  0  0  0  0  0  0  0  0  0  0  0
    4.6470   -6.4990   26.4990 C   0  0  0  0  0  0  0  0  0  0  0  0
    5.6480   -5.5920   26.2220 C   0  0  0  0  0  0  0  0  0  0  0  0
    7.3170   -0.3820   21.2020 N   0  0  0  0  0  0  0  0  0  0  0  0
    6.6450    0.1340   20.1570 C   0  0  0  0  0  0  0  0  0  0  0  0
    5.3800    0.9680   20.3940 C   0  0  0  0  0  0  0  0  0  0  0  0
    4.6870    1.5200   19.3210 C   0  0  0  0  0  0  0  0  0  0  0  0
    5.1550    1.3060   18.0360 C   0  0  0  0  0  0  0  0  0  0  0  0
    6.2240    0.6010   17.6760 N   0  0  0  0  0  0  0  0  0  0  0  0
    6.9300    0.0440   18.6710 C   0  0  0  0  0  0  0  0  0  0  0  0
  1  2  2  0
  2  3  1  0
  3  4  1  0
  4  5  1  0
  5  6  1  0
  6  7  1  0
  7  8  1  0
  8  9  1  0
  9 10  1  0
 10 11  1  0
 11 12  1  0
 12 13  1  0
 13 14  2  0
 14 15  1  0
 15 16  2  0
 16 17  1  0
 13 18  1  0
 17 18  2  0
 11 19  1  0
  8 20  1  0
 19 20  1  0
  2 21  1  0
 21 22  1  0
 22 23  2  0
 23 24  1  0
 24 25  2  0
 25 26  1  0
 22 27  1  0
 26 27  2  0
M  END
