pyridine_urea_4576
     RDKit          3D

 23 24  0  0  0  0  0  0  0  0999 V2000
   12.7760    5.8740   22.2270 C   0  0  0  0  0  0  0  0  0  0  0  0
   12.1930    5.4870   23.4670 O   0  0  0  0  0  0  0  0  0  0  0  0
   11.6300    4.1770   23.4360 C   0  0  0  0  0  0  0  0  0  0  0  0
   10.5710    3.8630   23.9720 O   0  0  0  0  0  0  0  0  0  0  0  0
   12.5120    3.2030   22.6430 C   0  0  0  0  0  0  0  0  0  0  0  0
   12.9200    2.0860   23.4950 O   0  0  0  0  0  0  0  0  0  0  0  0
   12.8870    0.7190   23.2530 C   0  0  0  0  0  0  0  0  0  0  0  0
   11.4550    1.2110   23.0990 C   0  0  0  0  0  0  0  0  0  0  0  0
   10.0990    0.6710   22.7870 C   0  0  0  0  0  0  0  0  0  0  0  0
    9.8130   -0.7420   22.4960 C   0  0  0  0  0  0  0  0  0  0  0  0
    8.5240   -1.2710   22.1800 N   0  0  0  0  0  0  0  0  0  0  0  0
    7.9110   -0.3940   21.3580 C   0  0  0  0  0  0  0  0  0  0  0  0
    8.4230    0.6860   21.1050 O   0  0  0  0  0  0  0  0  0  0  0  0
    6.7290   -0.8320   20.8820 N   0  0  0  0  0  0  0  0  0  0  0  0
    6.1080   -0.0570   19.9180 C   0  0  0  0  0  0  0  0  0  0  0  0
    4.9240    0.6360   20.0780 C   0  0  0  0  0  0  0  0  0  0  0  0
    4.4380    1.3870   19.0190 C   0  0  0  0  0  0  0  0  0  0  0  0
    5.1600    1.4140   17.8340 C   0  0  0  0  0  0  0  0  0  0  0  0
    6.3080    0.7430   17.6570 N   0  0  0  0  0  0  0  0  0  0  0  0
    6.7490    0.0290   18.7010 C   0  0  0  0  0  0  0  0  0  0  0  0
   11.1100   -1.4190   22.5920 C   0  0  0  0  0  0  0  0  0  0  0  0
   12.3820   -0.7700   22.9160 C   0  0  0  0  0  0  0  0  0  0  0  0
   13.5040   -2.0270   22.9140 Cl  0  0  0  0  0  0  0  0  0  0  0  0
  1  2  1  0
  2  3  1  0
  3  4  2  0
  3  5  1  0
  5  6  1  0
  6  7  1  0
  7  8  2  0
  8  9  1  0
  9 10  2  0
 10 11  1  0
 11 12  1  0
 12 13  2  0
 12 14  1  0
 14 15  1  0
 15 16  2  0
 16 17  1  0
 17 18  2  0
 18 19  1  0
 15 20  1  0
 19 20  2  0
 10 21  1  0
  7 22  1  0
 21 22  2  0
 22 23  1  0
M  END
