pyridine_urea_7288
     RDKit          3D

 18 19  0  0  0  0  0  0  0  0999 V2000
   10.7090   -0.2720   25.0710 C   0  0  0  0  0  0  0  0  0  0  0  0
   11.4850    0.7140   24.1900 C   0  0  0  0  0  0  0  0  0  0  0  0
   12.7210    0.4220   23.6590 C   0  0  0  0  0  0  0  0  0  0  0  0
   12.7240   -0.5360   22.7050 C   0  0  0  0  0  0  0  0  0  0  0  0
   11.5100   -1.1650   22.6040 C   0  0  0  0  0  0  0  0  0  0  0  0
   10.3760   -0.5050   23.0810 C   0  0  0  0  0  0  0  0  0  0  0  0
    9.2380   -0.8490   22.2740 N   0  0  0  0  0  0  0  0  0  0  0  0
    8.7080    0.1410   21.5370 C   0  0  0  0  0  0  0  0  0  0  0  0
    9.2000    1.2580   21.3840 O   0  0  0  0  0  0  0  0  0  0  0  0
    7.5800   -0.0770   20.9280 N   0  0  0  0  0  0  0  0  0  0  0  0
    6.6790    0.2770   19.9990 C   0  0  0  0  0  0  0  0  0  0  0  0
    5.4680    0.8800   20.3620 C   0  0  0  0  0  0  0  0  0  0  0  0
    4.5990    1.2630   19.3490 C   0  0  0  0  0  0  0  0  0  0  0  0
    4.9900    1.0210   18.0480 C   0  0  0  0  0  0  0  0  0  0  0  0
    6.1280    0.4390   17.6860 N   0  0  0  0  0  0  0  0  0  0  0  0
    6.9350    0.0840   18.6750 C   0  0  0  0  0  0  0  0  0  0  0  0
   11.6150   -2.5970   22.8790 C   0  0  0  0  0  0  0  0  0  0  0  0
   11.4040   -2.2920   21.7140 C   0  0  0  0  0  0  0  0  0  0  0  0
  1  2  2  3
  2  3  1  0
  3  4  1  0
  5  4  1  0
  5  6  1  0
  6  7  1  0
  7  8  1  0
  8  9  2  0
  8 10  1  0
 10 11  1  0
 11 12  2  0
 12 13  1  0
 13 14  2  0
 14 15  1  0
 11 16  1  0
 15 16  2  0
  5 17  1  0
  5 18  1  0
 17 18  1  0
M  END
