pyridine_urea_11541
     RDKit          3D

 21 21  0  0  0  0  0  0  0  0999 V2000
    8.1990   -4.0900   23.5360 C   0  0  0  0  0  0  0  0  0  0  0  0
    9.4720   -3.5960   23.9440 O   0  0  0  0  0  0  0  0  0  0  0  0
   10.1130   -2.9160   22.9320 C   0  0  0  0  0  0  0  0  0  0  0  0
    9.6120   -2.7970   21.8290 O   0  0  0  0  0  0  0  0  0  0  0  0
   11.3700   -2.3740   23.2210 C   0  0  0  0  0  0  0  0  0  0  0  0
   11.9050   -1.4880   22.2790 C   0  0  0  0  0  0  0  0  0  0  0  0
   12.9780   -0.7210   22.6640 C   0  0  0  0  0  0  0  0  0  0  0  0
   12.8020    0.4050   23.4720 C   0  0  0  0  0  0  0  0  0  0  0  0
   11.5960    1.0980   23.4660 C   0  0  0  0  0  0  0  0  0  0  0  0
   10.3840    0.4470   24.1420 C   0  0  0  0  0  0  0  0  0  0  0  0
    9.7280   -0.5200   23.4070 C   0  0  0  0  0  0  0  0  0  0  0  0
    8.4270   -0.1150   22.9370 N   0  0  0  0  0  0  0  0  0  0  0  0
    8.2720    0.3610   21.6510 C   0  0  0  0  0  0  0  0  0  0  0  0
    8.9670    1.3830   21.1780 O   0  0  0  0  0  0  0  0  0  0  0  0
    7.3030   -0.3520   20.9900 N   0  0  0  0  0  0  0  0  0  0  0  0
    6.4920    0.2260   20.0200 C   0  0  0  0  0  0  0  0  0  0  0  0
    5.3100    0.9080   20.2930 C   0  0  0  0  0  0  0  0  0  0  0  0
    4.5550    1.4860   19.2810 C   0  0  0  0  0  0  0  0  0  0  0  0
    5.1500    1.2920   17.9200 C   0  0  0  0  0  0  0  0  0  0  0  0
    6.2780    0.6270   17.6730 N   0  0  0  0  0  0  0  0  0  0  0  0
    6.9130    0.1130   18.7200 C   0  0  0  0  0  0  0  0  0  0  0  0
  1  2  1  0
  2  3  1  0
  3  4  2  0
  3  5  1  0
  5  6  1  0
  6  7  1  0
  7  8  1  0
  8  9  1  0
  9 10  1  0
 10 11  1  0
 11 12  1  0
 12 13  1  0
 13 14  2  0
 13 15  1  0
 15 16  1  0
 16 17  2  0
 17 18  1  0
 18 19  2  0
 19 20  1  0
 16 21  1  0
 20 21  2  0
M  END
