pyridine_urea_2390
     RDKit          3D

 25 28  0  0  0  0  0  0  0  0999 V2000
    8.7110    0.7930   21.3020 O   0  0  0  0  0  0  0  0  0  0  0  0
    8.1660   -0.2750   21.5530 C   0  0  0  0  0  0  0  0  0  0  0  0
    8.6120   -1.2160   22.4300 N   0  0  0  0  0  0  0  0  0  0  0  0
    9.9480   -1.3460   22.7820 C   0  0  0  0  0  0  0  0  0  0  0  0
   10.8760   -1.1100   21.8990 C   0  0  0  0  0  0  0  0  0  0  0  0
   12.2470   -1.1980   22.1520 C   0  0  0  0  0  0  0  0  0  0  0  0
   12.9600   -1.5210   23.2840 C   0  0  0  0  0  0  0  0  0  0  0  0
   13.3550   -1.8720   24.5270 C   0  0  0  0  0  0  0  0  0  0  0  0
   12.6340   -2.8480   25.1560 C   0  0  0  0  0  0  0  0  0  0  0  0
   13.3550   -3.5270   26.0000 N   0  0  0  0  0  0  0  0  0  0  0  0
   12.5530   -4.4390   26.5740 N   0  0  0  0  0  0  0  0  0  0  0  0
   11.2620   -4.3310   26.0480 C   0  0  0  0  0  0  0  0  0  0  0  0
   11.3650   -3.3470   25.1910 N   0  0  0  0  0  0  0  0  0  0  0  0
   10.0830   -3.1360   24.5880 C   0  0  0  0  0  0  0  0  0  0  0  0
    9.2470   -4.0600   25.2510 C   0  0  0  0  0  0  0  0  0  0  0  0
    9.9200   -4.9120   26.1360 C   0  0  0  0  0  0  0  0  0  0  0  0
   11.7570   -1.7750   24.2010 C   0  0  0  0  0  0  0  0  0  0  0  0
   10.3840   -1.6940   23.9710 C   0  0  0  0  0  0  0  0  0  0  0  0
    6.9840   -0.6900   20.9780 N   0  0  0  0  0  0  0  0  0  0  0  0
    6.3310   -0.0020   20.0290 C   0  0  0  0  0  0  0  0  0  0  0  0
    5.1420    0.7050   20.2140 C   0  0  0  0  0  0  0  0  0  0  0  0
    4.5710    1.3850   19.1440 C   0  0  0  0  0  0  0  0  0  0  0  0
    5.2110    1.3370   17.9190 C   0  0  0  0  0  0  0  0  0  0  0  0
    6.3510    0.6600   17.7130 N   0  0  0  0  0  0  0  0  0  0  0  0
    6.8770    0.0120   18.7640 C   0  0  0  0  0  0  0  0  0  0  0  0
  1  2  2  0
  2  3  1  0
  3  4  1  0
  4  5  2  0
  5  6  1  0
  6  7  2  0
  7  8  1  0
  8  9  1  0
  9 10  2  0
 10 11  1  0
 11 12  2  0
  9 13  1  0
 12 13  1  0
 13 14  1  0
 14 15  1  0
 12 16  1  0
 15 16  1  0
  7 17  1  0
  4 18  1  0
 17 18  2  0
  2 19  1  0
 19 20  1  0
 20 21  2  0
 21 22  1  0
 22 23  2  0
 23 24  1  0
 20 25  1  0
 24 25  2  0
M  END
