pyridine_urea_13729
     RDKit          3D

 26 28  0  0  0  0  0  0  0  0999 V2000
   12.4400    4.1370   22.3760 O   0  0  0  0  0  0  0  0  0  0  0  0
   13.3920    3.3700   22.4450 C   0  0  0  0  0  0  0  0  0  0  0  0
   14.6780    3.6140   21.9910 N   0  0  0  0  0  0  0  0  0  0  0  0
   15.6530    4.2750   22.6290 C   0  0  0  0  0  0  0  0  0  0  0  0
   15.5410    5.4700   22.9140 C   0  0  0  0  0  0  0  0  0  0  0  0
   16.8760    5.9580   23.6760 C   0  0  0  0  0  0  0  0  0  0  0  0
   17.8690    5.3820   23.9840 C   0  0  0  0  0  0  0  0  0  0  0  0
   17.8380    4.4440   23.8130 C   0  0  0  0  0  0  0  0  0  0  0  0
   16.8280    3.8230   23.1400 C   0  0  0  0  0  0  0  0  0  0  0  0
   13.3910    2.0970   22.9850 N   0  0  0  0  0  0  0  0  0  0  0  0
   12.4440    1.1050   22.8350 C   0  0  0  0  0  0  0  0  0  0  0  0
   11.1680    1.5620   22.9390 C   0  0  0  0  0  0  0  0  0  0  0  0
   10.0650    0.7770   22.7900 C   0  0  0  0  0  0  0  0  0  0  0  0
   10.1570   -0.5850   22.5040 C   0  0  0  0  0  0  0  0  0  0  0  0
    8.9900   -1.2240   22.3330 N   0  0  0  0  0  0  0  0  0  0  0  0
    8.2160   -0.4420   21.5070 C   0  0  0  0  0  0  0  0  0  0  0  0
    8.5840    0.8790   21.1140 O   0  0  0  0  0  0  0  0  0  0  0  0
    7.0750   -1.0140   21.0830 N   0  0  0  0  0  0  0  0  0  0  0  0
    6.4440   -0.2740   20.1200 C   0  0  0  0  0  0  0  0  0  0  0  0
    5.2750    0.4540   20.2920 C   0  0  0  0  0  0  0  0  0  0  0  0
    4.6240    1.2250   19.3240 C   0  0  0  0  0  0  0  0  0  0  0  0
    5.2560    1.2230   18.0910 C   0  0  0  0  0  0  0  0  0  0  0  0
    6.3850    0.5540   17.8080 N   0  0  0  0  0  0  0  0  0  0  0  0
    6.9290   -0.1640   18.8200 C   0  0  0  0  0  0  0  0  0  0  0  0
   11.4430   -1.1600   22.4020 C   0  0  0  0  0  0  0  0  0  0  0  0
   12.6670   -0.2600   22.5810 C   0  0  0  0  0  0  0  0  0  0  0  0
  1  2  2  0
  2  3  1  0
  3  4  1  0
  4  5  2  0
  5  6  1  0
  6  7  2  0
  7  8  1  0
  4  9  1  0
  8  9  2  0
  2 10  1  0
 10 11  1  0
 11 12  2  0
 12 13  1  0
 13 14  2  0
 14 15  1  0
 15 16  1  0
 16 17  2  0
 16 18  1  0
 18 19  1  0
 19 20  2  0
 20 21  1  0
 21 22  2  0
 22 23  1  0
 19 24  1  0
 23 24  2  0
 14 25  1  0
 11 26  1  0
 25 26  2  0
M  END
