pyridine_urea_5976
     RDKit          3D

 27 29  0  0  0  0  0  0  0  0999 V2000
    8.2630    0.7600   20.9800 O   0  0  0  0  0  0  0  0  0  0  0  0
    7.8900   -0.3630   21.2630 C   0  0  0  0  0  0  0  0  0  0  0  0
    8.6980   -1.2790   21.9970 N   0  0  0  0  0  0  0  0  0  0  0  0
    9.9930   -0.8360   22.0240 C   0  0  0  0  0  0  0  0  0  0  0  0
   10.1950    0.3960   22.6270 C   0  0  0  0  0  0  0  0  0  0  0  0
   11.6060    0.5150   22.9270 C   0  0  0  0  0  0  0  0  0  0  0  0
   12.3650    1.6280   22.8580 C   0  0  0  0  0  0  0  0  0  0  0  0
   12.8610    0.2770   23.2480 C   0  0  0  0  0  0  0  0  0  0  0  0
   11.5600   -0.6130   23.1660 C   0  0  0  0  0  0  0  0  0  0  0  0
   12.5080   -1.6610   23.6130 C   0  0  0  0  0  0  0  0  0  0  0  0
   11.2490   -2.2000   23.4700 C   0  0  0  0  0  0  0  0  0  0  0  0
   10.2060   -1.4970   23.9210 F   0  0  0  0  0  0  0  0  0  0  0  0
   11.2030   -3.3420   24.1770 F   0  0  0  0  0  0  0  0  0  0  0  0
   11.0360   -2.5480   22.1770 F   0  0  0  0  0  0  0  0  0  0  0  0
   12.8380   -0.2080   23.3610 C   0  0  0  0  0  0  0  0  0  0  0  0
    9.5940    1.4290   22.0090 C   0  0  0  0  0  0  0  0  0  0  0  0
    9.9830    2.6700   22.4540 C   0  0  0  0  0  0  0  0  0  0  0  0
    9.6270    2.8660   23.5730 O   0  0  0  0  0  0  0  0  0  0  0  0
    8.7480    1.8270   23.9580 C   0  0  0  0  0  0  0  0  0  0  0  0
    9.3160    0.5390   23.6630 C   0  0  0  0  0  0  0  0  0  0  0  0
    6.6770   -0.8380   20.8720 N   0  0  0  0  0  0  0  0  0  0  0  0
    6.1260   -0.0830   19.8600 C   0  0  0  0  0  0  0  0  0  0  0  0
    4.9170    0.5820   20.0560 C   0  0  0  0  0  0  0  0  0  0  0  0
    4.4050    1.3580   19.0170 C   0  0  0  0  0  0  0  0  0  0  0  0
    5.1360    1.4290   17.8340 C   0  0  0  0  0  0  0  0  0  0  0  0
    6.2980    0.7920   17.6260 N   0  0  0  0  0  0  0  0  0  0  0  0
    6.7600    0.0530   18.6480 C   0  0  0  0  0  0  0  0  0  0  0  0
  1  2  2  0
  2  3  1  0
  3  4  1  0
  5  4  1  0
  5  6  1  0
  6  7  2  0
  7  8  1  0
  8  9  2  0
  9 10  1  0
 10 11  1  0
 11 12  1  0
 11 13  1  0
 11 14  1  0
  6 15  1  0
 10 15  2  0
  5 16  1  0
 16 17  1  0
 17 18  1  0
 18 19  1  0
  5 20  1  0
 19 20  1  0
  2 21  1  0
 21 22  1  0
 22 23  2  0
 23 24  1  0
 24 25  2  0
 25 26  1  0
 22 27  1  0
 26 27  2  0
M  END
