pyridine_urea_6389
     RDKit          3D

 23 24  0  0  0  0  0  0  0  0999 V2000
   12.3050   -4.5780   19.7440 C   0  0  0  0  0  0  0  0  0  0  0  0
   13.3810   -4.3890   20.5780 N   0  0  0  0  0  0  0  0  0  0  0  0
   14.7050   -5.0450   20.4270 C   0  0  0  0  0  0  0  0  0  0  0  0
   13.3100   -3.0450   21.1060 C   0  0  0  0  0  0  0  0  0  0  0  0
   11.9460   -2.5060   21.1100 C   0  0  0  0  0  0  0  0  0  0  0  0
   11.6580   -2.1690   22.4460 O   0  0  0  0  0  0  0  0  0  0  0  0
   12.5210   -1.1690   22.5910 C   0  0  0  0  0  0  0  0  0  0  0  0
   12.7620    0.1100   22.8730 N   0  0  0  0  0  0  0  0  0  0  0  0
   11.4210    0.6010   23.1780 C   0  0  0  0  0  0  0  0  0  0  0  0
   12.1400    1.8040   23.3310 C   0  0  0  0  0  0  0  0  0  0  0  0
   12.7990    0.7770   22.9980 C   0  0  0  0  0  0  0  0  0  0  0  0
   11.6330   -0.2880   22.9090 C   0  0  0  0  0  0  0  0  0  0  0  0
   10.2280   -0.2620   23.0970 C   0  0  0  0  0  0  0  0  0  0  0  0
    9.4390   -0.8240   22.1410 N   0  0  0  0  0  0  0  0  0  0  0  0
    8.5380   -0.0370   21.4680 C   0  0  0  0  0  0  0  0  0  0  0  0
    8.6890    1.2820   21.1310 O   0  0  0  0  0  0  0  0  0  0  0  0
    7.2480   -0.6540   21.0420 N   0  0  0  0  0  0  0  0  0  0  0  0
    6.4820    0.0420   20.0990 C   0  0  0  0  0  0  0  0  0  0  0  0
    5.2520    0.7790   20.6990 C   0  0  0  0  0  0  0  0  0  0  0  0
    4.7230    1.3800   19.3960 C   0  0  0  0  0  0  0  0  0  0  0  0
    5.2680    1.2550   18.0230 C   0  0  0  0  0  0  0  0  0  0  0  0
    6.3300    0.5710   17.7340 N   0  0  0  0  0  0  0  0  0  0  0  0
    6.8840   -0.0000   18.7680 C   0  0  0  0  0  0  0  0  0  0  0  0
  1  2  1  0
  2  3  1  0
  2  4  1  0
  4  5  1  0
  5  6  1  0
  6  7  1  0
  7  8  2  0
  8  9  1  0
  9 10  2  0
 10 11  1  0
  7 12  1  0
 11 12  2  0
 12 13  1  0
 13 14  1  0
 14 15  1  0
 15 16  2  0
 15 17  1  0
 17 18  1  0
 18 19  2  0
 19 20  1  0
 20 21  2  0
 21 22  1  0
 18 23  1  0
 22 23  2  0
M  END
