pyridine_urea_10225
     RDKit          3D

 23 24  0  0  0  0  0  0  0  0999 V2000
   13.0410    5.0350   22.3710 C   0  0  0  0  0  0  0  0  0  0  0  0
   12.9250    4.1610   23.6400 C   0  0  0  0  0  0  0  0  0  0  0  0
   11.6430    3.7510   24.0510 C   0  0  0  0  0  0  0  0  0  0  0  0
   13.4970    4.9860   24.7970 C   0  0  0  0  0  0  0  0  0  0  0  0
   13.9160    3.0630   23.5120 N   0  0  0  0  0  0  0  0  0  0  0  0
   13.7680    1.8310   22.7340 C   0  0  0  0  0  0  0  0  0  0  0  0
   14.7230    1.3390   22.1110 O   0  0  0  0  0  0  0  0  0  0  0  0
   12.4640    1.1860   22.6180 C   0  0  0  0  0  0  0  0  0  0  0  0
   11.4220    0.6080   23.7720 C   0  0  0  0  0  0  0  0  0  0  0  0
   10.0600   -0.0540   23.3970 C   0  0  0  0  0  0  0  0  0  0  0  0
    9.7850   -0.0900   22.0290 C   0  0  0  0  0  0  0  0  0  0  0  0
    8.6500   -0.5150   21.1350 N   0  0  0  0  0  0  0  0  0  0  0  0
    8.4390    0.6260   20.2430 C   0  0  0  0  0  0  0  0  0  0  0  0
    9.1920    1.5980   20.3330 O   0  0  0  0  0  0  0  0  0  0  0  0
    7.3090    0.6450   19.3260 N   0  0  0  0  0  0  0  0  0  0  0  0
    6.1960   -0.2400   19.5460 C   0  0  0  0  0  0  0  0  0  0  0  0
    5.9200    1.2450   20.3710 C   0  0  0  0  0  0  0  0  0  0  0  0
    5.1740    0.3020   20.3700 C   0  0  0  0  0  0  0  0  0  0  0  0
    5.8820   -0.3500   19.5630 C   0  0  0  0  0  0  0  0  0  0  0  0
    7.1070    0.0670   18.9110 N   0  0  0  0  0  0  0  0  0  0  0  0
    7.0530   -1.1380   18.5830 C   0  0  0  0  0  0  0  0  0  0  0  0
   10.8360    0.4310   21.6980 C   0  0  0  0  0  0  0  0  0  0  0  0
   11.9870    1.0010   21.3350 C   0  0  0  0  0  0  0  0  0  0  0  0
  1  2  1  0
  2  3  1  0
  2  4  1  0
  2  5  1  0
  5  6  1  0
  6  7  2  0
  6  8  1  0
  8  9  2  0
  9 10  1  0
 10 11  2  0
 11 12  1  0
 12 13  1  0
 13 14  2  0
 13 15  1  0
 15 16  1  0
 16 17  2  0
 17 18  1  0
 18 19  2  0
 19 20  1  0
 16 21  1  0
 20 21  2  0
 11 22  1  0
  8 23  1  0
 22 23  2  0
M  END
