pyridine_urea_8422
     RDKit          3D

 22 24  0  0  0  0  0  0  0  0999 V2000
   13.0410    3.9990   22.6970 C   0  0  0  0  0  0  0  0  0  0  0  0
   12.3110    2.8370   22.8020 N   0  0  0  0  0  0  0  0  0  0  0  0
   10.8800    2.6830   22.9330 C   0  0  0  0  0  0  0  0  0  0  0  0
   10.4950    1.3440   23.0050 C   0  0  0  0  0  0  0  0  0  0  0  0
    9.2640    0.7750   23.1390 C   0  0  0  0  0  0  0  0  0  0  0  0
    9.3880   -0.6020   23.2370 C   0  0  0  0  0  0  0  0  0  0  0  0
    8.8390   -1.2900   22.2430 N   0  0  0  0  0  0  0  0  0  0  0  0
    8.1910   -0.4640   21.4040 C   0  0  0  0  0  0  0  0  0  0  0  0
    8.6550    0.6020   21.0410 O   0  0  0  0  0  0  0  0  0  0  0  0
    6.8910   -0.9620   21.0100 N   0  0  0  0  0  0  0  0  0  0  0  0
    6.3250   -0.1810   19.9460 C   0  0  0  0  0  0  0  0  0  0  0  0
    5.0210    0.5770   20.2200 C   0  0  0  0  0  0  0  0  0  0  0  0
    4.5360    1.3180   19.1570 C   0  0  0  0  0  0  0  0  0  0  0  0
    5.1930    1.3600   17.9510 C   0  0  0  0  0  0  0  0  0  0  0  0
    6.3370    0.6990   17.6920 N   0  0  0  0  0  0  0  0  0  0  0  0
    6.8710   -0.0510   18.6850 C   0  0  0  0  0  0  0  0  0  0  0  0
   11.7940    0.7120   22.8970 C   0  0  0  0  0  0  0  0  0  0  0  0
   11.6460   -0.6330   22.9240 C   0  0  0  0  0  0  0  0  0  0  0  0
   12.4220   -1.7400   22.8600 C   0  0  0  0  0  0  0  0  0  0  0  0
   13.1240   -0.5100   22.7910 C   0  0  0  0  0  0  0  0  0  0  0  0
   13.9100    0.6310   22.7160 N   0  0  0  0  0  0  0  0  0  0  0  0
   12.8480    1.4240   22.7910 C   0  0  0  0  0  0  0  0  0  0  0  0
  1  2  1  0
  2  3  1  0
  3  4  2  0
  4  5  1  0
  5  6  1  0
  6  7  1  0
  7  8  1  0
  8  9  2  0
  8 10  1  0
 10 11  1  0
 11 12  2  0
 12 13  1  0
 13 14  2  0
 14 15  1  0
 11 16  1  0
 15 16  2  0
  4 17  1  0
 17 18  1  0
 18 19  2  0
 19 20  1  0
 20 21  2  0
  2 22  1  0
 17 22  2  0
 21 22  1  0
M  END
