pyridine_urea_8357
     RDKit          3D

 22 24  0  0  0  0  0  0  0  0999 V2000
    8.6940    0.8290   21.1580 O   0  0  0  0  0  0  0  0  0  0  0  0
    8.4020   -0.3360   21.3660 C   0  0  0  0  0  0  0  0  0  0  0  0
    7.1310   -0.7960   21.0940 N   0  0  0  0  0  0  0  0  0  0  0  0
    6.4360   -0.0680   20.0480 C   0  0  0  0  0  0  0  0  0  0  0  0
    5.1100    0.6960   20.3590 C   0  0  0  0  0  0  0  0  0  0  0  0
    4.5090    1.3830   19.3080 C   0  0  0  0  0  0  0  0  0  0  0  0
    5.2140    1.3200   17.9460 C   0  0  0  0  0  0  0  0  0  0  0  0
    6.3590    0.6380   17.7350 N   0  0  0  0  0  0  0  0  0  0  0  0
    6.9300   -0.0280   18.7620 C   0  0  0  0  0  0  0  0  0  0  0  0
    9.2170   -1.3380   21.8450 N   0  0  0  0  0  0  0  0  0  0  0  0
   10.3960   -1.1520   22.7120 C   0  0  1  0  0  0  0  0  0  0  0  0
   11.6500   -1.7250   22.0520 C   0  0  0  0  0  0  0  0  0  0  0  0
   12.7890   -0.8240   22.5310 C   0  0  0  0  0  0  0  0  0  0  0  0
   12.1630    0.3930   23.1910 C   0  0  0  0  0  0  0  0  0  0  0  0
   10.6710    0.0460   23.3440 C   0  0  1  0  0  0  0  0  0  0  0  0
    9.8790    1.2220   22.7410 C   0  0  0  0  0  0  0  0  0  0  0  0
   10.3340    2.4790   23.1730 C   0  0  0  0  0  0  0  0  0  0  0  0
    9.5600    3.1620   24.1410 C   0  0  0  0  0  0  0  0  0  0  0  0
    9.9280    4.4120   24.6330 C   0  0  0  0  0  0  0  0  0  0  0  0
   11.0730    4.9940   24.1580 C   0  0  0  0  0  0  0  0  0  0  0  0
   11.7960    4.2830   23.2040 C   0  0  0  0  0  0  0  0  0  0  0  0
   11.4760    3.0710   22.7040 N   0  0  0  0  0  0  0  0  0  0  0  0
  1  2  2  0
  2  3  1  0
  3  4  1  0
  4  5  2  0
  5  6  1  0
  6  7  2  0
  7  8  1  0
  4  9  1  0
  8  9  2  0
  2 10  1  0
 11 10  1  6
 11 12  1  0
 12 13  1  0
 13 14  1  0
 11 15  1  0
 14 15  1  0
 15 16  1  6
 16 17  1  0
 17 18  2  0
 18 19  1  0
 19 20  2  0
 20 21  1  0
 17 22  1  0
 21 22  2  0
M  END
