pyridine_urea_1415
     RDKit          3D

 20 21  0  0  0  0  0  0  0  0999 V2000
   13.3560   -1.9960   22.2770 C   0  0  0  0  0  0  0  0  0  0  0  0
   12.1460   -1.2240   22.7860 C   0  0  0  0  0  0  0  0  0  0  0  0
   12.0140   -0.6390   24.2080 C   0  0  0  0  0  0  0  0  0  0  0  0
   13.0300   -0.9120   24.8170 C   0  0  0  0  0  0  0  0  0  0  0  0
   12.7500   -1.2700   23.4420 C   0  0  0  0  0  0  0  0  0  0  0  0
   11.3680   -0.5910   23.5410 C   0  0  0  0  0  0  0  0  0  0  0  0
   10.1030   -0.0900   23.2990 C   0  0  0  0  0  0  0  0  0  0  0  0
    9.3740   -0.1040   24.4760 C   0  0  0  0  0  0  0  0  0  0  0  0
   10.0730    1.1800   22.7680 C   0  0  0  0  0  0  0  0  0  0  0  0
    9.2610   -0.6910   22.3360 N   0  0  0  0  0  0  0  0  0  0  0  0
    8.4930    0.0590   21.4540 C   0  0  0  0  0  0  0  0  0  0  0  0
    8.8310    1.1900   21.0790 O   0  0  0  0  0  0  0  0  0  0  0  0
    7.3430   -0.5650   21.0620 N   0  0  0  0  0  0  0  0  0  0  0  0
    6.6090    0.0100   20.0260 C   0  0  0  0  0  0  0  0  0  0  0  0
    5.3570    0.7720   20.2820 C   0  0  0  0  0  0  0  0  0  0  0  0
    4.5770    1.3950   19.3470 C   0  0  0  0  0  0  0  0  0  0  0  0
    5.1020    1.2410   18.0310 C   0  0  0  0  0  0  0  0  0  0  0  0
    6.2290    0.5550   17.7230 N   0  0  0  0  0  0  0  0  0  0  0  0
    6.9550   -0.0440   18.7030 C   0  0  0  0  0  0  0  0  0  0  0  0
   11.1260   -0.9600   22.1890 C   0  0  0  0  0  0  0  0  0  0  0  0
  1  2  1  0
  2  3  2  0
  3  4  1  0
  4  5  2  0
  5  6  1  0
  6  7  1  0
  7  8  1  0
  7  9  1  0
  7 10  1  0
 10 11  1  0
 11 12  2  0
 11 13  1  0
 13 14  1  0
 14 15  2  0
 15 16  1  0
 16 17  2  0
 17 18  1  0
 14 19  1  0
 18 19  2  0
  2 20  1  0
  6 20  2  0
M  END
