pyridine_urea_9572
     RDKit          3D

 18 19  0  0  0  0  0  0  0  0999 V2000
    8.8790    1.3270   21.1860 O   0  0  0  0  0  0  0  0  0  0  0  0
    8.2960    0.2940   21.5350 C   0  0  0  0  0  0  0  0  0  0  0  0
    8.6830   -0.4700   22.5780 N   0  0  0  0  0  0  0  0  0  0  0  0
    8.8770   -1.8470   22.2560 C   0  0  0  0  0  0  0  0  0  0  0  0
   10.0270   -2.3230   23.0640 C   0  0  0  0  0  0  0  0  0  0  0  0
   11.2210   -1.7490   22.9430 N   0  0  0  0  0  0  0  0  0  0  0  0
   12.0700   -2.3750   23.7960 C   0  0  0  0  0  0  0  0  0  0  0  0
   13.5140   -2.0990   24.0380 C   0  0  0  0  0  0  0  0  0  0  0  0
   13.5650   -0.8840   23.9300 O   0  0  0  0  0  0  0  0  0  0  0  0
   11.3830   -3.4190   24.5140 N   0  0  0  0  0  0  0  0  0  0  0  0
   10.1160   -3.3170   23.9990 N   0  0  0  0  0  0  0  0  0  0  0  0
    7.1890   -0.2830   20.9930 N   0  0  0  0  0  0  0  0  0  0  0  0
    6.5010    0.2750   19.9400 C   0  0  0  0  0  0  0  0  0  0  0  0
    5.2410    1.0840   20.2390 C   0  0  0  0  0  0  0  0  0  0  0  0
    4.6140    1.6400   19.1240 C   0  0  0  0  0  0  0  0  0  0  0  0
    5.1350    1.4400   17.8520 C   0  0  0  0  0  0  0  0  0  0  0  0
    6.2450    0.7100   17.5790 N   0  0  0  0  0  0  0  0  0  0  0  0
    6.9070    0.1390   18.6500 C   0  0  0  0  0  0  0  0  0  0  0  0
  1  2  2  0
  2  3  1  0
  3  4  1  0
  4  5  1  0
  5  6  2  0
  6  7  1  0
  7  8  1  0
  8  9  1  0
  7 10  2  0
  5 11  1  0
 10 11  1  0
  2 12  1  0
 12 13  1  0
 13 14  2  0
 14 15  1  0
 15 16  2  0
 16 17  1  0
 13 18  1  0
 17 18  2  0
M  END
