pyridine_urea_2592
     RDKit          3D

 23 25  0  0  0  0  0  0  0  0999 V2000
    9.1520    0.6200   21.2490 O   0  0  0  0  0  0  0  0  0  0  0  0
    8.7130   -0.4820   21.5290 C   0  0  0  0  0  0  0  0  0  0  0  0
    9.3440   -1.4840   22.3000 N   0  0  0  0  0  0  0  0  0  0  0  0
   10.7480   -1.6840   22.6610 C   0  0  0  0  0  0  0  0  0  0  0  0
   11.6420   -0.5970   22.6220 C   0  0  0  0  0  0  0  0  0  0  0  0
   10.3050   -0.2690   22.9750 C   0  0  0  0  0  0  0  0  0  0  0  0
    9.6680    0.9030   23.2760 C   0  0  0  0  0  0  0  0  0  0  0  0
   10.2930    2.0680   23.2700 C   0  0  0  0  0  0  0  0  0  0  0  0
   11.5830    2.0900   22.9770 C   0  0  0  0  0  0  0  0  0  0  0  0
   12.1650    3.5100   22.9870 C   0  0  0  0  0  0  0  0  0  0  0  0
   13.4840    3.8790   22.6770 C   0  0  0  0  0  0  0  0  0  0  0  0
   13.8210    5.2230   22.7160 C   0  0  0  0  0  0  0  0  0  0  0  0
   12.8770    6.1450   23.0550 C   0  0  0  0  0  0  0  0  0  0  0  0
   11.5930    5.7820   23.3630 C   0  0  0  0  0  0  0  0  0  0  0  0
   11.1950    4.4610   23.3410 N   0  0  0  0  0  0  0  0  0  0  0  0
   12.2750    0.7180   22.6640 C   0  0  0  0  0  0  0  0  0  0  0  0
    7.4430   -0.8420   21.0830 N   0  0  0  0  0  0  0  0  0  0  0  0
    6.6440   -0.1300   20.1450 C   0  0  0  0  0  0  0  0  0  0  0  0
    5.4430    0.5400   20.4110 C   0  0  0  0  0  0  0  0  0  0  0  0
    4.7590    1.2110   19.3920 C   0  0  0  0  0  0  0  0  0  0  0  0
    5.2950    1.2010   18.1120 C   0  0  0  0  0  0  0  0  0  0  0  0
    6.4430    0.5630   17.8270 N   0  0  0  0  0  0  0  0  0  0  0  0
    7.0800   -0.0790   18.8330 C   0  0  0  0  0  0  0  0  0  0  0  0
  1  2  2  0
  2  3  1  0
  3  4  1  0
  4  5  1  0
  5  6  2  0
  6  7  1  0
  7  8  2  0
  8  9  1  0
  9 10  1  0
 10 11  2  0
 11 12  1  0
 12 13  2  0
 13 14  1  0
 10 15  1  0
 14 15  2  0
  5 16  1  0
  9 16  2  0
  2 17  1  0
 17 18  1  0
 18 19  2  0
 19 20  1  0
 20 21  2  0
 21 22  1  0
 18 23  1  0
 22 23  2  0
M  END
