pyridine_urea_140
     RDKit          3D

 25 27  0  0  0  0  0  0  0  0999 V2000
   12.8610   -2.5020   21.3470 C   0  0  0  0  0  0  0  0  0  0  0  0
   13.0970   -1.1940   21.8340 O   0  0  0  0  0  0  0  0  0  0  0  0
   12.0730   -0.7320   22.7230 C   0  0  0  0  0  0  0  0  0  0  0  0
   10.7070   -1.5350   22.5580 C   0  0  0  0  0  0  0  0  0  0  0  0
    9.7420   -0.8280   23.6450 C   0  0  0  0  0  0  0  0  0  0  0  0
    9.9710    0.2990   24.6240 N   0  0  0  0  0  0  0  0  0  0  0  0
   11.1620    0.5830   24.3830 C   0  0  0  0  0  0  0  0  0  0  0  0
   10.2650   -0.4790   23.6790 C   0  0  0  0  0  0  0  0  0  0  0  0
   10.5090   -0.8420   22.2840 C   0  0  0  0  0  0  0  0  0  0  0  0
    9.2380   -1.2400   21.6780 N   0  0  0  0  0  0  0  0  0  0  0  0
    8.2930   -0.2020   21.2390 C   0  0  0  0  0  0  0  0  0  0  0  0
    8.6250    0.9730   21.1000 O   0  0  0  0  0  0  0  0  0  0  0  0
    7.0620   -0.6950   21.0120 N   0  0  0  0  0  0  0  0  0  0  0  0
    6.4510   -0.0460   20.0030 C   0  0  0  0  0  0  0  0  0  0  0  0
    5.2710    0.6820   20.2380 C   0  0  0  0  0  0  0  0  0  0  0  0
    4.6040    1.3910   19.2190 C   0  0  0  0  0  0  0  0  0  0  0  0
    5.1470    1.3590   17.9500 C   0  0  0  0  0  0  0  0  0  0  0  0
    6.2860    0.6510   17.7140 N   0  0  0  0  0  0  0  0  0  0  0  0
    6.9340   -0.0460   18.7180 C   0  0  0  0  0  0  0  0  0  0  0  0
    9.3050    0.7840   23.6440 C   0  0  0  0  0  0  0  0  0  0  0  0
    8.3100    0.8430   24.8140 C   0  0  0  0  0  0  0  0  0  0  0  0
    8.7180    0.3140   26.0590 C   0  0  0  0  0  0  0  0  0  0  0  0
    9.4110   -0.8880   25.9160 C   0  0  0  0  0  0  0  0  0  0  0  0
    9.3730   -1.3560   24.6010 C   0  0  0  0  0  0  0  0  0  0  0  0
   12.2330    0.3100   23.6520 C   0  0  0  0  0  0  0  0  0  0  0  0
  1  2  1  0
  2  3  1  0
  3  4  2  0
  4  5  1  0
  5  6  2  0
  6  7  1  0
  7  8  1  0
  8  9  1  0
  9 10  1  0
 10 11  1  0
 11 12  2  0
 11 13  1  0
 13 14  1  0
 14 15  2  0
 15 16  1  0
 16 17  2  0
 17 18  1  0
 14 19  1  0
 18 19  2  0
  8 20  1  0
 20 21  1  0
 21 22  1  0
 22 23  1  0
  8 24  1  0
 23 24  1  0
  3 25  1  0
  7 25  2  0
M  END
