pyridine_urea_8098
     RDKit          3D

 24 26  0  0  0  0  0  0  0  0999 V2000
   13.1570   -1.1110   23.1170 C   0  0  0  0  0  0  0  0  0  0  0  0
   12.4370    0.2090   23.0370 C   0  0  0  0  0  0  0  0  0  0  0  0
   13.1120    1.4900   22.9100 N   0  0  0  0  0  0  0  0  0  0  0  0
   12.0550    2.3740   22.8830 N   0  0  0  0  0  0  0  0  0  0  0  0
   12.4390    3.8270   22.7420 C   0  0  0  0  0  0  0  0  0  0  0  0
   10.7620    1.6860   22.9960 C   0  0  0  0  0  0  0  0  0  0  0  0
    9.6590    2.4750   22.9910 N   0  0  0  0  0  0  0  0  0  0  0  0
    8.3550    2.1540   23.4560 C   0  0  0  0  0  0  0  0  0  0  0  0
    7.7680    3.2260   24.1380 C   0  0  0  0  0  0  0  0  0  0  0  0
    7.3940    4.1860   23.4680 O   0  0  0  0  0  0  0  0  0  0  0  0
    8.3340    4.3530   22.4750 C   0  0  0  0  0  0  0  0  0  0  0  0
    9.7380    3.8750   22.8570 C   0  0  0  0  0  0  0  0  0  0  0  0
   10.9350    0.3060   23.0880 C   0  0  0  0  0  0  0  0  0  0  0  0
    9.9200   -0.8300   23.2160 C   0  0  0  0  0  0  0  0  0  0  0  0
    9.0920   -1.1270   22.1290 N   0  0  0  0  0  0  0  0  0  0  0  0
    8.2880   -0.2660   21.3570 C   0  0  0  0  0  0  0  0  0  0  0  0
    8.6460    0.8730   21.1110 O   0  0  0  0  0  0  0  0  0  0  0  0
    7.1380   -0.8570   20.9590 N   0  0  0  0  0  0  0  0  0  0  0  0
    6.4200   -0.1380   20.1170 C   0  0  0  0  0  0  0  0  0  0  0  0
    5.2360    0.5780   20.3170 C   0  0  0  0  0  0  0  0  0  0  0  0
    4.6860    1.2680   19.2410 C   0  0  0  0  0  0  0  0  0  0  0  0
    5.2540    1.2790   17.9890 C   0  0  0  0  0  0  0  0  0  0  0  0
    6.3850    0.5990   17.7660 N   0  0  0  0  0  0  0  0  0  0  0  0
    6.9220   -0.0770   18.8140 C   0  0  0  0  0  0  0  0  0  0  0  0
  1  2  1  0
  2  3  2  0
  3  4  1  0
  4  5  1  0
  4  6  1  0
  6  7  1  0
  7  8  1  0
  8  9  1  0
  9 10  1  0
 10 11  1  0
  7 12  1  0
 11 12  1  0
  2 13  1  0
  6 13  2  0
 13 14  1  0
 14 15  1  0
 15 16  1  0
 16 17  2  0
 16 18  1  0
 18 19  1  0
 19 20  2  0
 20 21  1  0
 21 22  2  0
 22 23  1  0
 19 24  1  0
 23 24  2  0
M  END
