pyridine_urea_12433
     RDKit          3D

 21 22  0  0  0  0  0  0  0  0999 V2000
    9.3820    2.6510   23.2370 C   0  0  0  0  0  0  0  0  0  0  0  0
    9.4410    1.2730   23.9000 C   0  0  0  0  0  0  0  0  0  0  0  0
    8.8020    1.0500   25.2930 C   0  0  0  0  0  0  0  0  0  0  0  0
    9.2470   -0.0030   26.0910 C   0  0  0  0  0  0  0  0  0  0  0  0
    8.4380   -0.2440   27.3840 C   0  0  0  0  0  0  0  0  0  0  0  0
   10.3340   -0.7700   25.5710 N   0  0  0  0  0  0  0  0  0  0  0  0
   11.6720   -0.4800   25.1390 C   0  0  0  0  0  0  0  0  0  0  0  0
    9.9120   -1.1120   24.3080 C   0  0  0  0  0  0  0  0  0  0  0  0
    9.5430   -2.2060   23.9000 O   0  0  0  0  0  0  0  0  0  0  0  0
    9.9580    0.0580   23.4490 C   0  0  0  0  0  0  0  0  0  0  0  0
   10.5880   -0.4370   22.2540 C   0  0  0  0  0  0  0  0  0  0  0  0
    9.5840   -0.7660   21.3630 N   0  0  0  0  0  0  0  0  0  0  0  0
    8.5530    0.1250   21.2090 C   0  0  0  0  0  0  0  0  0  0  0  0
    8.7470    1.4820   21.1670 O   0  0  0  0  0  0  0  0  0  0  0  0
    7.3100   -0.4320   21.0290 N   0  0  0  0  0  0  0  0  0  0  0  0
    6.5370    0.1030   20.0130 C   0  0  0  0  0  0  0  0  0  0  0  0
    5.2410    0.8260   20.3270 C   0  0  0  0  0  0  0  0  0  0  0  0
    4.5360    1.3720   19.2680 C   0  0  0  0  0  0  0  0  0  0  0  0
    5.0590    1.2220   17.9840 C   0  0  0  0  0  0  0  0  0  0  0  0
    6.1930    0.5730   17.6930 N   0  0  0  0  0  0  0  0  0  0  0  0
    6.8990    0.0320   18.6960 C   0  0  0  0  0  0  0  0  0  0  0  0
  1  2  1  0
  2  3  1  0
  3  4  2  0
  4  5  1  0
  4  6  1  0
  6  7  1  0
  6  8  1  0
  8  9  2  0
  2 10  2  0
  8 10  1  0
 10 11  1  0
 11 12  1  0
 12 13  1  0
 13 14  2  0
 13 15  1  0
 15 16  1  0
 16 17  2  0
 17 18  1  0
 18 19  2  0
 19 20  1  0
 16 21  1  0
 20 21  2  0
M  END
