pyridine_urea_11994
     RDKit          3D

 24 26  0  0  0  0  0  0  0  0999 V2000
   13.4200   -2.9770   23.1890 C   0  0  0  0  0  0  0  0  0  0  0  0
   11.9730   -2.5560   23.1340 C   0  0  0  0  0  0  0  0  0  0  0  0
   11.9590   -1.8280   21.9750 C   0  0  0  0  0  0  0  0  0  0  0  0
   13.2350   -1.3260   21.9120 C   0  0  0  0  0  0  0  0  0  0  0  0
   13.4150   -0.5360   23.1390 N   0  0  0  0  0  0  0  0  0  0  0  0
   12.4750    0.3050   23.2900 C   0  0  0  0  0  0  0  0  0  0  0  0
   11.3890   -0.2850   23.4480 C   0  0  0  0  0  0  0  0  0  0  0  0
   10.1530   -0.1150   23.6490 C   0  0  0  0  0  0  0  0  0  0  0  0
    9.6800    1.3310   23.7620 C   0  0  0  0  0  0  0  0  0  0  0  0
    8.6840    0.3640   23.8980 C   0  0  0  0  0  0  0  0  0  0  0  0
    8.6310   -0.3450   22.7240 N   0  0  0  0  0  0  0  0  0  0  0  0
    8.2120    0.1650   21.4930 C   0  0  0  0  0  0  0  0  0  0  0  0
    8.7170    1.2000   21.0390 O   0  0  0  0  0  0  0  0  0  0  0  0
    7.2340   -0.5690   20.9300 N   0  0  0  0  0  0  0  0  0  0  0  0
    6.4990    0.0910   20.0280 C   0  0  0  0  0  0  0  0  0  0  0  0
    5.3570    0.8460   20.2870 C   0  0  0  0  0  0  0  0  0  0  0  0
    4.7130    1.4850   19.2410 C   0  0  0  0  0  0  0  0  0  0  0  0
    5.1840    1.3830   17.9560 C   0  0  0  0  0  0  0  0  0  0  0  0
    6.2700    0.6670   17.6350 N   0  0  0  0  0  0  0  0  0  0  0  0
    6.9130    0.0250   18.7070 C   0  0  0  0  0  0  0  0  0  0  0  0
   10.9700    2.1060   23.5730 C   0  0  0  0  0  0  0  0  0  0  0  0
   12.3050    1.5980   23.3410 C   0  0  0  0  0  0  0  0  0  0  0  0
   13.1430   -1.1200   24.4120 C   0  0  0  0  0  0  0  0  0  0  0  0
   11.9760   -1.8540   24.4510 C   0  0  0  0  0  0  0  0  0  0  0  0
  1  2  1  0
  2  3  1  0
  3  4  1  0
  4  5  1  0
  5  6  1  0
  6  7  2  0
  7  8  1  0
  8  9  2  0
  9 10  1  0
 10 11  1  0
 11 12  1  0
 12 13  2  0
 12 14  1  0
 14 15  1  0
 15 16  2  0
 16 17  1  0
 17 18  2  0
 18 19  1  0
 15 20  1  0
 19 20  2  0
  9 21  1  0
  6 22  1  0
 21 22  2  0
  5 23  1  0
  2 24  1  0
 23 24  1  0
M  END
