pyridine_urea_6810
     RDKit          3D

 21 23  0  0  0  0  0  0  0  0999 V2000
    8.9790    1.2300   21.2270 O   0  0  0  0  0  0  0  0  0  0  0  0
    8.6110    0.0990   21.5820 C   0  0  0  0  0  0  0  0  0  0  0  0
    9.2150   -0.7180   22.5340 N   0  0  0  0  0  0  0  0  0  0  0  0
   10.4800   -0.5080   23.2300 C   0  0  0  0  0  0  0  0  0  0  0  0
   11.8090   -0.9960   22.5580 C   0  0  0  0  0  0  0  0  0  0  0  0
   11.8140   -2.2430   21.7340 C   0  0  0  0  0  0  0  0  0  0  0  0
   12.9230   -1.3330   22.0210 C   0  0  0  0  0  0  0  0  0  0  0  0
   11.7150   -0.8810   22.7600 C   0  0  0  0  0  0  0  0  0  0  0  0
   11.2140   -0.0320   23.5220 C   0  0  0  0  0  0  0  0  0  0  0  0
   10.1110   -0.8080   23.4250 N   0  0  0  0  0  0  0  0  0  0  0  0
   10.0000    0.2330   24.1410 C   0  0  0  0  0  0  0  0  0  0  0  0
   11.3860    0.7250   23.9520 C   0  0  0  0  0  0  0  0  0  0  0  0
   12.6040    0.2120   23.1810 C   0  0  0  0  0  0  0  0  0  0  0  0
   13.4040   -0.5000   22.4250 C   0  0  0  0  0  0  0  0  0  0  0  0
    7.4720   -0.4950   21.0490 N   0  0  0  0  0  0  0  0  0  0  0  0
    6.6660    0.0970   20.1340 C   0  0  0  0  0  0  0  0  0  0  0  0
    5.3990    0.9060   20.4150 C   0  0  0  0  0  0  0  0  0  0  0  0
    4.7470    1.4370   19.3280 C   0  0  0  0  0  0  0  0  0  0  0  0
    5.1490    1.2940   18.0100 C   0  0  0  0  0  0  0  0  0  0  0  0
    6.2420    0.5900   17.6730 N   0  0  0  0  0  0  0  0  0  0  0  0
    6.9940   -0.0120   18.7950 C   0  0  0  0  0  0  0  0  0  0  0  0
  1  2  2  0
  2  3  1  0
  3  4  1  0
  4  5  1  0
  5  6  2  0
  6  7  1  0
  7  8  2  0
  8  9  1  0
  9 10  2  0
 10 11  1  0
 11 12  2  0
  8 13  1  0
 12 13  1  0
  5 14  1  0
 13 14  2  0
  2 15  1  0
 15 16  1  0
 16 17  2  0
 17 18  1  0
 18 19  2  0
 19 20  1  0
 16 21  1  0
 20 21  2  0
M  END
