pyridine_urea_11664
     RDKit          3D

 28 31  0  0  0  0  0  0  0  0999 V2000
    8.8580    0.7400   21.5580 O   0  0  0  0  0  0  0  0  0  0  0  0
    8.2660   -0.3030   21.3100 C   0  0  0  0  0  0  0  0  0  0  0  0
    6.9350   -0.4630   21.0920 N   0  0  0  0  0  0  0  0  0  0  0  0
    6.3140    0.1320   20.0050 C   0  0  0  0  0  0  0  0  0  0  0  0
    5.2080    0.9400   20.2390 C   0  0  0  0  0  0  0  0  0  0  0  0
    4.5810    1.5640   19.1700 C   0  0  0  0  0  0  0  0  0  0  0  0
    5.0910    1.3520   17.9110 C   0  0  0  0  0  0  0  0  0  0  0  0
    6.1470    0.5730   17.6540 N   0  0  0  0  0  0  0  0  0  0  0  0
    6.7370   -0.0230   18.7020 C   0  0  0  0  0  0  0  0  0  0  0  0
    8.8960   -1.4850   21.1750 N   0  0  0  0  0  0  0  0  0  0  0  0
    9.9290   -1.8380   22.0920 C   0  0  0  0  0  0  0  0  0  0  0  0
   11.2240   -1.1370   21.6830 C   0  0  0  0  0  0  0  0  0  0  0  0
   12.2470   -1.2840   22.5280 C   0  0  0  0  0  0  0  0  0  0  0  0
   11.8440   -1.4470   23.7780 N   0  0  0  0  0  0  0  0  0  0  0  0
   12.7290   -1.0560   24.5710 C   0  0  0  0  0  0  0  0  0  0  0  0
   13.0910    0.2030   24.4670 O   0  0  0  0  0  0  0  0  0  0  0  0
   13.1540   -1.9760   25.4280 C   0  0  1  0  0  0  0  0  0  0  0  0
   13.7120   -2.9220   24.6990 C   0  0  0  0  0  0  0  0  0  0  0  0
   14.5840   -3.4680   25.5300 O   0  0  0  0  0  0  0  0  0  0  0  0
   15.5070   -2.4830   25.9900 C   0  0  0  0  0  0  0  0  0  0  0  0
   17.1170   -2.3510   25.8120 C   0  0  0  0  0  0  0  0  0  0  0  0
   18.4480   -1.8590   25.9000 C   0  0  0  0  0  0  0  0  0  0  0  0
   18.0320   -1.1960   26.4680 C   0  0  0  0  0  0  0  0  0  0  0  0
   16.2430   -1.2410   26.6970 C   0  0  0  0  0  0  0  0  0  0  0  0
   15.1690   -1.8670   26.3880 C   0  0  0  0  0  0  0  0  0  0  0  0
   13.8080   -1.7220   26.5150 O   0  0  0  0  0  0  0  0  0  0  0  0
   10.6690   -0.6410   24.0730 C   0  0  0  0  0  0  0  0  0  0  0  0
    9.7020   -1.2640   23.4150 C   0  0  0  0  0  0  0  0  0  0  0  0
  1  2  2  0
  2  3  1  0
  3  4  1  0
  4  5  2  0
  5  6  1  0
  6  7  2  0
  7  8  1  0
  4  9  1  0
  8  9  2  0
  2 10  1  0
 10 11  1  0
 11 12  1  0
 12 13  1  0
 13 14  1  0
 14 15  1  0
 15 16  2  0
 17 15  1  6
 17 18  1  0
 18 19  1  0
 19 20  1  0
 20 21  2  0
 21 22  1  0
 22 23  2  0
 23 24  1  0
 20 25  1  0
 24 25  2  0
 17 26  1  0
 25 26  1  0
 14 27  1  0
 11 28  1  0
 27 28  1  0
M  END
