pyridine_urea_1815
     RDKit          3D

 17 18  0  0  0  0  0  0  0  0999 V2000
    8.9310    1.1090   21.1970 O   0  0  0  0  0  0  0  0  0  0  0  0
    8.4660   -0.0080   21.4770 C   0  0  0  0  0  0  0  0  0  0  0  0
    9.0580   -0.9530   22.2690 N   0  0  0  0  0  0  0  0  0  0  0  0
    9.9020   -0.7070   23.3580 C   0  0  0  0  0  0  0  0  0  0  0  0
   11.2520   -0.9340   23.1660 C   0  0  0  0  0  0  0  0  0  0  0  0
   11.5660   -1.8510   22.1680 C   0  0  0  0  0  0  0  0  0  0  0  0
   12.9230   -1.9640   21.9550 C   0  0  0  0  0  0  0  0  0  0  0  0
   13.5360   -0.9180   21.8040 O   0  0  0  0  0  0  0  0  0  0  0  0
   13.3230   -0.0140   22.8820 C   0  0  0  0  0  0  0  0  0  0  0  0
   12.0160    0.2370   23.1440 C   0  0  0  0  0  0  0  0  0  0  0  0
    7.2600   -0.4960   21.0410 N   0  0  0  0  0  0  0  0  0  0  0  0
    6.4460    0.1670   20.0280 C   0  0  0  0  0  0  0  0  0  0  0  0
    5.2800    0.8680   20.2640 C   0  0  0  0  0  0  0  0  0  0  0  0
    4.6160    1.4690   19.1970 C   0  0  0  0  0  0  0  0  0  0  0  0
    5.1570    1.3350   17.9310 C   0  0  0  0  0  0  0  0  0  0  0  0
    6.2800    0.6510   17.6810 N   0  0  0  0  0  0  0  0  0  0  0  0
    6.8900    0.0880   18.7290 C   0  0  0  0  0  0  0  0  0  0  0  0
  1  2  2  0
  2  3  1  0
  3  4  1  0
  4  5  1  0
  5  6  1  0
  6  7  1  0
  7  8  1  0
  8  9  1  0
  5 10  1  0
  9 10  1  0
  2 11  1  0
 11 12  1  0
 12 13  2  0
 13 14  1  0
 14 15  2  0
 15 16  1  0
 12 17  1  0
 16 17  2  0
M  END
