pyridine_urea_3011
     RDKit          3D

 21 22  0  0  0  0  0  0  0  0999 V2000
    9.7730    0.0780   23.1950 C   0  0  0  0  0  0  0  0  0  0  0  0
   10.6530   -0.2290   24.3850 C   0  0  0  0  0  0  0  0  0  0  0  0
    9.7220   -0.0360   25.6190 C   0  0  0  0  0  0  0  0  0  0  0  0
   11.2780   -1.6450   24.4550 C   0  0  0  0  0  0  0  0  0  0  0  0
   11.7510    0.8200   24.3160 C   0  0  0  0  0  0  0  0  0  0  0  0
   12.3480    0.3420   23.3990 C   0  0  0  0  0  0  0  0  0  0  0  0
   12.3610   -0.6840   22.5090 C   0  0  0  0  0  0  0  0  0  0  0  0
   11.6160   -1.9280   22.0650 C   0  0  0  0  0  0  0  0  0  0  0  0
   10.1960   -1.6290   22.5650 C   0  0  0  0  0  0  0  0  0  0  0  0
    9.3090   -1.4320   21.4170 N   0  0  0  0  0  0  0  0  0  0  0  0
    8.4760   -0.3320   21.2970 C   0  0  0  0  0  0  0  0  0  0  0  0
    8.9340    1.0230   21.3810 O   0  0  0  0  0  0  0  0  0  0  0  0
    7.1490   -0.6870   21.0310 N   0  0  0  0  0  0  0  0  0  0  0  0
    6.4670   -0.0270   20.0110 C   0  0  0  0  0  0  0  0  0  0  0  0
    5.1870    0.7370   20.2790 C   0  0  0  0  0  0  0  0  0  0  0  0
    4.5530    1.3960   19.2400 C   0  0  0  0  0  0  0  0  0  0  0  0
    5.1380    1.3220   17.9750 C   0  0  0  0  0  0  0  0  0  0  0  0
    6.2720    0.6430   17.7130 N   0  0  0  0  0  0  0  0  0  0  0  0
    6.9050   -0.0090   18.7120 C   0  0  0  0  0  0  0  0  0  0  0  0
   13.3890    0.1600   22.3680 N   0  0  0  0  0  0  0  0  0  0  0  0
   12.9750    1.1390   23.5350 O   0  0  0  0  0  0  0  0  0  0  0  0
  2  1  1  0
  2  3  1  0
  2  4  1  0
  2  5  1  0
  5  6  2  0
  6  7  1  0
  7  8  1  0
  8  9  1  0
  9 10  1  0
 10 11  1  0
 11 12  2  0
 11 13  1  0
 13 14  1  0
 14 15  2  0
 15 16  1  0
 16 17  2  0
 17 18  1  0
 14 19  1  0
 18 19  2  0
  7 20  2  0
  5 21  1  0
 20 21  1  0
M  END
