pyridine_urea_4154
     RDKit          3D

 25 27  0  0  0  0  0  0  0  0999 V2000
    8.7010    0.8500   21.2630 O   0  0  0  0  0  0  0  0  0  0  0  0
    8.3100   -0.2790   21.5290 C   0  0  0  0  0  0  0  0  0  0  0  0
    7.1390   -0.7970   21.0570 N   0  0  0  0  0  0  0  0  0  0  0  0
    6.4630   -0.1170   20.0350 C   0  0  0  0  0  0  0  0  0  0  0  0
    5.2730    0.5690   20.3150 C   0  0  0  0  0  0  0  0  0  0  0  0
    4.6120    1.2630   19.2930 C   0  0  0  0  0  0  0  0  0  0  0  0
    5.1700    1.2440   18.0320 C   0  0  0  0  0  0  0  0  0  0  0  0
    6.3050    0.5870   17.7450 N   0  0  0  0  0  0  0  0  0  0  0  0
    6.9210   -0.0740   18.7400 C   0  0  0  0  0  0  0  0  0  0  0  0
    9.0700   -1.0940   22.3310 N   0  0  0  0  0  0  0  0  0  0  0  0
   10.3830   -0.5170   22.5610 C   0  0  0  0  0  0  0  0  0  0  0  0
   11.6760   -1.3410   22.5860 C   0  0  0  0  0  0  0  0  0  0  0  0
   12.8710   -0.6780   22.7920 C   0  0  0  0  0  0  0  0  0  0  0  0
   12.8980    0.7080   22.9630 C   0  0  0  0  0  0  0  0  0  0  0  0
   11.7550    1.5090   22.9500 C   0  0  0  0  0  0  0  0  0  0  0  0
   11.7910    2.8970   23.0990 C   0  0  0  0  0  0  0  0  0  0  0  0
   12.7920    3.7150   22.6660 N   0  0  0  0  0  0  0  0  0  0  0  0
   12.4170    5.0380   23.0200 O   0  0  0  0  0  0  0  0  0  0  0  0
   11.1690    4.9010   23.6600 C   0  0  0  0  0  0  0  0  0  0  0  0
   10.3480    6.0260   24.2260 C   0  0  0  0  0  0  0  0  0  0  0  0
   10.3440    7.1140   23.4090 F   0  0  0  0  0  0  0  0  0  0  0  0
   10.6960    6.5030   25.4390 F   0  0  0  0  0  0  0  0  0  0  0  0
    9.0320    5.6920   24.3570 F   0  0  0  0  0  0  0  0  0  0  0  0
   10.8290    3.6350   23.6900 N   0  0  0  0  0  0  0  0  0  0  0  0
   10.4930    0.9820   22.7700 C   0  0  0  0  0  0  0  0  0  0  0  0
  1  2  2  0
  2  3  1  0
  3  4  1  0
  4  5  2  0
  5  6  1  0
  6  7  2  0
  7  8  1  0
  4  9  1  0
  8  9  2  0
  2 10  1  0
 10 11  1  0
 11 12  2  0
 12 13  1  0
 13 14  2  0
 14 15  1  0
 15 16  1  0
 16 17  2  0
 17 18  1  0
 18 19  1  0
 19 20  1  0
 20 21  1  0
 20 22  1  0
 20 23  1  0
 16 24  1  0
 19 24  2  0
 11 25  1  0
 15 25  2  0
M  END
