pyridine_urea_15181
     RDKit          3D

 17 18  0  0  0  0  0  0  0  0999 V2000
   10.2670    1.2110   23.1170 C   0  0  0  0  0  0  0  0  0  0  0  0
   11.7880    1.1420   23.0000 C   0  0  0  0  0  0  0  0  0  0  0  0
   13.0820    0.4770   22.8290 C   0  0  0  0  0  0  0  0  0  0  0  0
   12.9600   -0.8980   22.6810 C   0  0  0  0  0  0  0  0  0  0  0  0
   11.5580   -1.3610   22.7620 C   0  0  0  0  0  0  0  0  0  0  0  0
   10.0320   -1.3930   22.9070 C   0  0  0  0  0  0  0  0  0  0  0  0
    9.3300   -1.2500   21.6220 N   0  0  0  0  0  0  0  0  0  0  0  0
    8.4750   -0.2070   21.3440 C   0  0  0  0  0  0  0  0  0  0  0  0
    8.8350    0.9600   21.2950 O   0  0  0  0  0  0  0  0  0  0  0  0
    7.1080   -0.6490   21.0880 N   0  0  0  0  0  0  0  0  0  0  0  0
    6.3820    0.0210   20.0900 C   0  0  0  0  0  0  0  0  0  0  0  0
    5.1830    0.7150   20.2930 C   0  0  0  0  0  0  0  0  0  0  0  0
    4.5970    1.3410   19.2050 C   0  0  0  0  0  0  0  0  0  0  0  0
    5.1990    1.2690   17.9620 C   0  0  0  0  0  0  0  0  0  0  0  0
    6.3400    0.6050   17.7440 N   0  0  0  0  0  0  0  0  0  0  0  0
    6.8970    0.0000   18.8070 C   0  0  0  0  0  0  0  0  0  0  0  0
   11.2380   -0.0740   22.9220 O   0  0  0  0  0  0  0  0  0  0  0  0
  1  2  1  0
  2  3  2  0
  3  4  1  0
  4  5  2  0
  5  6  1  0
  6  7  1  0
  7  8  1  0
  8  9  2  0
  8 10  1  0
 10 11  1  0
 11 12  2  0
 12 13  1  0
 13 14  2  0
 14 15  1  0
 11 16  1  0
 15 16  2  0
  2 17  1  0
  5 17  1  0
M  END
