pyridine_urea_13976
     RDKit          3D

 23 24  0  0  0  0  0  0  0  0999 V2000
   11.7350   -2.0340   23.7250 C   0  0  0  0  0  0  0  0  0  0  0  0
   10.9040   -1.2400   22.8340 O   0  0  0  0  0  0  0  0  0  0  0  0
   11.1180    0.1960   22.8690 C   0  0  0  0  0  0  0  0  0  0  0  0
   10.0630    1.1380   23.0000 C   0  0  0  0  0  0  0  0  0  0  0  0
   11.2010    1.7590   22.9030 C   0  0  0  0  0  0  0  0  0  0  0  0
   11.2250    0.1260   22.8170 C   0  0  0  0  0  0  0  0  0  0  0  0
   10.1360   -1.0050   22.8460 C   0  0  1  0  0  0  0  0  0  0  0  0
   10.0340   -1.5650   24.2000 C   0  0  0  0  0  0  0  0  0  0  0  0
    8.7610   -0.4990   22.6560 N   0  0  0  0  0  0  0  0  0  0  0  0
    8.3850    0.1650   21.5150 C   0  0  0  0  0  0  0  0  0  0  0  0
    8.9440    1.1920   21.1070 O   0  0  0  0  0  0  0  0  0  0  0  0
    7.3040   -0.4610   20.9520 N   0  0  0  0  0  0  0  0  0  0  0  0
    6.5130    0.1590   19.9970 C   0  0  0  0  0  0  0  0  0  0  0  0
    5.3310    0.8500   20.2140 C   0  0  0  0  0  0  0  0  0  0  0  0
    4.6430    1.4470   19.1800 C   0  0  0  0  0  0  0  0  0  0  0  0
    5.1600    1.3410   17.9170 C   0  0  0  0  0  0  0  0  0  0  0  0
    6.2970    0.6730   17.6460 N   0  0  0  0  0  0  0  0  0  0  0  0
    6.9360    0.1040   18.6890 C   0  0  0  0  0  0  0  0  0  0  0  0
   12.7090   -0.3870   22.6570 C   0  0  0  0  0  0  0  0  0  0  0  0
   13.4550   -1.6630   22.4830 C   0  0  0  0  0  0  0  0  0  0  0  0
   12.6510    0.8860   22.7640 C   0  0  0  0  0  0  0  0  0  0  0  0
   13.3590    1.8960   22.7640 O   0  0  0  0  0  0  0  0  0  0  0  0
   12.7060    3.1800   22.6570 C   0  0  0  0  0  0  0  0  0  0  0  0
  1  2  1  0
  2  3  1  0
  3  4  2  0
  4  5  1  0
  5  6  2  0
  6  7  1  0
  7  8  1  1
  7  9  1  0
  9 10  1  0
 10 11  2  0
 10 12  1  0
 12 13  1  0
 13 14  2  0
 14 15  1  0
 15 16  2  0
 16 17  1  0
 13 18  1  0
 17 18  2  0
  6 19  1  0
 19 20  1  0
  3 21  1  0
 19 21  2  0
 21 22  1  0
 22 23  1  0
M  END
