pyridine_urea_2885
     RDKit          3D

 22 23  0  0  0  0  0  0  0  0999 V2000
   11.1650   -0.1640   22.2730 C   0  0  0  0  0  0  0  0  0  0  0  0
   12.1230   -1.0780   21.8380 N   0  0  0  0  0  0  0  0  0  0  0  0
   11.7080   -2.3870   21.5480 C   0  0  0  0  0  0  0  0  0  0  0  0
   13.3480   -1.0500   22.8850 S   0  0  0  0  0  0  0  0  0  0  0  0
   14.0210    0.2030   22.6920 O   0  0  0  0  0  0  0  0  0  0  0  0
   13.8660   -2.3800   23.0500 O   0  0  0  0  0  0  0  0  0  0  0  0
   12.0810   -0.8350   23.9460 C   0  0  0  0  0  0  0  0  0  0  0  0
   12.0180   -0.4950   25.1540 C   0  0  0  0  0  0  0  0  0  0  0  0
   10.5710   -0.4500   25.5640 C   0  0  0  0  0  0  0  0  0  0  0  0
    9.4820   -0.7490   24.6950 C   0  0  0  0  0  0  0  0  0  0  0  0
    8.6760   -1.1390   23.4580 C   0  0  0  0  0  0  0  0  0  0  0  0
    8.2620    0.1320   22.9840 N   0  0  0  0  0  0  0  0  0  0  0  0
    8.1500    0.2760   21.6060 C   0  0  0  0  0  0  0  0  0  0  0  0
    8.7900    1.2020   21.0780 O   0  0  0  0  0  0  0  0  0  0  0  0
    7.3140   -0.5800   20.9780 N   0  0  0  0  0  0  0  0  0  0  0  0
    6.5390    0.0470   20.0750 C   0  0  0  0  0  0  0  0  0  0  0  0
    5.2410    0.7690   20.3780 C   0  0  0  0  0  0  0  0  0  0  0  0
    4.5080    1.4430   19.2400 C   0  0  0  0  0  0  0  0  0  0  0  0
    5.1760    1.3170   17.8830 C   0  0  0  0  0  0  0  0  0  0  0  0
    6.3280    0.6420   17.7220 N   0  0  0  0  0  0  0  0  0  0  0  0
    6.9530    0.0490   18.7540 C   0  0  0  0  0  0  0  0  0  0  0  0
   10.5380   -1.0960   23.3740 S   0  0  0  0  0  0  0  0  0  0  0  0
  1  2  1  0
  2  3  1  0
  4  2  1  0
  4  5  2  0
  4  6  2  0
  4  7  1  0
  7  8  2  0
  8  9  1  0
  9 10  2  0
 10 11  1  0
 11 12  1  0
 12 13  1  0
 13 14  2  0
 13 15  1  0
 15 16  1  0
 16 17  2  0
 17 18  1  0
 18 19  2  0
 19 20  1  0
 16 21  1  0
 20 21  2  0
  7 22  1  0
 10 22  1  0
M  END
