pyridine_urea_8206
     RDKit          3D

 23 24  0  0  0  0  0  0  0  0999 V2000
   12.9150    4.4650   21.6020 C   0  0  0  0  0  0  0  0  0  0  0  0
   13.1160    3.2430   22.2990 O   0  0  0  0  0  0  0  0  0  0  0  0
   11.9670    2.8820   23.0440 C   0  0  0  0  0  0  0  0  0  0  0  0
   11.2620    3.6570   23.6770 O   0  0  0  0  0  0  0  0  0  0  0  0
   11.6460    1.3380   22.9740 C   0  0  0  0  0  0  0  0  0  0  0  0
   10.3120    1.0000   22.9370 C   0  0  0  0  0  0  0  0  0  0  0  0
    9.8850   -0.4510   22.8490 C   0  0  0  0  0  0  0  0  0  0  0  0
    8.5680   -0.7260   22.7640 N   0  0  0  0  0  0  0  0  0  0  0  0
    7.9780   -0.0940   21.6810 C   0  0  0  0  0  0  0  0  0  0  0  0
    8.4380    0.9590   21.2560 O   0  0  0  0  0  0  0  0  0  0  0  0
    6.8790   -0.7290   21.1210 N   0  0  0  0  0  0  0  0  0  0  0  0
    6.3270   -0.0480   19.9530 C   0  0  0  0  0  0  0  0  0  0  0  0
    5.0390    0.7030   20.2750 C   0  0  0  0  0  0  0  0  0  0  0  0
    4.4080    1.4770   19.1180 C   0  0  0  0  0  0  0  0  0  0  0  0
    5.1500    1.3990   17.7940 C   0  0  0  0  0  0  0  0  0  0  0  0
    6.2970    0.6640   17.6800 N   0  0  0  0  0  0  0  0  0  0  0  0
    6.8920   -0.0500   18.7030 C   0  0  0  0  0  0  0  0  0  0  0  0
   10.7700   -1.4650   22.8260 C   0  0  0  0  0  0  0  0  0  0  0  0
   10.3900   -2.7570   22.7600 F   0  0  0  0  0  0  0  0  0  0  0  0
   12.0630   -1.0850   22.8650 C   0  0  0  0  0  0  0  0  0  0  0  0
   12.5160    0.2270   22.9270 C   0  0  0  0  0  0  0  0  0  0  0  0
   13.6630    0.1980   22.9070 O   0  0  0  0  0  0  0  0  0  0  0  0
   13.5880   -1.0620   22.2080 C   0  0  0  0  0  0  0  0  0  0  0  0
  1  2  1  0
  2  3  1  0
  3  4  2  0
  3  5  1  0
  5  6  2  0
  6  7  1  0
  7  8  1  0
  8  9  1  0
  9 10  2  0
  9 11  1  0
 11 12  1  0
 12 13  2  0
 13 14  1  0
 14 15  2  0
 15 16  1  0
 12 17  1  0
 16 17  2  0
  7 18  2  0
 18 19  1  0
 18 20  1  0
  5 21  1  0
 20 21  2  0
 21 22  1  0
 22 23  1  0
M  END
