pyridine_urea_1879
     RDKit          3D

 18 20  0  0  0  0  0  0  0  0999 V2000
    8.9700    0.9580   21.5590 O   0  0  0  0  0  0  0  0  0  0  0  0
    8.6700   -0.2290   21.5390 C   0  0  0  0  0  0  0  0  0  0  0  0
    9.4850   -1.2610   21.9880 N   0  0  0  0  0  0  0  0  0  0  0  0
   10.1490   -1.4000   23.2390 C   0  0  0  0  0  0  0  0  0  0  0  0
   11.4610   -0.9080   23.4150 C   0  0  0  0  0  0  0  0  0  0  0  0
   12.0150   -0.0480   22.5170 C   0  0  0  0  0  0  0  0  0  0  0  0
   11.8660    0.9850   23.2850 C   0  0  0  0  0  0  0  0  0  0  0  0
   11.9240    2.3900   23.0020 C   0  0  0  0  0  0  0  0  0  0  0  0
   11.8240    3.6530   23.3630 C   0  0  0  0  0  0  0  0  0  0  0  0
   12.1710    3.5900   21.9210 C   0  0  0  0  0  0  0  0  0  0  0  0
   11.5850    0.3260   24.4530 C   0  0  0  0  0  0  0  0  0  0  0  0
    7.4530   -0.6910   21.0500 N   0  0  0  0  0  0  0  0  0  0  0  0
    6.6230   -0.0200   20.1150 C   0  0  0  0  0  0  0  0  0  0  0  0
    5.4590    0.6940   20.3970 C   0  0  0  0  0  0  0  0  0  0  0  0
    4.7360    1.3230   19.3880 C   0  0  0  0  0  0  0  0  0  0  0  0
    5.2010    1.2240   18.0970 C   0  0  0  0  0  0  0  0  0  0  0  0
    6.3120    0.5430   17.7710 N   0  0  0  0  0  0  0  0  0  0  0  0
    6.9880   -0.0570   18.7770 C   0  0  0  0  0  0  0  0  0  0  0  0
  1  2  2  0
  2  3  1  0
  3  4  1  0
  4  5  1  0
  5  6  1  0
  6  7  1  0
  7  8  2  3
  8  9  1  0
  8 10  1  0
  9 10  1  0
  5 11  1  0
  7 11  1  0
  2 12  1  0
 12 13  1  0
 13 14  2  0
 14 15  1  0
 15 16  2  0
 16 17  1  0
 13 18  1  0
 17 18  2  0
M  END
