pyridine_urea_6396
     RDKit          3D

 23 25  0  0  0  0  0  0  0  0999 V2000
    8.7230    0.7130   21.0970 O   0  0  0  0  0  0  0  0  0  0  0  0
    8.2040   -0.3630   21.3390 C   0  0  0  0  0  0  0  0  0  0  0  0
    8.8020   -1.3050   22.1370 N   0  0  0  0  0  0  0  0  0  0  0  0
    9.3980   -0.7920   23.3420 C   0  0  0  0  0  0  0  0  0  0  0  0
    9.4760    0.7410   23.2710 C   0  0  0  0  0  0  0  0  0  0  0  0
   10.8280    1.3070   23.0670 C   0  0  0  0  0  0  0  0  0  0  0  0
   11.3030    2.3940   22.9550 C   0  0  0  0  0  0  0  0  0  0  0  0
   12.6730    1.8560   22.8030 C   0  0  0  0  0  0  0  0  0  0  0  0
   12.9520    3.5740   22.6910 Cl  0  0  0  0  0  0  0  0  0  0  0  0
   11.6550    0.5210   22.9960 C   0  0  0  0  0  0  0  0  0  0  0  0
   12.5840   -0.3940   22.9040 C   0  0  0  0  0  0  0  0  0  0  0  0
   12.3990    0.9470   22.8750 C   0  0  0  0  0  0  0  0  0  0  0  0
   13.7060   -0.4480   22.7280 O   0  0  0  0  0  0  0  0  0  0  0  0
   13.3800   -1.6810   22.1510 C   0  0  0  0  0  0  0  0  0  0  0  0
   11.9600   -1.8180   22.1910 C   0  0  0  0  0  0  0  0  0  0  0  0
   11.2840   -0.8750   23.1060 O   0  0  0  0  0  0  0  0  0  0  0  0
    6.9820   -0.7680   20.8880 N   0  0  0  0  0  0  0  0  0  0  0  0
    6.2790   -0.0160   19.9430 C   0  0  0  0  0  0  0  0  0  0  0  0
    4.9710    0.6050   20.4920 C   0  0  0  0  0  0  0  0  0  0  0  0
    4.5690    1.3080   19.2010 C   0  0  0  0  0  0  0  0  0  0  0  0
    5.2410    1.3570   17.8770 C   0  0  0  0  0  0  0  0  0  0  0  0
    6.3600    0.7370   17.6480 N   0  0  0  0  0  0  0  0  0  0  0  0
    6.8360    0.0750   18.6840 C   0  0  0  0  0  0  0  0  0  0  0  0
  1  2  2  0
  2  3  1  0
  3  4  1  0
  4  5  1  0
  5  6  1  0
  6  7  2  0
  7  8  1  0
  8  9  1  0
  8 10  2  0
 10 11  1  0
  6 12  1  0
 11 12  2  0
 11 13  1  0
 13 14  1  0
 14 15  1  0
 10 16  1  0
 15 16  1  0
  2 17  1  0
 17 18  1  0
 18 19  2  0
 19 20  1  0
 20 21  2  0
 21 22  1  0
 18 23  1  0
 22 23  2  0
M  END
