pyridine_urea_4839
     RDKit          3D

 21 22  0  0  0  0  0  0  0  0999 V2000
    9.7860   -0.5420   25.8250 C   0  0  0  0  0  0  0  0  0  0  0  0
   10.6690   -0.3270   24.7200 O   0  0  0  0  0  0  0  0  0  0  0  0
   10.2760    0.6570   23.8530 C   0  0  0  0  0  0  0  0  0  0  0  0
    9.2720    0.7010   24.5510 O   0  0  0  0  0  0  0  0  0  0  0  0
   11.6380    0.2810   23.2590 C   0  0  0  0  0  0  0  0  0  0  0  0
   12.8260    0.7200   23.1850 C   0  0  0  0  0  0  0  0  0  0  0  0
   13.5180   -0.3520   22.3740 N   0  0  0  0  0  0  0  0  0  0  0  0
   12.8830   -1.5960   21.8080 C   0  0  0  0  0  0  0  0  0  0  0  0
   11.4520   -1.8550   22.0080 C   0  0  0  0  0  0  0  0  0  0  0  0
   10.2290   -1.4350   22.5550 C   0  0  0  0  0  0  0  0  0  0  0  0
    9.1500   -1.4600   21.7160 N   0  0  0  0  0  0  0  0  0  0  0  0
    8.3380   -0.4150   21.3420 C   0  0  0  0  0  0  0  0  0  0  0  0
    8.7780    0.9400   21.2360 O   0  0  0  0  0  0  0  0  0  0  0  0
    7.0660   -0.7840   21.0690 N   0  0  0  0  0  0  0  0  0  0  0  0
    6.4460   -0.0990   20.0700 C   0  0  0  0  0  0  0  0  0  0  0  0
    5.2600    0.5970   20.3600 C   0  0  0  0  0  0  0  0  0  0  0  0
    4.6100    1.3160   19.3390 C   0  0  0  0  0  0  0  0  0  0  0  0
    5.2280    1.3030   17.9800 C   0  0  0  0  0  0  0  0  0  0  0  0
    6.3570    0.6230   17.7430 N   0  0  0  0  0  0  0  0  0  0  0  0
    6.9250   -0.0510   18.7720 C   0  0  0  0  0  0  0  0  0  0  0  0
   12.0880   -0.7110   22.5400 C   0  0  0  0  0  0  0  0  0  0  0  0
  1  2  1  0
  2  3  1  0
  3  4  2  0
  3  5  1  0
  5  6  2  0
  6  7  1  0
  7  8  2  0
  8  9  1  0
  9 10  1  0
 10 11  1  0
 11 12  1  0
 12 13  2  0
 12 14  1  0
 14 15  1  0
 15 16  2  0
 16 17  1  0
 17 18  2  0
 18 19  1  0
 15 20  1  0
 19 20  2  0
  5 21  1  0
  9 21  2  0
M  END
