pyridine_urea_14580
     RDKit          3D

 21 22  0  0  0  0  0  0  0  0999 V2000
    8.4930    1.2050   20.8900 O   0  0  0  0  0  0  0  0  0  0  0  0
    8.1090    0.0850   21.2670 C   0  0  0  0  0  0  0  0  0  0  0  0
    8.7920   -0.6360   22.1580 N   0  0  0  0  0  0  0  0  0  0  0  0
    9.7720    0.0340   22.8400 C   0  0  0  0  0  0  0  0  0  0  0  0
   10.4390   -0.5760   23.8070 C   0  0  0  0  0  0  0  0  0  0  0  0
   11.1150   -0.6810   22.5360 C   0  0  0  0  0  0  0  0  0  0  0  0
   12.3000   -1.2850   22.1680 C   0  0  0  0  0  0  0  0  0  0  0  0
   13.0260   -1.8940   23.0760 C   0  0  0  0  0  0  0  0  0  0  0  0
   14.0380   -2.4330   22.8510 O   0  0  0  0  0  0  0  0  0  0  0  0
   12.4900   -1.8780   24.3950 C   0  0  0  0  0  0  0  0  0  0  0  0
   13.3120   -2.5670   25.3860 N   0  0  0  0  0  0  0  0  0  0  0  0
   13.2190   -3.7650   25.4750 O   0  0  0  0  0  0  0  0  0  0  0  0
   13.9850   -1.8910   26.1390 O   0  0  0  0  0  0  0  0  0  0  0  0
   11.3230   -1.2740   24.6260 C   0  0  0  0  0  0  0  0  0  0  0  0
    6.9710   -0.5400   20.8580 N   0  0  0  0  0  0  0  0  0  0  0  0
    6.2590    0.1310   19.9080 C   0  0  0  0  0  0  0  0  0  0  0  0
    5.0470    0.7980   20.1130 C   0  0  0  0  0  0  0  0  0  0  0  0
    4.4400    1.4850   19.0620 C   0  0  0  0  0  0  0  0  0  0  0  0
    5.1070    1.4830   17.7420 C   0  0  0  0  0  0  0  0  0  0  0  0
    6.3020    0.7830   17.6150 N   0  0  0  0  0  0  0  0  0  0  0  0
    6.8420    0.1380   18.6630 C   0  0  0  0  0  0  0  0  0  0  0  0
  1  2  2  0
  2  3  1  0
  3  4  1  0
  4  5  1  0
  5  6  2  0
  6  7  1  0
  7  8  2  0
  8  9  1  0
  8 10  1  0
 10 11  1  0
 11 12  2  0
 11 13  1  0
  5 14  1  0
 10 14  2  0
  2 15  1  0
 15 16  1  0
 16 17  2  0
 17 18  1  0
 18 19  2  0
 19 20  1  0
 16 21  1  0
 20 21  2  0
M  CHG  2  11   1  13  -1
M  END
