pyridine_urea_1279
     RDKit          3D

 21 23  0  0  0  0  0  0  0  0999 V2000
   14.3650   -2.6170   25.9840 C   0  0  0  0  0  0  0  0  0  0  0  0
   13.5180   -2.0490   24.8700 C   0  0  0  0  0  0  0  0  0  0  0  0
   13.2190   -2.9520   23.8000 N   0  0  0  0  0  0  0  0  0  0  0  0
   12.4100   -2.4630   22.8340 C   0  0  0  0  0  0  0  0  0  0  0  0
   11.9810   -1.1740   22.9830 C   0  0  0  0  0  0  0  0  0  0  0  0
   12.3260   -0.3650   23.9900 C   0  0  0  0  0  0  0  0  0  0  0  0
   13.1120   -0.7800   24.9860 N   0  0  0  0  0  0  0  0  0  0  0  0
   11.7930    0.9010   23.9070 C   0  0  0  0  0  0  0  0  0  0  0  0
   10.4220    0.7840   23.8410 C   0  0  0  0  0  0  0  0  0  0  0  0
   10.1050    0.1520   22.6570 C   0  0  2  0  0  0  0  0  0  0  0  0
    8.9660   -0.5210   22.4840 N   0  0  0  0  0  0  0  0  0  0  0  0
    8.2770    0.1070   21.5100 C   0  0  0  0  0  0  0  0  0  0  0  0
    8.6510    1.2130   21.0890 O   0  0  0  0  0  0  0  0  0  0  0  0
    7.1190   -0.6090   21.0570 N   0  0  0  0  0  0  0  0  0  0  0  0
    6.4370    0.0220   20.0210 C   0  0  0  0  0  0  0  0  0  0  0  0
    5.2360    0.6920   20.2900 C   0  0  0  0  0  0  0  0  0  0  0  0
    4.5800    1.3710   19.1360 C   0  0  0  0  0  0  0  0  0  0  0  0
    5.1430    1.3250   17.8940 C   0  0  0  0  0  0  0  0  0  0  0  0
    6.2920    0.6610   17.6780 N   0  0  0  0  0  0  0  0  0  0  0  0
    6.8980    0.0370   18.7190 C   0  0  0  0  0  0  0  0  0  0  0  0
   11.1600   -0.5860   22.1320 C   0  0  0  0  0  0  0  0  0  0  0  0
  1  2  1  0
  2  3  2  0
  3  4  1  0
  4  5  2  0
  5  6  1  0
  2  7  1  0
  6  7  2  0
  6  8  1  0
  8  9  1  0
  9 10  1  0
 10 11  1  1
 11 12  1  0
 12 13  2  0
 12 14  1  0
 14 15  1  0
 15 16  2  0
 16 17  1  0
 17 18  2  0
 18 19  1  0
 15 20  1  0
 19 20  2  0
  5 21  1  0
 10 21  1  0
M  END
