pyridine_urea_7040
     RDKit          3D

 20 22  0  0  0  0  0  0  0  0999 V2000
    8.8320   -5.5340   24.2500 C   0  0  0  0  0  0  0  0  0  0  0  0
    8.8220   -4.0410   24.5130 C   0  0  0  0  0  0  0  0  0  0  0  0
    8.3460   -3.4100   25.6570 C   0  0  0  0  0  0  0  0  0  0  0  0
    8.4260   -1.6940   25.7930 S   0  0  0  0  0  0  0  0  0  0  0  0
    9.1720   -1.7800   24.1560 C   0  0  0  0  0  0  0  0  0  0  0  0
    9.5670   -0.6130   23.5350 C   0  0  0  0  0  0  0  0  0  0  0  0
    8.4970    0.1390   23.0690 N   0  0  0  0  0  0  0  0  0  0  0  0
    8.3790    0.4650   21.6360 C   0  0  0  0  0  0  0  0  0  0  0  0
    9.0400    1.3640   21.1260 O   0  0  0  0  0  0  0  0  0  0  0  0
    7.4320   -0.3160   21.0220 N   0  0  0  0  0  0  0  0  0  0  0  0
    6.5990    0.2150   20.0820 C   0  0  0  0  0  0  0  0  0  0  0  0
    5.4140    0.9140   20.3450 C   0  0  0  0  0  0  0  0  0  0  0  0
    4.6580    1.4350   19.2870 C   0  0  0  0  0  0  0  0  0  0  0  0
    5.1100    1.2390   17.9950 C   0  0  0  0  0  0  0  0  0  0  0  0
    6.2150    0.5790   17.6530 N   0  0  0  0  0  0  0  0  0  0  0  0
    6.9560    0.0620   18.7650 C   0  0  0  0  0  0  0  0  0  0  0  0
   10.3670    0.2990   24.3190 C   0  0  0  0  0  0  0  0  0  0  0  0
   11.5350    0.3430   23.5960 C   0  0  0  0  0  0  0  0  0  0  0  0
   10.9090   -0.5460   22.7710 C   0  0  0  0  0  0  0  0  0  0  0  0
    9.3480   -3.0800   23.5290 N   0  0  0  0  0  0  0  0  0  0  0  0
  1  2  1  0
  2  3  2  0
  3  4  1  0
  4  5  1  0
  5  6  1  0
  6  7  1  0
  7  8  1  0
  8  9  2  0
  8 10  1  0
 10 11  1  0
 11 12  2  0
 12 13  1  0
 13 14  2  0
 14 15  1  0
 11 16  1  0
 15 16  2  0
  6 17  1  0
 17 18  1  0
  6 19  1  0
 18 19  1  0
  2 20  1  0
  5 20  2  0
M  END
