pyridine_urea_12241
     RDKit          3D

 23 24  0  0  0  0  0  0  0  0999 V2000
    8.7150   -0.0800   30.3910 N   0  0  0  0  0  0  0  0  0  0  0  0
    8.2640   -0.1550   29.3160 C   0  0  0  0  0  0  0  0  0  0  0  0
    7.6540   -1.4420   29.3420 O   0  0  0  0  0  0  0  0  0  0  0  0
    7.9240    0.3400   27.9040 C   0  0  0  0  0  0  0  0  0  0  0  0
    8.0200    1.8960   27.7620 C   0  0  0  0  0  0  0  0  0  0  0  0
    7.7280    2.4230   26.5260 C   0  0  0  0  0  0  0  0  0  0  0  0
    7.3330    1.5160   25.3510 C   0  0  0  0  0  0  0  0  0  0  0  0
    7.2600    0.1220   25.5270 C   0  0  0  0  0  0  0  0  0  0  0  0
    6.8940   -0.7340   24.4590 N   0  0  0  0  0  0  0  0  0  0  0  0
    7.2950   -2.1380   24.1530 C   0  0  0  0  0  0  0  0  0  0  0  0
    7.0220   -3.2920   24.8470 O   0  0  0  0  0  0  0  0  0  0  0  0
    8.1110   -2.3850   22.8760 C   0  0  0  0  0  0  0  0  0  0  0  0
    8.9750   -1.4620   22.3810 N   0  0  0  0  0  0  0  0  0  0  0  0
    8.4530   -0.4250   21.6760 C   0  0  0  0  0  0  0  0  0  0  0  0
    9.0370    0.6530   21.5970 O   0  0  0  0  0  0  0  0  0  0  0  0
    7.1500   -0.8120   21.0890 N   0  0  0  0  0  0  0  0  0  0  0  0
    6.5110   -0.0880   20.0740 C   0  0  0  0  0  0  0  0  0  0  0  0
    5.2350    0.6910   20.4070 C   0  0  0  0  0  0  0  0  0  0  0  0
    4.6320    1.4330   19.2210 C   0  0  0  0  0  0  0  0  0  0  0  0
    5.2570    1.3500   17.9980 C   0  0  0  0  0  0  0  0  0  0  0  0
    6.3780    0.6500   17.7590 N   0  0  0  0  0  0  0  0  0  0  0  0
    6.9650   -0.0370   18.7680 C   0  0  0  0  0  0  0  0  0  0  0  0
    7.5520   -0.4630   26.8000 C   0  0  0  0  0  0  0  0  0  0  0  0
  1  2  1  0
  2  3  2  0
  2  4  1  0
  4  5  2  0
  5  6  1  0
  6  7  2  0
  7  8  1  0
  8  9  1  0
  9 10  1  0
 10 11  2  0
 10 12  1  0
 12 13  1  0
 13 14  1  0
 14 15  2  0
 14 16  1  0
 16 17  1  0
 17 18  2  0
 18 19  1  0
 19 20  2  0
 20 21  1  0
 17 22  1  0
 21 22  2  0
  4 23  1  0
  8 23  2  0
M  END
