pyridine_urea_1031
     RDKit          3D

 22 23  0  0  0  0  0  0  0  0999 V2000
   13.0230    0.6570   22.8560 O   0  0  0  0  0  0  0  0  0  0  0  0
   11.8910    1.0660   23.0260 C   0  0  0  0  0  0  0  0  0  0  0  0
   10.7600    0.1240   23.3410 C   0  0  0  0  0  0  0  0  0  0  0  0
   10.4740   -0.9370   22.4950 C   0  0  0  0  0  0  0  0  0  0  0  0
    9.0020   -0.9250   22.4220 N   0  0  0  0  0  0  0  0  0  0  0  0
    8.3200   -0.1580   21.5420 C   0  0  0  0  0  0  0  0  0  0  0  0
    8.7810    1.1500   21.0930 O   0  0  0  0  0  0  0  0  0  0  0  0
    7.0610   -0.6950   21.0540 N   0  0  0  0  0  0  0  0  0  0  0  0
    6.4650   -0.0270   20.0220 C   0  0  0  0  0  0  0  0  0  0  0  0
    5.2040    0.7550   20.3080 C   0  0  0  0  0  0  0  0  0  0  0  0
    4.4990    1.5320   19.2010 C   0  0  0  0  0  0  0  0  0  0  0  0
    5.2060    1.4110   17.8670 C   0  0  0  0  0  0  0  0  0  0  0  0
    6.3370    0.6760   17.7020 N   0  0  0  0  0  0  0  0  0  0  0  0
    6.9550   -0.0270   18.7320 C   0  0  0  0  0  0  0  0  0  0  0  0
   11.4810    2.3920   22.9620 N   0  0  0  0  0  0  0  0  0  0  0  0
   12.1850    3.4480   22.4770 C   0  0  0  0  0  0  0  0  0  0  0  0
   12.0030    4.6530   23.1510 C   0  0  0  0  0  0  0  0  0  0  0  0
   11.1750    4.7150   24.2620 C   0  0  0  0  0  0  0  0  0  0  0  0
   11.0450    5.9360   24.9010 C   0  0  0  0  0  0  0  0  0  0  0  0
   11.7360    7.0440   24.4180 C   0  0  0  0  0  0  0  0  0  0  0  0
   12.5360    6.8750   23.2930 C   0  0  0  0  0  0  0  0  0  0  0  0
   12.6710    5.6970   22.6580 N   0  0  0  0  0  0  0  0  0  0  0  0
  1  2  2  0
  2  3  1  0
  3  4  1  0
  4  5  1  0
  5  6  1  0
  6  7  2  0
  6  8  1  0
  8  9  1  0
  9 10  2  0
 10 11  1  0
 11 12  2  0
 12 13  1  0
  9 14  1  0
 13 14  2  0
  2 15  1  0
 15 16  1  0
 16 17  1  0
 17 18  2  0
 18 19  1  0
 19 20  2  0
 20 21  1  0
 17 22  1  0
 21 22  2  0
M  END
