pyridine_urea_14494
     RDKit          3D

 21 22  0  0  0  0  0  0  0  0999 V2000
   10.3120   -2.2710   21.8860 C   0  0  0  0  0  0  0  0  0  0  0  0
   10.7670   -1.0020   22.5300 C   0  0  0  0  0  0  0  0  0  0  0  0
    9.9080   -0.0700   23.0280 C   0  0  0  0  0  0  0  0  0  0  0  0
    8.5450   -0.5220   22.7970 N   0  0  0  0  0  0  0  0  0  0  0  0
    8.0010   -0.0880   21.6510 C   0  0  0  0  0  0  0  0  0  0  0  0
    8.5140    0.9250   21.1700 O   0  0  0  0  0  0  0  0  0  0  0  0
    6.8920   -0.7900   21.0630 N   0  0  0  0  0  0  0  0  0  0  0  0
    6.3290   -0.0930   20.0320 C   0  0  0  0  0  0  0  0  0  0  0  0
    5.0430    0.6690   20.3470 C   0  0  0  0  0  0  0  0  0  0  0  0
    4.4930    1.4380   19.1460 C   0  0  0  0  0  0  0  0  0  0  0  0
    5.2220    1.3810   17.8320 C   0  0  0  0  0  0  0  0  0  0  0  0
    6.3510    0.6570   17.6950 N   0  0  0  0  0  0  0  0  0  0  0  0
    6.8890   -0.0600   18.7600 C   0  0  0  0  0  0  0  0  0  0  0  0
   10.4820    1.0680   23.6070 C   0  0  0  0  0  0  0  0  0  0  0  0
   11.8550    1.2660   23.6710 C   0  0  0  0  0  0  0  0  0  0  0  0
   12.7520    0.3600   23.1790 C   0  0  0  0  0  0  0  0  0  0  0  0
   12.2570   -0.7630   22.6160 C   0  0  0  0  0  0  0  0  0  0  0  0
   13.0470   -1.7230   22.0980 C   0  0  0  0  0  0  0  0  0  0  0  0
   13.7590   -2.4230   22.9980 F   0  0  0  0  0  0  0  0  0  0  0  0
   13.7930   -1.3630   21.0500 F   0  0  0  0  0  0  0  0  0  0  0  0
   12.2260   -2.6020   21.5530 F   0  0  0  0  0  0  0  0  0  0  0  0
  1  2  1  0
  2  3  2  0
  3  4  1  0
  4  5  1  0
  5  6  2  0
  5  7  1  0
  7  8  1  0
  8  9  2  0
  9 10  1  0
 10 11  2  0
 11 12  1  0
  8 13  1  0
 12 13  2  0
  3 14  1  0
 14 15  2  0
 15 16  1  0
  2 17  1  0
 16 17  2  0
 17 18  1  0
 18 19  1  0
 18 20  1  0
 18 21  1  0
M  END
