pyridine_urea_9187
     RDKit          3D

 18 18  0  0  0  0  0  0  0  0999 V2000
   13.0450   -1.6020   21.6210 C   0  0  0  0  0  0  0  0  0  0  0  0
   13.0380   -0.3980   22.4980 C   0  0  0  0  0  0  0  0  0  0  0  0
   12.2020   -0.2330   23.5500 C   0  0  0  0  0  0  0  0  0  0  0  0
   12.7300    0.7830   23.9320 O   0  0  0  0  0  0  0  0  0  0  0  0
   12.2430   -1.3280   24.4430 C   0  0  0  0  0  0  0  0  0  0  0  0
   12.5620   -2.5970   23.9950 C   0  0  0  0  0  0  0  0  0  0  0  0
   10.7790    0.1930   23.1590 C   0  0  0  0  0  0  0  0  0  0  0  0
   10.4120   -0.9990   22.5660 C   0  0  0  0  0  0  0  0  0  0  0  0
    8.9850   -1.0170   22.3640 N   0  0  0  0  0  0  0  0  0  0  0  0
    8.4350   -0.0780   21.5290 C   0  0  0  0  0  0  0  0  0  0  0  0
    9.0420    1.2020   21.2510 O   0  0  0  0  0  0  0  0  0  0  0  0
    7.1770   -0.5470   20.9990 N   0  0  0  0  0  0  0  0  0  0  0  0
    6.5000    0.0600   20.0010 C   0  0  0  0  0  0  0  0  0  0  0  0
    5.3370    0.7720   20.2970 C   0  0  0  0  0  0  0  0  0  0  0  0
    4.6580    1.4100   19.2650 C   0  0  0  0  0  0  0  0  0  0  0  0
    5.1540    1.3190   17.9790 C   0  0  0  0  0  0  0  0  0  0  0  0
    6.2630    0.6320   17.6790 N   0  0  0  0  0  0  0  0  0  0  0  0
    6.9090    0.0210   18.6890 C   0  0  0  0  0  0  0  0  0  0  0  0
  1  2  1  0
  2  3  1  0
  3  4  1  0
  3  5  1  0
  5  6  1  0
  3  7  1  0
  7  8  1  0
  8  9  1  0
  9 10  1  0
 10 11  2  0
 10 12  1  0
 12 13  1  0
 13 14  2  0
 14 15  1  0
 15 16  2  0
 16 17  1  0
 13 18  1  0
 17 18  2  0
M  END
