pyridine_urea_7909
     RDKit          3D

 25 27  0  0  0  0  0  0  0  0999 V2000
   12.2900    7.1490   23.7980 C   0  0  0  0  0  0  0  0  0  0  0  0
   11.9330    6.2950   22.7930 N   0  0  0  0  0  0  0  0  0  0  0  0
   12.7590    5.3280   22.1890 C   0  0  0  0  0  0  0  0  0  0  0  0
   13.9810    5.5570   21.5180 O   0  0  0  0  0  0  0  0  0  0  0  0
   12.4430    3.9740   22.1840 C   0  0  0  0  0  0  0  0  0  0  0  0
   11.1850    3.5710   22.5660 C   0  0  1  0  0  0  0  0  0  0  0  0
   11.1150    2.2660   23.2230 N   0  0  0  0  0  0  0  0  0  0  0  0
   11.9650    1.1150   22.9410 C   0  0  0  0  0  0  0  0  0  0  0  0
   11.2910   -0.1510   23.0100 C   0  0  0  0  0  0  0  0  0  0  0  0
   10.1000   -0.2710   22.2660 C   0  0  0  0  0  0  0  0  0  0  0  0
    9.0150   -1.0540   22.5300 N   0  0  0  0  0  0  0  0  0  0  0  0
    8.0660   -0.9760   21.4860 C   0  0  0  0  0  0  0  0  0  0  0  0
    8.3920   -1.3200   20.1930 O   0  0  0  0  0  0  0  0  0  0  0  0
    6.8130   -0.4790   21.6630 N   0  0  0  0  0  0  0  0  0  0  0  0
    6.3030    0.0960   20.4170 C   0  0  0  0  0  0  0  0  0  0  0  0
    5.1580    0.8840   20.4190 C   0  0  0  0  0  0  0  0  0  0  0  0
    4.6030    1.4880   19.2710 C   0  0  0  0  0  0  0  0  0  0  0  0
    5.1500    1.3630   17.9710 C   0  0  0  0  0  0  0  0  0  0  0  0
    6.2930    0.5800   17.9100 N   0  0  0  0  0  0  0  0  0  0  0  0
    6.8740   -0.0370   19.0110 C   0  0  0  0  0  0  0  0  0  0  0  0
    9.3570    1.0530   22.2800 C   0  0  0  0  0  0  0  0  0  0  0  0
    9.7830    1.9420   23.1810 C   0  0  0  0  0  0  0  0  0  0  0  0
   10.6560    4.4640   23.5560 N   0  0  0  0  0  0  0  0  0  0  0  0
   10.6200    5.7320   23.0800 C   0  0  0  0  0  0  0  0  0  0  0  0
    9.5520    6.3130   22.9390 O   0  0  0  0  0  0  0  0  0  0  0  0
  1  2  1  0
  2  3  1  0
  3  4  2  0
  3  5  1  0
  5  6  1  0
  6  7  1  1
  7  8  1  0
  8  9  1  0
  9 10  1  0
 10 11  1  0
 11 12  1  0
 12 13  2  0
 12 14  1  0
 14 15  1  0
 15 16  2  0
 16 17  1  0
 17 18  2  0
 18 19  1  0
 15 20  1  0
 19 20  2  0
 10 21  1  0
  7 22  1  0
 21 22  1  0
  6 23  1  0
  2 24  1  0
 23 24  1  0
 24 25  2  0
M  END
