pyridine_urea_13352
     RDKit          3D

 22 24  0  0  0  0  0  0  0  0999 V2000
    9.5480    2.9020   23.0120 C   0  0  0  0  0  0  0  0  0  0  0  0
    8.7070    1.8020   23.3590 O   0  0  0  0  0  0  0  0  0  0  0  0
    9.1310    0.9370   24.3350 C   0  0  0  0  0  0  0  0  0  0  0  0
    8.6010    0.9800   25.4400 O   0  0  0  0  0  0  0  0  0  0  0  0
   10.1540    0.0110   24.0940 C   0  0  2  0  0  0  0  0  0  0  0  0
   11.2410    0.6240   23.5180 C   0  0  0  0  0  0  0  0  0  0  0  0
   12.1510   -0.3520   23.2620 C   0  0  0  0  0  0  0  0  0  0  0  0
   11.8570   -1.4210   22.2790 C   0  0  0  0  0  0  0  0  0  0  0  0
   10.5210   -1.4350   22.0180 C   0  0  0  0  0  0  0  0  0  0  0  0
    9.7440   -1.0940   23.3080 C   0  0  2  0  0  0  0  0  0  0  0  0
    8.3580   -0.9540   22.7600 N   0  0  0  0  0  0  0  0  0  0  0  0
    8.0760   -0.2240   21.6380 C   0  0  0  0  0  0  0  0  0  0  0  0
    8.7710    0.7170   21.2780 O   0  0  0  0  0  0  0  0  0  0  0  0
    6.9450   -0.6840   21.0250 N   0  0  0  0  0  0  0  0  0  0  0  0
    6.3500    0.0000   19.9750 C   0  0  0  0  0  0  0  0  0  0  0  0
    5.1610    0.6910   20.1740 C   0  0  0  0  0  0  0  0  0  0  0  0
    4.5940    1.3780   19.1150 C   0  0  0  0  0  0  0  0  0  0  0  0
    5.1800    1.3970   17.8660 C   0  0  0  0  0  0  0  0  0  0  0  0
    6.3290    0.7290   17.6560 N   0  0  0  0  0  0  0  0  0  0  0  0
    6.8810    0.0530   18.6950 C   0  0  0  0  0  0  0  0  0  0  0  0
   13.2990   -0.5290   24.0720 C   0  0  0  0  0  0  0  0  0  0  0  0
   13.3960    0.2950   23.1450 C   0  0  0  0  0  0  0  0  0  0  0  0
  1  2  1  0
  2  3  1  0
  3  4  2  0
  5  3  1  6
  5  6  1  0
  7  6  1  0
  7  8  1  0
  8  9  1  0
  5 10  1  0
  9 10  1  0
 10 11  1  6
 11 12  1  0
 12 13  2  0
 12 14  1  0
 14 15  1  0
 15 16  2  0
 16 17  1  0
 17 18  2  0
 18 19  1  0
 15 20  1  0
 19 20  2  0
  7 21  1  0
  7 22  1  0
 21 22  1  0
M  END
