pyridine_urea_14926
     RDKit          3D

 19 21  0  0  0  0  0  0  0  0999 V2000
    8.7130    0.7380   21.3560 O   0  0  0  0  0  0  0  0  0  0  0  0
    8.2270   -0.3260   21.7240 C   0  0  0  0  0  0  0  0  0  0  0  0
    7.1000   -0.8760   21.1440 N   0  0  0  0  0  0  0  0  0  0  0  0
    6.4640   -0.1350   20.0740 C   0  0  0  0  0  0  0  0  0  0  0  0
    5.1950    0.6400   20.4120 C   0  0  0  0  0  0  0  0  0  0  0  0
    4.5220    1.4320   19.2870 C   0  0  0  0  0  0  0  0  0  0  0  0
    5.2150    1.3590   17.9270 C   0  0  0  0  0  0  0  0  0  0  0  0
    6.3780    0.5980   17.7800 N   0  0  0  0  0  0  0  0  0  0  0  0
    6.9690   -0.1120   18.7920 C   0  0  0  0  0  0  0  0  0  0  0  0
    8.7550   -1.0950   22.7650 N   0  0  0  0  0  0  0  0  0  0  0  0
   10.1580   -1.0650   22.8990 C   0  0  1  0  0  0  0  0  0  0  0  0
   10.8680   -1.1800   21.7620 C   0  0  0  0  0  0  0  0  0  0  0  0
   11.1540   -2.4320   21.2910 O   0  0  0  0  0  0  0  0  0  0  0  0
   10.4700    0.2510   23.7370 C   0  0  0  0  0  0  0  0  0  0  0  0
   11.7000    0.8460   23.3890 C   0  0  0  0  0  0  0  0  0  0  0  0
   12.7970    0.1010   23.7880 C   0  0  0  0  0  0  0  0  0  0  0  0
   12.5000   -1.2110   23.8440 C   0  0  2  0  0  0  0  0  0  0  0  0
   11.6280   -1.6140   22.8630 C   0  0  0  0  0  0  0  0  0  0  0  0
   10.9650   -1.7950   23.9640 C   0  0  2  0  0  0  0  0  0  0  0  0
  1  2  2  0
  2  3  1  0
  3  4  1  0
  4  5  2  0
  5  6  1  0
  6  7  2  0
  7  8  1  0
  4  9  1  0
  8  9  2  0
  2 10  1  0
 11 10  1  0
 11 12  1  6
 12 13  1  0
 11 14  1  0
 14 15  1  0
 15 16  1  0
 17 16  1  6
 17 18  1  0
 11 19  1  0
 17 19  1  0
 19 18  1  6
M  END
