pyridine_urea_7184
     RDKit          3D

 19 20  0  0  0  0  0  0  0  0999 V2000
    4.5020    2.2390   18.2730 C   0  0  0  0  0  0  0  0  0  0  0  0
    5.4340    1.1580   17.7900 C   0  0  0  0  0  0  0  0  0  0  0  0
    6.1580    0.6930   18.9430 N   0  0  0  0  0  0  0  0  0  0  0  0
    5.3560   -0.0570   19.8640 C   0  0  0  0  0  0  0  0  0  0  0  0
    5.0650   -1.4020   20.0900 C   0  0  0  0  0  0  0  0  0  0  0  0
    5.8590   -1.2680   18.9740 C   0  0  0  0  0  0  0  0  0  0  0  0
    6.4380   -0.5010   19.9950 C   0  0  0  0  0  0  0  0  0  0  0  0
    7.3400    0.3760   20.5510 N   0  0  0  0  0  0  0  0  0  0  0  0
    8.5430    0.2990   21.2500 C   0  0  0  0  0  0  0  0  0  0  0  0
    9.2130    1.3200   21.3150 O   0  0  0  0  0  0  0  0  0  0  0  0
    8.9660   -0.9190   21.8110 N   0  0  0  0  0  0  0  0  0  0  0  0
   10.1790   -0.9930   22.5690 C   0  0  0  0  0  0  0  0  0  0  0  0
   11.4890   -1.3400   21.8910 C   0  0  0  0  0  0  0  0  0  0  0  0
   12.8020   -1.3950   22.5410 C   0  0  0  0  0  0  0  0  0  0  0  0
   12.5630   -1.0890   23.7930 C   0  0  0  0  0  0  0  0  0  0  0  0
   11.3480   -0.9840   23.5190 N   0  0  0  0  0  0  0  0  0  0  0  0
   10.2170   -0.7460   23.9530 C   0  0  0  0  0  0  0  0  0  0  0  0
    7.1820   -0.1620   18.7280 C   0  0  0  0  0  0  0  0  0  0  0  0
    7.8810   -1.1060   18.9710 O   0  0  0  0  0  0  0  0  0  0  0  0
  1  2  1  0
  2  3  1  0
  3  4  1  0
  4  5  2  0
  5  6  1  0
  6  7  2  0
  7  8  1  0
  8  9  1  0
  9 10  2  0
  9 11  1  0
 11 12  1  0
 12 13  2  0
 13 14  1  0
 14 15  2  0
 15 16  1  0
 12 17  1  0
 16 17  2  0
  3 18  1  0
  7 18  1  0
 18 19  2  0
M  END
