pyridine_urea_6417
     RDKit          3D

 19 21  0  0  0  0  0  0  0  0999 V2000
    8.9300    1.7370   20.9830 O   0  0  0  0  0  0  0  0  0  0  0  0
    8.2690    0.8500   21.4870 C   0  0  0  0  0  0  0  0  0  0  0  0
    8.2990    0.6110   22.7940 N   0  0  0  0  0  0  0  0  0  0  0  0
    8.3620   -0.7430   23.1090 C   0  0  0  0  0  0  0  0  0  0  0  0
    9.7360   -1.0730   23.4790 C   0  0  0  0  0  0  0  0  0  0  0  0
   10.9570   -0.2640   23.3640 C   0  0  0  0  0  0  0  0  0  0  0  0
   11.8030   -1.0930   23.8640 N   0  0  0  0  0  0  0  0  0  0  0  0
   13.0450   -0.7800   23.9770 C   0  0  0  0  0  0  0  0  0  0  0  0
   13.6550   -2.0110   24.6720 C   0  0  0  0  0  0  0  0  0  0  0  0
   12.5020   -3.2410   24.9220 S   0  0  0  0  0  0  0  0  0  0  0  0
   11.2500   -2.2930   24.2630 C   0  0  0  0  0  0  0  0  0  0  0  0
    9.8990   -2.3300   24.0140 N   0  0  0  0  0  0  0  0  0  0  0  0
    7.4000   -0.0300   20.8980 N   0  0  0  0  0  0  0  0  0  0  0  0
    6.5880    0.4230   19.9700 C   0  0  0  0  0  0  0  0  0  0  0  0
    5.3280    1.1660   20.1950 C   0  0  0  0  0  0  0  0  0  0  0  0
    4.6110    1.6080   19.1110 C   0  0  0  0  0  0  0  0  0  0  0  0
    5.0850    1.3490   17.8240 C   0  0  0  0  0  0  0  0  0  0  0  0
    6.2180    0.6580   17.6310 N   0  0  0  0  0  0  0  0  0  0  0  0
    6.9170    0.2260   18.6770 C   0  0  0  0  0  0  0  0  0  0  0  0
  1  2  2  0
  2  3  1  0
  3  4  1  0
  4  5  1  0
  5  6  2  0
  6  7  1  0
  7  8  1  0
  8  9  2  0
  9 10  1  0
  7 11  1  0
 10 11  1  0
  5 12  1  0
 11 12  2  0
  2 13  1  0
 13 14  1  0
 14 15  2  0
 15 16  1  0
 16 17  2  0
 17 18  1  0
 14 19  1  0
 18 19  2  0
M  END
