pyridine_urea_10345
     RDKit          3D

 23 24  0  0  0  0  0  0  0  0999 V2000
    9.1570    1.1700   21.3400 O   0  0  0  0  0  0  0  0  0  0  0  0
    8.7000    0.0460   21.5930 C   0  0  0  0  0  0  0  0  0  0  0  0
    7.5830   -0.5280   20.9920 N   0  0  0  0  0  0  0  0  0  0  0  0
    6.6920    0.1140   20.1040 C   0  0  0  0  0  0  0  0  0  0  0  0
    5.4300    0.8900   20.5270 C   0  0  0  0  0  0  0  0  0  0  0  0
    4.6490    1.5020   19.3620 C   0  0  0  0  0  0  0  0  0  0  0  0
    5.1840    1.2850   17.9870 C   0  0  0  0  0  0  0  0  0  0  0  0
    6.2930    0.5810   17.7290 N   0  0  0  0  0  0  0  0  0  0  0  0
    6.9880    0.0340   18.7530 C   0  0  0  0  0  0  0  0  0  0  0  0
    9.2490   -0.8500   22.5300 N   0  0  0  0  0  0  0  0  0  0  0  0
   10.4500   -0.6630   23.4150 C   0  0  1  0  0  0  0  0  0  0  0  0
   11.6330   -0.3610   22.6670 C   0  0  0  0  0  0  0  0  0  0  0  0
   12.8810   -0.6260   23.2740 C   0  0  0  0  0  0  0  0  0  0  0  0
   12.6910   -1.2470   24.3230 O   0  0  0  0  0  0  0  0  0  0  0  0
   10.4190    0.7230   24.1810 C   0  0  0  0  0  0  0  0  0  0  0  0
   11.5360    0.6750   23.4130 C   0  0  0  0  0  0  0  0  0  0  0  0
   11.5140   -0.5860   22.8420 C   0  0  0  0  0  0  0  0  0  0  0  0
   10.4040   -1.6640   23.0810 C   0  0  0  0  0  0  0  0  0  0  0  0
    9.3030   -1.3510   23.9580 C   0  0  0  0  0  0  0  0  0  0  0  0
    8.2690   -2.2000   24.2570 N   0  0  0  0  0  0  0  0  0  0  0  0
    8.3930   -3.3810   23.9110 O   0  0  0  0  0  0  0  0  0  0  0  0
    7.3890   -1.7680   25.0210 O   0  0  0  0  0  0  0  0  0  0  0  0
    9.3050   -0.0500   24.5610 C   0  0  0  0  0  0  0  0  0  0  0  0
  1  2  2  0
  2  3  1  0
  3  4  1  0
  4  5  2  0
  5  6  1  0
  6  7  2  0
  7  8  1  0
  4  9  1  0
  8  9  2  0
  2 10  1  0
 10 11  1  0
 11 12  1  6
 12 13  1  0
 13 14  1  0
 11 15  1  0
 15 16  2  0
 16 17  1  0
 17 18  2  0
 18 19  1  0
 19 20  1  0
 20 21  2  0
 20 22  1  0
 15 23  1  0
 19 23  2  0
M  CHG  2  20   1  22  -1
M  END
