pyridine_urea_14975
     RDKit          3D

 19 20  0  0  0  0  0  0  0  0999 V2000
   10.7870   -2.2380   24.4980 C   0  0  0  0  0  0  0  0  0  0  0  0
   11.7410   -1.3890   24.0270 N   0  0  0  0  0  0  0  0  0  0  0  0
   13.0810   -1.5350   24.1940 C   0  0  0  0  0  0  0  0  0  0  0  0
   13.6830   -2.8550   25.0800 S   0  0  0  0  0  0  0  0  0  0  0  0
   13.6410   -0.4730   23.5400 N   0  0  0  0  0  0  0  0  0  0  0  0
   12.7420    0.3820   22.9670 N   0  0  0  0  0  0  0  0  0  0  0  0
   11.4790   -0.2810   23.3310 C   0  0  0  0  0  0  0  0  0  0  0  0
   10.1510    0.2030   22.9700 C   0  0  0  0  0  0  0  0  0  0  0  0
    9.2430   -0.9790   23.1750 C   0  0  0  0  0  0  0  0  0  0  0  0
    8.1010   -0.5250   22.6900 N   0  0  0  0  0  0  0  0  0  0  0  0
    7.9880    0.0870   21.4560 C   0  0  0  0  0  0  0  0  0  0  0  0
    8.6790    1.0640   21.1060 O   0  0  0  0  0  0  0  0  0  0  0  0
    7.0330   -0.5340   20.7820 N   0  0  0  0  0  0  0  0  0  0  0  0
    6.3030    0.1590   19.8610 C   0  0  0  0  0  0  0  0  0  0  0  0
    5.1000    0.7910   20.0650 C   0  0  0  0  0  0  0  0  0  0  0  0
    4.5110    1.4780   19.0150 C   0  0  0  0  0  0  0  0  0  0  0  0
    5.1120    1.5370   17.7640 C   0  0  0  0  0  0  0  0  0  0  0  0
    6.3050    0.9160   17.4930 N   0  0  0  0  0  0  0  0  0  0  0  0
    6.8420    0.2290   18.6330 C   0  0  0  0  0  0  0  0  0  0  0  0
  1  2  1  0
  2  3  1  0
  3  4  1  0
  3  5  2  0
  5  6  1  0
  2  7  1  0
  6  7  2  0
  7  8  1  0
  8  9  1  0
  9 10  1  0
 10 11  1  0
 11 12  2  0
 11 13  1  0
 13 14  1  0
 14 15  2  0
 15 16  1  0
 16 17  2  0
 17 18  1  0
 14 19  1  0
 18 19  2  0
M  END
