pyridine_urea_8315
     RDKit          3D

 22 24  0  0  0  0  0  0  0  0999 V2000
    8.8240    0.9770   21.2210 O   0  0  0  0  0  0  0  0  0  0  0  0
    8.5550   -0.2120   21.3090 C   0  0  0  0  0  0  0  0  0  0  0  0
    7.2660   -0.6750   21.1260 N   0  0  0  0  0  0  0  0  0  0  0  0
    6.5250   -0.0000   20.0800 C   0  0  0  0  0  0  0  0  0  0  0  0
    5.2160    0.7770   20.4260 C   0  0  0  0  0  0  0  0  0  0  0  0
    4.5590    1.4160   19.3800 C   0  0  0  0  0  0  0  0  0  0  0  0
    5.1910    1.2940   17.9890 C   0  0  0  0  0  0  0  0  0  0  0  0
    6.3230    0.6040   17.7450 N   0  0  0  0  0  0  0  0  0  0  0  0
    6.9490   -0.0170   18.7690 C   0  0  0  0  0  0  0  0  0  0  0  0
    9.4350   -1.2390   21.5320 N   0  0  0  0  0  0  0  0  0  0  0  0
   10.4470   -1.2580   22.6030 C   0  0  1  0  0  0  0  0  0  0  0  0
   11.7570   -1.8020   22.0260 C   0  0  0  0  0  0  0  0  0  0  0  0
   12.8350   -0.8210   22.4900 C   0  0  0  0  0  0  0  0  0  0  0  0
   12.1220    0.3740   23.0930 C   0  0  0  0  0  0  0  0  0  0  0  0
   10.7190   -0.1590   23.3990 C   0  0  1  0  0  0  0  0  0  0  0  0
    9.7070    0.9740   23.1690 C   0  0  0  0  0  0  0  0  0  0  0  0
    8.3210    0.8630   23.3340 C   0  0  0  0  0  0  0  0  0  0  0  0
    7.4720    1.9540   23.1130 C   0  0  0  0  0  0  0  0  0  0  0  0
    7.9670    3.1960   22.7220 C   0  0  0  0  0  0  0  0  0  0  0  0
    6.7790    4.6410   22.4410 Br  0  0  0  0  0  0  0  0  0  0  0  0
    9.3260    3.3630   22.5440 C   0  0  0  0  0  0  0  0  0  0  0  0
   10.2660    2.3400   22.7360 C   0  0  0  0  0  0  0  0  0  0  0  0
  1  2  2  0
  2  3  1  0
  3  4  1  0
  4  5  2  0
  5  6  1  0
  6  7  2  0
  7  8  1  0
  4  9  1  0
  8  9  2  0
  2 10  1  0
 11 10  1  6
 11 12  1  0
 12 13  1  0
 13 14  1  0
 11 15  1  0
 14 15  1  0
 15 16  1  6
 16 17  2  0
 17 18  1  0
 18 19  2  0
 19 20  1  0
 19 21  1  0
 16 22  1  0
 21 22  2  0
M  END
