pyridine_urea_895
     RDKit          3D

 22 22  0  0  0  0  0  0  0  0999 V2000
    8.8820    1.2570   21.1860 O   0  0  0  0  0  0  0  0  0  0  0  0
    8.3950    0.1640   21.5090 C   0  0  0  0  0  0  0  0  0  0  0  0
    8.9470   -0.6340   22.5800 N   0  0  0  0  0  0  0  0  0  0  0  0
   10.2020   -0.2730   23.0410 C   0  0  0  0  0  0  0  0  0  0  0  0
   11.2540   -1.0680   22.6430 C   0  0  0  0  0  0  0  0  0  0  0  0
   11.1950   -1.6960   21.4360 N   0  0  0  0  0  0  0  0  0  0  0  0
   12.6370   -2.4130   21.0500 S   0  0  0  0  0  0  0  0  0  0  0  0
   12.3560   -3.5300   20.1770 O   0  0  0  0  0  0  0  0  0  0  0  0
   13.6140   -1.3860   20.7490 O   0  0  0  0  0  0  0  0  0  0  0  0
   12.8890   -3.0170   22.5230 N   0  0  0  0  0  0  0  0  0  0  0  0
   13.6000   -2.2950   23.5530 C   0  0  0  0  0  0  0  0  0  0  0  0
   13.0110   -2.3640   24.7930 C   0  0  0  0  0  0  0  0  0  0  0  0
   13.2840   -1.2680   25.4720 F   0  0  0  0  0  0  0  0  0  0  0  0
   13.5310   -3.3840   25.5010 F   0  0  0  0  0  0  0  0  0  0  0  0
   11.6800   -2.4780   24.7480 F   0  0  0  0  0  0  0  0  0  0  0  0
    7.3040   -0.4530   20.9570 N   0  0  0  0  0  0  0  0  0  0  0  0
    6.5200    0.1530   20.0370 C   0  0  0  0  0  0  0  0  0  0  0  0
    5.2580    0.9350   20.3150 C   0  0  0  0  0  0  0  0  0  0  0  0
    4.5670    1.5490   19.1270 C   0  0  0  0  0  0  0  0  0  0  0  0
    5.1360    1.3490   17.9010 C   0  0  0  0  0  0  0  0  0  0  0  0
    6.2550    0.6400   17.6580 N   0  0  0  0  0  0  0  0  0  0  0  0
    6.9000    0.0730   18.7080 C   0  0  0  0  0  0  0  0  0  0  0  0
  1  2  2  0
  2  3  1  0
  3  4  1  0
  4  5  1  0
  5  6  1  0
  7  6  1  0
  7  8  2  0
  7  9  2  0
  7 10  1  0
 10 11  1  0
 11 12  1  0
 12 13  1  0
 12 14  1  0
 12 15  1  0
  2 16  1  0
 16 17  1  0
 17 18  2  0
 18 19  1  0
 19 20  2  0
 20 21  1  0
 17 22  1  0
 21 22  2  0
M  END
