pyridine_urea_6743
     RDKit          3D

 21 23  0  0  0  0  0  0  0  0999 V2000
   12.7160   -0.7350   24.9140 C   0  0  0  0  0  0  0  0  0  0  0  0
   11.9460   -0.0090   23.7970 C   0  0  0  0  0  0  0  0  0  0  0  0
   12.5800    1.2840   23.2630 C   0  0  0  0  0  0  0  0  0  0  0  0
   10.4830    0.2480   24.3100 C   0  0  0  0  0  0  0  0  0  0  0  0
    9.7310   -0.0510   23.1510 C   0  0  2  0  0  0  0  0  0  0  0  0
    8.4350   -0.5610   22.8120 N   0  0  0  0  0  0  0  0  0  0  0  0
    8.0010   -0.0370   21.6180 C   0  0  0  0  0  0  0  0  0  0  0  0
    8.5550    0.9370   21.1140 O   0  0  0  0  0  0  0  0  0  0  0  0
    6.8610   -0.7230   21.0570 N   0  0  0  0  0  0  0  0  0  0  0  0
    6.3020   -0.0580   20.0070 C   0  0  0  0  0  0  0  0  0  0  0  0
    5.1090    0.6490   20.2040 C   0  0  0  0  0  0  0  0  0  0  0  0
    4.5490    1.3420   19.1410 C   0  0  0  0  0  0  0  0  0  0  0  0
    5.1730    1.3300   17.9100 C   0  0  0  0  0  0  0  0  0  0  0  0
    6.3160    0.6530   17.7020 N   0  0  0  0  0  0  0  0  0  0  0  0
    6.8540   -0.0260   18.7410 C   0  0  0  0  0  0  0  0  0  0  0  0
   10.5650   -0.9380   22.5420 C   0  0  0  0  0  0  0  0  0  0  0  0
   10.4310   -1.9690   21.5740 C   0  0  0  0  0  0  0  0  0  0  0  0
   11.7100   -2.5150   21.3750 C   0  0  0  0  0  0  0  0  0  0  0  0
   12.9760   -2.1650   22.0130 C   0  0  0  0  0  0  0  0  0  0  0  0
   13.2220   -1.1360   23.0320 C   0  0  0  0  0  0  0  0  0  0  0  0
   11.9820   -1.1610   22.6940 C   0  0  0  0  0  0  0  0  0  0  0  0
  2  1  1  0
  2  3  1  0
  2  4  1  0
  4  5  1  0
  5  6  1  1
  6  7  1  0
  7  8  2  0
  7  9  1  0
  9 10  1  0
 10 11  2  0
 11 12  1  0
 12 13  2  0
 13 14  1  0
 10 15  1  0
 14 15  2  0
  5 16  1  0
 16 17  2  0
 17 18  1  0
 18 19  2  0
 19 20  1  0
  2 21  1  0
 16 21  1  0
 20 21  2  0
M  END
