pyridine_urea_12919
     RDKit          3D

 19 20  0  0  0  0  0  0  0  0999 V2000
   12.0650    3.2150   22.6820 C   0  0  0  0  0  0  0  0  0  0  0  0
   10.6320    2.8410   23.1390 C   0  0  0  0  0  0  0  0  0  0  0  0
   10.6760    1.6610   24.1450 C   0  0  0  0  0  0  0  0  0  0  0  0
   10.0560    0.4820   23.8200 C   0  0  0  0  0  0  0  0  0  0  0  0
   10.4910   -0.0600   22.6570 C   0  0  2  0  0  0  0  0  0  0  0  0
    9.4330   -0.8700   22.0730 N   0  0  0  0  0  0  0  0  0  0  0  0
    8.5290   -0.0680   21.3910 C   0  0  0  0  0  0  0  0  0  0  0  0
    8.8280    1.2510   21.1170 O   0  0  0  0  0  0  0  0  0  0  0  0
    7.3570   -0.6770   21.0130 N   0  0  0  0  0  0  0  0  0  0  0  0
    6.5480   -0.0280   20.0680 C   0  0  0  0  0  0  0  0  0  0  0  0
    5.3580    0.6760   20.3240 C   0  0  0  0  0  0  0  0  0  0  0  0
    4.6540    1.3090   19.3050 C   0  0  0  0  0  0  0  0  0  0  0  0
    5.1130    1.2610   18.0020 C   0  0  0  0  0  0  0  0  0  0  0  0
    6.2620    0.5720   17.7320 N   0  0  0  0  0  0  0  0  0  0  0  0
    6.9670   -0.0650   18.7500 C   0  0  0  0  0  0  0  0  0  0  0  0
   11.8440   -0.3740   22.7490 C   0  0  0  0  0  0  0  0  0  0  0  0
   12.3640   -1.5130   22.2610 C   0  0  0  0  0  0  0  0  0  0  0  0
   12.9030   -1.6940   23.5200 C   0  0  0  0  0  0  0  0  0  0  0  0
   12.3770   -0.5380   24.0560 C   0  0  0  0  0  0  0  0  0  0  0  0
  1  2  1  0
  2  3  1  0
  3  4  1  0
  5  4  1  1
  5  6  1  0
  6  7  1  0
  7  8  2  0
  7  9  1  0
  9 10  1  0
 10 11  2  0
 11 12  1  0
 12 13  2  0
 13 14  1  0
 10 15  1  0
 14 15  2  0
  5 16  1  0
 16 17  1  0
 17 18  1  0
 16 19  1  0
 18 19  1  0
M  END
