pyridine_urea_8217
     RDKit          3D

 23 25  0  0  0  0  0  0  0  0999 V2000
    7.4940    0.3930   26.9190 C   0  0  0  0  0  0  0  0  0  0  0  0
    8.4900    0.1610   26.0010 N   0  0  0  0  0  0  0  0  0  0  0  0
    9.8480   -0.1060   26.3550 C   0  0  0  0  0  0  0  0  0  0  0  0
   10.7980   -0.3340   25.0950 C   0  0  0  0  0  0  0  0  0  0  0  0
    9.6490   -0.1230   24.3470 C   0  0  0  0  0  0  0  0  0  0  0  0
    9.7260   -0.2000   22.8570 C   0  0  2  0  0  0  0  0  0  0  0  0
    8.6890   -0.7420   22.2760 N   0  0  0  0  0  0  0  0  0  0  0  0
    8.1520    0.0600   21.3880 C   0  0  0  0  0  0  0  0  0  0  0  0
    8.6670    1.1390   21.0490 O   0  0  0  0  0  0  0  0  0  0  0  0
    6.9910   -0.4840   20.9500 N   0  0  0  0  0  0  0  0  0  0  0  0
    6.3290    0.1770   19.8890 C   0  0  0  0  0  0  0  0  0  0  0  0
    5.0350    0.9240   20.2150 C   0  0  0  0  0  0  0  0  0  0  0  0
    4.4030    1.6450   19.0360 C   0  0  0  0  0  0  0  0  0  0  0  0
    5.1290    1.5270   17.7150 C   0  0  0  0  0  0  0  0  0  0  0  0
    6.2800    0.7990   17.5920 N   0  0  0  0  0  0  0  0  0  0  0  0
    6.8840    0.1310   18.6340 C   0  0  0  0  0  0  0  0  0  0  0  0
   10.7900   -0.9320   22.4630 C   0  0  0  0  0  0  0  0  0  0  0  0
   11.0140   -2.0250   21.7610 C   0  0  0  0  0  0  0  0  0  0  0  0
   12.4470   -2.2020   21.7840 C   0  0  0  0  0  0  0  0  0  0  0  0
   13.3850   -1.2760   22.4870 C   0  0  0  0  0  0  0  0  0  0  0  0
   12.9690   -0.1150   23.2020 C   0  0  0  0  0  0  0  0  0  0  0  0
   12.1930   -0.9150   22.6020 C   0  0  0  0  0  0  0  0  0  0  0  0
    8.3380    0.1550   24.7010 N   0  0  0  0  0  0  0  0  0  0  0  0
  1  2  1  0
  2  3  1  0
  3  4  2  0
  4  5  1  0
  5  6  1  0
  6  7  1  1
  7  8  1  0
  8  9  2  0
  8 10  1  0
 10 11  1  0
 11 12  2  0
 12 13  1  0
 13 14  2  0
 14 15  1  0
 11 16  1  0
 15 16  2  0
  6 17  1  0
 17 18  2  0
 18 19  1  0
 19 20  2  0
 20 21  1  0
 17 22  1  0
 21 22  2  0
  2 23  1  0
  5 23  2  0
M  END
