pyridine_urea_578
     RDKit          3D

 24 26  0  0  0  0  0  0  0  0999 V2000
   13.5990   -0.9670   21.7630 N   0  0  0  0  0  0  0  0  0  0  0  0
   13.2570   -0.0410   22.6940 C   0  0  0  0  0  0  0  0  0  0  0  0
   11.8850   -0.3490   23.1510 C   0  0  0  0  0  0  0  0  0  0  0  0
   11.0410   -0.8900   22.2270 C   0  0  0  0  0  0  0  0  0  0  0  0
    9.7780   -1.2060   22.5470 C   0  0  0  0  0  0  0  0  0  0  0  0
    8.9280   -1.6970   21.6510 N   0  0  0  0  0  0  0  0  0  0  0  0
    8.0880   -0.6210   21.2090 C   0  0  0  0  0  0  0  0  0  0  0  0
    8.5810    0.5070   21.1480 O   0  0  0  0  0  0  0  0  0  0  0  0
    6.7230   -0.9470   20.8770 N   0  0  0  0  0  0  0  0  0  0  0  0
    6.1770   -0.1500   19.9290 C   0  0  0  0  0  0  0  0  0  0  0  0
    4.9150    0.6970   20.0990 C   0  0  0  0  0  0  0  0  0  0  0  0
    4.4520    1.4920   19.0510 C   0  0  0  0  0  0  0  0  0  0  0  0
    5.1060    1.5590   17.8040 C   0  0  0  0  0  0  0  0  0  0  0  0
    6.2910    0.7330   17.6890 N   0  0  0  0  0  0  0  0  0  0  0  0
    6.7900   -0.0770   18.7160 C   0  0  0  0  0  0  0  0  0  0  0  0
    9.2980   -1.0110   23.9100 C   0  0  0  0  0  0  0  0  0  0  0  0
   10.1080   -0.4800   24.9600 C   0  0  0  0  0  0  0  0  0  0  0  0
    9.2970   -0.5240   26.1420 C   0  0  0  0  0  0  0  0  0  0  0  0
    8.6430   -1.7330   26.4070 C   0  0  0  0  0  0  0  0  0  0  0  0
    7.8190   -1.9370   27.5120 C   0  0  0  0  0  0  0  0  0  0  0  0
    7.6110   -0.8450   28.4500 N   0  0  0  0  0  0  0  0  0  0  0  0
    8.3180    0.3740   28.0980 C   0  0  0  0  0  0  0  0  0  0  0  0
    9.1310    0.5360   26.9830 C   0  0  0  0  0  0  0  0  0  0  0  0
   11.4460   -0.1060   24.5740 C   0  0  0  0  0  0  0  0  0  0  0  0
  1  2  3  0
  2  3  1  0
  3  4  2  0
  4  5  1  0
  5  6  1  0
  6  7  1  0
  7  8  2  0
  7  9  1  0
  9 10  1  0
 10 11  2  0
 11 12  1  0
 12 13  2  0
 13 14  1  0
 10 15  1  0
 14 15  2  0
  5 16  2  0
 16 17  1  0
 17 18  1  0
 18 19  2  0
 19 20  1  0
 20 21  2  0
 21 22  1  0
 18 23  1  0
 22 23  2  0
  3 24  1  0
 17 24  2  0
M  END
