pyridine_urea_682
     RDKit          3D

 24 25  0  0  0  0  0  0  0  0999 V2000
   13.2140   -1.9760   21.1020 C   0  0  0  0  0  0  0  0  0  0  0  0
   12.9310   -0.9270   21.6640 O   0  0  0  0  0  0  0  0  0  0  0  0
   13.2900   -0.7880   22.9550 C   0  0  0  0  0  0  0  0  0  0  0  0
   12.8660   -0.6360   24.1140 C   0  0  0  0  0  0  0  0  0  0  0  0
   11.4710   -0.5610   24.1530 C   0  0  0  0  0  0  0  0  0  0  0  0
   10.5330   -0.5960   23.1760 C   0  0  0  0  0  0  0  0  0  0  0  0
    9.4980    0.2640   23.4040 C   0  0  0  0  0  0  0  0  0  0  0  0
    8.3720   -0.3580   22.7600 N   0  0  0  0  0  0  0  0  0  0  0  0
    8.0120    0.1280   21.5520 C   0  0  0  0  0  0  0  0  0  0  0  0
    8.6230    1.2500   20.9980 O   0  0  0  0  0  0  0  0  0  0  0  0
    6.9200   -0.7000   21.0160 N   0  0  0  0  0  0  0  0  0  0  0  0
    6.3410    0.0100   19.9210 C   0  0  0  0  0  0  0  0  0  0  0  0
    5.1510    0.7080   20.1650 C   0  0  0  0  0  0  0  0  0  0  0  0
    4.5520    1.4290   19.1350 C   0  0  0  0  0  0  0  0  0  0  0  0
    5.1490    1.4420   17.8780 C   0  0  0  0  0  0  0  0  0  0  0  0
    6.2810    0.7900   17.5840 N   0  0  0  0  0  0  0  0  0  0  0  0
    6.8830    0.0470   18.6700 C   0  0  0  0  0  0  0  0  0  0  0  0
   11.2530   -0.4500   25.3380 C   0  0  0  0  0  0  0  0  0  0  0  0
   12.5810   -0.5570   24.7700 C   0  0  0  0  0  0  0  0  0  0  0  0
   11.9280   -0.6960   23.3770 C   0  0  0  0  0  0  0  0  0  0  0  0
   11.7170   -0.8480   22.0330 O   0  0  0  0  0  0  0  0  0  0  0  0
   11.3440   -2.2270   21.9050 C   0  0  0  0  0  0  0  0  0  0  0  0
    9.9940   -2.3590   22.0820 F   0  0  0  0  0  0  0  0  0  0  0  0
   11.9220   -2.8440   22.9720 F   0  0  0  0  0  0  0  0  0  0  0  0
  1  2  1  0
  2  3  1  0
  3  4  2  0
  4  5  1  0
  5  6  1  0
  6  7  1  0
  7  8  1  0
  8  9  1  0
  9 10  2  0
  9 11  1  0
 11 12  1  0
 12 13  2  0
 13 14  1  0
 14 15  2  0
 15 16  1  0
 12 17  1  0
 16 17  2  0
  5 18  2  0
 18 19  1  0
  3 20  1  0
 19 20  2  0
 20 21  1  0
 21 22  1  0
 22 23  1  0
 22 24  1  0
M  END
