pyridine_urea_3800
     RDKit          3D

 31 34  0  0  0  0  0  0  0  0999 V2000
    8.6410    1.6420   21.0290 O   0  0  0  0  0  0  0  0  0  0  0  0
    8.3940    0.4550   21.1770 C   0  0  0  0  0  0  0  0  0  0  0  0
    9.3540   -0.4370   21.4770 N   0  0  0  0  0  0  0  0  0  0  0  0
    9.1490   -1.1210   22.6670 C   0  0  0  0  0  0  0  0  0  0  0  0
   10.3750   -1.1970   23.4960 C   0  0  0  0  0  0  0  0  0  0  0  0
   10.4100   -0.5920   24.7730 C   0  0  0  0  0  0  0  0  0  0  0  0
    9.1830    0.1120   25.1490 C   0  0  0  0  0  0  0  0  0  0  0  0
    9.5320    1.0130   24.0430 C   0  0  0  0  0  0  0  0  0  0  0  0
   10.7360    0.8840   23.2260 C   0  0  0  0  0  0  0  0  0  0  0  0
    9.7610    1.8990   23.0230 C   0  0  0  0  0  0  0  0  0  0  0  0
   10.0570    2.7490   22.0050 F   0  0  0  0  0  0  0  0  0  0  0  0
    8.5590    2.0200   23.8350 C   0  0  0  0  0  0  0  0  0  0  0  0
    8.2660    1.1350   24.9280 C   0  0  0  0  0  0  0  0  0  0  0  0
   11.5760   -0.7560   25.4910 N   0  0  0  0  0  0  0  0  0  0  0  0
   12.2350   -1.5200   24.5220 C   0  0  0  0  0  0  0  0  0  0  0  0
   13.4560   -2.0980   24.5960 C   0  0  0  0  0  0  0  0  0  0  0  0
   13.8450   -2.7860   23.3670 C   0  0  0  0  0  0  0  0  0  0  0  0
   13.0650   -2.7710   22.2310 C   0  0  0  0  0  0  0  0  0  0  0  0
   13.3310   -3.1050   20.8710 C   0  0  0  0  0  0  0  0  0  0  0  0
   12.2180   -3.2340   20.1690 F   0  0  0  0  0  0  0  0  0  0  0  0
   14.1650   -4.1270   20.5710 F   0  0  0  0  0  0  0  0  0  0  0  0
   13.8580   -1.9170   20.4780 F   0  0  0  0  0  0  0  0  0  0  0  0
   11.9100   -2.2700   22.3050 C   0  0  0  0  0  0  0  0  0  0  0  0
   11.5360   -1.7120   23.3660 N   0  0  0  0  0  0  0  0  0  0  0  0
    7.1730   -0.1290   21.0180 N   0  0  0  0  0  0  0  0  0  0  0  0
    6.4610    0.3110   19.9980 C   0  0  0  0  0  0  0  0  0  0  0  0
    5.2840    1.0080   20.2430 C   0  0  0  0  0  0  0  0  0  0  0  0
    4.5730    1.5000   19.1670 C   0  0  0  0  0  0  0  0  0  0  0  0
    5.0700    1.2740   17.9000 C   0  0  0  0  0  0  0  0  0  0  0  0
    6.1860    0.5960   17.6460 N   0  0  0  0  0  0  0  0  0  0  0  0
    6.8590    0.1270   18.6980 C   0  0  0  0  0  0  0  0  0  0  0  0
  1  2  2  0
  2  3  1  0
  3  4  1  0
  4  5  1  0
  5  6  2  0
  6  7  1  0
  7  8  2  0
  8  9  1  0
  9 10  2  0
 10 11  1  0
 10 12  1  0
  7 13  1  0
 12 13  2  0
  6 14  1  0
 14 15  2  0
 15 16  1  0
 16 17  2  0
 17 18  1  0
 18 19  1  0
 19 20  1  0
 19 21  1  0
 19 22  1  0
 18 23  2  0
  5 24  1  0
 15 24  1  0
 23 24  1  0
  2 25  1  0
 25 26  1  0
 26 27  2  0
 27 28  1  0
 28 29  2  0
 29 30  1  0
 26 31  1  0
 30 31  2  0
M  END
