pyridine_urea_15153
     RDKit          3D

 18 19  0  0  0  0  0  0  0  0999 V2000
    8.8880    0.7080   21.4120 O   0  0  0  0  0  0  0  0  0  0  0  0
    8.3430   -0.3830   21.5060 C   0  0  0  0  0  0  0  0  0  0  0  0
    8.9160   -1.4640   22.1410 N   0  0  0  0  0  0  0  0  0  0  0  0
   10.0880   -1.2820   22.9610 C   0  0  0  0  0  0  0  0  0  0  0  0
   11.3920   -1.4820   22.1940 C   0  0  2  0  0  0  0  0  0  0  0  0
   11.8500   -2.7510   22.3440 O   0  0  0  0  0  0  0  0  0  0  0  0
   12.3150   -0.3520   22.5510 C   0  0  0  0  0  0  0  0  0  0  0  0
   11.5150    0.9040   22.7180 C   0  0  0  0  0  0  0  0  0  0  0  0
   11.1170    0.8770   24.1610 C   0  0  0  0  0  0  0  0  0  0  0  0
   11.9890   -0.2810   24.7210 C   0  0  0  0  0  0  0  0  0  0  0  0
   12.9500   -0.4880   23.7270 C   0  0  0  0  0  0  0  0  0  0  0  0
    7.0970   -0.7060   21.0210 N   0  0  0  0  0  0  0  0  0  0  0  0
    6.3870    0.0030   20.0420 C   0  0  0  0  0  0  0  0  0  0  0  0
    5.2100    0.7030   20.2480 C   0  0  0  0  0  0  0  0  0  0  0  0
    4.6050    1.3820   19.1910 C   0  0  0  0  0  0  0  0  0  0  0  0
    5.2120    1.3340   17.9440 C   0  0  0  0  0  0  0  0  0  0  0  0
    6.3480    0.6580   17.7220 N   0  0  0  0  0  0  0  0  0  0  0  0
    6.9020    0.0130   18.7630 C   0  0  0  0  0  0  0  0  0  0  0  0
  1  2  2  0
  2  3  1  0
  3  4  1  0
  4  5  1  0
  5  6  1  1
  5  7  1  0
  7  8  1  0
  8  9  1  0
  9 10  1  0
  7 11  1  0
 10 11  1  0
  2 12  1  0
 12 13  1  0
 13 14  2  0
 14 15  1  0
 15 16  2  0
 16 17  1  0
 13 18  1  0
 17 18  2  0
M  END
