pyridine_urea_2300
     RDKit          3D

 27 29  0  0  0  0  0  0  0  0999 V2000
   12.9380   -0.5200   22.3340 C   0  0  0  0  0  0  0  0  0  0  0  0
   12.7790    0.8470   22.9840 C   0  0  0  0  0  0  0  0  0  0  0  0
   11.5030    1.3990   23.1900 C   0  0  0  0  0  0  0  0  0  0  0  0
   11.2240    2.6560   23.5750 N   0  0  0  0  0  0  0  0  0  0  0  0
    9.8540    2.6750   23.7200 N   0  0  0  0  0  0  0  0  0  0  0  0
    9.2230    3.9140   24.2120 C   0  0  0  0  0  0  0  0  0  0  0  0
    8.7690    4.8710   23.3070 C   0  0  0  0  0  0  0  0  0  0  0  0
    9.5190    6.0350   23.1420 C   0  0  0  0  0  0  0  0  0  0  0  0
    9.1010    7.0350   22.2660 C   0  0  0  0  0  0  0  0  0  0  0  0
    7.8100    6.8470   21.4810 C   0  0  0  0  0  0  0  0  0  0  0  0
    7.0860    5.6690   21.6670 C   0  0  0  0  0  0  0  0  0  0  0  0
    7.5690    4.7100   22.5690 C   0  0  0  0  0  0  0  0  0  0  0  0
    9.2130    1.4720   23.4030 C   0  0  0  0  0  0  0  0  0  0  0  0
    7.8300    1.2940   23.4810 C   0  0  0  0  0  0  0  0  0  0  0  0
    7.0290    1.8710   22.4870 C   0  0  0  0  0  0  0  0  0  0  0  0
   10.2260    0.5850   23.0440 C   0  0  0  0  0  0  0  0  0  0  0  0
   10.3100   -0.7500   22.6360 C   0  0  0  0  0  0  0  0  0  0  0  0
    8.9790   -1.1450   22.2750 N   0  0  0  0  0  0  0  0  0  0  0  0
    8.3190   -0.2860   21.4440 C   0  0  0  0  0  0  0  0  0  0  0  0
    8.7830    0.8030   21.1710 O   0  0  0  0  0  0  0  0  0  0  0  0
    7.1260   -0.7700   20.9780 N   0  0  0  0  0  0  0  0  0  0  0  0
    6.3950   -0.0560   20.0210 C   0  0  0  0  0  0  0  0  0  0  0  0
    5.1940    0.6220   20.2130 C   0  0  0  0  0  0  0  0  0  0  0  0
    4.5620    1.3240   19.1770 C   0  0  0  0  0  0  0  0  0  0  0  0
    5.1870    1.3100   17.9450 C   0  0  0  0  0  0  0  0  0  0  0  0
    6.3490    0.6580   17.7160 N   0  0  0  0  0  0  0  0  0  0  0  0
    6.9140   -0.0010   18.7430 C   0  0  0  0  0  0  0  0  0  0  0  0
  1  2  1  0
  2  3  1  0
  3  4  2  0
  4  5  1  0
  5  6  1  0
  6  7  1  0
  7  8  2  0
  8  9  1  0
  9 10  2  0
 10 11  1  0
  7 12  1  0
 11 12  2  0
  5 13  1  0
 13 14  1  0
 14 15  1  0
  3 16  1  0
 13 16  2  0
 16 17  1  0
 17 18  1  0
 18 19  1  0
 19 20  2  0
 19 21  1  0
 21 22  1  0
 22 23  2  0
 23 24  1  0
 24 25  2  0
 25 26  1  0
 22 27  1  0
 26 27  2  0
M  END
