pyridine_urea_1252
     RDKit          3D

 20 22  0  0  0  0  0  0  0  0999 V2000
    8.8320    0.9470   21.2910 O   0  0  0  0  0  0  0  0  0  0  0  0
    8.1870   -0.0480   21.5990 C   0  0  0  0  0  0  0  0  0  0  0  0
    8.5100   -0.8590   22.6340 N   0  0  0  0  0  0  0  0  0  0  0  0
    8.8480   -2.2170   22.3350 C   0  0  0  0  0  0  0  0  0  0  0  0
   10.0060   -2.6170   23.2300 C   0  0  0  0  0  0  0  0  0  0  0  0
    9.9650   -3.5970   24.2000 C   0  0  0  0  0  0  0  0  0  0  0  0
   11.2310   -3.5570   24.6980 N   0  0  0  0  0  0  0  0  0  0  0  0
   12.0300   -2.6150   24.1040 C   0  0  0  0  0  0  0  0  0  0  0  0
   11.2590   -2.0210   23.1730 N   0  0  0  0  0  0  0  0  0  0  0  0
   11.7810   -0.9730   22.3440 C   0  0  0  0  0  0  0  0  0  0  0  0
   12.8720   -0.4270   23.0260 C   0  0  0  0  0  0  0  0  0  0  0  0
   13.7030   -1.3200   23.1720 O   0  0  0  0  0  0  0  0  0  0  0  0
   13.4160   -2.1950   24.2830 C   0  0  0  0  0  0  0  0  0  0  0  0
    7.0510   -0.5110   20.9940 N   0  0  0  0  0  0  0  0  0  0  0  0
    6.3580    0.1320   20.0090 C   0  0  0  0  0  0  0  0  0  0  0  0
    5.1700    0.8200   20.2570 C   0  0  0  0  0  0  0  0  0  0  0  0
    4.5300    1.4690   19.1920 C   0  0  0  0  0  0  0  0  0  0  0  0
    5.1710    1.3810   17.8450 C   0  0  0  0  0  0  0  0  0  0  0  0
    6.3080    0.7040   17.6460 N   0  0  0  0  0  0  0  0  0  0  0  0
    6.8690    0.0960   18.7330 C   0  0  0  0  0  0  0  0  0  0  0  0
  1  2  2  0
  2  3  1  0
  3  4  1  0
  4  5  1  0
  5  6  2  0
  6  7  1  0
  7  8  2  0
  5  9  1  0
  8  9  1  0
  9 10  1  0
 10 11  1  0
 11 12  1  0
  8 13  1  0
 12 13  1  0
  2 14  1  0
 14 15  1  0
 15 16  2  0
 16 17  1  0
 17 18  2  0
 18 19  1  0
 15 20  1  0
 19 20  2  0
M  END
