pyridine_urea_13902
     RDKit          3D

 24 26  0  0  0  0  0  0  0  0999 V2000
    8.4720    1.2840   20.9340 O   0  0  0  0  0  0  0  0  0  0  0  0
    7.9660    0.3170   21.5190 C   0  0  0  0  0  0  0  0  0  0  0  0
    6.9820   -0.4830   21.0210 N   0  0  0  0  0  0  0  0  0  0  0  0
    6.3620    0.1350   19.9170 C   0  0  0  0  0  0  0  0  0  0  0  0
    5.0620    0.8640   20.2090 C   0  0  0  0  0  0  0  0  0  0  0  0
    4.4720    1.5220   19.0230 C   0  0  0  0  0  0  0  0  0  0  0  0
    5.1350    1.4140   17.8160 C   0  0  0  0  0  0  0  0  0  0  0  0
    6.2860    0.7390   17.6260 N   0  0  0  0  0  0  0  0  0  0  0  0
    6.8640    0.1250   18.6590 C   0  0  0  0  0  0  0  0  0  0  0  0
    8.3400   -0.0560   22.7480 N   0  0  0  0  0  0  0  0  0  0  0  0
    9.7690   -0.0570   22.8720 C   0  0  0  0  0  0  0  0  0  0  0  0
   10.2020   -1.2970   22.8530 C   0  0  0  0  0  0  0  0  0  0  0  0
   11.6520   -1.4140   22.9730 C   0  0  0  0  0  0  0  0  0  0  0  0
   12.1600   -2.6170   22.9640 N   0  0  0  0  0  0  0  0  0  0  0  0
   13.0430   -2.3330   22.0860 C   0  0  0  0  0  0  0  0  0  0  0  0
   13.1930   -0.9960   22.3000 C   0  0  0  0  0  0  0  0  0  0  0  0
   13.1510   -0.8410   23.6930 C   0  0  0  0  0  0  0  0  0  0  0  0
   13.0080   -2.4900   24.3140 S   0  0  0  0  0  0  0  0  0  0  0  0
   12.0640   -2.5430   25.3670 O   0  0  0  0  0  0  0  0  0  0  0  0
   14.2400   -3.2030   24.2490 O   0  0  0  0  0  0  0  0  0  0  0  0
   12.3710   -0.1960   23.0860 C   0  0  0  0  0  0  0  0  0  0  0  0
   11.8250    1.1570   23.0930 C   0  0  0  0  0  0  0  0  0  0  0  0
   10.3820    1.3880   22.9830 C   0  0  0  0  0  0  0  0  0  0  0  0
    9.7760    2.4500   22.9770 O   0  0  0  0  0  0  0  0  0  0  0  0
  1  2  2  0
  2  3  1  0
  3  4  1  0
  4  5  2  0
  5  6  1  0
  6  7  2  0
  7  8  1  0
  4  9  1  0
  8  9  2  0
  2 10  1  0
 10 11  1  0
 11 12  2  0
 12 13  1  0
 13 14  1  0
 14 15  1  0
 15 16  1  0
 16 17  1  0
 18 14  1  0
 17 18  1  0
 18 19  2  0
 18 20  2  0
 13 21  2  0
 21 22  1  0
 11 23  1  0
 22 23  2  0
 23 24  1  0
M  END
