pyridine_urea_7659
     RDKit          3D

 18 19  0  0  0  0  0  0  0  0999 V2000
    8.9410    0.7470   21.4220 O   0  0  0  0  0  0  0  0  0  0  0  0
    8.3010   -0.2590   21.6880 C   0  0  0  0  0  0  0  0  0  0  0  0
    7.1140   -0.6460   21.1060 N   0  0  0  0  0  0  0  0  0  0  0  0
    6.4710    0.0040   20.0450 C   0  0  0  0  0  0  0  0  0  0  0  0
    5.2980    0.7260   20.2980 C   0  0  0  0  0  0  0  0  0  0  0  0
    4.6480    1.3910   19.2550 C   0  0  0  0  0  0  0  0  0  0  0  0
    5.1980    1.3080   17.9930 C   0  0  0  0  0  0  0  0  0  0  0  0
    6.3180    0.6190   17.7280 N   0  0  0  0  0  0  0  0  0  0  0  0
    6.9240   -0.0150   18.7500 C   0  0  0  0  0  0  0  0  0  0  0  0
    8.6880   -1.1590   22.6540 N   0  0  0  0  0  0  0  0  0  0  0  0
   10.0360   -1.0960   23.2460 C   0  0  2  0  0  0  0  0  0  0  0  0
   10.1780    0.1510   24.0980 C   0  0  0  0  0  0  0  0  0  0  0  0
   11.4750    0.6630   24.0490 C   0  0  0  0  0  0  0  0  0  0  0  0
   12.3550   -0.3560   24.4160 C   0  0  0  0  0  0  0  0  0  0  0  0
   13.1250   -0.8180   23.3610 C   0  0  0  0  0  0  0  0  0  0  0  0
   12.3580   -1.5470   22.4740 C   0  0  0  0  0  0  0  0  0  0  0  0
   11.1350   -0.9660   22.1780 C   0  0  2  0  0  0  0  0  0  0  0  0
   11.2590    0.3780   22.2220 F   0  0  0  0  0  0  0  0  0  0  0  0
  1  2  2  0
  2  3  1  0
  3  4  1  0
  4  5  2  0
  5  6  1  0
  6  7  2  0
  7  8  1  0
  4  9  1  0
  8  9  2  0
  2 10  1  0
 11 10  1  6
 11 12  1  0
 12 13  1  0
 13 14  1  0
 14 15  1  0
 15 16  1  0
 11 17  1  0
 16 17  1  0
 17 18  1  1
M  END
