pyridine_urea_12129
     RDKit          3D

 23 24  0  0  0  0  0  0  0  0999 V2000
   12.7040   -1.0160   22.1620 C   0  0  0  0  0  0  0  0  0  0  0  0
   11.6470   -2.0370   21.7470 C   0  0  0  0  0  0  0  0  0  0  0  0
   10.2650   -1.7420   21.9290 C   0  0  2  0  0  0  0  0  0  0  0  0
    9.6090   -0.9120   21.1490 N   0  0  0  0  0  0  0  0  0  0  0  0
    8.5550   -0.0720   21.3710 C   0  0  0  0  0  0  0  0  0  0  0  0
    8.7390    1.0970   21.6640 O   0  0  0  0  0  0  0  0  0  0  0  0
    7.2510   -0.7270   21.1590 N   0  0  0  0  0  0  0  0  0  0  0  0
    6.5430   -0.0460   20.1230 C   0  0  0  0  0  0  0  0  0  0  0  0
    5.3840    0.6610   20.4490 C   0  0  0  0  0  0  0  0  0  0  0  0
    4.6780    1.3410   19.4550 C   0  0  0  0  0  0  0  0  0  0  0  0
    5.2300    1.2700   18.0420 C   0  0  0  0  0  0  0  0  0  0  0  0
    6.3470    0.5750   17.7660 N   0  0  0  0  0  0  0  0  0  0  0  0
    6.9680   -0.0600   18.7930 C   0  0  0  0  0  0  0  0  0  0  0  0
   10.0690   -1.2560   23.2640 C   0  0  0  0  0  0  0  0  0  0  0  0
    8.9250   -1.2100   23.9290 C   0  0  0  0  0  0  0  0  0  0  0  0
    9.0780   -0.7250   25.1880 C   0  0  0  0  0  0  0  0  0  0  0  0
    8.1320   -0.6120   25.9630 O   0  0  0  0  0  0  0  0  0  0  0  0
    7.0210   -1.4850   25.7720 C   0  0  0  0  0  0  0  0  0  0  0  0
   10.3300   -0.3200   25.7130 C   0  0  0  0  0  0  0  0  0  0  0  0
   11.7090   -0.2630   25.1550 C   0  0  0  0  0  0  0  0  0  0  0  0
   12.5700   -0.3990   24.3020 O   0  0  0  0  0  0  0  0  0  0  0  0
   12.5700    0.7130   23.4900 C   0  0  0  0  0  0  0  0  0  0  0  0
   11.0650   -0.8100   23.9800 C   0  0  0  0  0  0  0  0  0  0  0  0
  1  2  1  0
  3  2  1  6
  3  4  1  0
  4  5  1  0
  5  6  2  0
  5  7  1  0
  7  8  1  0
  8  9  2  0
  9 10  1  0
 10 11  2  0
 11 12  1  0
  8 13  1  0
 12 13  2  0
  3 14  1  0
 14 15  2  0
 15 16  1  0
 16 17  1  0
 17 18  1  0
 16 19  2  0
 19 20  1  0
 20 21  1  0
 21 22  1  0
 14 23  1  0
 20 23  2  0
M  END
