pyridine_urea_3353
     RDKit          3D

 19 19  0  0  0  0  0  0  0  0999 V2000
   12.8160   -2.6880   24.4210 C   0  0  0  0  0  0  0  0  0  0  0  0
   12.0280   -2.2760   22.8750 S   0  0  0  0  0  0  0  0  0  0  0  0
   12.9380   -2.6900   21.8230 O   0  0  0  0  0  0  0  0  0  0  0  0
   12.0050   -0.4580   22.8560 C   0  0  0  0  0  0  0  0  0  0  0  0
   10.7210    0.1200   22.9770 C   0  0  1  0  0  0  0  0  0  0  0  0
    9.6120   -0.5950   22.3010 N   0  0  0  0  0  0  0  0  0  0  0  0
    8.7410    0.1580   21.5020 C   0  0  0  0  0  0  0  0  0  0  0  0
    9.0060    1.3280   21.2070 O   0  0  0  0  0  0  0  0  0  0  0  0
    7.5220   -0.5690   21.0790 N   0  0  0  0  0  0  0  0  0  0  0  0
    6.7170    0.0210   20.1140 C   0  0  0  0  0  0  0  0  0  0  0  0
    5.4700    0.7940   20.5400 C   0  0  0  0  0  0  0  0  0  0  0  0
    4.7100    1.3780   19.5260 C   0  0  0  0  0  0  0  0  0  0  0  0
    5.1890    1.1970   18.0840 C   0  0  0  0  0  0  0  0  0  0  0  0
    6.2910    0.5000   17.7650 N   0  0  0  0  0  0  0  0  0  0  0  0
    7.0130   -0.0630   18.7650 C   0  0  0  0  0  0  0  0  0  0  0  0
   10.2960    0.3790   24.2760 C   0  0  0  0  0  0  0  0  0  0  0  0
   11.3190    1.2210   23.8060 C   0  0  0  0  0  0  0  0  0  0  0  0
   10.7120   -0.5510   25.2180 C   0  0  0  0  0  0  0  0  0  0  0  0
    9.3270    1.2310   24.7860 C   0  0  0  0  0  0  0  0  0  0  0  0
  2  1  1  1
  2  3  2  0
  2  4  1  0
  5  4  1  1
  5  6  1  0
  6  7  1  0
  7  8  2  0
  7  9  1  0
  9 10  1  0
 10 11  2  0
 11 12  1  0
 12 13  2  0
 13 14  1  0
 10 15  1  0
 14 15  2  0
  5 16  1  0
 16 17  1  0
 16 18  1  0
 16 19  1  0
M  END
