pyridine_urea_5539
     RDKit          3D

 17 18  0  0  0  0  0  0  0  0999 V2000
    9.0250    0.5260   21.4030 O   0  0  0  0  0  0  0  0  0  0  0  0
    8.2470   -0.3530   21.7370 C   0  0  0  0  0  0  0  0  0  0  0  0
    8.3450   -1.0820   22.9080 N   0  0  0  0  0  0  0  0  0  0  0  0
    9.6060   -1.3650   23.5740 C   0  0  0  0  0  0  0  0  0  0  0  0
   10.3190   -0.1190   24.1980 C   0  0  0  0  0  0  0  0  0  0  0  0
   11.2280    0.4890   23.3730 C   0  0  1  0  0  0  0  0  0  0  0  0
   12.6870    0.3670   23.6920 C   0  0  0  0  0  0  0  0  0  0  0  0
   13.2030   -0.5800   22.8350 C   0  0  0  0  0  0  0  0  0  0  0  0
   12.0550   -1.3070   22.1440 C   0  0  0  0  0  0  0  0  0  0  0  0
   11.0380   -0.2880   22.1870 N   0  0  0  0  0  0  0  0  0  0  0  0
    7.1390   -0.7690   21.0380 N   0  0  0  0  0  0  0  0  0  0  0  0
    6.4840   -0.0670   20.0180 C   0  0  0  0  0  0  0  0  0  0  0  0
    5.1950    0.6670   20.3400 C   0  0  0  0  0  0  0  0  0  0  0  0
    4.5420    1.4220   19.2070 C   0  0  0  0  0  0  0  0  0  0  0  0
    5.2260    1.3740   17.8640 C   0  0  0  0  0  0  0  0  0  0  0  0
    6.3670    0.6870   17.6870 N   0  0  0  0  0  0  0  0  0  0  0  0
    6.9470    0.0140   18.7160 C   0  0  0  0  0  0  0  0  0  0  0  0
  1  2  2  0
  2  3  1  0
  3  4  1  0
  4  5  1  0
  6  5  1  1
  6  7  1  0
  7  8  1  0
  8  9  1  0
  6 10  1  0
  9 10  1  0
  2 11  1  0
 11 12  1  0
 12 13  2  0
 13 14  1  0
 14 15  2  0
 15 16  1  0
 12 17  1  0
 16 17  2  0
M  END
