pyridine_urea_2724
     RDKit          3D

 23 25  0  0  0  0  0  0  0  0999 V2000
   14.6130    2.2770   21.6620 C   0  0  0  0  0  0  0  0  0  0  0  0
   13.4760    2.6010   22.2800 N   0  0  0  0  0  0  0  0  0  0  0  0
   12.8130    3.9020   22.1510 C   0  0  0  0  0  0  0  0  0  0  0  0
   11.5700    3.7130   23.0390 C   0  0  0  0  0  0  0  0  0  0  0  0
   11.5880    2.3460   23.6100 N   0  0  0  0  0  0  0  0  0  0  0  0
   12.8370    1.7370   23.0750 C   0  0  0  0  0  0  0  0  0  0  0  0
   13.5230    0.1730   23.3070 S   0  0  0  0  0  0  0  0  0  0  0  0
   11.9670   -0.3170   23.1840 C   0  0  0  0  0  0  0  0  0  0  0  0
   11.0360    0.2500   24.0160 C   0  0  0  0  0  0  0  0  0  0  0  0
    9.6450   -0.1800   23.8190 C   0  0  0  0  0  0  0  0  0  0  0  0
    9.4030   -1.1870   22.7340 C   0  0  0  0  0  0  0  0  0  0  0  0
    8.2000   -1.5740   22.4670 N   0  0  0  0  0  0  0  0  0  0  0  0
    7.8060   -0.6880   21.5350 C   0  0  0  0  0  0  0  0  0  0  0  0
    8.4440    0.3160   21.2180 O   0  0  0  0  0  0  0  0  0  0  0  0
    6.5380   -1.0570   20.9520 N   0  0  0  0  0  0  0  0  0  0  0  0
    6.1070   -0.2210   19.9350 C   0  0  0  0  0  0  0  0  0  0  0  0
    4.8620    0.6190   20.1520 C   0  0  0  0  0  0  0  0  0  0  0  0
    4.4760    1.5020   18.9840 C   0  0  0  0  0  0  0  0  0  0  0  0
    5.2580    1.4790   17.8460 C   0  0  0  0  0  0  0  0  0  0  0  0
    6.3570    0.7090   17.7090 N   0  0  0  0  0  0  0  0  0  0  0  0
    6.7550   -0.1010   18.7200 C   0  0  0  0  0  0  0  0  0  0  0  0
   10.4690   -1.6730   22.0060 C   0  0  0  0  0  0  0  0  0  0  0  0
   11.7230   -1.2470   22.2240 C   0  0  0  0  0  0  0  0  0  0  0  0
  1  2  1  0
  2  3  1  0
  3  4  2  0
  4  5  1  0
  2  6  1  0
  5  6  2  0
  6  7  1  0
  7  8  1  0
  8  9  2  0
  9 10  1  0
 10 11  2  0
 11 12  1  0
 12 13  1  0
 13 14  2  0
 13 15  1  0
 15 16  1  0
 16 17  2  0
 17 18  1  0
 18 19  2  0
 19 20  1  0
 16 21  1  0
 20 21  2  0
 11 22  1  0
  8 23  1  0
 22 23  2  0
M  END
