pyridine_urea_7294
     RDKit          3D

 18 18  0  0  0  0  0  0  0  0999 V2000
   13.2730   -0.2320   22.6230 C   0  0  0  0  0  0  0  0  0  0  0  0
   12.2130    0.3430   23.5100 C   0  0  0  0  0  0  0  0  0  0  0  0
   10.9200    0.3970   22.9870 C   0  0  0  0  0  0  0  0  0  0  0  0
   10.4450   -0.7610   22.4190 C   0  0  2  0  0  0  0  0  0  0  0  0
    8.9850   -0.6720   22.4610 N   0  0  0  0  0  0  0  0  0  0  0  0
    8.3350    0.0200   21.4840 C   0  0  0  0  0  0  0  0  0  0  0  0
    8.7430    1.1440   21.1440 O   0  0  0  0  0  0  0  0  0  0  0  0
    7.2540   -0.6210   20.9780 N   0  0  0  0  0  0  0  0  0  0  0  0
    6.4990    0.0540   20.0820 C   0  0  0  0  0  0  0  0  0  0  0  0
    5.3260    0.7630   20.3560 C   0  0  0  0  0  0  0  0  0  0  0  0
    4.6340    1.4630   19.1910 C   0  0  0  0  0  0  0  0  0  0  0  0
    5.2100    1.3580   17.9240 C   0  0  0  0  0  0  0  0  0  0  0  0
    6.3370    0.6610   17.7030 N   0  0  0  0  0  0  0  0  0  0  0  0
    6.9100    0.0560   18.7610 C   0  0  0  0  0  0  0  0  0  0  0  0
   10.8920   -2.0140   23.0990 C   0  0  0  0  0  0  0  0  0  0  0  0
   11.1610   -1.7890   24.3900 F   0  0  0  0  0  0  0  0  0  0  0  0
   12.0260   -2.5340   22.5680 F   0  0  0  0  0  0  0  0  0  0  0  0
    9.9300   -2.9770   23.0980 F   0  0  0  0  0  0  0  0  0  0  0  0
  1  2  1  0
  2  3  1  0
  4  3  1  1
  4  5  1  0
  5  6  1  0
  6  7  2  0
  6  8  1  0
  8  9  1  0
  9 10  2  0
 10 11  1  0
 11 12  2  0
 12 13  1  0
  9 14  1  0
 13 14  2  0
  4 15  1  0
 15 16  1  0
 15 17  1  0
 15 18  1  0
M  END
