pyridine_urea_5574
     RDKit          3D

 17 18  0  0  0  0  0  0  0  0999 V2000
   13.6580   -2.7920   24.5940 C   0  0  0  0  0  0  0  0  0  0  0  0
   12.5620   -2.1480   24.1110 N   0  0  0  0  0  0  0  0  0  0  0  0
   12.7050   -0.8230   23.4580 C   0  0  0  0  0  0  0  0  0  0  0  0
   11.1690   -0.9860   23.3490 C   0  0  0  0  0  0  0  0  0  0  0  0
   10.3470   -0.0380   22.8010 C   0  0  0  0  0  0  0  0  0  0  0  0
    9.1440   -0.6650   22.3370 N   0  0  0  0  0  0  0  0  0  0  0  0
    8.4330    0.0860   21.4660 C   0  0  0  0  0  0  0  0  0  0  0  0
    8.8230    1.2150   21.1300 O   0  0  0  0  0  0  0  0  0  0  0  0
    7.2840   -0.5250   21.0330 N   0  0  0  0  0  0  0  0  0  0  0  0
    6.5840    0.0780   20.0090 C   0  0  0  0  0  0  0  0  0  0  0  0
    5.3100    0.8560   20.3150 C   0  0  0  0  0  0  0  0  0  0  0  0
    4.4940    1.5830   19.2550 C   0  0  0  0  0  0  0  0  0  0  0  0
    5.0980    1.4460   17.8550 C   0  0  0  0  0  0  0  0  0  0  0  0
    6.3230    0.6600   17.6730 N   0  0  0  0  0  0  0  0  0  0  0  0
    6.9740    0.0410   18.7140 C   0  0  0  0  0  0  0  0  0  0  0  0
   10.4020   -2.0230   23.7630 N   0  0  0  0  0  0  0  0  0  0  0  0
   11.3610   -2.7570   24.2550 N   0  0  0  0  0  0  0  0  0  0  0  0
  1  2  1  0
  2  3  1  0
  3  4  2  0
  4  5  1  0
  5  6  1  0
  6  7  1  0
  7  8  2  0
  7  9  1  0
  9 10  1  0
 10 11  2  0
 11 12  1  0
 12 13  2  0
 13 14  1  0
 10 15  1  0
 14 15  2  0
  4 16  1  0
  2 17  1  0
 16 17  2  0
M  END
