pyridine_urea_5122
     RDKit          3D

 20 21  0  0  0  0  0  0  0  0999 V2000
    5.4910   -5.4370   21.5800 C   0  0  0  0  0  0  0  0  0  0  0  0
    6.6150   -4.8480   22.3840 C   0  0  0  0  0  0  0  0  0  0  0  0
    7.5300   -5.6700   23.0170 C   0  0  0  0  0  0  0  0  0  0  0  0
    8.5440   -5.0630   23.7300 C   0  0  0  0  0  0  0  0  0  0  0  0
    8.6810   -3.7360   23.8270 N   0  0  0  0  0  0  0  0  0  0  0  0
    7.7590   -2.9940   23.2010 C   0  0  0  0  0  0  0  0  0  0  0  0
    7.8980   -1.4730   23.3250 C   0  0  0  0  0  0  0  0  0  0  0  0
    6.7940   -0.6680   23.6090 C   0  0  0  0  0  0  0  0  0  0  0  0
    7.8130   -0.9230   24.7190 C   0  0  0  0  0  0  0  0  0  0  0  0
    8.8900   -0.8680   22.5670 N   0  0  0  0  0  0  0  0  0  0  0  0
    8.4570   -0.0060   21.5510 C   0  0  0  0  0  0  0  0  0  0  0  0
    8.9930    1.0760   21.2430 O   0  0  0  0  0  0  0  0  0  0  0  0
    7.3350   -0.4580   20.9250 N   0  0  0  0  0  0  0  0  0  0  0  0
    6.5340    0.1930   20.0030 C   0  0  0  0  0  0  0  0  0  0  0  0
    5.3850    0.9340   20.2680 C   0  0  0  0  0  0  0  0  0  0  0  0
    4.7070    1.5330   19.2230 C   0  0  0  0  0  0  0  0  0  0  0  0
    5.1480    1.4090   17.9270 C   0  0  0  0  0  0  0  0  0  0  0  0
    6.2440    0.6970   17.6180 N   0  0  0  0  0  0  0  0  0  0  0  0
    6.9140    0.1020   18.6720 C   0  0  0  0  0  0  0  0  0  0  0  0
    6.7150   -3.5000   22.4730 N   0  0  0  0  0  0  0  0  0  0  0  0
  1  2  1  0
  2  3  2  0
  3  4  1  0
  4  5  2  0
  5  6  1  0
  6  7  1  0
  7  8  1  0
  7  9  1  0
  7 10  1  0
 10 11  1  0
 11 12  2  0
 11 13  1  0
 13 14  1  0
 14 15  2  0
 15 16  1  0
 16 17  2  0
 17 18  1  0
 14 19  1  0
 18 19  2  0
  2 20  1  0
  6 20  2  0
M  END
