pyridine_urea_5240
     RDKit          3D

 19 19  0  0  0  0  0  0  0  0999 V2000
   11.8650    1.3750   23.6350 C   0  0  0  0  0  0  0  0  0  0  0  0
   10.4830    0.8040   23.6230 C   0  0  0  0  0  0  0  0  0  0  0  0
   10.3000   -0.3540   22.8920 C   0  0  2  0  0  0  0  0  0  0  0  0
    8.8970   -0.5730   22.5960 N   0  0  0  0  0  0  0  0  0  0  0  0
    8.3630    0.1380   21.5450 C   0  0  0  0  0  0  0  0  0  0  0  0
    8.8190    1.2270   21.1640 O   0  0  0  0  0  0  0  0  0  0  0  0
    7.2060   -0.5730   20.9990 N   0  0  0  0  0  0  0  0  0  0  0  0
    6.4950    0.0580   20.0180 C   0  0  0  0  0  0  0  0  0  0  0  0
    5.2420    0.8330   20.3970 C   0  0  0  0  0  0  0  0  0  0  0  0
    4.5700    1.4670   19.3580 C   0  0  0  0  0  0  0  0  0  0  0  0
    5.1560    1.3260   17.9500 C   0  0  0  0  0  0  0  0  0  0  0  0
    6.2660    0.6200   17.6820 N   0  0  0  0  0  0  0  0  0  0  0  0
    6.8990    0.0100   18.7030 C   0  0  0  0  0  0  0  0  0  0  0  0
   10.8320   -1.5200   23.4040 C   0  0  0  0  0  0  0  0  0  0  0  0
   10.8210   -1.8440   24.7370 O   0  0  0  0  0  0  0  0  0  0  0  0
   11.3520   -2.2580   22.4170 O   0  0  0  0  0  0  0  0  0  0  0  0
   12.7650   -2.2200   22.2080 C   0  0  0  0  0  0  0  0  0  0  0  0
   13.1440   -0.8830   22.3070 C   0  0  0  0  0  0  0  0  0  0  0  0
   13.0260   -2.8770   21.0080 C   0  0  0  0  0  0  0  0  0  0  0  0
  1  2  1  0
  3  2  1  1
  3  4  1  0
  4  5  1  0
  5  6  2  0
  5  7  1  0
  7  8  1  0
  8  9  2  0
  9 10  1  0
 10 11  2  0
 11 12  1  0
  8 13  1  0
 12 13  2  0
  3 14  1  0
 14 15  2  0
 14 16  1  0
 16 17  1  0
 17 18  1  0
 17 19  1  0
M  END
