pyridine_urea_14639
     RDKit          3D

 21 23  0  0  0  0  0  0  0  0999 V2000
    8.9610    1.7200   20.8580 O   0  0  0  0  0  0  0  0  0  0  0  0
    8.3190    0.9900   21.5570 C   0  0  0  0  0  0  0  0  0  0  0  0
    8.3750    1.0700   22.8850 N   0  0  0  0  0  0  0  0  0  0  0  0
    8.4960    0.0230   23.7150 C   0  0  0  0  0  0  0  0  0  0  0  0
    9.6210   -0.1890   24.3960 C   0  0  0  0  0  0  0  0  0  0  0  0
    9.6820   -0.8190   23.0920 C   0  0  0  0  0  0  0  0  0  0  0  0
   10.7470   -1.5000   22.7610 C   0  0  0  0  0  0  0  0  0  0  0  0
   11.8800   -1.8730   23.1980 C   0  0  0  0  0  0  0  0  0  0  0  0
   12.7890   -2.6380   22.6200 N   0  0  0  0  0  0  0  0  0  0  0  0
   13.8320   -2.8760   23.4320 C   0  0  0  0  0  0  0  0  0  0  0  0
   13.9840   -2.3660   24.6960 C   0  0  0  0  0  0  0  0  0  0  0  0
   13.0430   -1.5590   25.1830 C   0  0  0  0  0  0  0  0  0  0  0  0
   11.9570   -1.3330   24.4150 C   0  0  0  0  0  0  0  0  0  0  0  0
   10.9140   -0.5630   24.9150 C   0  0  0  0  0  0  0  0  0  0  0  0
    7.4380    0.0200   21.1330 N   0  0  0  0  0  0  0  0  0  0  0  0
    6.6700    0.3480   19.9680 C   0  0  0  0  0  0  0  0  0  0  0  0
    5.5310    1.1340   20.2250 C   0  0  0  0  0  0  0  0  0  0  0  0
    4.6990    1.5720   19.2010 C   0  0  0  0  0  0  0  0  0  0  0  0
    5.0530    1.1960   17.9260 C   0  0  0  0  0  0  0  0  0  0  0  0
    6.1450    0.4230   17.6610 N   0  0  0  0  0  0  0  0  0  0  0  0
    6.9610   -0.0110   18.6860 C   0  0  0  0  0  0  0  0  0  0  0  0
  1  2  2  0
  2  3  1  0
  3  4  1  0
  4  5  1  0
  5  6  2  0
  6  7  1  0
  7  8  2  0
  8  9  1  0
  9 10  2  0
 10 11  1  0
 11 12  2  0
  8 13  1  0
 12 13  1  0
  5 14  1  0
 13 14  2  0
  2 15  1  0
 15 16  1  0
 16 17  2  0
 17 18  1  0
 18 19  2  0
 19 20  1  0
 16 21  1  0
 20 21  2  0
M  END
