pyridine_urea_14950
     RDKit          3D

 19 20  0  0  0  0  0  0  0  0999 V2000
   13.0420   -1.5680   24.9680 C   0  0  0  0  0  0  0  0  0  0  0  0
   12.4880   -1.0290   23.6460 C   0  0  0  0  0  0  0  0  0  0  0  0
   12.6140    0.4800   23.5300 C   0  0  0  0  0  0  0  0  0  0  0  0
   13.2520   -1.6670   22.5060 C   0  0  0  0  0  0  0  0  0  0  0  0
   12.2350   -2.2240   21.5680 C   0  0  0  0  0  0  0  0  0  0  0  0
   10.8480   -1.9420   22.1160 C   0  0  0  0  0  0  0  0  0  0  0  0
   11.0920   -1.4210   23.4790 N   0  0  0  0  0  0  0  0  0  0  0  0
   10.0630   -1.0590   24.3190 C   0  0  0  0  0  0  0  0  0  0  0  0
    9.2690   -0.1030   23.7110 C   0  0  0  0  0  0  0  0  0  0  0  0
    8.6850   -0.5940   22.5750 N   0  0  0  0  0  0  0  0  0  0  0  0
    8.2280    0.1280   21.4680 C   0  0  0  0  0  0  0  0  0  0  0  0
    8.7150    1.2050   21.0860 O   0  0  0  0  0  0  0  0  0  0  0  0
    7.1870   -0.5440   20.9320 N   0  0  0  0  0  0  0  0  0  0  0  0
    6.4440    0.1170   20.0340 C   0  0  0  0  0  0  0  0  0  0  0  0
    5.2700    0.8180   20.3110 C   0  0  0  0  0  0  0  0  0  0  0  0
    4.6040    1.4690   19.2720 C   0  0  0  0  0  0  0  0  0  0  0  0
    5.2000    1.3760   17.9160 C   0  0  0  0  0  0  0  0  0  0  0  0
    6.3230    0.6930   17.6750 N   0  0  0  0  0  0  0  0  0  0  0  0
    6.8950    0.0940   18.7290 C   0  0  0  0  0  0  0  0  0  0  0  0
  2  1  1  0
  2  3  1  0
  2  4  1  0
  4  5  1  0
  5  6  1  0
  2  7  1  0
  6  7  1  0
  7  8  1  0
  8  9  1  0
  9 10  1  0
 10 11  1  0
 11 12  2  0
 11 13  1  0
 13 14  1  0
 14 15  2  0
 15 16  1  0
 16 17  2  0
 17 18  1  0
 14 19  1  0
 18 19  2  0
M  END
