pyridine_urea_2430
     RDKit          3D

 25 27  0  0  0  0  0  0  0  0999 V2000
   11.8330    1.0090   22.9280 C   0  0  0  0  0  0  0  0  0  0  0  0
   11.6420   -0.4460   22.6800 C   0  0  0  0  0  0  0  0  0  0  0  0
   10.5820   -1.2050   22.9250 C   0  0  0  0  0  0  0  0  0  0  0  0
    9.4020   -0.8000   23.4470 C   0  0  2  0  0  0  0  0  0  0  0  0
    8.8860   -1.5530   24.4550 C   0  0  0  0  0  0  0  0  0  0  0  0
    8.6170   -1.2600   22.3140 N   0  0  0  0  0  0  0  0  0  0  0  0
    8.1830   -0.2480   21.5430 C   0  0  0  0  0  0  0  0  0  0  0  0
    8.8360    0.7830   21.3950 O   0  0  0  0  0  0  0  0  0  0  0  0
    6.8880   -0.6160   20.9840 N   0  0  0  0  0  0  0  0  0  0  0  0
    6.2910    0.0830   19.9840 C   0  0  0  0  0  0  0  0  0  0  0  0
    5.0210    0.9080   20.1270 C   0  0  0  0  0  0  0  0  0  0  0  0
    4.5420    1.5710   19.0000 C   0  0  0  0  0  0  0  0  0  0  0  0
    5.2580    1.4360   17.8210 C   0  0  0  0  0  0  0  0  0  0  0  0
    6.3840    0.7120   17.6580 N   0  0  0  0  0  0  0  0  0  0  0  0
    6.8690    0.0570   18.7300 C   0  0  0  0  0  0  0  0  0  0  0  0
   10.9870   -2.4620   22.4830 C   0  0  0  0  0  0  0  0  0  0  0  0
   12.2610   -2.4820   21.9580 N   0  0  0  0  0  0  0  0  0  0  0  0
   12.5300   -1.1690   22.1050 N   0  0  0  0  0  0  0  0  0  0  0  0
   13.4780   -0.4500   21.6300 C   0  0  0  0  0  0  0  0  0  0  0  0
   13.8960    0.7640   22.1540 C   0  0  0  0  0  0  0  0  0  0  0  0
   14.7480    1.5320   21.3470 C   0  0  0  0  0  0  0  0  0  0  0  0
   15.1320    1.0090   19.9510 C   0  0  0  0  0  0  0  0  0  0  0  0
   16.1080    1.8960   18.8250 Cl  0  0  0  0  0  0  0  0  0  0  0  0
   14.5210   -0.3220   19.6400 C   0  0  0  0  0  0  0  0  0  0  0  0
   13.7720   -1.0590   20.5060 C   0  0  0  0  0  0  0  0  0  0  0  0
  1  2  1  0
  2  3  2  0
  3  4  1  0
  4  5  1  1
  4  6  1  0
  6  7  1  0
  7  8  2  0
  7  9  1  0
  9 10  1  0
 10 11  2  0
 11 12  1  0
 12 13  2  0
 13 14  1  0
 10 15  1  0
 14 15  2  0
  3 16  1  0
 16 17  2  0
  2 18  1  0
 17 18  1  0
 18 19  1  0
 19 20  2  0
 20 21  1  0
 21 22  2  0
 22 23  1  0
 22 24  1  0
 19 25  1  0
 24 25  2  0
M  END
