pyridine_urea_13858
     RDKit          3D

 24 26  0  0  0  0  0  0  0  0999 V2000
   13.4860    4.3580   22.7520 C   0  0  0  0  0  0  0  0  0  0  0  0
   12.6500    3.5260   22.8990 C   0  0  2  0  0  0  0  0  0  0  0  0
   12.0150    2.1170   22.8520 C   0  0  0  0  0  0  0  0  0  0  0  0
   10.5760    2.0730   22.8920 C   0  0  0  0  0  0  0  0  0  0  0  0
    9.9200    0.9240   22.7890 C   0  0  0  0  0  0  0  0  0  0  0  0
   10.2690   -0.5310   22.6260 C   0  0  0  0  0  0  0  0  0  0  0  0
    9.1500   -1.4520   22.4800 N   0  0  0  0  0  0  0  0  0  0  0  0
    8.3040   -0.7240   21.6330 C   0  0  0  0  0  0  0  0  0  0  0  0
    8.5270    0.5760   21.0870 O   0  0  0  0  0  0  0  0  0  0  0  0
    7.0210   -1.2030   21.1650 N   0  0  0  0  0  0  0  0  0  0  0  0
    6.4600   -0.3920   20.0600 C   0  0  0  0  0  0  0  0  0  0  0  0
    5.2040    0.3880   20.3430 C   0  0  0  0  0  0  0  0  0  0  0  0
    4.6020    1.1920   19.3750 C   0  0  0  0  0  0  0  0  0  0  0  0
    5.1700    1.2870   18.1070 C   0  0  0  0  0  0  0  0  0  0  0  0
    6.3850    0.5340   17.8200 N   0  0  0  0  0  0  0  0  0  0  0  0
    6.9680   -0.2600   18.7860 C   0  0  0  0  0  0  0  0  0  0  0  0
   11.8270   -0.5780   22.6340 C   0  0  0  0  0  0  0  0  0  0  0  0
   12.6590    0.6980   22.7420 C   0  0  0  0  0  0  0  0  0  0  0  0
   11.6620    4.4360   22.2560 N   0  0  0  0  0  0  0  0  0  0  0  0
   12.1390    5.7900   22.2350 C   0  0  0  0  0  0  0  0  0  0  0  0
   12.0950    6.3900   23.4930 C   0  0  0  0  0  0  0  0  0  0  0  0
   10.8630    6.4260   24.0610 O   0  0  0  0  0  0  0  0  0  0  0  0
    9.9800    5.7780   23.1310 C   0  0  0  0  0  0  0  0  0  0  0  0
   10.4560    4.4670   22.9050 C   0  0  0  0  0  0  0  0  0  0  0  0
  2  1  1  6
  2  3  1  0
  3  4  2  0
  4  5  1  0
  5  6  2  0
  6  7  1  0
  7  8  1  0
  8  9  2  0
  8 10  1  0
 10 11  1  0
 11 12  2  0
 12 13  1  0
 13 14  2  0
 14 15  1  0
 11 16  1  0
 15 16  2  0
  6 17  1  0
  3 18  1  0
 17 18  2  0
  2 19  1  0
 19 20  1  0
 20 21  1  0
 21 22  1  0
 22 23  1  0
 19 24  1  0
 23 24  1  0
M  END
