pyridine_urea_2532
     RDKit          3D

 24 26  0  0  0  0  0  0  0  0999 V2000
   14.1870   -3.2710   26.0320 C   0  0  0  0  0  0  0  0  0  0  0  0
   14.1690   -3.6930   24.8880 O   0  0  0  0  0  0  0  0  0  0  0  0
   13.6240   -2.7140   24.2930 C   0  0  0  0  0  0  0  0  0  0  0  0
   13.3530   -2.5290   22.9570 C   0  0  0  0  0  0  0  0  0  0  0  0
   12.7360   -1.3920   22.4710 C   0  0  0  0  0  0  0  0  0  0  0  0
   12.4190   -0.4740   23.4680 C   0  0  0  0  0  0  0  0  0  0  0  0
   11.7330    0.6880   23.1700 N   0  0  0  0  0  0  0  0  0  0  0  0
   10.4700    0.5840   23.2810 C   0  0  0  0  0  0  0  0  0  0  0  0
    9.8720    1.6940   23.0060 C   0  0  0  0  0  0  0  0  0  0  0  0
    8.3780    1.7270   23.0750 C   0  0  0  0  0  0  0  0  0  0  0  0
    7.8090    0.5090   22.7820 N   0  0  0  0  0  0  0  0  0  0  0  0
    8.1110   -0.2350   21.6390 C   0  0  0  0  0  0  0  0  0  0  0  0
    9.3980   -0.3140   21.2330 O   0  0  0  0  0  0  0  0  0  0  0  0
    7.0820   -0.8390   21.0050 N   0  0  0  0  0  0  0  0  0  0  0  0
    6.4360   -0.1120   20.0610 C   0  0  0  0  0  0  0  0  0  0  0  0
    5.2600    0.6390   20.2670 C   0  0  0  0  0  0  0  0  0  0  0  0
    4.6620    1.3700   19.2180 C   0  0  0  0  0  0  0  0  0  0  0  0
    5.2450    1.3520   17.9510 C   0  0  0  0  0  0  0  0  0  0  0  0
    6.3670    0.6200   17.7940 N   0  0  0  0  0  0  0  0  0  0  0  0
    6.9550   -0.0910   18.7830 C   0  0  0  0  0  0  0  0  0  0  0  0
   10.8470    2.6280   22.6900 N   0  0  0  0  0  0  0  0  0  0  0  0
   12.0490    1.9500   22.8030 N   0  0  0  0  0  0  0  0  0  0  0  0
   12.6830   -0.6170   24.7960 C   0  0  0  0  0  0  0  0  0  0  0  0
   13.2680   -1.6750   25.2570 C   0  0  0  0  0  0  0  0  0  0  0  0
  1  2  1  0
  2  3  1  0
  3  4  2  0
  4  5  1  0
  5  6  2  0
  6  7  1  0
  7  8  1  0
  8  9  2  0
  9 10  1  0
 10 11  1  0
 11 12  1  0
 12 13  2  0
 12 14  1  0
 14 15  1  0
 15 16  2  0
 16 17  1  0
 17 18  2  0
 18 19  1  0
 15 20  1  0
 19 20  2  0
  9 21  1  0
  7 22  1  0
 21 22  2  0
  6 23  1  0
  3 24  1  0
 23 24  2  0
M  END
