pyridine_urea_11154
     RDKit          3D

 18 18  0  0  0  0  0  0  0  0999 V2000
   11.5020   -2.6390   24.3610 N   0  0  0  0  0  0  0  0  0  0  0  0
   13.1020   -2.0810   24.2350 S   0  0  0  0  0  0  0  0  0  0  0  0
   13.6160   -2.0440   25.5860 O   0  0  0  0  0  0  0  0  0  0  0  0
   13.7010   -2.9520   23.2540 O   0  0  0  0  0  0  0  0  0  0  0  0
   13.0610   -0.4220   23.5140 C   0  0  0  0  0  0  0  0  0  0  0  0
   12.1610   -0.3210   22.7810 C   0  0  0  0  0  0  0  0  0  0  0  0
   10.7760   -0.3890   22.1740 C   0  0  0  0  0  0  0  0  0  0  0  0
    9.6730   -0.6290   23.1010 C   0  0  0  0  0  0  0  0  0  0  0  0
    8.5600   -1.2560   22.6180 N   0  0  0  0  0  0  0  0  0  0  0  0
    8.0680   -0.5140   21.6370 C   0  0  0  0  0  0  0  0  0  0  0  0
    8.7160    0.7140   21.3040 O   0  0  0  0  0  0  0  0  0  0  0  0
    6.9480   -0.9280   20.9690 N   0  0  0  0  0  0  0  0  0  0  0  0
    6.4160   -0.1890   20.0330 C   0  0  0  0  0  0  0  0  0  0  0  0
    5.1960    0.6270   20.2200 C   0  0  0  0  0  0  0  0  0  0  0  0
    4.5590    1.4200   19.3190 C   0  0  0  0  0  0  0  0  0  0  0  0
    5.3160    1.3540   18.0040 C   0  0  0  0  0  0  0  0  0  0  0  0
    6.4290    0.6280   17.7740 N   0  0  0  0  0  0  0  0  0  0  0  0
    6.9290   -0.1040   18.7750 C   0  0  0  0  0  0  0  0  0  0  0  0
  2  1  1  0
  2  3  2  0
  2  4  2  0
  2  5  1  0
  5  6  1  0
  6  7  1  0
  7  8  1  0
  8  9  1  0
  9 10  1  0
 10 11  2  0
 10 12  1  0
 12 13  1  0
 13 14  2  0
 14 15  1  0
 15 16  2  0
 16 17  1  0
 13 18  1  0
 17 18  2  0
M  END
