pyridine_urea_6485
     RDKit          3D

 22 23  0  0  0  0  0  0  0  0999 V2000
   13.3210   -2.3140   22.7580 C   0  0  0  0  0  0  0  0  0  0  0  0
   13.5700   -2.5880   23.9090 C   0  0  0  0  0  0  0  0  0  0  0  0
   13.8750   -2.4570   25.4140 C   0  0  0  0  0  0  0  0  0  0  0  0
   13.3530   -1.1890   25.8150 O   0  0  0  0  0  0  0  0  0  0  0  0
   12.5650   -0.8160   24.6940 C   0  0  0  0  0  0  0  0  0  0  0  0
   12.6640    0.1550   23.8250 C   0  0  0  0  0  0  0  0  0  0  0  0
   11.7460    0.3680   22.6390 C   0  0  0  0  0  0  0  0  0  0  0  0
   10.5170   -0.4190   22.1140 C   0  0  0  0  0  0  0  0  0  0  0  0
    9.5950   -1.3200   22.0340 C   0  0  0  0  0  0  0  0  0  0  0  0
    8.4490   -0.6730   22.5280 N   0  0  0  0  0  0  0  0  0  0  0  0
    8.0170    0.2190   21.6170 C   0  0  0  0  0  0  0  0  0  0  0  0
    8.6620    1.2210   21.2560 O   0  0  0  0  0  0  0  0  0  0  0  0
    6.8070   -0.2020   21.1900 N   0  0  0  0  0  0  0  0  0  0  0  0
    6.2430    0.3530   19.9960 C   0  0  0  0  0  0  0  0  0  0  0  0
    5.0780    1.0830   20.1980 C   0  0  0  0  0  0  0  0  0  0  0  0
    4.5310    1.6490   19.0880 C   0  0  0  0  0  0  0  0  0  0  0  0
    5.1860    1.4620   17.7610 C   0  0  0  0  0  0  0  0  0  0  0  0
    6.3000    0.7480   17.5630 N   0  0  0  0  0  0  0  0  0  0  0  0
    6.8320    0.1930   18.6650 C   0  0  0  0  0  0  0  0  0  0  0  0
   10.5410   -1.5090   23.2720 C   0  0  0  0  0  0  0  0  0  0  0  0
    9.6920   -2.6150   23.4990 C   0  0  0  0  0  0  0  0  0  0  0  0
   11.5450   -1.4780   24.3040 C   0  0  0  0  0  0  0  0  0  0  0  0
  1  2  1  0
  2  3  1  0
  3  4  1  0
  4  5  1  0
  5  6  2  0
  6  7  1  0
  7  8  2  0
  8  9  1  0
  9 10  1  0
 10 11  1  0
 11 12  2  0
 11 13  1  0
 13 14  1  0
 14 15  2  0
 15 16  1  0
 16 17  2  0
 17 18  1  0
 14 19  1  0
 18 19  2  0
  8 20  1  0
 20 21  1  0
  5 22  1  0
 20 22  2  0
M  END
