pyridine_urea_12162
     RDKit          3D

 23 24  0  0  0  0  0  0  0  0999 V2000
    8.7210    1.7240   21.1270 O   0  0  0  0  0  0  0  0  0  0  0  0
    8.2940    0.6160   21.4220 C   0  0  0  0  0  0  0  0  0  0  0  0
    8.9060   -0.2810   22.1860 N   0  0  0  0  0  0  0  0  0  0  0  0
    9.3480   -1.4540   21.6160 C   0  0  0  0  0  0  0  0  0  0  0  0
   10.6500   -1.6630   21.8690 C   0  0  0  0  0  0  0  0  0  0  0  0
   11.8720   -1.8150   22.5960 C   0  0  0  0  0  0  0  0  0  0  0  0
   12.0570   -1.7300   23.9550 C   0  0  0  0  0  0  0  0  0  0  0  0
   13.5760   -2.0120   24.6120 Cl  0  0  0  0  0  0  0  0  0  0  0  0
   11.0790   -1.4520   24.8330 C   0  0  0  0  0  0  0  0  0  0  0  0
    9.8700   -1.2670   24.3680 C   0  0  0  0  0  0  0  0  0  0  0  0
    8.4840   -0.8950   25.3050 Cl  0  0  0  0  0  0  0  0  0  0  0  0
    9.7340   -1.4020   22.9280 C   0  0  0  0  0  0  0  0  0  0  0  0
    8.3150   -1.2180   22.6490 O   0  0  0  0  0  0  0  0  0  0  0  0
    7.4710   -2.2220   23.2750 C   0  0  0  0  0  0  0  0  0  0  0  0
    6.6390   -2.7850   22.3510 F   0  0  0  0  0  0  0  0  0  0  0  0
    8.2630   -3.2420   23.7140 F   0  0  0  0  0  0  0  0  0  0  0  0
    7.1300    0.0290   21.0280 N   0  0  0  0  0  0  0  0  0  0  0  0
    6.3880    0.5250   19.9890 C   0  0  0  0  0  0  0  0  0  0  0  0
    5.2310    1.2620   20.1510 C   0  0  0  0  0  0  0  0  0  0  0  0
    4.5860    1.7380   19.0270 C   0  0  0  0  0  0  0  0  0  0  0  0
    5.1250    1.4530   17.7830 C   0  0  0  0  0  0  0  0  0  0  0  0
    6.2280    0.7330   17.5800 N   0  0  0  0  0  0  0  0  0  0  0  0
    6.8560    0.2680   18.7210 C   0  0  0  0  0  0  0  0  0  0  0  0
  1  2  2  0
  2  3  1  0
  3  4  1  0
  4  5  1  0
  5  6  2  0
  6  7  1  0
  7  8  1  0
  7  9  2  0
  9 10  1  0
 10 11  1  0
  5 12  1  0
 10 12  2  0
 12 13  1  0
 13 14  1  0
 14 15  1  0
 14 16  1  0
  2 17  1  0
 17 18  1  0
 18 19  2  0
 19 20  1  0
 20 21  2  0
 21 22  1  0
 18 23  1  0
 22 23  2  0
M  END
