pyridine_urea_11228
     RDKit          3D

 17 18  0  0  0  0  0  0  0  0999 V2000
    8.5100    0.1230   23.4870 C   0  0  0  0  0  0  0  0  0  0  0  0
    9.3830    0.8040   23.0050 C   0  0  0  0  0  0  0  0  0  0  0  0
   10.4050    1.9320   22.8010 C   0  0  0  0  0  0  0  0  0  0  0  0
   10.2940   -0.4330   22.7660 C   0  0  0  0  0  0  0  0  0  0  0  0
    9.3440   -0.9740   21.7960 N   0  0  0  0  0  0  0  0  0  0  0  0
    8.4110   -0.1090   21.2380 C   0  0  0  0  0  0  0  0  0  0  0  0
    8.6950    1.3030   20.9480 O   0  0  0  0  0  0  0  0  0  0  0  0
    7.2260   -0.7000   20.9900 N   0  0  0  0  0  0  0  0  0  0  0  0
    6.5430   -0.0690   20.0040 C   0  0  0  0  0  0  0  0  0  0  0  0
    5.3030    0.6770   20.3410 C   0  0  0  0  0  0  0  0  0  0  0  0
    4.5280    1.3660   19.4490 C   0  0  0  0  0  0  0  0  0  0  0  0
    5.1750    1.2180   18.0830 C   0  0  0  0  0  0  0  0  0  0  0  0
    6.2840    0.5490   17.7540 N   0  0  0  0  0  0  0  0  0  0  0  0
    6.9460   -0.0820   18.7140 C   0  0  0  0  0  0  0  0  0  0  0  0
   10.6000   -1.3340   23.9670 C   0  0  0  0  0  0  0  0  0  0  0  0
   11.9200   -1.1750   23.7560 C   0  0  0  0  0  0  0  0  0  0  0  0
   11.8720   -0.4620   22.4590 C   0  0  0  0  0  0  0  0  0  0  0  0
  1  2  1  0
  2  3  1  0
  2  4  1  0
  4  5  1  0
  5  6  1  0
  6  7  2  0
  6  8  1  0
  8  9  1  0
  9 10  2  0
 10 11  1  0
 11 12  2  0
 12 13  1  0
  9 14  1  0
 13 14  2  0
  4 15  1  0
 15 16  1  0
  4 17  1  0
 16 17  1  0
M  END
