pyridine_urea_9205
     RDKit          3D

 18 19  0  0  0  0  0  0  0  0999 V2000
   11.0560   -1.9120   22.3810 C   0  0  0  0  0  0  0  0  0  0  0  0
    9.8700   -0.9990   22.4550 C   0  0  1  0  0  0  0  0  0  0  0  0
    8.9420   -1.3290   21.4600 N   0  0  0  0  0  0  0  0  0  0  0  0
    8.1490   -0.2890   21.1430 C   0  0  0  0  0  0  0  0  0  0  0  0
    8.5770    0.8610   21.1290 O   0  0  0  0  0  0  0  0  0  0  0  0
    6.8850   -0.6650   20.8410 N   0  0  0  0  0  0  0  0  0  0  0  0
    6.2520    0.0460   19.8500 C   0  0  0  0  0  0  0  0  0  0  0  0
    5.0420    0.6620   20.0850 C   0  0  0  0  0  0  0  0  0  0  0  0
    4.4530    1.3930   19.0570 C   0  0  0  0  0  0  0  0  0  0  0  0
    5.1090    1.4710   17.8380 C   0  0  0  0  0  0  0  0  0  0  0  0
    6.2810    0.8670   17.6030 N   0  0  0  0  0  0  0  0  0  0  0  0
    6.8180    0.1720   18.6120 C   0  0  0  0  0  0  0  0  0  0  0  0
    8.9410   -0.8890   23.6770 C   0  0  1  0  0  0  0  0  0  0  0  0
    9.2590   -1.2490   24.9780 C   0  0  0  0  0  0  0  0  0  0  0  0
    8.3360   -1.0460   25.9820 O   0  0  0  0  0  0  0  0  0  0  0  0
    7.6450    0.1080   25.7720 C   0  0  0  0  0  0  0  0  0  0  0  0
    7.4860    0.4110   24.4280 C   0  0  0  0  0  0  0  0  0  0  0  0
    8.6590    0.2860   23.7460 O   0  0  0  0  0  0  0  0  0  0  0  0
  2  1  1  1
  2  3  1  0
  3  4  1  0
  4  5  2  0
  4  6  1  0
  6  7  1  0
  7  8  2  0
  8  9  1  0
  9 10  2  0
 10 11  1  0
  7 12  1  0
 11 12  2  0
  2 13  1  0
 13 14  1  1
 14 15  1  0
 15 16  1  0
 16 17  1  0
 13 18  1  0
 17 18  1  0
M  END
