pyridine_urea_6609
     RDKit          3D

 22 23  0  0  0  0  0  0  0  0999 V2000
   13.4850   -2.7170   25.1720 C   0  0  0  0  0  0  0  0  0  0  0  0
   12.3460   -2.6450   24.3290 O   0  0  0  0  0  0  0  0  0  0  0  0
   12.6970   -2.6320   23.0060 C   0  0  0  0  0  0  0  0  0  0  0  0
   13.2680   -1.3050   22.5470 C   0  0  0  0  0  0  0  0  0  0  0  0
   12.3890   -0.6460   22.0570 O   0  0  0  0  0  0  0  0  0  0  0  0
   11.6310   -0.1030   23.0070 C   0  0  0  0  0  0  0  0  0  0  0  0
   12.8980    0.6000   23.0020 C   0  0  0  0  0  0  0  0  0  0  0  0
   11.9120    0.8300   23.7720 C   0  0  0  0  0  0  0  0  0  0  0  0
   10.7120   -0.0110   23.5700 C   0  0  0  0  0  0  0  0  0  0  0  0
   10.3340   -1.0510   22.7040 C   0  0  0  0  0  0  0  0  0  0  0  0
    8.9080   -0.9410   22.4710 N   0  0  0  0  0  0  0  0  0  0  0  0
    8.3850   -0.0780   21.5300 C   0  0  0  0  0  0  0  0  0  0  0  0
    8.9590    1.2060   21.2150 O   0  0  0  0  0  0  0  0  0  0  0  0
    7.2480   -0.6110   20.9720 N   0  0  0  0  0  0  0  0  0  0  0  0
    6.4880    0.0590   20.0160 C   0  0  0  0  0  0  0  0  0  0  0  0
    5.2920    0.7790   20.2710 C   0  0  0  0  0  0  0  0  0  0  0  0
    4.5340    1.4810   19.2790 C   0  0  0  0  0  0  0  0  0  0  0  0
    5.1790    1.3600   17.9040 C   0  0  0  0  0  0  0  0  0  0  0  0
    6.3150    0.6570   17.6920 N   0  0  0  0  0  0  0  0  0  0  0  0
    6.9550    0.0170   18.7270 C   0  0  0  0  0  0  0  0  0  0  0  0
   10.0770    0.5380   24.4900 N   0  0  0  0  0  0  0  0  0  0  0  0
   11.3510    0.8960   24.1490 N   0  0  0  0  0  0  0  0  0  0  0  0
  1  2  1  0
  2  3  1  0
  3  4  1  0
  4  5  1  0
  5  6  1  0
  6  7  2  0
  7  8  1  0
  8  9  2  0
  9 10  1  0
 10 11  1  0
 11 12  1  0
 12 13  2  0
 12 14  1  0
 14 15  1  0
 15 16  2  0
 16 17  1  0
 17 18  2  0
 18 19  1  0
 15 20  1  0
 19 20  2  0
  9 21  1  0
  6 22  1  0
 21 22  2  0
M  END
