pyridine_urea_13031
     RDKit          3D

 21 21  0  0  0  0  0  0  0  0999 V2000
   12.3100    0.0760   24.3890 C   0  0  0  0  0  0  0  0  0  0  0  0
   11.1340   -0.6480   24.9710 C   0  0  0  0  0  0  0  0  0  0  0  0
    9.8220   -0.4270   24.5570 C   0  0  0  0  0  0  0  0  0  0  0  0
    9.6240   -0.0390   23.2630 C   0  0  2  0  0  0  0  0  0  0  0  0
    8.8750   -0.7320   22.4050 N   0  0  0  0  0  0  0  0  0  0  0  0
    8.3070    0.0010   21.4350 C   0  0  0  0  0  0  0  0  0  0  0  0
    8.7260    1.1240   21.1070 O   0  0  0  0  0  0  0  0  0  0  0  0
    7.2480   -0.6710   20.9360 N   0  0  0  0  0  0  0  0  0  0  0  0
    6.5210    0.0080   20.0280 C   0  0  0  0  0  0  0  0  0  0  0  0
    5.3430    0.7330   20.2760 C   0  0  0  0  0  0  0  0  0  0  0  0
    4.6070    1.4850   19.1500 C   0  0  0  0  0  0  0  0  0  0  0  0
    5.1690    1.4100   17.8850 C   0  0  0  0  0  0  0  0  0  0  0  0
    6.3020    0.6880   17.7190 N   0  0  0  0  0  0  0  0  0  0  0  0
    6.9660    0.0050   18.7250 C   0  0  0  0  0  0  0  0  0  0  0  0
   10.9570   -0.0290   22.6250 C   0  0  0  0  0  0  0  0  0  0  0  0
   11.5870    0.9820   22.3750 O   0  0  0  0  0  0  0  0  0  0  0  0
   11.3660   -1.3870   22.4130 O   0  0  0  0  0  0  0  0  0  0  0  0
   12.7600   -1.6560   22.3710 C   0  0  0  0  0  0  0  0  0  0  0  0
   13.2210   -2.4520   23.4210 C   0  0  0  0  0  0  0  0  0  0  0  0
   13.3100   -0.4250   22.5740 C   0  0  0  0  0  0  0  0  0  0  0  0
   13.1390   -2.1160   20.9870 C   0  0  0  0  0  0  0  0  0  0  0  0
  1  2  1  0
  2  3  1  0
  4  3  1  1
  4  5  1  0
  5  6  1  0
  6  7  2  0
  6  8  1  0
  8  9  1  0
  9 10  2  0
 10 11  1  0
 11 12  2  0
 12 13  1  0
  9 14  1  0
 13 14  2  0
  4 15  1  0
 15 16  2  0
 15 17  1  0
 18 17  1  0
 18 19  1  0
 18 20  1  0
 18 21  1  0
M  END
