pyridine_urea_8716
     RDKit          3D

 21 22  0  0  0  0  0  0  0  0999 V2000
   13.4580   -2.9080   24.6340 C   0  0  0  0  0  0  0  0  0  0  0  0
   13.1990   -1.6170   25.3110 C   0  0  0  0  0  0  0  0  0  0  0  0
   13.4210   -0.5420   24.4080 O   0  0  0  0  0  0  0  0  0  0  0  0
   12.3670   -0.6550   23.6620 C   0  0  0  0  0  0  0  0  0  0  0  0
   12.5650   -1.3310   22.5210 C   0  0  0  0  0  0  0  0  0  0  0  0
   11.4520   -1.4840   21.8560 C   0  0  0  0  0  0  0  0  0  0  0  0
   10.1800   -0.9070   22.4200 C   0  0  0  0  0  0  0  0  0  0  0  0
    9.0370   -1.1630   21.6260 N   0  0  0  0  0  0  0  0  0  0  0  0
    8.2880   -0.0790   21.3290 C   0  0  0  0  0  0  0  0  0  0  0  0
    8.7610    1.0460   21.2610 O   0  0  0  0  0  0  0  0  0  0  0  0
    6.9200   -0.4400   21.1050 N   0  0  0  0  0  0  0  0  0  0  0  0
    6.3460    0.1390   20.0230 C   0  0  0  0  0  0  0  0  0  0  0  0
    5.1680    0.8500   20.1700 C   0  0  0  0  0  0  0  0  0  0  0  0
    4.5650    1.4700   19.1100 C   0  0  0  0  0  0  0  0  0  0  0  0
    5.1660    1.3710   17.8650 C   0  0  0  0  0  0  0  0  0  0  0  0
    6.3060    0.6820   17.6760 N   0  0  0  0  0  0  0  0  0  0  0  0
    6.8680    0.0830   18.7470 C   0  0  0  0  0  0  0  0  0  0  0  0
    9.9150   -0.1080   23.6960 C   0  0  0  0  0  0  0  0  0  0  0  0
   10.0400    0.5520   24.8700 O   0  0  0  0  0  0  0  0  0  0  0  0
    9.3530   -0.0550   25.9510 C   0  0  0  0  0  0  0  0  0  0  0  0
   11.2040   -0.1250   24.1480 N   0  0  0  0  0  0  0  0  0  0  0  0
  1  2  1  0
  2  3  1  0
  3  4  1  0
  4  5  2  0
  5  6  1  0
  6  7  2  0
  7  8  1  0
  8  9  1  0
  9 10  2  0
  9 11  1  0
 11 12  1  0
 12 13  2  0
 13 14  1  0
 14 15  2  0
 15 16  1  0
 12 17  1  0
 16 17  2  0
  7 18  1  0
 18 19  1  0
 19 20  1  0
  4 21  1  0
 18 21  2  0
M  END
