pyridine_urea_13019
     RDKit          3D

 18 18  0  0  0  0  0  0  0  0999 V2000
   10.7730   -1.6420   24.4610 C   0  0  0  0  0  0  0  0  0  0  0  0
   10.8630   -0.7050   23.3100 C   0  0  2  0  0  0  0  0  0  0  0  0
   10.0910    0.3850   23.5540 F   0  0  0  0  0  0  0  0  0  0  0  0
   10.4170   -1.2650   22.1420 C   0  0  0  0  0  0  0  0  0  0  0  0
    8.9670   -1.2840   22.1690 N   0  0  0  0  0  0  0  0  0  0  0  0
    8.3070   -0.2900   21.4910 C   0  0  0  0  0  0  0  0  0  0  0  0
    8.7700    0.8260   21.2880 O   0  0  0  0  0  0  0  0  0  0  0  0
    6.9910   -0.7520   21.0520 N   0  0  0  0  0  0  0  0  0  0  0  0
    6.3880   -0.0610   20.0380 C   0  0  0  0  0  0  0  0  0  0  0  0
    5.1040    0.7000   20.3170 C   0  0  0  0  0  0  0  0  0  0  0  0
    4.5150    1.4030   19.2750 C   0  0  0  0  0  0  0  0  0  0  0  0
    5.2290    1.3450   17.9200 C   0  0  0  0  0  0  0  0  0  0  0  0
    6.3690    0.6480   17.7250 N   0  0  0  0  0  0  0  0  0  0  0  0
    6.9110   -0.0270   18.7620 C   0  0  0  0  0  0  0  0  0  0  0  0
   12.2970   -0.2280   23.1410 C   0  0  0  0  0  0  0  0  0  0  0  0
   12.9030   -0.8280   22.0960 F   0  0  0  0  0  0  0  0  0  0  0  0
   12.4020    1.1070   22.9900 F   0  0  0  0  0  0  0  0  0  0  0  0
   13.0430   -0.5890   24.2110 F   0  0  0  0  0  0  0  0  0  0  0  0
  2  1  1  1
  2  3  1  0
  2  4  1  0
  4  5  1  0
  5  6  1  0
  6  7  2  0
  6  8  1  0
  8  9  1  0
  9 10  2  0
 10 11  1  0
 11 12  2  0
 12 13  1  0
  9 14  1  0
 13 14  2  0
  2 15  1  0
 15 16  1  0
 15 17  1  0
 15 18  1  0
M  END
