pyridine_urea_11587
     RDKit          3D

 17 18  0  0  0  0  0  0  0  0999 V2000
   12.1790   -0.1840   24.7440 C   0  0  0  0  0  0  0  0  0  0  0  0
   13.0050   -0.5680   23.5810 C   0  0  0  0  0  0  0  0  0  0  0  0
   13.3260    0.3340   22.5970 C   0  0  0  0  0  0  0  0  0  0  0  0
   12.2170   -1.6210   22.8410 C   0  0  0  0  0  0  0  0  0  0  0  0
   11.0950   -1.0350   22.3320 C   0  0  2  0  0  0  0  0  0  0  0  0
   10.6050    0.0390   22.7940 C   0  0  0  0  0  0  0  0  0  0  0  0
    9.8240   -1.0670   23.2850 C   0  0  1  0  0  0  0  0  0  0  0  0
    8.4630   -0.9710   22.8340 N   0  0  0  0  0  0  0  0  0  0  0  0
    8.2000   -0.2130   21.7190 C   0  0  0  0  0  0  0  0  0  0  0  0
    8.8990    0.7190   21.3600 O   0  0  0  0  0  0  0  0  0  0  0  0
    6.9980   -0.6520   21.0490 N   0  0  0  0  0  0  0  0  0  0  0  0
    6.4020   -0.0100   20.0190 C   0  0  0  0  0  0  0  0  0  0  0  0
    5.2150    0.6920   20.2480 C   0  0  0  0  0  0  0  0  0  0  0  0
    4.6090    1.3680   19.1890 C   0  0  0  0  0  0  0  0  0  0  0  0
    5.2050    1.3230   17.9430 C   0  0  0  0  0  0  0  0  0  0  0  0
    6.3400    0.6480   17.7090 N   0  0  0  0  0  0  0  0  0  0  0  0
    6.9060    0.0010   18.7390 C   0  0  0  0  0  0  0  0  0  0  0  0
  1  2  1  0
  2  3  1  0
  2  4  1  0
  5  4  1  1
  5  6  1  0
  5  7  1  0
  6  7  1  0
  7  8  1  6
  8  9  1  0
  9 10  2  0
  9 11  1  0
 11 12  1  0
 12 13  2  0
 13 14  1  0
 14 15  2  0
 15 16  1  0
 12 17  1  0
 16 17  2  0
M  END
