pyridine_urea_3712
     RDKit          3D

 24 26  0  0  0  0  0  0  0  0999 V2000
    9.3690   -0.7290   22.8920 C   0  0  0  0  0  0  0  0  0  0  0  0
    8.2550   -1.2900   23.4890 N   0  0  0  0  0  0  0  0  0  0  0  0
    8.1050   -2.6350   23.8110 C   0  0  0  0  0  0  0  0  0  0  0  0
    9.1690   -3.6180   23.5030 C   0  0  0  0  0  0  0  0  0  0  0  0
   10.5610   -2.9910   23.3210 C   0  0  0  0  0  0  0  0  0  0  0  0
   10.8340   -2.5420   21.9230 C   0  0  0  0  0  0  0  0  0  0  0  0
   12.1610   -1.9420   21.5840 C   0  0  0  0  0  0  0  0  0  0  0  0
   13.1770   -1.7840   22.6960 C   0  0  0  0  0  0  0  0  0  0  0  0
   12.8180   -2.2320   23.9740 C   0  0  0  0  0  0  0  0  0  0  0  0
   11.5790   -2.8110   24.2740 C   0  0  0  0  0  0  0  0  0  0  0  0
    6.7530   -2.8580   24.4610 C   0  0  0  0  0  0  0  0  0  0  0  0
    6.2000   -1.5850   24.4550 N   0  0  0  0  0  0  0  0  0  0  0  0
    7.0340   -0.5930   23.8830 C   0  0  0  0  0  0  0  0  0  0  0  0
    6.9210    0.7470   23.6520 C   0  0  0  0  0  0  0  0  0  0  0  0
    8.0060    1.1800   22.9900 N   0  0  0  0  0  0  0  0  0  0  0  0
    8.1410    0.9280   21.6600 C   0  0  0  0  0  0  0  0  0  0  0  0
    8.9390    1.5620   20.9980 O   0  0  0  0  0  0  0  0  0  0  0  0
    7.3090   -0.0420   21.2060 N   0  0  0  0  0  0  0  0  0  0  0  0
    6.6240    0.3380   20.1140 C   0  0  0  0  0  0  0  0  0  0  0  0
    5.4030    1.1640   20.3130 C   0  0  0  0  0  0  0  0  0  0  0  0
    4.6880    1.5890   19.2050 C   0  0  0  0  0  0  0  0  0  0  0  0
    5.1530    1.2200   17.9620 C   0  0  0  0  0  0  0  0  0  0  0  0
    6.2440    0.4670   17.7480 N   0  0  0  0  0  0  0  0  0  0  0  0
    6.9570    0.0380   18.8110 C   0  0  0  0  0  0  0  0  0  0  0  0
  1  2  1  0
  2  3  1  0
  3  4  1  0
  4  5  1  0
  5  6  2  0
  6  7  1  0
  7  8  2  0
  8  9  1  0
  5 10  1  0
  9 10  2  0
  3 11  2  0
 11 12  1  0
  2 13  1  0
 12 13  2  0
 13 14  1  0
 14 15  1  0
 15 16  1  0
 16 17  2  0
 16 18  1  0
 18 19  1  0
 19 20  2  0
 20 21  1  0
 21 22  2  0
 22 23  1  0
 19 24  1  0
 23 24  2  0
M  END
