pyridine_urea_6390
     RDKit          3D

 19 20  0  0  0  0  0  0  0  0999 V2000
    8.6110    0.6290   21.0670 O   0  0  0  0  0  0  0  0  0  0  0  0
    8.0250   -0.3880   21.4030 C   0  0  0  0  0  0  0  0  0  0  0  0
    8.4820   -1.2040   22.3690 N   0  0  0  0  0  0  0  0  0  0  0  0
    8.6840   -0.4960   23.5840 C   0  0  0  0  0  0  0  0  0  0  0  0
    9.6880    0.6130   23.3700 C   0  0  0  0  0  0  0  0  0  0  0  0
   10.9300   -0.0940   23.5760 C   0  0  0  0  0  0  0  0  0  0  0  0
   11.3400    0.7130   22.7260 C   0  0  0  0  0  0  0  0  0  0  0  0
   12.3140   -0.1630   22.3800 C   0  0  0  0  0  0  0  0  0  0  0  0
   12.5410   -1.4820   21.9990 C   0  0  0  0  0  0  0  0  0  0  0  0
   13.6280   -1.4370   22.4750 C   0  0  0  0  0  0  0  0  0  0  0  0
   12.4330   -0.8220   23.4240 C   0  0  0  0  0  0  0  0  0  0  0  0
   12.9570   -1.1250   24.4870 O   0  0  0  0  0  0  0  0  0  0  0  0
    6.8410   -0.8210   20.9150 N   0  0  0  0  0  0  0  0  0  0  0  0
    6.2230   -0.0400   19.8700 C   0  0  0  0  0  0  0  0  0  0  0  0
    5.0080    0.5530   20.1630 C   0  0  0  0  0  0  0  0  0  0  0  0
    4.4190    1.3190   19.1820 C   0  0  0  0  0  0  0  0  0  0  0  0
    5.1220    1.4700   17.8590 C   0  0  0  0  0  0  0  0  0  0  0  0
    6.3020    0.8810   17.5920 N   0  0  0  0  0  0  0  0  0  0  0  0
    6.8420    0.1390   18.5730 C   0  0  0  0  0  0  0  0  0  0  0  0
  1  2  2  0
  2  3  1  0
  3  4  1  0
  4  5  1  0
  5  6  1  0
  6  7  2  0
  7  8  1  0
  8  9  2  0
  9 10  1  0
  6 11  1  0
 10 11  2  0
 11 12  1  0
  2 13  1  0
 13 14  1  0
 14 15  2  0
 15 16  1  0
 16 17  2  0
 17 18  1  0
 14 19  1  0
 18 19  2  0
M  END
