pyridine_urea_579
     RDKit          3D

 24 26  0  0  0  0  0  0  0  0999 V2000
    8.9650    0.7970   21.4060 O   0  0  0  0  0  0  0  0  0  0  0  0
    8.3860   -0.2600   21.6240 C   0  0  0  0  0  0  0  0  0  0  0  0
    8.8120   -1.2170   22.5320 N   0  0  0  0  0  0  0  0  0  0  0  0
    8.1340   -1.6150   23.7190 C   0  0  0  0  0  0  0  0  0  0  0  0
    7.6290   -2.8970   23.9130 C   0  0  0  0  0  0  0  0  0  0  0  0
    8.2740   -4.0150   23.4610 N   0  0  0  0  0  0  0  0  0  0  0  0
    7.5200   -5.1870   23.8010 C   0  0  0  0  0  0  0  0  0  0  0  0
    6.4150   -4.7700   24.4690 C   0  0  0  0  0  0  0  0  0  0  0  0
    6.4710   -3.2790   24.5430 N   0  0  0  0  0  0  0  0  0  0  0  0
    5.4540   -2.5630   25.1520 C   0  0  0  0  0  0  0  0  0  0  0  0
    4.1470   -2.7900   24.3730 C   0  0  0  0  0  0  0  0  0  0  0  0
    4.5160   -3.5420   23.2650 C   0  0  0  0  0  0  0  0  0  0  0  0
    4.9700   -2.9140   22.1130 C   0  0  0  0  0  0  0  0  0  0  0  0
    5.3840   -3.6100   21.0060 C   0  0  0  0  0  0  0  0  0  0  0  0
    5.3780   -4.9970   20.9730 C   0  0  0  0  0  0  0  0  0  0  0  0
    4.8880   -5.7150   22.1870 C   0  0  0  0  0  0  0  0  0  0  0  0
    4.4680   -4.9510   23.2970 C   0  0  0  0  0  0  0  0  0  0  0  0
    7.2190   -0.6710   21.0210 N   0  0  0  0  0  0  0  0  0  0  0  0
    6.4650    0.0310   20.0710 C   0  0  0  0  0  0  0  0  0  0  0  0
    5.2960    0.7600   20.3330 C   0  0  0  0  0  0  0  0  0  0  0  0
    4.7020    1.3950   19.2560 C   0  0  0  0  0  0  0  0  0  0  0  0
    5.2190    1.3230   17.9930 C   0  0  0  0  0  0  0  0  0  0  0  0
    6.3280    0.6320   17.7040 N   0  0  0  0  0  0  0  0  0  0  0  0
    6.9150    0.0060   18.7560 C   0  0  0  0  0  0  0  0  0  0  0  0
  1  2  2  0
  2  3  1  0
  3  4  1  0
  4  5  1  0
  5  6  2  0
  6  7  1  0
  7  8  2  0
  5  9  1  0
  8  9  1  0
  9 10  1  0
 10 11  1  0
 11 12  1  0
 12 13  2  0
 13 14  1  0
 14 15  2  0
 15 16  1  0
 12 17  1  0
 16 17  2  0
  2 18  1  0
 18 19  1  0
 19 20  2  0
 20 21  1  0
 21 22  2  0
 22 23  1  0
 19 24  1  0
 23 24  2  0
M  END
