pyridine_urea_10254
     RDKit          3D

 23 25  0  0  0  0  0  0  0  0999 V2000
   12.7260   -2.6760   24.7280 C   0  0  0  0  0  0  0  0  0  0  0  0
   13.1670   -2.2510   23.3470 C   0  0  0  0  0  0  0  0  0  0  0  0
   12.1020   -1.7680   22.5480 O   0  0  0  0  0  0  0  0  0  0  0  0
   11.7490   -0.4550   22.6710 C   0  0  0  0  0  0  0  0  0  0  0  0
   12.6710    0.6530   22.7460 C   0  0  0  0  0  0  0  0  0  0  0  0
   12.1620    1.9830   22.8440 C   0  0  0  0  0  0  0  0  0  0  0  0
   10.8320    2.2260   22.9140 C   0  0  0  0  0  0  0  0  0  0  0  0
    9.8910    1.0750   22.8440 C   0  0  0  0  0  0  0  0  0  0  0  0
   10.3640   -0.1920   22.7050 C   0  0  0  0  0  0  0  0  0  0  0  0
    9.2050   -1.1010   22.5690 N   0  0  0  0  0  0  0  0  0  0  0  0
    8.3180   -0.3870   21.5730 C   0  0  0  0  0  0  0  0  0  0  0  0
    8.6880    0.9220   21.1040 O   0  0  0  0  0  0  0  0  0  0  0  0
    7.1080   -1.0040   21.0950 N   0  0  0  0  0  0  0  0  0  0  0  0
    6.4250   -0.2740   20.1000 C   0  0  0  0  0  0  0  0  0  0  0  0
    5.2190    0.4150   20.3370 C   0  0  0  0  0  0  0  0  0  0  0  0
    4.5460    1.2030   19.2510 C   0  0  0  0  0  0  0  0  0  0  0  0
    5.1340    1.2460   17.9920 C   0  0  0  0  0  0  0  0  0  0  0  0
    6.3270    0.5350   17.8210 N   0  0  0  0  0  0  0  0  0  0  0  0
    6.9280   -0.1790   18.8070 C   0  0  0  0  0  0  0  0  0  0  0  0
   10.4790    3.4270   23.0140 O   0  0  0  0  0  0  0  0  0  0  0  0
   11.6890    4.2070   23.1640 C   0  0  2  0  0  0  0  0  0  0  0  0
   11.8120    5.2200   22.2200 C   0  0  0  0  0  0  0  0  0  0  0  0
   12.7840    3.2190   22.8620 C   0  0  0  0  0  0  0  0  0  0  0  0
  1  2  1  0
  2  3  1  0
  3  4  1  0
  4  5  2  0
  5  6  1  0
  6  7  2  0
  7  8  1  0
  4  9  1  0
  8  9  2  0
  9 10  1  0
 10 11  1  0
 11 12  2  0
 11 13  1  0
 13 14  1  0
 14 15  2  0
 15 16  1  0
 16 17  2  0
 17 18  1  0
 14 19  1  0
 18 19  2  0
  7 20  1  0
 20 21  1  0
 21 22  1  6
  6 23  1  0
 21 23  1  0
M  END
