pyridine_urea_14059
     RDKit          3D

 23 26  0  0  0  0  0  0  0  0999 V2000
    8.7190    0.5870   21.1640 O   0  0  0  0  0  0  0  0  0  0  0  0
    8.2930   -0.5330   21.4280 C   0  0  0  0  0  0  0  0  0  0  0  0
    7.0430   -0.9510   21.0310 N   0  0  0  0  0  0  0  0  0  0  0  0
    6.4320   -0.1830   19.9720 C   0  0  0  0  0  0  0  0  0  0  0  0
    5.1380    0.5500   20.3100 C   0  0  0  0  0  0  0  0  0  0  0  0
    4.5550    1.3360   19.1860 C   0  0  0  0  0  0  0  0  0  0  0  0
    5.2130    1.3400   17.9670 C   0  0  0  0  0  0  0  0  0  0  0  0
    6.3570    0.6690   17.7260 N   0  0  0  0  0  0  0  0  0  0  0  0
    6.9320   -0.0610   18.7010 C   0  0  0  0  0  0  0  0  0  0  0  0
    9.0130   -1.4680   22.1440 N   0  0  0  0  0  0  0  0  0  0  0  0
   10.3760   -1.0360   22.4950 C   0  0  0  0  0  0  0  0  0  0  0  0
   11.4510   -1.5730   21.8500 C   0  0  0  0  0  0  0  0  0  0  0  0
   12.7150   -0.9290   22.3680 C   0  0  0  0  0  0  0  0  0  0  0  0
   12.8060    0.0340   23.3250 C   0  0  0  0  0  0  0  0  0  0  0  0
   11.6850    0.5150   23.9370 C   0  0  0  0  0  0  0  0  0  0  0  0
   10.4510    0.0230   23.5770 C   0  0  0  0  0  0  0  0  0  0  0  0
    9.2620    0.4720   24.1780 N   0  0  0  0  0  0  0  0  0  0  0  0
    8.1360    1.2130   23.7300 C   0  0  0  0  0  0  0  0  0  0  0  0
    7.1160    0.9220   24.7910 C   0  0  1  0  0  0  0  0  0  0  0  0
    6.7290   -0.5060   24.6310 C   0  0  0  0  0  0  0  0  0  0  0  0
    7.9490   -1.1140   24.9960 C   0  0  0  0  0  0  0  0  0  0  0  0
    8.7530   -0.0420   25.4760 C   0  0  2  0  0  0  0  0  0  0  0  0
    7.8140    0.8380   25.9960 C   0  0  0  0  0  0  0  0  0  0  0  0
  1  2  2  0
  2  3  1  0
  3  4  1  0
  4  5  2  0
  5  6  1  0
  6  7  2  0
  7  8  1  0
  4  9  1  0
  8  9  2  0
  2 10  1  0
 10 11  1  0
 11 12  2  0
 12 13  1  0
 13 14  2  0
 14 15  1  0
 11 16  1  0
 15 16  2  0
 16 17  1  0
 17 18  1  0
 19 18  1  6
 19 20  1  0
 20 21  1  0
 17 22  1  0
 22 21  1  6
 19 23  1  0
 22 23  1  0
M  END
