pyridine_urea_8522
     RDKit          3D

 22 23  0  0  0  0  0  0  0  0999 V2000
    8.3840    0.2680   25.3960 C   0  0  0  0  0  0  0  0  0  0  0  0
    9.7000    0.4960   24.7110 C   0  0  0  0  0  0  0  0  0  0  0  0
   10.3910   -0.5940   24.5170 C   0  0  0  0  0  0  0  0  0  0  0  0
   11.5800   -0.6340   23.9230 C   0  0  0  0  0  0  0  0  0  0  0  0
   12.3780    0.3450   23.3910 C   0  0  0  0  0  0  0  0  0  0  0  0
   12.9420   -1.0370   23.2620 C   0  0  0  0  0  0  0  0  0  0  0  0
   11.8400   -1.8510   22.9210 C   0  0  1  0  0  0  0  0  0  0  0  0
   11.2870   -2.7550   24.0540 C   0  0  0  0  0  0  0  0  0  0  0  0
   10.1590   -3.1540   23.7870 O   0  0  0  0  0  0  0  0  0  0  0  0
   10.8450   -1.1120   22.0430 C   0  0  0  0  0  0  0  0  0  0  0  0
    9.3960   -0.9980   22.3020 N   0  0  0  0  0  0  0  0  0  0  0  0
    8.6160   -0.0810   21.5730 C   0  0  0  0  0  0  0  0  0  0  0  0
    9.0330    1.2030   21.2580 O   0  0  0  0  0  0  0  0  0  0  0  0
    7.3750   -0.5690   21.1550 N   0  0  0  0  0  0  0  0  0  0  0  0
    6.6220    0.0110   20.1120 C   0  0  0  0  0  0  0  0  0  0  0  0
    5.4600    0.7340   20.4270 C   0  0  0  0  0  0  0  0  0  0  0  0
    4.7130    1.3310   19.4050 C   0  0  0  0  0  0  0  0  0  0  0  0
    5.1560    1.1850   18.1040 C   0  0  0  0  0  0  0  0  0  0  0  0
    6.2580    0.4940   17.7690 N   0  0  0  0  0  0  0  0  0  0  0  0
    6.9690   -0.0790   18.7670 C   0  0  0  0  0  0  0  0  0  0  0  0
   11.4790    1.4200   23.7110 C   0  0  0  0  0  0  0  0  0  0  0  0
   10.0710    1.7690   24.3550 C   0  0  0  0  0  0  0  0  0  0  0  0
  1  2  1  0
  2  3  2  0
  3  4  1  0
  4  5  2  0
  5  6  1  0
  7  6  1  1
  7  8  1  0
  8  9  1  0
  7 10  1  0
 10 11  1  0
 11 12  1  0
 12 13  2  0
 12 14  1  0
 14 15  1  0
 15 16  2  0
 16 17  1  0
 17 18  2  0
 18 19  1  0
 15 20  1  0
 19 20  2  0
  5 21  1  0
  2 22  1  0
 21 22  2  0
M  END
