pyridine_urea_533
     RDKit          3D

 25 27  0  0  0  0  0  0  0  0999 V2000
   10.5320   -0.7900   22.5170 C   0  0  0  0  0  0  0  0  0  0  0  0
   11.7880   -0.6990   23.3540 C   0  0  0  0  0  0  0  0  0  0  0  0
   12.7230    0.3230   23.2740 C   0  0  0  0  0  0  0  0  0  0  0  0
   12.5990   -0.7680   23.9600 C   0  0  0  0  0  0  0  0  0  0  0  0
   11.3000   -1.2330   23.5050 C   0  0  0  0  0  0  0  0  0  0  0  0
   10.5950   -0.4040   22.5870 C   0  0  2  0  0  0  0  0  0  0  0  0
   10.1420    0.8850   23.3080 C   0  0  0  0  0  0  0  0  0  0  0  0
   10.8780    2.0850   23.0760 N   0  0  0  0  0  0  0  0  0  0  0  0
   12.2570    2.2880   22.8930 C   0  0  0  0  0  0  0  0  0  0  0  0
   12.5190    3.6360   22.6990 C   0  0  0  0  0  0  0  0  0  0  0  0
   11.3240    4.4130   22.7440 N   0  0  0  0  0  0  0  0  0  0  0  0
   10.3100    3.4680   22.9730 C   0  0  0  0  0  0  0  0  0  0  0  0
    9.4140   -0.9760   21.8620 N   0  0  0  0  0  0  0  0  0  0  0  0
    8.4490    0.0210   21.3790 C   0  0  0  0  0  0  0  0  0  0  0  0
    8.7740    1.1950   21.1580 O   0  0  0  0  0  0  0  0  0  0  0  0
    7.2070   -0.4760   21.1860 N   0  0  0  0  0  0  0  0  0  0  0  0
    6.5730    0.0580   20.1110 C   0  0  0  0  0  0  0  0  0  0  0  0
    5.4400    0.8110   20.4370 C   0  0  0  0  0  0  0  0  0  0  0  0
    4.7160    1.4320   19.4080 C   0  0  0  0  0  0  0  0  0  0  0  0
    5.0980    1.3190   18.0700 C   0  0  0  0  0  0  0  0  0  0  0  0
    6.2750    0.5270   17.7000 N   0  0  0  0  0  0  0  0  0  0  0  0
    6.9670   -0.0830   18.8110 C   0  0  0  0  0  0  0  0  0  0  0  0
   10.9390   -2.4110   24.0500 C   0  0  0  0  0  0  0  0  0  0  0  0
    9.7230   -2.5390   23.4000 C   0  0  0  0  0  0  0  0  0  0  0  0
   12.1340   -1.7920   24.3580 C   0  0  0  0  0  0  0  0  0  0  0  0
  1  2  1  0
  2  3  2  0
  3  4  1  0
  4  5  2  0
  5  6  1  0
  6  7  1  1
  7  8  1  0
  8  9  1  0
  9 10  2  0
 10 11  1  0
  8 12  1  0
 11 12  2  0
  6 13  1  0
 13 14  1  0
 14 15  2  0
 14 16  1  0
 16 17  1  0
 17 18  2  0
 18 19  1  0
 19 20  2  0
 20 21  1  0
 17 22  1  0
 21 22  2  0
  5 23  1  0
 23 24  1  0
  2 25  1  0
 23 25  2  0
M  END
