pyridine_urea_674
     RDKit          3D

 24 27  0  0  0  0  0  0  0  0999 V2000
    8.7600    0.8810   21.2150 O   0  0  0  0  0  0  0  0  0  0  0  0
    8.4570   -0.3080   21.2340 C   0  0  0  0  0  0  0  0  0  0  0  0
    7.2130   -0.7620   20.8600 N   0  0  0  0  0  0  0  0  0  0  0  0
    6.4100   -0.0440   19.9700 C   0  0  0  0  0  0  0  0  0  0  0  0
    5.2060    0.6020   20.2450 C   0  0  0  0  0  0  0  0  0  0  0  0
    4.5560    1.2980   19.2170 C   0  0  0  0  0  0  0  0  0  0  0  0
    5.1390    1.3150   17.9650 C   0  0  0  0  0  0  0  0  0  0  0  0
    6.2920    0.6900   17.6870 N   0  0  0  0  0  0  0  0  0  0  0  0
    6.8850    0.0350   18.6880 C   0  0  0  0  0  0  0  0  0  0  0  0
    9.3350   -1.2940   21.6190 N   0  0  0  0  0  0  0  0  0  0  0  0
   10.2950   -0.9880   22.5730 C   0  0  0  0  0  0  0  0  0  0  0  0
   11.6690   -0.9950   22.3390 C   0  0  0  0  0  0  0  0  0  0  0  0
   12.5690   -0.6400   23.3620 C   0  0  0  0  0  0  0  0  0  0  0  0
   12.0740   -0.2870   24.6360 C   0  0  0  0  0  0  0  0  0  0  0  0
   10.6830   -0.2990   24.8630 C   0  0  0  0  0  0  0  0  0  0  0  0
    9.8040   -0.6550   23.8080 C   0  0  0  0  0  0  0  0  0  0  0  0
    8.5040   -0.6090   24.2540 C   0  0  0  0  0  0  0  0  0  0  0  0
    8.6000   -0.5130   25.5850 N   0  0  0  0  0  0  0  0  0  0  0  0
    7.4340   -0.2600   26.3290 C   0  0  0  0  0  0  0  0  0  0  0  0
    6.2110   -0.7960   26.0210 N   0  0  0  0  0  0  0  0  0  0  0  0
    5.2960   -0.3820   26.9080 C   0  0  0  0  0  0  0  0  0  0  0  0
    5.6930    0.4520   27.9080 C   0  0  0  0  0  0  0  0  0  0  0  0
    7.4400    0.7820   27.7510 S   0  0  0  0  0  0  0  0  0  0  0  0
    9.8600   -0.0170   26.0110 C   0  0  0  0  0  0  0  0  0  0  0  0
  1  2  2  0
  2  3  1  0
  3  4  1  0
  4  5  2  0
  5  6  1  0
  6  7  2  0
  7  8  1  0
  4  9  1  0
  8  9  2  0
  2 10  1  0
 10 11  1  0
 11 12  2  0
 12 13  1  0
 13 14  2  0
 14 15  1  0
 11 16  1  0
 15 16  2  0
 16 17  1  0
 17 18  1  0
 18 19  1  0
 19 20  2  0
 20 21  1  0
 21 22  2  0
 19 23  1  0
 22 23  1  0
 15 24  1  0
 18 24  1  0
M  END
