pyridine_urea_4515
     RDKit          3D

 23 25  0  0  0  0  0  0  0  0999 V2000
   15.6590   -5.6660   20.2180 C   0  0  0  0  0  0  0  0  0  0  0  0
   14.9050   -4.5800   20.7790 C   0  0  0  0  0  0  0  0  0  0  0  0
   15.0880   -4.4520   22.2590 C   0  0  0  0  0  0  0  0  0  0  0  0
   14.1870   -3.2610   23.1240 C   0  0  0  0  0  0  0  0  0  0  0  0
   13.2790   -2.3550   22.3050 C   0  0  0  0  0  0  0  0  0  0  0  0
   12.4010   -1.2410   22.7950 C   0  0  0  0  0  0  0  0  0  0  0  0
   12.8740    0.0410   23.4360 C   0  0  0  0  0  0  0  0  0  0  0  0
   11.8020    0.8630   23.7640 C   0  0  0  0  0  0  0  0  0  0  0  0
   10.4680    0.5570   23.5340 C   0  0  0  0  0  0  0  0  0  0  0  0
   10.1690   -0.6380   22.9350 C   0  0  0  0  0  0  0  0  0  0  0  0
    8.7930   -0.9240   22.6890 N   0  0  0  0  0  0  0  0  0  0  0  0
    8.1890   -0.1340   21.6080 C   0  0  0  0  0  0  0  0  0  0  0  0
    8.6740    0.9290   21.2310 O   0  0  0  0  0  0  0  0  0  0  0  0
    6.9970   -0.7580   21.0930 N   0  0  0  0  0  0  0  0  0  0  0  0
    6.3610   -0.0350   20.0230 C   0  0  0  0  0  0  0  0  0  0  0  0
    5.0900    0.7060   20.3040 C   0  0  0  0  0  0  0  0  0  0  0  0
    4.5630    1.3820   19.2220 C   0  0  0  0  0  0  0  0  0  0  0  0
    5.2060    1.3700   17.9050 C   0  0  0  0  0  0  0  0  0  0  0  0
    6.3380    0.6960   17.6800 N   0  0  0  0  0  0  0  0  0  0  0  0
    6.8790    0.0160   18.7310 C   0  0  0  0  0  0  0  0  0  0  0  0
   11.0950   -1.5640   22.5520 C   0  0  0  0  0  0  0  0  0  0  0  0
   13.2540   -2.5910   20.9770 C   0  0  0  0  0  0  0  0  0  0  0  0
   13.9850   -3.5990   20.3240 C   0  0  0  0  0  0  0  0  0  0  0  0
  1  2  1  0
  2  3  2  0
  3  4  1  0
  4  5  2  0
  5  6  1  0
  6  7  2  0
  7  8  1  0
  8  9  2  0
  9 10  1  0
 10 11  1  0
 11 12  1  0
 12 13  2  0
 12 14  1  0
 14 15  1  0
 15 16  2  0
 16 17  1  0
 17 18  2  0
 18 19  1  0
 15 20  1  0
 19 20  2  0
  6 21  1  0
 10 21  2  0
  5 22  1  0
  2 23  1  0
 22 23  2  0
M  END
