pyridine_urea_9844
     RDKit          3D

 26 29  0  0  0  0  0  0  0  0999 V2000
   12.7450   -1.7860   21.3100 C   0  0  0  0  0  0  0  0  0  0  0  0
   11.9350   -1.2610   22.5070 C   0  0  0  0  0  0  0  0  0  0  0  0
   12.7750   -0.9820   23.7110 C   0  0  0  0  0  0  0  0  0  0  0  0
   12.0590   -0.5120   24.9490 C   0  0  0  0  0  0  0  0  0  0  0  0
   10.5220   -0.3470   24.9110 C   0  0  0  0  0  0  0  0  0  0  0  0
    9.5770    0.0590   26.0720 C   0  0  0  0  0  0  0  0  0  0  0  0
    9.8980    0.0360   27.4730 N   0  0  0  0  0  0  0  0  0  0  0  0
    8.8220    0.4400   28.2090 C   0  0  0  0  0  0  0  0  0  0  0  0
    8.8300    0.5220   29.5880 C   0  0  0  0  0  0  0  0  0  0  0  0
    7.6490    0.9540   30.2080 C   0  0  0  0  0  0  0  0  0  0  0  0
    6.5250    1.2820   29.4310 C   0  0  0  0  0  0  0  0  0  0  0  0
    6.5300    1.1920   28.0280 C   0  0  0  0  0  0  0  0  0  0  0  0
    7.7040    0.7630   27.4360 C   0  0  0  0  0  0  0  0  0  0  0  0
    7.8860    0.5910   25.7190 S   0  0  0  0  0  0  0  0  0  0  0  0
    9.8930   -0.6120   23.7160 C   0  0  0  0  0  0  0  0  0  0  0  0
   10.5310   -1.0450   22.5580 C   0  0  0  0  0  0  0  0  0  0  0  0
    9.5980   -1.2140   21.5700 N   0  0  0  0  0  0  0  0  0  0  0  0
    8.6060   -0.2380   21.2940 C   0  0  0  0  0  0  0  0  0  0  0  0
    8.8390    0.9620   21.2700 O   0  0  0  0  0  0  0  0  0  0  0  0
    7.3730   -0.7370   21.0460 N   0  0  0  0  0  0  0  0  0  0  0  0
    6.5770   -0.0710   20.1610 C   0  0  0  0  0  0  0  0  0  0  0  0
    5.4250    0.6260   20.4700 C   0  0  0  0  0  0  0  0  0  0  0  0
    4.7260    1.2750   19.4360 C   0  0  0  0  0  0  0  0  0  0  0  0
    5.1960    1.2080   18.1240 C   0  0  0  0  0  0  0  0  0  0  0  0
    6.3080    0.5370   17.7600 N   0  0  0  0  0  0  0  0  0  0  0  0
    6.9960   -0.0940   18.7300 C   0  0  0  0  0  0  0  0  0  0  0  0
  1  2  1  0
  2  3  2  0
  3  4  1  0
  4  5  2  0
  5  6  1  0
  6  7  2  0
  7  8  1  0
  8  9  2  0
  9 10  1  0
 10 11  2  0
 11 12  1  0
  8 13  1  0
 12 13  2  0
  6 14  1  0
 13 14  1  0
  5 15  1  0
  2 16  1  0
 15 16  2  0
 16 17  1  0
 17 18  1  0
 18 19  2  0
 18 20  1  0
 20 21  1  0
 21 22  2  0
 22 23  1  0
 23 24  2  0
 24 25  1  0
 21 26  1  0
 25 26  2  0
M  END
