pyridine_urea_11742
     RDKit          3D

 26 28  0  0  0  0  0  0  0  0999 V2000
    8.9460    0.7000   21.3500 O   0  0  0  0  0  0  0  0  0  0  0  0
    8.3830   -0.3750   21.5270 C   0  0  0  0  0  0  0  0  0  0  0  0
    7.1380   -0.7090   21.0650 N   0  0  0  0  0  0  0  0  0  0  0  0
    6.4760   -0.0350   20.0280 C   0  0  0  0  0  0  0  0  0  0  0  0
    5.3000    0.6730   20.3010 C   0  0  0  0  0  0  0  0  0  0  0  0
    4.6460    1.3570   19.2710 C   0  0  0  0  0  0  0  0  0  0  0  0
    5.1970    1.3040   18.0070 C   0  0  0  0  0  0  0  0  0  0  0  0
    6.3190    0.6250   17.7260 N   0  0  0  0  0  0  0  0  0  0  0  0
    6.9300   -0.0260   18.7340 C   0  0  0  0  0  0  0  0  0  0  0  0
    8.9750   -1.3890   22.2350 N   0  0  0  0  0  0  0  0  0  0  0  0
   10.2480   -1.1080   22.8680 C   0  0  0  0  0  0  0  0  0  0  0  0
   11.4890   -1.2390   21.9900 C   0  0  0  0  0  0  0  0  0  0  0  0
   12.7100   -0.9570   22.5430 C   0  0  0  0  0  0  0  0  0  0  0  0
   12.7560   -0.5840   23.8760 C   0  0  0  0  0  0  0  0  0  0  0  0
   11.6200   -0.4850   24.6790 C   0  0  0  0  0  0  0  0  0  0  0  0
   10.3530   -0.7410   24.1900 C   0  0  0  0  0  0  0  0  0  0  0  0
    9.2550   -0.6300   25.0390 C   0  0  0  0  0  0  0  0  0  0  0  0
    8.1890   -1.4200   24.7190 O   0  0  0  0  0  0  0  0  0  0  0  0
    9.2720    0.1960   26.1010 N   0  0  0  0  0  0  0  0  0  0  0  0
    8.3110    0.0430   27.0550 C   0  0  0  0  0  0  0  0  0  0  0  0
    7.7280    1.3660   27.5560 C   0  0  0  0  0  0  0  0  0  0  0  0
    7.1970    2.3010   26.6700 C   0  0  0  0  0  0  0  0  0  0  0  0
    6.6780    3.4980   27.1480 C   0  0  0  0  0  0  0  0  0  0  0  0
    6.7020    3.7340   28.5190 C   0  0  0  0  0  0  0  0  0  0  0  0
    7.2050    2.8550   29.4130 N   0  0  0  0  0  0  0  0  0  0  0  0
    7.7070    1.6920   28.9140 C   0  0  0  0  0  0  0  0  0  0  0  0
  1  2  2  0
  2  3  1  0
  3  4  1  0
  4  5  2  0
  5  6  1  0
  6  7  2  0
  7  8  1  0
  4  9  1  0
  8  9  2  0
  2 10  1  0
 10 11  1  0
 11 12  2  0
 12 13  1  0
 13 14  2  0
 14 15  1  0
 11 16  1  0
 15 16  2  0
 16 17  1  0
 17 18  2  0
 17 19  1  0
 19 20  1  0
 20 21  1  0
 21 22  2  0
 22 23  1  0
 23 24  2  0
 24 25  1  0
 21 26  1  0
 25 26  2  0
M  END
