pyridine_urea_12647
     RDKit          3D

 21 22  0  0  0  0  0  0  0  0999 V2000
   12.7560   -3.0270   24.4370 C   0  0  0  0  0  0  0  0  0  0  0  0
   13.0180   -2.4310   23.2280 N   0  0  0  0  0  0  0  0  0  0  0  0
   13.3200   -2.9720   21.9260 C   0  0  0  0  0  0  0  0  0  0  0  0
   13.5090   -1.7490   21.0830 C   0  0  0  0  0  0  0  0  0  0  0  0
   13.3200   -0.7460   21.8640 C   0  0  0  0  0  0  0  0  0  0  0  0
   13.0440   -1.1180   23.0670 C   0  0  0  0  0  0  0  0  0  0  0  0
   12.8190   -0.4090   24.0360 C   0  0  0  0  0  0  0  0  0  0  0  0
   13.2850   -0.8690   25.2160 O   0  0  0  0  0  0  0  0  0  0  0  0
   12.1260    0.6870   23.6230 N   0  0  0  0  0  0  0  0  0  0  0  0
   10.8700    0.6130   22.9660 C   0  0  0  0  0  0  0  0  0  0  0  0
   10.3810   -0.6460   22.6030 C   0  0  0  0  0  0  0  0  0  0  0  0
    9.0390   -0.7330   22.5350 N   0  0  0  0  0  0  0  0  0  0  0  0
    8.4470    0.0460   21.5930 C   0  0  0  0  0  0  0  0  0  0  0  0
    8.9680    1.3040   21.2230 O   0  0  0  0  0  0  0  0  0  0  0  0
    7.2520   -0.5800   21.0850 N   0  0  0  0  0  0  0  0  0  0  0  0
    6.5470    0.0510   20.0620 C   0  0  0  0  0  0  0  0  0  0  0  0
    5.3880    0.7780   20.3570 C   0  0  0  0  0  0  0  0  0  0  0  0
    4.7090    1.4350   19.2180 C   0  0  0  0  0  0  0  0  0  0  0  0
    5.1570    1.3570   17.9430 C   0  0  0  0  0  0  0  0  0  0  0  0
    6.2710    0.6430   17.6840 N   0  0  0  0  0  0  0  0  0  0  0  0
    6.9240    0.0210   18.7210 C   0  0  0  0  0  0  0  0  0  0  0  0
  1  2  1  0
  2  3  1  0
  3  4  2  0
  4  5  1  0
  2  6  1  0
  5  6  2  0
  6  7  1  0
  7  8  2  0
  7  9  1  0
  9 10  1  0
 10 11  1  0
 11 12  1  0
 12 13  1  0
 13 14  2  0
 13 15  1  0
 15 16  1  0
 16 17  2  0
 17 18  1  0
 18 19  2  0
 19 20  1  0
 16 21  1  0
 20 21  2  0
M  END
