pyridine_urea_5257
     RDKit          3D

 19 20  0  0  0  0  0  0  0  0999 V2000
   10.9370   -3.0970   23.7150 C   0  0  0  0  0  0  0  0  0  0  0  0
   12.1370   -2.2290   23.7050 C   0  0  0  0  0  0  0  0  0  0  0  0
   13.2910   -2.7560   24.2830 C   0  0  0  0  0  0  0  0  0  0  0  0
   12.5230   -1.7630   22.2430 C   0  0  0  0  0  0  0  0  0  0  0  0
   12.9850   -0.4700   22.3870 C   0  0  0  0  0  0  0  0  0  0  0  0
   12.8290   -0.1650   23.8010 C   0  0  0  0  0  0  0  0  0  0  0  0
   11.8100   -0.9800   24.1730 C   0  0  1  0  0  0  0  0  0  0  0  0
   10.4370   -0.4730   23.8150 C   0  0  0  0  0  0  0  0  0  0  0  0
    9.9320   -1.0030   22.6620 C   0  0  0  0  0  0  0  0  0  0  0  0
    8.5820   -0.5890   22.5120 N   0  0  0  0  0  0  0  0  0  0  0  0
    8.1760    0.1960   21.4950 C   0  0  0  0  0  0  0  0  0  0  0  0
    8.7460    1.2410   21.1490 O   0  0  0  0  0  0  0  0  0  0  0  0
    7.0570   -0.3620   20.9510 N   0  0  0  0  0  0  0  0  0  0  0  0
    6.3900    0.2340   19.9140 C   0  0  0  0  0  0  0  0  0  0  0  0
    5.2390    0.9730   20.1860 C   0  0  0  0  0  0  0  0  0  0  0  0
    4.5850    1.5960   19.1210 C   0  0  0  0  0  0  0  0  0  0  0  0
    5.1360    1.4270   17.8650 C   0  0  0  0  0  0  0  0  0  0  0  0
    6.2280    0.7140   17.5690 N   0  0  0  0  0  0  0  0  0  0  0  0
    6.8160    0.1440   18.6180 C   0  0  0  0  0  0  0  0  0  0  0  0
  2  1  1  0
  2  3  1  0
  2  4  1  0
  4  5  1  0
  5  6  1  0
  2  7  1  0
  6  7  1  0
  7  8  1  6
  8  9  1  0
  9 10  1  0
 10 11  1  0
 11 12  2  0
 11 13  1  0
 13 14  1  0
 14 15  2  0
 15 16  1  0
 16 17  2  0
 17 18  1  0
 14 19  1  0
 18 19  2  0
M  END
