pyridine_urea_14229
     RDKit          3D

 22 23  0  0  0  0  0  0  0  0999 V2000
    8.7030   -2.1530   24.2230 C   0  0  0  0  0  0  0  0  0  0  0  0
    9.6850   -3.4620   23.4680 S   0  0  0  0  0  0  0  0  0  0  0  0
   10.6690   -3.8920   24.4340 O   0  0  0  0  0  0  0  0  0  0  0  0
    8.7440   -4.3980   22.8860 O   0  0  0  0  0  0  0  0  0  0  0  0
   10.5110   -2.6610   22.1860 N   0  0  0  0  0  0  0  0  0  0  0  0
   10.9840   -1.3900   22.4750 C   0  0  0  0  0  0  0  0  0  0  0  0
   12.3410   -1.0760   22.5710 C   0  0  0  0  0  0  0  0  0  0  0  0
   12.6880    0.2430   22.8670 C   0  0  0  0  0  0  0  0  0  0  0  0
   13.9450    0.5500   22.9270 F   0  0  0  0  0  0  0  0  0  0  0  0
   11.8570    1.3220   23.1010 C   0  0  0  0  0  0  0  0  0  0  0  0
   10.4210    1.0310   22.9980 C   0  0  0  0  0  0  0  0  0  0  0  0
   10.0570   -0.3700   22.6720 C   0  0  0  0  0  0  0  0  0  0  0  0
    8.6640   -0.5920   22.5580 N   0  0  0  0  0  0  0  0  0  0  0  0
    8.1660    0.1370   21.5220 C   0  0  0  0  0  0  0  0  0  0  0  0
    8.7020    1.1910   21.1430 O   0  0  0  0  0  0  0  0  0  0  0  0
    7.0470   -0.4440   21.0110 N   0  0  0  0  0  0  0  0  0  0  0  0
    6.3970    0.1510   19.9550 C   0  0  0  0  0  0  0  0  0  0  0  0
    5.2180    0.8550   20.1920 C   0  0  0  0  0  0  0  0  0  0  0  0
    4.5760    1.4760   19.1310 C   0  0  0  0  0  0  0  0  0  0  0  0
    5.1390    1.3660   17.8790 C   0  0  0  0  0  0  0  0  0  0  0  0
    6.2630    0.6820   17.6340 N   0  0  0  0  0  0  0  0  0  0  0  0
    6.8640    0.0930   18.6720 C   0  0  0  0  0  0  0  0  0  0  0  0
  1  2  1  0
  2  3  2  0
  2  4  2  0
  2  5  1  0
  5  6  1  0
  6  7  2  0
  7  8  1  0
  8  9  1  0
  8 10  2  0
 10 11  1  0
  6 12  1  0
 11 12  2  0
 12 13  1  0
 13 14  1  0
 14 15  2  0
 14 16  1  0
 16 17  1  0
 17 18  2  0
 18 19  1  0
 19 20  2  0
 20 21  1  0
 17 22  1  0
 21 22  2  0
M  END
