pyridine_urea_8647
     RDKit          3D

 21 22  0  0  0  0  0  0  0  0999 V2000
   12.9890   -2.2350   21.4660 C   0  0  0  0  0  0  0  0  0  0  0  0
   11.5860   -2.0480   21.5000 O   0  0  0  0  0  0  0  0  0  0  0  0
   11.0230   -1.6030   22.6600 C   0  0  0  0  0  0  0  0  0  0  0  0
   11.0540   -2.3150   23.6640 O   0  0  0  0  0  0  0  0  0  0  0  0
   10.4060   -0.3510   22.7070 C   0  0  2  0  0  0  0  0  0  0  0  0
   10.5770    0.3810   23.8860 C   0  0  0  0  0  0  0  0  0  0  0  0
   11.4200   -0.3020   24.7260 C   0  0  0  0  0  0  0  0  0  0  0  0
   12.5510   -0.2470   23.8710 C   0  0  0  0  0  0  0  0  0  0  0  0
   12.9100    0.1950   22.7390 C   0  0  0  0  0  0  0  0  0  0  0  0
   13.5860   -0.4550   23.5990 O   0  0  0  0  0  0  0  0  0  0  0  0
   12.7440   -0.7980   24.8560 C   0  0  0  0  0  0  0  0  0  0  0  0
    8.9820   -0.5930   22.5490 N   0  0  0  0  0  0  0  0  0  0  0  0
    8.3810    0.1540   21.5650 C   0  0  0  0  0  0  0  0  0  0  0  0
    8.8860    1.3830   21.1790 O   0  0  0  0  0  0  0  0  0  0  0  0
    7.2570   -0.4590   21.0640 N   0  0  0  0  0  0  0  0  0  0  0  0
    6.5330    0.1190   20.0190 C   0  0  0  0  0  0  0  0  0  0  0  0
    5.3680    0.8320   20.3130 C   0  0  0  0  0  0  0  0  0  0  0  0
    4.6600    1.4290   19.2690 C   0  0  0  0  0  0  0  0  0  0  0  0
    5.1340    1.2940   17.9760 C   0  0  0  0  0  0  0  0  0  0  0  0
    6.2410    0.6060   17.6790 N   0  0  0  0  0  0  0  0  0  0  0  0
    6.9160    0.0330   18.6960 C   0  0  0  0  0  0  0  0  0  0  0  0
  1  2  1  0
  2  3  1  0
  3  4  2  0
  3  5  1  0
  5  6  1  1
  6  7  1  0
  7  8  1  0
  8  9  2  0
  9 10  1  0
  7 11  2  0
 10 11  1  0
  5 12  1  0
 12 13  1  0
 13 14  2  0
 13 15  1  0
 15 16  1  0
 16 17  2  0
 17 18  1  0
 18 19  2  0
 19 20  1  0
 16 21  1  0
 20 21  2  0
M  END
