pyridine_urea_10385
     RDKit          3D

 22 24  0  0  0  0  0  0  0  0999 V2000
   10.5250   -0.6330   21.8500 C   0  0  0  0  0  0  0  0  0  0  0  0
    9.6910    0.5910   22.2460 C   0  0  1  0  0  0  0  0  0  0  0  0
    8.3550    0.4670   21.7560 N   0  0  0  0  0  0  0  0  0  0  0  0
    8.0170   -0.7570   21.3040 C   0  0  0  0  0  0  0  0  0  0  0  0
    8.8140   -1.6380   21.2070 O   0  0  0  0  0  0  0  0  0  0  0  0
    6.7070   -0.8070   20.9900 N   0  0  0  0  0  0  0  0  0  0  0  0
    6.2170   -0.0650   19.9320 C   0  0  0  0  0  0  0  0  0  0  0  0
    4.9790    0.7430   20.0960 C   0  0  0  0  0  0  0  0  0  0  0  0
    4.4810    1.5000   19.0560 C   0  0  0  0  0  0  0  0  0  0  0  0
    5.1210    1.5350   17.8110 C   0  0  0  0  0  0  0  0  0  0  0  0
    6.3200    0.7320   17.6810 N   0  0  0  0  0  0  0  0  0  0  0  0
    6.8100   -0.0130   18.7070 C   0  0  0  0  0  0  0  0  0  0  0  0
    9.7280    0.3710   23.6790 C   0  0  0  0  0  0  0  0  0  0  0  0
    8.7190    0.5770   24.5470 C   0  0  0  0  0  0  0  0  0  0  0  0
    8.8830    0.2770   25.8910 C   0  0  0  0  0  0  0  0  0  0  0  0
   10.1140   -0.2610   26.4170 C   0  0  0  0  0  0  0  0  0  0  0  0
   11.2650   -0.4790   25.3380 C   0  0  0  0  0  0  0  0  0  0  0  0
   12.6510   -0.9620   25.2380 C   0  0  0  0  0  0  0  0  0  0  0  0
   13.4600   -1.0280   24.0430 N   0  0  0  0  0  0  0  0  0  0  0  0
   12.9310   -0.5750   22.7360 C   0  0  0  0  0  0  0  0  0  0  0  0
   12.1930   -0.5150   23.7930 C   0  0  0  0  0  0  0  0  0  0  0  0
   11.0000   -0.1670   24.1820 C   0  0  0  0  0  0  0  0  0  0  0  0
  2  1  1  6
  2  3  1  0
  3  4  1  0
  4  5  2  0
  4  6  1  0
  6  7  1  0
  7  8  2  0
  8  9  1  0
  9 10  2  0
 10 11  1  0
  7 12  1  0
 11 12  2  0
  2 13  1  0
 13 14  2  0
 14 15  1  0
 15 16  2  0
 16 17  1  0
 17 18  1  0
 18 19  2  0
 19 20  1  0
 20 21  2  0
 13 22  1  0
 17 22  2  0
 21 22  1  0
M  END
