pyridine_urea_8039
     RDKit          3D

 24 26  0  0  0  0  0  0  0  0999 V2000
   13.3680    4.9430   22.4330 C   0  0  0  0  0  0  0  0  0  0  0  0
   12.0260    4.3990   22.9090 C   0  0  0  0  0  0  0  0  0  0  0  0
   11.0690    5.5050   23.1500 N   0  0  0  0  0  0  0  0  0  0  0  0
    9.7390    5.0790   23.6160 C   0  0  0  0  0  0  0  0  0  0  0  0
    9.4350    3.7540   23.8090 C   0  0  0  0  0  0  0  0  0  0  0  0
   10.4750    2.6790   23.5430 C   0  0  0  0  0  0  0  0  0  0  0  0
   11.7610    3.0130   23.0930 C   0  0  0  0  0  0  0  0  0  0  0  0
   12.6360    2.1570   22.8630 O   0  0  0  0  0  0  0  0  0  0  0  0
   12.4800    1.1060   23.7390 C   0  0  0  0  0  0  0  0  0  0  0  0
   11.9680   -0.1760   24.4850 C   0  0  0  0  0  0  0  0  0  0  0  0
   10.7560   -1.0500   24.1220 C   0  0  0  0  0  0  0  0  0  0  0  0
   10.0260   -0.6040   22.9290 C   0  0  0  0  0  0  0  0  0  0  0  0
    8.8870   -1.2030   22.3810 N   0  0  0  0  0  0  0  0  0  0  0  0
    8.1110   -0.4370   21.4830 C   0  0  0  0  0  0  0  0  0  0  0  0
    8.3960    0.6700   21.0490 O   0  0  0  0  0  0  0  0  0  0  0  0
    6.9490   -0.9680   21.0770 N   0  0  0  0  0  0  0  0  0  0  0  0
    6.4060   -0.2480   20.0620 C   0  0  0  0  0  0  0  0  0  0  0  0
    5.2340    0.4780   20.2570 C   0  0  0  0  0  0  0  0  0  0  0  0
    4.6120    1.2550   19.2730 C   0  0  0  0  0  0  0  0  0  0  0  0
    5.2030    1.3110   18.0120 C   0  0  0  0  0  0  0  0  0  0  0  0
    6.3330    0.6440   17.7190 N   0  0  0  0  0  0  0  0  0  0  0  0
    6.9400   -0.1600   18.7930 C   0  0  0  0  0  0  0  0  0  0  0  0
   10.5380    0.4700   22.3820 C   0  0  0  0  0  0  0  0  0  0  0  0
   11.5720    1.1750   22.7450 N   0  0  0  0  0  0  0  0  0  0  0  0
  1  2  1  0
  2  3  2  0
  3  4  1  0
  4  5  2  0
  5  6  1  0
  2  7  1  0
  6  7  2  0
  7  8  1  0
  8  9  1  0
  9 10  2  0
 10 11  1  0
 11 12  2  0
 12 13  1  0
 13 14  1  0
 14 15  2  0
 14 16  1  0
 16 17  1  0
 17 18  2  0
 18 19  1  0
 19 20  2  0
 20 21  1  0
 17 22  1  0
 21 22  2  0
 12 23  1  0
  9 24  1  0
 23 24  2  0
M  END
