pyridine_urea_9869
     RDKit          3D

 25 27  0  0  0  0  0  0  0  0999 V2000
   14.0470   -2.7990   25.8250 C   0  0  0  0  0  0  0  0  0  0  0  0
   13.1150   -2.4690   24.6880 C   0  0  0  0  0  0  0  0  0  0  0  0
   13.6240   -2.8110   23.3240 C   0  0  0  0  0  0  0  0  0  0  0  0
   12.7330   -2.4570   22.1780 C   0  0  0  0  0  0  0  0  0  0  0  0
   11.4510   -1.8100   22.6210 C   0  0  0  0  0  0  0  0  0  0  0  0
   10.6540   -1.4130   21.9140 O   0  0  0  0  0  0  0  0  0  0  0  0
   11.0050   -0.1140   22.3490 C   0  0  0  0  0  0  0  0  0  0  0  0
   12.5140   -0.0260   22.5300 C   0  0  0  0  0  0  0  0  0  0  0  0
   12.8900    1.2130   22.9190 C   0  0  0  0  0  0  0  0  0  0  0  0
   12.0740    2.2870   23.1410 C   0  0  0  0  0  0  0  0  0  0  0  0
   10.7330    2.1750   22.9910 C   0  0  0  0  0  0  0  0  0  0  0  0
   10.1760    0.9820   22.6060 C   0  0  0  0  0  0  0  0  0  0  0  0
    8.8140    1.0250   22.5180 C   0  0  0  0  0  0  0  0  0  0  0  0
    8.3110   -0.3010   22.7090 N   0  0  0  0  0  0  0  0  0  0  0  0
    8.0120   -0.8580   21.5360 C   0  0  0  0  0  0  0  0  0  0  0  0
    8.9780   -1.3720   20.8130 O   0  0  0  0  0  0  0  0  0  0  0  0
    6.6920   -0.7730   21.2020 N   0  0  0  0  0  0  0  0  0  0  0  0
    6.2320   -0.0750   20.0820 C   0  0  0  0  0  0  0  0  0  0  0  0
    4.9980    0.7350   20.1880 C   0  0  0  0  0  0  0  0  0  0  0  0
    4.5400    1.4320   19.0960 C   0  0  0  0  0  0  0  0  0  0  0  0
    5.2230    1.3770   17.9110 C   0  0  0  0  0  0  0  0  0  0  0  0
    6.3550    0.6490   17.7550 N   0  0  0  0  0  0  0  0  0  0  0  0
    6.8330   -0.0560   18.8270 C   0  0  0  0  0  0  0  0  0  0  0  0
   11.0690   -1.5600   23.8940 C   0  0  0  0  0  0  0  0  0  0  0  0
   11.8910   -1.8840   24.8830 C   0  0  0  0  0  0  0  0  0  0  0  0
  1  2  1  0
  2  3  2  0
  3  4  1  0
  4  5  2  0
  5  6  1  0
  6  7  1  0
  7  8  2  0
  8  9  1  0
  9 10  2  0
 10 11  1  0
  7 12  1  0
 11 12  2  0
 12 13  1  0
 13 14  1  0
 14 15  1  0
 15 16  2  0
 15 17  1  0
 17 18  1  0
 18 19  2  0
 19 20  1  0
 20 21  2  0
 21 22  1  0
 18 23  1  0
 22 23  2  0
  5 24  1  0
  2 25  1  0
 24 25  2  0
M  END
