pyridine_urea_4854
     RDKit          3D

 21 23  0  0  0  0  0  0  0  0999 V2000
    3.6870   -4.1720   23.4430 C   0  0  0  0  0  0  0  0  0  0  0  0
    5.1970   -3.9320   23.5230 C   0  0  0  0  0  0  0  0  0  0  0  0
    6.0330   -5.2100   23.5000 C   0  0  0  0  0  0  0  0  0  0  0  0
    7.3930   -5.1050   23.5560 C   0  0  0  0  0  0  0  0  0  0  0  0
    7.9750   -3.8440   23.6340 C   0  0  0  0  0  0  0  0  0  0  0  0
    9.3860   -3.5760   23.7020 N   0  0  0  0  0  0  0  0  0  0  0  0
    9.5210   -2.2450   23.7630 N   0  0  0  0  0  0  0  0  0  0  0  0
    8.1980   -1.7290   23.7350 C   0  0  0  0  0  0  0  0  0  0  0  0
    7.8580   -0.3930   23.7800 C   0  0  0  0  0  0  0  0  0  0  0  0
    7.3650    0.1100   22.6560 N   0  0  0  0  0  0  0  0  0  0  0  0
    8.0230   -0.1100   21.5160 C   0  0  0  0  0  0  0  0  0  0  0  0
    9.1190    0.3810   21.2790 O   0  0  0  0  0  0  0  0  0  0  0  0
    7.2890   -0.8900   20.7670 N   0  0  0  0  0  0  0  0  0  0  0  0
    6.5120   -0.1140   19.9270 C   0  0  0  0  0  0  0  0  0  0  0  0
    5.3030    0.4850   20.3130 C   0  0  0  0  0  0  0  0  0  0  0  0
    4.5980    1.2590   19.3690 C   0  0  0  0  0  0  0  0  0  0  0  0
    5.1980    1.3890   18.0070 C   0  0  0  0  0  0  0  0  0  0  0  0
    6.3500    0.8060   17.6660 N   0  0  0  0  0  0  0  0  0  0  0  0
    6.9700    0.0660   18.6450 C   0  0  0  0  0  0  0  0  0  0  0  0
    7.2340   -2.6910   23.6570 N   0  0  0  0  0  0  0  0  0  0  0  0
    5.8670   -2.6980   23.6050 C   0  0  0  0  0  0  0  0  0  0  0  0
  1  2  1  0
  2  3  1  0
  3  4  2  0
  4  5  1  0
  5  6  2  0
  6  7  1  0
  7  8  2  0
  8  9  1  0
  9 10  1  0
 10 11  1  0
 11 12  2  0
 11 13  1  0
 13 14  1  0
 14 15  2  0
 15 16  1  0
 16 17  2  0
 17 18  1  0
 14 19  1  0
 18 19  2  0
  5 20  1  0
  8 20  1  0
  2 21  2  0
 20 21  1  0
M  END
