pyridine_urea_1483
     RDKit          3D

 19 19  0  0  0  0  0  0  0  0999 V2000
   13.2030   -1.9050   21.2070 C   0  0  0  0  0  0  0  0  0  0  0  0
   13.1700   -0.9860   22.4490 C   0  0  0  0  0  0  0  0  0  0  0  0
   11.7070   -0.6970   22.7730 C   0  0  0  0  0  0  0  0  0  0  0  0
   10.9150   -1.7560   22.1860 N   0  0  0  0  0  0  0  0  0  0  0  0
    9.9740   -2.3430   22.9710 C   0  0  0  0  0  0  0  0  0  0  0  0
   10.1260   -3.1520   23.8650 O   0  0  0  0  0  0  0  0  0  0  0  0
    8.6870   -1.9110   22.7410 C   0  0  1  0  0  0  0  0  0  0  0  0
    7.7620   -2.3870   23.6740 C   0  0  0  0  0  0  0  0  0  0  0  0
    7.7070   -3.7760   23.7780 C   0  0  0  0  0  0  0  0  0  0  0  0
    8.6020   -0.5380   22.7880 N   0  0  0  0  0  0  0  0  0  0  0  0
    8.1790    0.0490   21.6220 C   0  0  0  0  0  0  0  0  0  0  0  0
    8.7710    1.2610   21.0960 O   0  0  0  0  0  0  0  0  0  0  0  0
    7.1480   -0.6050   21.0360 N   0  0  0  0  0  0  0  0  0  0  0  0
    6.5030    0.0420   20.0450 C   0  0  0  0  0  0  0  0  0  0  0  0
    5.3390    0.7640   20.3540 C   0  0  0  0  0  0  0  0  0  0  0  0
    4.6830    1.4390   19.3190 C   0  0  0  0  0  0  0  0  0  0  0  0
    5.2340    1.3740   17.9390 C   0  0  0  0  0  0  0  0  0  0  0  0
    6.3410    0.6690   17.6890 N   0  0  0  0  0  0  0  0  0  0  0  0
    6.9320    0.0340   18.7280 C   0  0  0  0  0  0  0  0  0  0  0  0
  1  2  1  0
  2  3  1  0
  3  4  1  0
  4  5  1  0
  5  6  2  0
  5  7  1  0
  7  8  1  1
  8  9  1  0
  7 10  1  0
 10 11  1  0
 11 12  2  0
 11 13  1  0
 13 14  1  0
 14 15  2  0
 15 16  1  0
 16 17  2  0
 17 18  1  0
 14 19  1  0
 18 19  2  0
M  END
