pyridine_urea_13571
     RDKit          3D

 30 32  0  0  0  0  0  0  0  0999 V2000
   11.9500   -2.4000   21.8480 C   0  0  0  0  0  0  0  0  0  0  0  0
   11.6610   -0.9870   22.2940 C   0  0  0  0  0  0  0  0  0  0  0  0
   12.9220   -0.2020   22.5660 C   0  0  0  0  0  0  0  0  0  0  0  0
   12.7470    1.2260   22.9820 C   0  0  0  0  0  0  0  0  0  0  0  0
   11.4040    1.8430   23.1320 C   0  0  0  0  0  0  0  0  0  0  0  0
   11.1860    3.1590   23.4900 C   0  0  0  0  0  0  0  0  0  0  0  0
   10.2040    3.3640   24.1840 O   0  0  0  0  0  0  0  0  0  0  0  0
   12.1320    3.9750   22.9580 N   0  0  0  0  0  0  0  0  0  0  0  0
   12.1340    5.2420   23.4870 C   0  0  0  0  0  0  0  0  0  0  0  0
   12.6890    6.4100   23.0290 C   0  0  0  0  0  0  0  0  0  0  0  0
   12.5960    7.5940   23.6980 C   0  0  0  0  0  0  0  0  0  0  0  0
   11.9390    7.7590   24.8990 C   0  0  0  0  0  0  0  0  0  0  0  0
   11.2650    6.7440   25.6210 C   0  0  0  0  0  0  0  0  0  0  0  0
   10.5740    6.8670   26.8570 C   0  0  0  0  0  0  0  0  0  0  0  0
    9.5000    6.0470   26.8960 F   0  0  0  0  0  0  0  0  0  0  0  0
   11.3880    6.5430   27.8880 F   0  0  0  0  0  0  0  0  0  0  0  0
   10.1350    8.1290   27.0570 F   0  0  0  0  0  0  0  0  0  0  0  0
   11.3920    5.3860   24.8240 C   0  0  0  0  0  0  0  0  0  0  0  0
   10.2710    1.0660   22.8870 C   0  0  0  0  0  0  0  0  0  0  0  0
   10.2990   -0.2690   22.4840 C   0  0  0  0  0  0  0  0  0  0  0  0
    9.1090   -0.8850   22.2460 N   0  0  0  0  0  0  0  0  0  0  0  0
    8.2450   -0.2070   21.4360 C   0  0  0  0  0  0  0  0  0  0  0  0
    8.4450    0.9460   21.0560 O   0  0  0  0  0  0  0  0  0  0  0  0
    7.1380   -0.8660   21.0620 N   0  0  0  0  0  0  0  0  0  0  0  0
    6.4930   -0.1850   20.0800 C   0  0  0  0  0  0  0  0  0  0  0  0
    5.1930    0.5610   20.4010 C   0  0  0  0  0  0  0  0  0  0  0  0
    4.5640    1.3070   19.2260 C   0  0  0  0  0  0  0  0  0  0  0  0
    5.2000    1.2530   17.9980 C   0  0  0  0  0  0  0  0  0  0  0  0
    6.3420    0.5750   17.7700 N   0  0  0  0  0  0  0  0  0  0  0  0
    6.9450   -0.1080   18.7760 C   0  0  0  0  0  0  0  0  0  0  0  0
  1  2  1  0
  2  3  2  0
  3  4  1  0
  4  5  2  0
  5  6  1  0
  6  7  2  0
  6  8  1  0
  8  9  1  0
  9 10  2  0
 10 11  1  0
 11 12  2  0
 12 13  1  0
 13 14  1  0
 14 15  1  0
 14 16  1  0
 14 17  1  0
  9 18  1  0
 13 18  2  0
  5 19  1  0
  2 20  1  0
 19 20  2  0
 20 21  1  0
 21 22  1  0
 22 23  2  0
 22 24  1  0
 24 25  1  0
 25 26  2  0
 26 27  1  0
 27 28  2  0
 28 29  1  0
 25 30  1  0
 29 30  2  0
M  END
