pyridine_urea_10856
     RDKit          3D

 20 20  0  0  0  0  0  0  0  0999 V2000
   13.3200   -2.0140   24.9100 C   0  0  0  0  0  0  0  0  0  0  0  0
   12.6490   -1.9250   23.5770 C   0  0  0  0  0  0  0  0  0  0  0  0
   13.2140   -2.4840   22.4640 C   0  0  0  0  0  0  0  0  0  0  0  0
   11.2950   -2.6080   23.7850 C   0  0  0  0  0  0  0  0  0  0  0  0
   12.3310   -0.2890   22.9610 S   0  0  0  0  0  0  0  0  0  0  0  0
   11.2640   -0.3940   22.0200 O   0  0  0  0  0  0  0  0  0  0  0  0
   13.5800    0.3660   22.6880 O   0  0  0  0  0  0  0  0  0  0  0  0
   11.6350    0.3630   24.4210 C   0  0  0  0  0  0  0  0  0  0  0  0
   10.1420    0.2750   24.5930 C   0  0  0  0  0  0  0  0  0  0  0  0
    9.6080   -0.7300   23.5760 C   0  0  0  0  0  0  0  0  0  0  0  0
    8.4260   -0.4690   22.8810 N   0  0  0  0  0  0  0  0  0  0  0  0
    8.2610    0.1610   21.6640 C   0  0  0  0  0  0  0  0  0  0  0  0
    8.8680    1.1430   21.2010 O   0  0  0  0  0  0  0  0  0  0  0  0
    7.1970   -0.4860   20.9330 N   0  0  0  0  0  0  0  0  0  0  0  0
    6.4890    0.1290   19.9700 C   0  0  0  0  0  0  0  0  0  0  0  0
    5.3420    0.8660   20.2030 C   0  0  0  0  0  0  0  0  0  0  0  0
    4.6320    1.5100   19.2050 C   0  0  0  0  0  0  0  0  0  0  0  0
    5.1340    1.3860   17.9250 C   0  0  0  0  0  0  0  0  0  0  0  0
    6.2380    0.6750   17.6260 N   0  0  0  0  0  0  0  0  0  0  0  0
    6.9050    0.0490   18.6760 C   0  0  0  0  0  0  0  0  0  0  0  0
  2  1  1  0
  2  3  1  0
  2  4  1  0
  2  5  1  0
  5  6  2  0
  5  7  2  0
  5  8  1  0
  8  9  1  0
  9 10  1  0
 10 11  1  0
 11 12  1  0
 12 13  2  0
 12 14  1  0
 14 15  1  0
 15 16  2  0
 16 17  1  0
 17 18  2  0
 18 19  1  0
 15 20  1  0
 19 20  2  0
M  END
