pyridine_urea_10928
     RDKit          3D

 19 20  0  0  0  0  0  0  0  0999 V2000
   13.4640   -2.9430   24.9550 C   0  0  0  0  0  0  0  0  0  0  0  0
   13.3150   -1.5170   24.5830 C   0  0  0  0  0  0  0  0  0  0  0  0
   12.1400   -1.1200   24.0810 C   0  0  0  0  0  0  0  0  0  0  0  0
   11.3400   -0.4770   24.9760 C   0  0  0  0  0  0  0  0  0  0  0  0
   10.1160   -0.0570   24.5780 C   0  0  0  0  0  0  0  0  0  0  0  0
    9.6540   -0.2820   23.2190 C   0  0  0  0  0  0  0  0  0  0  0  0
    8.3920    0.1130   22.7490 N   0  0  0  0  0  0  0  0  0  0  0  0
    8.1130    0.4290   21.5000 C   0  0  0  0  0  0  0  0  0  0  0  0
    8.6940    1.3700   20.9600 O   0  0  0  0  0  0  0  0  0  0  0  0
    7.1020   -0.4230   20.9300 N   0  0  0  0  0  0  0  0  0  0  0  0
    6.4470    0.1660   19.9130 C   0  0  0  0  0  0  0  0  0  0  0  0
    5.2820    0.8630   20.1730 C   0  0  0  0  0  0  0  0  0  0  0  0
    4.6060    1.4970   19.1410 C   0  0  0  0  0  0  0  0  0  0  0  0
    5.1400    1.4010   17.8670 C   0  0  0  0  0  0  0  0  0  0  0  0
    6.2610    0.7180   17.5990 N   0  0  0  0  0  0  0  0  0  0  0  0
    6.8840    0.1210   18.6250 C   0  0  0  0  0  0  0  0  0  0  0  0
   10.5670   -0.9810   22.2660 C   0  0  0  0  0  0  0  0  0  0  0  0
   11.7800   -1.3700   22.7590 C   0  0  0  0  0  0  0  0  0  0  0  0
   12.9270   -2.3550   21.3550 I   0  0  0  0  0  0  0  0  0  0  0  0
  1  2  1  0
  2  3  1  0
  3  4  2  0
  4  5  1  0
  5  6  2  0
  6  7  1  0
  7  8  1  0
  8  9  2  0
  8 10  1  0
 10 11  1  0
 11 12  2  0
 12 13  1  0
 13 14  2  0
 14 15  1  0
 11 16  1  0
 15 16  2  0
  6 17  1  0
  3 18  1  0
 17 18  2  0
 18 19  1  0
M  END
