pyridine_urea_4558
     RDKit          3D

 23 24  0  0  0  0  0  0  0  0999 V2000
   13.2320   -2.1370   21.2100 C   0  0  0  0  0  0  0  0  0  0  0  0
   12.3980   -1.2660   22.1080 C   0  0  0  0  0  0  0  0  0  0  0  0
   12.9070   -0.2980   23.1760 C   0  0  0  0  0  0  0  0  0  0  0  0
   11.9770    0.5170   24.0210 C   0  0  0  0  0  0  0  0  0  0  0  0
   10.5040    0.3720   23.8000 C   0  0  0  0  0  0  0  0  0  0  0  0
    9.7680    1.0370   24.5130 O   0  0  0  0  0  0  0  0  0  0  0  0
    9.1400    0.1590   25.4600 C   0  0  0  0  0  0  0  0  0  0  0  0
    7.6790    0.6040   25.6050 C   0  0  0  0  0  0  0  0  0  0  0  0
    7.3530    1.8820   25.3660 F   0  0  0  0  0  0  0  0  0  0  0  0
    6.8580   -0.1010   24.7620 F   0  0  0  0  0  0  0  0  0  0  0  0
    7.2360    0.3210   26.8650 F   0  0  0  0  0  0  0  0  0  0  0  0
   10.0240   -0.4570   22.8530 C   0  0  0  0  0  0  0  0  0  0  0  0
    8.6460   -0.5780   22.5980 N   0  0  0  0  0  0  0  0  0  0  0  0
    8.1180    0.0360   21.5150 C   0  0  0  0  0  0  0  0  0  0  0  0
    8.6760    1.0900   21.1440 O   0  0  0  0  0  0  0  0  0  0  0  0
    7.0420   -0.5550   20.9490 N   0  0  0  0  0  0  0  0  0  0  0  0
    6.3050    0.1140   19.9860 C   0  0  0  0  0  0  0  0  0  0  0  0
    5.0980    0.7740   20.2080 C   0  0  0  0  0  0  0  0  0  0  0  0
    4.4860    1.4260   19.1450 C   0  0  0  0  0  0  0  0  0  0  0  0
    5.1720    1.3720   17.8360 C   0  0  0  0  0  0  0  0  0  0  0  0
    6.3240    0.7250   17.6470 N   0  0  0  0  0  0  0  0  0  0  0  0
    6.8490    0.1200   18.7170 C   0  0  0  0  0  0  0  0  0  0  0  0
   10.8700   -1.2140   22.0750 C   0  0  0  0  0  0  0  0  0  0  0  0
  1  2  1  0
  2  3  2  0
  3  4  1  0
  4  5  2  0
  5  6  1  0
  6  7  1  0
  7  8  1  0
  8  9  1  0
  8 10  1  0
  8 11  1  0
  5 12  1  0
 12 13  1  0
 13 14  1  0
 14 15  2  0
 14 16  1  0
 16 17  1  0
 17 18  2  0
 18 19  1  0
 19 20  2  0
 20 21  1  0
 17 22  1  0
 21 22  2  0
  2 23  1  0
 12 23  2  0
M  END
