pyridine_urea_7152
     RDKit          3D

 19 20  0  0  0  0  0  0  0  0999 V2000
   13.0150   -2.2410   20.9640 C   0  0  0  0  0  0  0  0  0  0  0  0
   11.7650   -1.8040   21.6710 C   0  0  0  0  0  0  0  0  0  0  0  0
   10.5170   -2.4030   21.7910 C   0  0  0  0  0  0  0  0  0  0  0  0
    9.7040   -1.5500   22.4410 C   0  0  0  0  0  0  0  0  0  0  0  0
    9.7180   -0.3800   21.9810 C   0  0  0  0  0  0  0  0  0  0  0  0
    8.8480   -0.4890   21.0170 N   0  0  0  0  0  0  0  0  0  0  0  0
    8.0070    0.6430   21.0900 C   0  0  0  0  0  0  0  0  0  0  0  0
    8.4460    1.7880   21.1290 O   0  0  0  0  0  0  0  0  0  0  0  0
    6.7380    0.2110   21.0690 N   0  0  0  0  0  0  0  0  0  0  0  0
    6.0920    0.6500   20.0160 C   0  0  0  0  0  0  0  0  0  0  0  0
    4.8920    1.3190   20.0380 C   0  0  0  0  0  0  0  0  0  0  0  0
    4.3740    1.7620   18.8400 C   0  0  0  0  0  0  0  0  0  0  0  0
    5.0680    1.5190   17.6660 C   0  0  0  0  0  0  0  0  0  0  0  0
    6.2200    0.8580   17.5750 N   0  0  0  0  0  0  0  0  0  0  0  0
    6.7280    0.4170   18.8200 C   0  0  0  0  0  0  0  0  0  0  0  0
    8.3540   -1.5550   22.8970 C   0  0  0  0  0  0  0  0  0  0  0  0
    8.3370   -0.7500   24.0500 C   0  0  0  0  0  0  0  0  0  0  0  0
    9.3950   -1.2690   24.6620 C   0  0  0  0  0  0  0  0  0  0  0  0
   10.1210   -1.6940   23.5890 C   0  0  0  0  0  0  0  0  0  0  0  0
  1  2  2  3
  2  3  1  0
  4  3  1  0
  4  5  1  0
  5  6  1  0
  6  7  1  0
  7  8  2  0
  7  9  1  0
  9 10  1  0
 10 11  2  0
 11 12  1  0
 12 13  2  0
 13 14  1  0
 10 15  1  0
 14 15  2  0
  4 16  1  0
 16 17  1  0
 17 18  1  0
  4 19  1  0
 18 19  1  0
M  END
