pyridine_urea_4387
     RDKit          3D

 23 24  0  0  0  0  0  0  0  0999 V2000
    9.3870    2.5380   22.7320 C   0  0  0  0  0  0  0  0  0  0  0  0
   10.4700    1.4530   22.7850 C   0  0  0  0  0  0  0  0  0  0  0  0
   11.9000    1.9500   22.9070 C   0  0  0  0  0  0  0  0  0  0  0  0
   12.9960    0.9670   22.9630 C   0  0  0  0  0  0  0  0  0  0  0  0
   12.6270   -0.4600   22.9060 C   0  0  0  0  0  0  0  0  0  0  0  0
   13.6190   -1.4640   22.9790 N   0  0  0  0  0  0  0  0  0  0  0  0
   13.1410   -2.5330   23.6500 C   0  0  0  0  0  0  0  0  0  0  0  0
   13.7140   -3.1250   24.5450 O   0  0  0  0  0  0  0  0  0  0  0  0
   11.9080   -2.7320   23.1180 N   0  0  0  0  0  0  0  0  0  0  0  0
   11.6190   -2.3370   21.7820 C   0  0  0  0  0  0  0  0  0  0  0  0
   10.8150   -2.8960   23.9770 C   0  0  0  0  0  0  0  0  0  0  0  0
   11.1610   -0.8620   22.7740 C   0  0  0  0  0  0  0  0  0  0  0  0
   10.0820   -0.0210   22.7070 C   0  0  0  0  0  0  0  0  0  0  0  0
    8.8130   -0.4110   22.5800 N   0  0  0  0  0  0  0  0  0  0  0  0
    8.2100    0.2080   21.5500 C   0  0  0  0  0  0  0  0  0  0  0  0
    8.6550    1.2230   20.9970 O   0  0  0  0  0  0  0  0  0  0  0  0
    7.0660   -0.4000   21.2010 N   0  0  0  0  0  0  0  0  0  0  0  0
    6.5140    0.1040   20.0850 C   0  0  0  0  0  0  0  0  0  0  0  0
    5.3070    0.9480   20.3620 C   0  0  0  0  0  0  0  0  0  0  0  0
    4.6690    1.5380   19.2820 C   0  0  0  0  0  0  0  0  0  0  0  0
    5.1920    1.3190   17.9230 C   0  0  0  0  0  0  0  0  0  0  0  0
    6.2470    0.5760   17.6490 N   0  0  0  0  0  0  0  0  0  0  0  0
    6.9500   -0.0700   18.7760 C   0  0  0  0  0  0  0  0  0  0  0  0
  1  2  1  0
  2  3  2  0
  3  4  1  0
  4  5  2  0
  5  6  1  0
  6  7  1  0
  7  8  2  0
  7  9  1  0
  9 10  1  0
  9 11  1  0
  5 12  1  0
  2 13  1  0
 12 13  2  0
 13 14  1  0
 14 15  1  0
 15 16  2  0
 15 17  1  0
 17 18  1  0
 18 19  2  0
 19 20  1  0
 20 21  2  0
 21 22  1  0
 18 23  1  0
 22 23  2  0
M  END
