pyridine_urea_3318
     RDKit          3D

 19 20  0  0  0  0  0  0  0  0999 V2000
   10.2570   -0.2920   25.4660 C   0  0  0  0  0  0  0  0  0  0  0  0
   11.4280   -0.7030   24.6120 C   0  0  0  0  0  0  0  0  0  0  0  0
   12.6390   -1.0970   25.1820 C   0  0  0  0  0  0  0  0  0  0  0  0
   11.8520    0.5970   23.8330 C   0  0  0  0  0  0  0  0  0  0  0  0
   12.8340    0.3110   22.9200 C   0  0  0  0  0  0  0  0  0  0  0  0
   12.6600   -1.0950   22.4120 C   0  0  0  0  0  0  0  0  0  0  0  0
   11.3940   -1.5100   22.7520 C   0  0  2  0  0  0  0  0  0  0  0  0
   10.2860   -0.5170   22.4570 C   0  0  0  0  0  0  0  0  0  0  0  0
    9.0540   -1.1100   21.8710 N   0  0  0  0  0  0  0  0  0  0  0  0
    8.2020   -0.2080   21.3370 C   0  0  0  0  0  0  0  0  0  0  0  0
    8.5360    0.9670   21.1920 O   0  0  0  0  0  0  0  0  0  0  0  0
    6.9920   -0.7080   20.9740 N   0  0  0  0  0  0  0  0  0  0  0  0
    6.3370   -0.0260   19.9610 C   0  0  0  0  0  0  0  0  0  0  0  0
    5.1350    0.6350   20.2120 C   0  0  0  0  0  0  0  0  0  0  0  0
    4.5290    1.3320   19.1580 C   0  0  0  0  0  0  0  0  0  0  0  0
    5.1400    1.3410   17.9080 C   0  0  0  0  0  0  0  0  0  0  0  0
    6.2880    0.6990   17.6670 N   0  0  0  0  0  0  0  0  0  0  0  0
    6.8520    0.0370   18.6870 C   0  0  0  0  0  0  0  0  0  0  0  0
   11.2330   -1.7030   23.9120 O   0  0  0  0  0  0  0  0  0  0  0  0
  2  1  1  0
  2  3  1  0
  2  4  1  0
  4  5  1  0
  5  6  1  0
  6  7  1  0
  7  8  1  1
  8  9  1  0
  9 10  1  0
 10 11  2  0
 10 12  1  0
 12 13  1  0
 13 14  2  0
 14 15  1  0
 15 16  2  0
 16 17  1  0
 13 18  1  0
 17 18  2  0
  2 19  1  0
  7 19  1  0
M  END
