pyridine_urea_2895
     RDKit          3D

 22 23  0  0  0  0  0  0  0  0999 V2000
   11.1390   -0.9820   24.2120 C   0  0  0  0  0  0  0  0  0  0  0  0
   10.7530   -0.6740   22.7780 C   0  0  2  0  0  0  0  0  0  0  0  0
    9.2690   -0.6420   22.6420 N   0  0  0  0  0  0  0  0  0  0  0  0
    8.6460    0.2190   21.5900 C   0  0  0  0  0  0  0  0  0  0  0  0
    9.1040    1.3000   21.2210 O   0  0  0  0  0  0  0  0  0  0  0  0
    7.3670   -0.4450   21.1290 N   0  0  0  0  0  0  0  0  0  0  0  0
    6.6200    0.1830   20.0490 C   0  0  0  0  0  0  0  0  0  0  0  0
    5.3780    1.0310   20.3730 C   0  0  0  0  0  0  0  0  0  0  0  0
    4.6950    1.6230   19.3230 C   0  0  0  0  0  0  0  0  0  0  0  0
    5.1770    1.4310   17.9050 C   0  0  0  0  0  0  0  0  0  0  0  0
    6.2870    0.6550   17.6660 N   0  0  0  0  0  0  0  0  0  0  0  0
    6.9890    0.0440   18.7190 C   0  0  0  0  0  0  0  0  0  0  0  0
   11.2130   -1.9540   22.1830 C   0  0  0  0  0  0  0  0  0  0  0  0
   12.4590   -1.1210   22.1560 C   0  0  0  0  0  0  0  0  0  0  0  0
   12.1930    0.2620   22.7280 C   0  0  0  0  0  0  0  0  0  0  0  0
   13.0870    1.2500   22.8500 F   0  0  0  0  0  0  0  0  0  0  0  0
   10.7010    0.4330   23.1720 C   0  0  0  0  0  0  0  0  0  0  0  0
    9.6580   -0.5870   23.0920 C   0  0  0  0  0  0  0  0  0  0  0  0
    9.8980   -1.8870   22.5680 C   0  0  0  0  0  0  0  0  0  0  0  0
    8.9700   -2.8630   22.4910 N   0  0  0  0  0  0  0  0  0  0  0  0
    7.7280   -2.4810   22.1210 C   0  0  0  0  0  0  0  0  0  0  0  0
    8.9700   -3.4810   23.8180 C   0  0  0  0  0  0  0  0  0  0  0  0
  2  1  1  1
  2  3  1  0
  3  4  1  0
  4  5  2  0
  4  6  1  0
  6  7  1  0
  7  8  2  0
  8  9  1  0
  9 10  2  0
 10 11  1  0
  7 12  1  0
 11 12  2  0
  2 13  1  0
 13 14  2  0
 14 15  1  0
 15 16  1  0
 15 17  2  0
 17 18  1  0
 13 19  1  0
 18 19  2  0
 19 20  1  0
 20 21  1  0
 20 22  1  0
M  END
