pyridine_urea_540
     RDKit          3D

 24 25  0  0  0  0  0  0  0  0999 V2000
    6.2240   -2.9100   22.0550 C   0  0  0  0  0  0  0  0  0  0  0  0
    6.9780   -4.0340   22.3860 N   0  0  0  0  0  0  0  0  0  0  0  0
    6.6060   -5.3470   21.9770 C   0  0  0  0  0  0  0  0  0  0  0  0
    7.7780   -3.9890   23.8590 S   0  0  0  0  0  0  0  0  0  0  0  0
    7.0770   -3.0300   24.6850 O   0  0  0  0  0  0  0  0  0  0  0  0
    7.8280   -5.3830   24.2230 O   0  0  0  0  0  0  0  0  0  0  0  0
    9.4080   -3.4890   23.6950 N   0  0  0  0  0  0  0  0  0  0  0  0
    9.9710   -2.5260   22.7100 C   0  0  1  0  0  0  0  0  0  0  0  0
    8.9580   -1.6900   22.3750 C   0  0  0  0  0  0  0  0  0  0  0  0
    9.4150   -0.6620   21.5260 N   0  0  0  0  0  0  0  0  0  0  0  0
    8.5230    0.3200   21.2770 C   0  0  0  0  0  0  0  0  0  0  0  0
    8.8990    1.7050   21.1950 O   0  0  0  0  0  0  0  0  0  0  0  0
    7.2790   -0.2060   21.0750 N   0  0  0  0  0  0  0  0  0  0  0  0
    6.4870    0.3170   20.0760 C   0  0  0  0  0  0  0  0  0  0  0  0
    5.1870    1.0840   20.2260 C   0  0  0  0  0  0  0  0  0  0  0  0
    4.5600    1.5550   19.1150 C   0  0  0  0  0  0  0  0  0  0  0  0
    5.1070    1.3320   17.8640 C   0  0  0  0  0  0  0  0  0  0  0  0
    6.2270    0.6580   17.6810 N   0  0  0  0  0  0  0  0  0  0  0  0
    6.8900    0.1660   18.7580 C   0  0  0  0  0  0  0  0  0  0  0  0
   11.0390   -1.8530   23.2610 C   0  0  0  0  0  0  0  0  0  0  0  0
   11.7780   -2.3790   24.4160 C   0  0  0  0  0  0  0  0  0  0  0  0
   12.9900   -1.7310   24.3210 C   0  0  0  0  0  0  0  0  0  0  0  0
   13.1060   -1.1320   23.0760 C   0  0  0  0  0  0  0  0  0  0  0  0
   11.9430   -1.3190   22.3330 C   0  0  0  0  0  0  0  0  0  0  0  0
  1  2  1  0
  2  3  1  0
  4  2  1  0
  4  5  2  0
  4  6  2  0
  4  7  1  0
  7  8  1  0
  8  9  1  1
  9 10  1  0
 10 11  1  0
 11 12  2  0
 11 13  1  0
 13 14  1  0
 14 15  2  0
 15 16  1  0
 16 17  2  0
 17 18  1  0
 14 19  1  0
 18 19  2  0
  8 20  1  0
 20 21  1  0
 21 22  1  0
 22 23  1  0
 20 24  1  0
 23 24  1  0
M  END
