pyridine_urea_8063
     RDKit          3D

 24 26  0  0  0  0  0  0  0  0999 V2000
    8.6600    0.9490   21.2160 O   0  0  0  0  0  0  0  0  0  0  0  0
    8.4040   -0.2480   21.2320 C   0  0  0  0  0  0  0  0  0  0  0  0
    7.1390   -0.7360   21.0150 N   0  0  0  0  0  0  0  0  0  0  0  0
    6.4220   -0.0220   19.9920 C   0  0  0  0  0  0  0  0  0  0  0  0
    5.0980    0.7310   20.3260 C   0  0  0  0  0  0  0  0  0  0  0  0
    4.4810    1.4090   19.2800 C   0  0  0  0  0  0  0  0  0  0  0  0
    5.1710    1.3440   17.9120 C   0  0  0  0  0  0  0  0  0  0  0  0
    6.3170    0.6680   17.6870 N   0  0  0  0  0  0  0  0  0  0  0  0
    6.9000    0.0150   18.7080 C   0  0  0  0  0  0  0  0  0  0  0  0
    9.3070   -1.2440   21.4470 N   0  0  0  0  0  0  0  0  0  0  0  0
   10.2450   -0.9830   22.4970 C   0  0  0  0  0  0  0  0  0  0  0  0
   11.7570   -1.1110   22.3260 C   0  0  0  0  0  0  0  0  0  0  0  0
   12.6520   -0.7940   23.5210 C   0  0  0  0  0  0  0  0  0  0  0  0
   12.0030   -0.3720   24.8550 C   0  0  0  0  0  0  0  0  0  0  0  0
   10.4610   -0.2830   24.9220 C   0  0  0  0  0  0  0  0  0  0  0  0
    9.7180    0.1210   26.2340 C   0  0  0  0  0  0  0  0  0  0  0  0
    8.5600   -0.4510   26.6190 N   0  0  0  0  0  0  0  0  0  0  0  0
    8.1670   -0.1440   27.8680 C   0  0  0  0  0  0  0  0  0  0  0  0
    6.9010   -0.6410   28.1900 C   0  0  0  0  0  0  0  0  0  0  0  0
    6.1390   -0.9530   27.0580 C   0  0  0  0  0  0  0  0  0  0  0  0
    7.1790   -0.5490   25.6560 S   0  0  0  0  0  0  0  0  0  0  0  0
    6.8290    0.7690   25.1800 O   0  0  0  0  0  0  0  0  0  0  0  0
    7.3050   -1.7300   24.8370 O   0  0  0  0  0  0  0  0  0  0  0  0
    9.7010   -0.5580   23.8400 C   0  0  0  0  0  0  0  0  0  0  0  0
  1  2  2  0
  2  3  1  0
  3  4  1  0
  4  5  2  0
  5  6  1  0
  6  7  2  0
  7  8  1  0
  4  9  1  0
  8  9  2  0
  2 10  1  0
 10 11  1  0
 11 12  2  0
 12 13  1  0
 13 14  2  0
 14 15  1  0
 15 16  1  0
 16 17  1  0
 17 18  1  0
 18 19  1  0
 19 20  1  0
 21 17  1  0
 20 21  1  0
 21 22  2  0
 21 23  2  0
 11 24  1  0
 15 24  2  0
M  END
