pyridine_urea_10123
     RDKit          3D

 24 26  0  0  0  0  0  0  0  0999 V2000
    8.8400    0.9160   21.3390 O   0  0  0  0  0  0  0  0  0  0  0  0
    8.3990   -0.2240   21.3960 C   0  0  0  0  0  0  0  0  0  0  0  0
    7.1070   -0.5710   21.0520 N   0  0  0  0  0  0  0  0  0  0  0  0
    6.3780    0.0870   20.0630 C   0  0  0  0  0  0  0  0  0  0  0  0
    5.1860    0.7790   20.2510 C   0  0  0  0  0  0  0  0  0  0  0  0
    4.5760    1.4070   19.1680 C   0  0  0  0  0  0  0  0  0  0  0  0
    5.1840    1.3200   17.9330 C   0  0  0  0  0  0  0  0  0  0  0  0
    6.3290    0.6550   17.7230 N   0  0  0  0  0  0  0  0  0  0  0  0
    6.8890    0.0590   18.7820 C   0  0  0  0  0  0  0  0  0  0  0  0
    9.1120   -1.3220   21.7990 N   0  0  0  0  0  0  0  0  0  0  0  0
    9.9140   -1.3860   22.9360 C   0  0  1  0  0  0  0  0  0  0  0  0
   11.2250   -1.1090   22.6430 C   0  0  0  0  0  0  0  0  0  0  0  0
   12.1020   -1.7780   21.9260 C   0  0  0  0  0  0  0  0  0  0  0  0
   13.2780   -0.9670   21.9780 C   0  0  0  0  0  0  0  0  0  0  0  0
   13.3740    0.3410   22.7250 C   0  0  0  0  0  0  0  0  0  0  0  0
   12.2050    0.9280   23.5150 C   0  0  0  0  0  0  0  0  0  0  0  0
   12.1170   -0.1800   22.8800 C   0  0  0  0  0  0  0  0  0  0  0  0
    9.5100   -0.7690   24.1210 C   0  0  0  0  0  0  0  0  0  0  0  0
    8.1880   -0.3020   24.1700 C   0  0  0  0  0  0  0  0  0  0  0  0
    7.6970    0.2870   25.3230 C   0  0  0  0  0  0  0  0  0  0  0  0
    8.4950    0.4150   26.4340 C   0  0  0  0  0  0  0  0  0  0  0  0
    8.0200    0.9740   27.5590 F   0  0  0  0  0  0  0  0  0  0  0  0
    9.7940   -0.0380   26.3940 C   0  0  0  0  0  0  0  0  0  0  0  0
   10.3430   -0.6320   25.2350 C   0  0  0  0  0  0  0  0  0  0  0  0
  1  2  2  0
  2  3  1  0
  3  4  1  0
  4  5  2  0
  5  6  1  0
  6  7  2  0
  7  8  1  0
  4  9  1  0
  8  9  2  0
  2 10  1  0
 11 10  1  6
 11 12  1  0
 12 13  2  0
 13 14  1  0
 14 15  2  0
 15 16  1  0
 12 17  1  0
 16 17  2  0
 11 18  1  0
 18 19  2  0
 19 20  1  0
 20 21  2  0
 21 22  1  0
 21 23  1  0
 18 24  1  0
 23 24  2  0
M  END
