pyridine_urea_10703
     RDKit          3D

 20 21  0  0  0  0  0  0  0  0999 V2000
   10.4660   -4.8320   26.8170 C   0  0  0  0  0  0  0  0  0  0  0  0
   11.6000   -4.2980   26.0340 N   0  0  0  0  0  0  0  0  0  0  0  0
   12.9240   -4.1250   26.4560 C   0  0  0  0  0  0  0  0  0  0  0  0
   11.2180   -3.5770   25.0040 C   0  0  0  0  0  0  0  0  0  0  0  0
   12.0430   -2.6800   24.3860 C   0  0  0  0  0  0  0  0  0  0  0  0
   11.5030   -1.9580   23.2810 N   0  0  0  0  0  0  0  0  0  0  0  0
   10.1840   -2.2070   22.9050 C   0  0  0  0  0  0  0  0  0  0  0  0
    9.6980   -1.4070   21.8070 C   0  0  0  0  0  0  0  0  0  0  0  0
    9.0830   -0.3310   22.2410 N   0  0  0  0  0  0  0  0  0  0  0  0
    8.3380    0.5250   21.4080 C   0  0  0  0  0  0  0  0  0  0  0  0
    8.7250    1.6190   21.0260 O   0  0  0  0  0  0  0  0  0  0  0  0
    7.1910   -0.0330   21.1040 N   0  0  0  0  0  0  0  0  0  0  0  0
    6.4820    0.4090   20.0100 C   0  0  0  0  0  0  0  0  0  0  0  0
    5.3310    1.1150   20.2300 C   0  0  0  0  0  0  0  0  0  0  0  0
    4.6320    1.5900   19.1420 C   0  0  0  0  0  0  0  0  0  0  0  0
    5.1080    1.3420   17.8660 C   0  0  0  0  0  0  0  0  0  0  0  0
    6.2100    0.6480   17.5890 N   0  0  0  0  0  0  0  0  0  0  0  0
    6.8790    0.1920   18.7180 C   0  0  0  0  0  0  0  0  0  0  0  0
    9.3340   -3.0920   23.4830 N   0  0  0  0  0  0  0  0  0  0  0  0
    9.9330   -3.7980   24.5990 C   0  0  0  0  0  0  0  0  0  0  0  0
  1  2  1  0
  2  3  1  0
  2  4  1  0
  4  5  2  0
  5  6  1  0
  6  7  2  0
  7  8  1  0
  8  9  1  0
  9 10  1  0
 10 11  2  0
 10 12  1  0
 12 13  1  0
 13 14  2  0
 14 15  1  0
 15 16  2  0
 16 17  1  0
 13 18  1  0
 17 18  2  0
  7 19  1  0
  4 20  1  0
 19 20  2  0
M  END
