pyridine_urea_7759
     RDKit          3D

 30 32  0  0  0  0  0  0  0  0999 V2000
   13.1680   -2.6030   21.4690 C   0  0  0  0  0  0  0  0  0  0  0  0
   13.4100   -1.5310   21.9900 O   0  0  0  0  0  0  0  0  0  0  0  0
   12.2990   -1.0220   22.5170 C   0  0  0  0  0  0  0  0  0  0  0  0
   11.1630   -1.3860   21.8780 C   0  0  0  0  0  0  0  0  0  0  0  0
    9.9580   -0.9460   22.3120 C   0  0  0  0  0  0  0  0  0  0  0  0
    8.7810   -1.3460   21.6190 N   0  0  0  0  0  0  0  0  0  0  0  0
    8.0170   -0.3420   21.2090 C   0  0  0  0  0  0  0  0  0  0  0  0
    8.4550    0.7950   21.0630 O   0  0  0  0  0  0  0  0  0  0  0  0
    6.7480   -0.6590   20.9860 N   0  0  0  0  0  0  0  0  0  0  0  0
    6.1700    0.0420   20.0140 C   0  0  0  0  0  0  0  0  0  0  0  0
    5.0040    0.7730   20.1290 C   0  0  0  0  0  0  0  0  0  0  0  0
    4.4840    1.5270   18.9490 C   0  0  0  0  0  0  0  0  0  0  0  0
    5.2030    1.4590   17.7730 C   0  0  0  0  0  0  0  0  0  0  0  0
    6.3400    0.7390   17.6600 N   0  0  0  0  0  0  0  0  0  0  0  0
    6.7860    0.0630   18.7590 C   0  0  0  0  0  0  0  0  0  0  0  0
    9.8180   -0.0550   23.4820 C   0  0  0  0  0  0  0  0  0  0  0  0
    8.6340    0.4590   24.0180 C   0  0  0  0  0  0  0  0  0  0  0  0
    8.0760    1.3650   23.4150 O   0  0  0  0  0  0  0  0  0  0  0  0
    8.2600   -0.1440   25.2000 N   0  0  0  0  0  0  0  0  0  0  0  0
    8.1340   -1.5110   25.1500 C   0  0  2  0  0  0  0  0  0  0  0  0
    7.9860   -2.2720   23.9910 C   0  0  0  0  0  0  0  0  0  0  0  0
    6.8590   -1.8040   25.9660 C   0  0  0  0  0  0  0  0  0  0  0  0
    6.2460   -0.5750   26.2430 C   0  0  0  0  0  0  0  0  0  0  0  0
    7.0790    0.2490   27.0060 C   0  0  0  0  0  0  0  0  0  0  0  0
    8.3070    0.5040   26.3830 C   0  0  1  0  0  0  0  0  0  0  0  0
    9.3940   -0.0730   27.0580 C   0  0  0  0  0  0  0  0  0  0  0  0
   10.9940    0.2710   24.0780 C   0  0  0  0  0  0  0  0  0  0  0  0
   12.2090   -0.2110   23.6120 C   0  0  0  0  0  0  0  0  0  0  0  0
   13.2760    0.0940   24.2670 O   0  0  0  0  0  0  0  0  0  0  0  0
   13.0460   -0.8860   25.2550 C   0  0  0  0  0  0  0  0  0  0  0  0
  1  2  1  0
  2  3  1  0
  3  4  2  0
  4  5  1  0
  5  6  1  0
  6  7  1  0
  7  8  2  0
  7  9  1  0
  9 10  1  0
 10 11  2  0
 11 12  1  0
 12 13  2  0
 13 14  1  0
 10 15  1  0
 14 15  2  0
  5 16  2  0
 16 17  1  0
 17 18  2  0
 17 19  1  0
 19 20  1  0
 20 21  1  6
 20 22  1  0
 22 23  1  0
 23 24  1  0
 19 25  1  0
 24 25  1  0
 25 26  1  1
 16 27  1  0
  3 28  1  0
 27 28  2  0
 28 29  1  0
 29 30  1  0
M  END
