pyridine_urea_10025
     RDKit          3D

 24 26  0  0  0  0  0  0  0  0999 V2000
    8.5040    0.7360   21.7750 O   0  0  0  0  0  0  0  0  0  0  0  0
    8.3110   -0.4630   21.6830 C   0  0  0  0  0  0  0  0  0  0  0  0
    7.2200   -0.9570   20.9890 N   0  0  0  0  0  0  0  0  0  0  0  0
    6.4690   -0.1930   20.0610 C   0  0  0  0  0  0  0  0  0  0  0  0
    5.2760    0.4920   20.3160 C   0  0  0  0  0  0  0  0  0  0  0  0
    4.6500    1.2190   19.2970 C   0  0  0  0  0  0  0  0  0  0  0  0
    5.2380    1.2420   18.0460 C   0  0  0  0  0  0  0  0  0  0  0  0
    6.3800    0.5910   17.7750 N   0  0  0  0  0  0  0  0  0  0  0  0
    6.9570   -0.1030   18.7720 C   0  0  0  0  0  0  0  0  0  0  0  0
    9.1380   -1.4550   22.2470 N   0  0  0  0  0  0  0  0  0  0  0  0
   10.5200   -1.3090   22.5670 C   0  0  0  0  0  0  0  0  0  0  0  0
   11.5190   -1.2220   21.6460 C   0  0  0  0  0  0  0  0  0  0  0  0
   12.8810   -1.0400   21.8820 C   0  0  0  0  0  0  0  0  0  0  0  0
   13.8030   -0.9780   20.7340 C   0  0  0  0  0  0  0  0  0  0  0  0
   14.3890    0.2950   19.9530 C   0  0  0  0  0  0  0  0  0  0  0  0
   15.0370    1.5170   20.4110 C   0  0  0  0  0  0  0  0  0  0  0  0
   15.4880    2.5540   19.5810 C   0  0  0  0  0  0  0  0  0  0  0  0
   15.2910    2.5270   18.3020 C   0  0  0  0  0  0  0  0  0  0  0  0
   14.6770    1.4440   17.8820 C   0  0  0  0  0  0  0  0  0  0  0  0
   14.2970    0.4100   18.6360 C   0  0  0  0  0  0  0  0  0  0  0  0
   13.2920   -0.9590   23.3330 C   0  0  0  0  0  0  0  0  0  0  0  0
   12.3100   -1.0860   24.2640 C   0  0  0  0  0  0  0  0  0  0  0  0
   10.9560   -1.2470   23.9550 C   0  0  0  0  0  0  0  0  0  0  0  0
    9.9980   -1.3700   24.8970 O   0  0  0  0  0  0  0  0  0  0  0  0
  1  2  2  0
  2  3  1  0
  3  4  1  0
  4  5  2  0
  5  6  1  0
  6  7  2  0
  7  8  1  0
  4  9  1  0
  8  9  2  0
  2 10  1  0
 10 11  1  0
 11 12  2  0
 12 13  1  0
 13 14  1  0
 14 15  1  0
 15 16  2  0
 16 17  1  0
 17 18  2  0
 18 19  1  0
 15 20  1  0
 19 20  2  0
 13 21  2  0
 21 22  1  0
 11 23  1  0
 22 23  2  0
 23 24  1  0
M  END
