pyridine_urea_3979
     RDKit          3D

 28 29  0  0  0  0  0  0  0  0999 V2000
   12.2430   -0.4840   25.3330 C   0  0  0  0  0  0  0  0  0  0  0  0
   12.8220   -1.7570   24.9130 C   0  0  0  0  0  0  0  0  0  0  0  0
   13.7370   -2.5120   25.6180 C   0  0  0  0  0  0  0  0  0  0  0  0
   11.7240   -2.6960   24.3930 C   0  0  0  0  0  0  0  0  0  0  0  0
   13.6110   -1.3790   23.8620 O   0  0  0  0  0  0  0  0  0  0  0  0
   13.7320   -2.4930   23.1180 C   0  0  0  0  0  0  0  0  0  0  0  0
   14.4440   -3.3790   23.4400 O   0  0  0  0  0  0  0  0  0  0  0  0
   12.9820   -2.5890   22.0250 C   0  0  0  0  0  0  0  0  0  0  0  0
   13.3920   -2.6500   20.7660 C   0  0  0  0  0  0  0  0  0  0  0  0
   13.3410   -1.6370   20.9840 C   0  0  0  0  0  0  0  0  0  0  0  0
   11.9230   -1.6470   22.3410 C   0  0  0  0  0  0  0  0  0  0  0  0
   12.4860   -0.4130   22.5930 C   0  0  0  0  0  0  0  0  0  0  0  0
   12.4510    0.8910   23.0850 C   0  0  0  0  0  0  0  0  0  0  0  0
   11.3560    1.5750   23.7180 C   0  0  0  0  0  0  0  0  0  0  0  0
   10.0020    1.2180   24.0580 C   0  0  0  0  0  0  0  0  0  0  0  0
    8.8360    0.2850   24.1180 C   0  0  0  0  0  0  0  0  0  0  0  0
    8.5000   -0.4340   22.9400 N   0  0  0  0  0  0  0  0  0  0  0  0
    8.2340    0.1400   21.6170 C   0  0  0  0  0  0  0  0  0  0  0  0
    8.9240    1.3080   21.1250 O   0  0  0  0  0  0  0  0  0  0  0  0
    7.1940   -0.6190   20.9560 N   0  0  0  0  0  0  0  0  0  0  0  0
    6.4550    0.0460   20.0250 C   0  0  0  0  0  0  0  0  0  0  0  0
    5.2730    0.7500   20.2530 C   0  0  0  0  0  0  0  0  0  0  0  0
    4.6150    1.4040   19.2180 C   0  0  0  0  0  0  0  0  0  0  0  0
    5.1790    1.3310   17.9510 C   0  0  0  0  0  0  0  0  0  0  0  0
    6.3130    0.6540   17.7020 N   0  0  0  0  0  0  0  0  0  0  0  0
    6.9130    0.0340   18.7330 C   0  0  0  0  0  0  0  0  0  0  0  0
   10.1730   -0.0180   23.5410 C   0  0  0  0  0  0  0  0  0  0  0  0
   11.2680   -0.4300   23.0090 C   0  0  0  0  0  0  0  0  0  0  0  0
  1  2  1  0
  2  3  1  0
  2  4  1  0
  2  5  1  0
  5  6  1  0
  6  7  2  0
  8  6  1  0
  8  9  1  0
  8 10  1  0
  8 11  1  0
 11 12  1  0
 12 13  2  0
 13 14  1  0
 14 15  2  0
 15 16  1  0
 16 17  1  0
 17 18  1  0
 18 19  2  0
 18 20  1  0
 20 21  1  0
 21 22  2  0
 22 23  1  0
 23 24  2  0
 24 25  1  0
 21 26  1  0
 25 26  2  0
 15 27  1  0
 12 28  1  0
 27 28  2  0
M  END
