pyridine_urea_12732
     RDKit          3D

 20 21  0  0  0  0  0  0  0  0999 V2000
   10.5350    0.4850   24.7190 C   0  0  0  0  0  0  0  0  0  0  0  0
    9.3700    0.1160   23.8030 C   0  0  0  0  0  0  0  0  0  0  0  0
    9.6670   -1.2400   23.1600 C   0  0  1  0  0  0  0  0  0  0  0  0
    8.7670   -1.4450   22.0690 N   0  0  0  0  0  0  0  0  0  0  0  0
    8.2360   -0.3580   21.4410 C   0  0  0  0  0  0  0  0  0  0  0  0
    8.8360    0.6940   21.2660 O   0  0  0  0  0  0  0  0  0  0  0  0
    6.9540   -0.6230   21.0470 N   0  0  0  0  0  0  0  0  0  0  0  0
    6.3510    0.0430   19.9850 C   0  0  0  0  0  0  0  0  0  0  0  0
    5.1630    0.7460   20.2000 C   0  0  0  0  0  0  0  0  0  0  0  0
    4.5730    1.4200   19.1400 C   0  0  0  0  0  0  0  0  0  0  0  0
    5.1860    1.3740   17.8950 C   0  0  0  0  0  0  0  0  0  0  0  0
    6.3210    0.6970   17.6750 N   0  0  0  0  0  0  0  0  0  0  0  0
    6.8730    0.0510   18.7140 C   0  0  0  0  0  0  0  0  0  0  0  0
   11.0560   -1.2130   22.6390 C   0  0  0  0  0  0  0  0  0  0  0  0
   11.9150   -1.9240   21.8610 C   0  0  0  0  0  0  0  0  0  0  0  0
   13.2630   -1.0740   21.8520 C   0  0  0  0  0  0  0  0  0  0  0  0
   13.5730    0.2280   22.5380 C   0  0  0  0  0  0  0  0  0  0  0  0
   12.4660    0.6470   23.2500 C   0  0  0  0  0  0  0  0  0  0  0  0
   12.0280   -0.4070   22.7630 C   0  0  0  0  0  0  0  0  0  0  0  0
   13.0420   -0.9100   22.0620 F   0  0  0  0  0  0  0  0  0  0  0  0
  1  2  1  0
  3  2  1  6
  3  4  1  0
  4  5  1  0
  5  6  2  0
  5  7  1  0
  7  8  1  0
  8  9  2  0
  9 10  1  0
 10 11  2  0
 11 12  1  0
  8 13  1  0
 12 13  2  0
  3 14  1  0
 14 15  2  0
 15 16  1  0
 16 17  2  0
 17 18  1  0
 14 19  1  0
 18 19  2  0
 19 20  1  0
M  END
