pyridine_urea_12234
     RDKit          3D

 23 24  0  0  0  0  0  0  0  0999 V2000
   13.2870    0.1700   23.4070 C   0  0  0  0  0  0  0  0  0  0  0  0
   12.0050    0.4310   22.7490 C   0  0  1  0  0  0  0  0  0  0  0  0
   11.0640   -0.7080   23.2430 C   0  0  0  0  0  0  0  0  0  0  0  0
   10.3140   -1.3950   22.3140 C   0  0  0  0  0  0  0  0  0  0  0  0
    8.9420   -1.1520   22.2670 N   0  0  0  0  0  0  0  0  0  0  0  0
    8.2090   -0.3630   21.4310 C   0  0  0  0  0  0  0  0  0  0  0  0
    8.6300    0.7530   21.1630 O   0  0  0  0  0  0  0  0  0  0  0  0
    7.0640   -0.8920   20.9750 N   0  0  0  0  0  0  0  0  0  0  0  0
    6.4260   -0.1530   20.0510 C   0  0  0  0  0  0  0  0  0  0  0  0
    5.1440    0.6590   20.2890 C   0  0  0  0  0  0  0  0  0  0  0  0
    4.4660    1.4850   19.2070 C   0  0  0  0  0  0  0  0  0  0  0  0
    5.2100    1.4050   17.8880 C   0  0  0  0  0  0  0  0  0  0  0  0
    6.3490    0.6530   17.7530 N   0  0  0  0  0  0  0  0  0  0  0  0
    6.9380   -0.0950   18.7740 C   0  0  0  0  0  0  0  0  0  0  0  0
   11.3990    1.7480   23.0910 N   0  0  0  0  0  0  0  0  0  0  0  0
   10.0120    1.8430   22.8730 C   0  0  0  0  0  0  0  0  0  0  0  0
   12.1480    2.8560   22.7800 C   0  0  0  0  0  0  0  0  0  0  0  0
   11.6770    4.1380   23.0790 C   0  0  0  0  0  0  0  0  0  0  0  0
   12.4670    5.1850   23.5380 C   0  0  0  0  0  0  0  0  0  0  0  0
   11.9940    6.4680   23.8270 C   0  0  0  0  0  0  0  0  0  0  0  0
   10.6360    6.7260   23.6430 C   0  0  0  0  0  0  0  0  0  0  0  0
    9.8200    5.6780   23.1780 C   0  0  0  0  0  0  0  0  0  0  0  0
   10.3000    4.3970   22.8910 C   0  0  0  0  0  0  0  0  0  0  0  0
  2  1  1  1
  2  3  1  0
  3  4  1  0
  4  5  1  0
  5  6  1  0
  6  7  2  0
  6  8  1  0
  8  9  1  0
  9 10  2  0
 10 11  1  0
 11 12  2  0
 12 13  1  0
  9 14  1  0
 13 14  2  0
  2 15  1  0
 15 16  1  0
 15 17  1  0
 17 18  1  0
 18 19  2  0
 19 20  1  0
 20 21  2  0
 21 22  1  0
 18 23  1  0
 22 23  2  0
M  END
