pyridine_urea_12889
     RDKit          3D

 19 20  0  0  0  0  0  0  0  0999 V2000
   13.7690   -2.8790   25.6210 C   0  0  0  0  0  0  0  0  0  0  0  0
   12.6220   -2.2090   24.8320 C   0  0  0  0  0  0  0  0  0  0  0  0
   12.5450   -0.6660   24.7690 C   0  0  0  0  0  0  0  0  0  0  0  0
   11.2820   -0.1030   24.7500 C   0  0  0  0  0  0  0  0  0  0  0  0
   10.3050   -0.6730   23.9940 C   0  0  0  0  0  0  0  0  0  0  0  0
   10.4910   -0.4770   22.6520 C   0  0  2  0  0  0  0  0  0  0  0  0
    9.2630   -0.9080   21.9690 N   0  0  0  0  0  0  0  0  0  0  0  0
    8.5030    0.0600   21.3590 C   0  0  0  0  0  0  0  0  0  0  0  0
    8.9110    1.2130   21.1810 O   0  0  0  0  0  0  0  0  0  0  0  0
    7.2870   -0.4090   20.9760 N   0  0  0  0  0  0  0  0  0  0  0  0
    6.4840    0.1680   20.0520 C   0  0  0  0  0  0  0  0  0  0  0  0
    5.3030    0.8400   20.3080 C   0  0  0  0  0  0  0  0  0  0  0  0
    4.5990    1.4100   19.2500 C   0  0  0  0  0  0  0  0  0  0  0  0
    5.1230    1.2770   17.9590 C   0  0  0  0  0  0  0  0  0  0  0  0
    6.2550    0.6200   17.6940 N   0  0  0  0  0  0  0  0  0  0  0  0
    6.9010    0.0870   18.7390 C   0  0  0  0  0  0  0  0  0  0  0  0
   11.6140   -1.3930   22.0830 C   0  0  0  0  0  0  0  0  0  0  0  0
   12.4950   -2.0100   22.8150 C   0  0  0  0  0  0  0  0  0  0  0  0
   13.1240   -0.9660   22.0580 C   0  0  0  0  0  0  0  0  0  0  0  0
  1  2  2  3
  2  3  1  0
  3  4  1  0
  4  5  1  0
  6  5  1  1
  6  7  1  0
  7  8  1  0
  8  9  2  0
  8 10  1  0
 10 11  1  0
 11 12  2  0
 12 13  1  0
 13 14  2  0
 14 15  1  0
 11 16  1  0
 15 16  2  0
  6 17  1  0
 17 18  1  0
 17 19  1  0
 18 19  1  0
M  END
