pyridine_urea_9772
     RDKit          3D

 25 27  0  0  0  0  0  0  0  0999 V2000
    8.4670    1.3020   22.9840 N   0  0  0  0  0  0  0  0  0  0  0  0
    9.8010    1.0900   22.8690 C   0  0  0  0  0  0  0  0  0  0  0  0
   10.5540    2.3520   22.9460 C   0  0  0  0  0  0  0  0  0  0  0  0
   11.9690    2.2340   22.8270 C   0  0  0  0  0  0  0  0  0  0  0  0
   12.4940    3.8980   22.8380 S   0  0  0  0  0  0  0  0  0  0  0  0
   12.2220    4.3460   21.4800 O   0  0  0  0  0  0  0  0  0  0  0  0
   13.7880    4.1710   23.3330 O   0  0  0  0  0  0  0  0  0  0  0  0
   11.3490    4.7260   23.8140 N   0  0  0  0  0  0  0  0  0  0  0  0
   10.1360    5.0980   23.2420 C   0  0  0  0  0  0  0  0  0  0  0  0
   10.1040    6.6090   23.2810 C   0  0  0  0  0  0  0  0  0  0  0  0
   11.3310    7.0240   24.1010 C   0  0  0  0  0  0  0  0  0  0  0  0
   11.8480    5.6990   24.7140 C   0  0  0  0  0  0  0  0  0  0  0  0
   12.4930    0.9370   22.7150 C   0  0  0  0  0  0  0  0  0  0  0  0
   11.6500   -0.2360   22.6450 C   0  0  0  0  0  0  0  0  0  0  0  0
   10.1920   -0.3570   22.6730 C   0  0  0  0  0  0  0  0  0  0  0  0
    9.1800   -1.2410   22.5670 N   0  0  0  0  0  0  0  0  0  0  0  0
    8.3710   -0.5770   21.6370 C   0  0  0  0  0  0  0  0  0  0  0  0
    8.7870    0.6610   21.0700 O   0  0  0  0  0  0  0  0  0  0  0  0
    7.1710   -1.0780   21.2740 N   0  0  0  0  0  0  0  0  0  0  0  0
    6.5890   -0.4020   20.2130 C   0  0  0  0  0  0  0  0  0  0  0  0
    5.3310    0.3590   20.5510 C   0  0  0  0  0  0  0  0  0  0  0  0
    4.6890    1.0820   19.5380 C   0  0  0  0  0  0  0  0  0  0  0  0
    5.2440    1.0940   18.1700 C   0  0  0  0  0  0  0  0  0  0  0  0
    6.3400    0.4390   17.8350 N   0  0  0  0  0  0  0  0  0  0  0  0
    7.0440   -0.3430   18.8850 C   0  0  0  0  0  0  0  0  0  0  0  0
  1  2  1  0
  2  3  2  0
  3  4  1  0
  5  4  1  0
  5  6  2  0
  5  7  2  0
  5  8  1  0
  8  9  1  0
  9 10  1  0
 10 11  1  0
  8 12  1  0
 11 12  1  0
  4 13  2  0
 13 14  1  0
  2 15  1  0
 14 15  2  0
 15 16  1  0
 16 17  1  0
 17 18  2  0
 17 19  1  0
 19 20  1  0
 20 21  2  0
 21 22  1  0
 22 23  2  0
 23 24  1  0
 20 25  1  0
 24 25  2  0
M  END
