pyridine_urea_8360
     RDKit          3D

 22 24  0  0  0  0  0  0  0  0999 V2000
    7.4770    1.0130   22.2950 O   0  0  0  0  0  0  0  0  0  0  0  0
    7.3050   -0.1490   21.9740 C   0  0  0  0  0  0  0  0  0  0  0  0
    8.1770   -1.0810   22.3240 N   0  0  0  0  0  0  0  0  0  0  0  0
    9.2090   -0.7610   21.4440 C   0  0  0  0  0  0  0  0  0  0  0  0
    9.9490    0.4730   21.9970 C   0  0  0  0  0  0  0  0  0  0  0  0
   10.2430   -0.8460   22.2070 C   0  0  0  0  0  0  0  0  0  0  0  0
   11.2780   -1.2990   22.9990 C   0  0  0  0  0  0  0  0  0  0  0  0
   12.2200   -1.0040   23.7230 C   0  0  0  0  0  0  0  0  0  0  0  0
   13.0060   -1.7860   24.3850 N   0  0  0  0  0  0  0  0  0  0  0  0
   13.4590   -1.5240   25.6530 C   0  0  0  0  0  0  0  0  0  0  0  0
   14.2370   -2.6660   25.9200 C   0  0  0  0  0  0  0  0  0  0  0  0
   14.2570   -3.5360   24.9610 N   0  0  0  0  0  0  0  0  0  0  0  0
   13.4950   -2.9900   23.9860 N   0  0  0  0  0  0  0  0  0  0  0  0
   12.2440    0.5050   23.7210 C   0  0  0  0  0  0  0  0  0  0  0  0
   11.1160    1.1280   22.8720 C   0  0  0  0  0  0  0  0  0  0  0  0
    6.3340   -0.6180   21.1880 N   0  0  0  0  0  0  0  0  0  0  0  0
    6.0080    0.0510   19.9980 C   0  0  0  0  0  0  0  0  0  0  0  0
    4.7840    0.9220   20.0410 C   0  0  0  0  0  0  0  0  0  0  0  0
    4.4050    1.6270   18.9200 C   0  0  0  0  0  0  0  0  0  0  0  0
    5.1450    1.5400   17.7390 C   0  0  0  0  0  0  0  0  0  0  0  0
    6.3300    0.6770   17.7110 N   0  0  0  0  0  0  0  0  0  0  0  0
    6.7040   -0.0100   18.8070 C   0  0  0  0  0  0  0  0  0  0  0  0
  1  2  2  0
  2  3  1  0
  3  4  1  0
  4  5  1  0
  5  6  2  0
  6  7  1  0
  7  8  2  0
  8  9  1  0
  9 10  1  0
 10 11  2  0
 11 12  1  0
  9 13  1  0
 12 13  2  0
  8 14  1  0
  5 15  1  0
 14 15  2  0
  2 16  1  0
 16 17  1  0
 17 18  2  0
 18 19  1  0
 19 20  2  0
 20 21  1  0
 17 22  1  0
 21 22  2  0
M  END
