pyridine_urea_10716
     RDKit          3D

 19 21  0  0  0  0  0  0  0  0999 V2000
    8.7650    0.6700   21.3530 O   0  0  0  0  0  0  0  0  0  0  0  0
    8.1490   -0.3600   21.6030 C   0  0  0  0  0  0  0  0  0  0  0  0
    8.5650   -1.3440   22.5940 N   0  0  0  0  0  0  0  0  0  0  0  0
    9.3400   -0.9120   23.6680 C   0  0  0  0  0  0  0  0  0  0  0  0
   10.1690    0.1450   23.3890 C   0  0  1  0  0  0  0  0  0  0  0  0
   11.0510    0.4780   24.4100 C   0  0  0  0  0  0  0  0  0  0  0  0
   12.4270    0.5010   24.0620 C   0  0  0  0  0  0  0  0  0  0  0  0
   13.0370   -0.4160   23.0620 C   0  0  0  0  0  0  0  0  0  0  0  0
   11.8820   -1.1690   22.5790 C   0  0  0  0  0  0  0  0  0  0  0  0
   12.1210   -2.2470   21.7770 C   0  0  0  0  0  0  0  0  0  0  0  0
   11.6470   -2.6570   23.1130 C   0  0  0  0  0  0  0  0  0  0  0  0
   10.7890   -0.4040   22.3020 C   0  0  0  0  0  0  0  0  0  0  0  0
    6.9670   -0.7460   20.9950 N   0  0  0  0  0  0  0  0  0  0  0  0
    6.2990   -0.0190   20.0400 C   0  0  0  0  0  0  0  0  0  0  0  0
    5.1150    0.6800   20.2350 C   0  0  0  0  0  0  0  0  0  0  0  0
    4.6020    1.3570   19.1470 C   0  0  0  0  0  0  0  0  0  0  0  0
    5.2390    1.3400   17.9230 C   0  0  0  0  0  0  0  0  0  0  0  0
    6.3750    0.6770   17.7010 N   0  0  0  0  0  0  0  0  0  0  0  0
    6.8560    0.0220   18.7720 C   0  0  0  0  0  0  0  0  0  0  0  0
  1  2  2  0
  2  3  1  0
  3  4  1  0
  5  4  1  1
  5  6  1  0
  6  7  1  0
  7  8  1  0
  9  8  1  0
  9 10  1  0
  9 11  1  0
 10 11  1  0
  5 12  1  0
  9 12  1  0
  2 13  1  0
 13 14  1  0
 14 15  2  0
 15 16  1  0
 16 17  2  0
 17 18  1  0
 14 19  1  0
 18 19  2  0
M  END
