pyridine_urea_2109
     RDKit          3D

 23 25  0  0  0  0  0  0  0  0999 V2000
    8.8940    1.1460   21.1610 O   0  0  0  0  0  0  0  0  0  0  0  0
    8.2740    0.1660   21.6000 C   0  0  0  0  0  0  0  0  0  0  0  0
    7.2530   -0.5020   20.9820 N   0  0  0  0  0  0  0  0  0  0  0  0
    6.4410    0.1290   20.0470 C   0  0  0  0  0  0  0  0  0  0  0  0
    5.1100    0.8210   20.3690 C   0  0  0  0  0  0  0  0  0  0  0  0
    4.4440    1.4620   19.1560 C   0  0  0  0  0  0  0  0  0  0  0  0
    5.1500    1.3380   17.8450 C   0  0  0  0  0  0  0  0  0  0  0  0
    6.3090    0.6930   17.6840 N   0  0  0  0  0  0  0  0  0  0  0  0
    6.9000    0.1270   18.7450 C   0  0  0  0  0  0  0  0  0  0  0  0
    8.5400   -0.3760   22.8300 N   0  0  0  0  0  0  0  0  0  0  0  0
    9.8230   -0.1490   23.4190 C   0  0  2  0  0  0  0  0  0  0  0  0
   10.5760    0.8170   22.9980 C   0  0  0  0  0  0  0  0  0  0  0  0
   11.0510   -0.3220   22.3450 C   0  0  1  0  0  0  0  0  0  0  0  0
   11.8940   -1.1780   22.9210 C   0  0  0  0  0  0  0  0  0  0  0  0
   12.4990   -2.3030   22.6340 C   0  0  0  0  0  0  0  0  0  0  0  0
   13.2820   -2.6480   23.8540 C   0  0  0  0  0  0  0  0  0  0  0  0
   13.1680   -1.5880   25.1160 C   0  0  0  0  0  0  0  0  0  0  0  0
   12.3890   -0.3960   25.0620 C   0  0  0  0  0  0  0  0  0  0  0  0
   12.4080   -1.1490   24.0820 C   0  0  0  0  0  0  0  0  0  0  0  0
   13.1590   -2.2940   24.2780 C   0  0  0  0  0  0  0  0  0  0  0  0
   14.0490   -2.3850   25.2770 F   0  0  0  0  0  0  0  0  0  0  0  0
   12.2880   -3.3000   24.6020 F   0  0  0  0  0  0  0  0  0  0  0  0
   13.7820   -2.7090   23.1460 F   0  0  0  0  0  0  0  0  0  0  0  0
  1  2  2  0
  2  3  1  0
  3  4  1  0
  4  5  2  0
  5  6  1  0
  6  7  2  0
  7  8  1  0
  4  9  1  0
  8  9  2  0
  2 10  1  0
 11 10  1  6
 11 12  1  0
 11 13  1  0
 12 13  1  0
 13 14  1  1
 14 15  2  0
 15 16  1  0
 16 17  2  0
 17 18  1  0
 14 19  1  0
 18 19  2  0
 19 20  1  0
 20 21  1  0
 20 22  1  0
 20 23  1  0
M  END
