pyridine_urea_8663
     RDKit          3D

 21 23  0  0  0  0  0  0  0  0999 V2000
    8.9930    1.1310   21.2190 O   0  0  0  0  0  0  0  0  0  0  0  0
    8.5810   -0.0080   21.4840 C   0  0  0  0  0  0  0  0  0  0  0  0
    9.1990   -0.9270   22.3080 N   0  0  0  0  0  0  0  0  0  0  0  0
   10.0250   -2.0150   21.9180 C   0  0  0  0  0  0  0  0  0  0  0  0
   11.3300   -1.7360   21.4920 C   0  0  0  0  0  0  0  0  0  0  0  0
   12.2500   -2.0890   22.3090 C   0  0  0  0  0  0  0  0  0  0  0  0
   13.3090   -2.9090   22.4250 C   0  0  0  0  0  0  0  0  0  0  0  0
   13.8490   -2.7810   23.6400 N   0  0  0  0  0  0  0  0  0  0  0  0
   13.1340   -1.8610   24.3180 C   0  0  0  0  0  0  0  0  0  0  0  0
   13.2470   -1.3720   25.5560 C   0  0  0  0  0  0  0  0  0  0  0  0
   12.1470   -0.4530   25.5430 N   0  0  0  0  0  0  0  0  0  0  0  0
   11.0460    0.1350   24.8420 C   0  0  0  0  0  0  0  0  0  0  0  0
   11.3930   -0.5910   23.9180 C   0  0  0  0  0  0  0  0  0  0  0  0
   12.2020   -1.4500   23.5360 C   0  0  0  0  0  0  0  0  0  0  0  0
    7.3950   -0.5000   20.9820 N   0  0  0  0  0  0  0  0  0  0  0  0
    6.6180    0.1000   20.0490 C   0  0  0  0  0  0  0  0  0  0  0  0
    5.4730    0.8250   20.3830 C   0  0  0  0  0  0  0  0  0  0  0  0
    4.7310    1.4330   19.3620 C   0  0  0  0  0  0  0  0  0  0  0  0
    5.1640    1.2890   18.0480 C   0  0  0  0  0  0  0  0  0  0  0  0
    6.2610    0.5820   17.7120 N   0  0  0  0  0  0  0  0  0  0  0  0
    6.9460    0.0140   18.7140 C   0  0  0  0  0  0  0  0  0  0  0  0
  1  2  2  0
  2  3  1  0
  3  4  1  0
  4  5  1  0
  5  6  1  0
  6  7  2  0
  7  8  1  0
  8  9  1  0
  9 10  1  0
 10 11  2  0
 11 12  1  0
 12 13  2  0
  6 14  1  0
  9 14  2  0
 13 14  1  0
  2 15  1  0
 15 16  1  0
 16 17  2  0
 17 18  1  0
 18 19  2  0
 19 20  1  0
 16 21  1  0
 20 21  2  0
M  END
