pyridine_urea_11075
     RDKit          3D

 19 19  0  0  0  0  0  0  0  0999 V2000
   10.3320    0.8810   23.6630 C   0  0  0  0  0  0  0  0  0  0  0  0
   10.2450   -0.5710   23.2890 C   0  0  2  0  0  0  0  0  0  0  0  0
   11.3690   -1.1450   22.7070 C   0  0  0  0  0  0  0  0  0  0  0  0
   12.3570   -0.7080   23.2790 O   0  0  0  0  0  0  0  0  0  0  0  0
   12.5120   -1.1480   24.5500 C   0  0  0  0  0  0  0  0  0  0  0  0
   12.8990   -2.4850   24.5170 C   0  0  0  0  0  0  0  0  0  0  0  0
   11.8150   -3.2830   24.5880 F   0  0  0  0  0  0  0  0  0  0  0  0
   13.5210   -2.7450   23.3450 F   0  0  0  0  0  0  0  0  0  0  0  0
   13.7300   -2.8070   25.5240 F   0  0  0  0  0  0  0  0  0  0  0  0
    9.0970   -0.8500   22.4360 N   0  0  0  0  0  0  0  0  0  0  0  0
    8.5380    0.0310   21.5310 C   0  0  0  0  0  0  0  0  0  0  0  0
    8.9680    1.1560   21.2440 O   0  0  0  0  0  0  0  0  0  0  0  0
    7.3900   -0.4940   20.9750 N   0  0  0  0  0  0  0  0  0  0  0  0
    6.5790    0.1430   20.0340 C   0  0  0  0  0  0  0  0  0  0  0  0
    5.3120    0.9340   20.3050 C   0  0  0  0  0  0  0  0  0  0  0  0
    4.6410    1.5140   19.2460 C   0  0  0  0  0  0  0  0  0  0  0  0
    5.1550    1.3490   17.9620 C   0  0  0  0  0  0  0  0  0  0  0  0
    6.2700    0.6450   17.6820 N   0  0  0  0  0  0  0  0  0  0  0  0
    6.9260    0.0790   18.7080 C   0  0  0  0  0  0  0  0  0  0  0  0
  2  1  1  6
  2  3  1  0
  3  4  1  0
  4  5  1  0
  5  6  1  0
  6  7  1  0
  6  8  1  0
  6  9  1  0
  2 10  1  0
 10 11  1  0
 11 12  2  0
 11 13  1  0
 13 14  1  0
 14 15  2  0
 15 16  1  0
 16 17  2  0
 17 18  1  0
 14 19  1  0
 18 19  2  0
M  END
