pyridine_urea_9798
     RDKit          3D

 25 28  0  0  0  0  0  0  0  0999 V2000
    8.8220    1.1200   21.0370 O   0  0  0  0  0  0  0  0  0  0  0  0
    8.1880    0.1770   21.5360 C   0  0  0  0  0  0  0  0  0  0  0  0
    7.2440   -0.5820   20.8950 N   0  0  0  0  0  0  0  0  0  0  0  0
    6.5330    0.0800   19.8540 C   0  0  0  0  0  0  0  0  0  0  0  0
    5.2140    0.7530   20.2190 C   0  0  0  0  0  0  0  0  0  0  0  0
    4.4670    1.4730   19.1000 C   0  0  0  0  0  0  0  0  0  0  0  0
    5.1430    1.4330   17.7280 C   0  0  0  0  0  0  0  0  0  0  0  0
    6.3600    0.7570   17.5730 N   0  0  0  0  0  0  0  0  0  0  0  0
    7.0150    0.1180   18.5750 C   0  0  0  0  0  0  0  0  0  0  0  0
    8.3200   -0.2430   22.8340 N   0  0  0  0  0  0  0  0  0  0  0  0
    9.5820   -0.2400   23.4190 C   0  0  1  0  0  0  0  0  0  0  0  0
   10.4870   -1.0730   22.7760 C   0  0  0  0  0  0  0  0  0  0  0  0
   11.6920   -0.6030   22.6150 C   0  0  0  0  0  0  0  0  0  0  0  0
   12.5060   -0.1210   23.5560 C   0  0  0  0  0  0  0  0  0  0  0  0
   13.6940   -0.6620   23.2070 C   0  0  0  0  0  0  0  0  0  0  0  0
   13.4940   -1.6410   22.2260 C   0  0  0  0  0  0  0  0  0  0  0  0
   12.0700   -1.7330   21.8990 C   0  0  0  0  0  0  0  0  0  0  0  0
   11.4720    0.2940   22.0240 O   0  0  0  0  0  0  0  0  0  0  0  0
   10.9670    1.3140   22.8380 C   0  0  0  0  0  0  0  0  0  0  0  0
   11.9420    2.3610   22.4730 C   0  0  0  0  0  0  0  0  0  0  0  0
   11.9000    3.5960   22.9210 C   0  0  0  0  0  0  0  0  0  0  0  0
   10.8950    3.8030   23.7290 C   0  0  0  0  0  0  0  0  0  0  0  0
   10.6940    5.4020   24.3610 Cl  0  0  0  0  0  0  0  0  0  0  0  0
   10.0060    2.7460   24.0650 C   0  0  0  0  0  0  0  0  0  0  0  0
    9.8050    1.3330   23.7590 C   0  0  0  0  0  0  0  0  0  0  0  0
  1  2  2  0
  2  3  1  0
  3  4  1  0
  4  5  2  0
  5  6  1  0
  6  7  2  0
  7  8  1  0
  4  9  1  0
  8  9  2  0
  2 10  1  0
 11 10  1  6
 11 12  1  0
 12 13  1  0
 13 14  1  0
 14 15  1  0
 15 16  1  0
 13 17  1  0
 16 17  1  0
 13 18  1  0
 18 19  1  0
 19 20  2  0
 20 21  1  0
 21 22  2  0
 22 23  1  0
 22 24  1  0
 11 25  1  0
 19 25  1  0
 24 25  2  0
M  END
