pyridine_urea_2841
     RDKit          3D

 22 23  0  0  0  0  0  0  0  0999 V2000
    8.6040    1.1450   21.0570 O   0  0  0  0  0  0  0  0  0  0  0  0
    8.0730    0.1420   21.5700 C   0  0  0  0  0  0  0  0  0  0  0  0
    7.0690   -0.5890   20.9900 N   0  0  0  0  0  0  0  0  0  0  0  0
    6.3840    0.0930   19.9440 C   0  0  0  0  0  0  0  0  0  0  0  0
    5.0510    0.8400   20.2490 C   0  0  0  0  0  0  0  0  0  0  0  0
    4.4510    1.4970   19.1890 C   0  0  0  0  0  0  0  0  0  0  0  0
    5.1680    1.4140   17.8360 C   0  0  0  0  0  0  0  0  0  0  0  0
    6.3200    0.7390   17.6390 N   0  0  0  0  0  0  0  0  0  0  0  0
    6.8870    0.1080   18.6740 C   0  0  0  0  0  0  0  0  0  0  0  0
    8.3770   -0.3950   22.7770 N   0  0  0  0  0  0  0  0  0  0  0  0
    9.7630   -0.2880   23.0920 C   0  0  1  0  0  0  0  0  0  0  0  0
   10.0400    0.9670   23.8740 C   0  0  0  0  0  0  0  0  0  0  0  0
   11.5220    0.7930   24.0360 C   0  0  0  0  0  0  0  0  0  0  0  0
   11.6940   -0.3750   25.0130 C   0  0  0  0  0  0  0  0  0  0  0  0
   10.6820   -0.6190   25.9170 O   0  0  0  0  0  0  0  0  0  0  0  0
   10.3750   -1.3930   23.6070 C   0  0  0  0  0  0  0  0  0  0  0  0
   11.5780   -1.3280   22.7650 C   0  0  0  0  0  0  0  0  0  0  0  0
   11.6480   -2.2610   21.8010 C   0  0  0  0  0  0  0  0  0  0  0  0
   12.6570   -2.2780   20.9810 C   0  0  0  0  0  0  0  0  0  0  0  0
   13.5540   -1.3420   21.1580 C   0  0  0  0  0  0  0  0  0  0  0  0
   13.4700   -0.3850   22.1680 C   0  0  0  0  0  0  0  0  0  0  0  0
   12.5180   -0.1510   23.1730 C   0  0  0  0  0  0  0  0  0  0  0  0
  1  2  2  0
  2  3  1  0
  3  4  1  0
  4  5  2  0
  5  6  1  0
  6  7  2  0
  7  8  1  0
  4  9  1  0
  8  9  2  0
  2 10  1  0
 10 11  1  0
 11 12  1  1
 12 13  1  0
 13 14  1  0
 14 15  1  0
 11 16  1  0
 16 17  1  0
 17 18  2  0
 18 19  1  0
 19 20  2  0
 20 21  1  0
 17 22  1  0
 21 22  2  0
M  END
