pyridine_urea_12739
     RDKit          3D

 20 21  0  0  0  0  0  0  0  0999 V2000
   11.6030    1.6530   23.7780 C   0  0  0  0  0  0  0  0  0  0  0  0
   10.2720    0.8960   23.9080 C   0  0  0  0  0  0  0  0  0  0  0  0
   10.2130    0.0770   22.6320 C   0  0  2  0  0  0  0  0  0  0  0  0
    8.9390   -0.5310   22.4230 N   0  0  0  0  0  0  0  0  0  0  0  0
    8.2650    0.1770   21.4850 C   0  0  0  0  0  0  0  0  0  0  0  0
    8.7050    1.2620   21.0780 O   0  0  0  0  0  0  0  0  0  0  0  0
    7.1090   -0.4060   21.0700 N   0  0  0  0  0  0  0  0  0  0  0  0
    6.4200    0.1490   20.0030 C   0  0  0  0  0  0  0  0  0  0  0  0
    5.2340    0.8410   20.2440 C   0  0  0  0  0  0  0  0  0  0  0  0
    4.5700    1.4230   19.1780 C   0  0  0  0  0  0  0  0  0  0  0  0
    5.1130    1.2910   17.9100 C   0  0  0  0  0  0  0  0  0  0  0  0
    6.2400    0.6200   17.6610 N   0  0  0  0  0  0  0  0  0  0  0  0
    6.8670    0.0640   18.7080 C   0  0  0  0  0  0  0  0  0  0  0  0
   11.3050   -0.9000   22.6900 C   0  0  0  0  0  0  0  0  0  0  0  0
   11.9040   -1.9290   22.0110 C   0  0  0  0  0  0  0  0  0  0  0  0
   13.1060   -2.4380   22.9570 C   0  0  0  0  0  0  0  0  0  0  0  0
   13.5430   -1.9420   24.2930 C   0  0  0  0  0  0  0  0  0  0  0  0
   12.7030   -0.8680   24.6420 C   0  0  0  0  0  0  0  0  0  0  0  0
   12.1850   -1.1360   23.5430 C   0  0  0  0  0  0  0  0  0  0  0  0
   13.1620   -2.5420   22.8260 Br  0  0  0  0  0  0  0  0  0  0  0  0
  1  2  1  0
  3  2  1  1
  3  4  1  0
  4  5  1  0
  5  6  2  0
  5  7  1  0
  7  8  1  0
  8  9  2  0
  9 10  1  0
 10 11  2  0
 11 12  1  0
  8 13  1  0
 12 13  2  0
  3 14  1  0
 14 15  2  0
 15 16  1  0
 16 17  2  0
 17 18  1  0
 14 19  1  0
 18 19  2  0
 19 20  1  0
M  END
