pyridine_urea_13302
     RDKit          3D

 23 24  0  0  0  0  0  0  0  0999 V2000
   13.4580   -2.7980   25.0390 C   0  0  0  0  0  0  0  0  0  0  0  0
   13.1720   -1.4150   25.1710 O   0  0  0  0  0  0  0  0  0  0  0  0
   13.0380   -0.7100   24.0080 C   0  0  0  0  0  0  0  0  0  0  0  0
   13.5860   -1.1020   22.9950 O   0  0  0  0  0  0  0  0  0  0  0  0
   12.2920    0.4510   23.9710 C   0  0  1  0  0  0  0  0  0  0  0  0
   12.0220    0.7950   22.7200 C   0  0  0  0  0  0  0  0  0  0  0  0
   10.7640    0.4860   23.0360 C   0  0  1  0  0  0  0  0  0  0  0  0
   10.2400   -0.7070   22.2720 C   0  0  2  0  0  0  0  0  0  0  0  0
    8.8260   -0.7360   22.4160 N   0  0  0  0  0  0  0  0  0  0  0  0
    8.2050    0.0680   21.5020 C   0  0  0  0  0  0  0  0  0  0  0  0
    8.6910    1.1500   21.1300 O   0  0  0  0  0  0  0  0  0  0  0  0
    6.9680   -0.5240   21.0610 N   0  0  0  0  0  0  0  0  0  0  0  0
    6.3850    0.0870   20.0000 C   0  0  0  0  0  0  0  0  0  0  0  0
    5.2130    0.8100   20.1740 C   0  0  0  0  0  0  0  0  0  0  0  0
    4.5930    1.4610   19.1380 C   0  0  0  0  0  0  0  0  0  0  0  0
    5.1770    1.3820   17.8840 C   0  0  0  0  0  0  0  0  0  0  0  0
    6.3100    0.6860   17.6710 N   0  0  0  0  0  0  0  0  0  0  0  0
    6.8890    0.0540   18.7170 C   0  0  0  0  0  0  0  0  0  0  0  0
   10.9530   -1.9890   22.5860 C   0  0  0  0  0  0  0  0  0  0  0  0
   11.0340   -2.4600   23.9260 O   0  0  0  0  0  0  0  0  0  0  0  0
   11.4480   -2.5780   21.4620 O   0  0  0  0  0  0  0  0  0  0  0  0
   12.8640   -2.5450   21.3210 C   0  0  0  0  0  0  0  0  0  0  0  0
   10.9370    0.2830   24.4020 C   0  0  0  0  0  0  0  0  0  0  0  0
  1  2  1  0
  2  3  1  0
  3  4  2  0
  5  3  1  6
  5  6  1  0
  7  6  1  6
  7  8  1  0
  8  9  1  1
  9 10  1  0
 10 11  2  0
 10 12  1  0
 12 13  1  0
 13 14  2  0
 14 15  1  0
 15 16  2  0
 16 17  1  0
 13 18  1  0
 17 18  2  0
  8 19  1  0
 19 20  2  0
 19 21  1  0
 21 22  1  0
  5 23  1  0
  7 23  1  0
M  END
