pyridine_urea_8487
     RDKit          3D

 22 24  0  0  0  0  0  0  0  0999 V2000
   10.6660   -2.5410   23.6860 C   0  0  0  0  0  0  0  0  0  0  0  0
   10.3520   -1.2190   23.4730 N   0  0  0  0  0  0  0  0  0  0  0  0
    9.1100   -0.6100   23.4660 C   0  0  0  0  0  0  0  0  0  0  0  0
    8.0290   -1.3800   23.6780 C   0  0  0  0  0  0  0  0  0  0  0  0
    7.5250   -1.7440   22.5100 N   0  0  0  0  0  0  0  0  0  0  0  0
    7.6980   -0.9120   21.3950 C   0  0  0  0  0  0  0  0  0  0  0  0
    8.6050   -0.1190   21.1650 O   0  0  0  0  0  0  0  0  0  0  0  0
    6.6390   -1.1290   20.5930 N   0  0  0  0  0  0  0  0  0  0  0  0
    6.0750   -0.2640   19.8400 C   0  0  0  0  0  0  0  0  0  0  0  0
    4.8400    0.5970   20.0440 C   0  0  0  0  0  0  0  0  0  0  0  0
    4.3990    1.4860   19.0670 C   0  0  0  0  0  0  0  0  0  0  0  0
    5.1620    1.6210   17.7340 C   0  0  0  0  0  0  0  0  0  0  0  0
    6.2490    0.8140   17.6420 N   0  0  0  0  0  0  0  0  0  0  0  0
    6.6940   -0.0850   18.6400 C   0  0  0  0  0  0  0  0  0  0  0  0
    9.1030    0.7210   23.2190 N   0  0  0  0  0  0  0  0  0  0  0  0
   10.4680    0.9360   23.0650 C   0  0  0  0  0  0  0  0  0  0  0  0
   11.0660    2.1560   22.8000 C   0  0  0  0  0  0  0  0  0  0  0  0
   12.4580    2.1570   22.6980 C   0  0  0  0  0  0  0  0  0  0  0  0
   13.2000    0.9640   22.8470 C   0  0  0  0  0  0  0  0  0  0  0  0
   12.5480   -0.2230   23.1070 C   0  0  0  0  0  0  0  0  0  0  0  0
   13.3570   -1.7300   23.3060 Cl  0  0  0  0  0  0  0  0  0  0  0  0
   11.2150   -0.2280   23.2180 C   0  0  0  0  0  0  0  0  0  0  0  0
  1  2  1  0
  2  3  1  0
  3  4  1  0
  4  5  1  0
  5  6  1  0
  6  7  2  0
  6  8  1  0
  8  9  1  0
  9 10  2  0
 10 11  1  0
 11 12  2  0
 12 13  1  0
  9 14  1  0
 13 14  2  0
  3 15  2  0
 15 16  1  0
 16 17  1  0
 17 18  2  0
 18 19  1  0
 19 20  2  0
 20 21  1  0
  2 22  1  0
 16 22  2  0
 20 22  1  0
M  END
