pyridine_urea_7879
     RDKit          3D

 26 29  0  0  0  0  0  0  0  0999 V2000
    9.0700    1.3450   21.2170 O   0  0  0  0  0  0  0  0  0  0  0  0
    8.6910    0.2360   21.6020 C   0  0  0  0  0  0  0  0  0  0  0  0
    7.5940   -0.4480   21.0900 N   0  0  0  0  0  0  0  0  0  0  0  0
    6.7660    0.0830   20.0750 C   0  0  0  0  0  0  0  0  0  0  0  0
    5.6250    0.8130   20.4340 C   0  0  0  0  0  0  0  0  0  0  0  0
    4.8020    1.3630   19.4440 C   0  0  0  0  0  0  0  0  0  0  0  0
    5.1540    1.1600   18.1290 C   0  0  0  0  0  0  0  0  0  0  0  0
    6.2320    0.4610   17.7580 N   0  0  0  0  0  0  0  0  0  0  0  0
    7.0100   -0.0620   18.7290 C   0  0  0  0  0  0  0  0  0  0  0  0
    9.3690   -0.4520   22.6350 N   0  0  0  0  0  0  0  0  0  0  0  0
   10.8940   -0.4490   22.7630 C   0  0  0  0  0  0  0  0  0  0  0  0
   11.4730    0.5160   23.5590 C   0  0  0  0  0  0  0  0  0  0  0  0
   10.2940    0.5390   23.4910 N   0  0  0  0  0  0  0  0  0  0  0  0
    9.3300    1.4550   24.1190 C   0  0  0  0  0  0  0  0  0  0  0  0
    8.7960    0.9590   25.3200 C   0  0  0  0  0  0  0  0  0  0  0  0
    9.4190   -0.0780   26.0290 C   0  0  0  0  0  0  0  0  0  0  0  0
    8.8580   -0.5390   27.2150 C   0  0  0  0  0  0  0  0  0  0  0  0
    7.6850    0.0500   27.6650 C   0  0  0  0  0  0  0  0  0  0  0  0
    7.0380    1.0710   27.0010 C   0  0  0  0  0  0  0  0  0  0  0  0
    7.6030    1.5290   25.8150 C   0  0  0  0  0  0  0  0  0  0  0  0
    9.8870   -0.6700   22.5320 C   0  0  0  0  0  0  0  0  0  0  0  0
    9.4180    0.3220   23.2710 C   0  0  0  0  0  0  0  0  0  0  0  0
   10.7960    0.7070   23.6460 C   0  0  0  0  0  0  0  0  0  0  0  0
   12.2570    0.4270   23.5130 C   0  0  0  0  0  0  0  0  0  0  0  0
   12.5460   -0.7050   22.6600 C   0  0  0  0  0  0  0  0  0  0  0  0
   11.3470   -1.2180   22.1950 C   0  0  0  0  0  0  0  0  0  0  0  0
  1  2  2  0
  2  3  1  0
  3  4  1  0
  4  5  2  0
  5  6  1  0
  6  7  2  0
  7  8  1  0
  4  9  1  0
  8  9  2  0
  2 10  1  0
 10 11  1  0
 11 12  2  0
 12 13  1  0
 13 14  1  0
 14 15  1  0
 15 16  2  0
 16 17  1  0
 17 18  2  0
 18 19  1  0
 15 20  1  0
 19 20  2  0
 13 21  1  0
 21 22  1  0
 22 23  2  0
 23 24  1  0
 24 25  2  0
 11 26  1  0
 21 26  2  0
 25 26  1  0
M  END
