pyridine_urea_8119
     RDKit          3D

 24 25  0  0  0  0  0  0  0  0999 V2000
    9.3120    0.3330   28.8000 C   0  0  0  0  0  0  0  0  0  0  0  0
    8.2320    0.8730   28.0540 O   0  0  0  0  0  0  0  0  0  0  0  0
    7.8390   -0.0190   27.0070 C   0  0  0  0  0  0  0  0  0  0  0  0
    7.0110   -0.9130   27.0940 O   0  0  0  0  0  0  0  0  0  0  0  0
    8.6210    0.2970   25.6770 C   0  0  0  0  0  0  0  0  0  0  0  0
   10.0460    0.1690   25.8260 O   0  0  0  0  0  0  0  0  0  0  0  0
   10.7660   -0.2110   24.7180 C   0  0  0  0  0  0  0  0  0  0  0  0
   10.4870   -1.3850   23.9920 C   0  0  0  0  0  0  0  0  0  0  0  0
   11.2660   -1.6290   22.9230 C   0  0  0  0  0  0  0  0  0  0  0  0
   12.4760   -0.8670   22.2810 C   0  0  0  0  0  0  0  0  0  0  0  0
   11.7990   -2.1160   21.8660 C   0  0  0  0  0  0  0  0  0  0  0  0
   10.3730   -1.8310   22.4120 C   0  0  0  0  0  0  0  0  0  0  0  0
    9.3980   -1.4750   21.3730 N   0  0  0  0  0  0  0  0  0  0  0  0
    8.6070   -0.3390   21.3790 C   0  0  0  0  0  0  0  0  0  0  0  0
    9.1510    0.9890   21.6050 O   0  0  0  0  0  0  0  0  0  0  0  0
    7.2530   -0.6330   21.0910 N   0  0  0  0  0  0  0  0  0  0  0  0
    6.5460   -0.0010   20.0550 C   0  0  0  0  0  0  0  0  0  0  0  0
    5.2740    0.7780   20.3560 C   0  0  0  0  0  0  0  0  0  0  0  0
    4.6140    1.4030   19.3030 C   0  0  0  0  0  0  0  0  0  0  0  0
    5.1530    1.2850   18.0230 C   0  0  0  0  0  0  0  0  0  0  0  0
    6.2720    0.5940   17.7380 N   0  0  0  0  0  0  0  0  0  0  0  0
    6.9380   -0.0280   18.7370 C   0  0  0  0  0  0  0  0  0  0  0  0
   12.7450    0.4330   23.1670 C   0  0  0  0  0  0  0  0  0  0  0  0
   11.8140    0.5110   24.2290 C   0  0  0  0  0  0  0  0  0  0  0  0
  1  2  1  0
  2  3  1  0
  3  4  2  0
  3  5  1  0
  5  6  1  0
  6  7  1  0
  7  8  2  0
  8  9  1  0
  9 10  2  0
 10 11  1  0
 11 12  1  0
 12 13  1  0
 13 14  1  0
 14 15  2  0
 14 16  1  0
 16 17  1  0
 17 18  2  0
 18 19  1  0
 19 20  2  0
 20 21  1  0
 17 22  1  0
 21 22  2  0
 10 23  1  0
  7 24  1  0
 23 24  2  0
M  END
