pyridine_urea_8509
     RDKit          3D

 22 24  0  0  0  0  0  0  0  0999 V2000
    8.9670    0.6860   21.3360 O   0  0  0  0  0  0  0  0  0  0  0  0
    8.3450   -0.3140   21.6640 C   0  0  0  0  0  0  0  0  0  0  0  0
    8.6500   -1.1510   22.7220 N   0  0  0  0  0  0  0  0  0  0  0  0
    8.5100   -2.5620   22.7920 C   0  0  0  0  0  0  0  0  0  0  0  0
    7.5050   -3.0970   23.6210 C   0  0  0  0  0  0  0  0  0  0  0  0
    7.4460   -2.4040   24.6270 O   0  0  0  0  0  0  0  0  0  0  0  0
    6.7160   -4.2090   23.3700 N   0  0  0  0  0  0  0  0  0  0  0  0
    7.2560   -5.3760   22.7660 C   0  0  0  0  0  0  0  0  0  0  0  0
    6.2010   -6.2290   22.5060 C   0  0  0  0  0  0  0  0  0  0  0  0
    5.0180   -5.5060   23.0900 C   0  0  0  0  0  0  0  0  0  0  0  0
    3.7120   -5.9610   23.1360 C   0  0  0  0  0  0  0  0  0  0  0  0
    2.6410   -5.0890   23.7710 C   0  0  0  0  0  0  0  0  0  0  0  0
    3.0230   -3.8540   24.2810 C   0  0  0  0  0  0  0  0  0  0  0  0
    4.3460   -3.4260   24.2170 C   0  0  0  0  0  0  0  0  0  0  0  0
    5.3250   -4.2530   23.6260 C   0  0  0  0  0  0  0  0  0  0  0  0
    7.2060   -0.7220   20.9920 N   0  0  0  0  0  0  0  0  0  0  0  0
    6.4860   -0.0310   20.0630 C   0  0  0  0  0  0  0  0  0  0  0  0
    5.2970    0.6770   20.3090 C   0  0  0  0  0  0  0  0  0  0  0  0
    4.6640    1.3460   19.2620 C   0  0  0  0  0  0  0  0  0  0  0  0
    5.2490    1.2810   18.0110 C   0  0  0  0  0  0  0  0  0  0  0  0
    6.3790    0.6160   17.7420 N   0  0  0  0  0  0  0  0  0  0  0  0
    6.9610   -0.0220   18.7700 C   0  0  0  0  0  0  0  0  0  0  0  0
  1  2  2  0
  2  3  1  0
  3  4  1  0
  4  5  1  0
  5  6  2  0
  5  7  1  0
  7  8  1  0
  8  9  1  0
  9 10  1  0
 10 11  1  0
 11 12  2  0
 12 13  1  0
 13 14  2  0
  7 15  1  0
 10 15  2  0
 14 15  1  0
  2 16  1  0
 16 17  1  0
 17 18  2  0
 18 19  1  0
 19 20  2  0
 20 21  1  0
 17 22  1  0
 21 22  2  0
M  END
