pyridine_urea_11663
     RDKit          3D

 27 30  0  0  0  0  0  0  0  0999 V2000
   15.1460    3.3530   18.1460 C   0  0  0  0  0  0  0  0  0  0  0  0
   14.8140    2.0520   18.5780 C   0  0  0  0  0  0  0  0  0  0  0  0
   14.8130    1.9000   19.7890 C   0  0  0  0  0  0  0  0  0  0  0  0
   14.4800    0.8350   20.4800 C   0  0  0  0  0  0  0  0  0  0  0  0
   14.0770   -0.4280   20.0910 C   0  0  0  0  0  0  0  0  0  0  0  0
   13.7100   -1.7100   21.1020 N   0  0  0  0  0  0  0  0  0  0  0  0
   13.0160   -2.8350   20.8660 C   0  0  0  0  0  0  0  0  0  0  0  0
   11.7400   -2.5170   20.9360 C   0  0  0  0  0  0  0  0  0  0  0  0
   11.3910   -2.0560   22.2980 C   0  0  0  0  0  0  0  0  0  0  0  0
   12.3820   -1.8690   23.1430 C   0  0  0  0  0  0  0  0  0  0  0  0
   12.2030   -1.5320   24.4170 C   0  0  0  0  0  0  0  0  0  0  0  0
   10.9270   -1.3530   24.8230 C   0  0  0  0  0  0  0  0  0  0  0  0
    9.8270   -1.4490   24.0230 C   0  0  0  0  0  0  0  0  0  0  0  0
    9.9330   -1.7880   22.7170 C   0  0  0  0  0  0  0  0  0  0  0  0
    8.8410   -1.8770   21.8590 N   0  0  0  0  0  0  0  0  0  0  0  0
    8.1450   -0.7570   21.3850 C   0  0  0  0  0  0  0  0  0  0  0  0
    8.5890    0.3730   21.3060 O   0  0  0  0  0  0  0  0  0  0  0  0
    6.8900   -1.0770   21.0210 N   0  0  0  0  0  0  0  0  0  0  0  0
    6.3130   -0.2720   20.0930 C   0  0  0  0  0  0  0  0  0  0  0  0
    5.1500    0.4950   20.2800 C   0  0  0  0  0  0  0  0  0  0  0  0
    4.6420    1.2900   19.2440 C   0  0  0  0  0  0  0  0  0  0  0  0
    5.2630    1.3540   18.0040 C   0  0  0  0  0  0  0  0  0  0  0  0
    6.3810    0.6540   17.7350 N   0  0  0  0  0  0  0  0  0  0  0  0
    6.9050   -0.1870   18.8420 C   0  0  0  0  0  0  0  0  0  0  0  0
   13.6250   -1.9820   22.6330 C   0  0  0  0  0  0  0  0  0  0  0  0
   14.1120   -0.2190   18.7730 N   0  0  0  0  0  0  0  0  0  0  0  0
   14.4310    0.8870   18.0250 N   0  0  0  0  0  0  0  0  0  0  0  0
  1  2  1  0
  2  3  2  0
  3  4  1  0
  4  5  2  0
  5  6  1  0
  6  7  1  0
  7  8  1  0
  8  9  1  0
  9 10  2  0
 10 11  1  0
 11 12  2  0
 12 13  1  0
  9 14  1  0
 13 14  2  0
 14 15  1  0
 15 16  1  0
 16 17  2  0
 16 18  1  0
 18 19  1  0
 19 20  2  0
 20 21  1  0
 21 22  2  0
 22 23  1  0
 19 24  1  0
 23 24  2  0
  6 25  1  0
 10 25  1  0
  5 26  1  0
  2 27  1  0
 26 27  2  0
M  END
