pyridine_urea_14542
     RDKit          3D

 21 23  0  0  0  0  0  0  0  0999 V2000
    8.6230    1.2510   21.0010 O   0  0  0  0  0  0  0  0  0  0  0  0
    8.2330    0.1330   21.3690 C   0  0  0  0  0  0  0  0  0  0  0  0
    8.8860   -0.5800   22.3140 N   0  0  0  0  0  0  0  0  0  0  0  0
   10.0190   -0.0260   22.8780 C   0  0  0  0  0  0  0  0  0  0  0  0
   10.7730   -0.6820   23.7810 C   0  0  1  0  0  0  0  0  0  0  0  0
   10.3830   -0.6700   25.1020 C   0  0  0  0  0  0  0  0  0  0  0  0
    9.7860   -1.6980   25.4330 O   0  0  0  0  0  0  0  0  0  0  0  0
   11.7030    0.1360   24.6220 C   0  0  0  0  0  0  0  0  0  0  0  0
   12.2320   -0.6520   23.8090 C   0  0  0  0  0  0  0  0  0  0  0  0
   12.9660   -0.2070   22.5930 C   0  0  0  0  0  0  0  0  0  0  0  0
   13.0840   -1.2430   21.7070 C   0  0  0  0  0  0  0  0  0  0  0  0
   13.5880   -2.2230   22.1940 O   0  0  0  0  0  0  0  0  0  0  0  0
   13.1180   -2.7110   23.4560 C   0  0  0  0  0  0  0  0  0  0  0  0
   12.8490   -1.7360   24.3820 C   0  0  0  0  0  0  0  0  0  0  0  0
    7.1270   -0.5180   20.9180 N   0  0  0  0  0  0  0  0  0  0  0  0
    6.3540    0.1240   19.9730 C   0  0  0  0  0  0  0  0  0  0  0  0
    5.0660    0.8230   20.2090 C   0  0  0  0  0  0  0  0  0  0  0  0
    4.4940    1.4270   19.0910 C   0  0  0  0  0  0  0  0  0  0  0  0
    5.1290    1.3480   17.8620 C   0  0  0  0  0  0  0  0  0  0  0  0
    6.2810    0.7130   17.6240 N   0  0  0  0  0  0  0  0  0  0  0  0
    6.8380    0.1310   18.6870 C   0  0  0  0  0  0  0  0  0  0  0  0
  1  2  2  0
  2  3  1  0
  3  4  1  0
  5  4  1  6
  5  6  1  0
  6  7  1  0
  5  8  1  0
  5  9  1  0
  9  8  1  0
  9 10  1  0
 10 11  1  0
 11 12  1  0
 12 13  1  0
  9 14  1  0
 13 14  1  0
  2 15  1  0
 15 16  1  0
 16 17  2  0
 17 18  1  0
 18 19  2  0
 19 20  1  0
 16 21  1  0
 20 21  2  0
M  END
