pyridine_urea_11121
     RDKit          3D

 18 19  0  0  0  0  0  0  0  0999 V2000
   11.9320   -2.8120   23.9660 C   0  0  0  0  0  0  0  0  0  0  0  0
   12.1320   -1.4840   23.7270 N   0  0  0  0  0  0  0  0  0  0  0  0
   13.1800   -0.7390   24.4240 C   0  0  0  0  0  0  0  0  0  0  0  0
   12.9710   -1.8900   25.2730 O   0  0  0  0  0  0  0  0  0  0  0  0
   12.9740    0.1770   23.2110 C   0  0  0  0  0  0  0  0  0  0  0  0
   11.8060   -0.2080   22.4730 C   0  0  0  0  0  0  0  0  0  0  0  0
   11.0030   -0.8450   23.2830 C   0  0  1  0  0  0  0  0  0  0  0  0
    9.7540   -1.6570   22.9190 C   0  0  0  0  0  0  0  0  0  0  0  0
    9.3880   -1.1590   21.6860 N   0  0  0  0  0  0  0  0  0  0  0  0
    8.5440   -0.0760   21.3760 C   0  0  0  0  0  0  0  0  0  0  0  0
    9.0120    1.2880   21.3000 O   0  0  0  0  0  0  0  0  0  0  0  0
    7.2630   -0.4870   21.1130 N   0  0  0  0  0  0  0  0  0  0  0  0
    6.5550    0.1030   20.0660 C   0  0  0  0  0  0  0  0  0  0  0  0
    5.3200    0.9030   20.3620 C   0  0  0  0  0  0  0  0  0  0  0  0
    4.6350    1.5140   19.3160 C   0  0  0  0  0  0  0  0  0  0  0  0
    5.0920    1.3840   18.0060 C   0  0  0  0  0  0  0  0  0  0  0  0
    6.2870    0.5960   17.6960 N   0  0  0  0  0  0  0  0  0  0  0  0
    6.9380    0.0070   18.7520 C   0  0  0  0  0  0  0  0  0  0  0  0
  1  2  1  0
  2  3  1  0
  3  4  2  0
  3  5  1  0
  5  6  1  0
  2  7  1  0
  6  7  1  0
  7  8  1  6
  8  9  1  0
  9 10  1  0
 10 11  2  0
 10 12  1  0
 12 13  1  0
 13 14  2  0
 14 15  1  0
 15 16  2  0
 16 17  1  0
 13 18  1  0
 17 18  2  0
M  END
