pyridine_urea_12646
     RDKit          3D

 21 22  0  0  0  0  0  0  0  0999 V2000
    6.5630   -2.1020   23.0250 C   0  0  0  0  0  0  0  0  0  0  0  0
    7.9080   -1.9280   23.4610 O   0  0  0  0  0  0  0  0  0  0  0  0
    8.8170   -2.8330   22.9910 C   0  0  0  0  0  0  0  0  0  0  0  0
    9.6860   -2.3690   21.7890 C   0  0  0  0  0  0  0  0  0  0  0  0
   11.0850   -2.3150   22.1840 O   0  0  0  0  0  0  0  0  0  0  0  0
   11.4530   -1.0540   22.5170 C   0  0  0  0  0  0  0  0  0  0  0  0
   12.7810   -0.7030   22.6370 C   0  0  0  0  0  0  0  0  0  0  0  0
   13.0670    0.6050   22.9940 C   0  0  0  0  0  0  0  0  0  0  0  0
   12.0590    1.5300   23.2250 C   0  0  0  0  0  0  0  0  0  0  0  0
   10.7340    1.1500   23.0870 C   0  0  0  0  0  0  0  0  0  0  0  0
   10.4810   -0.1240   22.7360 C   0  0  0  0  0  0  0  0  0  0  0  0
    9.0710   -0.4210   22.6000 N   0  0  0  0  0  0  0  0  0  0  0  0
    8.4420    0.2740   21.5830 C   0  0  0  0  0  0  0  0  0  0  0  0
    8.8740    1.3680   21.2000 O   0  0  0  0  0  0  0  0  0  0  0  0
    7.3360   -0.3780   21.0890 N   0  0  0  0  0  0  0  0  0  0  0  0
    6.6090    0.1480   20.0250 C   0  0  0  0  0  0  0  0  0  0  0  0
    5.3580    0.9230   20.2690 C   0  0  0  0  0  0  0  0  0  0  0  0
    4.5950    1.4940   19.2800 C   0  0  0  0  0  0  0  0  0  0  0  0
    5.1250    1.2700   17.9800 C   0  0  0  0  0  0  0  0  0  0  0  0
    6.2420    0.5700   17.6980 N   0  0  0  0  0  0  0  0  0  0  0  0
    6.9540    0.0270   18.7090 C   0  0  0  0  0  0  0  0  0  0  0  0
  1  2  1  0
  2  3  1  0
  3  4  1  0
  4  5  1  0
  5  6  1  0
  6  7  2  0
  7  8  1  0
  8  9  2  0
  9 10  1  0
  6 11  1  0
 10 11  2  0
 11 12  1  0
 12 13  1  0
 13 14  2  0
 13 15  1  0
 15 16  1  0
 16 17  2  0
 17 18  1  0
 18 19  2  0
 19 20  1  0
 16 21  1  0
 20 21  2  0
M  END
