pyridine_urea_12550
     RDKit          3D

 21 22  0  0  0  0  0  0  0  0999 V2000
   11.0020    1.1910   23.9800 C   0  0  0  0  0  0  0  0  0  0  0  0
   10.8070   -0.2020   23.5720 C   0  0  1  0  0  0  0  0  0  0  0  0
    9.3820   -0.7630   23.8200 C   0  0  0  0  0  0  0  0  0  0  0  0
    8.3260   -0.1000   23.0680 N   0  0  0  0  0  0  0  0  0  0  0  0
    8.2900    0.2480   21.7340 C   0  0  0  0  0  0  0  0  0  0  0  0
    8.9870    1.1380   21.2290 O   0  0  0  0  0  0  0  0  0  0  0  0
    7.2860   -0.5440   21.0550 N   0  0  0  0  0  0  0  0  0  0  0  0
    6.5490    0.0740   20.0830 C   0  0  0  0  0  0  0  0  0  0  0  0
    5.3720    0.7540   20.4150 C   0  0  0  0  0  0  0  0  0  0  0  0
    4.6170    1.4320   19.2910 C   0  0  0  0  0  0  0  0  0  0  0  0
    5.1940    1.3210   17.9110 C   0  0  0  0  0  0  0  0  0  0  0  0
    6.3280    0.6350   17.6900 N   0  0  0  0  0  0  0  0  0  0  0  0
    6.9530    0.0470   18.7510 C   0  0  0  0  0  0  0  0  0  0  0  0
   10.8320   -0.1030   22.4560 O   0  0  0  0  0  0  0  0  0  0  0  0
   11.7320   -1.0370   22.1520 C   0  0  0  0  0  0  0  0  0  0  0  0
   12.9110   -1.1420   22.8790 C   0  0  0  0  0  0  0  0  0  0  0  0
   13.7170   -2.2730   22.3560 C   0  0  0  0  0  0  0  0  0  0  0  0
   13.5330   -3.1770   21.2130 C   0  0  0  0  0  0  0  0  0  0  0  0
   14.8710   -4.7410   20.5180 Br  0  0  0  0  0  0  0  0  0  0  0  0
   12.3210   -2.8090   20.7020 C   0  0  0  0  0  0  0  0  0  0  0  0
   11.5100   -1.8220   21.2130 C   0  0  0  0  0  0  0  0  0  0  0  0
  2  1  1  1
  2  3  1  0
  3  4  1  0
  4  5  1  0
  5  6  2  0
  5  7  1  0
  7  8  1  0
  8  9  2  0
  9 10  1  0
 10 11  2  0
 11 12  1  0
  8 13  1  0
 12 13  2  0
  2 14  1  0
 14 15  1  0
 15 16  2  0
 16 17  1  0
 17 18  2  0
 18 19  1  0
 18 20  1  0
 15 21  1  0
 20 21  2  0
M  END
