pyridine_urea_6443
     RDKit          3D

 23 25  0  0  0  0  0  0  0  0999 V2000
    8.5770    0.3540   21.0590 O   0  0  0  0  0  0  0  0  0  0  0  0
    8.1380   -0.7570   21.3220 C   0  0  0  0  0  0  0  0  0  0  0  0
    8.9030   -1.6180   22.1000 N   0  0  0  0  0  0  0  0  0  0  0  0
    9.9660   -0.7340   22.4190 C   0  0  0  0  0  0  0  0  0  0  0  0
    9.3050    0.5570   22.7680 C   0  0  0  0  0  0  0  0  0  0  0  0
   10.1330    1.6780   23.0770 C   0  0  0  0  0  0  0  0  0  0  0  0
   11.4730    1.6260   23.0790 C   0  0  0  0  0  0  0  0  0  0  0  0
   12.0000    2.7900   23.3800 N   0  0  0  0  0  0  0  0  0  0  0  0
   11.4080    3.9820   23.0930 C   0  0  0  0  0  0  0  0  0  0  0  0
   10.1680    4.4610   23.4060 O   0  0  0  0  0  0  0  0  0  0  0  0
   12.3140    4.8680   22.3350 C   0  0  0  0  0  0  0  0  0  0  0  0
   13.4200    4.0660   22.2340 N   0  0  0  0  0  0  0  0  0  0  0  0
   13.2250    2.7600   22.7480 C   0  0  0  0  0  0  0  0  0  0  0  0
   14.0120    1.5400   22.6770 O   0  0  0  0  0  0  0  0  0  0  0  0
   12.1570    0.4030   22.7850 C   0  0  0  0  0  0  0  0  0  0  0  0
   11.5050   -0.7880   22.4550 C   0  0  0  0  0  0  0  0  0  0  0  0
    6.9180   -1.1540   20.8780 N   0  0  0  0  0  0  0  0  0  0  0  0
    6.2890   -0.3540   19.9760 C   0  0  0  0  0  0  0  0  0  0  0  0
    5.1130    0.3470   20.1650 C   0  0  0  0  0  0  0  0  0  0  0  0
    4.2980    1.2890   19.2650 C   0  0  0  0  0  0  0  0  0  0  0  0
    5.2200    1.2130   18.0520 C   0  0  0  0  0  0  0  0  0  0  0  0
    6.3640    0.5550   17.8100 N   0  0  0  0  0  0  0  0  0  0  0  0
    6.8680   -0.2080   18.7650 C   0  0  0  0  0  0  0  0  0  0  0  0
  1  2  2  0
  2  3  1  0
  3  4  1  0
  4  5  2  0
  5  6  1  0
  6  7  2  0
  7  8  1  0
  8  9  1  0
  9 10  2  0
  9 11  1  0
 11 12  1  0
  8 13  1  0
 12 13  1  0
 13 14  2  0
  7 15  1  0
  4 16  1  0
 15 16  2  0
  2 17  1  0
 17 18  1  0
 18 19  2  0
 19 20  1  0
 20 21  2  0
 21 22  1  0
 18 23  1  0
 22 23  2  0
M  END
