pyridine_urea_11965
     RDKit          3D

 24 25  0  0  0  0  0  0  0  0999 V2000
    8.0300   -3.0520   26.2480 O   0  0  0  0  0  0  0  0  0  0  0  0
    8.3550   -3.8530   25.3870 C   0  0  0  0  0  0  0  0  0  0  0  0
    8.8310   -5.2610   25.7420 C   0  0  0  0  0  0  0  0  0  0  0  0
    8.6480   -5.6400   27.0810 C   0  0  0  0  0  0  0  0  0  0  0  0
    7.6670   -5.0330   27.8740 C   0  0  0  0  0  0  0  0  0  0  0  0
    6.5030   -5.7820   27.8740 C   0  0  0  0  0  0  0  0  0  0  0  0
    5.6880   -5.8190   26.7190 C   0  0  0  0  0  0  0  0  0  0  0  0
    4.5050   -6.5700   26.6930 C   0  0  0  0  0  0  0  0  0  0  0  0
    4.1590   -7.3290   27.9590 C   0  0  0  0  0  0  0  0  0  0  0  0
    4.9650   -7.2840   29.0840 C   0  0  0  0  0  0  0  0  0  0  0  0
    6.1240   -6.5150   29.0320 C   0  0  0  0  0  0  0  0  0  0  0  0
    8.3380   -3.5390   24.0480 N   0  0  0  0  0  0  0  0  0  0  0  0
    9.2820   -2.7650   23.4710 C   0  0  0  0  0  0  0  0  0  0  0  0
    8.6790   -2.1900   22.3840 C   0  0  0  0  0  0  0  0  0  0  0  0
    8.9210   -0.8430   22.3110 N   0  0  0  0  0  0  0  0  0  0  0  0
    8.3030    0.0410   21.4280 C   0  0  0  0  0  0  0  0  0  0  0  0
    8.7910    1.2900   21.0840 O   0  0  0  0  0  0  0  0  0  0  0  0
    7.1630   -0.5410   21.0020 N   0  0  0  0  0  0  0  0  0  0  0  0
    6.4410    0.1330   20.0240 C   0  0  0  0  0  0  0  0  0  0  0  0
    5.2740    0.8620   20.2280 C   0  0  0  0  0  0  0  0  0  0  0  0
    4.6560    1.4930   19.1640 C   0  0  0  0  0  0  0  0  0  0  0  0
    5.2060    1.3950   17.9010 C   0  0  0  0  0  0  0  0  0  0  0  0
    6.3300    0.6910   17.6700 N   0  0  0  0  0  0  0  0  0  0  0  0
    6.9060    0.0870   18.7280 C   0  0  0  0  0  0  0  0  0  0  0  0
  1  2  2  0
  2  3  1  0
  3  4  1  0
  4  5  1  0
  5  6  1  0
  6  7  2  0
  7  8  1  0
  8  9  2  0
  9 10  1  0
  6 11  1  0
 10 11  2  0
  2 12  1  0
 12 13  1  0
 13 14  1  0
 14 15  1  0
 15 16  1  0
 16 17  2  0
 16 18  1  0
 18 19  1  0
 19 20  2  0
 20 21  1  0
 21 22  2  0
 22 23  1  0
 19 24  1  0
 23 24  2  0
M  END
