pyridine_urea_863
     RDKit          3D

 23 25  0  0  0  0  0  0  0  0999 V2000
    8.7120    1.2560   21.0680 O   0  0  0  0  0  0  0  0  0  0  0  0
    8.3770    0.1490   21.5070 C   0  0  0  0  0  0  0  0  0  0  0  0
    7.1860   -0.5520   21.0530 N   0  0  0  0  0  0  0  0  0  0  0  0
    6.4790    0.0760   20.0420 C   0  0  0  0  0  0  0  0  0  0  0  0
    5.3170    0.7890   20.3270 C   0  0  0  0  0  0  0  0  0  0  0  0
    4.6460    1.4160   19.2760 C   0  0  0  0  0  0  0  0  0  0  0  0
    5.1650    1.3050   17.9870 C   0  0  0  0  0  0  0  0  0  0  0  0
    6.2780    0.6140   17.7050 N   0  0  0  0  0  0  0  0  0  0  0  0
    6.9100    0.0130   18.7350 C   0  0  0  0  0  0  0  0  0  0  0  0
    9.0590   -0.5720   22.4440 N   0  0  0  0  0  0  0  0  0  0  0  0
   10.4510   -0.2280   22.6260 C   0  0  0  0  0  0  0  0  0  0  0  0
   11.4690   -1.3410   22.4880 C   0  0  0  0  0  0  0  0  0  0  0  0
   12.7870   -0.9980   22.6610 C   0  0  0  0  0  0  0  0  0  0  0  0
   13.1290    0.3190   22.9480 C   0  0  0  0  0  0  0  0  0  0  0  0
   12.2010    1.3330   23.0740 C   0  0  0  0  0  0  0  0  0  0  0  0
   10.8580    1.0810   22.9120 C   0  0  0  0  0  0  0  0  0  0  0  0
    9.9680    2.0940   23.0220 N   0  0  0  0  0  0  0  0  0  0  0  0
   10.5000    3.3390   23.2850 C   0  0  0  0  0  0  0  0  0  0  0  0
   10.0760    4.1310   24.3590 C   0  0  0  0  0  0  0  0  0  0  0  0
   10.6620    5.3790   24.5730 C   0  0  0  0  0  0  0  0  0  0  0  0
   11.6640    5.8790   23.7480 C   0  0  0  0  0  0  0  0  0  0  0  0
   12.1070    5.1120   22.6680 C   0  0  0  0  0  0  0  0  0  0  0  0
   11.5300    3.8480   22.4340 C   0  0  0  0  0  0  0  0  0  0  0  0
  1  2  2  0
  2  3  1  0
  3  4  1  0
  4  5  2  0
  5  6  1  0
  6  7  2  0
  7  8  1  0
  4  9  1  0
  8  9  2  0
  2 10  1  0
 10 11  1  0
 11 12  2  0
 12 13  1  0
 13 14  2  0
 14 15  1  0
 11 16  1  0
 15 16  2  0
 16 17  1  0
 17 18  1  0
 18 19  2  0
 19 20  1  0
 20 21  2  0
 21 22  1  0
 18 23  1  0
 22 23  2  0
M  END
