pyridine_urea_12289
     RDKit          3D

 22 24  0  0  0  0  0  0  0  0999 V2000
    9.0590    1.2400   21.3160 O   0  0  0  0  0  0  0  0  0  0  0  0
    8.6770    0.0920   21.5900 C   0  0  0  0  0  0  0  0  0  0  0  0
    9.3050   -0.6830   22.5300 N   0  0  0  0  0  0  0  0  0  0  0  0
   10.6530   -0.2430   22.6790 C   0  0  0  0  0  0  0  0  0  0  0  0
   11.7360   -1.3500   22.4810 C   0  0  0  0  0  0  0  0  0  0  0  0
   13.0190   -0.9760   22.5930 C   0  0  0  0  0  0  0  0  0  0  0  0
   13.1510    0.4820   22.8910 C   0  0  0  0  0  0  0  0  0  0  0  0
   12.1330    1.3320   23.0400 N   0  0  0  0  0  0  0  0  0  0  0  0
   10.7660    1.1460   22.9690 C   0  0  0  0  0  0  0  0  0  0  0  0
    7.6360   -0.5280   21.0140 N   0  0  0  0  0  0  0  0  0  0  0  0
    7.0240    0.3250   20.0310 C   0  0  2  0  0  0  0  0  0  0  0  0
    5.7410    0.8240   20.6700 C   0  0  0  0  0  0  0  0  0  0  0  0
    4.9160   -0.4460   20.7340 C   0  0  0  0  0  0  0  0  0  0  0  0
    5.4470   -1.3390   19.6430 C   0  0  0  0  0  0  0  0  0  0  0  0
    5.7010   -0.5760   18.6010 N   0  0  0  0  0  0  0  0  0  0  0  0
    4.9820    0.5400   18.5850 C   0  0  0  0  0  0  0  0  0  0  0  0
    5.3330    1.4310   17.5200 C   0  0  0  0  0  0  0  0  0  0  0  0
    4.6800    2.5700   17.4470 C   0  0  0  0  0  0  0  0  0  0  0  0
    3.6730    2.9520   18.3690 C   0  0  0  0  0  0  0  0  0  0  0  0
    3.3310    2.0970   19.3890 C   0  0  0  0  0  0  0  0  0  0  0  0
    3.9750    0.9060   19.4940 C   0  0  0  0  0  0  0  0  0  0  0  0
    6.9780   -0.2390   18.7600 C   0  0  0  0  0  0  0  0  0  0  0  0
  1  2  2  0
  2  3  1  0
  3  4  1  0
  4  5  2  0
  5  6  1  0
  6  7  2  0
  7  8  1  0
  4  9  1  0
  8  9  2  0
  2 10  1  0
 11 10  1  1
 11 12  1  0
 12 13  1  0
 13 14  1  0
 14 15  1  0
 15 16  1  0
 16 17  2  0
 17 18  1  0
 18 19  2  0
 19 20  1  0
 16 21  1  0
 20 21  2  0
 11 22  1  0
 15 22  1  0
M  END
