pyridine_urea_5987
     RDKit          3D

 26 28  0  0  0  0  0  0  0  0999 V2000
   15.5380   -5.3250   16.9760 C   0  0  0  0  0  0  0  0  0  0  0  0
   15.6960   -4.8300   18.3930 C   0  0  0  0  0  0  0  0  0  0  0  0
   14.6150   -4.6720   18.9260 O   0  0  0  0  0  0  0  0  0  0  0  0
   14.5710   -4.6610   20.2780 C   0  0  0  0  0  0  0  0  0  0  0  0
   15.3360   -5.3210   20.9450 O   0  0  0  0  0  0  0  0  0  0  0  0
   13.5020   -3.8600   20.7800 C   0  0  0  0  0  0  0  0  0  0  0  0
   12.3200   -3.7340   20.1260 C   0  0  0  0  0  0  0  0  0  0  0  0
   11.4500   -2.9390   20.9300 C   0  0  0  0  0  0  0  0  0  0  0  0
   12.0410   -2.5450   22.0380 N   0  0  0  0  0  0  0  0  0  0  0  0
   11.4690   -1.8260   22.9700 C   0  0  0  0  0  0  0  0  0  0  0  0
   12.5620   -1.8020   23.9730 C   0  0  0  0  0  0  0  0  0  0  0  0
   12.2970   -1.1290   25.1030 C   0  0  0  0  0  0  0  0  0  0  0  0
   11.0080   -0.5320   25.2340 C   0  0  0  0  0  0  0  0  0  0  0  0
    9.9970   -0.5590   24.2650 C   0  0  0  0  0  0  0  0  0  0  0  0
   10.1930   -1.2110   23.0770 C   0  0  0  0  0  0  0  0  0  0  0  0
    9.3690   -1.3790   21.9670 N   0  0  0  0  0  0  0  0  0  0  0  0
    8.3050   -0.4870   21.5700 C   0  0  0  0  0  0  0  0  0  0  0  0
    8.3430    0.8610   21.8010 O   0  0  0  0  0  0  0  0  0  0  0  0
    7.2590   -1.0880   20.9630 N   0  0  0  0  0  0  0  0  0  0  0  0
    6.5870   -0.3260   20.0410 C   0  0  0  0  0  0  0  0  0  0  0  0
    5.4490    0.4070   20.4150 C   0  0  0  0  0  0  0  0  0  0  0  0
    4.7550    1.1920   19.4870 C   0  0  0  0  0  0  0  0  0  0  0  0
    5.2220    1.2290   18.1760 C   0  0  0  0  0  0  0  0  0  0  0  0
    6.3050    0.5380   17.7820 N   0  0  0  0  0  0  0  0  0  0  0  0
    6.9530   -0.2140   18.7120 C   0  0  0  0  0  0  0  0  0  0  0  0
   13.3340   -3.0780   22.0000 N   0  0  0  0  0  0  0  0  0  0  0  0
  1  2  1  0
  2  3  1  0
  3  4  1  0
  4  5  2  0
  4  6  1  0
  6  7  1  0
  7  8  2  0
  8  9  1  0
  9 10  1  0
 10 11  2  0
 11 12  1  0
 12 13  2  0
 13 14  1  0
 10 15  1  0
 14 15  2  0
 15 16  1  0
 16 17  1  0
 17 18  2  0
 17 19  1  0
 19 20  1  0
 20 21  2  0
 21 22  1  0
 22 23  2  0
 23 24  1  0
 20 25  1  0
 24 25  2  0
  6 26  2  0
  9 26  1  0
M  END
