pyridine_urea_1399
     RDKit          3D

 20 21  0  0  0  0  0  0  0  0999 V2000
   13.2370   -2.1170   21.3430 C   0  0  0  0  0  0  0  0  0  0  0  0
   11.7780   -2.2970   21.7530 C   0  0  0  0  0  0  0  0  0  0  0  0
   11.2320   -0.9390   22.0990 C   0  0  0  0  0  0  0  0  0  0  0  0
   12.3170   -0.0170   22.1400 O   0  0  0  0  0  0  0  0  0  0  0  0
   12.4270    0.3220   23.4750 C   0  0  1  0  0  0  0  0  0  0  0  0
   11.4890    1.3140   23.6060 C   0  0  0  0  0  0  0  0  0  0  0  0
   10.1810    0.9160   23.8960 C   0  0  0  0  0  0  0  0  0  0  0  0
    9.8440   -0.4310   23.7560 C   0  0  1  0  0  0  0  0  0  0  0  0
    8.9860   -0.8080   22.6650 N   0  0  0  0  0  0  0  0  0  0  0  0
    8.4640    0.0090   21.6480 C   0  0  0  0  0  0  0  0  0  0  0  0
    8.9950    1.2900   21.2420 O   0  0  0  0  0  0  0  0  0  0  0  0
    7.3240   -0.5590   21.0760 N   0  0  0  0  0  0  0  0  0  0  0  0
    6.5890    0.0490   20.0700 C   0  0  0  0  0  0  0  0  0  0  0  0
    5.4340    0.7630   20.4200 C   0  0  0  0  0  0  0  0  0  0  0  0
    4.6880    1.4000   19.4200 C   0  0  0  0  0  0  0  0  0  0  0  0
    5.1720    1.2830   18.0160 C   0  0  0  0  0  0  0  0  0  0  0  0
    6.2720    0.5890   17.7140 N   0  0  0  0  0  0  0  0  0  0  0  0
    6.9430   -0.0040   18.7320 C   0  0  0  0  0  0  0  0  0  0  0  0
   10.9510   -1.2990   23.9830 C   0  0  0  0  0  0  0  0  0  0  0  0
   12.1830   -0.7490   24.2790 C   0  0  0  0  0  0  0  0  0  0  0  0
  1  2  1  0
  2  3  1  0
  3  4  1  0
  5  4  1  6
  5  6  1  0
  6  7  1  0
  7  8  1  0
  8  9  1  6
  9 10  1  0
 10 11  2  0
 10 12  1  0
 12 13  1  0
 13 14  2  0
 14 15  1  0
 15 16  2  0
 16 17  1  0
 13 18  1  0
 17 18  2  0
  8 19  1  0
  5 20  1  0
 19 20  1  0
M  END
