pyridine_urea_3347
     RDKit          3D

 19 21  0  0  0  0  0  0  0  0999 V2000
    8.8500    1.2290   21.1250 O   0  0  0  0  0  0  0  0  0  0  0  0
    8.5350    0.0560   21.3320 C   0  0  0  0  0  0  0  0  0  0  0  0
    7.2880   -0.4490   21.0730 N   0  0  0  0  0  0  0  0  0  0  0  0
    6.5320    0.0970   20.0390 C   0  0  0  0  0  0  0  0  0  0  0  0
    5.3530    0.7820   20.3320 C   0  0  0  0  0  0  0  0  0  0  0  0
    4.6130    1.3550   19.3000 C   0  0  0  0  0  0  0  0  0  0  0  0
    5.0920    1.2140   18.0160 C   0  0  0  0  0  0  0  0  0  0  0  0
    6.2120    0.5530   17.7090 N   0  0  0  0  0  0  0  0  0  0  0  0
    6.9050    0.0090   18.7190 C   0  0  0  0  0  0  0  0  0  0  0  0
    9.4300   -0.8690   21.8170 N   0  0  0  0  0  0  0  0  0  0  0  0
   10.6480   -0.3450   22.4200 C   0  0  0  0  0  0  0  0  0  0  0  0
   10.6900    1.1710   22.7190 C   0  0  0  0  0  0  0  0  0  0  0  0
    9.5570    1.7820   23.0270 N   0  0  0  0  0  0  0  0  0  0  0  0
    9.9120    3.1240   23.2340 C   0  0  0  0  0  0  0  0  0  0  0  0
   11.2340    3.3740   23.0730 N   0  0  0  0  0  0  0  0  0  0  0  0
   11.7080    2.1260   22.7460 N   0  0  0  0  0  0  0  0  0  0  0  0
   10.7660   -0.8870   23.7800 C   0  0  0  0  0  0  0  0  0  0  0  0
   12.0240   -1.3290   23.7820 C   0  0  0  0  0  0  0  0  0  0  0  0
   11.9290   -1.0660   22.4210 C   0  0  0  0  0  0  0  0  0  0  0  0
  1  2  2  0
  2  3  1  0
  3  4  1  0
  4  5  2  0
  5  6  1  0
  6  7  2  0
  7  8  1  0
  4  9  1  0
  8  9  2  0
  2 10  1  0
 11 10  1  0
 11 12  1  0
 12 13  2  0
 13 14  1  0
 14 15  2  0
 12 16  1  0
 15 16  1  0
 11 17  1  0
 17 18  1  0
 11 19  1  0
 18 19  1  0
M  END
