pyridine_urea_9935
     RDKit          3D

 25 26  0  0  0  0  0  0  0  0999 V2000
   12.6510    5.5280   22.5310 C   0  0  0  0  0  0  0  0  0  0  0  0
   12.5380    4.3940   23.3920 O   0  0  0  0  0  0  0  0  0  0  0  0
   13.1960    3.2630   22.8140 C   0  0  0  0  0  0  0  0  0  0  0  0
   14.3030    3.3230   22.3350 O   0  0  0  0  0  0  0  0  0  0  0  0
   12.2970    2.0310   22.8040 C   0  0  0  0  0  0  0  0  0  0  0  0
   10.8420    2.3520   22.9260 C   0  0  0  0  0  0  0  0  0  0  0  0
    9.8480    1.2300   22.8380 C   0  0  0  0  0  0  0  0  0  0  0  0
   10.2560   -0.1990   22.6330 C   0  0  0  0  0  0  0  0  0  0  0  0
    9.0860   -1.0550   22.4960 N   0  0  0  0  0  0  0  0  0  0  0  0
    8.2840   -0.3930   21.5530 C   0  0  0  0  0  0  0  0  0  0  0  0
    8.6260    0.7000   21.1250 O   0  0  0  0  0  0  0  0  0  0  0  0
    7.0560   -1.0280   21.1070 N   0  0  0  0  0  0  0  0  0  0  0  0
    6.3700   -0.2610   20.1220 C   0  0  0  0  0  0  0  0  0  0  0  0
    5.1630    0.4220   20.3190 C   0  0  0  0  0  0  0  0  0  0  0  0
    4.6040    1.1470   19.2760 C   0  0  0  0  0  0  0  0  0  0  0  0
    5.2480    1.1850   18.0550 C   0  0  0  0  0  0  0  0  0  0  0  0
    6.4050    0.5390   17.8270 N   0  0  0  0  0  0  0  0  0  0  0  0
    6.9350   -0.1650   18.8570 C   0  0  0  0  0  0  0  0  0  0  0  0
   11.7340   -0.5830   22.5540 C   0  0  0  0  0  0  0  0  0  0  0  0
   12.0100   -1.9530   22.3830 O   0  0  0  0  0  0  0  0  0  0  0  0
   13.2350   -2.3740   22.9450 C   0  0  0  0  0  0  0  0  0  0  0  0
   13.0600   -2.7020   24.3880 C   0  0  0  0  0  0  0  0  0  0  0  0
   13.2600   -1.6650   25.2170 F   0  0  0  0  0  0  0  0  0  0  0  0
   11.8300   -3.1770   24.6790 F   0  0  0  0  0  0  0  0  0  0  0  0
   12.7670    0.5650   22.6450 C   0  0  0  0  0  0  0  0  0  0  0  0
  1  2  1  0
  2  3  1  0
  3  4  2  0
  3  5  1  0
  5  6  2  0
  6  7  1  0
  7  8  2  0
  8  9  1  0
  9 10  1  0
 10 11  2  0
 10 12  1  0
 12 13  1  0
 13 14  2  0
 14 15  1  0
 15 16  2  0
 16 17  1  0
 13 18  1  0
 17 18  2  0
  8 19  1  0
 19 20  1  0
 20 21  1  0
 21 22  1  0
 22 23  1  0
 22 24  1  0
  5 25  1  0
 19 25  2  0
M  END
