pyridine_urea_6158
     RDKit          3D

 24 26  0  0  0  0  0  0  0  0999 V2000
   11.1310   -1.7460   21.2540 C   0  0  0  0  0  0  0  0  0  0  0  0
   10.6530   -1.5430   22.1490 C   0  0  0  0  0  0  0  0  0  0  0  0
   10.7200   -1.3610   23.3580 C   0  0  0  0  0  0  0  0  0  0  0  0
    9.7820   -1.0990   24.4750 C   0  0  0  0  0  0  0  0  0  0  0  0
    8.5070   -0.9310   24.5160 C   0  0  0  0  0  0  0  0  0  0  0  0
    7.4970   -0.6730   25.6440 C   0  0  0  0  0  0  0  0  0  0  0  0
    7.4320   -1.8810   26.4940 C   0  0  0  0  0  0  0  0  0  0  0  0
    8.0240   -3.0390   26.0610 C   0  0  0  0  0  0  0  0  0  0  0  0
    7.8310   -4.1360   27.0930 C   0  0  0  0  0  0  0  0  0  0  0  0
    7.1710   -4.0450   28.2990 C   0  0  0  0  0  0  0  0  0  0  0  0
    6.6010   -2.8550   28.6680 C   0  0  0  0  0  0  0  0  0  0  0  0
    6.7170   -1.7180   27.7600 N   0  0  0  0  0  0  0  0  0  0  0  0
    8.1390   -1.0510   23.0300 C   0  0  0  0  0  0  0  0  0  0  0  0
    9.2290   -1.3430   22.0060 C   0  0  0  0  0  0  0  0  0  0  0  0
    8.6110   -1.3710   20.8010 N   0  0  0  0  0  0  0  0  0  0  0  0
    7.8340   -0.2500   20.8310 C   0  0  0  0  0  0  0  0  0  0  0  0
    8.2980    0.8870   20.8900 O   0  0  0  0  0  0  0  0  0  0  0  0
    6.5610   -0.5920   20.7970 N   0  0  0  0  0  0  0  0  0  0  0  0
    5.9880    0.1320   19.8630 C   0  0  0  0  0  0  0  0  0  0  0  0
    4.8010    0.8380   19.9940 C   0  0  0  0  0  0  0  0  0  0  0  0
    4.3730    1.5590   18.8990 C   0  0  0  0  0  0  0  0  0  0  0  0
    5.1170    1.5570   17.7350 C   0  0  0  0  0  0  0  0  0  0  0  0
    6.2630    0.8750   17.5870 N   0  0  0  0  0  0  0  0  0  0  0  0
    6.6670    0.1810   18.6570 C   0  0  0  0  0  0  0  0  0  0  0  0
  1  2  1  0
  2  3  2  0
  3  4  1  0
  4  5  2  0
  5  6  1  0
  6  7  1  0
  7  8  2  0
  8  9  1  0
  9 10  2  0
 10 11  1  0
  7 12  1  0
 11 12  2  0
  5 13  1  0
  2 14  1  0
 13 14  2  0
 14 15  1  0
 15 16  1  0
 16 17  2  0
 16 18  1  0
 18 19  1  0
 19 20  2  0
 20 21  1  0
 21 22  2  0
 22 23  1  0
 19 24  1  0
 23 24  2  0
M  END
