pyridine_urea_4601
     RDKit          3D

 22 23  0  0  0  0  0  0  0  0999 V2000
    4.3010    1.8500   27.1480 C   0  0  0  0  0  0  0  0  0  0  0  0
    5.6570    2.5980   27.2200 C   0  0  0  0  0  0  0  0  0  0  0  0
    5.7330    3.4260   28.4140 N   0  0  0  0  0  0  0  0  0  0  0  0
    6.8740    4.1400   28.6070 C   0  0  0  0  0  0  0  0  0  0  0  0
    7.8530    4.0130   27.6490 C   0  0  0  0  0  0  0  0  0  0  0  0
    7.7810    3.2220   26.5040 C   0  0  0  0  0  0  0  0  0  0  0  0
    6.6180    2.4580   26.2560 C   0  0  0  0  0  0  0  0  0  0  0  0
    6.4310    1.6400   25.1650 N   0  0  0  0  0  0  0  0  0  0  0  0
    7.4410    1.1110   24.3420 C   0  0  0  0  0  0  0  0  0  0  0  0
    8.5030    1.6750   24.1100 O   0  0  0  0  0  0  0  0  0  0  0  0
    7.4160   -0.1170   23.6760 C   0  0  2  0  0  0  0  0  0  0  0  0
    7.1950   -1.2330   24.4690 C   0  0  0  0  0  0  0  0  0  0  0  0
    8.4290   -0.4110   22.8340 N   0  0  0  0  0  0  0  0  0  0  0  0
    8.2440    0.0550   21.5880 C   0  0  0  0  0  0  0  0  0  0  0  0
    8.8540    1.1950   21.0760 O   0  0  0  0  0  0  0  0  0  0  0  0
    7.3680   -0.7390   20.9460 N   0  0  0  0  0  0  0  0  0  0  0  0
    6.6310   -0.0340   19.9540 C   0  0  0  0  0  0  0  0  0  0  0  0
    5.4120    0.7400   20.3200 C   0  0  0  0  0  0  0  0  0  0  0  0
    4.6660    1.4420   19.4010 C   0  0  0  0  0  0  0  0  0  0  0  0
    5.1790    1.3490   18.0660 C   0  0  0  0  0  0  0  0  0  0  0  0
    6.2740    0.6510   17.7050 N   0  0  0  0  0  0  0  0  0  0  0  0
    6.9720   -0.0190   18.6450 C   0  0  0  0  0  0  0  0  0  0  0  0
  1  2  1  0
  2  3  2  0
  3  4  1  0
  4  5  2  0
  5  6  1  0
  2  7  1  0
  6  7  2  0
  7  8  1  0
  8  9  1  0
  9 10  2  0
  9 11  1  0
 11 12  1  1
 11 13  1  0
 13 14  1  0
 14 15  2  0
 14 16  1  0
 16 17  1  0
 17 18  2  0
 18 19  1  0
 19 20  2  0
 20 21  1  0
 17 22  1  0
 21 22  2  0
M  END
