pyridine_urea_10012
     RDKit          3D

 24 26  0  0  0  0  0  0  0  0999 V2000
    8.7270    1.7500   21.0690 O   0  0  0  0  0  0  0  0  0  0  0  0
    8.4010    0.5870   21.2570 C   0  0  0  0  0  0  0  0  0  0  0  0
    7.1530    0.0470   21.0550 N   0  0  0  0  0  0  0  0  0  0  0  0
    6.3790    0.5090   20.0220 C   0  0  0  0  0  0  0  0  0  0  0  0
    5.1990    1.2140   20.1690 C   0  0  0  0  0  0  0  0  0  0  0  0
    4.5410    1.6550   19.0350 C   0  0  0  0  0  0  0  0  0  0  0  0
    5.1020    1.3600   17.8140 C   0  0  0  0  0  0  0  0  0  0  0  0
    6.2280    0.6680   17.6420 N   0  0  0  0  0  0  0  0  0  0  0  0
    6.8370    0.2590   18.7480 C   0  0  0  0  0  0  0  0  0  0  0  0
    9.2110   -0.3830   21.6860 N   0  0  0  0  0  0  0  0  0  0  0  0
    8.8260   -1.0870   22.7920 C   0  0  2  0  0  0  0  0  0  0  0  0
    9.2780   -0.7140   23.9980 C   0  0  0  0  0  0  0  0  0  0  0  0
    8.7760   -0.2670   25.2610 C   0  0  0  0  0  0  0  0  0  0  0  0
    9.9960   -0.1500   26.0550 N   0  0  0  0  0  0  0  0  0  0  0  0
   11.0890   -0.5110   25.2400 C   0  0  0  0  0  0  0  0  0  0  0  0
   12.5700   -0.6780   25.2450 C   0  0  0  0  0  0  0  0  0  0  0  0
   13.3820   -1.1600   23.9370 C   0  0  0  0  0  0  0  0  0  0  0  0
   12.6020   -1.3590   22.8360 C   0  0  0  0  0  0  0  0  0  0  0  0
   11.8300   -1.0280   23.7130 C   0  0  0  0  0  0  0  0  0  0  0  0
   10.6940   -0.8150   24.0760 C   0  0  0  0  0  0  0  0  0  0  0  0
    9.5140   -2.4200   22.6290 C   0  0  0  0  0  0  0  0  0  0  0  0
   10.5250   -2.3950   21.7240 F   0  0  0  0  0  0  0  0  0  0  0  0
    8.6240   -3.3740   22.2430 F   0  0  0  0  0  0  0  0  0  0  0  0
   10.0260   -2.9050   23.7960 F   0  0  0  0  0  0  0  0  0  0  0  0
  1  2  2  0
  2  3  1  0
  3  4  1  0
  4  5  2  0
  5  6  1  0
  6  7  2  0
  7  8  1  0
  4  9  1  0
  8  9  2  0
  2 10  1  0
 11 10  1  6
 11 12  1  0
 12 13  2  0
 13 14  1  0
 14 15  1  0
 15 16  1  0
 16 17  2  0
 17 18  1  0
 18 19  2  0
 12 20  1  0
 15 20  2  0
 19 20  1  0
 11 21  1  0
 21 22  1  0
 21 23  1  0
 21 24  1  0
M  END
