pyridine_urea_549
     RDKit          3D

 24 25  0  0  0  0  0  0  0  0999 V2000
   13.4820   -2.5450   25.0130 C   0  0  0  0  0  0  0  0  0  0  0  0
   13.3440   -1.3300   25.0880 O   0  0  0  0  0  0  0  0  0  0  0  0
   13.0710   -0.6410   23.9320 C   0  0  0  0  0  0  0  0  0  0  0  0
   13.7560    0.2100   23.4020 O   0  0  0  0  0  0  0  0  0  0  0  0
   11.9200   -0.9900   23.3330 C   0  0  0  0  0  0  0  0  0  0  0  0
   10.6290   -1.0130   23.9790 C   0  0  0  0  0  0  0  0  0  0  0  0
    9.3670   -1.4000   23.3520 C   0  0  0  0  0  0  0  0  0  0  0  0
    9.3390   -1.8070   21.9930 C   0  0  0  0  0  0  0  0  0  0  0  0
   10.7320   -1.7300   21.4990 C   0  0  0  0  0  0  0  0  0  0  0  0
   10.6540   -1.2700   22.7800 C   0  0  2  0  0  0  0  0  0  0  0  0
   11.3580   -0.0960   23.1240 C   0  0  0  0  0  0  0  0  0  0  0  0
   10.8690   -2.4380   23.8040 C   0  0  0  0  0  0  0  0  0  0  0  0
    9.9220   -3.2230   23.7890 O   0  0  0  0  0  0  0  0  0  0  0  0
    9.2300   -0.7200   22.7920 N   0  0  0  0  0  0  0  0  0  0  0  0
    8.6300    0.1400   21.7210 C   0  0  0  0  0  0  0  0  0  0  0  0
    9.1280    1.2040   21.3300 O   0  0  0  0  0  0  0  0  0  0  0  0
    7.4150   -0.4100   21.2360 N   0  0  0  0  0  0  0  0  0  0  0  0
    6.7240    0.0950   20.0510 C   0  0  0  0  0  0  0  0  0  0  0  0
    5.6130    0.8810   20.4070 C   0  0  0  0  0  0  0  0  0  0  0  0
    4.8410    1.4640   19.4000 C   0  0  0  0  0  0  0  0  0  0  0  0
    5.1420    1.2890   18.0590 C   0  0  0  0  0  0  0  0  0  0  0  0
    6.2200    0.5140   17.7350 N   0  0  0  0  0  0  0  0  0  0  0  0
    7.0130   -0.0860   18.7180 C   0  0  0  0  0  0  0  0  0  0  0  0
   12.0430   -1.3530   22.0280 C   0  0  0  0  0  0  0  0  0  0  0  0
  1  2  1  0
  2  3  1  0
  3  4  2  0
  3  5  1  0
  5  6  2  0
  6  7  1  0
  7  8  2  0
  8  9  1  0
  9 10  1  0
 10 11  1  6
 10 12  1  0
 12 13  1  0
 10 14  1  0
 14 15  1  0
 15 16  2  0
 15 17  1  0
 17 18  1  0
 18 19  2  0
 19 20  1  0
 20 21  2  0
 21 22  1  0
 18 23  1  0
 22 23  2  0
  5 24  1  0
  9 24  2  0
M  END
