pyridine_urea_6213
     RDKit          3D

 24 26  0  0  0  0  0  0  0  0999 V2000
    7.7000    1.3340   25.4810 C   0  0  0  0  0  0  0  0  0  0  0  0
    8.5580    2.0620   24.6110 O   0  0  0  0  0  0  0  0  0  0  0  0
    9.6030    1.2480   24.0860 C   0  0  0  0  0  0  0  0  0  0  0  0
   11.0780    1.4920   24.2730 C   0  0  0  0  0  0  0  0  0  0  0  0
   12.1530    0.6930   23.7620 C   0  0  0  0  0  0  0  0  0  0  0  0
   11.8190   -0.3310   23.0390 C   0  0  0  0  0  0  0  0  0  0  0  0
   12.4760   -1.2970   22.2820 C   0  0  0  0  0  0  0  0  0  0  0  0
   12.3700   -2.6660   22.0730 C   0  0  0  0  0  0  0  0  0  0  0  0
   13.1670   -3.0150   21.1220 C   0  0  0  0  0  0  0  0  0  0  0  0
   13.8530   -2.1120   20.5240 N   0  0  0  0  0  0  0  0  0  0  0  0
   13.8770   -0.9340   20.7920 C   0  0  0  0  0  0  0  0  0  0  0  0
   13.1990   -0.3640   21.7760 C   0  0  0  0  0  0  0  0  0  0  0  0
   10.5220   -0.6440   22.7940 C   0  0  0  0  0  0  0  0  0  0  0  0
    9.4420   -0.0010   23.2160 C   0  0  0  0  0  0  0  0  0  0  0  0
    8.2890   -0.5150   22.7820 N   0  0  0  0  0  0  0  0  0  0  0  0
    7.9030   -0.0250   21.5350 C   0  0  0  0  0  0  0  0  0  0  0  0
    8.5190    1.1760   20.9470 O   0  0  0  0  0  0  0  0  0  0  0  0
    6.9360   -0.7520   20.9730 N   0  0  0  0  0  0  0  0  0  0  0  0
    6.3120   -0.0540   20.0160 C   0  0  0  0  0  0  0  0  0  0  0  0
    5.0390    0.7110   20.1660 C   0  0  0  0  0  0  0  0  0  0  0  0
    4.5110    1.4080   19.0880 C   0  0  0  0  0  0  0  0  0  0  0  0
    5.1940    1.3750   17.8780 C   0  0  0  0  0  0  0  0  0  0  0  0
    6.3470    0.6870   17.7070 N   0  0  0  0  0  0  0  0  0  0  0  0
    6.8640    0.0050   18.7540 C   0  0  0  0  0  0  0  0  0  0  0  0
  1  2  1  0
  2  3  1  0
  3  4  2  0
  4  5  1  0
  5  6  2  0
  6  7  1  0
  7  8  2  0
  8  9  1  0
  9 10  2  0
 10 11  1  0
  7 12  1  0
 11 12  2  0
  6 13  1  0
  3 14  1  0
 13 14  2  0
 14 15  1  0
 15 16  1  0
 16 17  2  0
 16 18  1  0
 18 19  1  0
 19 20  2  0
 20 21  1  0
 21 22  2  0
 22 23  1  0
 19 24  1  0
 23 24  2  0
M  END
