pyridine_urea_9015
     RDKit          3D

 19 20  0  0  0  0  0  0  0  0999 V2000
    9.6220   -5.2510   26.8320 C   0  0  0  0  0  0  0  0  0  0  0  0
    9.7630   -4.2480   25.6560 C   0  0  0  0  0  0  0  0  0  0  0  0
   11.0420   -3.5180   25.5020 N   0  0  0  0  0  0  0  0  0  0  0  0
   10.7510   -2.7860   24.4110 N   0  0  0  0  0  0  0  0  0  0  0  0
    9.4040   -3.0960   23.9950 C   0  0  0  0  0  0  0  0  0  0  0  0
    8.8860   -2.4490   22.8700 C   0  0  1  0  0  0  0  0  0  0  0  0
    7.7070   -3.1290   22.5800 C   0  0  0  0  0  0  0  0  0  0  0  0
    6.9820   -3.2100   23.5690 O   0  0  0  0  0  0  0  0  0  0  0  0
    8.7130   -1.0730   22.8840 N   0  0  0  0  0  0  0  0  0  0  0  0
    8.3750   -0.2610   21.7160 C   0  0  0  0  0  0  0  0  0  0  0  0
    9.0320    0.7080   21.3550 O   0  0  0  0  0  0  0  0  0  0  0  0
    7.2220   -0.6870   21.0880 N   0  0  0  0  0  0  0  0  0  0  0  0
    6.5530   -0.0310   20.0680 C   0  0  0  0  0  0  0  0  0  0  0  0
    5.4040    0.7130   20.3770 C   0  0  0  0  0  0  0  0  0  0  0  0
    4.7480    1.3730   19.3510 C   0  0  0  0  0  0  0  0  0  0  0  0
    5.2050    1.3120   18.0480 C   0  0  0  0  0  0  0  0  0  0  0  0
    6.3280    0.5820   17.7320 N   0  0  0  0  0  0  0  0  0  0  0  0
    6.9560   -0.0620   18.7430 C   0  0  0  0  0  0  0  0  0  0  0  0
    8.8140   -4.0020   24.7820 N   0  0  0  0  0  0  0  0  0  0  0  0
  1  2  1  0
  2  3  2  0
  3  4  1  0
  4  5  2  0
  5  6  1  0
  6  7  1  1
  7  8  1  0
  6  9  1  0
  9 10  1  0
 10 11  2  0
 10 12  1  0
 12 13  1  0
 13 14  2  0
 14 15  1  0
 15 16  2  0
 16 17  1  0
 13 18  1  0
 17 18  2  0
  2 19  1  0
  5 19  1  0
M  END
