pyridine_urea_2150
     RDKit          3D

 21 23  0  0  0  0  0  0  0  0999 V2000
    9.0820    1.1210   21.1970 O   0  0  0  0  0  0  0  0  0  0  0  0
    8.6990   -0.0290   21.4580 C   0  0  0  0  0  0  0  0  0  0  0  0
    9.3810   -0.9300   22.2680 N   0  0  0  0  0  0  0  0  0  0  0  0
   10.2740   -2.0250   21.9730 C   0  0  0  0  0  0  0  0  0  0  0  0
   11.8440   -1.9360   21.9310 C   0  0  0  0  0  0  0  0  0  0  0  0
   12.2080   -0.5640   22.4300 C   0  0  0  0  0  0  0  0  0  0  0  0
   12.1500    0.7770   23.2170 C   0  0  0  0  0  0  0  0  0  0  0  0
   11.2610    1.3110   24.1680 C   0  0  0  0  0  0  0  0  0  0  0  0
   10.2110    0.5470   24.5600 C   0  0  0  0  0  0  0  0  0  0  0  0
   10.2670   -0.5340   23.9370 C   0  0  0  0  0  0  0  0  0  0  0  0
   11.0390   -1.1190   23.0290 C   0  0  0  0  0  0  0  0  0  0  0  0
    9.2540   -1.6080   24.1300 C   0  0  0  0  0  0  0  0  0  0  0  0
    8.5390   -0.8150   25.0850 O   0  0  0  0  0  0  0  0  0  0  0  0
    9.0860    0.4760   25.3810 C   0  0  0  0  0  0  0  0  0  0  0  0
    7.5080   -0.5630   21.0030 N   0  0  0  0  0  0  0  0  0  0  0  0
    6.7030    0.0330   20.0250 C   0  0  0  0  0  0  0  0  0  0  0  0
    5.4400    0.7950   20.4020 C   0  0  0  0  0  0  0  0  0  0  0  0
    4.7010    1.3760   19.3960 C   0  0  0  0  0  0  0  0  0  0  0  0
    5.1230    1.2530   18.0770 C   0  0  0  0  0  0  0  0  0  0  0  0
    6.2300    0.5750   17.7200 N   0  0  0  0  0  0  0  0  0  0  0  0
    6.9800   -0.0100   18.6840 C   0  0  0  0  0  0  0  0  0  0  0  0
  1  2  2  0
  2  3  1  0
  3  4  1  0
  4  5  1  0
  5  6  1  0
  6  7  2  0
  7  8  1  0
  8  9  2  0
  9 10  1  0
  6 11  1  0
 10 11  2  0
 10 12  1  0
 12 13  1  0
  9 14  1  0
 13 14  1  0
  2 15  1  0
 15 16  1  0
 16 17  2  0
 17 18  1  0
 18 19  2  0
 19 20  1  0
 16 21  1  0
 20 21  2  0
M  END
