pyridine_urea_12096
     RDKit          3D

 23 25  0  0  0  0  0  0  0  0999 V2000
   13.1920    4.4210   22.2790 C   0  0  0  0  0  0  0  0  0  0  0  0
   12.3100    4.1380   23.0750 O   0  0  0  0  0  0  0  0  0  0  0  0
   11.8300    2.8640   22.9910 C   0  0  0  0  0  0  0  0  0  0  0  0
   10.7620    2.5720   22.7090 C   0  0  0  0  0  0  0  0  0  0  0  0
   10.9510    1.2540   22.8200 C   0  0  0  0  0  0  0  0  0  0  0  0
   12.1940    0.4510   23.1980 C   0  0  0  0  0  0  0  0  0  0  0  0
   11.0320    0.6690   22.8700 C   0  0  0  0  0  0  0  0  0  0  0  0
   12.3680    1.5580   23.1930 C   0  0  0  0  0  0  0  0  0  0  0  0
   10.5650   -0.8350   22.8030 C   0  0  2  0  0  0  0  0  0  0  0  0
   10.8220   -1.4200   21.6220 C   0  0  0  0  0  0  0  0  0  0  0  0
   10.3460   -2.6730   21.4280 O   0  0  0  0  0  0  0  0  0  0  0  0
    9.0930   -0.8960   22.8230 N   0  0  0  0  0  0  0  0  0  0  0  0
    8.4300   -0.1490   21.8140 C   0  0  0  0  0  0  0  0  0  0  0  0
    8.8080    0.9560   21.4430 O   0  0  0  0  0  0  0  0  0  0  0  0
    7.3050   -0.7270   21.2350 N   0  0  0  0  0  0  0  0  0  0  0  0
    6.5480   -0.0950   20.2450 C   0  0  0  0  0  0  0  0  0  0  0  0
    5.3660    0.6220   20.4690 C   0  0  0  0  0  0  0  0  0  0  0  0
    4.6930    1.2370   19.3980 C   0  0  0  0  0  0  0  0  0  0  0  0
    5.2100    1.1290   18.1200 C   0  0  0  0  0  0  0  0  0  0  0  0
    6.3330    0.4540   17.8410 N   0  0  0  0  0  0  0  0  0  0  0  0
    6.9880   -0.1580   18.9250 C   0  0  0  0  0  0  0  0  0  0  0  0
   11.2980   -1.4630   23.7750 C   0  0  0  0  0  0  0  0  0  0  0  0
   12.4770   -0.8860   23.3510 C   0  0  0  0  0  0  0  0  0  0  0  0
  1  2  1  0
  2  3  1  0
  3  4  2  0
  4  5  1  0
  5  6  2  0
  6  7  1  0
  3  8  1  0
  7  8  2  0
  7  9  1  0
  9 10  1  6
 10 11  1  0
  9 12  1  0
 12 13  1  0
 13 14  2  0
 13 15  1  0
 15 16  1  0
 16 17  2  0
 17 18  1  0
 18 19  2  0
 19 20  1  0
 16 21  1  0
 20 21  2  0
  9 22  1  0
  6 23  1  0
 22 23  1  0
M  END
