pyridine_urea_7747
     RDKit          3D

 30 33  0  0  0  0  0  0  0  0999 V2000
    8.8240    1.3560   21.0540 O   0  0  0  0  0  0  0  0  0  0  0  0
    8.1570    0.4430   21.5430 C   0  0  0  0  0  0  0  0  0  0  0  0
    8.1760    0.0640   22.8450 N   0  0  0  0  0  0  0  0  0  0  0  0
    8.0960   -1.2330   23.3320 C   0  0  0  0  0  0  0  0  0  0  0  0
    9.0570   -1.5750   24.2420 C   0  0  0  0  0  0  0  0  0  0  0  0
    9.5400   -0.9690   23.0520 C   0  0  0  0  0  0  0  0  0  0  0  0
   10.7930   -0.6670   22.6800 C   0  0  0  0  0  0  0  0  0  0  0  0
   11.7690   -0.9590   23.5010 C   0  0  0  0  0  0  0  0  0  0  0  0
   13.0100   -0.6740   23.1670 N   0  0  0  0  0  0  0  0  0  0  0  0
   13.6830   -1.7040   23.3380 C   0  0  0  0  0  0  0  0  0  0  0  0
   13.1040   -2.8850   22.8670 C   0  0  0  0  0  0  0  0  0  0  0  0
   13.0260   -2.8340   21.5490 N   0  0  0  0  0  0  0  0  0  0  0  0
   13.7840   -3.7360   20.9120 C   0  0  0  0  0  0  0  0  0  0  0  0
   13.6990   -4.0560   19.7310 N   0  0  0  0  0  0  0  0  0  0  0  0
   14.5970   -5.0100   19.4350 C   0  0  0  0  0  0  0  0  0  0  0  0
   15.5080   -5.6650   20.0740 C   0  0  0  0  0  0  0  0  0  0  0  0
   15.6140   -5.3690   21.2860 C   0  0  0  0  0  0  0  0  0  0  0  0
   14.6890   -4.4280   21.4800 N   0  0  0  0  0  0  0  0  0  0  0  0
   13.1330   -1.5700   21.0890 C   0  0  0  0  0  0  0  0  0  0  0  0
   13.2340   -0.3700   21.9180 C   0  0  0  0  0  0  0  0  0  0  0  0
   11.5380   -1.5250   24.6060 C   0  0  0  0  0  0  0  0  0  0  0  0
   12.5810   -1.8250   25.3630 F   0  0  0  0  0  0  0  0  0  0  0  0
   10.2720   -1.8020   24.9530 C   0  0  0  0  0  0  0  0  0  0  0  0
    7.2510   -0.3310   20.8780 N   0  0  0  0  0  0  0  0  0  0  0  0
    6.4740    0.2290   19.9620 C   0  0  0  0  0  0  0  0  0  0  0  0
    5.3000    0.9240   20.2170 C   0  0  0  0  0  0  0  0  0  0  0  0
    4.6130    1.4850   19.1440 C   0  0  0  0  0  0  0  0  0  0  0  0
    5.1090    1.3390   17.8750 C   0  0  0  0  0  0  0  0  0  0  0  0
    6.2320    0.6580   17.6110 N   0  0  0  0  0  0  0  0  0  0  0  0
    6.8810    0.1240   18.6530 C   0  0  0  0  0  0  0  0  0  0  0  0
  1  2  2  0
  2  3  1  0
  3  4  1  0
  4  5  1  0
  5  6  2  0
  6  7  1  0
  7  8  2  0
  8  9  1  0
  9 10  1  0
 10 11  1  0
 11 12  1  0
 12 13  1  0
 13 14  2  0
 14 15  1  0
 15 16  2  0
 16 17  1  0
 13 18  1  0
 17 18  2  0
 12 19  1  0
  9 20  1  0
 19 20  1  0
  8 21  1  0
 21 22  1  0
  5 23  1  0
 21 23  2  0
  2 24  1  0
 24 25  1  0
 25 26  2  0
 26 27  1  0
 27 28  2  0
 28 29  1  0
 25 30  1  0
 29 30  2  0
M  END
