pyridine_urea_13478
     RDKit          3D

 18 19  0  0  0  0  0  0  0  0999 V2000
    8.8600    1.1710   21.2180 O   0  0  0  0  0  0  0  0  0  0  0  0
    8.4090    0.1020   21.6630 C   0  0  0  0  0  0  0  0  0  0  0  0
    8.9030   -0.5770   22.7580 N   0  0  0  0  0  0  0  0  0  0  0  0
   10.2360   -0.9720   22.9370 C   0  0  0  0  0  0  0  0  0  0  0  0
   10.9510   -1.6120   21.7460 C   0  0  0  0  0  0  0  0  0  0  0  0
   12.4790   -1.6700   21.8750 C   0  0  0  0  0  0  0  0  0  0  0  0
   12.7890   -1.5670   23.2690 C   0  0  0  0  0  0  0  0  0  0  0  0
   13.2630   -2.4640   24.1190 N   0  0  0  0  0  0  0  0  0  0  0  0
   13.4510   -2.1440   25.4240 N   0  0  0  0  0  0  0  0  0  0  0  0
   13.0230   -0.7810   25.4630 C   0  0  0  0  0  0  0  0  0  0  0  0
   12.4620    0.0110   24.0160 S   0  0  0  0  0  0  0  0  0  0  0  0
    7.3270   -0.4670   21.0570 N   0  0  0  0  0  0  0  0  0  0  0  0
    6.5580    0.1640   20.0280 C   0  0  0  0  0  0  0  0  0  0  0  0
    5.4160    0.9460   20.2710 C   0  0  0  0  0  0  0  0  0  0  0  0
    4.7030    1.5640   19.2530 C   0  0  0  0  0  0  0  0  0  0  0  0
    5.1300    1.4090   17.9500 C   0  0  0  0  0  0  0  0  0  0  0  0
    6.2940    0.5980   17.7180 N   0  0  0  0  0  0  0  0  0  0  0  0
    6.9770   -0.0040   18.7250 C   0  0  0  0  0  0  0  0  0  0  0  0
  1  2  2  0
  2  3  1  0
  3  4  1  0
  4  5  1  0
  5  6  1  0
  6  7  1  0
  7  8  2  0
  8  9  1  0
  9 10  2  0
  7 11  1  0
 10 11  1  0
  2 12  1  0
 12 13  1  0
 13 14  2  0
 14 15  1  0
 15 16  2  0
 16 17  1  0
 13 18  1  0
 17 18  2  0
M  END
