pyridine_urea_12814
     RDKit          3D

 20 21  0  0  0  0  0  0  0  0999 V2000
   12.4000    3.7360   22.4540 C   0  0  0  0  0  0  0  0  0  0  0  0
   13.1180    2.5390   22.7330 O   0  0  0  0  0  0  0  0  0  0  0  0
   12.4720    1.3350   22.8060 C   0  0  0  0  0  0  0  0  0  0  0  0
   13.2200    0.0950   22.6830 C   0  0  0  0  0  0  0  0  0  0  0  0
   12.4110   -0.8870   22.7940 C   0  0  0  0  0  0  0  0  0  0  0  0
   11.1280   -1.1350   22.9850 C   0  0  0  0  0  0  0  0  0  0  0  0
   10.1430   -0.0790   23.1370 C   0  0  0  0  0  0  0  0  0  0  0  0
    9.5650   -1.3110   23.2230 C   0  0  0  0  0  0  0  0  0  0  0  0
    8.5760   -1.5110   22.2790 N   0  0  0  0  0  0  0  0  0  0  0  0
    8.1060   -0.4930   21.4870 C   0  0  0  0  0  0  0  0  0  0  0  0
    8.7720    0.7520   21.2550 O   0  0  0  0  0  0  0  0  0  0  0  0
    6.8870   -0.8210   20.9500 N   0  0  0  0  0  0  0  0  0  0  0  0
    6.3010   -0.0850   19.9500 C   0  0  0  0  0  0  0  0  0  0  0  0
    5.1030    0.5850   20.2200 C   0  0  0  0  0  0  0  0  0  0  0  0
    4.5090    1.3440   19.2060 C   0  0  0  0  0  0  0  0  0  0  0  0
    5.2000    1.3940   17.8860 C   0  0  0  0  0  0  0  0  0  0  0  0
    6.3420    0.7350   17.6690 N   0  0  0  0  0  0  0  0  0  0  0  0
    6.8590    0.0200   18.6890 C   0  0  0  0  0  0  0  0  0  0  0  0
   11.0800    1.2450   22.9980 C   0  0  0  0  0  0  0  0  0  0  0  0
   10.3950    2.4970   23.0980 O   0  0  0  0  0  0  0  0  0  0  0  0
  1  2  1  0
  2  3  1  0
  3  4  2  0
  4  5  1  0
  5  6  2  0
  6  7  1  0
  7  8  1  0
  8  9  1  0
  9 10  1  0
 10 11  2  0
 10 12  1  0
 12 13  1  0
 13 14  2  0
 14 15  1  0
 15 16  2  0
 16 17  1  0
 13 18  1  0
 17 18  2  0
  3 19  1  0
  7 19  2  0
 19 20  1  0
M  END
