pyridine_urea_13285
     RDKit          3D

 19 20  0  0  0  0  0  0  0  0999 V2000
    8.9810    1.1550   21.2960 O   0  0  0  0  0  0  0  0  0  0  0  0
    8.4670    0.0670   21.6010 C   0  0  0  0  0  0  0  0  0  0  0  0
    8.9450   -0.8440   22.5280 N   0  0  0  0  0  0  0  0  0  0  0  0
    9.8210   -0.6260   23.6240 C   0  0  0  0  0  0  0  0  0  0  0  0
   10.5750    0.5440   23.6380 C   0  0  0  0  0  0  0  0  0  0  0  0
   11.9520    0.3930   23.8730 C   0  0  2  0  0  0  0  0  0  0  0  0
   12.6440    0.8920   22.9780 C   0  0  0  0  0  0  0  0  0  0  0  0
   12.7810   -0.6510   23.1760 C   0  0  2  0  0  0  0  0  0  0  0  0
   12.1730   -1.5390   22.3040 C   0  0  0  0  0  0  0  0  0  0  0  0
   12.9810   -1.8460   21.2460 F   0  0  0  0  0  0  0  0  0  0  0  0
   11.8800   -2.7070   22.9310 F   0  0  0  0  0  0  0  0  0  0  0  0
   11.0030   -1.0800   21.8050 F   0  0  0  0  0  0  0  0  0  0  0  0
    7.2920   -0.4280   21.0750 N   0  0  0  0  0  0  0  0  0  0  0  0
    6.5950    0.1340   20.0390 C   0  0  0  0  0  0  0  0  0  0  0  0
    5.4530    0.8790   20.2950 C   0  0  0  0  0  0  0  0  0  0  0  0
    4.7230    1.4770   19.3000 C   0  0  0  0  0  0  0  0  0  0  0  0
    5.1590    1.3190   17.9980 C   0  0  0  0  0  0  0  0  0  0  0  0
    6.2570    0.5970   17.6940 N   0  0  0  0  0  0  0  0  0  0  0  0
    6.9490    0.0200   18.7090 C   0  0  0  0  0  0  0  0  0  0  0  0
  1  2  2  0
  2  3  1  0
  3  4  1  0
  4  5  1  0
  6  5  1  6
  6  7  1  0
  6  8  1  0
  7  8  1  0
  8  9  1  6
  9 10  1  0
  9 11  1  0
  9 12  1  0
  2 13  1  0
 13 14  1  0
 14 15  2  0
 15 16  1  0
 16 17  2  0
 17 18  1  0
 14 19  1  0
 18 19  2  0
M  END
