pyridine_urea_6175
     RDKit          3D

 24 26  0  0  0  0  0  0  0  0999 V2000
    7.3790   -0.6090   26.4760 C   0  0  0  0  0  0  0  0  0  0  0  0
    8.3790   -0.3460   25.5010 O   0  0  0  0  0  0  0  0  0  0  0  0
    9.6730   -0.2200   26.0800 C   0  0  0  0  0  0  0  0  0  0  0  0
    9.8400    0.0960   27.2510 O   0  0  0  0  0  0  0  0  0  0  0  0
   10.7850   -0.5440   25.0520 C   0  0  0  0  0  0  0  0  0  0  0  0
   12.3590   -0.3090   25.1600 S   0  0  0  0  0  0  0  0  0  0  0  0
   12.9000   -0.8620   23.6960 C   0  0  0  0  0  0  0  0  0  0  0  0
   13.1610   -1.3470   22.4870 C   0  0  0  0  0  0  0  0  0  0  0  0
   12.5160   -2.0020   21.2660 C   0  0  0  0  0  0  0  0  0  0  0  0
   11.0500   -2.0480   21.6670 C   0  0  0  0  0  0  0  0  0  0  0  0
   10.2320   -1.7000   22.6740 C   0  0  0  0  0  0  0  0  0  0  0  0
   11.6260   -1.3960   22.9040 C   0  0  0  0  0  0  0  0  0  0  0  0
   10.5080   -1.1520   23.7590 C   0  0  0  0  0  0  0  0  0  0  0  0
    9.2010   -1.4610   23.4190 C   0  0  0  0  0  0  0  0  0  0  0  0
    8.4720   -0.2460   23.0160 N   0  0  0  0  0  0  0  0  0  0  0  0
    8.3030    0.2000   21.7150 C   0  0  0  0  0  0  0  0  0  0  0  0
    9.0430    1.3190   21.1840 O   0  0  0  0  0  0  0  0  0  0  0  0
    7.3370   -0.5150   21.0460 N   0  0  0  0  0  0  0  0  0  0  0  0
    6.5390    0.0980   20.0780 C   0  0  0  0  0  0  0  0  0  0  0  0
    5.2640    0.8270   20.3160 C   0  0  0  0  0  0  0  0  0  0  0  0
    4.5730    1.4360   19.1600 C   0  0  0  0  0  0  0  0  0  0  0  0
    5.1560    1.2940   17.9130 C   0  0  0  0  0  0  0  0  0  0  0  0
    6.3060    0.6240   17.6990 N   0  0  0  0  0  0  0  0  0  0  0  0
    6.9520    0.0550   18.7520 C   0  0  0  0  0  0  0  0  0  0  0  0
  1  2  1  0
  2  3  1  0
  3  4  2  0
  3  5  1  0
  5  6  1  0
  6  7  1  0
  7  8  2  0
  8  9  1  0
  9 10  2  0
 10 11  1  0
  7 12  1  0
 11 12  2  0
  5 13  2  0
 12 13  1  0
 13 14  1  0
 14 15  1  0
 15 16  1  0
 16 17  2  0
 16 18  1  0
 18 19  1  0
 19 20  2  0
 20 21  1  0
 21 22  2  0
 22 23  1  0
 19 24  1  0
 23 24  2  0
M  END
