pyridine_urea_14909
     RDKit          3D

 19 20  0  0  0  0  0  0  0  0999 V2000
   11.1130   -3.6490   25.5330 C   0  0  0  0  0  0  0  0  0  0  0  0
   11.1930   -2.3540   24.9490 O   0  0  0  0  0  0  0  0  0  0  0  0
    9.9990   -1.9910   24.2460 C   0  0  0  0  0  0  0  0  0  0  0  0
    8.8740   -2.3610   24.5600 O   0  0  0  0  0  0  0  0  0  0  0  0
   10.2900   -1.0850   23.0450 C   0  0  1  0  0  0  0  0  0  0  0  0
    9.3400   -1.2030   22.0620 N   0  0  0  0  0  0  0  0  0  0  0  0
    8.6460   -0.1550   21.5150 C   0  0  0  0  0  0  0  0  0  0  0  0
    9.1950    1.1480   21.2430 O   0  0  0  0  0  0  0  0  0  0  0  0
    7.2750   -0.5640   21.2330 N   0  0  0  0  0  0  0  0  0  0  0  0
    6.5950    0.0290   20.1880 C   0  0  0  0  0  0  0  0  0  0  0  0
    5.2920    0.8170   20.3960 C   0  0  0  0  0  0  0  0  0  0  0  0
    4.6020    1.4600   19.1850 C   0  0  0  0  0  0  0  0  0  0  0  0
    5.2160    1.2900   17.9560 C   0  0  0  0  0  0  0  0  0  0  0  0
    6.3320    0.6180   17.7030 N   0  0  0  0  0  0  0  0  0  0  0  0
    6.9910    0.0290   18.7140 C   0  0  0  0  0  0  0  0  0  0  0  0
   10.3110    0.3420   23.5530 C   0  0  0  0  0  0  0  0  0  0  0  0
   11.6870    0.5140   23.7970 C   0  0  0  0  0  0  0  0  0  0  0  0
   12.2850    0.0440   22.8390 O   0  0  0  0  0  0  0  0  0  0  0  0
   11.6850   -1.1860   22.4540 C   0  0  0  0  0  0  0  0  0  0  0  0
  1  2  1  0
  2  3  1  0
  3  4  2  0
  5  3  1  0
  5  6  1  6
  6  7  1  0
  7  8  2  0
  7  9  1  0
  9 10  1  0
 10 11  2  0
 11 12  1  0
 12 13  2  0
 13 14  1  0
 10 15  1  0
 14 15  2  0
  5 16  1  0
 16 17  1  0
 17 18  1  0
  5 19  1  0
 18 19  1  0
M  END
