pyridine_urea_12607
     RDKit          3D

 21 22  0  0  0  0  0  0  0  0999 V2000
    8.7860   -3.4500   24.6870 C   0  0  0  0  0  0  0  0  0  0  0  0
    9.4130   -2.6370   23.7600 N   0  0  0  0  0  0  0  0  0  0  0  0
    9.0220   -2.6590   22.3600 C   0  0  0  0  0  0  0  0  0  0  0  0
    9.8360   -1.2990   24.2550 C   0  0  0  0  0  0  0  0  0  0  0  0
    9.5020   -0.7820   25.3120 O   0  0  0  0  0  0  0  0  0  0  0  0
   10.7160   -0.5270   23.4800 C   0  0  0  0  0  0  0  0  0  0  0  0
    9.8240    0.3870   22.7580 C   0  0  0  0  0  0  0  0  0  0  0  0
    8.5860   -0.0290   22.6130 N   0  0  0  0  0  0  0  0  0  0  0  0
    8.1250    0.3960   21.4660 C   0  0  0  0  0  0  0  0  0  0  0  0
    8.6230    1.4050   20.9610 O   0  0  0  0  0  0  0  0  0  0  0  0
    7.1100   -0.3710   20.9900 N   0  0  0  0  0  0  0  0  0  0  0  0
    6.3890    0.2210   19.9280 C   0  0  0  0  0  0  0  0  0  0  0  0
    5.0860    0.9430   20.3140 C   0  0  0  0  0  0  0  0  0  0  0  0
    4.4400    1.5830   19.0910 C   0  0  0  0  0  0  0  0  0  0  0  0
    5.1090    1.4400   17.7490 C   0  0  0  0  0  0  0  0  0  0  0  0
    6.2660    0.7400   17.6010 N   0  0  0  0  0  0  0  0  0  0  0  0
    6.8950    0.1430   18.6510 C   0  0  0  0  0  0  0  0  0  0  0  0
   11.5090   -1.2360   22.5300 C   0  0  0  0  0  0  0  0  0  0  0  0
   12.8460   -0.8510   22.5270 C   0  0  0  0  0  0  0  0  0  0  0  0
   12.9130    0.1370   23.4650 C   0  0  0  0  0  0  0  0  0  0  0  0
   11.7150    0.2160   24.1190 C   0  0  0  0  0  0  0  0  0  0  0  0
  1  2  1  0
  2  3  1  0
  2  4  1  0
  4  5  2  0
  6  4  1  0
  6  7  1  0
  7  8  1  0
  8  9  1  0
  9 10  2  0
  9 11  1  0
 11 12  1  0
 12 13  2  0
 13 14  1  0
 14 15  2  0
 15 16  1  0
 12 17  1  0
 16 17  2  0
  6 18  1  0
 18 19  1  0
 19 20  1  0
  6 21  1  0
 20 21  1  0
M  END
