pyridine_urea_5191
     RDKit          3D

 20 22  0  0  0  0  0  0  0  0999 V2000
    9.0430    0.6400   21.4620 O   0  0  0  0  0  0  0  0  0  0  0  0
    8.4200   -0.3960   21.6210 C   0  0  0  0  0  0  0  0  0  0  0  0
    8.8210   -1.4840   22.3660 N   0  0  0  0  0  0  0  0  0  0  0  0
    9.9460   -1.5900   23.2120 C   0  0  0  0  0  0  0  0  0  0  0  0
   11.1620   -1.2010   22.6770 C   0  0  2  0  0  0  0  0  0  0  0  0
   12.1570   -2.1190   23.0660 C   0  0  0  0  0  0  0  0  0  0  0  0
   13.2040   -1.3650   22.9650 C   0  0  0  0  0  0  0  0  0  0  0  0
   12.4130   -0.1280   23.0470 C   0  0  0  0  0  0  0  0  0  0  0  0
   12.4990    1.0050   23.2320 C   0  0  0  0  0  0  0  0  0  0  0  0
   10.9220    1.4940   23.1360 C   0  0  0  0  0  0  0  0  0  0  0  0
   11.5130    2.4200   23.3450 C   0  0  0  0  0  0  0  0  0  0  0  0
   12.4810    1.3900   23.2820 C   0  0  0  0  0  0  0  0  0  0  0  0
   11.2150    0.3670   22.9630 C   0  0  0  0  0  0  0  0  0  0  0  0
    7.1830   -0.6460   21.0770 N   0  0  0  0  0  0  0  0  0  0  0  0
    6.5060    0.0080   20.0370 C   0  0  0  0  0  0  0  0  0  0  0  0
    5.3310    0.7220   20.3270 C   0  0  0  0  0  0  0  0  0  0  0  0
    4.6720    1.3760   19.2940 C   0  0  0  0  0  0  0  0  0  0  0  0
    5.1940    1.3010   18.0140 C   0  0  0  0  0  0  0  0  0  0  0  0
    6.3070    0.6190   17.7180 N   0  0  0  0  0  0  0  0  0  0  0  0
    6.9330   -0.0090   18.7290 C   0  0  0  0  0  0  0  0  0  0  0  0
  1  2  2  0
  2  3  1  0
  3  4  1  0
  5  4  1  1
  5  6  1  0
  6  7  1  0
  7  8  1  0
  8  9  1  0
  9 10  2  0
 10 11  1  0
 11 12  2  0
  5 13  1  0
  8 13  2  0
 12 13  1  0
  2 14  1  0
 14 15  1  0
 15 16  2  0
 16 17  1  0
 17 18  2  0
 18 19  1  0
 15 20  1  0
 19 20  2  0
M  END
