pyridine_urea_12016
     RDKit          3D

 24 26  0  0  0  0  0  0  0  0999 V2000
    8.5370    0.6640   21.1080 O   0  0  0  0  0  0  0  0  0  0  0  0
    8.2140   -0.4770   21.3770 C   0  0  0  0  0  0  0  0  0  0  0  0
    8.9430   -1.3900   22.1110 N   0  0  0  0  0  0  0  0  0  0  0  0
    9.8220   -1.0460   23.1600 C   0  0  0  0  0  0  0  0  0  0  0  0
    9.4760    0.1050   23.8720 C   0  0  1  0  0  0  0  0  0  0  0  0
   10.4340    0.7100   24.6560 C   0  0  0  0  0  0  0  0  0  0  0  0
   11.0260    1.8670   23.9360 N   0  0  0  0  0  0  0  0  0  0  0  0
   10.4100    3.1130   24.2240 C   0  0  0  0  0  0  0  0  0  0  0  0
   11.1970    4.2060   23.8050 C   0  0  0  0  0  0  0  0  0  0  0  0
   11.0790    5.4630   24.4080 C   0  0  0  0  0  0  0  0  0  0  0  0
   11.9670    6.6080   23.9040 C   0  0  0  0  0  0  0  0  0  0  0  0
   12.8690    6.3740   22.8570 C   0  0  0  0  0  0  0  0  0  0  0  0
   12.9390    5.1030   22.2980 C   0  0  0  0  0  0  0  0  0  0  0  0
   12.1340    4.0610   22.7540 C   0  0  0  0  0  0  0  0  0  0  0  0
   11.1420    1.4360   22.6620 C   0  0  0  0  0  0  0  0  0  0  0  0
    9.9230    1.2410   22.0570 C   0  0  0  0  0  0  0  0  0  0  0  0
    8.9200    0.9810   22.9160 O   0  0  0  0  0  0  0  0  0  0  0  0
    7.0080   -0.9310   20.9240 N   0  0  0  0  0  0  0  0  0  0  0  0
    6.2980   -0.1620   19.9930 C   0  0  0  0  0  0  0  0  0  0  0  0
    5.0830    0.4920   20.1850 C   0  0  0  0  0  0  0  0  0  0  0  0
    4.5230    1.2340   19.1530 C   0  0  0  0  0  0  0  0  0  0  0  0
    5.1780    1.3200   17.9360 C   0  0  0  0  0  0  0  0  0  0  0  0
    6.3500    0.6950   17.7180 N   0  0  0  0  0  0  0  0  0  0  0  0
    6.8670   -0.0200   18.7420 C   0  0  0  0  0  0  0  0  0  0  0  0
  1  2  2  0
  2  3  1  0
  3  4  1  0
  5  4  1  6
  5  6  1  0
  6  7  1  0
  7  8  1  0
  8  9  1  0
  9 10  2  0
 10 11  1  0
 11 12  2  0
 12 13  1  0
  9 14  1  0
 13 14  2  0
  7 15  1  0
 15 16  1  0
  5 17  1  0
 16 17  1  0
  2 18  1  0
 18 19  1  0
 19 20  2  0
 20 21  1  0
 21 22  2  0
 22 23  1  0
 19 24  1  0
 23 24  2  0
M  END
