pyridine_urea_6269
     RDKit          3D

 23 25  0  0  0  0  0  0  0  0999 V2000
    7.1820   -1.5300   24.9390 C   0  0  0  0  0  0  0  0  0  0  0  0
    7.5720   -2.5640   24.0420 O   0  0  0  0  0  0  0  0  0  0  0  0
    8.9860   -2.6930   23.8930 C   0  0  0  0  0  0  0  0  0  0  0  0
    9.5650   -3.7500   23.9340 O   0  0  0  0  0  0  0  0  0  0  0  0
    9.6590   -1.3400   23.6700 C   0  0  1  0  0  0  0  0  0  0  0  0
   11.0690   -1.2530   23.8270 C   0  0  0  0  0  0  0  0  0  0  0  0
   11.9540   -2.0780   24.6560 C   0  0  0  0  0  0  0  0  0  0  0  0
   13.5090   -1.9970   24.8000 C   0  0  0  0  0  0  0  0  0  0  0  0
   13.5290   -0.9380   23.8880 C   0  0  0  0  0  0  0  0  0  0  0  0
   12.3410   -1.0120   23.7980 C   0  0  0  0  0  0  0  0  0  0  0  0
   11.7470   -0.1360   22.9520 C   0  0  0  0  0  0  0  0  0  0  0  0
   10.4570    0.1130   22.5350 C   0  0  0  0  0  0  0  0  0  0  0  0
    9.8700   -1.1150   22.1890 C   0  0  2  0  0  0  0  0  0  0  0  0
    8.6570   -1.1080   21.4670 N   0  0  0  0  0  0  0  0  0  0  0  0
    8.0540    0.0570   21.2180 C   0  0  0  0  0  0  0  0  0  0  0  0
    8.7160    1.3380   21.1270 O   0  0  0  0  0  0  0  0  0  0  0  0
    6.7470   -0.2080   21.0480 N   0  0  0  0  0  0  0  0  0  0  0  0
    6.1170    0.3900   20.0020 C   0  0  0  0  0  0  0  0  0  0  0  0
    4.8610    1.1530   20.0770 C   0  0  0  0  0  0  0  0  0  0  0  0
    4.3540    1.7600   18.8290 C   0  0  0  0  0  0  0  0  0  0  0  0
    5.1240    1.5460   17.6890 C   0  0  0  0  0  0  0  0  0  0  0  0
    6.2680    0.8320   17.6320 N   0  0  0  0  0  0  0  0  0  0  0  0
    6.7280    0.2810   18.7670 C   0  0  0  0  0  0  0  0  0  0  0  0
  1  2  1  0
  2  3  1  0
  3  4  2  0
  5  3  1  6
  5  6  1  0
  6  7  2  0
  7  8  1  0
  8  9  2  0
  9 10  1  0
  6 11  1  0
 10 11  2  0
 11 12  1  0
  5 13  1  0
 12 13  1  0
 13 14  1  6
 14 15  1  0
 15 16  2  0
 15 17  1  0
 17 18  1  0
 18 19  2  0
 19 20  1  0
 20 21  2  0
 21 22  1  0
 18 23  1  0
 22 23  2  0
M  END
