pyridine_urea_6029
     RDKit          3D

 25 27  0  0  0  0  0  0  0  0999 V2000
    8.8220    0.8700   21.2340 O   0  0  0  0  0  0  0  0  0  0  0  0
    8.4350   -0.2520   21.5280 C   0  0  0  0  0  0  0  0  0  0  0  0
    9.2450   -1.0830   22.4030 N   0  0  0  0  0  0  0  0  0  0  0  0
   10.5370   -0.6010   22.5580 C   0  0  0  0  0  0  0  0  0  0  0  0
   11.6360   -1.4440   22.4300 C   0  0  0  0  0  0  0  0  0  0  0  0
   12.9090   -0.9010   22.5870 C   0  0  0  0  0  0  0  0  0  0  0  0
   13.0420    0.4600   22.8600 C   0  0  0  0  0  0  0  0  0  0  0  0
   12.0080    1.2920   22.9850 N   0  0  0  0  0  0  0  0  0  0  0  0
   10.7670    0.7420   22.8370 C   0  0  0  0  0  0  0  0  0  0  0  0
    7.2650   -0.8600   21.1150 N   0  0  0  0  0  0  0  0  0  0  0  0
    6.6140   -0.4360   19.8710 C   0  0  2  0  0  0  0  0  0  0  0  0
    7.0540    0.9200   19.4140 C   0  0  0  0  0  0  0  0  0  0  0  0
    6.0720    1.8020   19.1900 N   0  0  0  0  0  0  0  0  0  0  0  0
    5.2580    2.5930   20.0410 C   0  0  0  0  0  0  0  0  0  0  0  0
    5.8100    3.2770   21.1290 C   0  0  0  0  0  0  0  0  0  0  0  0
    6.8550    2.7620   21.8910 C   0  0  0  0  0  0  0  0  0  0  0  0
    7.3560    3.5030   22.9580 C   0  0  0  0  0  0  0  0  0  0  0  0
    6.8010    4.7420   23.2410 C   0  0  0  0  0  0  0  0  0  0  0  0
    5.7580    5.2330   22.4690 C   0  0  0  0  0  0  0  0  0  0  0  0
    5.2290    4.5290   21.3960 C   0  0  0  0  0  0  0  0  0  0  0  0
    5.2350    1.2730   18.2010 C   0  0  0  0  0  0  0  0  0  0  0  0
    4.6030    0.1810   18.7690 C   0  0  0  0  0  0  0  0  0  0  0  0
    5.0660   -0.3530   20.0170 C   0  0  2  0  0  0  0  0  0  0  0  0
    4.5910    0.2510   21.2040 C   0  0  0  0  0  0  0  0  0  0  0  0
    4.2590   -0.7450   22.1780 O   0  0  0  0  0  0  0  0  0  0  0  0
  1  2  2  0
  2  3  1  0
  3  4  1  0
  4  5  2  0
  5  6  1  0
  6  7  2  0
  7  8  1  0
  4  9  1  0
  8  9  2  0
  2 10  1  0
 11 10  1  1
 11 12  1  0
 12 13  1  0
 13 14  1  0
 14 15  1  0
 15 16  2  0
 16 17  1  0
 17 18  2  0
 18 19  1  0
 15 20  1  0
 19 20  2  0
 13 21  1  0
 21 22  1  0
 11 23  1  0
 22 23  1  0
 23 24  1  1
 24 25  1  0
M  END
