pyridine_urea_5918
     RDKit          3D

 27 28  0  0  0  0  0  0  0  0999 V2000
    2.7910    1.6930   20.4930 C   0  0  0  0  0  0  0  0  0  0  0  0
    3.3080    2.2010   19.1960 C   0  0  0  0  0  0  0  0  0  0  0  0
    2.7430    3.3870   18.7460 C   0  0  0  0  0  0  0  0  0  0  0  0
    4.8220    2.4200   19.3390 C   0  0  1  0  0  0  0  0  0  0  0  0
    5.0660    2.8840   20.6540 C   0  0  0  0  0  0  0  0  0  0  0  0
    6.2440    2.8950   20.9610 O   0  0  0  0  0  0  0  0  0  0  0  0
    4.1440    3.2200   21.3910 O   0  0  0  0  0  0  0  0  0  0  0  0
    4.0570    4.5510   21.7770 C   0  0  0  0  0  0  0  0  0  0  0  0
    5.4590    5.1450   21.6270 C   0  0  0  0  0  0  0  0  0  0  0  0
    4.2640    5.7590   20.9040 C   0  0  0  0  0  0  0  0  0  0  0  0
    3.8010    4.7590   23.2710 C   0  0  0  0  0  0  0  0  0  0  0  0
    5.5340    1.4220   18.8300 N   0  0  0  0  0  0  0  0  0  0  0  0
    4.9010    0.2430   18.6620 C   0  0  0  0  0  0  0  0  0  0  0  0
    5.4340   -0.7950   19.3840 C   0  0  0  0  0  0  0  0  0  0  0  0
    6.7380   -0.5120   19.7670 C   0  0  2  0  0  0  0  0  0  0  0  0
    7.3650   -0.7390   20.9820 N   0  0  0  0  0  0  0  0  0  0  0  0
    8.5440   -0.1550   21.5010 C   0  0  0  0  0  0  0  0  0  0  0  0
    8.9650    1.1300   21.1950 O   0  0  0  0  0  0  0  0  0  0  0  0
    9.2130   -1.0030   22.3090 N   0  0  0  0  0  0  0  0  0  0  0  0
   10.4790   -0.5770   22.5030 C   0  0  0  0  0  0  0  0  0  0  0  0
   11.5580   -1.4290   22.2860 C   0  0  0  0  0  0  0  0  0  0  0  0
   12.8490   -0.9700   22.4750 C   0  0  0  0  0  0  0  0  0  0  0  0
   13.0420    0.3400   22.8780 C   0  0  0  0  0  0  0  0  0  0  0  0
   12.0590    1.1990   23.1010 N   0  0  0  0  0  0  0  0  0  0  0  0
   10.7930    0.7190   22.9120 C   0  0  0  0  0  0  0  0  0  0  0  0
    6.7600    1.0090   19.5440 C   0  0  0  0  0  0  0  0  0  0  0  0
    7.7380    1.8460   19.9800 O   0  0  0  0  0  0  0  0  0  0  0  0
  1  2  1  0
  2  3  1  0
  4  2  1  1
  4  5  1  0
  5  6  2  0
  5  7  1  0
  8  7  1  0
  8  9  1  0
  8 10  1  0
  8 11  1  0
  4 12  1  0
 12 13  1  0
 13 14  1  0
 14 15  1  0
 15 16  1  1
 16 17  1  0
 17 18  2  0
 17 19  1  0
 19 20  1  0
 20 21  2  0
 21 22  1  0
 22 23  2  0
 23 24  1  0
 20 25  1  0
 24 25  2  0
 12 26  1  0
 15 26  1  0
 26 27  2  0
M  END
