pyridine_urea_2273
     RDKit          3D

 26 28  0  0  0  0  0  0  0  0999 V2000
    9.0190    1.2600   21.1680 O   0  0  0  0  0  0  0  0  0  0  0  0
    8.6500    0.1140   21.4560 C   0  0  0  0  0  0  0  0  0  0  0  0
    9.3050   -0.7250   22.3430 N   0  0  0  0  0  0  0  0  0  0  0  0
   10.5340   -1.4180   22.1860 C   0  0  0  0  0  0  0  0  0  0  0  0
   11.8800   -0.8860   22.7080 C   0  0  0  0  0  0  0  0  0  0  0  0
   11.6310    0.4270   23.4370 C   0  0  0  0  0  0  0  0  0  0  0  0
   12.5140    1.2270   23.1560 O   0  0  0  0  0  0  0  0  0  0  0  0
   10.5250    0.5620   24.2620 N   0  0  0  0  0  0  0  0  0  0  0  0
   10.1860   -0.3990   25.2360 C   0  0  0  0  0  0  0  0  0  0  0  0
    9.1230   -0.0450   26.0570 C   0  0  0  0  0  0  0  0  0  0  0  0
    7.9730   -0.1760   25.2210 N   0  0  0  0  0  0  0  0  0  0  0  0
    7.4290   -1.4870   24.8840 C   0  0  0  0  0  0  0  0  0  0  0  0
    8.1460   -2.3090   23.9830 C   0  0  0  0  0  0  0  0  0  0  0  0
    7.6800   -3.5700   23.6200 C   0  0  0  0  0  0  0  0  0  0  0  0
    6.4870   -3.9790   24.1820 C   0  0  0  0  0  0  0  0  0  0  0  0
    5.7890   -3.1540   25.0770 C   0  0  0  0  0  0  0  0  0  0  0  0
    6.2030   -1.9260   25.4560 N   0  0  0  0  0  0  0  0  0  0  0  0
    8.0560    0.6850   24.1810 C   0  0  0  0  0  0  0  0  0  0  0  0
    9.4280    1.3600   23.9430 C   0  0  0  0  0  0  0  0  0  0  0  0
    7.5060   -0.4810   20.9470 N   0  0  0  0  0  0  0  0  0  0  0  0
    6.6910    0.1000   20.0350 C   0  0  0  0  0  0  0  0  0  0  0  0
    5.5440    0.8100   20.3710 C   0  0  0  0  0  0  0  0  0  0  0  0
    4.7610    1.3960   19.3980 C   0  0  0  0  0  0  0  0  0  0  0  0
    5.1450    1.2610   18.0910 C   0  0  0  0  0  0  0  0  0  0  0  0
    6.2360    0.5810   17.7020 N   0  0  0  0  0  0  0  0  0  0  0  0
    6.9840    0.0140   18.6860 C   0  0  0  0  0  0  0  0  0  0  0  0
  1  2  2  0
  2  3  1  0
  3  4  1  0
  4  5  1  0
  5  6  1  0
  6  7  2  0
  6  8  1  0
  8  9  1  0
  9 10  1  0
 10 11  1  0
 11 12  1  0
 12 13  2  0
 13 14  1  0
 14 15  2  0
 15 16  1  0
 12 17  1  0
 16 17  2  0
 11 18  1  0
  8 19  1  0
 18 19  1  0
  2 20  1  0
 20 21  1  0
 21 22  2  0
 22 23  1  0
 23 24  2  0
 24 25  1  0
 21 26  1  0
 25 26  2  0
M  END
