pyridine_urea_11752
     RDKit          3D

 26 28  0  0  0  0  0  0  0  0999 V2000
    7.2760    3.0180   28.1890 C   0  0  0  0  0  0  0  0  0  0  0  0
    6.8180    1.6190   28.4860 C   0  0  0  0  0  0  0  0  0  0  0  0
    5.8330    1.4520   29.5250 O   0  0  0  0  0  0  0  0  0  0  0  0
    7.3400    0.4720   27.7590 N   0  0  0  0  0  0  0  0  0  0  0  0
    7.0470    0.2840   26.4280 C   0  0  0  0  0  0  0  0  0  0  0  0
    7.8770    0.9670   25.5290 C   0  0  0  0  0  0  0  0  0  0  0  0
    9.2530    0.7200   25.7140 N   0  0  0  0  0  0  0  0  0  0  0  0
   10.1010    0.3060   24.6390 C   0  0  0  0  0  0  0  0  0  0  0  0
    9.5780   -0.7140   24.0780 C   0  0  0  0  0  0  0  0  0  0  0  0
   10.1270   -1.3210   23.0330 C   0  0  0  0  0  0  0  0  0  0  0  0
   11.3980   -1.1400   22.1570 C   0  0  0  0  0  0  0  0  0  0  0  0
   10.5530   -2.1510   21.8370 C   0  0  0  0  0  0  0  0  0  0  0  0
    9.1880   -1.8750   21.7910 N   0  0  0  0  0  0  0  0  0  0  0  0
    8.6070   -0.6720   21.4080 C   0  0  0  0  0  0  0  0  0  0  0  0
    9.2200    0.5510   21.3490 O   0  0  0  0  0  0  0  0  0  0  0  0
    7.2820   -0.8670   21.1080 N   0  0  0  0  0  0  0  0  0  0  0  0
    6.6630   -0.1780   20.0900 C   0  0  0  0  0  0  0  0  0  0  0  0
    5.5340    0.5670   20.4880 C   0  0  0  0  0  0  0  0  0  0  0  0
    4.7780    1.3340   19.5700 C   0  0  0  0  0  0  0  0  0  0  0  0
    5.2910    1.2750   18.1520 C   0  0  0  0  0  0  0  0  0  0  0  0
    6.3890    0.5360   17.8150 N   0  0  0  0  0  0  0  0  0  0  0  0
    7.0710   -0.1900   18.7780 C   0  0  0  0  0  0  0  0  0  0  0  0
   11.8630    0.1160   23.0220 C   0  0  0  0  0  0  0  0  0  0  0  0
   11.2980    0.7700   24.1190 C   0  0  0  0  0  0  0  0  0  0  0  0
    9.3850   -0.0910   26.7860 C   0  0  0  0  0  0  0  0  0  0  0  0
    8.7820    0.2990   27.9710 C   0  0  0  0  0  0  0  0  0  0  0  0
  1  2  1  0
  2  3  2  0
  2  4  1  0
  4  5  1  0
  5  6  1  0
  6  7  1  0
  7  8  1  0
  8  9  2  0
  9 10  1  0
 10 11  2  0
 11 12  1  0
 12 13  1  0
 13 14  1  0
 14 15  2  0
 14 16  1  0
 16 17  1  0
 17 18  2  0
 18 19  1  0
 19 20  2  0
 20 21  1  0
 17 22  1  0
 21 22  2  0
 11 23  1  0
  8 24  1  0
 23 24  2  0
  7 25  1  0
  4 26  1  0
 25 26  1  0
M  END
