pyridine_urea_11675
     RDKit          3D

 28 31  0  0  0  0  0  0  0  0999 V2000
    8.7580    0.7220   21.3380 O   0  0  0  0  0  0  0  0  0  0  0  0
    8.2510   -0.3700   21.5790 C   0  0  0  0  0  0  0  0  0  0  0  0
    7.0660   -0.8110   21.0550 N   0  0  0  0  0  0  0  0  0  0  0  0
    6.4230   -0.1140   20.0200 C   0  0  0  0  0  0  0  0  0  0  0  0
    5.2360    0.5810   20.2800 C   0  0  0  0  0  0  0  0  0  0  0  0
    4.6030    1.2910   19.2540 C   0  0  0  0  0  0  0  0  0  0  0  0
    5.1850    1.2780   18.0010 C   0  0  0  0  0  0  0  0  0  0  0  0
    6.3190    0.6130   17.7340 N   0  0  0  0  0  0  0  0  0  0  0  0
    6.9080   -0.0640   18.7360 C   0  0  0  0  0  0  0  0  0  0  0  0
    8.8840   -1.2520   22.4210 N   0  0  0  0  0  0  0  0  0  0  0  0
   10.2370   -0.8280   22.7250 C   0  0  0  0  0  0  0  0  0  0  0  0
   10.3340    0.2750   23.6860 C   0  0  0  0  0  0  0  0  0  0  0  0
    8.9610    0.6090   24.0520 O   0  0  0  0  0  0  0  0  0  0  0  0
    8.6420    0.6990   25.3860 C   0  0  0  0  0  0  0  0  0  0  0  0
    7.5230    1.3930   25.8340 C   0  0  0  0  0  0  0  0  0  0  0  0
    7.2120    1.4860   27.1700 C   0  0  0  0  0  0  0  0  0  0  0  0
    7.9880    0.9010   28.1370 C   0  0  0  0  0  0  0  0  0  0  0  0
    7.5360    1.0620   29.7840 Cl  0  0  0  0  0  0  0  0  0  0  0  0
    9.1300    0.1800   27.8460 C   0  0  0  0  0  0  0  0  0  0  0  0
    9.5330    0.0340   26.3860 C   0  0  0  0  0  0  0  0  0  0  0  0
   11.7500    0.8680   24.0880 C   0  0  0  0  0  0  0  0  0  0  0  0
   12.6460    0.1300   23.3380 C   0  0  0  0  0  0  0  0  0  0  0  0
   12.4970   -0.8640   22.4620 C   0  0  0  0  0  0  0  0  0  0  0  0
   13.5640   -1.3600   21.8690 N   0  0  0  0  0  0  0  0  0  0  0  0
   13.3800   -2.3550   20.9370 C   0  0  0  0  0  0  0  0  0  0  0  0
   12.1920   -2.8140   20.6790 C   0  0  0  0  0  0  0  0  0  0  0  0
   11.1120   -2.3270   21.3110 C   0  0  0  0  0  0  0  0  0  0  0  0
   11.2880   -1.3470   22.1700 C   0  0  0  0  0  0  0  0  0  0  0  0
  1  2  2  0
  2  3  1  0
  3  4  1  0
  4  5  2  0
  5  6  1  0
  6  7  2  0
  7  8  1  0
  4  9  1  0
  8  9  2  0
  2 10  1  0
 10 11  1  0
 11 12  1  0
 12 13  1  0
 13 14  1  0
 14 15  2  0
 15 16  1  0
 16 17  2  0
 17 18  1  0
 17 19  1  0
 14 20  1  0
 19 20  2  0
 12 21  2  0
 21 22  1  0
 22 23  2  0
 23 24  1  0
 24 25  2  0
 25 26  1  0
 26 27  2  0
 11 28  2  0
 23 28  1  0
 27 28  1  0
M  END
