pyridine_urea_10584
     RDKit          3D

 21 23  0  0  0  0  0  0  0  0999 V2000
    8.8330    1.7790   20.9440 O   0  0  0  0  0  0  0  0  0  0  0  0
    8.3060    0.8750   21.5640 C   0  0  0  0  0  0  0  0  0  0  0  0
    7.3750   -0.0300   21.1160 N   0  0  0  0  0  0  0  0  0  0  0  0
    6.5230    0.3860   20.1210 C   0  0  0  0  0  0  0  0  0  0  0  0
    5.2040    1.1100   20.4050 C   0  0  0  0  0  0  0  0  0  0  0  0
    4.4580    1.5180   19.1540 C   0  0  0  0  0  0  0  0  0  0  0  0
    5.0920    1.1660   17.8520 C   0  0  0  0  0  0  0  0  0  0  0  0
    6.2460    0.5120   17.7160 N   0  0  0  0  0  0  0  0  0  0  0  0
    6.9120    0.1460   18.8160 C   0  0  0  0  0  0  0  0  0  0  0  0
    8.6460    0.6860   22.8430 N   0  0  0  0  0  0  0  0  0  0  0  0
    9.8150   -0.0460   22.9760 C   0  0  0  0  0  0  0  0  0  0  0  0
   10.1860   -0.8100   21.8920 C   0  0  0  0  0  0  0  0  0  0  0  0
   11.2640   -1.5560   21.9560 C   0  0  0  0  0  0  0  0  0  0  0  0
   11.6510   -2.2660   21.0470 O   0  0  0  0  0  0  0  0  0  0  0  0
   11.9680   -1.5900   23.0310 C   0  0  0  0  0  0  0  0  0  0  0  0
   12.9950   -2.4470   22.9280 C   0  0  0  0  0  0  0  0  0  0  0  0
   13.8520   -2.6810   23.9480 C   0  0  0  0  0  0  0  0  0  0  0  0
   13.5400   -1.8570   25.1780 C   0  0  0  0  0  0  0  0  0  0  0  0
   12.4950   -1.0050   25.1630 C   0  0  0  0  0  0  0  0  0  0  0  0
   11.6670   -0.8420   24.1420 C   0  0  0  0  0  0  0  0  0  0  0  0
   10.5580   -0.0110   24.1520 C   0  0  0  0  0  0  0  0  0  0  0  0
  1  2  2  0
  2  3  1  0
  3  4  1  0
  4  5  2  0
  5  6  1  0
  6  7  2  0
  7  8  1  0
  4  9  1  0
  8  9  2  0
  2 10  1  0
 10 11  1  0
 11 12  2  0
 12 13  1  0
 13 14  1  0
 13 15  2  0
 15 16  1  0
 16 17  2  0
 17 18  1  0
 18 19  2  0
 15 20  1  0
 19 20  1  0
 11 21  1  0
 20 21  2  0
M  END
