pyridine_urea_13336
     RDKit          3D

 21 22  0  0  0  0  0  0  0  0999 V2000
    8.8100    1.4510   21.1110 O   0  0  0  0  0  0  0  0  0  0  0  0
    8.3410    0.4080   21.5760 C   0  0  0  0  0  0  0  0  0  0  0  0
    8.8240   -0.2120   22.6770 N   0  0  0  0  0  0  0  0  0  0  0  0
   10.1670   -0.5410   22.7870 C   0  0  0  0  0  0  0  0  0  0  0  0
   10.9480    0.0740   23.7770 C   0  0  1  0  0  0  0  0  0  0  0  0
   10.2030    0.1010   24.7590 O   0  0  0  0  0  0  0  0  0  0  0  0
   11.9810   -0.7970   24.1210 C   0  0  0  0  0  0  0  0  0  0  0  0
   12.3780   -0.9610   25.3340 C   0  0  0  0  0  0  0  0  0  0  0  0
   12.9950   -1.7720   24.2990 C   0  0  0  0  0  0  0  0  0  0  0  0
   13.8610   -2.4560   25.6040 Cl  0  0  0  0  0  0  0  0  0  0  0  0
   12.0460   -0.9140   23.5250 C   0  0  0  0  0  0  0  0  0  0  0  0
   12.0840   -1.2360   22.0670 C   0  0  0  0  0  0  0  0  0  0  0  0
   13.0220   -2.4210   21.0230 Br  0  0  0  0  0  0  0  0  0  0  0  0
   12.6770   -1.6190   23.1410 C   0  0  0  0  0  0  0  0  0  0  0  0
    7.2730   -0.2820   21.0650 N   0  0  0  0  0  0  0  0  0  0  0  0
    6.5430    0.2380   20.0090 C   0  0  0  0  0  0  0  0  0  0  0  0
    5.3760    0.9500   20.2780 C   0  0  0  0  0  0  0  0  0  0  0  0
    4.6550    1.4960   19.2120 C   0  0  0  0  0  0  0  0  0  0  0  0
    5.1340    1.3060   17.9260 C   0  0  0  0  0  0  0  0  0  0  0  0
    6.2430    0.6150   17.6540 N   0  0  0  0  0  0  0  0  0  0  0  0
    6.9220    0.0970   18.6920 C   0  0  0  0  0  0  0  0  0  0  0  0
  1  2  2  0
  2  3  1  0
  3  4  1  0
  4  5  1  0
  5  6  1  1
  5  7  1  0
  7  8  2  0
  8  9  1  0
  9 10  1  0
  9 11  2  0
 11 12  1  0
 12 13  1  0
  7 14  1  0
 12 14  2  0
  2 15  1  0
 15 16  1  0
 16 17  2  0
 17 18  1  0
 18 19  2  0
 19 20  1  0
 16 21  1  0
 20 21  2  0
M  END
