pyridine_urea_925
     RDKit          3D

 22 23  0  0  0  0  0  0  0  0999 V2000
    9.6690    0.8530   23.2660 C   0  0  0  0  0  0  0  0  0  0  0  0
   10.1000   -0.5800   23.1060 C   0  0  1  0  0  0  0  0  0  0  0  0
    9.3610   -1.1380   21.9900 N   0  0  0  0  0  0  0  0  0  0  0  0
    8.5040   -0.2440   21.3950 C   0  0  0  0  0  0  0  0  0  0  0  0
    8.8380    0.9060   21.1650 O   0  0  0  0  0  0  0  0  0  0  0  0
    7.2630   -0.7160   21.0740 N   0  0  0  0  0  0  0  0  0  0  0  0
    6.4800   -0.0360   20.0240 C   0  0  0  0  0  0  0  0  0  0  0  0
    5.3090    0.6300   20.3830 C   0  0  0  0  0  0  0  0  0  0  0  0
    4.5190    1.3520   19.3550 C   0  0  0  0  0  0  0  0  0  0  0  0
    5.1160    1.2720   17.9680 C   0  0  0  0  0  0  0  0  0  0  0  0
    6.2480    0.6000   17.6820 N   0  0  0  0  0  0  0  0  0  0  0  0
    6.8880   -0.0250   18.7010 C   0  0  0  0  0  0  0  0  0  0  0  0
   11.6240   -0.8480   23.0520 C   0  0  0  0  0  0  0  0  0  0  0  0
   12.1120   -1.9860   23.1120 C   0  0  0  0  0  0  0  0  0  0  0  0
   12.9160   -0.7950   23.0100 C   0  0  0  0  0  0  0  0  0  0  0  0
   11.6310    0.0650   22.9730 C   0  0  0  0  0  0  0  0  0  0  0  0
   10.5570    1.4320   22.8900 S   0  0  0  0  0  0  0  0  0  0  0  0
   11.5140    2.9740   22.7440 C   0  0  0  0  0  0  0  0  0  0  0  0
   11.1390    3.8420   23.7010 F   0  0  0  0  0  0  0  0  0  0  0  0
   12.8320    2.7610   22.9210 F   0  0  0  0  0  0  0  0  0  0  0  0
   12.6370    1.1960   22.8810 C   0  0  0  0  0  0  0  0  0  0  0  0
   12.8560   -0.0570   22.9530 C   0  0  0  0  0  0  0  0  0  0  0  0
  2  1  1  6
  2  3  1  0
  3  4  1  0
  4  5  2  0
  4  6  1  0
  6  7  1  0
  7  8  2  0
  8  9  1  0
  9 10  2  0
 10 11  1  0
  7 12  1  0
 11 12  2  0
  2 13  1  0
 13 14  2  0
 14 15  1  0
 15 16  2  0
 16 17  1  0
 17 18  1  0
 18 19  1  0
 18 20  1  0
 16 21  1  0
 13 22  1  0
 21 22  2  0
M  END
