pyridine_urea_1255
     RDKit          3D

 21 22  0  0  0  0  0  0  0  0999 V2000
   12.9650   -2.3760   21.3810 C   0  0  0  0  0  0  0  0  0  0  0  0
   13.1460   -2.5840   23.1490 S   0  0  0  0  0  0  0  0  0  0  0  0
   11.8830   -2.9040   23.7800 O   0  0  0  0  0  0  0  0  0  0  0  0
   14.3270   -3.2840   23.4870 O   0  0  0  0  0  0  0  0  0  0  0  0
   13.5490   -1.0320   23.4540 N   0  0  0  0  0  0  0  0  0  0  0  0
   12.4600   -0.2320   23.1800 C   0  0  0  0  0  0  0  0  0  0  0  0
   12.6710    1.2470   23.0910 C   0  0  0  0  0  0  0  0  0  0  0  0
   11.6030    2.0400   22.8530 C   0  0  0  0  0  0  0  0  0  0  0  0
   10.3240    1.5300   22.6770 C   0  0  0  0  0  0  0  0  0  0  0  0
   10.0470    0.1580   22.7210 C   0  0  0  0  0  0  0  0  0  0  0  0
    8.8200   -0.3680   22.5230 N   0  0  0  0  0  0  0  0  0  0  0  0
    8.0840    0.1190   21.4520 C   0  0  0  0  0  0  0  0  0  0  0  0
    8.4830    1.1850   20.9660 O   0  0  0  0  0  0  0  0  0  0  0  0
    7.0180   -0.5790   21.0390 N   0  0  0  0  0  0  0  0  0  0  0  0
    6.4050    0.0330   20.0140 C   0  0  0  0  0  0  0  0  0  0  0  0
    5.2280    0.7300   20.2410 C   0  0  0  0  0  0  0  0  0  0  0  0
    4.5910    1.3870   19.1930 C   0  0  0  0  0  0  0  0  0  0  0  0
    5.1780    1.3130   17.9280 C   0  0  0  0  0  0  0  0  0  0  0  0
    6.3080    0.6370   17.6890 N   0  0  0  0  0  0  0  0  0  0  0  0
    6.8960    0.0130   18.7240 C   0  0  0  0  0  0  0  0  0  0  0  0
   11.2160   -0.7840   22.9980 C   0  0  0  0  0  0  0  0  0  0  0  0
  1  2  1  0
  2  3  2  0
  2  4  2  0
  2  5  1  0
  5  6  1  0
  6  7  2  0
  7  8  1  0
  8  9  2  0
  9 10  1  0
 10 11  1  0
 11 12  1  0
 12 13  2  0
 12 14  1  0
 14 15  1  0
 15 16  2  0
 16 17  1  0
 17 18  2  0
 18 19  1  0
 15 20  1  0
 19 20  2  0
  6 21  1  0
 10 21  2  0
M  END
