pyridine_urea_4416
     RDKit          3D

 23 25  0  0  0  0  0  0  0  0999 V2000
    5.9600   -2.5580   22.8380 C   0  0  0  0  0  0  0  0  0  0  0  0
    6.9340   -2.3110   23.8460 O   0  0  0  0  0  0  0  0  0  0  0  0
    7.1640   -0.9140   24.0670 C   0  0  0  0  0  0  0  0  0  0  0  0
    6.3410   -0.0260   23.8760 O   0  0  0  0  0  0  0  0  0  0  0  0
    8.5730   -0.6590   24.5990 C   0  0  0  0  0  0  0  0  0  0  0  0
    8.8510   -0.2800   25.8550 N   0  0  0  0  0  0  0  0  0  0  0  0
   10.2140   -0.1400   26.0460 N   0  0  0  0  0  0  0  0  0  0  0  0
   10.8640   -0.4360   24.8380 C   0  0  0  0  0  0  0  0  0  0  0  0
   12.3210   -0.4610   24.4000 C   0  0  0  0  0  0  0  0  0  0  0  0
   12.6730   -0.8680   22.9700 C   0  0  0  0  0  0  0  0  0  0  0  0
   11.5040   -1.2310   22.0290 C   0  0  0  0  0  0  0  0  0  0  0  0
   10.1720   -1.1670   22.4810 C   0  0  0  0  0  0  0  0  0  0  0  0
    9.1030   -1.4410   21.7300 N   0  0  0  0  0  0  0  0  0  0  0  0
    8.3870   -0.3400   21.3600 C   0  0  0  0  0  0  0  0  0  0  0  0
    8.8570    0.7900   21.2680 O   0  0  0  0  0  0  0  0  0  0  0  0
    7.0930   -0.6320   21.1050 N   0  0  0  0  0  0  0  0  0  0  0  0
    6.5280   -0.0300   20.0300 C   0  0  0  0  0  0  0  0  0  0  0  0
    5.3810    0.6750   20.4000 C   0  0  0  0  0  0  0  0  0  0  0  0
    4.6800    1.3660   19.4070 C   0  0  0  0  0  0  0  0  0  0  0  0
    5.2150    1.2960   18.0220 C   0  0  0  0  0  0  0  0  0  0  0  0
    6.3160    0.6020   17.7110 N   0  0  0  0  0  0  0  0  0  0  0  0
    6.9480   -0.0470   18.7170 C   0  0  0  0  0  0  0  0  0  0  0  0
    9.8630   -0.8100   23.7750 C   0  0  0  0  0  0  0  0  0  0  0  0
  1  2  1  0
  2  3  1  0
  3  4  2  0
  3  5  1  0
  5  6  1  0
  6  7  1  0
  7  8  2  0
  8  9  1  0
  9 10  2  0
 10 11  1  0
 11 12  2  0
 12 13  1  0
 13 14  1  0
 14 15  2  0
 14 16  1  0
 16 17  1  0
 17 18  2  0
 18 19  1  0
 19 20  2  0
 20 21  1  0
 17 22  1  0
 21 22  2  0
  5 23  2  0
  8 23  1  0
 12 23  1  0
M  END
