pyridine_urea_3660
     RDKit          3D

 15 15  0  0  0  0  0  0  0  0999 V2000
   13.2090   -1.6690   21.2060 C   0  0  0  0  0  0  0  0  0  0  0  0
   12.5440   -0.9530   22.3790 C   0  0  0  0  0  0  0  0  0  0  0  0
   13.0710    0.3400   22.9910 C   0  0  0  0  0  0  0  0  0  0  0  0
   11.2900   -1.5900   22.9130 C   0  0  0  0  0  0  0  0  0  0  0  0
   10.1700   -0.6070   23.1870 C   0  0  0  0  0  0  0  0  0  0  0  0
    8.9970   -0.9080   22.4050 N   0  0  0  0  0  0  0  0  0  0  0  0
    8.4690    0.0230   21.5340 C   0  0  0  0  0  0  0  0  0  0  0  0
    9.0180    1.1010   21.2620 O   0  0  0  0  0  0  0  0  0  0  0  0
    7.2650   -0.4340   21.0620 N   0  0  0  0  0  0  0  0  0  0  0  0
    6.5500    0.1480   20.0160 C   0  0  0  0  0  0  0  0  0  0  0  0
    5.3880    0.8660   20.3030 C   0  0  0  0  0  0  0  0  0  0  0  0
    4.6740    1.4640   19.2690 C   0  0  0  0  0  0  0  0  0  0  0  0
    5.1530    1.3170   17.9850 C   0  0  0  0  0  0  0  0  0  0  0  0
    6.2600    0.6230   17.6870 N   0  0  0  0  0  0  0  0  0  0  0  0
    6.9310    0.0550   18.7030 C   0  0  0  0  0  0  0  0  0  0  0  0
  1  2  2  3
  2  3  1  0
  2  4  1  0
  4  5  1  0
  5  6  1  0
  6  7  1  0
  7  8  2  0
  7  9  1  0
  9 10  1  0
 10 11  2  0
 11 12  1  0
 12 13  2  0
 13 14  1  0
 10 15  1  0
 14 15  2  0
M  END
