pyridine_urea_15107
     RDKit          3D

 18 20  0  0  0  0  0  0  0  0999 V2000
   13.3370   -0.3780   22.8780 C   0  0  0  0  0  0  0  0  0  0  0  0
   12.6950   -1.1370   24.0400 C   0  0  0  0  0  0  0  0  0  0  0  0
   13.4730   -2.0700   24.9540 C   0  0  0  0  0  0  0  0  0  0  0  0
   11.4350   -0.4640   24.6140 C   0  0  1  0  0  0  0  0  0  0  0  0
   10.5310    0.4260   23.7900 C   0  0  0  0  0  0  0  0  0  0  0  0
   10.1940   -0.1920   22.4670 C   0  0  2  0  0  0  0  0  0  0  0  0
    8.7910   -0.4990   22.4110 N   0  0  0  0  0  0  0  0  0  0  0  0
    8.1550    0.1780   21.4270 C   0  0  0  0  0  0  0  0  0  0  0  0
    8.5700    1.2690   21.0190 O   0  0  0  0  0  0  0  0  0  0  0  0
    6.9830   -0.5450   20.9740 N   0  0  0  0  0  0  0  0  0  0  0  0
    6.2820    0.1210   19.9820 C   0  0  0  0  0  0  0  0  0  0  0  0
    5.0740    0.7950   20.1610 C   0  0  0  0  0  0  0  0  0  0  0  0
    4.5430    1.4170   19.0580 C   0  0  0  0  0  0  0  0  0  0  0  0
    5.1920    1.3630   17.8470 C   0  0  0  0  0  0  0  0  0  0  0  0
    6.3420    0.7160   17.6490 N   0  0  0  0  0  0  0  0  0  0  0  0
    6.8580    0.1090   18.7250 C   0  0  0  0  0  0  0  0  0  0  0  0
   11.0300   -1.4270   22.4110 C   0  0  0  0  0  0  0  0  0  0  0  0
   11.5970   -1.7210   23.6200 C   0  0  1  0  0  0  0  0  0  0  0  0
  2  1  1  0
  2  3  1  0
  2  4  1  0
  4  5  1  6
  5  6  1  0
  6  7  1  1
  7  8  1  0
  8  9  2  0
  8 10  1  0
 10 11  1  0
 11 12  2  0
 12 13  1  0
 13 14  2  0
 14 15  1  0
 11 16  1  0
 15 16  2  0
  6 17  1  0
  2 18  1  0
  4 18  1  0
 18 17  1  6
M  END
