pyridine_urea_4542
     RDKit          3D

 23 25  0  0  0  0  0  0  0  0999 V2000
    8.4570    0.9580   21.2870 O   0  0  0  0  0  0  0  0  0  0  0  0
    8.1330   -0.1840   21.5950 C   0  0  0  0  0  0  0  0  0  0  0  0
    7.0180   -0.8050   21.0880 N   0  0  0  0  0  0  0  0  0  0  0  0
    6.3940   -0.0770   20.0220 C   0  0  0  0  0  0  0  0  0  0  0  0
    5.1060    0.6760   20.3430 C   0  0  0  0  0  0  0  0  0  0  0  0
    4.4540    1.4630   19.2120 C   0  0  0  0  0  0  0  0  0  0  0  0
    5.1770    1.4060   17.8680 C   0  0  0  0  0  0  0  0  0  0  0  0
    6.3530    0.6590   17.7370 N   0  0  0  0  0  0  0  0  0  0  0  0
    6.9250   -0.0430   18.7560 C   0  0  0  0  0  0  0  0  0  0  0  0
    8.8510   -0.9690   22.4630 N   0  0  0  0  0  0  0  0  0  0  0  0
   10.2270   -0.8460   22.2740 C   0  0  2  0  0  0  0  0  0  0  0  0
   10.9690   -1.9730   21.9270 C   0  0  0  0  0  0  0  0  0  0  0  0
   11.6400   -2.6560   22.8250 N   0  0  0  0  0  0  0  0  0  0  0  0
   11.2900   -2.4640   24.1330 C   0  0  0  0  0  0  0  0  0  0  0  0
   12.4400   -2.0340   24.7250 C   0  0  0  0  0  0  0  0  0  0  0  0
   13.3840   -1.9450   23.7270 C   0  0  0  0  0  0  0  0  0  0  0  0
   12.8660   -2.1930   22.4560 C   0  0  0  0  0  0  0  0  0  0  0  0
   10.9400   -0.0090   23.2880 C   0  0  0  0  0  0  0  0  0  0  0  0
    9.8780    0.0340   24.1710 C   0  0  0  0  0  0  0  0  0  0  0  0
   11.0590    0.5870   24.2990 C   0  0  0  0  0  0  0  0  0  0  0  0
   12.0310    0.4020   23.2330 C   0  0  0  0  0  0  0  0  0  0  0  0
   13.2080    0.6130   22.7320 C   0  0  0  0  0  0  0  0  0  0  0  0
   12.2740    0.7520   23.6870 C   0  0  0  0  0  0  0  0  0  0  0  0
  1  2  2  0
  2  3  1  0
  3  4  1  0
  4  5  2  0
  5  6  1  0
  6  7  2  0
  7  8  1  0
  4  9  1  0
  8  9  2  0
  2 10  1  0
 10 11  1  0
 11 12  1  1
 12 13  1  0
 13 14  1  0
 14 15  1  0
 15 16  1  0
 13 17  1  0
 16 17  1  0
 11 18  1  0
 18 19  2  0
 19 20  1  0
 20 21  2  0
 21 22  1  0
 18 23  1  0
 22 23  2  0
M  END
