pyridine_urea_1312
     RDKit          3D

 20 20  0  0  0  0  0  0  0  0999 V2000
   12.9240   -0.4170   22.5380 C   0  0  0  0  0  0  0  0  0  0  0  0
   11.5280   -1.0780   22.3880 C   0  0  0  0  0  0  0  0  0  0  0  0
   10.3710   -0.2380   23.0030 C   0  0  0  0  0  0  0  0  0  0  0  0
   10.1550   -0.4380   24.3290 C   0  0  0  0  0  0  0  0  0  0  0  0
   11.2880   -0.5690   25.0820 C   0  0  0  0  0  0  0  0  0  0  0  0
   10.4410    1.2840   22.8190 C   0  0  0  0  0  0  0  0  0  0  0  0
   11.6030    2.0170   22.9930 C   0  0  0  0  0  0  0  0  0  0  0  0
   12.5670    1.6210   23.6100 O   0  0  0  0  0  0  0  0  0  0  0  0
   11.4870    3.1060   22.4400 O   0  0  0  0  0  0  0  0  0  0  0  0
   12.6950    3.8890   22.4540 C   0  0  0  0  0  0  0  0  0  0  0  0
    9.1240   -0.6850   22.4150 N   0  0  0  0  0  0  0  0  0  0  0  0
    8.4240    0.0670   21.5080 C   0  0  0  0  0  0  0  0  0  0  0  0
    8.8300    1.1770   21.1400 O   0  0  0  0  0  0  0  0  0  0  0  0
    7.2340   -0.5290   21.0630 N   0  0  0  0  0  0  0  0  0  0  0  0
    6.5600    0.0430   20.0180 C   0  0  0  0  0  0  0  0  0  0  0  0
    5.4220    0.7610   20.3890 C   0  0  0  0  0  0  0  0  0  0  0  0
    4.6720    1.4260   19.2850 C   0  0  0  0  0  0  0  0  0  0  0  0
    5.1310    1.3000   17.9980 C   0  0  0  0  0  0  0  0  0  0  0  0
    6.2260    0.5920   17.6540 N   0  0  0  0  0  0  0  0  0  0  0  0
    6.9330   -0.0360   18.6970 C   0  0  0  0  0  0  0  0  0  0  0  0
  1  2  1  0
  2  3  1  0
  3  4  1  0
  4  5  1  0
  3  6  1  0
  6  7  1  0
  7  8  2  0
  7  9  1  0
  9 10  1  0
  3 11  1  0
 11 12  1  0
 12 13  2  0
 12 14  1  0
 14 15  1  0
 15 16  2  0
 16 17  1  0
 17 18  2  0
 18 19  1  0
 15 20  1  0
 19 20  2  0
M  END
