pyridine_urea_12201
     RDKit          3D

 22 24  0  0  0  0  0  0  0  0999 V2000
    8.7000    1.3050   21.0840 O   0  0  0  0  0  0  0  0  0  0  0  0
    8.3700    0.1540   21.3940 C   0  0  0  0  0  0  0  0  0  0  0  0
    9.0660   -0.6460   22.2690 N   0  0  0  0  0  0  0  0  0  0  0  0
   10.4310   -0.4450   22.4680 C   0  0  0  0  0  0  0  0  0  0  0  0
   10.8060    0.8340   22.8610 C   0  0  0  0  0  0  0  0  0  0  0  0
   12.1490    1.1310   23.0610 C   0  0  0  0  0  0  0  0  0  0  0  0
   13.0620    0.1410   22.8690 C   0  0  0  0  0  0  0  0  0  0  0  0
   12.7470   -1.1090   22.4960 N   0  0  0  0  0  0  0  0  0  0  0  0
   11.4380   -1.3800   22.2990 C   0  0  0  0  0  0  0  0  0  0  0  0
    7.2470   -0.4660   20.8960 N   0  0  0  0  0  0  0  0  0  0  0  0
    6.9960   -0.4680   19.4360 C   0  0  2  0  0  0  0  0  0  0  0  0
    7.0300    0.8340   18.8720 C   0  0  0  0  0  0  0  0  0  0  0  0
    5.7710    0.7370   18.4470 N   0  0  0  0  0  0  0  0  0  0  0  0
    4.7520    1.5230   19.0530 C   0  0  0  0  0  0  0  0  0  0  0  0
    4.2810    2.5310   18.2440 C   0  0  0  0  0  0  0  0  0  0  0  0
    3.3000    3.3920   18.5970 C   0  0  0  0  0  0  0  0  0  0  0  0
    2.8200    3.1760   19.8320 C   0  0  0  0  0  0  0  0  0  0  0  0
    1.8320    3.9630   20.3230 F   0  0  0  0  0  0  0  0  0  0  0  0
    3.3690    2.1280   20.5800 C   0  0  0  0  0  0  0  0  0  0  0  0
    4.3850    1.1390   20.3700 C   0  0  0  0  0  0  0  0  0  0  0  0
    5.5590   -0.6770   18.8800 C   0  0  0  0  0  0  0  0  0  0  0  0
    4.4390   -0.2780   18.2410 O   0  0  0  0  0  0  0  0  0  0  0  0
  1  2  2  0
  2  3  1  0
  3  4  1  0
  4  5  2  0
  5  6  1  0
  6  7  2  0
  7  8  1  0
  4  9  1  0
  8  9  2  0
  2 10  1  0
 11 10  1  1
 11 12  1  0
 12 13  1  0
 13 14  1  0
 14 15  2  0
 15 16  1  0
 16 17  2  0
 17 18  1  0
 17 19  1  0
 14 20  1  0
 19 20  2  0
 11 21  1  0
 13 21  1  0
 21 22  2  0
M  END
