pyridine_urea_4018
     RDKit          3D

 27 29  0  0  0  0  0  0  0  0999 V2000
    8.8820   -4.6550   25.4070 C   0  0  0  0  0  0  0  0  0  0  0  0
    8.0960   -3.3710   25.4120 C   0  0  1  0  0  0  0  0  0  0  0  0
    8.6510   -2.1450   25.0010 C   0  0  0  0  0  0  0  0  0  0  0  0
    9.3700   -2.1370   23.7710 N   0  0  0  0  0  0  0  0  0  0  0  0
    9.6450   -1.0040   23.0080 C   0  0  1  0  0  0  0  0  0  0  0  0
    9.0830    0.1330   23.4500 C   0  0  0  0  0  0  0  0  0  0  0  0
    7.9320    0.4230   22.9250 N   0  0  0  0  0  0  0  0  0  0  0  0
    8.0120    0.6030   21.6060 C   0  0  0  0  0  0  0  0  0  0  0  0
    8.7550    1.4540   21.0930 O   0  0  0  0  0  0  0  0  0  0  0  0
    7.1640   -0.2570   20.9680 N   0  0  0  0  0  0  0  0  0  0  0  0
    6.4440    0.2810   19.8730 C   0  0  0  0  0  0  0  0  0  0  0  0
    5.1730    1.0590   20.1880 C   0  0  0  0  0  0  0  0  0  0  0  0
    4.5410    1.5920   19.0990 C   0  0  0  0  0  0  0  0  0  0  0  0
    5.0990    1.3780   17.8440 C   0  0  0  0  0  0  0  0  0  0  0  0
    6.2150    0.6750   17.5840 N   0  0  0  0  0  0  0  0  0  0  0  0
    6.8920    0.1230   18.5990 C   0  0  0  0  0  0  0  0  0  0  0  0
   11.0070   -0.8260   22.8080 C   0  0  0  0  0  0  0  0  0  0  0  0
   11.8780   -1.3970   22.2010 C   0  0  0  0  0  0  0  0  0  0  0  0
   12.2320   -2.4130   21.4140 F   0  0  0  0  0  0  0  0  0  0  0  0
   12.5800   -0.2400   22.8130 C   0  0  0  0  0  0  0  0  0  0  0  0
   11.0010    0.0610   23.4340 C   0  0  0  0  0  0  0  0  0  0  0  0
   11.6780    1.1060   23.9620 C   0  0  0  0  0  0  0  0  0  0  0  0
   12.0160    0.1410   23.2110 C   0  0  0  0  0  0  0  0  0  0  0  0
   13.5840    0.0020   22.6900 Cl  0  0  0  0  0  0  0  0  0  0  0  0
    8.6830   -3.2120   23.0230 C   0  0  0  0  0  0  0  0  0  0  0  0
    7.3230   -3.1890   23.3290 C   0  0  0  0  0  0  0  0  0  0  0  0
    7.1010   -3.5470   24.7090 O   0  0  0  0  0  0  0  0  0  0  0  0
  2  1  1  6
  2  3  1  0
  3  4  1  0
  4  5  1  0
  5  6  1  1
  6  7  1  0
  7  8  1  0
  8  9  2  0
  8 10  1  0
 10 11  1  0
 11 12  2  0
 12 13  1  0
 13 14  2  0
 14 15  1  0
 11 16  1  0
 15 16  2  0
  5 17  1  0
 17 18  2  0
 18 19  1  0
 18 20  1  0
 20 21  2  0
 21 22  1  0
 17 23  1  0
 22 23  2  0
 23 24  1  0
  4 25  1  0
 25 26  1  0
  2 27  1  0
 26 27  1  0
M  END
