pyridine_urea_12933
     RDKit          3D

 19 20  0  0  0  0  0  0  0  0999 V2000
   13.4170   -2.0160   20.9440 C   0  0  0  0  0  0  0  0  0  0  0  0
   13.5560   -2.0040   22.3510 O   0  0  0  0  0  0  0  0  0  0  0  0
   12.3340   -1.9170   22.8580 C   0  0  0  0  0  0  0  0  0  0  0  0
   11.2240   -2.1700   21.8710 C   0  0  0  0  0  0  0  0  0  0  0  0
    9.9110   -2.0580   22.3930 N   0  0  0  0  0  0  0  0  0  0  0  0
    9.7090   -1.7400   23.7110 C   0  0  0  0  0  0  0  0  0  0  0  0
    8.3520   -1.6700   23.8910 C   0  0  0  0  0  0  0  0  0  0  0  0
    7.8700   -0.5770   23.2030 N   0  0  0  0  0  0  0  0  0  0  0  0
    8.0520   -0.2300   21.8410 C   0  0  0  0  0  0  0  0  0  0  0  0
    8.9970    0.4330   21.4250 O   0  0  0  0  0  0  0  0  0  0  0  0
    7.0660   -0.6880   21.0670 N   0  0  0  0  0  0  0  0  0  0  0  0
    6.4640   -0.0370   20.0420 C   0  0  0  0  0  0  0  0  0  0  0  0
    5.3070    0.6870   20.3360 C   0  0  0  0  0  0  0  0  0  0  0  0
    4.6780    1.3660   19.3090 C   0  0  0  0  0  0  0  0  0  0  0  0
    5.1830    1.3290   18.0160 C   0  0  0  0  0  0  0  0  0  0  0  0
    6.2860    0.6470   17.6570 N   0  0  0  0  0  0  0  0  0  0  0  0
    6.9140   -0.0420   18.7370 C   0  0  0  0  0  0  0  0  0  0  0  0
   10.7220   -1.5420   24.5570 N   0  0  0  0  0  0  0  0  0  0  0  0
   12.0100   -1.6240   24.1560 C   0  0  0  0  0  0  0  0  0  0  0  0
  1  2  1  0
  2  3  1  0
  3  4  2  0
  4  5  1  0
  5  6  2  0
  6  7  1  0
  7  8  1  0
  8  9  1  0
  9 10  2  0
  9 11  1  0
 11 12  1  0
 12 13  2  0
 13 14  1  0
 14 15  2  0
 15 16  1  0
 12 17  1  0
 16 17  2  0
  6 18  1  0
  3 19  1  0
 18 19  2  0
M  END
