pyridine_urea_7171
     RDKit          3D

 19 20  0  0  0  0  0  0  0  0999 V2000
    8.9050    1.3040   21.1530 O   0  0  0  0  0  0  0  0  0  0  0  0
    8.4600    0.2080   21.5190 C   0  0  0  0  0  0  0  0  0  0  0  0
    8.9680   -0.5260   22.5630 N   0  0  0  0  0  0  0  0  0  0  0  0
    9.0620   -0.1120   23.9120 C   0  0  0  0  0  0  0  0  0  0  0  0
   10.1990   -0.2800   24.6950 C   0  0  0  0  0  0  0  0  0  0  0  0
   11.3360    0.2480   24.1490 C   0  0  0  0  0  0  0  0  0  0  0  0
   12.4770    0.4940   23.4450 C   0  0  0  0  0  0  0  0  0  0  0  0
   13.2600   -0.1360   22.5260 C   0  0  0  0  0  0  0  0  0  0  0  0
   13.2170   -1.4900   21.8190 C   0  0  0  0  0  0  0  0  0  0  0  0
   12.0040   -1.8160   22.5580 N   0  0  0  0  0  0  0  0  0  0  0  0
   11.2420   -1.0510   23.5360 C   0  0  0  0  0  0  0  0  0  0  0  0
    9.9640   -2.1460   23.9320 Cl  0  0  0  0  0  0  0  0  0  0  0  0
    7.3730   -0.4410   20.9610 N   0  0  0  0  0  0  0  0  0  0  0  0
    6.5510    0.1800   20.0270 C   0  0  0  0  0  0  0  0  0  0  0  0
    5.3630    0.8790   20.3110 C   0  0  0  0  0  0  0  0  0  0  0  0
    4.6330    1.4890   19.2780 C   0  0  0  0  0  0  0  0  0  0  0  0
    5.1370    1.3820   17.8930 C   0  0  0  0  0  0  0  0  0  0  0  0
    6.3080    0.6680   17.6820 N   0  0  0  0  0  0  0  0  0  0  0  0
    6.9650    0.0980   18.7150 C   0  0  0  0  0  0  0  0  0  0  0  0
  1  2  2  0
  2  3  1  0
  3  4  1  0
  4  5  1  0
  5  6  1  0
  6  7  2  0
  7  8  1  0
  8  9  2  0
  9 10  1  0
  6 11  1  0
 10 11  2  0
 11 12  1  0
  2 13  1  0
 13 14  1  0
 14 15  2  0
 15 16  1  0
 16 17  2  0
 17 18  1  0
 14 19  1  0
 18 19  2  0
M  END
