pyridine_urea_10004
     RDKit          3D

 24 26  0  0  0  0  0  0  0  0999 V2000
   13.3890   -0.0100   22.5330 C   0  0  0  0  0  0  0  0  0  0  0  0
   13.6760   -0.7380   21.5730 O   0  0  0  0  0  0  0  0  0  0  0  0
   13.3280   -2.0710   21.5580 C   0  0  0  0  0  0  0  0  0  0  0  0
   12.9110   -2.6330   20.5830 O   0  0  0  0  0  0  0  0  0  0  0  0
   13.4640   -2.7480   22.7550 C   0  0  0  0  0  0  0  0  0  0  0  0
   12.9400   -1.9070   23.6490 N   0  0  0  0  0  0  0  0  0  0  0  0
   13.4370   -1.5870   24.9000 C   0  0  0  0  0  0  0  0  0  0  0  0
   12.5770   -0.6830   25.3960 C   0  0  0  0  0  0  0  0  0  0  0  0
   11.4970   -0.4240   24.5550 C   0  0  0  0  0  0  0  0  0  0  0  0
   10.2260    0.3850   24.5120 C   0  0  0  0  0  0  0  0  0  0  0  0
    9.4850    0.2110   23.3450 C   0  0  0  0  0  0  0  0  0  0  0  0
    8.2450    0.8250   23.1030 N   0  0  0  0  0  0  0  0  0  0  0  0
    8.1680    0.8630   21.6530 C   0  0  0  0  0  0  0  0  0  0  0  0
    8.9000    1.7450   20.9340 O   0  0  0  0  0  0  0  0  0  0  0  0
    7.2930   -0.0540   21.1330 N   0  0  0  0  0  0  0  0  0  0  0  0
    6.4920    0.3820   20.1060 C   0  0  0  0  0  0  0  0  0  0  0  0
    5.3110    1.0910   20.2960 C   0  0  0  0  0  0  0  0  0  0  0  0
    4.5740    1.5370   19.1110 C   0  0  0  0  0  0  0  0  0  0  0  0
    5.0860    1.2330   17.8670 C   0  0  0  0  0  0  0  0  0  0  0  0
    6.2090    0.5390   17.6620 N   0  0  0  0  0  0  0  0  0  0  0  0
    6.8950    0.1220   18.8020 C   0  0  0  0  0  0  0  0  0  0  0  0
    9.9540   -0.6790   22.2220 C   0  0  0  0  0  0  0  0  0  0  0  0
   11.1050   -1.3530   22.3410 C   0  0  0  0  0  0  0  0  0  0  0  0
   11.7760   -1.1870   23.4900 C   0  0  0  0  0  0  0  0  0  0  0  0
  1  2  1  0
  2  3  1  0
  3  4  2  0
  3  5  1  0
  5  6  1  0
  6  7  1  0
  7  8  2  0
  8  9  1  0
  9 10  1  0
 10 11  2  0
 11 12  1  0
 12 13  1  0
 13 14  2  0
 13 15  1  0
 15 16  1  0
 16 17  2  0
 17 18  1  0
 18 19  2  0
 19 20  1  0
 16 21  1  0
 20 21  2  0
 11 22  1  0
 22 23  2  0
  6 24  1  0
  9 24  2  0
 23 24  1  0
M  END
