pyridine_urea_7322
     RDKit          3D

 18 19  0  0  0  0  0  0  0  0999 V2000
   12.0880    1.9630   23.3710 C   0  0  0  0  0  0  0  0  0  0  0  0
   11.9880    0.5120   23.7520 C   0  0  1  0  0  0  0  0  0  0  0  0
   10.6540    0.1400   23.8130 C   0  0  0  0  0  0  0  0  0  0  0  0
   10.3010   -0.4890   22.6560 C   0  0  2  0  0  0  0  0  0  0  0  0
    8.8670   -0.7470   22.5690 N   0  0  0  0  0  0  0  0  0  0  0  0
    8.1990   -0.1200   21.5620 C   0  0  0  0  0  0  0  0  0  0  0  0
    8.5790    0.9820   21.1900 O   0  0  0  0  0  0  0  0  0  0  0  0
    7.1350   -0.7720   21.0450 N   0  0  0  0  0  0  0  0  0  0  0  0
    6.4270   -0.0700   20.1210 C   0  0  0  0  0  0  0  0  0  0  0  0
    5.2450    0.6280   20.3590 C   0  0  0  0  0  0  0  0  0  0  0  0
    4.5970    1.3690   19.1980 C   0  0  0  0  0  0  0  0  0  0  0  0
    5.2240    1.3110   17.9520 C   0  0  0  0  0  0  0  0  0  0  0  0
    6.3650    0.6220   17.7570 N   0  0  0  0  0  0  0  0  0  0  0  0
    6.9080   -0.0270   18.8150 C   0  0  0  0  0  0  0  0  0  0  0  0
   11.0880   -1.7230   22.4600 C   0  0  0  0  0  0  0  0  0  0  0  0
   12.4500   -1.5470   22.6190 C   0  0  1  0  0  0  0  0  0  0  0  0
   13.0870   -1.9570   21.4570 C   0  0  0  0  0  0  0  0  0  0  0  0
   12.6960   -0.1980   22.6730 N   0  0  0  0  0  0  0  0  0  0  0  0
  2  1  1  6
  2  3  1  0
  3  4  1  0
  4  5  1  1
  5  6  1  0
  6  7  2  0
  6  8  1  0
  8  9  1  0
  9 10  2  0
 10 11  1  0
 11 12  2  0
 12 13  1  0
  9 14  1  0
 13 14  2  0
  4 15  1  0
 15 16  1  0
 16 17  1  6
  2 18  1  0
 16 18  1  0
M  END
