pyridine_urea_3561
     RDKit          3D

 18 19  0  0  0  0  0  0  0  0999 V2000
    8.7830   -2.9210   22.9450 C   0  0  0  0  0  0  0  0  0  0  0  0
    9.6560   -1.7750   22.4250 C   0  0  1  0  0  0  0  0  0  0  0  0
    9.0110   -0.4890   22.6250 N   0  0  0  0  0  0  0  0  0  0  0  0
    8.5160    0.2170   21.5520 C   0  0  0  0  0  0  0  0  0  0  0  0
    8.9990    1.2890   21.1750 O   0  0  0  0  0  0  0  0  0  0  0  0
    7.4310   -0.4310   21.0090 N   0  0  0  0  0  0  0  0  0  0  0  0
    6.6470    0.1260   20.0020 C   0  0  0  0  0  0  0  0  0  0  0  0
    5.3680    0.8540   20.3930 C   0  0  0  0  0  0  0  0  0  0  0  0
    4.5260    1.4770   19.2980 C   0  0  0  0  0  0  0  0  0  0  0  0
    5.1160    1.2760   17.9120 C   0  0  0  0  0  0  0  0  0  0  0  0
    6.2520    0.6070   17.6610 N   0  0  0  0  0  0  0  0  0  0  0  0
    6.9690    0.0650   18.6700 C   0  0  0  0  0  0  0  0  0  0  0  0
   10.9810   -1.7970   23.1610 C   0  0  0  0  0  0  0  0  0  0  0  0
   11.9840   -2.5330   22.6470 N   0  0  0  0  0  0  0  0  0  0  0  0
   13.2010   -2.6460   23.2490 C   0  0  0  0  0  0  0  0  0  0  0  0
   13.3330   -1.9310   24.4230 C   0  0  0  0  0  0  0  0  0  0  0  0
   12.2920   -1.1670   24.9090 C   0  0  0  0  0  0  0  0  0  0  0  0
   11.0990   -1.0780   24.3080 N   0  0  0  0  0  0  0  0  0  0  0  0
  2  1  1  1
  2  3  1  0
  3  4  1  0
  4  5  2  0
  4  6  1  0
  6  7  1  0
  7  8  2  0
  8  9  1  0
  9 10  2  0
 10 11  1  0
  7 12  1  0
 11 12  2  0
  2 13  1  0
 13 14  2  0
 14 15  1  0
 15 16  2  0
 16 17  1  0
 13 18  1  0
 17 18  2  0
M  END
