pyridine_urea_13668
     RDKit          3D

 25 27  0  0  0  0  0  0  0  0999 V2000
    8.2640   -1.6310   24.5930 C   0  0  0  0  0  0  0  0  0  0  0  0
    9.3890   -0.8850   24.3210 N   0  0  0  0  0  0  0  0  0  0  0  0
    9.5110    0.1400   23.3810 C   0  0  0  0  0  0  0  0  0  0  0  0
   10.6770    0.2240   22.3830 C   0  0  0  0  0  0  0  0  0  0  0  0
   11.8820   -0.3950   22.7470 N   0  0  0  0  0  0  0  0  0  0  0  0
   12.6910   -1.1930   21.9610 C   0  0  0  0  0  0  0  0  0  0  0  0
   13.3350   -0.0680   22.4000 C   0  0  0  0  0  0  0  0  0  0  0  0
   12.4580    0.5970   23.0330 C   0  0  0  0  0  0  0  0  0  0  0  0
   12.7950    1.7760   23.5490 F   0  0  0  0  0  0  0  0  0  0  0  0
   11.1220    0.1550   23.2020 C   0  0  0  0  0  0  0  0  0  0  0  0
   10.1270   -0.9390   22.9000 C   0  0  0  0  0  0  0  0  0  0  0  0
    9.6490   -2.1020   22.3900 C   0  0  0  0  0  0  0  0  0  0  0  0
    8.3850   -1.9730   21.9720 N   0  0  0  0  0  0  0  0  0  0  0  0
    8.0180   -0.7970   21.3810 C   0  0  0  0  0  0  0  0  0  0  0  0
    8.7520    0.1640   21.1960 O   0  0  0  0  0  0  0  0  0  0  0  0
    6.7050   -0.8430   21.0200 N   0  0  0  0  0  0  0  0  0  0  0  0
    6.2270   -0.0760   19.9070 C   0  0  0  0  0  0  0  0  0  0  0  0
    5.0200    0.5910   20.2350 C   0  0  0  0  0  0  0  0  0  0  0  0
    4.5120    1.4100   19.0590 C   0  0  0  0  0  0  0  0  0  0  0  0
    5.1870    1.4540   17.8660 C   0  0  0  0  0  0  0  0  0  0  0  0
    6.3280    0.7830   17.6480 N   0  0  0  0  0  0  0  0  0  0  0  0
    6.8150    0.0410   18.6660 C   0  0  0  0  0  0  0  0  0  0  0  0
   11.3140   -1.6670   22.1210 C   0  0  0  0  0  0  0  0  0  0  0  0
   11.9760   -1.1160   24.0320 C   0  0  0  0  0  0  0  0  0  0  0  0
   10.6510   -1.5690   24.6640 C   0  0  0  0  0  0  0  0  0  0  0  0
  1  2  1  0
  2  3  1  0
  3  4  1  0
  4  5  1  0
  5  6  1  0
  6  7  2  0
  7  8  1  0
  8  9  1  0
  8 10  2  0
 10 11  1  0
 11 12  1  0
 12 13  1  0
 13 14  1  0
 14 15  2  0
 14 16  1  0
 16 17  1  0
 17 18  2  0
 18 19  1  0
 19 20  2  0
 20 21  1  0
 17 22  1  0
 21 22  2  0
  6 23  1  0
 11 23  2  0
  5 24  1  0
  2 25  1  0
 24 25  1  0
M  END
