pyridine_urea_516
     RDKit          3D

 25 26  0  0  0  0  0  0  0  0999 V2000
    8.8110    0.5980   21.1950 O   0  0  0  0  0  0  0  0  0  0  0  0
    8.3380   -0.4910   21.4550 C   0  0  0  0  0  0  0  0  0  0  0  0
    9.0040   -1.4190   22.2240 N   0  0  0  0  0  0  0  0  0  0  0  0
   10.2010   -1.0930   22.8790 C   0  0  0  0  0  0  0  0  0  0  0  0
   10.5450    0.2460   22.9770 C   0  0  0  0  0  0  0  0  0  0  0  0
    9.5470    1.0530   23.4970 N   0  0  0  0  0  0  0  0  0  0  0  0
    9.0380    2.5410   22.7850 S   0  0  0  0  0  0  0  0  0  0  0  0
    9.2780    2.4850   21.3620 O   0  0  0  0  0  0  0  0  0  0  0  0
    7.7110    2.8280   23.2990 O   0  0  0  0  0  0  0  0  0  0  0  0
   10.1260    3.7820   23.5110 C   0  0  0  0  0  0  0  0  0  0  0  0
   11.3490    3.9480   22.8600 C   0  0  0  0  0  0  0  0  0  0  0  0
   12.2390    4.8930   23.3540 C   0  0  0  0  0  0  0  0  0  0  0  0
   11.8630    5.7190   24.5860 C   0  0  0  0  0  0  0  0  0  0  0  0
   10.6440    5.5330   25.2140 C   0  0  0  0  0  0  0  0  0  0  0  0
   10.2700    6.2560   26.3220 N   0  0  0  0  0  0  0  0  0  0  0  0
    9.4910    5.7060   27.1120 O   0  0  0  0  0  0  0  0  0  0  0  0
   10.4360    7.4840   26.2700 O   0  0  0  0  0  0  0  0  0  0  0  0
    9.7860    4.5570   24.6620 C   0  0  0  0  0  0  0  0  0  0  0  0
    7.1100   -0.9020   21.0140 N   0  0  0  0  0  0  0  0  0  0  0  0
    6.4260   -0.1580   20.0210 C   0  0  0  0  0  0  0  0  0  0  0  0
    5.2360    0.5340   20.2690 C   0  0  0  0  0  0  0  0  0  0  0  0
    4.5700    1.3240   19.1800 C   0  0  0  0  0  0  0  0  0  0  0  0
    5.1610    1.3590   17.9100 C   0  0  0  0  0  0  0  0  0  0  0  0
    6.3340    0.6440   17.7410 N   0  0  0  0  0  0  0  0  0  0  0  0
    6.9500   -0.0930   18.7540 C   0  0  0  0  0  0  0  0  0  0  0  0
  1  2  2  0
  2  3  1  0
  3  4  1  0
  4  5  1  0
  5  6  1  0
  7  6  1  0
  7  8  2  0
  7  9  2  0
  7 10  1  0
 10 11  2  0
 11 12  1  0
 12 13  2  0
 13 14  1  0
 14 15  1  0
 15 16  2  0
 15 17  1  0
 10 18  1  0
 14 18  2  0
  2 19  1  0
 19 20  1  0
 20 21  2  0
 21 22  1  0
 22 23  2  0
 23 24  1  0
 20 25  1  0
 24 25  2  0
M  CHG  2  15   1  17  -1
M  END
