pyridine_urea_10525
     RDKit          3D

 21 23  0  0  0  0  0  0  0  0999 V2000
    8.9400    1.4790   21.1450 O   0  0  0  0  0  0  0  0  0  0  0  0
    8.4230    0.4860   21.6500 C   0  0  0  0  0  0  0  0  0  0  0  0
    9.1220   -0.5240   22.2850 N   0  0  0  0  0  0  0  0  0  0  0  0
   10.5000   -0.4140   22.5550 C   0  0  0  0  0  0  0  0  0  0  0  0
   10.9480    1.0380   22.9830 C   0  0  0  0  0  0  0  0  0  0  0  0
   12.4060    1.1680   23.2600 C   0  0  0  0  0  0  0  0  0  0  0  0
   12.8480   -0.1460   23.0220 C   0  0  0  0  0  0  0  0  0  0  0  0
   12.5640   -1.3570   22.6840 N   0  0  0  0  0  0  0  0  0  0  0  0
   11.2480   -1.6850   22.3770 C   0  0  0  0  0  0  0  0  0  0  0  0
    7.0530    0.3020   21.6430 N   0  0  0  0  0  0  0  0  0  0  0  0
    6.2640    1.0040   20.6490 C   0  0  0  0  0  0  0  0  0  0  0  0
    5.6470    2.2240   20.8120 C   0  0  0  0  0  0  0  0  0  0  0  0
    4.9070    2.8230   19.7830 C   0  0  0  0  0  0  0  0  0  0  0  0
    4.7540    2.2390   18.5370 C   0  0  0  0  0  0  0  0  0  0  0  0
    5.3660    1.0500   18.4130 N   0  0  0  0  0  0  0  0  0  0  0  0
    6.1090    0.4250   19.4670 C   0  0  0  0  0  0  0  0  0  0  0  0
    6.5160   -0.6600   19.0940 N   0  0  0  0  0  0  0  0  0  0  0  0
    7.6720   -1.2600   19.4050 C   0  0  0  0  0  0  0  0  0  0  0  0
    7.7300   -2.5460   18.7070 C   0  0  0  0  0  0  0  0  0  0  0  0
    6.5660   -2.5310   18.0960 C   0  0  0  0  0  0  0  0  0  0  0  0
    5.8260   -1.4450   18.2950 C   0  0  0  0  0  0  0  0  0  0  0  0
  1  2  2  0
  2  3  1  0
  3  4  1  0
  4  5  2  0
  5  6  1  0
  6  7  2  0
  7  8  1  0
  4  9  1  0
  8  9  2  0
  2 10  1  0
 10 11  1  0
 11 12  2  0
 12 13  1  0
 13 14  2  0
 14 15  1  0
 11 16  1  0
 15 16  2  0
 16 17  1  0
 17 18  1  0
 18 19  2  0
 19 20  1  0
 17 21  1  0
 20 21  2  0
M  END
