pyridine_urea_3019
     RDKit          3D

 21 23  0  0  0  0  0  0  0  0999 V2000
    7.9880    0.9800   20.9310 O   0  0  0  0  0  0  0  0  0  0  0  0
    7.6680   -0.1970   21.0820 C   0  0  0  0  0  0  0  0  0  0  0  0
    8.5240   -1.0660   21.5640 N   0  0  0  0  0  0  0  0  0  0  0  0
    9.6630   -0.3110   21.8390 C   0  0  0  0  0  0  0  0  0  0  0  0
   10.9080   -1.1390   21.7610 C   0  0  2  0  0  0  0  0  0  0  0  0
   10.9380   -2.4010   21.3610 C   0  0  0  0  0  0  0  0  0  0  0  0
   10.8180   -2.8050   22.6890 C   0  0  0  0  0  0  0  0  0  0  0  0
   10.7820   -1.5190   23.1610 C   0  0  2  0  0  0  0  0  0  0  0  0
    9.5620   -1.1770   24.0160 C   0  0  0  0  0  0  0  0  0  0  0  0
    8.5280   -0.1900   24.0780 C   0  0  0  0  0  0  0  0  0  0  0  0
    8.4010    0.8730   23.1800 C   0  0  0  0  0  0  0  0  0  0  0  0
    7.4460    0.5580   24.4100 C   0  0  0  0  0  0  0  0  0  0  0  0
    7.7350   -0.7500   25.3740 C   0  0  0  0  0  0  0  0  0  0  0  0
    8.9650   -1.7100   25.0910 C   0  0  0  0  0  0  0  0  0  0  0  0
    6.4870   -0.7220   20.7640 N   0  0  0  0  0  0  0  0  0  0  0  0
    5.8740    0.0900   19.7730 C   0  0  0  0  0  0  0  0  0  0  0  0
    4.6770    0.7700   19.8930 C   0  0  0  0  0  0  0  0  0  0  0  0
    4.2920    1.5290   18.8130 C   0  0  0  0  0  0  0  0  0  0  0  0
    5.0890    1.5730   17.6990 C   0  0  0  0  0  0  0  0  0  0  0  0
    6.2460    0.9180   17.5490 N   0  0  0  0  0  0  0  0  0  0  0  0
    6.6040    0.1910   18.6070 C   0  0  0  0  0  0  0  0  0  0  0  0
  1  2  2  0
  2  3  1  0
  3  4  1  0
  5  4  1  6
  5  6  1  0
  6  7  1  0
  5  8  1  0
  7  8  1  0
  8  9  1  6
  9 10  2  0
 10 11  1  0
 11 12  2  0
 12 13  1  0
  9 14  1  0
 13 14  2  0
  2 15  1  0
 15 16  1  0
 16 17  2  0
 17 18  1  0
 18 19  2  0
 19 20  1  0
 16 21  1  0
 20 21  2  0
M  END
