pyridine_urea_12542
     RDKit          3D

 21 23  0  0  0  0  0  0  0  0999 V2000
    8.9200    0.8120   21.3420 O   0  0  0  0  0  0  0  0  0  0  0  0
    8.4260   -0.2550   21.6810 C   0  0  0  0  0  0  0  0  0  0  0  0
    7.2800   -0.7840   21.0960 N   0  0  0  0  0  0  0  0  0  0  0  0
    6.5550   -0.0520   20.0640 C   0  0  0  0  0  0  0  0  0  0  0  0
    5.2570    0.7460   20.4220 C   0  0  0  0  0  0  0  0  0  0  0  0
    4.6130    1.4260   19.3890 C   0  0  0  0  0  0  0  0  0  0  0  0
    5.2440    1.3270   17.9950 C   0  0  0  0  0  0  0  0  0  0  0  0
    6.3650    0.6200   17.7430 N   0  0  0  0  0  0  0  0  0  0  0  0
    6.9790   -0.0390   18.7530 C   0  0  0  0  0  0  0  0  0  0  0  0
    8.8670   -1.0990   22.6840 N   0  0  0  0  0  0  0  0  0  0  0  0
   10.2860   -1.2300   23.0600 C   0  0  0  0  0  0  0  0  0  0  0  0
   10.4860   -2.3870   24.0480 C   0  0  0  0  0  0  0  0  0  0  0  0
    9.3260   -3.2390   24.0800 O   0  0  0  0  0  0  0  0  0  0  0  0
    9.0710   -3.7930   25.3850 C   0  0  0  0  0  0  0  0  0  0  0  0
    7.6830   -3.3360   25.8380 C   0  0  0  0  0  0  0  0  0  0  0  0
    7.2340   -3.8310   27.2060 C   0  0  0  0  0  0  0  0  0  0  0  0
    8.2000   -4.7190   27.9760 C   0  0  0  0  0  0  0  0  0  0  0  0
    9.4460   -5.0700   27.4550 C   0  0  0  0  0  0  0  0  0  0  0  0
    9.8720   -4.6200   26.1960 C   0  0  0  0  0  0  0  0  0  0  0  0
   11.3320   -0.2120   22.8500 C   0  0  0  0  0  0  0  0  0  0  0  0
   10.7840   -0.0150   23.9440 C   0  0  0  0  0  0  0  0  0  0  0  0
  1  2  2  0
  2  3  1  0
  3  4  1  0
  4  5  2  0
  5  6  1  0
  6  7  2  0
  7  8  1  0
  4  9  1  0
  8  9  2  0
  2 10  1  0
 11 10  1  0
 11 12  1  0
 12 13  1  0
 13 14  1  0
 14 15  2  0
 15 16  1  0
 16 17  2  0
 17 18  1  0
 14 19  1  0
 18 19  2  0
 11 20  1  0
 11 21  1  0
 20 21  1  0
M  END
