pyridine_urea_12252
     RDKit          3D

 22 24  0  0  0  0  0  0  0  0999 V2000
   13.1660   -2.5470   20.9530 C   0  0  0  0  0  0  0  0  0  0  0  0
   12.5320   -2.5180   22.1460 N   0  0  0  0  0  0  0  0  0  0  0  0
   11.6640   -1.4210   22.1990 C   0  0  0  0  0  0  0  0  0  0  0  0
   12.6670   -0.2940   22.6160 C   0  0  0  0  0  0  0  0  0  0  0  0
   12.8200   -0.2490   23.9630 C   0  0  0  0  0  0  0  0  0  0  0  0
   11.5540    0.1300   24.3710 N   0  0  0  0  0  0  0  0  0  0  0  0
   10.1670    0.2790   24.3050 C   0  0  0  0  0  0  0  0  0  0  0  0
    9.5530   -0.2010   23.2060 C   0  0  0  0  0  0  0  0  0  0  0  0
    8.2900   -0.2450   22.7970 N   0  0  0  0  0  0  0  0  0  0  0  0
    8.0250    0.2560   21.4920 C   0  0  0  0  0  0  0  0  0  0  0  0
    8.6280    1.2230   21.0060 O   0  0  0  0  0  0  0  0  0  0  0  0
    7.0310   -0.4650   20.8920 N   0  0  0  0  0  0  0  0  0  0  0  0
    6.2850    0.1770   19.9470 C   0  0  0  0  0  0  0  0  0  0  0  0
    4.9600    0.8600   20.1930 C   0  0  0  0  0  0  0  0  0  0  0  0
    4.3420    1.5400   19.0100 C   0  0  0  0  0  0  0  0  0  0  0  0
    5.1450    1.4370   17.7360 C   0  0  0  0  0  0  0  0  0  0  0  0
    6.3140    0.7880   17.6210 N   0  0  0  0  0  0  0  0  0  0  0  0
    6.8230    0.2070   18.6740 C   0  0  0  0  0  0  0  0  0  0  0  0
   10.5240   -0.6750   22.4930 C   0  0  0  0  0  0  0  0  0  0  0  0
   11.6620   -0.5060   23.1160 N   0  0  0  0  0  0  0  0  0  0  0  0
   13.0860   -1.7000   24.4630 C   0  0  0  0  0  0  0  0  0  0  0  0
   13.0930   -2.6920   23.5000 C   0  0  0  0  0  0  0  0  0  0  0  0
  1  2  1  0
  2  3  1  0
  3  4  1  0
  4  5  1  0
  5  6  1  0
  6  7  1  0
  7  8  2  0
  8  9  1  0
  9 10  1  0
 10 11  2  0
 10 12  1  0
 12 13  1  0
 13 14  2  0
 14 15  1  0
 15 16  2  0
 16 17  1  0
 13 18  1  0
 17 18  2  0
  8 19  1  0
  6 20  1  0
 19 20  2  0
  5 21  1  0
  2 22  1  0
 21 22  1  0
M  END
