pyridine_urea_323
     RDKit          3D

 27 30  0  0  0  0  0  0  0  0999 V2000
   10.2220   -2.8350   23.3980 C   0  0  0  0  0  0  0  0  0  0  0  0
   11.6050   -2.7940   23.3800 N   0  0  0  0  0  0  0  0  0  0  0  0
   12.3130   -2.0370   22.3330 C   0  0  0  0  0  0  0  0  0  0  0  0
   13.3980   -1.1200   22.9110 C   0  0  0  0  0  0  0  0  0  0  0  0
   12.9440   -0.5720   24.1510 N   0  0  0  0  0  0  0  0  0  0  0  0
   11.6480   -0.3620   24.0580 C   0  0  0  0  0  0  0  0  0  0  0  0
   11.4590   -0.2840   22.7330 C   0  0  0  0  0  0  0  0  0  0  0  0
   10.1870   -0.1020   21.9750 C   0  0  0  0  0  0  0  0  0  0  0  0
    8.9690    0.0310   22.6830 C   0  0  0  0  0  0  0  0  0  0  0  0
    7.7780    0.1870   22.1540 N   0  0  0  0  0  0  0  0  0  0  0  0
    7.4970   -0.6090   21.1090 C   0  0  0  0  0  0  0  0  0  0  0  0
    8.5290   -1.1270   20.3740 O   0  0  0  0  0  0  0  0  0  0  0  0
    6.2090   -0.7790   20.9200 N   0  0  0  0  0  0  0  0  0  0  0  0
    5.8550   -0.0260   19.9020 C   0  0  0  0  0  0  0  0  0  0  0  0
    4.7580    0.8000   19.9400 C   0  0  0  0  0  0  0  0  0  0  0  0
    4.3960    1.5920   18.8800 C   0  0  0  0  0  0  0  0  0  0  0  0
    5.1670    1.5470   17.7490 C   0  0  0  0  0  0  0  0  0  0  0  0
    6.2550    0.7590   17.6380 N   0  0  0  0  0  0  0  0  0  0  0  0
    6.5770   -0.0050   18.7100 C   0  0  0  0  0  0  0  0  0  0  0  0
    9.1870   -0.0580   24.1340 C   0  0  0  0  0  0  0  0  0  0  0  0
    7.7850    0.0670   24.6070 C   0  0  0  0  0  0  0  0  0  0  0  0
    7.4860    0.0090   25.9300 N   0  0  0  0  0  0  0  0  0  0  0  0
    8.5880   -0.1540   26.6550 C   0  0  0  0  0  0  0  0  0  0  0  0
    9.9430   -0.2550   26.1870 C   0  0  0  0  0  0  0  0  0  0  0  0
   10.3000   -0.2240   24.8510 C   0  0  0  0  0  0  0  0  0  0  0  0
   13.0900   -1.6870   24.9350 C   0  0  0  0  0  0  0  0  0  0  0  0
   12.0890   -2.5890   24.6640 C   0  0  0  0  0  0  0  0  0  0  0  0
  1  2  1  0
  2  3  1  0
  3  4  1  0
  4  5  1  0
  5  6  1  0
  6  7  2  0
  7  8  1  0
  8  9  2  0
  9 10  1  0
 10 11  1  0
 11 12  2  0
 11 13  1  0
 13 14  1  0
 14 15  2  0
 15 16  1  0
 16 17  2  0
 17 18  1  0
 14 19  1  0
 18 19  2  0
  9 20  1  0
 20 21  1  0
 21 22  2  0
 22 23  1  0
 23 24  2  0
  6 25  1  0
 20 25  2  0
 24 25  1  0
  5 26  1  0
  2 27  1  0
 26 27  1  0
M  END
