pyridine_urea_6862
     RDKit          3D

 21 23  0  0  0  0  0  0  0  0999 V2000
    8.8490    0.7100   21.3280 O   0  0  0  0  0  0  0  0  0  0  0  0
    8.2800   -0.3540   21.5380 C   0  0  0  0  0  0  0  0  0  0  0  0
    7.1280   -0.7910   20.9470 N   0  0  0  0  0  0  0  0  0  0  0  0
    6.3870   -0.0480   20.0330 C   0  0  0  0  0  0  0  0  0  0  0  0
    5.0800    0.6860   20.3580 C   0  0  0  0  0  0  0  0  0  0  0  0
    4.4790    1.4390   19.1730 C   0  0  0  0  0  0  0  0  0  0  0  0
    5.2150    1.3740   17.8730 C   0  0  0  0  0  0  0  0  0  0  0  0
    6.3560    0.6890   17.7070 N   0  0  0  0  0  0  0  0  0  0  0  0
    6.8900    0.0220   18.7490 C   0  0  0  0  0  0  0  0  0  0  0  0
    8.7360   -1.2830   22.4380 N   0  0  0  0  0  0  0  0  0  0  0  0
    9.7900   -0.9450   23.3450 C   0  0  2  0  0  0  0  0  0  0  0  0
    9.6950    0.3580   23.7560 C   0  0  0  0  0  0  0  0  0  0  0  0
   10.7960    0.6790   24.4660 C   0  0  0  0  0  0  0  0  0  0  0  0
   11.9310    0.8480   23.7200 C   0  0  0  0  0  0  0  0  0  0  0  0
   12.2520   -0.1620   22.8190 C   0  0  0  0  0  0  0  0  0  0  0  0
   13.4330   -0.3160   22.1550 C   0  0  0  0  0  0  0  0  0  0  0  0
   13.4190   -1.5050   21.2530 C   0  0  0  0  0  0  0  0  0  0  0  0
   12.3780   -2.3220   21.1350 C   0  0  0  0  0  0  0  0  0  0  0  0
   12.5140   -3.3670   20.2910 F   0  0  0  0  0  0  0  0  0  0  0  0
   11.2090   -2.1250   21.8260 C   0  0  0  0  0  0  0  0  0  0  0  0
   10.9960   -1.0740   22.7080 C   0  0  0  0  0  0  0  0  0  0  0  0
  1  2  2  0
  2  3  1  0
  3  4  1  0
  4  5  2  0
  5  6  1  0
  6  7  2  0
  7  8  1  0
  4  9  1  0
  8  9  2  0
  2 10  1  0
 11 10  1  6
 11 12  1  0
 12 13  1  0
 13 14  1  0
 14 15  1  0
 15 16  2  0
 16 17  1  0
 17 18  2  0
 18 19  1  0
 18 20  1  0
 11 21  1  0
 15 21  1  0
 20 21  2  0
M  END
