pyridine_urea_5377
     RDKit          3D

 18 18  0  0  0  0  0  0  0  0999 V2000
   10.9970   -1.9930   21.7220 C   0  0  0  0  0  0  0  0  0  0  0  0
   11.4160   -1.2400   22.9590 C   0  0  0  0  0  0  0  0  0  0  0  0
   11.3530   -2.2910   24.1290 C   0  0  0  0  0  0  0  0  0  0  0  0
   10.3520   -0.1570   23.1950 C   0  0  0  0  0  0  0  0  0  0  0  0
    9.1400   -0.4990   22.5560 N   0  0  0  0  0  0  0  0  0  0  0  0
    8.4470    0.0870   21.5260 C   0  0  0  0  0  0  0  0  0  0  0  0
    8.8200    1.2070   21.1510 O   0  0  0  0  0  0  0  0  0  0  0  0
    7.3980   -0.6190   21.0260 N   0  0  0  0  0  0  0  0  0  0  0  0
    6.6440    0.0160   20.1000 C   0  0  0  0  0  0  0  0  0  0  0  0
    5.3700    0.8270   20.3760 C   0  0  0  0  0  0  0  0  0  0  0  0
    4.5670    1.5370   19.2870 C   0  0  0  0  0  0  0  0  0  0  0  0
    5.1920    1.3360   17.9200 C   0  0  0  0  0  0  0  0  0  0  0  0
    6.3240    0.5930   17.7570 N   0  0  0  0  0  0  0  0  0  0  0  0
    7.0260   -0.0460   18.7790 C   0  0  0  0  0  0  0  0  0  0  0  0
   12.6290   -0.5370   22.9230 C   0  0  0  0  0  0  0  0  0  0  0  0
   12.4840    0.7940   22.8450 F   0  0  0  0  0  0  0  0  0  0  0  0
   13.3260   -0.8130   24.0540 F   0  0  0  0  0  0  0  0  0  0  0  0
   13.4070   -0.9560   21.8950 F   0  0  0  0  0  0  0  0  0  0  0  0
  2  1  1  0
  2  3  1  0
  2  4  1  0
  4  5  1  0
  5  6  1  0
  6  7  2  0
  6  8  1  0
  8  9  1  0
  9 10  2  0
 10 11  1  0
 11 12  2  0
 12 13  1  0
  9 14  1  0
 13 14  2  0
  2 15  1  0
 15 16  1  0
 15 17  1  0
 15 18  1  0
M  END
