pyridine_urea_13256
     RDKit          3D

 16 17  0  0  0  0  0  0  0  0999 V2000
    8.8270    0.9340   21.4510 O   0  0  0  0  0  0  0  0  0  0  0  0
    8.4390   -0.2270   21.4970 C   0  0  0  0  0  0  0  0  0  0  0  0
    7.2090   -0.6540   21.0700 N   0  0  0  0  0  0  0  0  0  0  0  0
    6.5020   -0.0170   20.0390 C   0  0  0  0  0  0  0  0  0  0  0  0
    5.3300    0.6870   20.3310 C   0  0  0  0  0  0  0  0  0  0  0  0
    4.6350    1.3390   19.3070 C   0  0  0  0  0  0  0  0  0  0  0  0
    5.1430    1.2600   18.0270 C   0  0  0  0  0  0  0  0  0  0  0  0
    6.2590    0.5840   17.7210 N   0  0  0  0  0  0  0  0  0  0  0  0
    6.9100   -0.0360   18.7240 C   0  0  0  0  0  0  0  0  0  0  0  0
    9.2460   -1.2240   21.9940 N   0  0  0  0  0  0  0  0  0  0  0  0
   10.5650   -0.7630   22.3680 C   0  0  0  0  0  0  0  0  0  0  0  0
   11.6520   -1.8030   22.0560 C   0  0  0  0  0  0  0  0  0  0  0  0
   12.9160   -1.4270   22.4900 C   0  0  0  0  0  0  0  0  0  0  0  0
   13.0630   -0.5610   23.3170 O   0  0  0  0  0  0  0  0  0  0  0  0
   12.0370    0.3130   23.1720 C   0  0  0  0  0  0  0  0  0  0  0  0
   10.7610   -0.1580   23.5780 C   0  0  0  0  0  0  0  0  0  0  0  0
  1  2  2  0
  2  3  1  0
  3  4  1  0
  4  5  2  0
  5  6  1  0
  6  7  2  0
  7  8  1  0
  4  9  1  0
  8  9  2  0
  2 10  1  0
 10 11  1  0
 11 12  1  0
 12 13  1  0
 13 14  1  0
 14 15  1  0
 11 16  1  0
 15 16  1  0
M  END
