pyridine_urea_6866
     RDKit          3D

 19 20  0  0  0  0  0  0  0  0999 V2000
    8.8790    0.7760   21.3290 O   0  0  0  0  0  0  0  0  0  0  0  0
    8.4620   -0.3690   21.4210 C   0  0  0  0  0  0  0  0  0  0  0  0
    7.2220   -0.7830   20.9990 N   0  0  0  0  0  0  0  0  0  0  0  0
    6.4450   -0.0600   20.0830 C   0  0  0  0  0  0  0  0  0  0  0  0
    5.1320    0.6670   20.4170 C   0  0  0  0  0  0  0  0  0  0  0  0
    4.5020    1.3950   19.2290 C   0  0  0  0  0  0  0  0  0  0  0  0
    5.2120    1.3200   17.9160 C   0  0  0  0  0  0  0  0  0  0  0  0
    6.3580    0.6440   17.7390 N   0  0  0  0  0  0  0  0  0  0  0  0
    6.9200   -0.0030   18.7810 C   0  0  0  0  0  0  0  0  0  0  0  0
    9.2030   -1.3960   21.9640 N   0  0  0  0  0  0  0  0  0  0  0  0
   10.2090   -1.2020   22.9830 C   0  0  1  0  0  0  0  0  0  0  0  0
   11.4990   -1.3500   22.4260 C   0  0  0  0  0  0  0  0  0  0  0  0
   12.4770   -0.3970   22.7860 C   0  0  0  0  0  0  0  0  0  0  0  0
   12.1350    0.5180   23.7810 C   0  0  1  0  0  0  0  0  0  0  0  0
   12.1840    1.7940   23.2830 N   0  0  0  0  0  0  0  0  0  0  0  0
   11.1110    2.6390   23.5510 O   0  0  0  0  0  0  0  0  0  0  0  0
   13.2090    2.1120   22.7120 O   0  0  0  0  0  0  0  0  0  0  0  0
   10.9340    0.3530   24.4510 C   0  0  0  0  0  0  0  0  0  0  0  0
    9.8840   -0.0240   23.6370 C   0  0  0  0  0  0  0  0  0  0  0  0
  1  2  2  0
  2  3  1  0
  3  4  1  0
  4  5  2  0
  5  6  1  0
  6  7  2  0
  7  8  1  0
  4  9  1  0
  8  9  2  0
  2 10  1  0
 11 10  1  6
 11 12  1  0
 12 13  1  0
 13 14  1  0
 14 15  1  6
 15 16  2  0
 15 17  1  0
 14 18  1  0
 11 19  1  0
 18 19  1  0
M  CHG  2  15   1  17  -1
M  END
