pyridine_urea_3396
     RDKit          3D

 19 20  0  0  0  0  0  0  0  0999 V2000
   11.8050   -2.7760   25.1780 C   0  0  0  0  0  0  0  0  0  0  0  0
   10.9300   -1.6050   25.2960 O   0  0  0  0  0  0  0  0  0  0  0  0
   11.2080   -1.4260   24.0920 C   0  0  0  0  0  0  0  0  0  0  0  0
   12.6000   -1.7080   24.2240 N   0  0  0  0  0  0  0  0  0  0  0  0
   13.2290   -1.7340   22.9920 C   0  0  0  0  0  0  0  0  0  0  0  0
   12.5320   -1.5160   21.8930 C   0  0  0  0  0  0  0  0  0  0  0  0
   13.2600   -1.6570   20.7980 C   0  0  0  0  0  0  0  0  0  0  0  0
   11.1270   -1.1930   21.8720 C   0  0  0  0  0  0  0  0  0  0  0  0
   10.3890   -1.1200   22.9970 C   0  0  0  0  0  0  0  0  0  0  0  0
    8.9740   -0.8040   22.7650 N   0  0  0  0  0  0  0  0  0  0  0  0
    8.4980   -0.0690   21.6560 C   0  0  0  0  0  0  0  0  0  0  0  0
    9.0610    1.2240   21.2410 O   0  0  0  0  0  0  0  0  0  0  0  0
    7.4550   -0.7160   21.0600 N   0  0  0  0  0  0  0  0  0  0  0  0
    6.6830   -0.0360   20.1550 C   0  0  0  0  0  0  0  0  0  0  0  0
    5.5650    0.7330   20.4470 C   0  0  0  0  0  0  0  0  0  0  0  0
    4.8460    1.3900   19.4430 C   0  0  0  0  0  0  0  0  0  0  0  0
    5.2840    1.2550   18.1260 C   0  0  0  0  0  0  0  0  0  0  0  0
    6.3570    0.5200   17.8010 N   0  0  0  0  0  0  0  0  0  0  0  0
    7.0230   -0.1040   18.8080 C   0  0  0  0  0  0  0  0  0  0  0  0
  1  2  1  0
  2  3  1  0
  3  4  2  0
  4  5  1  0
  5  6  2  0
  6  7  1  0
  6  8  1  0
  3  9  1  0
  8  9  2  0
  9 10  1  0
 10 11  1  0
 11 12  2  0
 11 13  1  0
 13 14  1  0
 14 15  2  0
 15 16  1  0
 16 17  2  0
 17 18  1  0
 14 19  1  0
 18 19  2  0
M  END
