pyridine_urea_4114
     RDKit          3D

 25 27  0  0  0  0  0  0  0  0999 V2000
    8.7680    3.8370   25.7610 C   0  0  0  0  0  0  0  0  0  0  0  0
    7.9480    2.5800   25.8970 C   0  0  0  0  0  0  0  0  0  0  0  0
    8.5640    1.5300   25.1210 O   0  0  0  0  0  0  0  0  0  0  0  0
    8.9540    1.9070   23.8640 C   0  0  0  0  0  0  0  0  0  0  0  0
    8.1270    2.0370   22.6940 O   0  0  0  0  0  0  0  0  0  0  0  0
   10.2710    2.2810   23.6180 C   0  0  0  0  0  0  0  0  0  0  0  0
   11.6340    2.1860   23.3160 O   0  0  0  0  0  0  0  0  0  0  0  0
   12.5930    1.2320   22.9930 C   0  0  0  0  0  0  0  0  0  0  0  0
   13.5520    0.2770   22.6700 C   0  0  0  0  0  0  0  0  0  0  0  0
   13.4330   -1.0360   22.5420 C   0  0  0  0  0  0  0  0  0  0  0  0
   12.1670   -1.7110   22.7470 C   0  0  0  0  0  0  0  0  0  0  0  0
   11.0130   -1.1080   23.0740 C   0  0  0  0  0  0  0  0  0  0  0  0
   11.4670    0.2960   23.1350 C   0  0  0  0  0  0  0  0  0  0  0  0
   10.3160    0.9000   23.4470 C   0  0  0  0  0  0  0  0  0  0  0  0
    9.2350    0.0300   23.5650 C   0  0  0  0  0  0  0  0  0  0  0  0
    8.8740   -0.6220   22.3680 N   0  0  0  0  0  0  0  0  0  0  0  0
    8.5490    0.0360   21.2060 C   0  0  0  0  0  0  0  0  0  0  0  0
    9.1860    0.9980   20.7740 O   0  0  0  0  0  0  0  0  0  0  0  0
    7.4070   -0.5510   20.6470 N   0  0  0  0  0  0  0  0  0  0  0  0
    6.5640    0.0870   19.7790 C   0  0  0  0  0  0  0  0  0  0  0  0
    5.2580    0.7870   20.1270 C   0  0  0  0  0  0  0  0  0  0  0  0
    4.5150    1.3940   19.1390 C   0  0  0  0  0  0  0  0  0  0  0  0
    4.9950    1.3430   17.8310 C   0  0  0  0  0  0  0  0  0  0  0  0
    6.1500    0.7250   17.4750 N   0  0  0  0  0  0  0  0  0  0  0  0
    6.8960    0.1250   18.4340 C   0  0  0  0  0  0  0  0  0  0  0  0
  1  2  1  0
  2  3  1  0
  3  4  1  0
  4  5  2  0
  4  6  1  0
  6  7  1  0
  7  8  1  0
  8  9  2  0
  9 10  1  0
 10 11  2  0
 11 12  1  0
  8 13  1  0
 12 13  2  0
  6 14  2  0
 13 14  1  0
 14 15  1  0
 15 16  1  0
 16 17  1  0
 17 18  2  0
 17 19  1  0
 19 20  1  0
 20 21  2  0
 21 22  1  0
 22 23  2  0
 23 24  1  0
 20 25  1  0
 24 25  2  0
M  END
