pyridine_urea_12098
     RDKit          3D

 23 25  0  0  0  0  0  0  0  0999 V2000
    8.9180    0.9600   21.4200 O   0  0  0  0  0  0  0  0  0  0  0  0
    8.4770   -0.1780   21.4080 C   0  0  0  0  0  0  0  0  0  0  0  0
    7.1930   -0.5270   21.0770 N   0  0  0  0  0  0  0  0  0  0  0  0
    6.5000    0.0760   20.0310 C   0  0  0  0  0  0  0  0  0  0  0  0
    5.3270    0.7860   20.3050 C   0  0  0  0  0  0  0  0  0  0  0  0
    4.6360    1.4080   19.2670 C   0  0  0  0  0  0  0  0  0  0  0  0
    5.1490    1.2940   17.9890 C   0  0  0  0  0  0  0  0  0  0  0  0
    6.2650    0.6130   17.7030 N   0  0  0  0  0  0  0  0  0  0  0  0
    6.9140    0.0200   18.7210 C   0  0  0  0  0  0  0  0  0  0  0  0
    9.2410   -1.2750   21.7090 N   0  0  0  0  0  0  0  0  0  0  0  0
   10.3310   -1.1840   22.6860 C   0  0  2  0  0  0  0  0  0  0  0  0
    9.8780   -1.9920   23.9060 C   0  0  0  0  0  0  0  0  0  0  0  0
    8.5710   -2.5400   23.8620 C   0  0  0  0  0  0  0  0  0  0  0  0
    8.2190   -3.4230   22.8560 C   0  0  0  0  0  0  0  0  0  0  0  0
    6.9510   -3.9890   22.7910 C   0  0  0  0  0  0  0  0  0  0  0  0
    6.0030   -3.6640   23.7520 C   0  0  0  0  0  0  0  0  0  0  0  0
    6.3330   -2.7730   24.7720 C   0  0  0  0  0  0  0  0  0  0  0  0
    5.0480   -2.3270   26.0860 Br  0  0  0  0  0  0  0  0  0  0  0  0
    7.6070   -2.2110   24.8310 C   0  0  0  0  0  0  0  0  0  0  0  0
   10.8000    0.2660   23.0160 C   0  0  0  0  0  0  0  0  0  0  0  0
   12.1750    0.2120   23.2650 C   0  0  0  0  0  0  0  0  0  0  0  0
   12.5870   -0.5660   22.4490 O   0  0  0  0  0  0  0  0  0  0  0  0
   11.6120   -1.4830   22.1880 C   0  0  0  0  0  0  0  0  0  0  0  0
  1  2  2  0
  2  3  1  0
  3  4  1  0
  4  5  2  0
  5  6  1  0
  6  7  2  0
  7  8  1  0
  4  9  1  0
  8  9  2  0
  2 10  1  0
 11 10  1  0
 11 12  1  1
 12 13  1  0
 13 14  2  0
 14 15  1  0
 15 16  2  0
 16 17  1  0
 17 18  1  0
 13 19  1  0
 17 19  2  0
 11 20  1  0
 20 21  1  0
 21 22  1  0
 11 23  1  0
 22 23  1  0
M  END
