pyridine_urea_4146
     RDKit          3D

 25 26  0  0  0  0  0  0  0  0999 V2000
   13.5240    0.1370   22.8880 C   0  0  0  0  0  0  0  0  0  0  0  0
   12.2080   -0.3400   22.6740 C   0  0  0  0  0  0  0  0  0  0  0  0
   11.9550   -1.4900   22.0560 C   0  0  0  0  0  0  0  0  0  0  0  0
   10.6870   -1.8980   21.8690 C   0  0  0  0  0  0  0  0  0  0  0  0
    9.6850   -1.0790   22.3490 C   0  0  0  0  0  0  0  0  0  0  0  0
    8.4280   -1.6180   22.0560 N   0  0  0  0  0  0  0  0  0  0  0  0
    7.8410   -0.5950   21.4010 C   0  0  0  0  0  0  0  0  0  0  0  0
    8.3860    0.5080   21.3040 O   0  0  0  0  0  0  0  0  0  0  0  0
    6.5720   -0.9100   20.8440 N   0  0  0  0  0  0  0  0  0  0  0  0
    6.0970   -0.1520   19.8610 C   0  0  0  0  0  0  0  0  0  0  0  0
    4.8070    0.6390   20.0550 C   0  0  0  0  0  0  0  0  0  0  0  0
    4.3720    1.4190   19.0120 C   0  0  0  0  0  0  0  0  0  0  0  0
    5.1280    1.4480   17.8400 C   0  0  0  0  0  0  0  0  0  0  0  0
    6.2710    0.7500   17.6520 N   0  0  0  0  0  0  0  0  0  0  0  0
    6.7360   -0.0280   18.6480 C   0  0  0  0  0  0  0  0  0  0  0  0
    9.8880    0.1150   23.0060 C   0  0  0  0  0  0  0  0  0  0  0  0
   11.1800    0.4060   23.1190 C   0  0  0  0  0  0  0  0  0  0  0  0
   11.5550    1.7740   23.8780 S   0  0  0  0  0  0  0  0  0  0  0  0
   12.5320    1.0270   24.5930 O   0  0  0  0  0  0  0  0  0  0  0  0
   10.3950    2.4140   24.4620 O   0  0  0  0  0  0  0  0  0  0  0  0
   12.4080    2.8220   22.8390 N   0  0  0  0  0  0  0  0  0  0  0  0
   11.9190    4.0600   22.6240 C   0  0  0  0  0  0  0  0  0  0  0  0
   12.4050    4.6730   21.3330 C   0  0  0  0  0  0  0  0  0  0  0  0
   12.1330    4.9070   23.7210 C   0  0  0  0  0  0  0  0  0  0  0  0
   10.4180    3.9190   22.4230 C   0  0  0  0  0  0  0  0  0  0  0  0
  1  2  1  0
  2  3  2  0
  3  4  1  0
  4  5  2  0
  5  6  1  0
  6  7  1  0
  7  8  2  0
  7  9  1  0
  9 10  1  0
 10 11  2  0
 11 12  1  0
 12 13  2  0
 13 14  1  0
 10 15  1  0
 14 15  2  0
  5 16  1  0
  2 17  1  0
 16 17  2  0
 17 18  1  0
 18 19  2  0
 18 20  2  0
 18 21  1  0
 22 21  1  0
 22 23  1  0
 22 24  1  0
 22 25  1  0
M  END
