pyridine_urea_11840
     RDKit          3D

 25 28  0  0  0  0  0  0  0  0999 V2000
    8.8810    0.7230   21.3430 O   0  0  0  0  0  0  0  0  0  0  0  0
    8.2620   -0.3050   21.5920 C   0  0  0  0  0  0  0  0  0  0  0  0
    7.0670   -0.6850   21.0390 N   0  0  0  0  0  0  0  0  0  0  0  0
    6.4320   -0.0130   19.9990 C   0  0  0  0  0  0  0  0  0  0  0  0
    5.2510    0.6860   20.2530 C   0  0  0  0  0  0  0  0  0  0  0  0
    4.6130    1.3740   19.2200 C   0  0  0  0  0  0  0  0  0  0  0  0
    5.1920    1.3330   17.9640 C   0  0  0  0  0  0  0  0  0  0  0  0
    6.3230    0.6600   17.7030 N   0  0  0  0  0  0  0  0  0  0  0  0
    6.9140    0.0070   18.7160 C   0  0  0  0  0  0  0  0  0  0  0  0
    8.7100   -1.2310   22.4930 N   0  0  0  0  0  0  0  0  0  0  0  0
    9.8440   -0.8970   23.3420 C   0  0  1  0  0  0  0  0  0  0  0  0
   11.0700   -1.2450   22.5140 C   0  0  0  0  0  0  0  0  0  0  0  0
   11.1860   -2.2980   21.6810 C   0  0  0  0  0  0  0  0  0  0  0  0
   12.3580   -2.4880   20.9840 C   0  0  0  0  0  0  0  0  0  0  0  0
   13.4170   -1.6390   21.1110 C   0  0  0  0  0  0  0  0  0  0  0  0
   13.3630   -0.5540   21.9570 C   0  0  0  0  0  0  0  0  0  0  0  0
   12.2460   -0.3320   22.6380 C   0  0  0  0  0  0  0  0  0  0  0  0
   12.1700    0.8160   23.5000 C   0  0  0  0  0  0  0  0  0  0  0  0
   10.9620    0.7330   24.3980 C   0  0  0  0  0  0  0  0  0  0  0  0
    9.6530    0.5440   23.9600 C   0  0  2  0  0  0  0  0  0  0  0  0
    8.6970    0.4890   24.9780 N   0  0  0  0  0  0  0  0  0  0  0  0
    7.2900    0.4220   24.9330 C   0  0  0  0  0  0  0  0  0  0  0  0
    6.7640   -0.1870   26.0640 C   0  0  0  0  0  0  0  0  0  0  0  0
    7.8720   -0.6540   26.7630 C   0  0  0  0  0  0  0  0  0  0  0  0
    9.0630   -0.3810   26.0870 C   0  0  0  0  0  0  0  0  0  0  0  0
  1  2  2  0
  2  3  1  0
  3  4  1  0
  4  5  2  0
  5  6  1  0
  6  7  2  0
  7  8  1  0
  4  9  1  0
  8  9  2  0
  2 10  1  0
 11 10  1  6
 11 12  1  0
 12 13  2  0
 13 14  1  0
 14 15  2  0
 15 16  1  0
 12 17  1  0
 16 17  2  0
 17 18  1  0
 18 19  1  0
 11 20  1  0
 19 20  1  0
 20 21  1  1
 21 22  1  0
 22 23  1  0
 23 24  1  0
 21 25  1  0
 24 25  1  0
M  END
