pyridine_urea_10257
     RDKit          3D

 23 24  0  0  0  0  0  0  0  0999 V2000
    8.8340    0.9300   21.4620 O   0  0  0  0  0  0  0  0  0  0  0  0
    8.4520   -0.2290   21.4340 C   0  0  0  0  0  0  0  0  0  0  0  0
    9.2610   -1.3170   21.6610 N   0  0  0  0  0  0  0  0  0  0  0  0
   10.2720   -1.3130   22.6310 C   0  0  0  0  0  0  0  0  0  0  0  0
   11.1910   -0.2860   22.6270 C   0  0  0  0  0  0  0  0  0  0  0  0
   11.2180    0.8190   23.9310 S   0  0  0  0  0  0  0  0  0  0  0  0
   12.2970    0.3430   24.7360 O   0  0  0  0  0  0  0  0  0  0  0  0
   11.2260    2.1730   23.4200 O   0  0  0  0  0  0  0  0  0  0  0  0
    9.7570    0.5720   24.7610 N   0  0  0  0  0  0  0  0  0  0  0  0
    9.6500   -0.6560   25.5480 C   0  0  0  0  0  0  0  0  0  0  0  0
    8.6320   -0.7620   26.4780 C   0  0  0  0  0  0  0  0  0  0  0  0
    8.8820   -0.5260   27.8160 C   0  0  0  0  0  0  0  0  0  0  0  0
    7.7450   -0.6690   28.8120 C   0  0  0  0  0  0  0  0  0  0  0  0
    6.4700   -1.0230   28.4300 C   0  0  0  0  0  0  0  0  0  0  0  0
    6.2580   -1.2500   27.0560 C   0  0  0  0  0  0  0  0  0  0  0  0
    7.3110   -1.1230   26.1150 C   0  0  0  0  0  0  0  0  0  0  0  0
    7.1550   -0.5820   21.1240 N   0  0  0  0  0  0  0  0  0  0  0  0
    6.4840    0.0440   20.0120 C   0  0  0  0  0  0  0  0  0  0  0  0
    5.2350    0.8260   20.2480 C   0  0  0  0  0  0  0  0  0  0  0  0
    4.5750    1.4650   19.1870 C   0  0  0  0  0  0  0  0  0  0  0  0
    5.1290    1.3440   17.9180 C   0  0  0  0  0  0  0  0  0  0  0  0
    6.2590    0.6230   17.7170 N   0  0  0  0  0  0  0  0  0  0  0  0
    6.9550   -0.0340   18.7210 C   0  0  0  0  0  0  0  0  0  0  0  0
  1  2  2  0
  2  3  1  0
  3  4  1  0
  4  5  1  0
  5  6  1  0
  6  7  2  0
  6  8  2  0
  6  9  1  0
  9 10  1  0
 10 11  1  0
 11 12  2  0
 12 13  1  0
 13 14  2  0
 14 15  1  0
 11 16  1  0
 15 16  2  0
  2 17  1  0
 17 18  1  0
 18 19  2  0
 19 20  1  0
 20 21  2  0
 21 22  1  0
 18 23  1  0
 22 23  2  0
M  END
