pyridine_urea_14553
     RDKit          3D

 21 21  0  0  0  0  0  0  0  0999 V2000
    7.6310    1.0650   26.2130 C   0  0  0  0  0  0  0  0  0  0  0  0
    8.7030    0.0230   25.9610 C   0  0  0  0  0  0  0  0  0  0  0  0
    9.4880    0.3220   24.8100 O   0  0  0  0  0  0  0  0  0  0  0  0
   10.1560   -0.7040   24.2010 C   0  0  0  0  0  0  0  0  0  0  0  0
   10.5470   -1.6730   24.8600 O   0  0  0  0  0  0  0  0  0  0  0  0
   10.3710   -0.6790   22.8270 C   0  0  1  0  0  0  0  0  0  0  0  0
   11.3330   -1.5880   22.4080 C   0  0  0  0  0  0  0  0  0  0  0  0
   12.6340   -1.3680   22.8560 C   0  0  1  0  0  0  0  0  0  0  0  0
   13.2790   -0.1350   22.2800 C   0  0  0  0  0  0  0  0  0  0  0  0
   12.7390   -1.3550   24.2170 C   0  0  0  0  0  0  0  0  0  0  0  0
   12.3600   -0.1600   24.7870 C   0  0  0  0  0  0  0  0  0  0  0  0
    9.0310   -0.9100   22.3300 N   0  0  0  0  0  0  0  0  0  0  0  0
    8.4230    0.0670   21.4330 C   0  0  0  0  0  0  0  0  0  0  0  0
    8.8830    1.1860   21.1630 O   0  0  0  0  0  0  0  0  0  0  0  0
    7.2400   -0.4560   20.9480 N   0  0  0  0  0  0  0  0  0  0  0  0
    6.4540    0.1780   19.9960 C   0  0  0  0  0  0  0  0  0  0  0  0
    5.2000    0.9260   20.2510 C   0  0  0  0  0  0  0  0  0  0  0  0
    4.5710    1.5120   19.1570 C   0  0  0  0  0  0  0  0  0  0  0  0
    5.1410    1.3690   17.8970 C   0  0  0  0  0  0  0  0  0  0  0  0
    6.2690    0.6840   17.6600 N   0  0  0  0  0  0  0  0  0  0  0  0
    6.8940    0.1100   18.6960 C   0  0  0  0  0  0  0  0  0  0  0  0
  1  2  1  0
  2  3  1  0
  3  4  1  0
  4  5  2  0
  4  6  1  0
  6  7  1  1
  7  8  1  0
  8  9  1  1
  8 10  1  0
 10 11  1  0
  6 12  1  0
 12 13  1  0
 13 14  2  0
 13 15  1  0
 15 16  1  0
 16 17  2  0
 17 18  1  0
 18 19  2  0
 19 20  1  0
 16 21  1  0
 20 21  2  0
M  END
