pyridine_urea_3853
     RDKit          3D

 18 21  0  0  0  0  0  0  0  0999 V2000
    8.8610    1.2010   21.1540 O   0  0  0  0  0  0  0  0  0  0  0  0
    8.4080    0.0880   21.4660 C   0  0  0  0  0  0  0  0  0  0  0  0
    7.2150   -0.4390   21.0560 N   0  0  0  0  0  0  0  0  0  0  0  0
    6.5020    0.1370   20.0100 C   0  0  0  0  0  0  0  0  0  0  0  0
    5.3250    0.8430   20.2830 C   0  0  0  0  0  0  0  0  0  0  0  0
    4.6270    1.4400   19.2360 C   0  0  0  0  0  0  0  0  0  0  0  0
    5.1310    1.3040   17.9640 C   0  0  0  0  0  0  0  0  0  0  0  0
    6.2470    0.6230   17.6800 N   0  0  0  0  0  0  0  0  0  0  0  0
    6.9040    0.0570   18.7040 C   0  0  0  0  0  0  0  0  0  0  0  0
    9.1150   -0.7580   22.2690 N   0  0  0  0  0  0  0  0  0  0  0  0
   10.4790   -0.3520   22.5440 C   0  0  1  0  0  0  0  0  0  0  0  0
   10.6310    0.1390   23.9650 C   0  0  0  0  0  0  0  0  0  0  0  0
   11.4050   -0.8490   24.5050 C   0  0  1  0  0  0  0  0  0  0  0  0
   11.3150   -1.9580   23.6570 C   0  0  0  0  0  0  0  0  0  0  0  0
   11.4780   -1.2990   22.4570 C   0  0  2  0  0  0  0  0  0  0  0  0
   12.6960   -0.7020   22.6870 C   0  0  1  0  0  0  0  0  0  0  0  0
   12.7490    0.5560   22.8760 C   0  0  0  0  0  0  0  0  0  0  0  0
   12.7810   -0.2990   24.1820 C   0  0  1  0  0  0  0  0  0  0  0  0
  1  2  2  0
  2  3  1  0
  3  4  1  0
  4  5  2  0
  5  6  1  0
  6  7  2  0
  7  8  1  0
  4  9  1  0
  8  9  2  0
  2 10  1  0
 11 10  1  1
 11 12  1  0
 13 12  1  6
 13 14  1  0
 11 15  1  0
 15 14  1  1
 15 16  1  0
 16 17  1  6
 13 18  1  0
 16 18  1  0
 18 17  1  6
M  END
