pyridine_urea_7034
     RDKit          3D

 20 22  0  0  0  0  0  0  0  0999 V2000
    9.0460    1.7460   21.3990 O   0  0  0  0  0  0  0  0  0  0  0  0
    9.0330    0.5370   21.5760 C   0  0  0  0  0  0  0  0  0  0  0  0
    7.9170   -0.2430   21.1730 N   0  0  0  0  0  0  0  0  0  0  0  0
    6.9350    0.2140   20.2270 C   0  0  0  0  0  0  0  0  0  0  0  0
    5.8150    0.9950   20.5350 C   0  0  0  0  0  0  0  0  0  0  0  0
    4.9300    1.4000   19.5270 C   0  0  0  0  0  0  0  0  0  0  0  0
    5.1830    1.0150   18.2320 C   0  0  0  0  0  0  0  0  0  0  0  0
    6.2380    0.2600   17.8860 N   0  0  0  0  0  0  0  0  0  0  0  0
    7.0750   -0.1190   18.8780 C   0  0  0  0  0  0  0  0  0  0  0  0
   10.1380   -0.1880   22.1200 N   0  0  0  0  0  0  0  0  0  0  0  0
   10.9610   -0.0360   23.3540 C   0  0  2  0  0  0  0  0  0  0  0  0
   11.9310   -1.1420   23.2910 C   0  0  0  0  0  0  0  0  0  0  0  0
   11.1210   -2.7540   23.4630 S   0  0  0  0  0  0  0  0  0  0  0  0
   10.3160   -1.5220   24.2750 C   0  0  0  0  0  0  0  0  0  0  0  0
   11.3320   -1.2120   23.2620 C   0  0  0  0  0  0  0  0  0  0  0  0
   11.8900   -0.0000   22.7160 C   0  0  0  0  0  0  0  0  0  0  0  0
   11.4080    1.2900   23.1750 C   0  0  0  0  0  0  0  0  0  0  0  0
   11.9550    3.0410   22.6620 Br  0  0  0  0  0  0  0  0  0  0  0  0
   10.4650    1.0950   24.0990 C   0  0  0  0  0  0  0  0  0  0  0  0
   10.0980   -0.2010   24.4880 C   0  0  0  0  0  0  0  0  0  0  0  0
  1  2  2  0
  2  3  1  0
  3  4  1  0
  4  5  2  0
  5  6  1  0
  6  7  2  0
  7  8  1  0
  4  9  1  0
  8  9  2  0
  2 10  1  0
 11 10  1  6
 11 12  1  0
 12 13  1  0
 13 14  1  0
 14 15  1  0
 15 16  2  0
 16 17  1  0
 17 18  1  0
 17 19  2  0
 11 20  1  0
 14 20  2  0
 19 20  1  0
M  END
