pyridine_urea_1915
     RDKit          3D

 18 20  0  0  0  0  0  0  0  0999 V2000
    8.8050    1.1880   21.1770 O   0  0  0  0  0  0  0  0  0  0  0  0
    8.4440    0.0360   21.4780 C   0  0  0  0  0  0  0  0  0  0  0  0
    7.3170   -0.5890   21.0000 N   0  0  0  0  0  0  0  0  0  0  0  0
    6.4890    0.0540   20.0820 C   0  0  0  0  0  0  0  0  0  0  0  0
    5.1680    0.7590   20.4260 C   0  0  0  0  0  0  0  0  0  0  0  0
    4.4810    1.4120   19.2270 C   0  0  0  0  0  0  0  0  0  0  0  0
    5.1580    1.2880   17.9010 C   0  0  0  0  0  0  0  0  0  0  0  0
    6.3100    0.6360   17.7160 N   0  0  0  0  0  0  0  0  0  0  0  0
    6.9190    0.0580   18.7650 C   0  0  0  0  0  0  0  0  0  0  0  0
    9.2040   -0.7400   22.3270 N   0  0  0  0  0  0  0  0  0  0  0  0
   10.5430   -0.2480   22.4910 C   0  0  2  0  0  0  0  0  0  0  0  0
   11.5690   -1.1700   22.2890 C   0  0  0  0  0  0  0  0  0  0  0  0
   12.6440   -0.6520   23.0320 C   0  0  2  0  0  0  0  0  0  0  0  0
   12.5350   -0.9080   24.3620 C   0  0  0  0  0  0  0  0  0  0  0  0
   11.2300   -0.5640   24.6630 C   0  0  2  0  0  0  0  0  0  0  0  0
   10.4400   -1.7350   24.6060 O   0  0  0  0  0  0  0  0  0  0  0  0
   10.7800    0.3580   23.7000 C   0  0  1  0  0  0  0  0  0  0  0  0
   12.1750    0.8170   23.2160 C   0  0  0  0  0  0  0  0  0  0  0  0
  1  2  2  0
  2  3  1  0
  3  4  1  0
  4  5  2  0
  5  6  1  0
  6  7  2  0
  7  8  1  0
  4  9  1  0
  8  9  2  0
  2 10  1  0
 11 10  1  1
 11 12  1  0
 13 12  1  6
 13 14  1  0
 14 15  1  0
 15 16  1  6
 11 17  1  0
 15 17  1  0
 13 18  1  0
 17 18  1  6
M  END
