pyridine_urea_9942
     RDKit          3D

 24 26  0  0  0  0  0  0  0  0999 V2000
   11.0750    6.4470   22.4960 N   0  0  0  0  0  0  0  0  0  0  0  0
   12.4440    5.7250   23.1400 S   0  0  0  0  0  0  0  0  0  0  0  0
   13.5170    5.9500   22.1980 O   0  0  0  0  0  0  0  0  0  0  0  0
   12.4550    6.1190   24.5270 O   0  0  0  0  0  0  0  0  0  0  0  0
   11.8680    4.0710   23.0410 C   0  0  0  0  0  0  0  0  0  0  0  0
   10.3930    3.9780   23.0720 C   0  0  0  0  0  0  0  0  0  0  0  0
    9.7970    2.7930   22.9810 C   0  0  0  0  0  0  0  0  0  0  0  0
   10.5700    1.6590   22.8580 C   0  0  0  0  0  0  0  0  0  0  0  0
    9.8320    0.5800   22.7300 C   0  0  0  0  0  0  0  0  0  0  0  0
   10.3390   -0.6530   22.5550 C   0  0  0  0  0  0  0  0  0  0  0  0
    9.2570   -1.4530   22.3720 N   0  0  0  0  0  0  0  0  0  0  0  0
    8.3690   -0.7470   21.5290 C   0  0  0  0  0  0  0  0  0  0  0  0
    8.8420    0.3340   21.2120 O   0  0  0  0  0  0  0  0  0  0  0  0
    7.1280   -1.1720   21.0970 N   0  0  0  0  0  0  0  0  0  0  0  0
    6.4680   -0.3950   20.0950 C   0  0  0  0  0  0  0  0  0  0  0  0
    5.2670    0.2770   20.3980 C   0  0  0  0  0  0  0  0  0  0  0  0
    4.6390    1.0470   19.4140 C   0  0  0  0  0  0  0  0  0  0  0  0
    5.2200    1.1330   18.1570 C   0  0  0  0  0  0  0  0  0  0  0  0
    6.3550    0.5060   17.8400 N   0  0  0  0  0  0  0  0  0  0  0  0
    6.9510   -0.2420   18.8040 C   0  0  0  0  0  0  0  0  0  0  0  0
   11.8350   -0.8130   22.5680 C   0  0  0  0  0  0  0  0  0  0  0  0
   12.6330    0.3640   22.7180 C   0  0  0  0  0  0  0  0  0  0  0  0
   11.9760    1.6250   22.8410 C   0  0  0  0  0  0  0  0  0  0  0  0
   12.6440    2.8800   22.9320 C   0  0  0  0  0  0  0  0  0  0  0  0
  2  1  1  0
  2  3  2  0
  2  4  2  0
  2  5  1  0
  5  6  2  0
  6  7  1  0
  7  8  2  0
  8  9  1  0
  9 10  2  0
 10 11  1  0
 11 12  1  0
 12 13  2  0
 12 14  1  0
 14 15  1  0
 15 16  2  0
 16 17  1  0
 17 18  2  0
 18 19  1  0
 15 20  1  0
 19 20  2  0
 10 21  1  0
 21 22  2  0
  8 23  1  0
 22 23  1  0
  5 24  1  0
 23 24  2  0
M  END
