pyridine_urea_13522
     RDKit          3D

 21 22  0  0  0  0  0  0  0  0999 V2000
    8.8600    0.8760   24.0880 C   0  0  0  0  0  0  0  0  0  0  0  0
   10.3160    0.4640   23.7940 C   0  0  0  0  0  0  0  0  0  0  0  0
   11.1320    1.7620   23.7220 C   0  0  0  0  0  0  0  0  0  0  0  0
   10.4650   -0.3450   22.4650 C   0  0  2  0  0  0  0  0  0  0  0  0
    9.1920   -0.9680   22.1390 N   0  0  0  0  0  0  0  0  0  0  0  0
    8.3150   -0.1550   21.4420 C   0  0  0  0  0  0  0  0  0  0  0  0
    8.5850    1.0050   21.1620 O   0  0  0  0  0  0  0  0  0  0  0  0
    7.1600   -0.7630   21.1070 N   0  0  0  0  0  0  0  0  0  0  0  0
    6.4650   -0.0860   20.1580 C   0  0  0  0  0  0  0  0  0  0  0  0
    5.3000    0.6500   20.3660 C   0  0  0  0  0  0  0  0  0  0  0  0
    4.6470    1.3290   19.3280 C   0  0  0  0  0  0  0  0  0  0  0  0
    5.1930    1.2570   18.0570 C   0  0  0  0  0  0  0  0  0  0  0  0
    6.3030    0.5800   17.7310 N   0  0  0  0  0  0  0  0  0  0  0  0
    6.9280   -0.0760   18.7390 C   0  0  0  0  0  0  0  0  0  0  0  0
   11.7380   -1.2400   22.4980 C   0  0  0  0  0  0  0  0  0  0  0  0
   11.5640   -2.4830   21.9460 C   0  0  0  0  0  0  0  0  0  0  0  0
   12.8400   -2.9990   21.5330 O   0  0  0  0  0  0  0  0  0  0  0  0
   12.0340   -1.3240   23.9820 C   0  0  0  0  0  0  0  0  0  0  0  0
   12.6600   -0.1710   24.2520 C   0  0  0  0  0  0  0  0  0  0  0  0
   13.0600    0.2820   23.0060 C   0  0  0  0  0  0  0  0  0  0  0  0
   13.1950   -0.8060   22.1760 C   0  0  0  0  0  0  0  0  0  0  0  0
  1  2  1  0
  2  3  1  0
  2  4  1  0
  4  5  1  1
  5  6  1  0
  6  7  2  0
  6  8  1  0
  8  9  1  0
  9 10  2  0
 10 11  1  0
 11 12  2  0
 12 13  1  0
  9 14  1  0
 13 14  2  0
  4 15  1  0
 15 16  1  0
 16 17  1  0
 15 18  1  0
 18 19  1  0
 19 20  1  0
 15 21  1  0
 20 21  1  0
M  END
