pyridine_urea_304
     RDKit          3D

 30 32  0  0  0  0  0  0  0  0999 V2000
    8.3920    0.8070   20.9900 O   0  0  0  0  0  0  0  0  0  0  0  0
    7.8100   -0.1210   21.5360 C   0  0  0  0  0  0  0  0  0  0  0  0
    6.8090   -0.8100   20.9360 N   0  0  0  0  0  0  0  0  0  0  0  0
    6.2570   -0.0640   19.8620 C   0  0  0  0  0  0  0  0  0  0  0  0
    4.9520    0.6580   20.1480 C   0  0  0  0  0  0  0  0  0  0  0  0
    4.4340    1.4400   18.9990 C   0  0  0  0  0  0  0  0  0  0  0  0
    5.1570    1.4410   17.8220 C   0  0  0  0  0  0  0  0  0  0  0  0
    6.3100    0.7710   17.6310 N   0  0  0  0  0  0  0  0  0  0  0  0
    6.8270    0.0470   18.6330 C   0  0  0  0  0  0  0  0  0  0  0  0
    8.0570   -0.5690   22.7910 N   0  0  0  0  0  0  0  0  0  0  0  0
    9.4000   -1.0340   23.0870 C   0  0  1  0  0  0  0  0  0  0  0  0
   10.1310   -1.3350   22.0130 C   0  0  0  0  0  0  0  0  0  0  0  0
   10.9890   -0.0840   22.3300 C   0  0  0  0  0  0  0  0  0  0  0  0
   12.3050    0.1720   22.5600 C   0  0  0  0  0  0  0  0  0  0  0  0
   12.6480    1.4950   22.7760 C   0  0  0  0  0  0  0  0  0  0  0  0
   11.6810    2.5270   22.7620 C   0  0  0  0  0  0  0  0  0  0  0  0
   12.2990    4.1290   23.0110 Cl  0  0  0  0  0  0  0  0  0  0  0  0
   10.1480    2.4930   22.5500 C   0  0  0  0  0  0  0  0  0  0  0  0
    9.9530    1.0020   22.3290 C   0  0  0  0  0  0  0  0  0  0  0  0
   10.2740   -0.0010   23.7150 C   0  0  0  0  0  0  0  0  0  0  0  0
   11.3730    0.5600   24.3660 C   0  0  0  0  0  0  0  0  0  0  0  0
   12.6070    0.1460   24.9220 C   0  0  0  0  0  0  0  0  0  0  0  0
   12.6090   -1.1390   24.7420 C   0  0  0  0  0  0  0  0  0  0  0  0
   13.6840   -1.7880   25.2050 F   0  0  0  0  0  0  0  0  0  0  0  0
   11.7500   -1.8150   24.2050 C   0  0  0  0  0  0  0  0  0  0  0  0
   12.0660   -3.0540   24.1720 C   0  0  0  0  0  0  0  0  0  0  0  0
   10.9620   -3.7890   24.2720 F   0  0  0  0  0  0  0  0  0  0  0  0
   12.9570   -3.3620   25.1270 F   0  0  0  0  0  0  0  0  0  0  0  0
   12.7210   -3.1770   23.0000 F   0  0  0  0  0  0  0  0  0  0  0  0
   10.6620   -1.3160   23.7190 C   0  0  0  0  0  0  0  0  0  0  0  0
  1  2  2  0
  2  3  1  0
  3  4  1  0
  4  5  2  0
  5  6  1  0
  6  7  2  0
  7  8  1  0
  4  9  1  0
  8  9  2  0
  2 10  1  0
 10 11  1  0
 11 12  1  6
 12 13  1  0
 13 14  2  0
 14 15  1  0
 15 16  2  0
 16 17  1  0
 16 18  1  0
 13 19  1  0
 18 19  2  0
 11 20  1  0
 20 21  2  0
 21 22  1  0
 22 23  2  0
 23 24  1  0
 23 25  1  0
 25 26  1  0
 26 27  1  0
 26 28  1  0
 26 29  1  0
 20 30  1  0
 25 30  2  0
M  END
