pyridine_urea_6463
     RDKit          3D

 18 19  0  0  0  0  0  0  0  0999 V2000
   12.9900   -2.2860   22.3640 C   0  0  0  0  0  0  0  0  0  0  0  0
   11.8610   -2.0580   22.0360 C   0  0  0  0  0  0  0  0  0  0  0  0
   10.3950   -2.2390   21.7090 C   0  0  0  0  0  0  0  0  0  0  0  0
   11.6300   -1.0770   23.1890 C   0  0  1  0  0  0  0  0  0  0  0  0
   12.5420   -0.0870   22.9940 C   0  0  0  0  0  0  0  0  0  0  0  0
   11.9210    1.2370   23.3070 C   0  0  0  0  0  0  0  0  0  0  0  0
   10.5210    0.8400   23.5410 C   0  0  0  0  0  0  0  0  0  0  0  0
   10.3080   -0.5100   23.4000 C   0  0  1  0  0  0  0  0  0  0  0  0
    9.2750   -0.8360   22.4020 N   0  0  0  0  0  0  0  0  0  0  0  0
    8.6110    0.1000   21.6000 C   0  0  0  0  0  0  0  0  0  0  0  0
    9.0810    1.1940   21.2570 O   0  0  0  0  0  0  0  0  0  0  0  0
    7.3630   -0.3680   21.2350 N   0  0  0  0  0  0  0  0  0  0  0  0
    6.6000    0.1790   20.1020 C   0  0  0  0  0  0  0  0  0  0  0  0
    5.4680    0.9110   20.4320 C   0  0  0  0  0  0  0  0  0  0  0  0
    4.7010    1.4800   19.4330 C   0  0  0  0  0  0  0  0  0  0  0  0
    5.1520    1.2660   18.0130 C   0  0  0  0  0  0  0  0  0  0  0  0
    6.2410    0.5520   17.6880 N   0  0  0  0  0  0  0  0  0  0  0  0
    6.9590    0.0110   18.6950 C   0  0  0  0  0  0  0  0  0  0  0  0
  1  2  1  0
  2  3  1  0
  4  2  1  6
  4  5  1  0
  5  6  1  0
  6  7  1  0
  4  8  1  0
  7  8  1  0
  8  9  1  6
  9 10  1  0
 10 11  2  0
 10 12  1  0
 12 13  1  0
 13 14  2  0
 14 15  1  0
 15 16  2  0
 16 17  1  0
 13 18  1  0
 17 18  2  0
M  END
