pyridine_urea_8694
     RDKit          3D

 21 23  0  0  0  0  0  0  0  0999 V2000
   12.7940    4.5160   21.7620 C   0  0  0  0  0  0  0  0  0  0  0  0
   12.9290    3.7750   22.9790 O   0  0  0  0  0  0  0  0  0  0  0  0
   13.3160    2.4640   22.8590 C   0  0  0  0  0  0  0  0  0  0  0  0
   11.9090    2.6010   22.9900 N   0  0  0  0  0  0  0  0  0  0  0  0
   11.1720    1.4330   22.9130 C   0  0  0  0  0  0  0  0  0  0  0  0
    9.8510    1.6910   23.0240 C   0  0  0  0  0  0  0  0  0  0  0  0
    8.9990    0.6880   22.8950 C   0  0  0  0  0  0  0  0  0  0  0  0
    9.5610   -0.6620   22.6320 C   0  0  0  0  0  0  0  0  0  0  0  0
    8.5970   -1.5600   22.4090 N   0  0  0  0  0  0  0  0  0  0  0  0
    7.8780   -0.8800   21.3820 C   0  0  0  0  0  0  0  0  0  0  0  0
    8.3750    0.1370   20.9220 O   0  0  0  0  0  0  0  0  0  0  0  0
    6.6970   -1.3280   20.9690 N   0  0  0  0  0  0  0  0  0  0  0  0
    6.1580   -0.4530   20.0560 C   0  0  0  0  0  0  0  0  0  0  0  0
    5.0090    0.3210   20.2610 C   0  0  0  0  0  0  0  0  0  0  0  0
    4.5620    1.1760   19.2600 C   0  0  0  0  0  0  0  0  0  0  0  0
    5.2700    1.2490   18.0690 C   0  0  0  0  0  0  0  0  0  0  0  0
    6.3760    0.5230   17.8340 N   0  0  0  0  0  0  0  0  0  0  0  0
    6.7930   -0.3040   18.8270 C   0  0  0  0  0  0  0  0  0  0  0  0
   11.0280   -0.8650   22.5810 C   0  0  0  0  0  0  0  0  0  0  0  0
   11.7820    0.2610   22.7290 C   0  0  0  0  0  0  0  0  0  0  0  0
   13.3850    0.5270   22.7090 S   0  0  0  0  0  0  0  0  0  0  0  0
  1  2  1  0
  2  3  1  0
  3  4  2  0
  4  5  1  0
  5  6  2  0
  6  7  1  0
  7  8  2  0
  8  9  1  0
  9 10  1  0
 10 11  2  0
 10 12  1  0
 12 13  1  0
 13 14  2  0
 14 15  1  0
 15 16  2  0
 16 17  1  0
 13 18  1  0
 17 18  2  0
  8 19  1  0
  5 20  1  0
 19 20  2  0
  3 21  1  0
 20 21  1  0
M  END
