pyridine_urea_5920
     RDKit          3D

 27 30  0  0  0  0  0  0  0  0999 V2000
    8.7590    1.1600   21.0920 O   0  0  0  0  0  0  0  0  0  0  0  0
    8.3920    0.0790   21.5720 C   0  0  0  0  0  0  0  0  0  0  0  0
    7.2470   -0.6520   21.0370 N   0  0  0  0  0  0  0  0  0  0  0  0
    6.5240    0.0010   20.0480 C   0  0  0  0  0  0  0  0  0  0  0  0
    5.3580    0.7140   20.3550 C   0  0  0  0  0  0  0  0  0  0  0  0
    4.6800    1.3630   19.3200 C   0  0  0  0  0  0  0  0  0  0  0  0
    5.1840    1.2790   18.0210 C   0  0  0  0  0  0  0  0  0  0  0  0
    6.2960    0.5920   17.7180 N   0  0  0  0  0  0  0  0  0  0  0  0
    6.9390   -0.0310   18.7340 C   0  0  0  0  0  0  0  0  0  0  0  0
    8.9680   -0.5880   22.6400 N   0  0  0  0  0  0  0  0  0  0  0  0
   10.3420   -0.2730   23.0210 C   0  0  0  0  0  0  0  0  0  0  0  0
   10.5530    1.2440   22.9590 C   0  0  0  0  0  0  0  0  0  0  0  0
    9.4960    2.1290   22.8380 N   0  0  0  0  0  0  0  0  0  0  0  0
   10.0830    3.3880   22.8440 O   0  0  0  0  0  0  0  0  0  0  0  0
   11.4050    3.1200   22.9690 C   0  0  0  0  0  0  0  0  0  0  0  0
   12.3240    4.1510   23.0370 C   0  0  0  0  0  0  0  0  0  0  0  0
   11.7880    5.2330   23.7610 C   0  0  0  0  0  0  0  0  0  0  0  0
   12.1010    6.3840   23.0830 C   0  0  0  0  0  0  0  0  0  0  0  0
   13.0200    6.0110   22.1380 C   0  0  0  0  0  0  0  0  0  0  0  0
   12.8090    4.6860   21.8620 C   0  0  0  0  0  0  0  0  0  0  0  0
   11.7960    1.8470   23.0380 N   0  0  0  0  0  0  0  0  0  0  0  0
   10.5410   -0.6070   24.4660 C   0  0  0  0  0  0  0  0  0  0  0  0
   11.9230   -0.4180   24.6570 C   0  0  0  0  0  0  0  0  0  0  0  0
   12.6740   -1.5850   24.5570 C   0  0  0  0  0  0  0  0  0  0  0  0
   13.0570   -1.9190   23.2670 C   0  0  0  0  0  0  0  0  0  0  0  0
   12.6190   -1.0040   22.3180 C   0  0  0  0  0  0  0  0  0  0  0  0
   11.2460   -1.1860   22.1730 C   0  0  0  0  0  0  0  0  0  0  0  0
  1  2  2  0
  2  3  1  0
  3  4  1  0
  4  5  2  0
  5  6  1  0
  6  7  2  0
  7  8  1  0
  4  9  1  0
  8  9  2  0
  2 10  1  0
 11 10  1  0
 11 12  1  0
 12 13  2  0
 13 14  1  0
 14 15  1  0
 15 16  1  0
 16 17  1  0
 17 18  1  0
 18 19  1  0
 16 20  1  0
 19 20  1  0
 12 21  1  0
 15 21  2  0
 11 22  1  0
 22 23  1  0
 23 24  1  0
 24 25  1  0
 25 26  1  0
 11 27  1  0
 26 27  1  0
M  END
