pyridine_urea_8810
     RDKit          3D

 20 21  0  0  0  0  0  0  0  0999 V2000
    8.8140    0.3670   23.4020 C   0  0  0  0  0  0  0  0  0  0  0  0
    9.6930   -0.7800   22.8490 C   0  0  1  0  0  0  0  0  0  0  0  0
    9.1660   -1.0260   21.5250 N   0  0  0  0  0  0  0  0  0  0  0  0
    8.1930   -0.1610   21.1030 C   0  0  0  0  0  0  0  0  0  0  0  0
    8.4520    1.2340   20.8440 O   0  0  0  0  0  0  0  0  0  0  0  0
    7.0030   -0.8060   20.9990 N   0  0  0  0  0  0  0  0  0  0  0  0
    6.3470   -0.0700   20.0550 C   0  0  0  0  0  0  0  0  0  0  0  0
    5.1750    0.6700   20.2050 C   0  0  0  0  0  0  0  0  0  0  0  0
    4.5990    1.3890   19.1560 C   0  0  0  0  0  0  0  0  0  0  0  0
    5.2300    1.3570   17.9290 C   0  0  0  0  0  0  0  0  0  0  0  0
    6.3570    0.6600   17.7350 N   0  0  0  0  0  0  0  0  0  0  0  0
    6.8790   -0.0260   18.7760 C   0  0  0  0  0  0  0  0  0  0  0  0
   11.1530   -0.3750   22.8650 C   0  0  0  0  0  0  0  0  0  0  0  0
   12.2020   -1.3460   22.8960 C   0  0  0  0  0  0  0  0  0  0  0  0
   12.2200   -0.0800   22.8810 C   0  0  0  0  0  0  0  0  0  0  0  0
   13.4800    0.9580   22.8760 Cl  0  0  0  0  0  0  0  0  0  0  0  0
   10.7480    0.2530   22.8650 C   0  0  0  0  0  0  0  0  0  0  0  0
   10.3200    1.4770   22.8330 C   0  0  0  0  0  0  0  0  0  0  0  0
   11.6580    1.0890   22.8530 C   0  0  0  0  0  0  0  0  0  0  0  0
   11.6840    3.0000   22.8280 Br  0  0  0  0  0  0  0  0  0  0  0  0
  2  1  1  6
  2  3  1  0
  3  4  1  0
  4  5  2  0
  4  6  1  0
  6  7  1  0
  7  8  2  0
  8  9  1  0
  9 10  2  0
 10 11  1  0
  7 12  1  0
 11 12  2  0
  2 13  1  0
 13 14  2  0
 14 15  1  0
 15 16  1  0
 15 17  2  0
 17 18  1  0
 13 19  1  0
 18 19  2  0
 19 20  1  0
M  END
