pyridine_urea_15190
     RDKit          3D

 17 17  0  0  0  0  0  0  0  0999 V2000
    6.8330   -2.6500   25.1220 C   0  0  0  0  0  0  0  0  0  0  0  0
    8.1340   -2.5550   23.8660 S   0  0  0  0  0  0  0  0  0  0  0  0
    7.0860   -2.7590   22.3780 C   0  0  0  0  0  0  0  0  0  0  0  0
    8.9460   -3.7600   23.9390 O   0  0  0  0  0  0  0  0  0  0  0  0
    8.6470   -1.1100   23.9110 N   0  0  0  0  0  0  0  0  0  0  0  0
    9.9930   -0.8080   23.7710 C   0  0  0  0  0  0  0  0  0  0  0  0
   10.4990   -1.2130   22.4270 C   0  0  0  0  0  0  0  0  0  0  0  0
    9.4370   -1.1860   21.4490 N   0  0  0  0  0  0  0  0  0  0  0  0
    8.6060   -0.0880   21.3890 C   0  0  0  0  0  0  0  0  0  0  0  0
    9.0270    1.0520   21.5450 O   0  0  0  0  0  0  0  0  0  0  0  0
    7.3040   -0.4280   21.1060 N   0  0  0  0  0  0  0  0  0  0  0  0
    6.5790    0.1310   20.0520 C   0  0  0  0  0  0  0  0  0  0  0  0
    5.3140    0.9220   20.3480 C   0  0  0  0  0  0  0  0  0  0  0  0
    4.6310    1.4820   19.2730 C   0  0  0  0  0  0  0  0  0  0  0  0
    5.1310    1.2930   17.9930 C   0  0  0  0  0  0  0  0  0  0  0  0
    6.2410    0.5890   17.7150 N   0  0  0  0  0  0  0  0  0  0  0  0
    6.9360    0.0280   18.7260 C   0  0  0  0  0  0  0  0  0  0  0  0
  2  1  1  0
  2  3  1  0
  2  4  2  0
  2  5  2  0
  5  6  1  0
  6  7  1  0
  7  8  1  0
  8  9  1  0
  9 10  2  0
  9 11  1  0
 11 12  1  0
 12 13  2  0
 13 14  1  0
 14 15  2  0
 15 16  1  0
 12 17  1  0
 16 17  2  0
M  END
