pyridine_urea_14849
     RDKit          3D

 20 21  0  0  0  0  0  0  0  0999 V2000
    7.8640    1.4820   24.9710 C   0  0  0  0  0  0  0  0  0  0  0  0
    8.9050    0.5470   25.5560 C   0  0  0  0  0  0  0  0  0  0  0  0
    8.7730    0.1410   26.8790 C   0  0  0  0  0  0  0  0  0  0  0  0
    9.0390   -0.6460   24.8010 O   0  0  0  0  0  0  0  0  0  0  0  0
   10.2800   -0.7710   24.0500 C   0  0  0  0  0  0  0  0  0  0  0  0
   11.4100   -0.4970   24.7750 C   0  0  0  0  0  0  0  0  0  0  0  0
   12.6580   -0.5720   24.2070 C   0  0  0  0  0  0  0  0  0  0  0  0
   12.7240   -0.9850   22.7520 C   0  0  0  0  0  0  0  0  0  0  0  0
   11.5790   -1.2690   22.0380 C   0  0  0  0  0  0  0  0  0  0  0  0
   10.3420   -1.1480   22.6980 C   0  0  0  0  0  0  0  0  0  0  0  0
    9.1200   -1.3850   22.0680 N   0  0  0  0  0  0  0  0  0  0  0  0
    8.3460   -0.3200   21.4270 C   0  0  0  0  0  0  0  0  0  0  0  0
    8.7840    0.8170   21.2970 O   0  0  0  0  0  0  0  0  0  0  0  0
    7.1090   -0.7510   20.9930 N   0  0  0  0  0  0  0  0  0  0  0  0
    6.3780   -0.0330   20.0390 C   0  0  0  0  0  0  0  0  0  0  0  0
    5.1020    0.7060   20.2680 C   0  0  0  0  0  0  0  0  0  0  0  0
    4.5610    1.3700   19.1660 C   0  0  0  0  0  0  0  0  0  0  0  0
    5.2060    1.3180   17.9440 C   0  0  0  0  0  0  0  0  0  0  0  0
    6.3470    0.6540   17.7150 N   0  0  0  0  0  0  0  0  0  0  0  0
    6.8980    0.0010   18.7560 C   0  0  0  0  0  0  0  0  0  0  0  0
  1  2  1  0
  2  3  1  0
  2  4  1  0
  4  5  1  0
  5  6  2  0
  6  7  1  0
  7  8  2  0
  8  9  1  0
  5 10  1  0
  9 10  2  0
 10 11  1  0
 11 12  1  0
 12 13  2  0
 12 14  1  0
 14 15  1  0
 15 16  2  0
 16 17  1  0
 17 18  2  0
 18 19  1  0
 15 20  1  0
 19 20  2  0
M  END
