pyridine_urea_11225
     RDKit          3D

 16 16  0  0  0  0  0  0  0  0999 V2000
   12.8550    0.7630   22.8170 C   0  0  0  0  0  0  0  0  0  0  0  0
   11.7070    1.1220   22.8540 C   0  0  0  0  0  0  0  0  0  0  0  0
   10.4070    1.9560   22.8200 C   0  0  0  0  0  0  0  0  0  0  0  0
   11.1860   -0.2830   23.2230 C   0  0  0  0  0  0  0  0  0  0  0  0
   11.9480   -1.4000   23.3880 F   0  0  0  0  0  0  0  0  0  0  0  0
    9.8240   -0.4150   23.4070 C   0  0  0  0  0  0  0  0  0  0  0  0
    9.2450   -0.8420   22.1570 N   0  0  0  0  0  0  0  0  0  0  0  0
    8.5090    0.0370   21.3910 C   0  0  0  0  0  0  0  0  0  0  0  0
    8.9100    1.1750   21.1310 O   0  0  0  0  0  0  0  0  0  0  0  0
    7.3140   -0.5040   20.9760 N   0  0  0  0  0  0  0  0  0  0  0  0
    6.4530    0.1390   20.0750 C   0  0  0  0  0  0  0  0  0  0  0  0
    5.3130    0.7760   20.4970 C   0  0  0  0  0  0  0  0  0  0  0  0
    4.6600    1.3680   19.2570 C   0  0  0  0  0  0  0  0  0  0  0  0
    5.1840    1.2380   17.9970 C   0  0  0  0  0  0  0  0  0  0  0  0
    6.2840    0.5970   17.6950 N   0  0  0  0  0  0  0  0  0  0  0  0
    6.8790    0.0680   18.7540 C   0  0  0  0  0  0  0  0  0  0  0  0
  1  2  1  0
  2  3  1  0
  2  4  2  3
  4  5  1  0
  4  6  1  0
  6  7  1  0
  7  8  1  0
  8  9  2  0
  8 10  1  0
 10 11  1  0
 11 12  2  0
 12 13  1  0
 13 14  2  0
 14 15  1  0
 11 16  1  0
 15 16  2  0
M  END
