pyridine_urea_10735
     RDKit          3D

 20 22  0  0  0  0  0  0  0  0999 V2000
    8.7980    1.1780   21.1220 O   0  0  0  0  0  0  0  0  0  0  0  0
    8.5820   -0.0160   21.3780 C   0  0  0  0  0  0  0  0  0  0  0  0
    7.2890   -0.6250   21.0750 N   0  0  0  0  0  0  0  0  0  0  0  0
    6.5500    0.0140   20.0790 C   0  0  0  0  0  0  0  0  0  0  0  0
    5.3940    0.7320   20.3900 C   0  0  0  0  0  0  0  0  0  0  0  0
    4.6970    1.3660   19.3550 C   0  0  0  0  0  0  0  0  0  0  0  0
    5.1850    1.2590   18.0500 C   0  0  0  0  0  0  0  0  0  0  0  0
    6.2880    0.5690   17.7390 N   0  0  0  0  0  0  0  0  0  0  0  0
    6.9470   -0.0410   18.7580 C   0  0  0  0  0  0  0  0  0  0  0  0
    9.4750   -0.9120   21.9420 N   0  0  0  0  0  0  0  0  0  0  0  0
   10.6440   -0.3690   22.6340 C   0  0  0  0  0  0  0  0  0  0  0  0
   10.4270    1.0950   23.0090 C   0  0  0  0  0  0  0  0  0  0  0  0
   11.4830    1.9930   22.7980 C   0  0  0  0  0  0  0  0  0  0  0  0
   11.3580    3.3540   23.1060 C   0  0  0  0  0  0  0  0  0  0  0  0
   10.1520    3.7890   23.6300 C   0  0  0  0  0  0  0  0  0  0  0  0
    9.1500    2.8680   23.8240 C   0  0  0  0  0  0  0  0  0  0  0  0
    9.2360    1.5480   23.5440 N   0  0  0  0  0  0  0  0  0  0  0  0
   11.9590   -0.8380   22.3110 C   0  0  0  0  0  0  0  0  0  0  0  0
   12.2160   -1.4920   23.4750 C   0  0  0  0  0  0  0  0  0  0  0  0
   10.9230   -1.2130   23.8510 C   0  0  0  0  0  0  0  0  0  0  0  0
  1  2  2  0
  2  3  1  0
  3  4  1  0
  4  5  2  0
  5  6  1  0
  6  7  2  0
  7  8  1  0
  4  9  1  0
  8  9  2  0
  2 10  1  0
 11 10  1  0
 11 12  1  0
 12 13  2  0
 13 14  1  0
 14 15  2  0
 15 16  1  0
 12 17  1  0
 16 17  2  0
 11 18  1  0
 18 19  1  0
 11 20  1  0
 19 20  1  0
M  END
