pyridine_urea_8661
     RDKit          3D

 21 22  0  0  0  0  0  0  0  0999 V2000
   13.2190   -2.6870   24.8430 C   0  0  0  0  0  0  0  0  0  0  0  0
   12.6440   -1.3020   24.8820 C   0  0  0  0  0  0  0  0  0  0  0  0
   12.8510   -0.4660   23.7940 C   0  0  0  0  0  0  0  0  0  0  0  0
   13.2380   -1.0340   22.5720 C   0  0  0  0  0  0  0  0  0  0  0  0
   12.4720   -1.9450   21.8790 C   0  0  0  0  0  0  0  0  0  0  0  0
   11.6250    0.4400   23.5390 C   0  0  2  0  0  0  0  0  0  0  0  0
   10.4290    0.3210   24.1990 C   0  0  0  0  0  0  0  0  0  0  0  0
    9.6470   -0.8770   23.7020 C   0  0  1  0  0  0  0  0  0  0  0  0
    8.4140   -0.4380   22.9440 N   0  0  0  0  0  0  0  0  0  0  0  0
    8.2840    0.1520   21.7010 C   0  0  0  0  0  0  0  0  0  0  0  0
    8.9570    1.1200   21.2890 O   0  0  0  0  0  0  0  0  0  0  0  0
    7.2800   -0.4850   21.0150 N   0  0  0  0  0  0  0  0  0  0  0  0
    6.5510    0.1200   19.9940 C   0  0  0  0  0  0  0  0  0  0  0  0
    5.3930    0.8370   20.3090 C   0  0  0  0  0  0  0  0  0  0  0  0
    4.6860    1.4570   19.2740 C   0  0  0  0  0  0  0  0  0  0  0  0
    5.1470    1.3410   17.9740 C   0  0  0  0  0  0  0  0  0  0  0  0
    6.2470    0.6460   17.6620 N   0  0  0  0  0  0  0  0  0  0  0  0
    6.9160    0.0580   18.6690 C   0  0  0  0  0  0  0  0  0  0  0  0
   10.4490   -1.8860   22.8390 C   0  0  0  0  0  0  0  0  0  0  0  0
   11.0000   -0.8970   22.0230 C   0  0  0  0  0  0  0  0  0  0  0  0
   11.5320    0.3230   22.3570 O   0  0  0  0  0  0  0  0  0  0  0  0
  1  2  1  0
  2  3  1  0
  3  4  1  0
  4  5  1  0
  6  3  1  1
  6  7  1  0
  7  8  1  0
  8  9  1  6
  9 10  1  0
 10 11  2  0
 10 12  1  0
 12 13  1  0
 13 14  2  0
 14 15  1  0
 15 16  2  0
 16 17  1  0
 13 18  1  0
 17 18  2  0
  8 19  1  0
 19 20  1  0
  6 21  1  0
 20 21  1  0
M  END
