pyridine_urea_14797
     RDKit          3D

 20 22  0  0  0  0  0  0  0  0999 V2000
    8.6590    1.5370   20.9250 O   0  0  0  0  0  0  0  0  0  0  0  0
    8.1550    0.5500   21.4490 C   0  0  0  0  0  0  0  0  0  0  0  0
    7.1580   -0.2380   20.9410 N   0  0  0  0  0  0  0  0  0  0  0  0
    6.3790    0.3070   19.9560 C   0  0  0  0  0  0  0  0  0  0  0  0
    5.1890    0.9770   20.1610 C   0  0  0  0  0  0  0  0  0  0  0  0
    4.5270    1.5140   19.0690 C   0  0  0  0  0  0  0  0  0  0  0  0
    5.1020    1.3450   17.8280 C   0  0  0  0  0  0  0  0  0  0  0  0
    6.2450    0.6850   17.6100 N   0  0  0  0  0  0  0  0  0  0  0  0
    6.8500    0.1860   18.6790 C   0  0  0  0  0  0  0  0  0  0  0  0
    8.5320    0.1090   22.6480 N   0  0  0  0  0  0  0  0  0  0  0  0
    9.8510   -0.0960   22.9020 C   0  0  0  0  0  0  0  0  0  0  0  0
   10.3710   -1.2590   23.0340 C   0  0  0  0  0  0  0  0  0  0  0  0
   11.6440   -1.1600   23.2830 N   0  0  0  0  0  0  0  0  0  0  0  0
   12.1420    0.1670   23.3410 N   0  0  0  0  0  0  0  0  0  0  0  0
   12.8270   -1.0000   23.5400 C   0  0  0  0  0  0  0  0  0  0  0  0
   13.1770   -1.7360   22.4540 N   0  0  0  0  0  0  0  0  0  0  0  0
   13.6490   -2.8300   22.9760 C   0  0  0  0  0  0  0  0  0  0  0  0
   13.6920   -2.9530   24.3410 C   0  0  0  0  0  0  0  0  0  0  0  0
   13.1120   -1.6020   25.1840 S   0  0  0  0  0  0  0  0  0  0  0  0
   10.9050    0.7750   23.0660 C   0  0  0  0  0  0  0  0  0  0  0  0
  1  2  2  0
  2  3  1  0
  3  4  1  0
  4  5  2  0
  5  6  1  0
  6  7  2  0
  7  8  1  0
  4  9  1  0
  8  9  2  0
  2 10  1  0
 10 11  1  0
 11 12  1  0
 12 13  2  0
 13 14  1  0
 14 15  1  0
 15 16  2  0
 16 17  1  0
 17 18  2  0
 15 19  1  0
 18 19  1  0
 11 20  2  0
 14 20  1  0
M  END
