pyridine_urea_11262
     RDKit          3D

 17 18  0  0  0  0  0  0  0  0999 V2000
    9.0240    0.7370   21.3890 O   0  0  0  0  0  0  0  0  0  0  0  0
    8.3380   -0.2200   21.7180 C   0  0  0  0  0  0  0  0  0  0  0  0
    8.6510   -1.0020   22.8290 N   0  0  0  0  0  0  0  0  0  0  0  0
    7.7250   -2.0330   23.3150 C   0  0  0  0  0  0  0  0  0  0  0  0
    7.5830   -3.1550   22.2920 C   0  0  0  0  0  0  0  0  0  0  0  0
    6.6380   -4.2210   22.5640 N   0  0  0  0  0  0  0  0  0  0  0  0
    6.8860   -5.5370   22.8190 C   0  0  0  0  0  0  0  0  0  0  0  0
    5.6470   -6.0740   22.9840 C   0  0  0  0  0  0  0  0  0  0  0  0
    4.6630   -5.1420   22.8420 N   0  0  0  0  0  0  0  0  0  0  0  0
    5.2960   -3.9870   22.5810 N   0  0  0  0  0  0  0  0  0  0  0  0
    7.1930   -0.6640   21.0860 N   0  0  0  0  0  0  0  0  0  0  0  0
    6.4780    0.0210   20.0800 C   0  0  0  0  0  0  0  0  0  0  0  0
    5.2340    0.8020   20.3160 C   0  0  0  0  0  0  0  0  0  0  0  0
    4.5570    1.4630   19.3370 C   0  0  0  0  0  0  0  0  0  0  0  0
    5.2800    1.2630   18.0280 C   0  0  0  0  0  0  0  0  0  0  0  0
    6.3920    0.5700   17.7720 N   0  0  0  0  0  0  0  0  0  0  0  0
    6.9640   -0.0390   18.8030 C   0  0  0  0  0  0  0  0  0  0  0  0
  1  2  2  0
  2  3  1  0
  3  4  1  0
  4  5  1  0
  5  6  1  0
  6  7  1  0
  7  8  2  0
  8  9  1  0
  6 10  1  0
  9 10  2  0
  2 11  1  0
 11 12  1  0
 12 13  2  0
 13 14  1  0
 14 15  2  0
 15 16  1  0
 12 17  1  0
 16 17  2  0
M  END
