pyridine_urea_11193
     RDKit          3D

 18 19  0  0  0  0  0  0  0  0999 V2000
   12.7750   -2.7240   21.0690 C   0  0  0  0  0  0  0  0  0  0  0  0
   11.4760   -2.4860   21.5880 O   0  0  0  0  0  0  0  0  0  0  0  0
   11.4510   -1.2460   22.2590 C   0  0  0  0  0  0  0  0  0  0  0  0
   12.8290   -0.6410   22.5170 C   0  0  0  0  0  0  0  0  0  0  0  0
   12.9040    0.6610   23.1980 C   0  0  0  0  0  0  0  0  0  0  0  0
   11.7370    1.2530   23.5830 C   0  0  0  0  0  0  0  0  0  0  0  0
   10.3440    0.7050   23.3620 C   0  0  0  0  0  0  0  0  0  0  0  0
   10.2640   -0.5800   22.6630 C   0  0  0  0  0  0  0  0  0  0  0  0
    8.9720   -1.1320   22.3720 N   0  0  0  0  0  0  0  0  0  0  0  0
    8.2730   -0.2790   21.5480 C   0  0  0  0  0  0  0  0  0  0  0  0
    8.6870    0.8530   21.3230 O   0  0  0  0  0  0  0  0  0  0  0  0
    7.1160   -0.7910   21.0290 N   0  0  0  0  0  0  0  0  0  0  0  0
    6.3900   -0.0810   20.0550 C   0  0  0  0  0  0  0  0  0  0  0  0
    5.1960    0.6060   20.2590 C   0  0  0  0  0  0  0  0  0  0  0  0
    4.5730    1.2950   19.2150 C   0  0  0  0  0  0  0  0  0  0  0  0
    5.1890    1.2650   17.9840 C   0  0  0  0  0  0  0  0  0  0  0  0
    6.3370    0.6090   17.7470 N   0  0  0  0  0  0  0  0  0  0  0  0
    6.9060   -0.0470   18.7770 C   0  0  0  0  0  0  0  0  0  0  0  0
  1  2  1  0
  2  3  1  0
  3  4  2  0
  4  5  1  0
  5  6  2  0
  6  7  1  0
  3  8  1  0
  7  8  2  0
  8  9  1  0
  9 10  1  0
 10 11  2  0
 10 12  1  0
 12 13  1  0
 13 14  2  0
 14 15  1  0
 15 16  2  0
 16 17  1  0
 13 18  1  0
 17 18  2  0
M  END
