pyridine_urea_2523
     RDKit          3D

 24 26  0  0  0  0  0  0  0  0999 V2000
   13.3970    0.1900   22.7500 C   0  0  0  0  0  0  0  0  0  0  0  0
   13.7950   -0.2710   23.8080 O   0  0  0  0  0  0  0  0  0  0  0  0
   13.2800   -1.4250   24.2200 C   0  0  0  0  0  0  0  0  0  0  0  0
   13.9520   -2.2960   25.0230 C   0  0  0  0  0  0  0  0  0  0  0  0
   13.4320   -3.3960   25.4100 C   0  0  0  0  0  0  0  0  0  0  0  0
   12.1660   -3.5880   24.9530 C   0  0  0  0  0  0  0  0  0  0  0  0
   11.4680   -2.8360   24.2020 C   0  0  0  0  0  0  0  0  0  0  0  0
   12.0540   -1.7740   23.8610 C   0  0  0  0  0  0  0  0  0  0  0  0
   11.1670   -1.1780   23.1300 N   0  0  0  0  0  0  0  0  0  0  0  0
   11.3130   -1.2280   21.9070 C   0  0  0  0  0  0  0  0  0  0  0  0
   10.0260   -0.9270   21.6200 C   0  0  0  0  0  0  0  0  0  0  0  0
    9.6030    0.2310   22.1860 C   0  0  0  0  0  0  0  0  0  0  0  0
    8.3230    0.0130   22.4380 N   0  0  0  0  0  0  0  0  0  0  0  0
    7.6120    0.3540   21.3790 C   0  0  0  0  0  0  0  0  0  0  0  0
    7.9730    1.5310   20.6630 O   0  0  0  0  0  0  0  0  0  0  0  0
    6.6280   -0.4770   21.0550 N   0  0  0  0  0  0  0  0  0  0  0  0
    6.1320    0.0970   19.9750 C   0  0  0  0  0  0  0  0  0  0  0  0
    4.9320    0.7880   20.0900 C   0  0  0  0  0  0  0  0  0  0  0  0
    4.4220    1.4280   18.9750 C   0  0  0  0  0  0  0  0  0  0  0  0
    5.1310    1.3540   17.7850 C   0  0  0  0  0  0  0  0  0  0  0  0
    6.2820    0.6810   17.6570 N   0  0  0  0  0  0  0  0  0  0  0  0
    6.7620    0.0650   18.7470 C   0  0  0  0  0  0  0  0  0  0  0  0
   10.3150    0.8430   23.1420 C   0  0  0  0  0  0  0  0  0  0  0  0
   11.1360   -0.0330   23.7480 C   0  0  0  0  0  0  0  0  0  0  0  0
  1  2  1  0
  2  3  1  0
  3  4  2  0
  4  5  1  0
  5  6  2  0
  6  7  1  0
  3  8  1  0
  7  8  2  0
  8  9  1  0
  9 10  1  0
 10 11  1  0
 11 12  1  0
 12 13  1  0
 13 14  1  0
 14 15  2  0
 14 16  1  0
 16 17  1  0
 17 18  2  0
 18 19  1  0
 19 20  2  0
 20 21  1  0
 17 22  1  0
 21 22  2  0
 12 23  1  0
  9 24  1  0
 23 24  1  0
M  END
