pyridine_urea_678
     RDKit          3D

 24 25  0  0  0  0  0  0  0  0999 V2000
   13.8590   -2.4840   25.7800 C   0  0  0  0  0  0  0  0  0  0  0  0
   12.9120   -2.7270   24.6470 C   0  0  0  0  0  0  0  0  0  0  0  0
   13.5130   -2.7070   23.4230 C   0  0  0  0  0  0  0  0  0  0  0  0
   11.7210   -1.7730   24.5520 C   0  0  0  0  0  0  0  0  0  0  0  0
   10.6770   -2.2420   23.7740 C   0  0  0  0  0  0  0  0  0  0  0  0
   10.8800   -2.3680   22.3910 C   0  0  0  0  0  0  0  0  0  0  0  0
   12.0110   -2.7010   22.0260 O   0  0  0  0  0  0  0  0  0  0  0  0
   12.9690   -1.6970   22.0640 C   0  0  0  0  0  0  0  0  0  0  0  0
   12.3820   -0.5050   22.4020 C   0  0  0  0  0  0  0  0  0  0  0  0
   12.9770    0.6920   22.7290 C   0  0  0  0  0  0  0  0  0  0  0  0
   12.1890    1.7860   23.0070 C   0  0  0  0  0  0  0  0  0  0  0  0
   10.7950    1.6860   22.9740 C   0  0  0  0  0  0  0  0  0  0  0  0
   10.1700    0.3950   22.6470 C   0  0  0  0  0  0  0  0  0  0  0  0
    8.7970    0.1410   22.5920 N   0  0  0  0  0  0  0  0  0  0  0  0
    8.2060   -0.4440   21.5320 C   0  0  0  0  0  0  0  0  0  0  0  0
    8.8140   -1.1290   20.7800 O   0  0  0  0  0  0  0  0  0  0  0  0
    6.8850   -0.1770   21.3930 N   0  0  0  0  0  0  0  0  0  0  0  0
    6.3410    0.3120   20.1460 C   0  0  0  0  0  0  0  0  0  0  0  0
    5.1820    1.0670   20.2440 C   0  0  0  0  0  0  0  0  0  0  0  0
    4.5900    1.5980   19.1110 C   0  0  0  0  0  0  0  0  0  0  0  0
    5.1750    1.3630   17.8830 C   0  0  0  0  0  0  0  0  0  0  0  0
    6.2930    0.6350   17.7230 N   0  0  0  0  0  0  0  0  0  0  0  0
    6.8690    0.1050   18.8840 C   0  0  0  0  0  0  0  0  0  0  0  0
   11.0080   -0.6580   22.3620 C   0  0  0  0  0  0  0  0  0  0  0  0
  1  2  1  0
  2  3  1  0
  2  4  1  0
  4  5  1  0
  5  6  1  0
  6  7  1  0
  7  8  1  0
  8  9  1  0
  9 10  2  0
 10 11  1  0
 11 12  2  0
 12 13  1  0
 13 14  1  0
 14 15  1  0
 15 16  2  0
 15 17  1  0
 17 18  1  0
 18 19  2  0
 19 20  1  0
 20 21  2  0
 21 22  1  0
 18 23  1  0
 22 23  2  0
  9 24  1  0
 13 24  2  0
M  END
