pyridine_urea_4068
     RDKit          3D

 26 28  0  0  0  0  0  0  0  0999 V2000
   11.6000   -1.7860   21.8650 C   0  0  0  0  0  0  0  0  0  0  0  0
   10.3160   -1.2960   22.4060 C   0  0  1  0  0  0  0  0  0  0  0  0
    9.6430   -0.1730   21.7790 N   0  0  0  0  0  0  0  0  0  0  0  0
    8.4760   -0.4470   21.1130 C   0  0  0  0  0  0  0  0  0  0  0  0
    8.3900   -1.3920   20.4290 O   0  0  0  0  0  0  0  0  0  0  0  0
    7.4480    0.4170   21.2470 N   0  0  0  0  0  0  0  0  0  0  0  0
    6.6490    0.6970   20.1390 C   0  0  0  0  0  0  0  0  0  0  0  0
    5.5310    1.4830   20.3060 C   0  0  0  0  0  0  0  0  0  0  0  0
    4.7430    1.7820   19.2030 C   0  0  0  0  0  0  0  0  0  0  0  0
    5.1150    1.2760   17.9730 C   0  0  0  0  0  0  0  0  0  0  0  0
    6.1820    0.5030   17.7770 N   0  0  0  0  0  0  0  0  0  0  0  0
    6.9240    0.2260   18.8620 C   0  0  0  0  0  0  0  0  0  0  0  0
    9.2750   -2.2100   22.8700 C   0  0  1  0  0  0  0  0  0  0  0  0
    9.3970   -3.4160   23.0810 O   0  0  0  0  0  0  0  0  0  0  0  0
    8.2970   -3.9690   23.7130 C   0  0  0  0  0  0  0  0  0  0  0  0
    7.1470   -4.0680   22.9420 C   0  0  0  0  0  0  0  0  0  0  0  0
    6.1100   -4.6400   23.6760 C   0  0  0  0  0  0  0  0  0  0  0  0
    6.6130   -5.2310   24.7970 O   0  0  0  0  0  0  0  0  0  0  0  0
    7.3230   -4.3540   25.6790 C   0  0  0  0  0  0  0  0  0  0  0  0
    8.0890   -3.3080   24.9190 C   0  0  0  0  0  0  0  0  0  0  0  0
    9.2810   -1.5370   24.1830 C   0  0  0  0  0  0  0  0  0  0  0  0
    9.1720   -0.8260   25.3850 C   0  0  0  0  0  0  0  0  0  0  0  0
    8.2800    0.1340   25.8200 C   0  0  0  0  0  0  0  0  0  0  0  0
    7.2690    0.5610   25.0460 C   0  0  0  0  0  0  0  0  0  0  0  0
    7.2080   -0.0200   23.8410 C   0  0  0  0  0  0  0  0  0  0  0  0
    8.1490   -0.9810   23.4760 C   0  0  0  0  0  0  0  0  0  0  0  0
  2  1  1  6
  2  3  1  0
  3  4  1  0
  4  5  2  0
  4  6  1  0
  6  7  1  0
  7  8  2  0
  8  9  1  0
  9 10  2  0
 10 11  1  0
  7 12  1  0
 11 12  2  0
  2 13  1  0
 13 14  1  1
 14 15  1  0
 15 16  1  0
 16 17  1  0
 17 18  1  0
 18 19  1  0
 15 20  1  0
 19 20  1  0
 13 21  1  0
 21 22  2  0
 22 23  1  0
 23 24  2  0
 24 25  1  0
 21 26  1  0
 25 26  2  0
M  END
