pyridine_urea_12332
     RDKit          3D

 22 24  0  0  0  0  0  0  0  0999 V2000
   14.0190   -3.6800   20.2080 C   0  0  0  0  0  0  0  0  0  0  0  0
   13.3440   -2.6620   20.9830 C   0  0  0  0  0  0  0  0  0  0  0  0
   13.8830   -1.2800   20.7320 C   0  0  0  0  0  0  0  0  0  0  0  0
   13.2160   -0.5410   21.6190 N   0  0  0  0  0  0  0  0  0  0  0  0
   12.4300   -1.4050   22.1270 C   0  0  0  0  0  0  0  0  0  0  0  0
   11.5660   -0.9480   23.0700 C   0  0  0  0  0  0  0  0  0  0  0  0
   12.3440   -0.8430   24.1000 C   0  0  0  0  0  0  0  0  0  0  0  0
   11.7780   -0.3960   25.2960 C   0  0  0  0  0  0  0  0  0  0  0  0
   10.3020   -0.0300   25.4390 C   0  0  0  0  0  0  0  0  0  0  0  0
    9.4840   -0.1750   24.1900 C   0  0  0  0  0  0  0  0  0  0  0  0
   10.2060   -0.6660   22.9660 C   0  0  0  0  0  0  0  0  0  0  0  0
    9.4610   -0.8150   21.7770 N   0  0  0  0  0  0  0  0  0  0  0  0
    8.5040    0.1150   21.3240 C   0  0  0  0  0  0  0  0  0  0  0  0
    8.7410    1.3070   21.1090 O   0  0  0  0  0  0  0  0  0  0  0  0
    7.2990   -0.4660   21.1350 N   0  0  0  0  0  0  0  0  0  0  0  0
    6.6080    0.0880   20.1110 C   0  0  0  0  0  0  0  0  0  0  0  0
    5.4640    0.8490   20.4010 C   0  0  0  0  0  0  0  0  0  0  0  0
    4.7550    1.4400   19.3470 C   0  0  0  0  0  0  0  0  0  0  0  0
    5.1650    1.2830   18.0400 C   0  0  0  0  0  0  0  0  0  0  0  0
    6.2310    0.5740   17.6720 N   0  0  0  0  0  0  0  0  0  0  0  0
    6.9640   -0.0410   18.7820 C   0  0  0  0  0  0  0  0  0  0  0  0
   12.3690   -2.6970   21.8710 N   0  0  0  0  0  0  0  0  0  0  0  0
  1  2  1  0
  2  3  2  0
  3  4  1  0
  4  5  1  0
  5  6  1  0
  6  7  2  0
  7  8  1  0
  8  9  2  0
  9 10  1  0
  6 11  1  0
 10 11  2  0
 11 12  1  0
 12 13  1  0
 13 14  2  0
 13 15  1  0
 15 16  1  0
 16 17  2  0
 17 18  1  0
 18 19  2  0
 19 20  1  0
 16 21  1  0
 20 21  2  0
  2 22  1  0
  5 22  2  0
M  END
