pyridine_urea_12591
     RDKit          3D

 21 23  0  0  0  0  0  0  0  0999 V2000
   15.1060   -3.6480   23.4660 N   0  0  0  0  0  0  0  0  0  0  0  0
   14.1870   -3.0090   23.4110 C   0  0  0  0  0  0  0  0  0  0  0  0
   12.9250   -2.2680   23.2350 C   0  0  0  0  0  0  0  0  0  0  0  0
   12.1230   -1.5310   24.3690 C   0  0  0  0  0  0  0  0  0  0  0  0
   11.0290   -1.0800   23.5710 C   0  0  0  0  0  0  0  0  0  0  0  0
   10.4210   -1.0260   22.1460 C   0  0  0  0  0  0  0  0  0  0  0  0
   11.1070   -1.2720   22.8550 C   0  0  0  0  0  0  0  0  0  0  0  0
   12.1710   -2.0560   22.1320 C   0  0  0  0  0  0  0  0  0  0  0  0
   12.0640   -1.6160   23.8410 C   0  0  0  0  0  0  0  0  0  0  0  0
   10.8400   -0.5710   24.3630 C   0  0  0  0  0  0  0  0  0  0  0  0
    9.6640   -0.4640   23.0840 C   0  0  1  0  0  0  0  0  0  0  0  0
    9.1010    0.7200   22.7220 N   0  0  0  0  0  0  0  0  0  0  0  0
    8.5430    0.9140   21.4610 C   0  0  0  0  0  0  0  0  0  0  0  0
    8.9570    1.7860   20.7330 O   0  0  0  0  0  0  0  0  0  0  0  0
    7.5220    0.0680   21.1760 N   0  0  0  0  0  0  0  0  0  0  0  0
    6.7730    0.3660   20.0730 C   0  0  0  0  0  0  0  0  0  0  0  0
    5.5530    1.0150   20.2500 C   0  0  0  0  0  0  0  0  0  0  0  0
    4.6890    1.4000   19.2170 C   0  0  0  0  0  0  0  0  0  0  0  0
    5.0570    1.1210   17.9140 C   0  0  0  0  0  0  0  0  0  0  0  0
    6.2070    0.4920   17.6000 N   0  0  0  0  0  0  0  0  0  0  0  0
    7.0830    0.1080   18.7420 C   0  0  0  0  0  0  0  0  0  0  0  0
  1  2  3  0
  2  3  1  0
  3  4  2  0
  4  5  1  0
  5  6  2  0
  6  7  1  0
  3  8  1  0
  7  8  2  0
  7  9  1  0
  9 10  1  0
  6 11  1  0
 10 11  1  0
 11 12  1  6
 12 13  1  0
 13 14  2  0
 13 15  1  0
 15 16  1  0
 16 17  2  0
 17 18  1  0
 18 19  2  0
 19 20  1  0
 16 21  1  0
 20 21  2  0
M  END
