pyridine_urea_13168
     RDKit          3D

 17 18  0  0  0  0  0  0  0  0999 V2000
    9.2080   -2.1510   21.7210 C   0  0  0  0  0  0  0  0  0  0  0  0
    9.4030   -1.5850   23.0730 C   0  0  2  0  0  0  0  0  0  0  0  0
    8.8360   -0.2460   23.0670 N   0  0  0  0  0  0  0  0  0  0  0  0
    8.4560    0.2710   21.7180 C   0  0  0  0  0  0  0  0  0  0  0  0
    9.0680    1.2600   21.2370 O   0  0  0  0  0  0  0  0  0  0  0  0
    7.4070   -0.4090   21.1410 N   0  0  0  0  0  0  0  0  0  0  0  0
    6.6470    0.1330   20.0990 C   0  0  0  0  0  0  0  0  0  0  0  0
    5.5110    0.8460   20.4110 C   0  0  0  0  0  0  0  0  0  0  0  0
    4.6900    1.4590   19.3030 C   0  0  0  0  0  0  0  0  0  0  0  0
    5.1300    1.2700   18.0120 C   0  0  0  0  0  0  0  0  0  0  0  0
    6.2380    0.5600   17.7330 N   0  0  0  0  0  0  0  0  0  0  0  0
    6.9600    0.0140   18.7530 C   0  0  0  0  0  0  0  0  0  0  0  0
   10.9110   -1.6010   23.5070 C   0  0  0  0  0  0  0  0  0  0  0  0
   11.7280   -0.5680   23.1820 N   0  0  0  0  0  0  0  0  0  0  0  0
   12.9630   -0.8500   23.6830 N   0  0  0  0  0  0  0  0  0  0  0  0
   12.8690   -2.1040   24.3300 C   0  0  0  0  0  0  0  0  0  0  0  0
   11.5960   -2.5360   24.2020 N   0  0  0  0  0  0  0  0  0  0  0  0
  2  1  1  6
  2  3  1  0
  3  4  1  0
  4  5  2  0
  4  6  1  0
  6  7  1  0
  7  8  2  0
  8  9  1  0
  9 10  2  0
 10 11  1  0
  7 12  1  0
 11 12  2  0
  2 13  1  0
 13 14  2  0
 14 15  1  0
 15 16  2  0
 13 17  1  0
 16 17  1  0
M  END
