pyridine_urea_3080
     RDKit          3D

 21 23  0  0  0  0  0  0  0  0999 V2000
    8.8760    1.0210   21.3660 O   0  0  0  0  0  0  0  0  0  0  0  0
    8.4930   -0.1380   21.2870 C   0  0  0  0  0  0  0  0  0  0  0  0
    7.2110   -0.5270   21.0300 N   0  0  0  0  0  0  0  0  0  0  0  0
    6.4900    0.0780   20.0070 C   0  0  0  0  0  0  0  0  0  0  0  0
    5.3160    0.7790   20.2960 C   0  0  0  0  0  0  0  0  0  0  0  0
    4.6190    1.4030   19.2610 C   0  0  0  0  0  0  0  0  0  0  0  0
    5.1270    1.2960   17.9840 C   0  0  0  0  0  0  0  0  0  0  0  0
    6.2430    0.6190   17.6870 N   0  0  0  0  0  0  0  0  0  0  0  0
    6.8960    0.0290   18.6990 C   0  0  0  0  0  0  0  0  0  0  0  0
    9.3660   -1.1740   21.4310 N   0  0  0  0  0  0  0  0  0  0  0  0
   10.3400   -0.9800   22.4520 C   0  0  0  0  0  0  0  0  0  0  0  0
   11.8530   -1.0720   22.2850 C   0  0  0  0  0  0  0  0  0  0  0  0
   12.6590   -0.8390   23.3860 C   0  0  0  0  0  0  0  0  0  0  0  0
   12.0990   -0.5420   24.6360 C   0  0  0  0  0  0  0  0  0  0  0  0
   12.9520   -0.3400   25.6680 O   0  0  0  0  0  0  0  0  0  0  0  0
   10.6870   -0.4580   24.8540 C   0  0  0  0  0  0  0  0  0  0  0  0
   10.0300   -0.1840   26.0930 C   0  0  0  0  0  0  0  0  0  0  0  0
    8.6370   -0.1040   26.2490 C   0  0  0  0  0  0  0  0  0  0  0  0
    7.8460   -0.3080   25.1460 C   0  0  0  0  0  0  0  0  0  0  0  0
    8.4440   -0.5860   23.9430 C   0  0  0  0  0  0  0  0  0  0  0  0
    9.8250   -0.6570   23.8130 C   0  0  0  0  0  0  0  0  0  0  0  0
  1  2  2  0
  2  3  1  0
  3  4  1  0
  4  5  2  0
  5  6  1  0
  6  7  2  0
  7  8  1  0
  4  9  1  0
  8  9  2  0
  2 10  1  0
 10 11  1  0
 11 12  2  0
 12 13  1  0
 13 14  2  0
 14 15  1  0
 14 16  1  0
 16 17  1  0
 17 18  2  0
 18 19  1  0
 19 20  2  0
 11 21  1  0
 16 21  2  0
 20 21  1  0
M  END
