pyridine_urea_10652
     RDKit          3D

 21 22  0  0  0  0  0  0  0  0999 V2000
    9.3880   -6.0180   26.4870 C   0  0  0  0  0  0  0  0  0  0  0  0
    9.1030   -5.4750   27.7760 O   0  0  0  0  0  0  0  0  0  0  0  0
    7.8740   -4.8950   27.8750 C   0  0  0  0  0  0  0  0  0  0  0  0
    7.4020   -4.3540   26.5120 C   0  0  0  0  0  0  0  0  0  0  0  0
    6.8510   -2.9530   26.6120 N   0  0  0  0  0  0  0  0  0  0  0  0
    7.6030   -1.9620   27.2050 C   0  0  0  0  0  0  0  0  0  0  0  0
    8.3580   -1.2730   26.0920 C   0  0  0  0  0  0  0  0  0  0  0  0
    8.2250   -1.6380   24.7560 C   0  0  0  0  0  0  0  0  0  0  0  0
    8.9570   -0.9290   23.8090 C   0  0  0  0  0  0  0  0  0  0  0  0
    8.7420   -1.2220   22.4860 N   0  0  0  0  0  0  0  0  0  0  0  0
    8.2100   -0.3270   21.5440 C   0  0  0  0  0  0  0  0  0  0  0  0
    8.6470    0.7380   21.1320 O   0  0  0  0  0  0  0  0  0  0  0  0
    7.0330   -0.8080   21.0930 N   0  0  0  0  0  0  0  0  0  0  0  0
    6.3810   -0.0850   20.1520 C   0  0  0  0  0  0  0  0  0  0  0  0
    5.2020    0.6610   20.2800 C   0  0  0  0  0  0  0  0  0  0  0  0
    4.6320    1.3730   19.2050 C   0  0  0  0  0  0  0  0  0  0  0  0
    5.2460    1.3540   17.9410 C   0  0  0  0  0  0  0  0  0  0  0  0
    6.3700    0.6740   17.7080 N   0  0  0  0  0  0  0  0  0  0  0  0
    6.9090   -0.0050   18.7320 C   0  0  0  0  0  0  0  0  0  0  0  0
    6.7000   -1.2970   24.8260 C   0  0  0  0  0  0  0  0  0  0  0  0
    6.2340   -2.4280   25.5000 C   0  0  0  0  0  0  0  0  0  0  0  0
  1  2  1  0
  2  3  1  0
  3  4  1  0
  4  5  1  0
  5  6  1  0
  6  7  1  0
  7  8  1  0
  8  9  1  0
  9 10  1  0
 10 11  1  0
 11 12  2  0
 11 13  1  0
 13 14  1  0
 14 15  2  0
 15 16  1  0
 16 17  2  0
 17 18  1  0
 14 19  1  0
 18 19  2  0
  8 20  1  0
  5 21  1  0
 20 21  1  0
M  END
