pyridine_urea_10550
     RDKit          3D

 21 23  0  0  0  0  0  0  0  0999 V2000
    8.3750    0.3230   21.0240 O   0  0  0  0  0  0  0  0  0  0  0  0
    7.7420   -0.6060   21.5070 C   0  0  0  0  0  0  0  0  0  0  0  0
    6.5790   -1.0290   20.9810 N   0  0  0  0  0  0  0  0  0  0  0  0
    6.0200   -0.1980   20.0140 C   0  0  0  0  0  0  0  0  0  0  0  0
    4.7540    0.6310   20.2380 C   0  0  0  0  0  0  0  0  0  0  0  0
    4.3470    1.4750   19.0400 C   0  0  0  0  0  0  0  0  0  0  0  0
    5.2030    1.4030   17.8210 C   0  0  0  0  0  0  0  0  0  0  0  0
    6.3020    0.6360   17.7270 N   0  0  0  0  0  0  0  0  0  0  0  0
    6.6720   -0.1180   18.7880 C   0  0  0  0  0  0  0  0  0  0  0  0
    8.2050   -1.2340   22.6300 N   0  0  0  0  0  0  0  0  0  0  0  0
    9.4040   -0.5490   22.7570 C   0  0  0  0  0  0  0  0  0  0  0  0
   10.6200   -1.1650   22.6700 C   0  0  0  0  0  0  0  0  0  0  0  0
   11.6980   -0.4050   22.7290 C   0  0  0  0  0  0  0  0  0  0  0  0
   11.5230    0.9510   22.8580 C   0  0  0  0  0  0  0  0  0  0  0  0
   12.6310    1.5590   22.8480 C   0  0  0  0  0  0  0  0  0  0  0  0
   13.5060   -0.0520   22.6880 Br  0  0  0  0  0  0  0  0  0  0  0  0
   12.8760    2.9640   22.9250 C   0  0  0  0  0  0  0  0  0  0  0  0
   11.5380    3.7100   23.0670 C   0  0  0  0  0  0  0  0  0  0  0  0
   10.3570    2.9900   23.0810 C   0  0  0  0  0  0  0  0  0  0  0  0
   10.3640    1.6070   22.9640 C   0  0  0  0  0  0  0  0  0  0  0  0
    9.2370    0.8370   22.9290 C   0  0  0  0  0  0  0  0  0  0  0  0
  1  2  2  0
  2  3  1  0
  3  4  1  0
  4  5  2  0
  5  6  1  0
  6  7  2  0
  7  8  1  0
  4  9  1  0
  8  9  2  0
  2 10  1  0
 10 11  1  0
 11 12  2  0
 12 13  1  0
 13 14  2  0
 14 15  1  0
 15 16  1  0
 15 17  2  0
 17 18  1  0
 18 19  2  0
 14 20  1  0
 19 20  1  0
 11 21  1  0
 20 21  2  0
M  END
