pyridine_urea_9735
     RDKit          3D

 27 29  0  0  0  0  0  0  0  0999 V2000
    6.0390   -7.5160   29.7330 C   0  0  0  0  0  0  0  0  0  0  0  0
    4.9380   -6.8060   28.9600 C   0  0  0  0  0  0  0  0  0  0  0  0
    3.5900   -7.5120   28.9720 C   0  0  0  0  0  0  0  0  0  0  0  0
    2.4450   -6.8650   28.2240 C   0  0  0  0  0  0  0  0  0  0  0  0
    2.7340   -5.5480   27.5140 C   0  0  0  0  0  0  0  0  0  0  0  0
    4.1350   -4.9440   27.5800 C   0  0  0  0  0  0  0  0  0  0  0  0
    4.3190   -3.6810   26.8710 N   0  0  0  0  0  0  0  0  0  0  0  0
    3.3410   -2.7000   26.9270 C   0  0  0  0  0  0  0  0  0  0  0  0
    3.3310   -1.9790   25.7260 C   0  0  0  0  0  0  0  0  0  0  0  0
    4.6180   -1.5960   25.3870 N   0  0  0  0  0  0  0  0  0  0  0  0
    5.0190   -0.5930   24.4890 C   0  0  0  0  0  0  0  0  0  0  0  0
    5.9190   -0.9390   23.5010 C   0  0  0  0  0  0  0  0  0  0  0  0
    7.2180   -0.4960   23.7460 C   0  0  0  0  0  0  0  0  0  0  0  0
    8.2760   -1.2920   23.3000 C   0  0  0  0  0  0  0  0  0  0  0  0
    9.0800   -0.7220   22.3830 N   0  0  0  0  0  0  0  0  0  0  0  0
    8.4640    0.0690   21.4670 C   0  0  0  0  0  0  0  0  0  0  0  0
    8.8730    1.1960   21.1540 O   0  0  0  0  0  0  0  0  0  0  0  0
    7.3620   -0.5650   20.9950 N   0  0  0  0  0  0  0  0  0  0  0  0
    6.6520    0.0540   20.0280 C   0  0  0  0  0  0  0  0  0  0  0  0
    5.4410    0.8600   20.3740 C   0  0  0  0  0  0  0  0  0  0  0  0
    4.7590    1.4760   19.3320 C   0  0  0  0  0  0  0  0  0  0  0  0
    5.1970    1.3360   18.0330 C   0  0  0  0  0  0  0  0  0  0  0  0
    6.2790    0.6100   17.7080 N   0  0  0  0  0  0  0  0  0  0  0  0
    6.9740   -0.0080   18.6930 C   0  0  0  0  0  0  0  0  0  0  0  0
    5.6030   -1.8120   26.4710 C   0  0  0  0  0  0  0  0  0  0  0  0
    5.6840   -3.1570   26.7330 C   0  0  0  0  0  0  0  0  0  0  0  0
    5.1540   -5.6020   28.2940 C   0  0  0  0  0  0  0  0  0  0  0  0
  1  2  1  0
  2  3  2  0
  3  4  1  0
  4  5  2  0
  5  6  1  0
  6  7  1  0
  7  8  1  0
  8  9  1  0
  9 10  1  0
 10 11  1  0
 11 12  1  0
 12 13  1  0
 13 14  1  0
 14 15  1  0
 15 16  1  0
 16 17  2  0
 16 18  1  0
 18 19  1  0
 19 20  2  0
 20 21  1  0
 21 22  2  0
 22 23  1  0
 19 24  1  0
 23 24  2  0
 10 25  1  0
  7 26  1  0
 25 26  1  0
  2 27  1  0
  6 27  2  0
M  END
