pyridine_urea_9157
     RDKit          3D

 18 20  0  0  0  0  0  0  0  0999 V2000
    8.8820    0.5600   21.4010 O   0  0  0  0  0  0  0  0  0  0  0  0
    8.1790   -0.3970   21.6980 C   0  0  0  0  0  0  0  0  0  0  0  0
    8.5010   -1.2920   22.6950 N   0  0  0  0  0  0  0  0  0  0  0  0
    9.8220   -1.8760   22.7510 C   0  0  0  0  0  0  0  0  0  0  0  0
   10.8330   -0.8490   22.2860 C   0  0  2  0  0  0  0  0  0  0  0  0
   12.1810   -1.1420   22.5310 C   0  0  0  0  0  0  0  0  0  0  0  0
   12.9390   -0.1970   23.2360 C   0  0  0  0  0  0  0  0  0  0  0  0
   12.2460    0.4340   24.2770 C   0  0  0  0  0  0  0  0  0  0  0  0
   10.9120    0.2220   24.1650 C   0  0  1  0  0  0  0  0  0  0  0  0
   10.0560    1.0700   24.0170 C   0  0  0  0  0  0  0  0  0  0  0  0
   10.5820    0.5440   22.7910 C   0  0  2  0  0  0  0  0  0  0  0  0
    6.9820   -0.7140   21.1170 N   0  0  0  0  0  0  0  0  0  0  0  0
    6.4370   -0.0590   20.0360 C   0  0  0  0  0  0  0  0  0  0  0  0
    5.2740    0.6570   20.3360 C   0  0  0  0  0  0  0  0  0  0  0  0
    4.6520    1.3980   19.2070 C   0  0  0  0  0  0  0  0  0  0  0  0
    5.2110    1.3590   17.9580 C   0  0  0  0  0  0  0  0  0  0  0  0
    6.3340    0.6570   17.6820 N   0  0  0  0  0  0  0  0  0  0  0  0
    6.9360   -0.0550   18.7460 C   0  0  0  0  0  0  0  0  0  0  0  0
  1  2  2  0
  2  3  1  0
  3  4  1  0
  5  4  1  1
  5  6  1  0
  6  7  1  0
  7  8  1  0
  9  8  1  6
  9 10  1  0
  5 11  1  0
  9 11  1  0
 11 10  1  1
  2 12  1  0
 12 13  1  0
 13 14  2  0
 14 15  1  0
 15 16  2  0
 16 17  1  0
 13 18  1  0
 17 18  2  0
M  END
