pyridine_urea_13123
     RDKit          3D

 18 19  0  0  0  0  0  0  0  0999 V2000
    8.9510    0.6690   21.4030 O   0  0  0  0  0  0  0  0  0  0  0  0
    8.3960   -0.4030   21.6010 C   0  0  0  0  0  0  0  0  0  0  0  0
    8.8530   -1.4090   22.4310 N   0  0  0  0  0  0  0  0  0  0  0  0
   10.1930   -1.6780   22.8140 C   0  0  0  0  0  0  0  0  0  0  0  0
   11.1740   -0.9860   22.1180 C   0  0  0  0  0  0  0  0  0  0  0  0
   12.4540   -0.9170   22.6720 C   0  0  0  0  0  0  0  0  0  0  0  0
   12.4890   -0.0010   23.6860 C   0  0  2  0  0  0  0  0  0  0  0  0
   11.3280   -0.2380   24.6120 C   0  0  0  0  0  0  0  0  0  0  0  0
   10.4510    0.7840   24.3270 C   0  0  0  0  0  0  0  0  0  0  0  0
   10.9740    1.7370   23.7790 O   0  0  0  0  0  0  0  0  0  0  0  0
   12.2390    1.3050   23.2270 C   0  0  0  0  0  0  0  0  0  0  0  0
    7.1950   -0.7690   21.0300 N   0  0  0  0  0  0  0  0  0  0  0  0
    6.4640   -0.0480   20.0680 C   0  0  0  0  0  0  0  0  0  0  0  0
    5.2940    0.6610   20.2980 C   0  0  0  0  0  0  0  0  0  0  0  0
    4.6530    1.3520   19.2690 C   0  0  0  0  0  0  0  0  0  0  0  0
    5.2300    1.3060   18.0000 C   0  0  0  0  0  0  0  0  0  0  0  0
    6.3620    0.6240   17.7450 N   0  0  0  0  0  0  0  0  0  0  0  0
    6.9390   -0.0290   18.7720 C   0  0  0  0  0  0  0  0  0  0  0  0
  1  2  2  0
  2  3  1  0
  3  4  1  0
  4  5  1  0
  5  6  1  0
  7  6  1  6
  7  8  1  0
  8  9  1  0
  9 10  1  0
  7 11  1  0
 10 11  1  0
  2 12  1  0
 12 13  1  0
 13 14  2  0
 14 15  1  0
 15 16  2  0
 16 17  1  0
 13 18  1  0
 17 18  2  0
M  END
