pyridine_urea_14214
     RDKit          3D

 22 24  0  0  0  0  0  0  0  0999 V2000
   10.6340   -0.4850   25.5150 C   0  0  0  0  0  0  0  0  0  0  0  0
    9.4570    0.1290   24.8490 C   0  0  0  0  0  0  0  0  0  0  0  0
    9.6120    0.4240   23.5210 C   0  0  2  0  0  0  0  0  0  0  0  0
    8.2900    0.5860   22.9460 N   0  0  0  0  0  0  0  0  0  0  0  0
    8.1210    0.5630   21.6230 C   0  0  0  0  0  0  0  0  0  0  0  0
    8.7640    1.4130   21.0020 O   0  0  0  0  0  0  0  0  0  0  0  0
    7.2060   -0.4080   21.0600 N   0  0  0  0  0  0  0  0  0  0  0  0
    6.5260    0.1430   20.0260 C   0  0  0  0  0  0  0  0  0  0  0  0
    5.2500    0.8910   20.3420 C   0  0  0  0  0  0  0  0  0  0  0  0
    4.5000    1.5470   19.1910 C   0  0  0  0  0  0  0  0  0  0  0  0
    5.1270    1.3770   17.8250 C   0  0  0  0  0  0  0  0  0  0  0  0
    6.2730    0.6670   17.6730 N   0  0  0  0  0  0  0  0  0  0  0  0
    6.9490    0.0700   18.7220 C   0  0  0  0  0  0  0  0  0  0  0  0
   10.3770   -0.6170   23.2040 C   0  0  0  0  0  0  0  0  0  0  0  0
   10.3710   -0.9540   21.9510 C   0  0  0  0  0  0  0  0  0  0  0  0
   11.5020   -1.6540   22.1570 C   0  0  0  0  0  0  0  0  0  0  0  0
   12.0090   -2.4030   21.3160 C   0  0  0  0  0  0  0  0  0  0  0  0
   13.1970   -2.7760   21.9350 C   0  0  0  0  0  0  0  0  0  0  0  0
   13.5970   -2.4690   23.3400 C   0  0  0  0  0  0  0  0  0  0  0  0
   12.7560   -2.0050   24.3940 C   0  0  0  0  0  0  0  0  0  0  0  0
   11.9920   -2.0510   23.3640 C   0  0  0  0  0  0  0  0  0  0  0  0
   11.7250   -0.6820   23.4520 C   0  0  0  0  0  0  0  0  0  0  0  0
  1  2  1  0
  3  2  1  1
  3  4  1  0
  4  5  1  0
  5  6  2  0
  5  7  1  0
  7  8  1  0
  8  9  2  0
  9 10  1  0
 10 11  2  0
 11 12  1  0
  8 13  1  0
 12 13  2  0
  3 14  1  0
 14 15  1  0
 15 16  1  0
 16 17  1  0
 17 18  2  0
 18 19  1  0
 19 20  2  0
 16 21  2  0
 20 21  1  0
 14 22  1  0
 21 22  1  0
M  END
