pyridine_urea_14166
     RDKit          3D

 22 24  0  0  0  0  0  0  0  0999 V2000
    8.8690    0.8020   21.4070 O   0  0  0  0  0  0  0  0  0  0  0  0
    8.3780   -0.3180   21.4990 C   0  0  0  0  0  0  0  0  0  0  0  0
    9.1030   -1.4240   22.1050 N   0  0  0  0  0  0  0  0  0  0  0  0
   10.4280   -1.5490   21.6940 C   0  0  0  0  0  0  0  0  0  0  0  0
   11.4290   -1.2710   22.5890 C   0  0  0  0  0  0  0  0  0  0  0  0
   12.1750   -0.8640   23.7860 C   0  0  0  0  0  0  0  0  0  0  0  0
   11.7470   -0.3610   25.0580 C   0  0  0  0  0  0  0  0  0  0  0  0
   10.2900   -0.1730   25.2940 C   0  0  0  0  0  0  0  0  0  0  0  0
    9.4600    0.2900   26.3690 N   0  0  0  0  0  0  0  0  0  0  0  0
    9.4940    0.2250   27.7820 C   0  0  0  0  0  0  0  0  0  0  0  0
    8.3430    0.9790   28.3550 C   0  0  0  0  0  0  0  0  0  0  0  0
    7.6350    1.3810   27.2500 C   0  0  0  0  0  0  0  0  0  0  0  0
    8.0970    0.6750   26.0920 C   0  0  0  0  0  0  0  0  0  0  0  0
    9.7560   -0.5440   24.2000 C   0  0  0  0  0  0  0  0  0  0  0  0
   10.1360   -1.0010   23.0620 N   0  0  0  0  0  0  0  0  0  0  0  0
    7.1310   -0.6770   21.0530 N   0  0  0  0  0  0  0  0  0  0  0  0
    6.4050    0.0080   20.0700 C   0  0  0  0  0  0  0  0  0  0  0  0
    5.2220    0.7000   20.2570 C   0  0  0  0  0  0  0  0  0  0  0  0
    4.5930    1.3630   19.2080 C   0  0  0  0  0  0  0  0  0  0  0  0
    5.1950    1.3060   17.9590 C   0  0  0  0  0  0  0  0  0  0  0  0
    6.3420    0.6390   17.7320 N   0  0  0  0  0  0  0  0  0  0  0  0
    6.9060    0.0120   18.7810 C   0  0  0  0  0  0  0  0  0  0  0  0
  1  2  2  0
  2  3  1  0
  3  4  1  0
  4  5  1  0
  5  6  2  0
  6  7  1  0
  7  8  2  0
  8  9  1  0
  9 10  1  0
 10 11  1  0
 11 12  1  0
  9 13  1  0
 12 13  1  0
  8 14  1  0
  5 15  1  0
 14 15  2  0
  2 16  1  0
 16 17  1  0
 17 18  2  0
 18 19  1  0
 19 20  2  0
 20 21  1  0
 17 22  1  0
 21 22  2  0
M  END
