pyridine_urea_984
     RDKit          3D

 22 23  0  0  0  0  0  0  0  0999 V2000
    8.9080    1.4960   21.1420 O   0  0  0  0  0  0  0  0  0  0  0  0
    8.2680    0.5750   21.6530 C   0  0  0  0  0  0  0  0  0  0  0  0
    8.5510    0.0750   22.9860 N   0  0  0  0  0  0  0  0  0  0  0  0
    9.8790   -0.1380   23.3000 C   0  0  0  0  0  0  0  0  0  0  0  0
   10.5220    0.8740   23.9880 C   0  0  0  0  0  0  0  0  0  0  0  0
   11.8550    0.8780   23.6200 C   0  0  0  0  0  0  0  0  0  0  0  0
   12.5100   -0.3380   23.7890 C   0  0  0  0  0  0  0  0  0  0  0  0
   12.1300   -1.4240   22.5200 S   0  0  0  0  0  0  0  0  0  0  0  0
   11.0120   -2.6370   23.2550 C   0  0  0  0  0  0  0  0  0  0  0  0
   11.5430   -3.4920   24.3600 C   0  0  0  0  0  0  0  0  0  0  0  0
   10.5840   -4.5400   24.9140 C   0  0  0  0  0  0  0  0  0  0  0  0
    9.3000   -4.6820   24.4510 C   0  0  0  0  0  0  0  0  0  0  0  0
    8.8490   -3.8500   23.4450 C   0  0  0  0  0  0  0  0  0  0  0  0
    9.6740   -2.8720   22.8770 C   0  0  0  0  0  0  0  0  0  0  0  0
    8.8210   -1.8890   21.5390 Br  0  0  0  0  0  0  0  0  0  0  0  0
    7.2110   -0.1120   21.0770 N   0  0  0  0  0  0  0  0  0  0  0  0
    6.4430    0.3970   20.0440 C   0  0  0  0  0  0  0  0  0  0  0  0
    5.2910    1.1280   20.2330 C   0  0  0  0  0  0  0  0  0  0  0  0
    4.6060    1.6170   19.1350 C   0  0  0  0  0  0  0  0  0  0  0  0
    5.1210    1.3420   17.8840 C   0  0  0  0  0  0  0  0  0  0  0  0
    6.2260    0.6260   17.6640 N   0  0  0  0  0  0  0  0  0  0  0  0
    6.8640    0.1660   18.7480 C   0  0  0  0  0  0  0  0  0  0  0  0
  1  2  2  0
  2  3  1  0
  3  4  1  0
  4  5  1  0
  5  6  1  0
  6  7  1  0
  7  8  1  0
  8  9  1  0
  9 10  2  0
 10 11  1  0
 11 12  2  0
 12 13  1  0
  9 14  1  0
 13 14  2  0
 14 15  1  0
  2 16  1  0
 16 17  1  0
 17 18  2  0
 18 19  1  0
 19 20  2  0
 20 21  1  0
 17 22  1  0
 21 22  2  0
M  END
