pyridine_urea_6343
     RDKit          3D

 23 24  0  0  0  0  0  0  0  0999 V2000
    7.6350    1.5930   24.0770 C   0  0  0  0  0  0  0  0  0  0  0  0
    8.8620    1.9280   24.7180 O   0  0  0  0  0  0  0  0  0  0  0  0
    9.8660    0.9690   24.4550 C   0  0  0  0  0  0  0  0  0  0  0  0
    9.7980   -0.4020   24.9690 C   0  0  0  0  0  0  0  0  0  0  0  0
   10.8950   -1.2540   24.5820 C   0  0  0  0  0  0  0  0  0  0  0  0
   11.9600   -0.8740   23.7810 C   0  0  0  0  0  0  0  0  0  0  0  0
   12.6650   -1.8830   23.6680 O   0  0  0  0  0  0  0  0  0  0  0  0
   13.2100   -2.4050   24.9220 C   0  0  0  0  0  0  0  0  0  0  0  0
   12.3050    0.3700   23.1450 C   0  0  0  0  0  0  0  0  0  0  0  0
   13.0420   -0.6830   23.0010 C   0  0  0  0  0  0  0  0  0  0  0  0
   11.8410   -1.0780   22.1270 C   0  0  0  0  0  0  0  0  0  0  0  0
   10.6120   -1.5010   22.6670 C   0  0  0  0  0  0  0  0  0  0  0  0
    9.5240   -1.4630   21.6380 N   0  0  0  0  0  0  0  0  0  0  0  0
    8.6180   -0.2990   21.4320 C   0  0  0  0  0  0  0  0  0  0  0  0
    9.0620    1.0420   21.5720 O   0  0  0  0  0  0  0  0  0  0  0  0
    7.3340   -0.6710   21.0540 N   0  0  0  0  0  0  0  0  0  0  0  0
    6.5370    0.0110   20.1010 C   0  0  0  0  0  0  0  0  0  0  0  0
    5.2990    0.7240   20.7110 C   0  0  0  0  0  0  0  0  0  0  0  0
    4.7320    1.3260   19.4380 C   0  0  0  0  0  0  0  0  0  0  0  0
    5.2490    1.2250   18.0570 C   0  0  0  0  0  0  0  0  0  0  0  0
    6.3180    0.5650   17.7260 N   0  0  0  0  0  0  0  0  0  0  0  0
    6.9230   -0.0170   18.7590 C   0  0  0  0  0  0  0  0  0  0  0  0
   11.1040    1.2220   23.6230 C   0  0  0  0  0  0  0  0  0  0  0  0
  1  2  1  0
  2  3  1  0
  3  4  2  0
  4  5  1  0
  5  6  2  0
  6  7  1  0
  7  8  1  0
  6  9  1  0
  9 10  1  0
 10 11  1  0
 11 12  1  0
 12 13  1  0
 13 14  1  0
 14 15  2  0
 14 16  1  0
 16 17  1  0
 17 18  2  0
 18 19  1  0
 19 20  2  0
 20 21  1  0
 17 22  1  0
 21 22  2  0
  3 23  1  0
  9 23  2  0
M  END
