pyridine_urea_2384
     RDKit          3D

 25 27  0  0  0  0  0  0  0  0999 V2000
   11.6270    2.9650   23.2000 C   0  0  0  0  0  0  0  0  0  0  0  0
   11.3450    2.2860   24.1890 O   0  0  0  0  0  0  0  0  0  0  0  0
   10.9420    1.0480   23.8590 C   0  0  0  0  0  0  0  0  0  0  0  0
    9.6510    0.9320   23.4590 C   0  0  0  0  0  0  0  0  0  0  0  0
    9.1700   -0.2910   23.0860 C   0  0  0  0  0  0  0  0  0  0  0  0
    7.8270   -0.4100   22.6690 N   0  0  0  0  0  0  0  0  0  0  0  0
    7.6710   -0.1210   21.4010 C   0  0  0  0  0  0  0  0  0  0  0  0
    8.3220    0.7540   20.8540 O   0  0  0  0  0  0  0  0  0  0  0  0
    6.7460   -0.8360   20.7890 N   0  0  0  0  0  0  0  0  0  0  0  0
    6.1480   -0.0750   19.8910 C   0  0  0  0  0  0  0  0  0  0  0  0
    4.9700    0.6260   20.0560 C   0  0  0  0  0  0  0  0  0  0  0  0
    4.4470    1.4600   18.9330 C   0  0  0  0  0  0  0  0  0  0  0  0
    5.1760    1.4910   17.7620 C   0  0  0  0  0  0  0  0  0  0  0  0
    6.3210    0.7960   17.6070 N   0  0  0  0  0  0  0  0  0  0  0  0
    6.7680    0.0500   18.6550 C   0  0  0  0  0  0  0  0  0  0  0  0
    9.9720   -1.5060   23.0820 C   0  0  0  0  0  0  0  0  0  0  0  0
   11.2260   -1.3680   23.4890 C   0  0  0  0  0  0  0  0  0  0  0  0
   11.6830   -0.1180   23.8690 C   0  0  0  0  0  0  0  0  0  0  0  0
   12.8670   -0.3020   24.1990 N   0  0  0  0  0  0  0  0  0  0  0  0
   13.0050   -1.3780   25.0140 C   0  0  0  0  0  0  0  0  0  0  0  0
   13.4490   -2.5300   24.4030 C   0  0  0  0  0  0  0  0  0  0  0  0
   13.1740   -2.6220   23.0240 C   0  0  0  0  0  0  0  0  0  0  0  0
   13.2420   -1.4390   22.2880 C   0  0  0  0  0  0  0  0  0  0  0  0
   13.4750   -0.2930   23.0350 C   0  0  0  0  0  0  0  0  0  0  0  0
   14.1230    0.6260   22.5920 O   0  0  0  0  0  0  0  0  0  0  0  0
  1  2  1  0
  2  3  1  0
  3  4  2  0
  4  5  1  0
  5  6  1  0
  6  7  1  0
  7  8  2  0
  7  9  1  0
  9 10  1  0
 10 11  2  0
 11 12  1  0
 12 13  2  0
 13 14  1  0
 10 15  1  0
 14 15  2  0
  5 16  2  0
 16 17  1  0
  3 18  1  0
 17 18  2  0
 18 19  1  0
 19 20  1  0
 20 21  1  0
 21 22  1  0
 22 23  1  0
 19 24  1  0
 23 24  1  0
 24 25  2  0
M  END
