pyridine_urea_4267
     RDKit          3D

 24 25  0  0  0  0  0  0  0  0999 V2000
   14.9520   -4.7530   20.5030 C   0  0  0  0  0  0  0  0  0  0  0  0
   13.8650   -3.6610   20.5150 O   0  0  0  0  0  0  0  0  0  0  0  0
   13.3750   -2.9370   21.7680 C   0  0  0  0  0  0  0  0  0  0  0  0
   13.7720   -3.1960   22.8910 O   0  0  0  0  0  0  0  0  0  0  0  0
   12.3330   -1.8280   21.5550 C   0  0  0  0  0  0  0  0  0  0  0  0
   11.0900   -1.8690   22.4910 C   0  0  0  0  0  0  0  0  0  0  0  0
   10.0980   -0.6650   22.4060 C   0  0  2  0  0  0  0  0  0  0  0  0
   10.1000    0.5650   23.3100 C   0  0  0  0  0  0  0  0  0  0  0  0
   11.3820    0.6180   24.0710 C   0  0  0  0  0  0  0  0  0  0  0  0
   11.2810   -0.5230   24.8650 C   0  0  0  0  0  0  0  0  0  0  0  0
   12.5240   -1.0940   25.0740 C   0  0  0  0  0  0  0  0  0  0  0  0
   13.0860   -1.4680   23.8980 C   0  0  0  0  0  0  0  0  0  0  0  0
   13.0630   -0.5110   22.8800 C   0  0  0  0  0  0  0  0  0  0  0  0
   12.4950    0.6900   23.2480 C   0  0  0  0  0  0  0  0  0  0  0  0
    8.7120   -1.0870   22.4920 N   0  0  0  0  0  0  0  0  0  0  0  0
    8.0290   -0.8610   21.3430 C   0  0  0  0  0  0  0  0  0  0  0  0
    8.5520   -1.0580   20.3260 O   0  0  0  0  0  0  0  0  0  0  0  0
    6.7620   -0.3950   21.3950 N   0  0  0  0  0  0  0  0  0  0  0  0
    6.2230    0.1820   20.2270 C   0  0  0  0  0  0  0  0  0  0  0  0
    4.9640    0.9640   20.3020 C   0  0  0  0  0  0  0  0  0  0  0  0
    4.4690    1.5340   19.1260 C   0  0  0  0  0  0  0  0  0  0  0  0
    5.1640    1.3530   17.9390 C   0  0  0  0  0  0  0  0  0  0  0  0
    6.3050    0.6460   17.8260 N   0  0  0  0  0  0  0  0  0  0  0  0
    6.7800    0.0920   18.9580 C   0  0  0  0  0  0  0  0  0  0  0  0
  1  2  1  0
  2  3  1  0
  3  4  2  0
  3  5  1  0
  5  6  1  0
  7  6  1  1
  7  8  1  0
  8  9  1  0
  9 10  1  0
 10 11  1  0
 11 12  1  0
 12 13  1  0
  9 14  1  0
 13 14  1  0
  7 15  1  0
 15 16  1  0
 16 17  2  0
 16 18  1  0
 18 19  1  0
 19 20  2  0
 20 21  1  0
 21 22  2  0
 22 23  1  0
 19 24  1  0
 23 24  2  0
M  END
