pyridine_urea_14698
     RDKit          3D

 20 21  0  0  0  0  0  0  0  0999 V2000
    2.3230    1.5860   20.4630 C   0  0  0  0  0  0  0  0  0  0  0  0
    2.5230    2.5300   19.5040 N   0  0  0  0  0  0  0  0  0  0  0  0
    1.5760    3.4530   19.0140 C   0  0  0  0  0  0  0  0  0  0  0  0
    3.9220    2.9080   19.3730 C   0  0  0  0  0  0  0  0  0  0  0  0
    4.8650    1.8680   19.2450 C   0  0  0  0  0  0  0  0  0  0  0  0
    5.2110    1.4310   17.9890 C   0  0  0  0  0  0  0  0  0  0  0  0
    6.0920    0.4790   17.6460 N   0  0  0  0  0  0  0  0  0  0  0  0
    6.7110   -0.1110   18.6760 C   0  0  0  0  0  0  0  0  0  0  0  0
    6.4470    0.2530   20.1330 C   0  0  0  0  0  0  0  0  0  0  0  0
    7.1420   -0.3930   21.1260 N   0  0  0  0  0  0  0  0  0  0  0  0
    8.4200    0.0160   21.5420 C   0  0  0  0  0  0  0  0  0  0  0  0
    8.9560    1.0910   21.2140 O   0  0  0  0  0  0  0  0  0  0  0  0
    9.1090   -0.8300   22.3470 N   0  0  0  0  0  0  0  0  0  0  0  0
   10.3940   -0.4910   22.5310 C   0  0  0  0  0  0  0  0  0  0  0  0
   10.7820    0.7890   22.9030 C   0  0  0  0  0  0  0  0  0  0  0  0
   12.1310    1.0300   23.0550 C   0  0  0  0  0  0  0  0  0  0  0  0
   13.0560   -0.0680   22.8230 C   0  0  0  0  0  0  0  0  0  0  0  0
   12.7380   -1.3310   22.4640 N   0  0  0  0  0  0  0  0  0  0  0  0
   11.3990   -1.4620   22.3360 C   0  0  0  0  0  0  0  0  0  0  0  0
    5.4930    1.2630   20.3470 C   0  0  0  0  0  0  0  0  0  0  0  0
  1  2  1  0
  2  3  1  0
  2  4  1  0
  4  5  1  0
  5  6  2  0
  6  7  1  0
  7  8  2  0
  8  9  1  0
  9 10  1  0
 10 11  1  0
 11 12  2  0
 11 13  1  0
 13 14  1  0
 14 15  2  0
 15 16  1  0
 16 17  2  0
 17 18  1  0
 14 19  1  0
 18 19  2  0
  5 20  1  0
  9 20  2  0
M  END
