pyridine_urea_284
     RDKit          3D

 28 30  0  0  0  0  0  0  0  0999 V2000
   15.5880   -2.3640   26.1970 C   0  0  0  0  0  0  0  0  0  0  0  0
   15.4580   -1.2810   26.9770 N   0  0  0  0  0  0  0  0  0  0  0  0
   16.5410    0.1910   27.7720 C   0  0  0  0  0  0  0  0  0  0  0  0
   18.4390    1.5850   28.0180 C   0  0  0  0  0  0  0  0  0  0  0  0
   19.3360    2.3550   27.0580 O   0  0  0  0  0  0  0  0  0  0  0  0
   20.6940    2.9420   27.2860 C   0  0  0  0  0  0  0  0  0  0  0  0
   21.5460    3.1750   26.2900 C   0  0  0  0  0  0  0  0  0  0  0  0
   22.9040    3.7690   26.4470 C   0  0  0  0  0  0  0  0  0  0  0  0
   23.3360    4.1270   27.8120 C   0  0  0  0  0  0  0  0  0  0  0  0
   22.5960    3.9670   28.9680 C   0  0  0  0  0  0  0  0  0  0  0  0
   21.1960    3.3460   28.7040 C   0  0  0  0  0  0  0  0  0  0  0  0
   13.9620   -1.2940   26.1400 C   0  0  0  0  0  0  0  0  0  0  0  0
   13.2310   -1.1680   24.7990 C   0  0  0  0  0  0  0  0  0  0  0  0
   11.9160   -0.6350   24.9470 C   0  0  0  0  0  0  0  0  0  0  0  0
   10.6610   -0.3050   24.0800 C   0  0  0  0  0  0  0  0  0  0  0  0
   11.1810   -0.7710   22.7330 C   0  0  0  0  0  0  0  0  0  0  0  0
   10.1440   -0.6510   21.6460 N   0  0  0  0  0  0  0  0  0  0  0  0
    9.0220    0.1460   21.3750 C   0  0  0  0  0  0  0  0  0  0  0  0
    9.2300    1.5520   21.2160 O   0  0  0  0  0  0  0  0  0  0  0  0
    7.7940   -0.4560   21.2020 N   0  0  0  0  0  0  0  0  0  0  0  0
    6.9750    0.0480   20.2010 C   0  0  0  0  0  0  0  0  0  0  0  0
    5.8300    0.8000   20.5620 C   0  0  0  0  0  0  0  0  0  0  0  0
    4.9980    1.3250   19.5630 C   0  0  0  0  0  0  0  0  0  0  0  0
    5.2820    1.1190   18.2310 C   0  0  0  0  0  0  0  0  0  0  0  0
    6.3240    0.4260   17.7740 N   0  0  0  0  0  0  0  0  0  0  0  0
    7.1870   -0.1230   18.8280 C   0  0  0  0  0  0  0  0  0  0  0  0
   12.4860   -1.2910   22.4830 C   0  0  0  0  0  0  0  0  0  0  0  0
   13.5040   -1.4880   23.4750 C   0  0  0  0  0  0  0  0  0  0  0  0
  1  2  1  0
  2  3  1  0
  3  4  1  0
  4  5  1  0
  5  6  1  0
  6  7  2  0
  7  8  1  0
  8  9  2  0
  9 10  1  0
  6 11  1  0
 10 11  2  0
  2 12  1  0
 12 13  1  0
 13 14  2  0
 14 15  1  0
 15 16  2  0
 16 17  1  0
 17 18  1  0
 18 19  2  0
 18 20  1  0
 20 21  1  0
 21 22  2  0
 22 23  1  0
 23 24  2  0
 24 25  1  0
 21 26  1  0
 25 26  2  0
 16 27  1  0
 13 28  1  0
 27 28  2  0
M  END
