pyridine_urea_14690
     RDKit          3D

 20 21  0  0  0  0  0  0  0  0999 V2000
    9.3350   -0.2920   25.9690 C   0  0  0  0  0  0  0  0  0  0  0  0
   10.3540   -0.1480   24.8530 C   0  0  0  0  0  0  0  0  0  0  0  0
   11.4650    0.0760   24.3240 C   0  0  0  0  0  0  0  0  0  0  0  0
   12.5840    0.3030   23.7940 C   0  0  0  0  0  0  0  0  0  0  0  0
   12.0440    0.0460   22.6080 F   0  0  0  0  0  0  0  0  0  0  0  0
   13.6540    0.5100   23.1960 C   0  0  0  0  0  0  0  0  0  0  0  0
   12.6160    0.3540   24.2060 C   0  0  0  0  0  0  0  0  0  0  0  0
   10.9410   -0.1280   23.6470 C   0  0  0  0  0  0  0  0  0  0  0  0
   10.5100   -0.3780   22.3470 C   0  0  1  0  0  0  0  0  0  0  0  0
   11.0290   -1.5690   21.8280 C   0  0  0  0  0  0  0  0  0  0  0  0
    9.0720   -0.7100   22.4550 N   0  0  0  0  0  0  0  0  0  0  0  0
    8.4690    0.1100   21.3880 C   0  0  0  0  0  0  0  0  0  0  0  0
    8.9710    1.1610   20.9840 O   0  0  0  0  0  0  0  0  0  0  0  0
    7.2960   -0.4650   20.9260 N   0  0  0  0  0  0  0  0  0  0  0  0
    6.4980    0.1130   19.9360 C   0  0  0  0  0  0  0  0  0  0  0  0
    5.1400    0.6990   20.1340 C   0  0  0  0  0  0  0  0  0  0  0  0
    4.5020    1.2470   19.0160 C   0  0  0  0  0  0  0  0  0  0  0  0
    5.1630    1.2200   17.7840 C   0  0  0  0  0  0  0  0  0  0  0  0
    6.3870    0.6890   17.5940 N   0  0  0  0  0  0  0  0  0  0  0  0
    7.0230    0.1510   18.6530 C   0  0  0  0  0  0  0  0  0  0  0  0
  1  2  1  0
  2  3  2  0
  3  4  1  0
  4  5  1  0
  4  6  2  0
  6  7  1  0
  2  8  1  0
  7  8  2  0
  8  9  1  0
  9 10  1  1
  9 11  1  0
 11 12  1  0
 12 13  2  0
 12 14  1  0
 14 15  1  0
 15 16  2  0
 16 17  1  0
 17 18  2  0
 18 19  1  0
 15 20  1  0
 19 20  2  0
M  END
