pyridine_urea_2332
     RDKit          3D

 25 26  0  0  0  0  0  0  0  0999 V2000
   12.5940    4.2220   22.1990 C   0  0  0  0  0  0  0  0  0  0  0  0
   11.2920    3.8460   22.8960 C   0  0  0  0  0  0  0  0  0  0  0  0
   11.4650    2.5900   23.5680 O   0  0  0  0  0  0  0  0  0  0  0  0
   10.3880    1.7560   23.5030 C   0  0  0  0  0  0  0  0  0  0  0  0
    9.0000    2.0380   23.6880 O   0  0  0  0  0  0  0  0  0  0  0  0
   10.6820    0.4130   23.2260 C   0  0  2  0  0  0  0  0  0  0  0  0
   11.8550    0.1700   22.5040 C   0  0  0  0  0  0  0  0  0  0  0  0
   12.8830   -0.5930   22.9890 C   0  0  0  0  0  0  0  0  0  0  0  0
   12.0310   -0.8600   23.7860 C   0  0  0  0  0  0  0  0  0  0  0  0
   10.7110   -0.3850   23.8890 C   0  0  0  0  0  0  0  0  0  0  0  0
   10.6150   -1.1650   24.8960 C   0  0  0  0  0  0  0  0  0  0  0  0
    9.3200   -1.1300   25.5130 O   0  0  0  0  0  0  0  0  0  0  0  0
    9.1700   -0.0420   26.4000 C   0  0  0  0  0  0  0  0  0  0  0  0
   11.9620   -1.8060   24.9920 C   0  0  0  0  0  0  0  0  0  0  0  0
   13.1050   -1.5160   24.0520 C   0  0  0  0  0  0  0  0  0  0  0  0
    9.4880   -0.2270   22.5460 N   0  0  0  0  0  0  0  0  0  0  0  0
    8.7210    0.4200   21.5780 C   0  0  0  0  0  0  0  0  0  0  0  0
    9.0200    1.5390   21.1810 O   0  0  0  0  0  0  0  0  0  0  0  0
    7.6110   -0.3160   21.1390 N   0  0  0  0  0  0  0  0  0  0  0  0
    6.7690    0.1580   20.1090 C   0  0  0  0  0  0  0  0  0  0  0  0
    5.6270    0.8920   20.4460 C   0  0  0  0  0  0  0  0  0  0  0  0
    4.7990    1.3880   19.4410 C   0  0  0  0  0  0  0  0  0  0  0  0
    5.1390    1.1330   18.1250 C   0  0  0  0  0  0  0  0  0  0  0  0
    6.2170    0.4320   17.7750 N   0  0  0  0  0  0  0  0  0  0  0  0
    7.0020   -0.0420   18.7660 C   0  0  0  0  0  0  0  0  0  0  0  0
  1  2  1  0
  2  3  1  0
  3  4  1  0
  4  5  2  0
  4  6  1  0
  6  7  1  6
  7  8  1  0
  8  9  2  0
  9 10  1  0
 10 11  2  0
 11 12  1  0
 12 13  1  0
 11 14  1  0
  8 15  1  0
 14 15  2  0
  6 16  1  0
 16 17  1  0
 17 18  2  0
 17 19  1  0
 19 20  1  0
 20 21  2  0
 21 22  1  0
 22 23  2  0
 23 24  1  0
 20 25  1  0
 24 25  2  0
M  END
