pyridine_urea_1228
     RDKit          3D

 21 22  0  0  0  0  0  0  0  0999 V2000
    9.1900   -0.8960   25.6180 C   0  0  0  0  0  0  0  0  0  0  0  0
    8.6670   -0.5960   24.2160 C   0  0  0  0  0  0  0  0  0  0  0  0
    9.1270   -1.7330   23.3410 C   0  0  1  0  0  0  0  0  0  0  0  0
    8.2530   -1.7390   22.2210 N   0  0  0  0  0  0  0  0  0  0  0  0
    8.0310   -0.5680   21.5550 C   0  0  0  0  0  0  0  0  0  0  0  0
    8.8520    0.3350   21.4200 O   0  0  0  0  0  0  0  0  0  0  0  0
    6.7500   -0.5990   21.0920 N   0  0  0  0  0  0  0  0  0  0  0  0
    6.2540    0.0730   19.9860 C   0  0  0  0  0  0  0  0  0  0  0  0
    5.0830    0.8100   20.1430 C   0  0  0  0  0  0  0  0  0  0  0  0
    4.5610    1.4970   19.0580 C   0  0  0  0  0  0  0  0  0  0  0  0
    5.2280    1.4280   17.8440 C   0  0  0  0  0  0  0  0  0  0  0  0
    6.3550    0.7210   17.6750 N   0  0  0  0  0  0  0  0  0  0  0  0
    6.8420    0.0590   18.7410 C   0  0  0  0  0  0  0  0  0  0  0  0
   10.4450   -1.6810   22.6840 C   0  0  0  0  0  0  0  0  0  0  0  0
   10.6460   -2.3990   21.6050 C   0  0  0  0  0  0  0  0  0  0  0  0
   11.9990   -2.2740   21.0180 C   0  0  0  0  0  0  0  0  0  0  0  0
   13.0950   -1.5440   21.3750 C   0  0  0  0  0  0  0  0  0  0  0  0
   13.9920   -1.6670   20.7130 O   0  0  0  0  0  0  0  0  0  0  0  0
   13.6640   -3.0230   20.5950 C   0  0  0  0  0  0  0  0  0  0  0  0
   12.9580   -0.7150   22.5800 C   0  0  0  0  0  0  0  0  0  0  0  0
   11.5870   -1.0280   22.9320 C   0  0  0  0  0  0  0  0  0  0  0  0
  1  2  1  0
  3  2  1  1
  3  4  1  0
  4  5  1  0
  5  6  2  0
  5  7  1  0
  7  8  1  0
  8  9  2  0
  9 10  1  0
 10 11  2  0
 11 12  1  0
  8 13  1  0
 12 13  2  0
  3 14  1  0
 14 15  2  0
 15 16  1  0
 16 17  2  0
 17 18  1  0
 18 19  1  0
 17 20  1  0
 14 21  1  0
 20 21  2  0
M  END
