pyridine_urea_538
     RDKit          3D

 24 26  0  0  0  0  0  0  0  0999 V2000
    8.8560    1.3580   21.1330 O   0  0  0  0  0  0  0  0  0  0  0  0
    8.2790    0.3960   21.6550 C   0  0  0  0  0  0  0  0  0  0  0  0
    8.6130   -0.1120   22.8850 N   0  0  0  0  0  0  0  0  0  0  0  0
    9.9010   -0.0610   23.4260 C   0  0  0  0  0  0  0  0  0  0  0  0
   10.7650   -1.0970   23.1640 C   0  0  0  0  0  0  0  0  0  0  0  0
   12.0960   -0.7790   22.9860 C   0  0  0  0  0  0  0  0  0  0  0  0
   12.9200   -1.6420   22.9140 C   0  0  0  0  0  0  0  0  0  0  0  0
   13.0500   -0.2250   22.8420 C   0  0  0  0  0  0  0  0  0  0  0  0
   11.3360    0.0940   23.0760 C   0  0  0  0  0  0  0  0  0  0  0  0
   11.9250    1.2730   22.9250 C   0  0  0  0  0  0  0  0  0  0  0  0
   11.6920    2.9780   22.8570 Cl  0  0  0  0  0  0  0  0  0  0  0  0
   12.8200    0.4910   22.8400 C   0  0  0  0  0  0  0  0  0  0  0  0
   14.0750    0.7380   22.6550 F   0  0  0  0  0  0  0  0  0  0  0  0
   10.1800   -1.7390   21.9470 C   0  0  0  0  0  0  0  0  0  0  0  0
    9.0890   -2.4880   22.3770 C   0  0  0  0  0  0  0  0  0  0  0  0
    9.3690   -2.7860   23.7830 C   0  0  0  0  0  0  0  0  0  0  0  0
   10.5740   -2.1400   24.0730 C   0  0  0  0  0  0  0  0  0  0  0  0
    7.2280   -0.2950   21.1190 N   0  0  0  0  0  0  0  0  0  0  0  0
    6.5240    0.2420   19.9940 C   0  0  0  0  0  0  0  0  0  0  0  0
    5.3730    0.9820   20.2780 C   0  0  0  0  0  0  0  0  0  0  0  0
    4.7130    1.5270   19.2010 C   0  0  0  0  0  0  0  0  0  0  0  0
    5.1520    1.3580   17.9140 C   0  0  0  0  0  0  0  0  0  0  0  0
    6.2340    0.6500   17.5960 N   0  0  0  0  0  0  0  0  0  0  0  0
    6.9140    0.0910   18.6800 C   0  0  0  0  0  0  0  0  0  0  0  0
  1  2  2  0
  2  3  1  0
  3  4  1  0
  5  4  1  0
  5  6  1  0
  6  7  2  0
  7  8  1  0
  8  9  2  0
  9 10  1  0
 10 11  1  0
  6 12  1  0
 10 12  2  0
 12 13  1  0
  5 14  1  0
 14 15  1  0
 15 16  1  0
  5 17  1  0
 16 17  1  0
  2 18  1  0
 18 19  1  0
 19 20  2  0
 20 21  1  0
 21 22  2  0
 22 23  1  0
 19 24  1  0
 23 24  2  0
M  END
