pyridine_urea_2571
     RDKit          3D

 23 25  0  0  0  0  0  0  0  0999 V2000
    8.9670    1.6870   20.9580 O   0  0  0  0  0  0  0  0  0  0  0  0
    8.3680    0.8220   21.5580 C   0  0  0  0  0  0  0  0  0  0  0  0
    7.4350   -0.0500   21.0640 N   0  0  0  0  0  0  0  0  0  0  0  0
    6.6440    0.3460   20.0040 C   0  0  0  0  0  0  0  0  0  0  0  0
    5.4930    1.0870   20.2810 C   0  0  0  0  0  0  0  0  0  0  0  0
    4.7000    1.5270   19.2320 C   0  0  0  0  0  0  0  0  0  0  0  0
    5.0980    1.2050   17.9590 C   0  0  0  0  0  0  0  0  0  0  0  0
    6.1850    0.4870   17.6720 N   0  0  0  0  0  0  0  0  0  0  0  0
    6.9350    0.0690   18.6970 C   0  0  0  0  0  0  0  0  0  0  0  0
    8.5690    0.6610   22.8710 N   0  0  0  0  0  0  0  0  0  0  0  0
    8.6750   -0.6720   23.3560 C   0  0  0  0  0  0  0  0  0  0  0  0
    9.6510   -1.5640   22.6540 C   0  0  0  0  0  0  0  0  0  0  0  0
    9.6900   -2.8610   23.1280 C   0  0  0  0  0  0  0  0  0  0  0  0
    8.8710   -3.2870   24.2150 C   0  0  0  0  0  0  0  0  0  0  0  0
    8.9050   -4.6250   24.7360 N   0  0  0  0  0  0  0  0  0  0  0  0
    7.9960   -4.6060   25.7550 N   0  0  0  0  0  0  0  0  0  0  0  0
    7.4680   -3.3260   25.8170 C   0  0  0  0  0  0  0  0  0  0  0  0
    6.5030   -2.8650   26.7150 C   0  0  0  0  0  0  0  0  0  0  0  0
    5.3620   -3.6760   26.6490 C   0  0  0  0  0  0  0  0  0  0  0  0
    4.1540   -2.9770   26.5820 C   0  0  0  0  0  0  0  0  0  0  0  0
    3.5720   -3.0360   27.8090 O   0  0  0  0  0  0  0  0  0  0  0  0
    8.0030   -2.5180   24.8750 N   0  0  0  0  0  0  0  0  0  0  0  0
    7.8370   -1.2360   24.5250 C   0  0  0  0  0  0  0  0  0  0  0  0
  1  2  2  0
  2  3  1  0
  3  4  1  0
  4  5  2  0
  5  6  1  0
  6  7  2  0
  7  8  1  0
  4  9  1  0
  8  9  2  0
  2 10  1  0
 10 11  1  0
 11 12  1  0
 12 13  2  0
 13 14  1  0
 14 15  2  0
 15 16  1  0
 16 17  2  0
 17 18  1  0
 18 19  1  0
 19 20  1  0
 20 21  1  0
 14 22  1  0
 17 22  1  0
 11 23  2  0
 22 23  1  0
M  END
