pyridine_urea_10330
     RDKit          3D

 22 24  0  0  0  0  0  0  0  0999 V2000
    8.7320    0.8850   21.2030 O   0  0  0  0  0  0  0  0  0  0  0  0
    8.3140   -0.2200   21.5230 C   0  0  0  0  0  0  0  0  0  0  0  0
    8.9050   -1.0620   22.4150 N   0  0  0  0  0  0  0  0  0  0  0  0
    8.9840   -0.8690   23.7970 C   0  0  0  0  0  0  0  0  0  0  0  0
    9.2840    0.5240   24.3870 C   0  0  0  0  0  0  0  0  0  0  0  0
   10.4720    1.1220   23.6530 C   0  0  0  0  0  0  0  0  0  0  0  0
   11.0360    0.0140   23.9590 C   0  0  0  0  0  0  0  0  0  0  0  0
   11.1280   -1.0880   24.4500 C   0  0  0  0  0  0  0  0  0  0  0  0
   12.1620   -0.5710   23.7500 N   0  0  0  0  0  0  0  0  0  0  0  0
   13.2790   -1.0510   23.4430 C   0  0  0  0  0  0  0  0  0  0  0  0
   13.2870   -0.6240   22.1590 C   0  0  0  0  0  0  0  0  0  0  0  0
   13.1890   -1.7110   21.3750 C   0  0  0  0  0  0  0  0  0  0  0  0
   13.0910   -2.7210   22.2810 C   0  0  0  0  0  0  0  0  0  0  0  0
   13.4290   -2.4150   23.6040 C   0  0  0  0  0  0  0  0  0  0  0  0
   11.8630    0.8390   23.2300 N   0  0  0  0  0  0  0  0  0  0  0  0
    7.1460   -0.6480   20.9720 N   0  0  0  0  0  0  0  0  0  0  0  0
    6.4610    0.0160   20.0190 C   0  0  0  0  0  0  0  0  0  0  0  0
    5.1890    0.8050   20.3220 C   0  0  0  0  0  0  0  0  0  0  0  0
    4.6290    1.4350   19.2300 C   0  0  0  0  0  0  0  0  0  0  0  0
    5.2000    1.3400   17.9660 C   0  0  0  0  0  0  0  0  0  0  0  0
    6.3140    0.6440   17.6780 N   0  0  0  0  0  0  0  0  0  0  0  0
    6.8920    0.0140   18.7190 C   0  0  0  0  0  0  0  0  0  0  0  0
  1  2  2  0
  2  3  1  0
  3  4  1  0
  4  5  1  0
  5  6  1  0
  6  7  1  0
  7  8  2  0
  8  9  1  0
  9 10  1  0
 10 11  1  0
 11 12  1  0
 12 13  1  0
 10 14  1  0
 13 14  1  0
  6 15  2  0
  9 15  1  0
  2 16  1  0
 16 17  1  0
 17 18  2  0
 18 19  1  0
 19 20  2  0
 20 21  1  0
 17 22  1  0
 21 22  2  0
M  END
