pyridine_urea_444
     RDKit          3D

 25 27  0  0  0  0  0  0  0  0999 V2000
   13.1220    1.7960   22.9180 C   0  0  0  0  0  0  0  0  0  0  0  0
   12.0640    0.8380   22.7940 C   0  0  0  0  0  0  0  0  0  0  0  0
   12.3540   -0.4950   22.5130 C   0  0  0  0  0  0  0  0  0  0  0  0
   11.3210   -1.4170   22.3620 C   0  0  0  0  0  0  0  0  0  0  0  0
   10.0370   -0.9290   22.5120 C   0  0  0  0  0  0  0  0  0  0  0  0
    8.8270   -1.5700   22.3800 N   0  0  0  0  0  0  0  0  0  0  0  0
    8.1340   -0.6110   21.4780 C   0  0  0  0  0  0  0  0  0  0  0  0
    8.6750    0.4340   21.1480 O   0  0  0  0  0  0  0  0  0  0  0  0
    6.8960   -0.9480   21.0470 N   0  0  0  0  0  0  0  0  0  0  0  0
    6.2710   -0.2090   20.0760 C   0  0  0  0  0  0  0  0  0  0  0  0
    5.0900    0.5080   20.1980 C   0  0  0  0  0  0  0  0  0  0  0  0
    4.5250    1.2560   19.1660 C   0  0  0  0  0  0  0  0  0  0  0  0
    5.1820    1.2890   17.9460 C   0  0  0  0  0  0  0  0  0  0  0  0
    6.3300    0.6220   17.7240 N   0  0  0  0  0  0  0  0  0  0  0  0
    6.8670   -0.1400   18.8310 C   0  0  0  0  0  0  0  0  0  0  0  0
    9.7890    0.3950   22.8130 C   0  0  0  0  0  0  0  0  0  0  0  0
   10.7710    1.3090   22.9590 C   0  0  0  0  0  0  0  0  0  0  0  0
   10.5440    2.5100   23.2140 O   0  0  0  0  0  0  0  0  0  0  0  0
    9.2020    2.9280   23.5480 C   0  0  0  0  0  0  0  0  0  0  0  0
    9.2330    4.2880   23.9350 C   0  0  0  0  0  0  0  0  0  0  0  0
    9.2490    5.1320   22.8410 C   0  0  0  0  0  0  0  0  0  0  0  0
    9.1850    6.4770   23.1570 C   0  0  0  0  0  0  0  0  0  0  0  0
    9.3920    6.6220   24.5550 O   0  0  0  0  0  0  0  0  0  0  0  0
   10.4730    5.8430   25.0720 C   0  0  0  0  0  0  0  0  0  0  0  0
   10.3640    4.4760   24.7300 C   0  0  0  0  0  0  0  0  0  0  0  0
  1  2  1  0
  2  3  2  0
  3  4  1  0
  4  5  2  0
  5  6  1  0
  6  7  1  0
  7  8  2  0
  7  9  1  0
  9 10  1  0
 10 11  2  0
 11 12  1  0
 12 13  2  0
 13 14  1  0
 10 15  1  0
 14 15  2  0
  5 16  1  0
  2 17  1  0
 16 17  2  0
 17 18  1  0
 18 19  1  0
 19 20  1  0
 20 21  1  0
 21 22  1  0
 22 23  1  0
 23 24  1  0
 20 25  1  0
 24 25  1  0
M  END
