pyridine_urea_14196
     RDKit          3D

 22 24  0  0  0  0  0  0  0  0999 V2000
   13.3760   -2.5820   24.6570 C   0  0  0  0  0  0  0  0  0  0  0  0
   13.4450   -1.1720   24.8720 O   0  0  0  0  0  0  0  0  0  0  0  0
   13.2590   -0.3980   23.7650 C   0  0  0  0  0  0  0  0  0  0  0  0
   14.0640    0.1820   23.0970 O   0  0  0  0  0  0  0  0  0  0  0  0
   12.0520   -0.2800   23.3490 C   0  0  2  0  0  0  0  0  0  0  0  0
   11.9220   -1.2510   22.3980 C   0  0  0  0  0  0  0  0  0  0  0  0
   10.5790   -1.3550   22.1390 C   0  0  0  0  0  0  0  0  0  0  0  0
    9.7810   -0.3670   22.9340 C   0  0  2  0  0  0  0  0  0  0  0  0
    8.4130   -0.3390   22.6120 N   0  0  0  0  0  0  0  0  0  0  0  0
    7.9490    0.1560   21.4700 C   0  0  0  0  0  0  0  0  0  0  0  0
    8.5010    1.1710   21.0070 O   0  0  0  0  0  0  0  0  0  0  0  0
    6.8380   -0.5730   20.9250 N   0  0  0  0  0  0  0  0  0  0  0  0
    6.2800    0.0790   19.8890 C   0  0  0  0  0  0  0  0  0  0  0  0
    5.0880    0.7460   20.0780 C   0  0  0  0  0  0  0  0  0  0  0  0
    4.5080    1.4410   19.0270 C   0  0  0  0  0  0  0  0  0  0  0  0
    5.1630    1.4370   17.8080 C   0  0  0  0  0  0  0  0  0  0  0  0
    6.3200    0.7840   17.6100 N   0  0  0  0  0  0  0  0  0  0  0  0
    6.8460    0.1230   18.6490 C   0  0  0  0  0  0  0  0  0  0  0  0
   10.3410    1.0600   22.8890 C   0  0  0  0  0  0  0  0  0  0  0  0
   11.7210    1.0030   22.9680 C   0  0  0  0  0  0  0  0  0  0  0  0
    9.9470   -0.6190   24.2680 C   0  0  0  0  0  0  0  0  0  0  0  0
   11.2100   -0.2360   24.6040 C   0  0  0  0  0  0  0  0  0  0  0  0
  1  2  1  0
  2  3  1  0
  3  4  2  0
  5  3  1  1
  5  6  1  0
  6  7  1  0
  7  8  1  0
  8  9  1  6
  9 10  1  0
 10 11  2  0
 10 12  1  0
 12 13  1  0
 13 14  2  0
 14 15  1  0
 15 16  2  0
 16 17  1  0
 13 18  1  0
 17 18  2  0
  8 19  1  0
  5 20  1  0
 19 20  1  0
  8 21  1  0
  5 22  1  0
 21 22  1  0
M  END
