pyridine_urea_1359
     RDKit          3D

 20 21  0  0  0  0  0  0  0  0999 V2000
   10.4890    4.3610   23.6960 N   0  0  0  0  0  0  0  0  0  0  0  0
   11.4450    3.8570   23.2730 C   0  0  0  0  0  0  0  0  0  0  0  0
   12.7220    3.2110   22.6750 C   0  0  0  0  0  0  0  0  0  0  0  0
   12.9600    1.7340   23.1540 C   0  0  0  0  0  0  0  0  0  0  0  0
   12.0530    0.8350   22.9280 C   0  0  0  0  0  0  0  0  0  0  0  0
   10.8260    1.2830   23.2550 C   0  0  0  0  0  0  0  0  0  0  0  0
    9.7720    0.4840   23.0200 C   0  0  0  0  0  0  0  0  0  0  0  0
    9.9680   -0.7520   22.4610 C   0  0  0  0  0  0  0  0  0  0  0  0
    8.8460   -1.4080   22.1970 N   0  0  0  0  0  0  0  0  0  0  0  0
    7.9860   -0.6650   21.4250 C   0  0  0  0  0  0  0  0  0  0  0  0
    8.3810    0.4700   21.1390 O   0  0  0  0  0  0  0  0  0  0  0  0
    6.8110   -1.1340   21.0010 N   0  0  0  0  0  0  0  0  0  0  0  0
    6.2850   -0.3370   20.0300 C   0  0  0  0  0  0  0  0  0  0  0  0
    5.1010    0.3710   20.3040 C   0  0  0  0  0  0  0  0  0  0  0  0
    4.5450    1.2030   19.3180 C   0  0  0  0  0  0  0  0  0  0  0  0
    5.2570    1.2910   18.0120 C   0  0  0  0  0  0  0  0  0  0  0  0
    6.3790    0.6070   17.7770 N   0  0  0  0  0  0  0  0  0  0  0  0
    6.8680   -0.1840   18.7750 C   0  0  0  0  0  0  0  0  0  0  0  0
   11.2420   -1.2550   22.1570 C   0  0  0  0  0  0  0  0  0  0  0  0
   12.3030   -0.4330   22.4040 C   0  0  0  0  0  0  0  0  0  0  0  0
  1  2  3  0
  2  3  1  0
  3  4  1  0
  4  5  1  0
  5  6  2  0
  6  7  1  0
  7  8  2  0
  8  9  1  0
  9 10  1  0
 10 11  2  0
 10 12  1  0
 12 13  1  0
 13 14  2  0
 14 15  1  0
 15 16  2  0
 16 17  1  0
 13 18  1  0
 17 18  2  0
  8 19  1  0
  5 20  1  0
 19 20  2  0
M  END
