pyridine_urea_10680
     RDKit          3D

 21 22  0  0  0  0  0  0  0  0999 V2000
    7.9870   -0.2140   26.6410 C   0  0  0  0  0  0  0  0  0  0  0  0
    7.6080    0.9210   25.6740 C   0  0  0  0  0  0  0  0  0  0  0  0
    8.9100    1.4040   25.0180 C   0  0  0  0  0  0  0  0  0  0  0  0
    8.8740    1.0660   23.8530 O   0  0  0  0  0  0  0  0  0  0  0  0
    9.9140    0.3480   23.3530 C   0  0  0  0  0  0  0  0  0  0  0  0
   11.2770    0.8370   23.4870 C   0  0  0  0  0  0  0  0  0  0  0  0
   12.3090    0.1320   22.9680 C   0  0  0  0  0  0  0  0  0  0  0  0
   13.5490    0.4270   22.9800 C   0  0  0  0  0  0  0  0  0  0  0  0
   12.0690   -1.1890   22.2600 C   0  0  0  0  0  0  0  0  0  0  0  0
   10.7760   -1.6050   22.1610 C   0  0  0  0  0  0  0  0  0  0  0  0
    9.7510   -0.8510   22.6870 C   0  0  0  0  0  0  0  0  0  0  0  0
    8.4450   -1.3390   22.4950 N   0  0  0  0  0  0  0  0  0  0  0  0
    7.8660   -0.4050   21.5480 C   0  0  0  0  0  0  0  0  0  0  0  0
    8.5590    0.7980   21.2320 O   0  0  0  0  0  0  0  0  0  0  0  0
    6.6830   -0.7730   21.0260 N   0  0  0  0  0  0  0  0  0  0  0  0
    6.1820   -0.0660   19.9510 C   0  0  0  0  0  0  0  0  0  0  0  0
    4.8950    0.7200   20.0870 C   0  0  0  0  0  0  0  0  0  0  0  0
    4.4720    1.4110   19.0000 C   0  0  0  0  0  0  0  0  0  0  0  0
    5.1770    1.4070   17.8150 C   0  0  0  0  0  0  0  0  0  0  0  0
    6.3260    0.7130   17.6560 N   0  0  0  0  0  0  0  0  0  0  0  0
    6.7970   -0.0000   18.7130 C   0  0  0  0  0  0  0  0  0  0  0  0
  1  2  1  0
  2  3  1  0
  3  4  1  0
  4  5  1  0
  5  6  2  0
  6  7  1  0
  7  8  1  0
  7  9  2  0
  9 10  1  0
  5 11  1  0
 10 11  2  0
 11 12  1  0
 12 13  1  0
 13 14  2  0
 13 15  1  0
 15 16  1  0
 16 17  2  0
 17 18  1  0
 18 19  2  0
 19 20  1  0
 16 21  1  0
 20 21  2  0
M  END
