pyridine_urea_4424
     RDKit          3D

 23 25  0  0  0  0  0  0  0  0999 V2000
    6.4310   -5.0020   23.5710 C   0  0  0  0  0  0  0  0  0  0  0  0
    7.4630   -3.8670   23.5370 C   0  0  0  0  0  0  0  0  0  0  0  0
    8.8490   -4.1380   23.6070 O   0  0  0  0  0  0  0  0  0  0  0  0
    9.3340   -2.7980   23.5340 C   0  0  0  0  0  0  0  0  0  0  0  0
   10.6940   -2.1980   23.5410 C   0  0  0  0  0  0  0  0  0  0  0  0
   11.8540   -2.8270   24.2780 C   0  0  0  0  0  0  0  0  0  0  0  0
   13.2040   -2.1270   24.2490 C   0  0  0  0  0  0  0  0  0  0  0  0
   13.2370   -0.8090   23.4450 C   0  0  0  0  0  0  0  0  0  0  0  0
   12.0820   -0.3880   22.8350 C   0  0  0  0  0  0  0  0  0  0  0  0
   10.8800   -1.0160   22.8620 C   0  0  0  0  0  0  0  0  0  0  0  0
    8.4960   -1.7690   23.4360 N   0  0  0  0  0  0  0  0  0  0  0  0
    7.2810   -2.3750   23.4280 C   0  0  0  0  0  0  0  0  0  0  0  0
    6.2950   -1.4410   23.3200 C   0  0  0  0  0  0  0  0  0  0  0  0
    7.1520   -0.2780   23.0480 N   0  0  0  0  0  0  0  0  0  0  0  0
    7.7470   -0.1270   21.7280 C   0  0  0  0  0  0  0  0  0  0  0  0
    8.7120    0.5730   21.4070 O   0  0  0  0  0  0  0  0  0  0  0  0
    7.1300   -0.8300   20.7820 N   0  0  0  0  0  0  0  0  0  0  0  0
    6.4150   -0.0870   19.9360 C   0  0  0  0  0  0  0  0  0  0  0  0
    5.2170    0.5830   20.1850 C   0  0  0  0  0  0  0  0  0  0  0  0
    4.5740    1.3710   19.1210 C   0  0  0  0  0  0  0  0  0  0  0  0
    5.1950    1.4160   17.8980 C   0  0  0  0  0  0  0  0  0  0  0  0
    6.3510    0.7680   17.6470 N   0  0  0  0  0  0  0  0  0  0  0  0
    6.9140    0.0480   18.6530 C   0  0  0  0  0  0  0  0  0  0  0  0
  1  2  1  0
  2  3  1  0
  3  4  1  0
  4  5  1  0
  5  6  2  0
  6  7  1  0
  7  8  2  0
  8  9  1  0
  5 10  1  0
  9 10  2  0
  4 11  2  0
  2 12  2  0
 11 12  1  0
 12 13  1  0
 13 14  1  0
 14 15  1  0
 15 16  2  0
 15 17  1  0
 17 18  1  0
 18 19  2  0
 19 20  1  0
 20 21  2  0
 21 22  1  0
 18 23  1  0
 22 23  2  0
M  END
