pyridine_urea_4520
     RDKit          3D

 23 24  0  0  0  0  0  0  0  0999 V2000
   11.3640   -3.0330   24.4170 C   0  0  0  0  0  0  0  0  0  0  0  0
   11.2660   -1.6360   23.9340 C   0  0  0  0  0  0  0  0  0  0  0  0
   10.0330   -1.0700   23.5900 C   0  0  0  0  0  0  0  0  0  0  0  0
   10.1080    0.2830   23.0800 C   0  0  0  0  0  0  0  0  0  0  0  0
    8.7240    0.5990   22.8020 N   0  0  0  0  0  0  0  0  0  0  0  0
    8.3690    0.7990   21.5220 C   0  0  0  0  0  0  0  0  0  0  0  0
    8.8710    1.7110   20.9070 O   0  0  0  0  0  0  0  0  0  0  0  0
    7.4030   -0.1150   21.0600 N   0  0  0  0  0  0  0  0  0  0  0  0
    6.5640    0.3230   20.0780 C   0  0  0  0  0  0  0  0  0  0  0  0
    5.2650    1.0880   20.3440 C   0  0  0  0  0  0  0  0  0  0  0  0
    4.6160    1.4550   19.1810 C   0  0  0  0  0  0  0  0  0  0  0  0
    5.1190    1.1440   17.9420 C   0  0  0  0  0  0  0  0  0  0  0  0
    6.2340    0.4710   17.6930 N   0  0  0  0  0  0  0  0  0  0  0  0
    6.9320    0.0720   18.7670 C   0  0  0  0  0  0  0  0  0  0  0  0
   11.2550    1.3160   22.8060 C   0  0  0  0  0  0  0  0  0  0  0  0
   12.4010    0.5460   23.2400 C   0  0  0  0  0  0  0  0  0  0  0  0
   12.4110   -0.8300   23.7730 C   0  0  0  0  0  0  0  0  0  0  0  0
   13.4050   -1.6300   24.1970 C   0  0  0  0  0  0  0  0  0  0  0  0
   13.7350   -1.7800   25.5040 O   0  0  0  0  0  0  0  0  0  0  0  0
   13.9460   -2.3570   23.2630 N   0  0  0  0  0  0  0  0  0  0  0  0
   13.1960   -2.5430   22.1460 C   0  0  0  0  0  0  0  0  0  0  0  0
   11.8120   -2.4460   22.2230 C   0  0  0  0  0  0  0  0  0  0  0  0
   13.4530   -1.5170   21.0980 C   0  0  0  0  0  0  0  0  0  0  0  0
  1  2  1  0
  2  3  2  0
  3  4  1  0
  4  5  1  0
  5  6  1  0
  6  7  2  0
  6  8  1  0
  8  9  1  0
  9 10  2  0
 10 11  1  0
 11 12  2  0
 12 13  1  0
  9 14  1  0
 13 14  2  0
  4 15  2  0
 15 16  1  0
  2 17  1  0
 16 17  2  0
 17 18  1  0
 18 19  2  0
 18 20  1  0
 20 21  1  0
 21 22  1  0
 21 23  1  0
M  END
