pyridine_urea_12811
     RDKit          3D

 20 21  0  0  0  0  0  0  0  0999 V2000
   12.5070   -0.4610   25.3630 C   0  0  0  0  0  0  0  0  0  0  0  0
   12.0790   -0.8350   24.0720 C   0  0  0  0  0  0  0  0  0  0  0  0
   10.6060   -0.5780   23.9850 C   0  0  0  0  0  0  0  0  0  0  0  0
    9.9900   -0.8720   22.8580 C   0  0  0  0  0  0  0  0  0  0  0  0
    8.6010   -0.6950   22.5990 N   0  0  0  0  0  0  0  0  0  0  0  0
    8.2290    0.0840   21.5460 C   0  0  0  0  0  0  0  0  0  0  0  0
    8.8270    1.1210   21.2060 O   0  0  0  0  0  0  0  0  0  0  0  0
    7.1190   -0.4580   20.9670 N   0  0  0  0  0  0  0  0  0  0  0  0
    6.3880    0.1850   19.9890 C   0  0  0  0  0  0  0  0  0  0  0  0
    5.2160    0.8970   20.1740 C   0  0  0  0  0  0  0  0  0  0  0  0
    4.6140    1.5020   19.1010 C   0  0  0  0  0  0  0  0  0  0  0  0
    5.1700    1.4000   17.8630 C   0  0  0  0  0  0  0  0  0  0  0  0
    6.2960    0.7140   17.6210 N   0  0  0  0  0  0  0  0  0  0  0  0
    6.8750    0.1240   18.6910 C   0  0  0  0  0  0  0  0  0  0  0  0
   10.7340   -1.3970   21.8290 C   0  0  0  0  0  0  0  0  0  0  0  0
   12.2210   -1.6260   21.9630 C   0  0  0  0  0  0  0  0  0  0  0  0
   12.9780   -2.1270   20.9890 N   0  0  0  0  0  0  0  0  0  0  0  0
   13.8540   -1.3530   20.5930 O   0  0  0  0  0  0  0  0  0  0  0  0
   13.1570   -3.3460   21.0270 O   0  0  0  0  0  0  0  0  0  0  0  0
   12.8720   -1.3320   23.1010 C   0  0  0  0  0  0  0  0  0  0  0  0
  1  2  1  0
  2  3  2  0
  3  4  1  0
  4  5  1  0
  5  6  1  0
  6  7  2  0
  6  8  1  0
  8  9  1  0
  9 10  2  0
 10 11  1  0
 11 12  2  0
 12 13  1  0
  9 14  1  0
 13 14  2  0
  4 15  2  0
 15 16  1  0
 16 17  1  0
 17 18  2  0
 17 19  1  0
  2 20  1  0
 16 20  2  0
M  CHG  2  17   1  19  -1
M  END
