pyridine_urea_13912
     RDKit          3D

 24 26  0  0  0  0  0  0  0  0999 V2000
    9.9090   -2.2470   21.8940 C   0  0  0  0  0  0  0  0  0  0  0  0
   10.8320   -1.5600   22.2200 C   0  0  0  0  0  0  0  0  0  0  0  0
   12.2080   -1.0480   22.5680 C   0  0  0  0  0  0  0  0  0  0  0  0
   12.6480    0.2500   22.9900 C   0  0  0  0  0  0  0  0  0  0  0  0
   13.9390   -0.0130   23.2060 O   0  0  0  0  0  0  0  0  0  0  0  0
   13.2870   -1.0960   23.7430 C   0  0  0  0  0  0  0  0  0  0  0  0
   13.7730   -2.1740   24.6850 C   0  0  0  0  0  0  0  0  0  0  0  0
   12.8950   -3.2300   25.1090 C   0  0  0  0  0  0  0  0  0  0  0  0
   11.5930   -3.4330   24.7850 C   0  0  0  0  0  0  0  0  0  0  0  0
   11.0980   -2.3710   23.8860 C   0  0  0  0  0  0  0  0  0  0  0  0
   11.9270   -1.3090   23.4320 N   0  0  0  0  0  0  0  0  0  0  0  0
   11.7600    1.4310   23.1330 C   0  0  0  0  0  0  0  0  0  0  0  0
   10.4660    1.0750   22.8700 C   0  0  0  0  0  0  0  0  0  0  0  0
   10.0430   -0.2230   22.4850 C   0  0  0  0  0  0  0  0  0  0  0  0
    8.7210   -0.3360   22.3160 N   0  0  0  0  0  0  0  0  0  0  0  0
    8.0600    0.2770   21.3090 C   0  0  0  0  0  0  0  0  0  0  0  0
    8.4420    1.5880   20.8130 O   0  0  0  0  0  0  0  0  0  0  0  0
    7.0530   -0.4890   20.8950 N   0  0  0  0  0  0  0  0  0  0  0  0
    6.3620    0.1350   19.9590 C   0  0  0  0  0  0  0  0  0  0  0  0
    5.0720    0.8570   20.1300 C   0  0  0  0  0  0  0  0  0  0  0  0
    4.4890    1.4810   19.0440 C   0  0  0  0  0  0  0  0  0  0  0  0
    5.1390    1.4130   17.8160 C   0  0  0  0  0  0  0  0  0  0  0  0
    6.3090    0.7540   17.6360 N   0  0  0  0  0  0  0  0  0  0  0  0
    6.8720    0.1450   18.6900 C   0  0  0  0  0  0  0  0  0  0  0  0
  1  2  1  0
  2  3  2  0
  3  4  1  0
  4  5  1  0
  5  6  1  0
  6  7  2  0
  7  8  1  0
  8  9  2  0
  9 10  1  0
  6 11  1  0
 10 11  2  0
  4 12  2  0
 12 13  1  0
  2 14  1  0
 13 14  2  0
 14 15  1  0
 15 16  1  0
 16 17  2  0
 16 18  1  0
 18 19  1  0
 19 20  2  0
 20 21  1  0
 21 22  2  0
 22 23  1  0
 19 24  1  0
 23 24  2  0
M  END
