pyridine_urea_8556
     RDKit          3D

 21 23  0  0  0  0  0  0  0  0999 V2000
    8.9940    0.6610   21.3220 O   0  0  0  0  0  0  0  0  0  0  0  0
    8.6220   -0.4960   21.4390 C   0  0  0  0  0  0  0  0  0  0  0  0
    9.3550   -1.5870   21.9330 N   0  0  0  0  0  0  0  0  0  0  0  0
   10.5140   -1.6340   22.8100 C   0  0  0  0  0  0  0  0  0  0  0  0
   11.5200   -0.6640   22.6670 C   0  0  0  0  0  0  0  0  0  0  0  0
   10.2300   -0.1520   23.0420 C   0  0  0  0  0  0  0  0  0  0  0  0
    9.7520    1.1120   23.2840 C   0  0  0  0  0  0  0  0  0  0  0  0
   10.6480    2.2520   23.1600 C   0  0  0  0  0  0  0  0  0  0  0  0
   11.8890    2.0200   22.8260 C   0  0  0  0  0  0  0  0  0  0  0  0
   12.3310    0.5560   22.5930 C   0  0  0  0  0  0  0  0  0  0  0  0
   12.5690    3.3570   22.7490 C   0  0  0  0  0  0  0  0  0  0  0  0
   11.5670    4.2030   23.1800 N   0  0  0  0  0  0  0  0  0  0  0  0
   10.3080    3.5860   23.3720 C   0  0  0  0  0  0  0  0  0  0  0  0
    9.1150    4.1860   23.6880 O   0  0  0  0  0  0  0  0  0  0  0  0
    7.3330   -0.8350   21.0320 N   0  0  0  0  0  0  0  0  0  0  0  0
    6.5700   -0.1250   20.1470 C   0  0  0  0  0  0  0  0  0  0  0  0
    5.4070    0.6090   20.4540 C   0  0  0  0  0  0  0  0  0  0  0  0
    4.7500    1.2890   19.4120 C   0  0  0  0  0  0  0  0  0  0  0  0
    5.2520    1.2250   18.1260 C   0  0  0  0  0  0  0  0  0  0  0  0
    6.3500    0.5360   17.7820 N   0  0  0  0  0  0  0  0  0  0  0  0
    6.9520   -0.1040   18.8080 C   0  0  0  0  0  0  0  0  0  0  0  0
  1  2  2  0
  2  3  1  0
  3  4  1  0
  4  5  1  0
  5  6  2  0
  6  7  1  0
  7  8  2  0
  8  9  1  0
  5 10  1  0
  9 10  2  0
  9 11  1  0
 11 12  1  0
  8 13  1  0
 12 13  1  0
 13 14  2  0
  2 15  1  0
 15 16  1  0
 16 17  2  0
 17 18  1  0
 18 19  2  0
 19 20  1  0
 16 21  1  0
 20 21  2  0
M  END
