pyridine_urea_4861
     RDKit          3D

 21 22  0  0  0  0  0  0  0  0999 V2000
   11.6320   -2.9270   24.4400 C   0  0  0  0  0  0  0  0  0  0  0  0
   13.1020   -2.5360   24.4630 C   0  0  2  0  0  0  0  0  0  0  0  0
   13.0780   -1.0190   24.5270 C   0  0  0  0  0  0  0  0  0  0  0  0
   11.8960   -0.5890   23.8620 N   0  0  0  0  0  0  0  0  0  0  0  0
   11.1120    0.3970   24.3570 C   0  0  0  0  0  0  0  0  0  0  0  0
    9.9720    0.3910   23.6200 C   0  0  0  0  0  0  0  0  0  0  0  0
    9.6480   -0.8660   23.1210 C   0  0  0  0  0  0  0  0  0  0  0  0
    8.4870   -1.0920   22.4650 N   0  0  0  0  0  0  0  0  0  0  0  0
    7.9540   -0.2840   21.4710 C   0  0  0  0  0  0  0  0  0  0  0  0
    8.4940    0.7640   21.1430 O   0  0  0  0  0  0  0  0  0  0  0  0
    6.8220   -0.7750   20.9590 N   0  0  0  0  0  0  0  0  0  0  0  0
    6.2940   -0.0680   19.9500 C   0  0  0  0  0  0  0  0  0  0  0  0
    5.1140    0.6230   20.1660 C   0  0  0  0  0  0  0  0  0  0  0  0
    4.5590    1.3680   19.1270 C   0  0  0  0  0  0  0  0  0  0  0  0
    5.2180    1.3930   17.8920 C   0  0  0  0  0  0  0  0  0  0  0  0
    6.3620    0.7220   17.6770 N   0  0  0  0  0  0  0  0  0  0  0  0
    6.8650    0.0140   18.7000 C   0  0  0  0  0  0  0  0  0  0  0  0
   12.1560   -0.3740   22.4340 C   0  0  0  0  0  0  0  0  0  0  0  0
   13.2150   -1.2000   22.0040 C   0  0  0  0  0  0  0  0  0  0  0  0
   13.0330   -2.4880   22.4010 C   0  0  0  0  0  0  0  0  0  0  0  0
   13.5800   -2.9180   23.4060 O   0  0  0  0  0  0  0  0  0  0  0  0
  2  1  1  6
  2  3  1  0
  3  4  1  0
  4  5  1  0
  5  6  1  0
  6  7  1  0
  7  8  1  0
  8  9  1  0
  9 10  2  0
  9 11  1  0
 11 12  1  0
 12 13  2  0
 13 14  1  0
 14 15  2  0
 15 16  1  0
 12 17  1  0
 16 17  2  0
  4 18  1  0
 18 19  1  0
 19 20  1  0
  2 21  1  0
 20 21  1  0
M  END
