pyridine_urea_6639
     RDKit          3D

 22 24  0  0  0  0  0  0  0  0999 V2000
    8.9390   -1.0530   20.8560 O   0  0  0  0  0  0  0  0  0  0  0  0
    8.1430   -0.3050   21.3280 C   0  0  0  0  0  0  0  0  0  0  0  0
    6.8060   -0.3640   21.1560 N   0  0  0  0  0  0  0  0  0  0  0  0
    6.1640    0.2650   20.1140 C   0  0  0  0  0  0  0  0  0  0  0  0
    4.8550    1.0320   20.2840 C   0  0  0  0  0  0  0  0  0  0  0  0
    4.3530    1.6600   18.9960 C   0  0  0  0  0  0  0  0  0  0  0  0
    5.1700    1.4570   17.7640 C   0  0  0  0  0  0  0  0  0  0  0  0
    6.3120    0.7480   17.7200 N   0  0  0  0  0  0  0  0  0  0  0  0
    6.7640    0.1880   18.8600 C   0  0  0  0  0  0  0  0  0  0  0  0
    8.5750    0.7080   22.1180 N   0  0  0  0  0  0  0  0  0  0  0  0
    9.8310    0.3740   22.6460 C   0  0  0  0  0  0  0  0  0  0  0  0
   10.8730    1.3490   22.7050 C   0  0  0  0  0  0  0  0  0  0  0  0
   12.1490    1.1220   23.1900 C   0  0  0  0  0  0  0  0  0  0  0  0
   12.3280   -0.1200   23.6340 C   0  0  0  0  0  0  0  0  0  0  0  0
   13.2410   -0.8650   24.1760 N   0  0  0  0  0  0  0  0  0  0  0  0
   12.6930   -2.1640   24.4150 C   0  0  0  0  0  0  0  0  0  0  0  0
   13.5670   -3.0020   24.9690 C   0  0  0  0  0  0  0  0  0  0  0  0
   14.1970   -3.2400   23.8260 F   0  0  0  0  0  0  0  0  0  0  0  0
   14.3580   -2.3730   25.8410 F   0  0  0  0  0  0  0  0  0  0  0  0
   11.4340   -2.2800   24.0160 N   0  0  0  0  0  0  0  0  0  0  0  0
   11.1750   -1.0530   23.5310 C   0  0  0  0  0  0  0  0  0  0  0  0
    9.9470   -0.9340   23.0720 C   0  0  0  0  0  0  0  0  0  0  0  0
  1  2  2  0
  2  3  1  0
  3  4  1  0
  4  5  2  0
  5  6  1  0
  6  7  2  0
  7  8  1  0
  4  9  1  0
  8  9  2  0
  2 10  1  0
 10 11  1  0
 11 12  2  0
 12 13  1  0
 13 14  2  0
 14 15  1  0
 15 16  1  0
 16 17  1  0
 17 18  1  0
 17 19  1  0
 16 20  2  0
 14 21  1  0
 20 21  1  0
 11 22  1  0
 21 22  2  0
M  END
