pyridine_urea_283
     RDKit          3D

 27 29  0  0  0  0  0  0  0  0999 V2000
   12.8390   -1.9850   21.1510 C   0  0  0  0  0  0  0  0  0  0  0  0
   13.3140   -1.2710   21.9490 C   0  0  0  0  0  0  0  0  0  0  0  0
   13.4900   -0.3580   23.1290 C   0  0  1  0  0  0  0  0  0  0  0  0
   13.3120    1.0760   22.8810 C   0  0  0  0  0  0  0  0  0  0  0  0
   12.3710   -0.7440   23.6670 N   0  0  0  0  0  0  0  0  0  0  0  0
   12.2430   -1.7420   24.4560 C   0  0  0  0  0  0  0  0  0  0  0  0
   13.2790   -2.6650   24.9240 C   0  0  0  0  0  0  0  0  0  0  0  0
   12.4750   -3.6660   25.1650 F   0  0  0  0  0  0  0  0  0  0  0  0
   14.0680   -3.0110   23.9050 F   0  0  0  0  0  0  0  0  0  0  0  0
   13.9950   -2.3320   26.0170 F   0  0  0  0  0  0  0  0  0  0  0  0
   11.0110   -1.8660   24.7590 N   0  0  0  0  0  0  0  0  0  0  0  0
   10.3450   -0.8930   24.0910 C   0  0  0  0  0  0  0  0  0  0  0  0
    9.0730   -0.6980   24.0820 C   0  0  0  0  0  0  0  0  0  0  0  0
    8.8900    0.4320   23.1430 C   0  0  0  0  0  0  0  0  0  0  0  0
    7.7190    0.8340   22.8250 N   0  0  0  0  0  0  0  0  0  0  0  0
    7.7260    0.7040   21.4840 C   0  0  0  0  0  0  0  0  0  0  0  0
    8.4190    1.4700   20.8300 O   0  0  0  0  0  0  0  0  0  0  0  0
    6.9570   -0.2800   21.0120 N   0  0  0  0  0  0  0  0  0  0  0  0
    6.3020    0.2300   19.9780 C   0  0  0  0  0  0  0  0  0  0  0  0
    5.1060    0.8890   20.1040 C   0  0  0  0  0  0  0  0  0  0  0  0
    4.2210    1.5680   19.0560 C   0  0  0  0  0  0  0  0  0  0  0  0
    5.1170    1.2670   17.8560 C   0  0  0  0  0  0  0  0  0  0  0  0
    6.2800    0.6200   17.7160 N   0  0  0  0  0  0  0  0  0  0  0  0
    6.8500    0.1100   18.7660 C   0  0  0  0  0  0  0  0  0  0  0  0
    9.8560    1.1620   22.4810 C   0  0  0  0  0  0  0  0  0  0  0  0
   11.1090    0.8460   22.6330 C   0  0  0  0  0  0  0  0  0  0  0  0
   11.2960   -0.1720   23.4010 C   0  0  0  0  0  0  0  0  0  0  0  0
  1  2  1  0
  2  3  1  0
  3  4  1  6
  3  5  1  0
  5  6  1  0
  6  7  1  0
  7  8  1  0
  7  9  1  0
  7 10  1  0
  6 11  2  0
 11 12  1  0
 12 13  1  0
 13 14  2  0
 14 15  1  0
 15 16  1  0
 16 17  2  0
 16 18  1  0
 18 19  1  0
 19 20  2  0
 20 21  1  0
 21 22  2  0
 22 23  1  0
 19 24  1  0
 23 24  2  0
 14 25  1  0
 25 26  2  0
  5 27  1  0
 12 27  2  0
 26 27  1  0
M  END
