pyridine_urea_11020
     RDKit          3D

 19 20  0  0  0  0  0  0  0  0999 V2000
    8.3120   -3.8490   23.3320 C   0  0  0  0  0  0  0  0  0  0  0  0
    8.6890   -2.4070   23.1790 C   0  0  0  0  0  0  0  0  0  0  0  0
    9.7890   -2.1180   22.3730 C   0  0  1  0  0  0  0  0  0  0  0  0
    9.3730   -1.1540   21.3490 N   0  0  0  0  0  0  0  0  0  0  0  0
    8.4350   -0.2000   21.3890 C   0  0  0  0  0  0  0  0  0  0  0  0
    8.8350    0.9470   21.5650 O   0  0  0  0  0  0  0  0  0  0  0  0
    7.0510   -0.5800   21.1760 N   0  0  0  0  0  0  0  0  0  0  0  0
    6.4440    0.0310   20.1110 C   0  0  0  0  0  0  0  0  0  0  0  0
    5.1740    0.8090   20.3780 C   0  0  0  0  0  0  0  0  0  0  0  0
    4.4940    1.5150   19.2100 C   0  0  0  0  0  0  0  0  0  0  0  0
    5.1710    1.3700   17.8610 C   0  0  0  0  0  0  0  0  0  0  0  0
    6.3100    0.6350   17.7430 N   0  0  0  0  0  0  0  0  0  0  0  0
    6.9280   -0.0130   18.8120 C   0  0  0  0  0  0  0  0  0  0  0  0
   10.8410   -1.9480   23.2580 C   0  0  0  0  0  0  0  0  0  0  0  0
   11.9890   -2.6480   23.0170 N   0  0  0  0  0  0  0  0  0  0  0  0
   13.1630   -2.5850   23.8550 C   0  0  0  0  0  0  0  0  0  0  0  0
   12.9610   -1.7290   24.9070 C   0  0  0  0  0  0  0  0  0  0  0  0
   11.7540   -1.0590   25.0450 C   0  0  0  0  0  0  0  0  0  0  0  0
   10.6540   -1.1080   24.2790 N   0  0  0  0  0  0  0  0  0  0  0  0
  1  2  1  0
  3  2  1  1
  3  4  1  0
  4  5  1  0
  5  6  2  0
  5  7  1  0
  7  8  1  0
  8  9  2  0
  9 10  1  0
 10 11  2  0
 11 12  1  0
  8 13  1  0
 12 13  2  0
  3 14  1  0
 14 15  2  0
 15 16  1  0
 16 17  2  0
 17 18  1  0
 14 19  1  0
 18 19  2  0
M  END
