pyridine_urea_8623
     RDKit          3D

 21 22  0  0  0  0  0  0  0  0999 V2000
   13.7140   -2.5740   23.7550 C   0  0  0  0  0  0  0  0  0  0  0  0
   13.7240   -1.4200   22.9140 O   0  0  0  0  0  0  0  0  0  0  0  0
   12.5940   -0.7040   23.0220 C   0  0  0  0  0  0  0  0  0  0  0  0
   11.2690   -0.9910   22.5930 C   0  0  0  0  0  0  0  0  0  0  0  0
   11.3070   -2.1170   22.0230 C   0  0  0  0  0  0  0  0  0  0  0  0
    9.9530   -2.1040   21.7840 C   0  0  0  0  0  0  0  0  0  0  0  0
   12.4310   -1.4370   22.5830 C   0  0  0  0  0  0  0  0  0  0  0  0
   11.3950   -0.3620   22.9650 C   0  0  0  0  0  0  0  0  0  0  0  0
   10.7940    0.9160   23.5360 C   0  0  0  0  0  0  0  0  0  0  0  0
    9.4750    0.6880   23.9090 C   0  0  0  0  0  0  0  0  0  0  0  0
    8.7550   -0.1160   22.9150 N   0  0  0  0  0  0  0  0  0  0  0  0
    8.3760    0.3530   21.6800 C   0  0  0  0  0  0  0  0  0  0  0  0
    8.9660    1.4530   21.0980 O   0  0  0  0  0  0  0  0  0  0  0  0
    7.3400   -0.3740   21.1210 N   0  0  0  0  0  0  0  0  0  0  0  0
    6.6050    0.1380   20.0500 C   0  0  0  0  0  0  0  0  0  0  0  0
    5.4380    0.8590   20.2950 C   0  0  0  0  0  0  0  0  0  0  0  0
    4.6630    1.4210   19.2960 C   0  0  0  0  0  0  0  0  0  0  0  0
    5.1200    1.2250   18.0090 C   0  0  0  0  0  0  0  0  0  0  0  0
    6.2340    0.5290   17.7070 N   0  0  0  0  0  0  0  0  0  0  0  0
    6.9590   -0.0050   18.7210 C   0  0  0  0  0  0  0  0  0  0  0  0
   12.5550    0.4360   23.5940 C   0  0  0  0  0  0  0  0  0  0  0  0
  1  2  1  0
  2  3  1  0
  3  4  2  0
  4  5  1  0
  5  6  1  0
  5  7  2  0
  7  8  1  0
  8  9  1  0
  9 10  1  0
 10 11  1  0
 11 12  1  0
 12 13  2  0
 12 14  1  0
 14 15  1  0
 15 16  2  0
 16 17  1  0
 17 18  2  0
 18 19  1  0
 15 20  1  0
 19 20  2  0
  3 21  1  0
  8 21  2  0
M  END
