pyridine_urea_14225
     RDKit          3D

 22 23  0  0  0  0  0  0  0  0999 V2000
   11.4330   -1.2580   22.0390 C   0  0  0  0  0  0  0  0  0  0  0  0
   10.5220   -0.1960   22.6210 C   0  0  0  0  0  0  0  0  0  0  0  0
   10.6730    1.1970   22.5270 C   0  0  0  0  0  0  0  0  0  0  0  0
    9.1510   -0.5050   22.2770 N   0  0  0  0  0  0  0  0  0  0  0  0
    8.2970    0.0750   21.4270 C   0  0  0  0  0  0  0  0  0  0  0  0
    8.6040    1.2070   21.0190 O   0  0  0  0  0  0  0  0  0  0  0  0
    7.1010   -0.6380   21.0420 N   0  0  0  0  0  0  0  0  0  0  0  0
    6.4610   -0.0030   20.0270 C   0  0  0  0  0  0  0  0  0  0  0  0
    5.1750    0.7370   20.3280 C   0  0  0  0  0  0  0  0  0  0  0  0
    4.4800    1.4710   19.1880 C   0  0  0  0  0  0  0  0  0  0  0  0
    5.1590    1.3860   17.8350 C   0  0  0  0  0  0  0  0  0  0  0  0
    6.3100    0.6800   17.6940 N   0  0  0  0  0  0  0  0  0  0  0  0
    6.9380    0.0090   18.7340 C   0  0  0  0  0  0  0  0  0  0  0  0
   10.6240   -0.3940   24.0930 C   0  0  0  0  0  0  0  0  0  0  0  0
    9.6600   -0.5070   24.8190 C   0  0  0  0  0  0  0  0  0  0  0  0
   11.0410   -0.5400   25.2380 C   0  0  0  0  0  0  0  0  0  0  0  0
   11.5860   -0.3390   23.7870 C   0  0  0  0  0  0  0  0  0  0  0  0
   12.4820   -0.1890   22.7700 N   0  0  0  0  0  0  0  0  0  0  0  0
   13.2690   -1.3090   22.4750 O   0  0  0  0  0  0  0  0  0  0  0  0
   12.9260    0.9600   22.6710 O   0  0  0  0  0  0  0  0  0  0  0  0
   12.8260   -0.3910   24.3740 C   0  0  0  0  0  0  0  0  0  0  0  0
   11.7180   -0.4840   24.9670 C   0  0  0  0  0  0  0  0  0  0  0  0
  1  2  1  0
  2  3  1  0
  2  4  1  0
  4  5  1  0
  5  6  2  0
  5  7  1  0
  7  8  1  0
  8  9  2  0
  9 10  1  0
 10 11  2  0
 11 12  1  0
  8 13  1  0
 12 13  2  0
  2 14  1  0
 14 15  2  0
 15 16  1  0
 16 17  2  0
 17 18  1  0
 18 19  2  0
 18 20  1  0
 17 21  1  0
 14 22  1  0
 21 22  2  0
M  CHG  2  18   1  20  -1
M  END
