pyridine_urea_8609
     RDKit          3D

 21 23  0  0  0  0  0  0  0  0999 V2000
    8.6330    0.7670   21.2910 O   0  0  0  0  0  0  0  0  0  0  0  0
    8.0420   -0.2310   21.6860 C   0  0  0  0  0  0  0  0  0  0  0  0
    6.8950   -0.7060   21.1300 N   0  0  0  0  0  0  0  0  0  0  0  0
    6.3140   -0.0540   20.0390 C   0  0  0  0  0  0  0  0  0  0  0  0
    5.1170    0.6370   20.2230 C   0  0  0  0  0  0  0  0  0  0  0  0
    4.5330    1.3120   19.1500 C   0  0  0  0  0  0  0  0  0  0  0  0
    5.1730    1.2720   17.9310 C   0  0  0  0  0  0  0  0  0  0  0  0
    6.3210    0.6080   17.7300 N   0  0  0  0  0  0  0  0  0  0  0  0
    6.8650   -0.0400   18.7750 C   0  0  0  0  0  0  0  0  0  0  0  0
    8.5370   -0.9240   22.7620 N   0  0  0  0  0  0  0  0  0  0  0  0
    9.7770   -0.2930   23.0510 C   0  0  0  0  0  0  0  0  0  0  0  0
    9.9200    0.9380   23.9160 C   0  0  0  0  0  0  0  0  0  0  0  0
   11.1780    1.4930   24.0760 C   0  0  0  0  0  0  0  0  0  0  0  0
   12.3020    0.9570   23.4810 C   0  0  0  0  0  0  0  0  0  0  0  0
   12.2170   -0.1640   22.6930 C   0  0  0  0  0  0  0  0  0  0  0  0
   13.3240   -0.6670   22.0980 C   0  0  0  0  0  0  0  0  0  0  0  0
   13.2660   -1.7870   21.2650 C   0  0  0  0  0  0  0  0  0  0  0  0
   12.0790   -2.3910   21.0720 C   0  0  0  0  0  0  0  0  0  0  0  0
   10.9670   -1.9000   21.6720 C   0  0  0  0  0  0  0  0  0  0  0  0
    9.7150   -2.5180   21.4630 O   0  0  0  0  0  0  0  0  0  0  0  0
   11.0380   -0.8020   22.4590 C   0  0  0  0  0  0  0  0  0  0  0  0
  1  2  2  0
  2  3  1  0
  3  4  1  0
  4  5  2  0
  5  6  1  0
  6  7  2  0
  7  8  1  0
  4  9  1  0
  8  9  2  0
  2 10  1  0
 10 11  1  0
 11 12  2  0
 12 13  1  0
 13 14  2  0
 14 15  1  0
 15 16  1  0
 16 17  2  0
 17 18  1  0
 18 19  2  0
 19 20  1  0
 11 21  1  0
 15 21  2  0
 19 21  1  0
M  END
