pyridine_urea_5560
     RDKit          3D

 17 17  0  0  0  0  0  0  0  0999 V2000
    9.3990   -0.0640   27.2110 C   0  0  0  0  0  0  0  0  0  0  0  0
   10.2460   -0.4120   26.1250 O   0  0  0  0  0  0  0  0  0  0  0  0
    9.5230   -0.3710   24.8990 C   0  0  0  0  0  0  0  0  0  0  0  0
   10.5050    0.1270   23.7690 C   0  0  2  0  0  0  0  0  0  0  0  0
   11.8510    0.4130   24.0300 C   0  0  0  0  0  0  0  0  0  0  0  0
    9.9030    1.2760   23.1720 O   0  0  0  0  0  0  0  0  0  0  0  0
   10.5090   -0.9790   22.6940 C   0  0  0  0  0  0  0  0  0  0  0  0
    9.2500   -1.1950   22.1590 N   0  0  0  0  0  0  0  0  0  0  0  0
    8.4740   -0.2240   21.5160 C   0  0  0  0  0  0  0  0  0  0  0  0
    8.8810    0.9130   21.3180 O   0  0  0  0  0  0  0  0  0  0  0  0
    7.2090   -0.6870   21.1200 N   0  0  0  0  0  0  0  0  0  0  0  0
    6.5050   -0.0120   20.0200 C   0  0  0  0  0  0  0  0  0  0  0  0
    5.2250    0.7250   20.4660 C   0  0  0  0  0  0  0  0  0  0  0  0
    4.5420    1.4380   19.2910 C   0  0  0  0  0  0  0  0  0  0  0  0
    5.1550    1.3500   17.9100 C   0  0  0  0  0  0  0  0  0  0  0  0
    6.2910    0.6420   17.6860 N   0  0  0  0  0  0  0  0  0  0  0  0
    6.9430   -0.0190   18.7100 C   0  0  0  0  0  0  0  0  0  0  0  0
  1  2  1  0
  2  3  1  0
  3  4  1  0
  4  5  1  1
  4  6  1  0
  4  7  1  0
  7  8  1  0
  8  9  1  0
  9 10  2  0
  9 11  1  0
 11 12  1  0
 12 13  2  0
 13 14  1  0
 14 15  2  0
 15 16  1  0
 12 17  1  0
 16 17  2  0
M  END
