pyridine_urea_14284
     RDKit          3D

 22 23  0  0  0  0  0  0  0  0999 V2000
   13.2240   -1.8630   22.0200 C   0  0  0  0  0  0  0  0  0  0  0  0
   13.2540   -1.7680   23.5380 C   0  0  0  0  0  0  0  0  0  0  0  0
   13.8090   -2.7530   24.2920 C   0  0  0  0  0  0  0  0  0  0  0  0
   13.5670   -0.6380   23.8530 O   0  0  0  0  0  0  0  0  0  0  0  0
   12.3700   -0.2540   23.6430 C   0  0  0  0  0  0  0  0  0  0  0  0
   12.0100    1.0620   23.6790 C   0  0  0  0  0  0  0  0  0  0  0  0
   10.6020    1.4450   23.4220 C   0  0  0  0  0  0  0  0  0  0  0  0
    9.6350    0.3020   23.1140 C   0  0  0  0  0  0  0  0  0  0  0  0
    8.3130    0.3720   22.8180 N   0  0  0  0  0  0  0  0  0  0  0  0
    8.0490    0.6170   21.5270 C   0  0  0  0  0  0  0  0  0  0  0  0
    8.6530    1.4970   20.9240 O   0  0  0  0  0  0  0  0  0  0  0  0
    7.0270   -0.2450   21.0040 N   0  0  0  0  0  0  0  0  0  0  0  0
    6.3570    0.2650   19.9790 C   0  0  0  0  0  0  0  0  0  0  0  0
    5.1680    0.9530   20.1410 C   0  0  0  0  0  0  0  0  0  0  0  0
    4.5200    1.5060   19.0540 C   0  0  0  0  0  0  0  0  0  0  0  0
    5.1060    1.3430   17.8170 C   0  0  0  0  0  0  0  0  0  0  0  0
    6.2490    0.6700   17.6070 N   0  0  0  0  0  0  0  0  0  0  0  0
    6.8690    0.1280   18.7230 C   0  0  0  0  0  0  0  0  0  0  0  0
   10.1770   -0.9190   23.1250 C   0  0  0  0  0  0  0  0  0  0  0  0
   11.4370   -1.2160   23.3720 C   0  0  0  0  0  0  0  0  0  0  0  0
   11.7240   -2.5670   23.3430 C   0  0  0  0  0  0  0  0  0  0  0  0
   11.0910   -3.3920   24.1890 N   0  0  0  0  0  0  0  0  0  0  0  0
  1  2  1  0
  2  3  1  0
  2  4  1  0
  4  5  1  0
  5  6  2  0
  6  7  1  0
  7  8  2  0
  8  9  1  0
  9 10  1  0
 10 11  2  0
 10 12  1  0
 12 13  1  0
 13 14  2  0
 14 15  1  0
 15 16  2  0
 16 17  1  0
 13 18  1  0
 17 18  2  0
  8 19  1  0
  5 20  1  0
 19 20  2  0
 20 21  1  0
 21 22  3  0
M  END
