pyridine_urea_13872
     RDKit          3D

 24 26  0  0  0  0  0  0  0  0999 V2000
    8.1790    1.0550   20.9990 O   0  0  0  0  0  0  0  0  0  0  0  0
    7.9230   -0.1110   21.2900 C   0  0  0  0  0  0  0  0  0  0  0  0
    8.7530   -0.8420   22.0490 N   0  0  0  0  0  0  0  0  0  0  0  0
   10.0170   -0.1930   22.0320 C   0  0  0  0  0  0  0  0  0  0  0  0
   10.4260    0.3820   23.3440 C   0  0  0  0  0  0  0  0  0  0  0  0
    9.3180    0.5290   24.3650 C   0  0  0  0  0  0  0  0  0  0  0  0
    8.4750   -0.5300   24.6620 N   0  0  0  0  0  0  0  0  0  0  0  0
    7.2640    0.0030   24.7000 C   0  0  0  0  0  0  0  0  0  0  0  0
    7.2180    0.8060   26.0270 C   0  0  0  0  0  0  0  0  0  0  0  0
    7.5480   -0.0100   27.0670 O   0  0  0  0  0  0  0  0  0  0  0  0
    8.7730   -0.7080   26.8510 C   0  0  0  0  0  0  0  0  0  0  0  0
    8.6730   -1.5010   25.7720 C   0  0  0  0  0  0  0  0  0  0  0  0
   10.9140   -0.7280   24.1500 C   0  0  0  0  0  0  0  0  0  0  0  0
   11.5270   -1.1320   22.9360 C   0  0  0  0  0  0  0  0  0  0  0  0
   12.7750   -0.5960   22.6860 C   0  0  0  0  0  0  0  0  0  0  0  0
   12.8700    0.6650   23.1940 C   0  0  0  0  0  0  0  0  0  0  0  0
   11.5770    1.4430   23.3220 C   0  0  0  0  0  0  0  0  0  0  0  0
    6.8030   -0.7270   20.8390 N   0  0  0  0  0  0  0  0  0  0  0  0
    6.1640   -0.0260   19.9140 C   0  0  0  0  0  0  0  0  0  0  0  0
    4.8650    0.6850   20.0780 C   0  0  0  0  0  0  0  0  0  0  0  0
    4.3770    1.3950   18.9860 C   0  0  0  0  0  0  0  0  0  0  0  0
    5.1240    1.4020   17.8080 C   0  0  0  0  0  0  0  0  0  0  0  0
    6.2930    0.7540   17.6510 N   0  0  0  0  0  0  0  0  0  0  0  0
    6.7790    0.0660   18.6890 C   0  0  0  0  0  0  0  0  0  0  0  0
  1  2  2  0
  2  3  1  0
  3  4  1  0
  5  4  1  0
  5  6  1  0
  6  7  1  0
  7  8  1  0
  8  9  1  0
  9 10  1  0
 10 11  1  0
  7 12  1  0
 11 12  1  0
  5 13  1  0
 13 14  1  0
 14 15  1  0
 15 16  1  0
  5 17  1  0
 16 17  1  0
  2 18  1  0
 18 19  1  0
 19 20  2  0
 20 21  1  0
 21 22  2  0
 22 23  1  0
 19 24  1  0
 23 24  2  0
M  END
