pyridine_urea_10127
     RDKit          3D

 23 25  0  0  0  0  0  0  0  0999 V2000
    6.0420    1.3240   17.5080 C   0  0  0  0  0  0  0  0  0  0  0  0
    5.5980    0.2400   18.1220 N   0  0  0  0  0  0  0  0  0  0  0  0
    6.4260   -0.5450   18.8770 C   0  0  0  0  0  0  0  0  0  0  0  0
    7.6090   -1.1900   18.4590 O   0  0  0  0  0  0  0  0  0  0  0  0
    6.0530   -0.7400   20.2090 C   0  0  1  0  0  0  0  0  0  0  0  0
    7.1080   -1.1550   20.9910 N   0  0  0  0  0  0  0  0  0  0  0  0
    8.1970   -0.3370   21.5110 C   0  0  0  0  0  0  0  0  0  0  0  0
    8.4860    0.8100   21.1540 O   0  0  0  0  0  0  0  0  0  0  0  0
    8.9850   -0.9760   22.5390 N   0  0  0  0  0  0  0  0  0  0  0  0
   10.2850   -0.5960   22.6590 C   0  0  0  0  0  0  0  0  0  0  0  0
   10.6390    0.6600   22.9520 C   0  0  0  0  0  0  0  0  0  0  0  0
   12.1670    0.9920   23.0630 C   0  0  0  0  0  0  0  0  0  0  0  0
   13.3550    0.1750   22.9080 C   0  0  0  0  0  0  0  0  0  0  0  0
   12.7750   -1.0510   22.6150 N   0  0  0  0  0  0  0  0  0  0  0  0
   11.4840   -1.1670   22.5570 C   0  0  0  0  0  0  0  0  0  0  0  0
    5.1870    0.4250   20.6680 C   0  0  0  0  0  0  0  0  0  0  0  0
    4.0280    0.6690   20.2300 O   0  0  0  0  0  0  0  0  0  0  0  0
    4.0760    1.3820   18.9860 C   0  0  0  0  0  0  0  0  0  0  0  0
    3.1190    1.7260   20.1320 C   0  0  0  0  0  0  0  0  0  0  0  0
    2.2810    2.7090   20.0760 C   0  0  0  0  0  0  0  0  0  0  0  0
    3.0650    2.5320   18.9980 C   0  0  0  0  0  0  0  0  0  0  0  0
    3.7750    1.3120   19.6140 C   0  0  0  0  0  0  0  0  0  0  0  0
    4.8190    0.4120   19.1800 C   0  0  0  0  0  0  0  0  0  0  0  0
  1  2  1  0
  2  3  1  0
  3  4  2  0
  3  5  1  0
  5  6  1  1
  6  7  1  0
  7  8  2  0
  7  9  1  0
  9 10  1  0
 10 11  2  0
 11 12  1  0
 12 13  2  0
 13 14  1  0
 10 15  1  0
 14 15  2  0
  5 16  1  0
 16 17  1  0
 17 18  1  0
 18 19  2  0
 19 20  1  0
 20 21  2  0
 21 22  1  0
  2 23  1  0
 18 23  1  0
 22 23  2  0
M  END
