pyridine_urea_9750
     RDKit          3D

 27 29  0  0  0  0  0  0  0  0999 V2000
    8.6120    0.2890   21.1300 O   0  0  0  0  0  0  0  0  0  0  0  0
    8.1620   -0.8340   21.3120 C   0  0  0  0  0  0  0  0  0  0  0  0
    6.8850   -1.1610   20.9550 N   0  0  0  0  0  0  0  0  0  0  0  0
    6.3100   -0.2990   19.9570 C   0  0  0  0  0  0  0  0  0  0  0  0
    5.0530    0.4830   20.3260 C   0  0  0  0  0  0  0  0  0  0  0  0
    4.4570    1.3980   19.2580 C   0  0  0  0  0  0  0  0  0  0  0  0
    5.1990    1.4250   17.9210 C   0  0  0  0  0  0  0  0  0  0  0  0
    6.3440    0.6400   17.7450 N   0  0  0  0  0  0  0  0  0  0  0  0
    6.8680   -0.1760   18.7100 C   0  0  0  0  0  0  0  0  0  0  0  0
    8.8820   -1.8510   21.9160 N   0  0  0  0  0  0  0  0  0  0  0  0
    9.7660   -1.2490   22.7770 C   0  0  0  0  0  0  0  0  0  0  0  0
    9.3490   -0.6550   23.9170 C   0  0  0  0  0  0  0  0  0  0  0  0
   10.1300   -0.0150   24.8020 C   0  0  0  0  0  0  0  0  0  0  0  0
    9.2470    0.5350   26.1890 Cl  0  0  0  0  0  0  0  0  0  0  0  0
   11.4940    0.1010   24.5090 C   0  0  0  0  0  0  0  0  0  0  0  0
   11.9810   -0.4980   23.3790 C   0  0  0  0  0  0  0  0  0  0  0  0
   11.1230   -1.2000   22.5350 C   0  0  0  0  0  0  0  0  0  0  0  0
   11.7200   -1.7890   21.5350 N   0  0  0  0  0  0  0  0  0  0  0  0
   13.1210   -1.0090   21.9040 S   0  0  0  0  0  0  0  0  0  0  0  0
   13.8550   -1.5440   22.9480 O   0  0  0  0  0  0  0  0  0  0  0  0
   13.7780   -0.9510   20.6220 O   0  0  0  0  0  0  0  0  0  0  0  0
   12.4040    0.6390   22.4080 C   0  0  0  0  0  0  0  0  0  0  0  0
   13.2050    1.6600   22.7220 C   0  0  0  0  0  0  0  0  0  0  0  0
   12.5450    2.9420   22.9520 C   0  0  0  0  0  0  0  0  0  0  0  0
   11.1780    2.7850   22.8000 C   0  0  0  0  0  0  0  0  0  0  0  0
   10.0870    4.1280   22.8940 Cl  0  0  0  0  0  0  0  0  0  0  0  0
   10.7150    1.1560   22.4820 S   0  0  0  0  0  0  0  0  0  0  0  0
  1  2  2  0
  2  3  1  0
  3  4  1  0
  4  5  2  0
  5  6  1  0
  6  7  2  0
  7  8  1  0
  4  9  1  0
  8  9  2  0
  2 10  1  0
 10 11  1  0
 11 12  2  0
 12 13  1  0
 13 14  1  0
 13 15  2  0
 15 16  1  0
 11 17  1  0
 16 17  2  0
 17 18  1  0
 19 18  1  0
 19 20  2  0
 19 21  2  0
 19 22  1  0
 22 23  2  0
 23 24  1  0
 24 25  2  0
 25 26  1  0
 22 27  1  0
 25 27  1  0
M  END
