pyridine_urea_5431
     RDKit          3D

 18 19  0  0  0  0  0  0  0  0999 V2000
    8.7570    1.1970   21.1210 O   0  0  0  0  0  0  0  0  0  0  0  0
    8.2950    0.1500   21.6010 C   0  0  0  0  0  0  0  0  0  0  0  0
    7.2690   -0.5710   21.0280 N   0  0  0  0  0  0  0  0  0  0  0  0
    6.5230    0.0890   19.9940 C   0  0  0  0  0  0  0  0  0  0  0  0
    5.2200    0.8670   20.3560 C   0  0  0  0  0  0  0  0  0  0  0  0
    4.5540    1.4970   19.3130 C   0  0  0  0  0  0  0  0  0  0  0  0
    5.1720    1.3600   17.9180 C   0  0  0  0  0  0  0  0  0  0  0  0
    6.3000    0.6650   17.6660 N   0  0  0  0  0  0  0  0  0  0  0  0
    6.9350    0.0580   18.6870 C   0  0  0  0  0  0  0  0  0  0  0  0
    8.6890   -0.4650   22.7590 N   0  0  0  0  0  0  0  0  0  0  0  0
   10.0960   -0.4750   23.0970 C   0  0  0  0  0  0  0  0  0  0  0  0
   10.8880    0.6700   22.5470 C   0  0  0  0  0  0  0  0  0  0  0  0
   12.3750    0.7130   22.8510 C   0  0  0  0  0  0  0  0  0  0  0  0
   12.9560   -0.3950   23.6940 C   0  0  0  0  0  0  0  0  0  0  0  0
   12.0850   -1.5070   24.2220 C   0  0  0  0  0  0  0  0  0  0  0  0
   12.5830   -2.5000   24.9770 F   0  0  0  0  0  0  0  0  0  0  0  0
   10.6230   -1.4770   23.8680 C   0  0  0  0  0  0  0  0  0  0  0  0
    9.8170   -2.3220   24.2250 O   0  0  0  0  0  0  0  0  0  0  0  0
  1  2  2  0
  2  3  1  0
  3  4  1  0
  4  5  2  0
  5  6  1  0
  6  7  2  0
  7  8  1  0
  4  9  1  0
  8  9  2  0
  2 10  1  0
 10 11  1  0
 11 12  2  0
 12 13  1  0
 13 14  2  0
 14 15  1  0
 15 16  1  0
 11 17  1  0
 15 17  2  0
 17 18  1  0
M  END
