pyridine_urea_11370
     RDKit          3D

 19 21  0  0  0  0  0  0  0  0999 V2000
   13.0190   -1.1400   22.2330 C   0  0  0  0  0  0  0  0  0  0  0  0
   11.9560   -0.9310   23.1650 O   0  0  0  0  0  0  0  0  0  0  0  0
   10.7340   -1.5310   22.7350 C   0  0  1  0  0  0  0  0  0  0  0  0
    9.5340   -1.6590   23.7180 C   0  0  1  0  0  0  0  0  0  0  0  0
    9.4080   -1.2010   25.1530 C   0  0  0  0  0  0  0  0  0  0  0  0
    8.3960   -0.3370   25.1560 C   0  0  0  0  0  0  0  0  0  0  0  0
    8.2220    0.2160   23.7780 C   0  0  0  0  0  0  0  0  0  0  0  0
    8.7520   -0.7750   22.8100 C   0  0  1  0  0  0  0  0  0  0  0  0
    9.7410   -0.5430   21.9880 C   0  0  2  0  0  0  0  0  0  0  0  0
    9.0460   -1.0210   20.9230 N   0  0  0  0  0  0  0  0  0  0  0  0
    8.0230   -0.1600   20.9030 C   0  0  0  0  0  0  0  0  0  0  0  0
    8.2470    1.0390   21.0230 O   0  0  0  0  0  0  0  0  0  0  0  0
    6.8070   -0.7110   20.7370 N   0  0  0  0  0  0  0  0  0  0  0  0
    6.1180    0.0590   19.7560 C   0  0  0  0  0  0  0  0  0  0  0  0
    4.8740    0.5700   20.0680 C   0  0  0  0  0  0  0  0  0  0  0  0
    4.2860    1.3370   19.0830 C   0  0  0  0  0  0  0  0  0  0  0  0
    5.0350    1.5460   17.7860 C   0  0  0  0  0  0  0  0  0  0  0  0
    6.2390    1.0200   17.5250 N   0  0  0  0  0  0  0  0  0  0  0  0
    6.7680    0.2910   18.4950 C   0  0  0  0  0  0  0  0  0  0  0  0
  1  2  1  0
  3  2  1  1
  3  4  1  0
  4  5  1  1
  5  6  1  0
  6  7  1  0
  4  8  1  0
  8  7  1  1
  3  9  1  0
  8  9  1  0
  9 10  1  6
 10 11  1  0
 11 12  2  0
 11 13  1  0
 13 14  1  0
 14 15  2  0
 15 16  1  0
 16 17  2  0
 17 18  1  0
 14 19  1  0
 18 19  2  0
M  END
