pyridine_urea_5382
     RDKit          3D

 19 20  0  0  0  0  0  0  0  0999 V2000
    8.9160    0.2690   21.2690 O   0  0  0  0  0  0  0  0  0  0  0  0
    8.1780   -0.6890   21.4230 C   0  0  0  0  0  0  0  0  0  0  0  0
    8.5450   -1.8990   21.9840 N   0  0  0  0  0  0  0  0  0  0  0  0
    9.2050   -2.0170   23.2690 C   0  0  0  0  0  0  0  0  0  0  0  0
   10.7250   -1.8330   23.1370 C   0  0  0  0  0  0  0  0  0  0  0  0
    9.8680   -0.6570   23.1630 C   0  0  0  0  0  0  0  0  0  0  0  0
    9.6990    0.9280   23.1030 C   0  0  0  0  0  0  0  0  0  0  0  0
   11.0120    1.2450   22.9620 C   0  0  0  0  0  0  0  0  0  0  0  0
   11.3180    2.9540   22.8350 Cl  0  0  0  0  0  0  0  0  0  0  0  0
   12.1190    0.3090   22.9210 C   0  0  0  0  0  0  0  0  0  0  0  0
   13.6310    0.8390   22.7760 Cl  0  0  0  0  0  0  0  0  0  0  0  0
   12.0440   -1.1090   22.9960 C   0  0  0  0  0  0  0  0  0  0  0  0
    6.8630   -0.7440   21.0680 N   0  0  0  0  0  0  0  0  0  0  0  0
    6.3340   -0.0550   20.0220 C   0  0  0  0  0  0  0  0  0  0  0  0
    5.0560    0.7270   20.3460 C   0  0  0  0  0  0  0  0  0  0  0  0
    4.4650    1.5120   19.1750 C   0  0  0  0  0  0  0  0  0  0  0  0
    5.2110    1.4190   17.8590 C   0  0  0  0  0  0  0  0  0  0  0  0
    6.3520    0.6730   17.7110 N   0  0  0  0  0  0  0  0  0  0  0  0
    6.9010   -0.0490   18.7610 C   0  0  0  0  0  0  0  0  0  0  0  0
  1  2  2  0
  2  3  1  0
  3  4  1  0
  4  5  1  0
  5  6  2  0
  6  7  1  0
  7  8  2  0
  8  9  1  0
  8 10  1  0
 10 11  1  0
  5 12  1  0
 10 12  2  0
  2 13  1  0
 13 14  1  0
 14 15  2  0
 15 16  1  0
 16 17  2  0
 17 18  1  0
 14 19  1  0
 18 19  2  0
M  END
