pyridine_urea_3082
     RDKit          3D

 21 23  0  0  0  0  0  0  0  0999 V2000
   13.3220   -2.0320   21.2150 C   0  0  0  0  0  0  0  0  0  0  0  0
   13.2900   -2.7690   22.5230 C   0  0  0  0  0  0  0  0  0  0  0  0
   12.9460   -1.9240   23.5340 N   0  0  0  0  0  0  0  0  0  0  0  0
   13.4660   -1.6180   24.7990 C   0  0  0  0  0  0  0  0  0  0  0  0
   12.6110   -0.6760   25.2980 C   0  0  0  0  0  0  0  0  0  0  0  0
   11.5690   -0.4130   24.4200 C   0  0  0  0  0  0  0  0  0  0  0  0
   10.3360    0.3820   24.2830 C   0  0  0  0  0  0  0  0  0  0  0  0
    9.6670    0.1490   23.0550 C   0  0  0  0  0  0  0  0  0  0  0  0
    8.4650    0.8390   22.8890 N   0  0  0  0  0  0  0  0  0  0  0  0
    8.1460    0.8830   21.5670 C   0  0  0  0  0  0  0  0  0  0  0  0
    8.6790    1.7310   20.8770 O   0  0  0  0  0  0  0  0  0  0  0  0
    7.2600   -0.0700   21.1790 N   0  0  0  0  0  0  0  0  0  0  0  0
    6.5090    0.3630   20.1580 C   0  0  0  0  0  0  0  0  0  0  0  0
    5.3440    1.0880   20.3000 C   0  0  0  0  0  0  0  0  0  0  0  0
    4.6340    1.5200   19.1940 C   0  0  0  0  0  0  0  0  0  0  0  0
    5.1390    1.1950   17.9420 C   0  0  0  0  0  0  0  0  0  0  0  0
    6.2590    0.4850   17.7550 N   0  0  0  0  0  0  0  0  0  0  0  0
    6.9150    0.0840   18.8600 C   0  0  0  0  0  0  0  0  0  0  0  0
   10.0330   -0.7320   21.8910 C   0  0  0  0  0  0  0  0  0  0  0  0
   11.1920   -1.3640   22.2020 C   0  0  0  0  0  0  0  0  0  0  0  0
   11.8170   -1.1760   23.3610 C   0  0  0  0  0  0  0  0  0  0  0  0
  1  2  1  0
  2  3  1  0
  3  4  1  0
  4  5  2  0
  5  6  1  0
  6  7  1  0
  7  8  2  0
  8  9  1  0
  9 10  1  0
 10 11  2  0
 10 12  1  0
 12 13  1  0
 13 14  2  0
 14 15  1  0
 15 16  2  0
 16 17  1  0
 13 18  1  0
 17 18  2  0
  8 19  1  0
 19 20  2  0
  3 21  1  0
  6 21  2  0
 20 21  1  0
M  END
