pyridine_urea_13201
     RDKit          3D

 17 17  0  0  0  0  0  0  0  0999 V2000
   12.4040    0.5850   23.2210 C   0  0  0  0  0  0  0  0  0  0  0  0
   10.9350    0.3940   22.9330 C   0  0  0  0  0  0  0  0  0  0  0  0
   10.5230   -0.8140   22.4160 C   0  0  2  0  0  0  0  0  0  0  0  0
    9.0700   -0.8590   22.3980 N   0  0  0  0  0  0  0  0  0  0  0  0
    8.4310   -0.0020   21.5190 C   0  0  0  0  0  0  0  0  0  0  0  0
    8.8670    1.1170   21.2070 O   0  0  0  0  0  0  0  0  0  0  0  0
    7.1840   -0.6070   21.0390 N   0  0  0  0  0  0  0  0  0  0  0  0
    6.4920    0.0330   20.0450 C   0  0  0  0  0  0  0  0  0  0  0  0
    5.2230    0.7970   20.3940 C   0  0  0  0  0  0  0  0  0  0  0  0
    4.5710    1.4390   19.3480 C   0  0  0  0  0  0  0  0  0  0  0  0
    5.1900    1.3180   17.9480 C   0  0  0  0  0  0  0  0  0  0  0  0
    6.3130    0.6210   17.7060 N   0  0  0  0  0  0  0  0  0  0  0  0
    6.9250    0.0050   18.7350 C   0  0  0  0  0  0  0  0  0  0  0  0
   11.0410   -1.9530   23.0140 C   0  0  0  0  0  0  0  0  0  0  0  0
   10.2890   -2.8550   23.7250 O   0  0  0  0  0  0  0  0  0  0  0  0
   12.3790   -2.0150   22.7890 O   0  0  0  0  0  0  0  0  0  0  0  0
   12.8820   -2.0500   21.4310 C   0  0  0  0  0  0  0  0  0  0  0  0
  1  2  1  0
  3  2  1  1
  3  4  1  0
  4  5  1  0
  5  6  2  0
  5  7  1  0
  7  8  1  0
  8  9  2  0
  9 10  1  0
 10 11  2  0
 11 12  1  0
  8 13  1  0
 12 13  2  0
  3 14  1  0
 14 15  2  0
 14 16  1  0
 16 17  1  0
M  END
