pyridine_urea_12859
     RDKit          3D

 19 20  0  0  0  0  0  0  0  0999 V2000
    9.0300    1.2030   21.2380 O   0  0  0  0  0  0  0  0  0  0  0  0
    8.4850    0.1310   21.5350 C   0  0  0  0  0  0  0  0  0  0  0  0
    8.9860   -0.7060   22.4920 N   0  0  0  0  0  0  0  0  0  0  0  0
   10.4130   -0.7290   22.7270 C   0  0  0  0  0  0  0  0  0  0  0  0
   10.7750   -0.1500   24.1110 C   0  0  0  0  0  0  0  0  0  0  0  0
   11.1790   -1.0480   25.0440 N   0  0  0  0  0  0  0  0  0  0  0  0
   12.5000   -1.2990   24.7230 C   0  0  0  0  0  0  0  0  0  0  0  0
   13.1800   -2.5110   24.7130 C   0  0  0  0  0  0  0  0  0  0  0  0
   12.5820   -3.3060   25.4210 O   0  0  0  0  0  0  0  0  0  0  0  0
   11.1620   -3.3930   25.3080 C   0  0  0  0  0  0  0  0  0  0  0  0
   10.4220   -2.2300   25.1990 C   0  0  0  0  0  0  0  0  0  0  0  0
    9.2010   -2.1980   25.2300 O   0  0  0  0  0  0  0  0  0  0  0  0
    7.3250   -0.3690   20.9980 N   0  0  0  0  0  0  0  0  0  0  0  0
    6.5930    0.1690   20.0090 C   0  0  0  0  0  0  0  0  0  0  0  0
    5.4390    0.8710   20.3240 C   0  0  0  0  0  0  0  0  0  0  0  0
    4.6900    1.4500   19.2990 C   0  0  0  0  0  0  0  0  0  0  0  0
    5.1390    1.2940   17.9860 C   0  0  0  0  0  0  0  0  0  0  0  0
    6.2420    0.6110   17.6730 N   0  0  0  0  0  0  0  0  0  0  0  0
    6.9380    0.0680   18.6830 C   0  0  0  0  0  0  0  0  0  0  0  0
  1  2  2  0
  2  3  1  0
  3  4  1  0
  4  5  1  0
  5  6  1  0
  6  7  1  0
  7  8  1  0
  8  9  1  0
  9 10  1  0
  6 11  1  0
 10 11  1  0
 11 12  2  0
  2 13  1  0
 13 14  1  0
 14 15  2  0
 15 16  1  0
 16 17  2  0
 17 18  1  0
 14 19  1  0
 18 19  2  0
M  END
