pyridine_urea_4994
     RDKit          3D

 21 22  0  0  0  0  0  0  0  0999 V2000
   13.4590   -2.9890   23.7180 C   0  0  0  0  0  0  0  0  0  0  0  0
   13.2720   -1.7220   23.4710 N   0  0  0  0  0  0  0  0  0  0  0  0
   12.8990   -0.8120   24.4760 C   0  0  0  0  0  0  0  0  0  0  0  0
   12.3110   -1.5750   22.3670 C   0  0  0  0  0  0  0  0  0  0  0  0
   12.0980   -2.3340   21.4120 O   0  0  0  0  0  0  0  0  0  0  0  0
   11.7200   -0.4030   22.6130 C   0  0  0  0  0  0  0  0  0  0  0  0
   12.6900    0.5020   22.9060 C   0  0  0  0  0  0  0  0  0  0  0  0
   12.3610    1.9010   23.2700 C   0  0  0  0  0  0  0  0  0  0  0  0
   11.0560    2.2910   23.3220 C   0  0  0  0  0  0  0  0  0  0  0  0
    9.9870    1.2570   22.9720 C   0  0  0  0  0  0  0  0  0  0  0  0
   10.3590   -0.0360   22.6210 C   0  0  0  0  0  0  0  0  0  0  0  0
    9.2430   -0.7740   22.3080 N   0  0  0  0  0  0  0  0  0  0  0  0
    8.3470   -0.1050   21.4260 C   0  0  0  0  0  0  0  0  0  0  0  0
    8.6390    1.1870   21.0160 O   0  0  0  0  0  0  0  0  0  0  0  0
    7.2480   -0.7950   21.0520 N   0  0  0  0  0  0  0  0  0  0  0  0
    6.5110   -0.1220   20.1240 C   0  0  0  0  0  0  0  0  0  0  0  0
    5.3270    0.5860   20.3840 C   0  0  0  0  0  0  0  0  0  0  0  0
    4.6650    1.2510   19.3400 C   0  0  0  0  0  0  0  0  0  0  0  0
    5.2180    1.1840   18.0750 C   0  0  0  0  0  0  0  0  0  0  0  0
    6.3470    0.5110   17.7930 N   0  0  0  0  0  0  0  0  0  0  0  0
    6.9640   -0.1240   18.8080 C   0  0  0  0  0  0  0  0  0  0  0  0
  1  2  1  0
  2  3  1  0
  2  4  1  0
  4  5  2  0
  4  6  1  0
  6  7  2  0
  7  8  1  0
  8  9  2  0
  9 10  1  0
  6 11  1  0
 10 11  2  0
 11 12  1  0
 12 13  1  0
 13 14  2  0
 13 15  1  0
 15 16  1  0
 16 17  2  0
 17 18  1  0
 18 19  2  0
 19 20  1  0
 16 21  1  0
 20 21  2  0
M  END
