pyridine_urea_10936
     RDKit          3D

 19 20  0  0  0  0  0  0  0  0999 V2000
   12.7910   -1.7890   21.3050 C   0  0  0  0  0  0  0  0  0  0  0  0
   11.9460   -1.2700   22.4360 C   0  0  0  0  0  0  0  0  0  0  0  0
   12.6640   -0.9860   23.5830 C   0  0  0  0  0  0  0  0  0  0  0  0
   12.0380   -0.5350   24.7420 C   0  0  0  0  0  0  0  0  0  0  0  0
   12.6420   -0.2960   25.7600 O   0  0  0  0  0  0  0  0  0  0  0  0
   10.6300   -0.3420   24.8160 C   0  0  0  0  0  0  0  0  0  0  0  0
    9.4360    0.1980   26.2710 Br  0  0  0  0  0  0  0  0  0  0  0  0
    9.7880   -0.5770   23.6580 C   0  0  0  0  0  0  0  0  0  0  0  0
   10.5180   -1.0560   22.4470 C   0  0  0  0  0  0  0  0  0  0  0  0
    9.5940   -1.2350   21.4210 N   0  0  0  0  0  0  0  0  0  0  0  0
    8.6180   -0.2630   21.2370 C   0  0  0  0  0  0  0  0  0  0  0  0
    8.8750    0.9280   21.3330 O   0  0  0  0  0  0  0  0  0  0  0  0
    7.3040   -0.7680   20.9090 N   0  0  0  0  0  0  0  0  0  0  0  0
    6.5230   -0.0920   20.0190 C   0  0  0  0  0  0  0  0  0  0  0  0
    5.3430    0.5800   20.3520 C   0  0  0  0  0  0  0  0  0  0  0  0
    4.6320    1.2620   19.3560 C   0  0  0  0  0  0  0  0  0  0  0  0
    5.1250    1.2480   18.0660 C   0  0  0  0  0  0  0  0  0  0  0  0
    6.2470    0.6090   17.7030 N   0  0  0  0  0  0  0  0  0  0  0  0
    6.9330   -0.0610   18.7130 C   0  0  0  0  0  0  0  0  0  0  0  0
  1  2  1  0
  2  3  2  0
  3  4  1  0
  4  5  1  0
  4  6  2  0
  6  7  1  0
  6  8  1  0
  2  9  1  0
  8  9  2  0
  9 10  1  0
 10 11  1  0
 11 12  2  0
 11 13  1  0
 13 14  1  0
 14 15  2  0
 15 16  1  0
 16 17  2  0
 17 18  1  0
 14 19  1  0
 18 19  2  0
M  END
