pyridine_urea_14889
     RDKit          3D

 19 19  0  0  0  0  0  0  0  0999 V2000
   12.7210    0.8440   22.8550 C   0  0  0  0  0  0  0  0  0  0  0  0
   12.2510   -0.5570   22.5370 C   0  0  0  0  0  0  0  0  0  0  0  0
   10.9400   -0.9330   22.2210 C   0  0  0  0  0  0  0  0  0  0  0  0
   10.0100   -0.9530   23.2480 C   0  0  2  0  0  0  0  0  0  0  0  0
    8.6320   -0.8640   22.7570 N   0  0  0  0  0  0  0  0  0  0  0  0
    8.2290   -0.1890   21.6050 C   0  0  0  0  0  0  0  0  0  0  0  0
    8.7890    0.8320   21.2140 O   0  0  0  0  0  0  0  0  0  0  0  0
    7.1610   -0.7730   21.0140 N   0  0  0  0  0  0  0  0  0  0  0  0
    6.5490   -0.0950   20.0220 C   0  0  0  0  0  0  0  0  0  0  0  0
    5.2740    0.7380   20.2390 C   0  0  0  0  0  0  0  0  0  0  0  0
    4.6260    1.4530   19.2260 C   0  0  0  0  0  0  0  0  0  0  0  0
    5.2060    1.3810   17.9550 C   0  0  0  0  0  0  0  0  0  0  0  0
    6.3440    0.6400   17.7410 N   0  0  0  0  0  0  0  0  0  0  0  0
    7.0100   -0.0880   18.7310 C   0  0  0  0  0  0  0  0  0  0  0  0
   10.2370    0.2020   24.2210 C   0  0  0  0  0  0  0  0  0  0  0  0
   10.4160    1.3410   23.8120 O   0  0  0  0  0  0  0  0  0  0  0  0
   10.2120   -0.1570   25.3900 O   0  0  0  0  0  0  0  0  0  0  0  0
    8.9920   -0.6400   26.0040 C   0  0  0  0  0  0  0  0  0  0  0  0
    8.9530   -0.5540   27.3990 C   0  0  0  0  0  0  0  0  0  0  0  0
  1  2  2  3
  2  3  1  0
  4  3  1  6
  4  5  1  0
  5  6  1  0
  6  7  2  0
  6  8  1  0
  8  9  1  0
  9 10  2  0
 10 11  1  0
 11 12  2  0
 12 13  1  0
  9 14  1  0
 13 14  2  0
  4 15  1  0
 15 16  2  0
 15 17  1  0
 17 18  1  0
 18 19  1  0
M  END
