pyridine_urea_4003
     RDKit          3D

 28 30  0  0  0  0  0  0  0  0999 V2000
    7.7000    5.3320   27.1010 C   0  0  0  0  0  0  0  0  0  0  0  0
    8.0910    5.7150   25.6920 O   0  0  0  0  0  0  0  0  0  0  0  0
    9.0760    4.9040   25.2120 C   0  0  0  0  0  0  0  0  0  0  0  0
    8.5880    4.0060   24.2880 C   0  0  0  0  0  0  0  0  0  0  0  0
    9.3660    3.1200   23.6780 C   0  0  0  0  0  0  0  0  0  0  0  0
   10.7160    3.0980   24.0060 C   0  0  0  0  0  0  0  0  0  0  0  0
   11.3760    2.0290   23.4230 C   0  0  0  0  0  0  0  0  0  0  0  0
   10.4060    1.0910   23.3340 C   0  0  0  0  0  0  0  0  0  0  0  0
   10.5350   -0.2290   22.7580 C   0  0  0  0  0  0  0  0  0  0  0  0
    9.3010   -0.9290   22.7230 N   0  0  0  0  0  0  0  0  0  0  0  0
    8.6420   -0.6270   21.5770 C   0  0  0  0  0  0  0  0  0  0  0  0
    9.3110   -0.0010   20.6880 O   0  0  0  0  0  0  0  0  0  0  0  0
    7.2850   -0.7490   21.4120 N   0  0  0  0  0  0  0  0  0  0  0  0
    6.6120   -0.0450   20.3820 C   0  0  0  0  0  0  0  0  0  0  0  0
    5.5260    0.9030   20.6210 C   0  0  0  0  0  0  0  0  0  0  0  0
    4.9510    1.5230   19.5510 C   0  0  0  0  0  0  0  0  0  0  0  0
    5.4100    1.2720   18.3000 C   0  0  0  0  0  0  0  0  0  0  0  0
    6.4070    0.4520   17.9970 N   0  0  0  0  0  0  0  0  0  0  0  0
    6.9960   -0.2100   19.0520 C   0  0  0  0  0  0  0  0  0  0  0  0
   11.7810   -0.7820   22.1440 C   0  0  0  0  0  0  0  0  0  0  0  0
   12.6620    0.4050   22.3890 C   0  0  0  0  0  0  0  0  0  0  0  0
   12.7110    1.7690   22.9250 C   0  0  0  0  0  0  0  0  0  0  0  0
   13.9790    1.5230   22.4520 O   0  0  0  0  0  0  0  0  0  0  0  0
   14.6200    0.3830   23.1110 C   0  0  0  0  0  0  0  0  0  0  0  0
   13.8060   -0.7160   22.9990 F   0  0  0  0  0  0  0  0  0  0  0  0
   15.7890    0.0570   22.4740 F   0  0  0  0  0  0  0  0  0  0  0  0
   11.2860    4.0600   24.9290 C   0  0  0  0  0  0  0  0  0  0  0  0
   10.4800    5.0140   25.6020 C   0  0  0  0  0  0  0  0  0  0  0  0
  1  2  1  0
  2  3  1  0
  3  4  2  0
  4  5  1  0
  5  6  2  0
  6  7  1  0
  7  8  2  0
  8  9  1  0
  9 10  1  0
 10 11  1  0
 11 12  2  0
 11 13  1  0
 13 14  1  0
 14 15  2  0
 15 16  1  0
 16 17  2  0
 17 18  1  0
 14 19  1  0
 18 19  2  0
  9 20  2  0
 20 21  1  0
  7 22  1  0
 21 22  2  0
 22 23  1  0
 23 24  1  0
 24 25  1  0
 24 26  1  0
  6 27  1  0
  3 28  1  0
 27 28  2  0
M  END
