pyridine_urea_13539
     RDKit          3D

 28 30  0  0  0  0  0  0  0  0999 V2000
    8.7810    0.7110   21.2010 O   0  0  0  0  0  0  0  0  0  0  0  0
    8.2880   -0.3710   21.4810 C   0  0  0  0  0  0  0  0  0  0  0  0
    8.8180   -1.3390   22.3020 N   0  0  0  0  0  0  0  0  0  0  0  0
    9.8530   -2.2480   22.0030 C   0  0  0  0  0  0  0  0  0  0  0  0
   11.3010   -1.8130   21.8400 C   0  0  0  0  0  0  0  0  0  0  0  0
   11.3570   -0.5600   22.6320 C   0  0  1  0  0  0  0  0  0  0  0  0
   12.5650   -0.2870   23.3650 C   0  0  0  0  0  0  0  0  0  0  0  0
   12.0340    0.3780   24.4270 C   0  0  0  0  0  0  0  0  0  0  0  0
   10.6000    0.2620   24.4310 C   0  0  0  0  0  0  0  0  0  0  0  0
    9.9400    0.8730   23.3420 C   0  0  0  0  0  0  0  0  0  0  0  0
   10.8080    0.6420   22.3300 N   0  0  0  0  0  0  0  0  0  0  0  0
   12.0340    1.4980   22.6850 S   0  0  0  0  0  0  0  0  0  0  0  0
   12.0460    1.6630   24.0910 O   0  0  0  0  0  0  0  0  0  0  0  0
   13.1150    0.6820   22.2070 O   0  0  0  0  0  0  0  0  0  0  0  0
   12.1940    3.2580   22.2210 C   0  0  0  0  0  0  0  0  0  0  0  0
   12.2660    3.7810   23.3320 C   0  0  0  0  0  0  0  0  0  0  0  0
   12.4480    5.0560   23.7710 C   0  0  0  0  0  0  0  0  0  0  0  0
   12.5570    6.1070   22.9630 C   0  0  0  0  0  0  0  0  0  0  0  0
   12.7420    7.6950   23.5300 Cl  0  0  0  0  0  0  0  0  0  0  0  0
   12.4770    5.6070   21.5700 C   0  0  0  0  0  0  0  0  0  0  0  0
   12.3030    4.2840   21.1220 C   0  0  0  0  0  0  0  0  0  0  0  0
    7.0640   -0.7460   20.9770 N   0  0  0  0  0  0  0  0  0  0  0  0
    6.3700   -0.0470   20.0570 C   0  0  0  0  0  0  0  0  0  0  0  0
    5.1790    0.6510   20.2940 C   0  0  0  0  0  0  0  0  0  0  0  0
    4.5540    1.3440   19.2910 C   0  0  0  0  0  0  0  0  0  0  0  0
    5.2190    1.3110   17.9380 C   0  0  0  0  0  0  0  0  0  0  0  0
    6.3540    0.6430   17.7060 N   0  0  0  0  0  0  0  0  0  0  0  0
    6.8910   -0.0140   18.7630 C   0  0  0  0  0  0  0  0  0  0  0  0
  1  2  2  0
  2  3  1  0
  3  4  1  0
  4  5  1  0
  6  5  1  6
  6  7  1  0
  7  8  1  0
  8  9  1  0
  9 10  1  0
  6 11  1  0
 10 11  1  0
 11 12  1  0
 12 13  2  0
 12 14  2  0
 12 15  1  0
 15 16  2  0
 16 17  1  0
 17 18  2  0
 18 19  1  0
 18 20  1  0
 15 21  1  0
 20 21  2  0
  2 22  1  0
 22 23  1  0
 23 24  2  0
 24 25  1  0
 25 26  2  0
 26 27  1  0
 23 28  1  0
 27 28  2  0
M  END
