pyridine_urea_2605
     RDKit          3D

 23 24  0  0  0  0  0  0  0  0999 V2000
   13.3740   -1.8310   21.0180 C   0  0  0  0  0  0  0  0  0  0  0  0
   13.6910   -1.3470   22.1000 O   0  0  0  0  0  0  0  0  0  0  0  0
   12.5850   -1.2740   22.8170 C   0  0  0  0  0  0  0  0  0  0  0  0
   12.6980   -0.0200   22.8670 C   0  0  0  0  0  0  0  0  0  0  0  0
   11.6110    0.5930   23.5530 C   0  0  0  0  0  0  0  0  0  0  0  0
   10.4820    0.0260   24.1340 C   0  0  0  0  0  0  0  0  0  0  0  0
    9.6110    0.9480   24.5800 F   0  0  0  0  0  0  0  0  0  0  0  0
   10.8240   -0.5770   25.3200 F   0  0  0  0  0  0  0  0  0  0  0  0
    9.9170   -1.0030   23.3540 C   0  0  0  0  0  0  0  0  0  0  0  0
    8.6130   -0.6300   22.8710 N   0  0  0  0  0  0  0  0  0  0  0  0
    8.4700    0.1860   21.8000 C   0  0  0  0  0  0  0  0  0  0  0  0
    9.3210    1.2760   21.4450 O   0  0  0  0  0  0  0  0  0  0  0  0
    7.4340   -0.0470   21.0550 N   0  0  0  0  0  0  0  0  0  0  0  0
    6.6340    0.3200   20.0390 C   0  0  0  0  0  0  0  0  0  0  0  0
    5.4580    1.0320   20.2670 C   0  0  0  0  0  0  0  0  0  0  0  0
    4.6780    1.4390   19.2150 C   0  0  0  0  0  0  0  0  0  0  0  0
    5.0530    1.1440   17.9320 C   0  0  0  0  0  0  0  0  0  0  0  0
    6.1640    0.4460   17.6600 N   0  0  0  0  0  0  0  0  0  0  0  0
    6.8980    0.0660   18.7160 C   0  0  0  0  0  0  0  0  0  0  0  0
   11.8960    1.7850   23.4930 C   0  0  0  0  0  0  0  0  0  0  0  0
   12.7150    0.7350   22.9250 C   0  0  0  0  0  0  0  0  0  0  0  0
   11.7310   -0.3740   23.4380 C   0  0  0  0  0  0  0  0  0  0  0  0
   11.2190   -1.6750   23.6530 C   0  0  0  0  0  0  0  0  0  0  0  0
  1  2  1  0
  2  3  1  0
  3  4  2  0
  4  5  1  0
  5  6  1  0
  6  7  1  0
  6  8  1  0
  6  9  1  0
  9 10  1  0
 10 11  1  0
 11 12  2  0
 11 13  1  0
 13 14  1  0
 14 15  2  0
 15 16  1  0
 16 17  2  0
 17 18  1  0
 14 19  1  0
 18 19  2  0
  5 20  2  0
 20 21  1  0
  3 22  1  0
 21 22  2  0
 22 23  1  0
M  END
