pyridine_urea_9138
     RDKit          3D

 19 19  0  0  0  0  0  0  0  0999 V2000
    9.2420    1.7950   24.2890 C   0  0  0  0  0  0  0  0  0  0  0  0
   10.1350    0.5420   24.1500 C   0  0  0  0  0  0  0  0  0  0  0  0
   11.6110    0.9600   24.1620 C   0  0  0  0  0  0  0  0  0  0  0  0
   12.3490    0.9040   23.0220 C   0  0  0  0  0  0  0  0  0  0  0  0
   12.8980   -0.3120   22.7360 C   0  0  0  0  0  0  0  0  0  0  0  0
   12.0360   -1.3830   22.5690 C   0  0  0  0  0  0  0  0  0  0  0  0
   12.0340   -2.3050   23.6190 C   0  0  0  0  0  0  0  0  0  0  0  0
   12.5010   -2.1920   21.3580 C   0  0  0  0  0  0  0  0  0  0  0  0
   10.4700   -1.4080   22.7590 C   0  0  0  0  0  0  0  0  0  0  0  0
    9.5970   -1.2470   21.5850 N   0  0  0  0  0  0  0  0  0  0  0  0
    8.7120   -0.1800   21.4720 C   0  0  0  0  0  0  0  0  0  0  0  0
    9.0770    0.9760   21.6170 O   0  0  0  0  0  0  0  0  0  0  0  0
    7.4230   -0.5600   21.1420 N   0  0  0  0  0  0  0  0  0  0  0  0
    6.6710    0.0080   20.0920 C   0  0  0  0  0  0  0  0  0  0  0  0
    5.4300    0.7960   20.3650 C   0  0  0  0  0  0  0  0  0  0  0  0
    4.6510    1.3990   19.4040 C   0  0  0  0  0  0  0  0  0  0  0  0
    5.1380    1.2080   18.0790 C   0  0  0  0  0  0  0  0  0  0  0  0
    6.2480    0.5000   17.7700 N   0  0  0  0  0  0  0  0  0  0  0  0
    6.9820   -0.0800   18.7570 C   0  0  0  0  0  0  0  0  0  0  0  0
  1  2  1  0
  2  3  1  0
  3  4  1  0
  4  5  1  0
  6  5  1  0
  6  7  1  0
  6  8  1  0
  6  9  1  0
  9 10  1  0
 10 11  1  0
 11 12  2  0
 11 13  1  0
 13 14  1  0
 14 15  2  0
 15 16  1  0
 16 17  2  0
 17 18  1  0
 14 19  1  0
 18 19  2  0
M  END
