pyridine_urea_4947
     RDKit          3D

 21 22  0  0  0  0  0  0  0  0999 V2000
    9.7300   -0.0360   26.0260 C   0  0  0  0  0  0  0  0  0  0  0  0
   11.1210   -0.3730   25.9360 O   0  0  0  0  0  0  0  0  0  0  0  0
   11.5550   -0.7020   24.7150 C   0  0  0  0  0  0  0  0  0  0  0  0
   12.7890   -1.6030   24.5600 C   0  0  0  0  0  0  0  0  0  0  0  0
   13.7910   -2.3190   25.7410 Cl  0  0  0  0  0  0  0  0  0  0  0  0
   13.1760   -1.9310   23.3730 C   0  0  0  0  0  0  0  0  0  0  0  0
   12.4630   -1.4640   22.4030 C   0  0  0  0  0  0  0  0  0  0  0  0
   13.0410   -1.9820   20.9190 Cl  0  0  0  0  0  0  0  0  0  0  0  0
   11.3520   -0.6440   22.5840 C   0  0  0  0  0  0  0  0  0  0  0  0
   10.7260   -0.1290   23.7590 C   0  0  0  0  0  0  0  0  0  0  0  0
   10.0930    0.2980   22.6580 C   0  0  0  0  0  0  0  0  0  0  0  0
    8.8710   -0.4110   22.4630 N   0  0  0  0  0  0  0  0  0  0  0  0
    8.1930    0.1880   21.4800 C   0  0  0  0  0  0  0  0  0  0  0  0
    8.6480    1.4340   21.0000 O   0  0  0  0  0  0  0  0  0  0  0  0
    7.0700   -0.4920   21.0210 N   0  0  0  0  0  0  0  0  0  0  0  0
    6.4360    0.0770   19.9630 C   0  0  0  0  0  0  0  0  0  0  0  0
    5.2830    0.7740   20.3140 C   0  0  0  0  0  0  0  0  0  0  0  0
    4.5970    1.4400   19.1730 C   0  0  0  0  0  0  0  0  0  0  0  0
    5.1070    1.3370   17.9020 C   0  0  0  0  0  0  0  0  0  0  0  0
    6.2200    0.6400   17.6080 N   0  0  0  0  0  0  0  0  0  0  0  0
    6.8800    0.0090   18.6680 C   0  0  0  0  0  0  0  0  0  0  0  0
  1  2  1  0
  2  3  1  0
  3  4  2  0
  4  5  1  0
  4  6  1  0
  6  7  2  0
  7  8  1  0
  7  9  1  0
  3 10  1  0
  9 10  2  0
 10 11  1  0
 11 12  1  0
 12 13  1  0
 13 14  2  0
 13 15  1  0
 15 16  1  0
 16 17  2  0
 17 18  1  0
 18 19  2  0
 19 20  1  0
 16 21  1  0
 20 21  2  0
M  END
