pyridine_urea_5169
     RDKit          3D

 20 21  0  0  0  0  0  0  0  0999 V2000
    8.8690    1.0600   21.5130 O   0  0  0  0  0  0  0  0  0  0  0  0
    8.4520   -0.0880   21.5100 C   0  0  0  0  0  0  0  0  0  0  0  0
    7.1970   -0.4960   21.1240 N   0  0  0  0  0  0  0  0  0  0  0  0
    6.5070    0.0940   20.0600 C   0  0  0  0  0  0  0  0  0  0  0  0
    5.3360    0.8120   20.3270 C   0  0  0  0  0  0  0  0  0  0  0  0
    4.6440    1.4220   19.2770 C   0  0  0  0  0  0  0  0  0  0  0  0
    5.1560    1.2890   18.0040 C   0  0  0  0  0  0  0  0  0  0  0  0
    6.2710    0.6010   17.7230 N   0  0  0  0  0  0  0  0  0  0  0  0
    6.9190    0.0200   18.7480 C   0  0  0  0  0  0  0  0  0  0  0  0
    9.2380   -1.1520   21.8670 N   0  0  0  0  0  0  0  0  0  0  0  0
   10.1650   -1.0220   22.9850 C   0  0  2  0  0  0  0  0  0  0  0  0
    9.7460    0.1340   23.9290 C   0  0  0  0  0  0  0  0  0  0  0  0
    8.6530   -0.3320   24.7730 O   0  0  0  0  0  0  0  0  0  0  0  0
   11.6130   -1.0620   22.6140 C   0  0  0  0  0  0  0  0  0  0  0  0
   12.1810   -1.9570   22.1160 C   0  0  0  0  0  0  0  0  0  0  0  0
   13.1670   -1.0270   22.2350 C   0  0  0  0  0  0  0  0  0  0  0  0
   11.8990   -0.2450   22.8890 C   0  0  0  0  0  0  0  0  0  0  0  0
   12.7220    0.8490   23.0900 C   0  0  0  0  0  0  0  0  0  0  0  0
   13.9960    1.2170   22.8780 O   0  0  0  0  0  0  0  0  0  0  0  0
   12.8490   -0.2770   22.6150 C   0  0  0  0  0  0  0  0  0  0  0  0
  1  2  2  0
  2  3  1  0
  3  4  1  0
  4  5  2  0
  5  6  1  0
  6  7  2  0
  7  8  1  0
  4  9  1  0
  8  9  2  0
  2 10  1  0
 10 11  1  0
 11 12  1  6
 12 13  1  0
 11 14  1  0
 14 15  2  0
 15 16  1  0
 16 17  2  0
 17 18  1  0
 18 19  1  0
 14 20  1  0
 18 20  2  0
M  END
