pyridine_urea_6194
     RDKit          3D

 24 26  0  0  0  0  0  0  0  0999 V2000
   12.3540    4.8240   21.4340 C   0  0  0  0  0  0  0  0  0  0  0  0
   12.3490    5.1860   22.5640 C   0  0  0  0  0  0  0  0  0  0  0  0
   11.8700    5.5060   23.9840 C   0  0  0  0  0  0  0  0  0  0  0  0
   13.1660    6.4390   22.3420 C   0  0  0  0  0  0  0  0  0  0  0  0
   13.3380    4.1830   23.0480 C   0  0  0  0  0  0  0  0  0  0  0  0
   12.7530    2.7790   23.0010 C   0  0  0  0  0  0  0  0  0  0  0  0
   11.3430    2.6890   23.0120 N   0  0  0  0  0  0  0  0  0  0  0  0
   11.2180    1.3810   22.8780 C   0  0  0  0  0  0  0  0  0  0  0  0
   10.0050    0.9460   22.8010 C   0  0  0  0  0  0  0  0  0  0  0  0
    9.9430   -0.5330   22.5660 C   0  0  0  0  0  0  0  0  0  0  0  0
    9.0110   -1.4630   22.3410 N   0  0  0  0  0  0  0  0  0  0  0  0
    8.0820   -0.7360   21.4280 C   0  0  0  0  0  0  0  0  0  0  0  0
    8.3820    0.3920   21.0640 O   0  0  0  0  0  0  0  0  0  0  0  0
    6.9270   -1.2550   21.0010 N   0  0  0  0  0  0  0  0  0  0  0  0
    6.4050   -0.4570   20.0210 C   0  0  0  0  0  0  0  0  0  0  0  0
    5.2420    0.2630   20.2500 C   0  0  0  0  0  0  0  0  0  0  0  0
    4.4030    1.2400   19.3900 C   0  0  0  0  0  0  0  0  0  0  0  0
    5.2610    1.2060   18.1220 C   0  0  0  0  0  0  0  0  0  0  0  0
    6.3910    0.5430   17.8180 N   0  0  0  0  0  0  0  0  0  0  0  0
    6.9420   -0.2910   18.7990 C   0  0  0  0  0  0  0  0  0  0  0  0
   11.2120   -1.1850   22.5360 C   0  0  0  0  0  0  0  0  0  0  0  0
   12.4620   -0.5990   22.6700 C   0  0  0  0  0  0  0  0  0  0  0  0
   12.4540    0.7450   22.8240 C   0  0  0  0  0  0  0  0  0  0  0  0
   13.5040    1.6240   22.9220 O   0  0  0  0  0  0  0  0  0  0  0  0
  2  1  1  0
  2  3  1  0
  2  4  1  0
  2  5  1  0
  5  6  1  0
  6  7  2  0
  7  8  1  0
  8  9  2  0
  9 10  1  0
 10 11  1  0
 11 12  1  0
 12 13  2  0
 12 14  1  0
 14 15  1  0
 15 16  2  0
 16 17  1  0
 17 18  2  0
 18 19  1  0
 15 20  1  0
 19 20  2  0
 10 21  2  0
 21 22  1  0
  8 23  1  0
 22 23  2  0
  6 24  1  0
 23 24  1  0
M  END
