pyridine_urea_10586
     RDKit          3D

 21 22  0  0  0  0  0  0  0  0999 V2000
    9.5710   -2.1790   21.6190 C   0  0  0  0  0  0  0  0  0  0  0  0
    8.9300   -2.8660   23.1550 S   0  0  0  0  0  0  0  0  0  0  0  0
    9.0980   -1.2860   24.0270 C   0  0  0  0  0  0  0  0  0  0  0  0
   10.4320   -0.5900   23.6560 C   0  0  0  0  0  0  0  0  0  0  0  0
   11.5630   -1.4920   23.2520 C   0  0  0  0  0  0  0  0  0  0  0  0
   12.8200   -0.9290   22.9230 C   0  0  0  0  0  0  0  0  0  0  0  0
   13.7720   -1.7960   22.5690 F   0  0  0  0  0  0  0  0  0  0  0  0
   12.9320    0.3920   23.0060 C   0  0  0  0  0  0  0  0  0  0  0  0
   11.8380    1.1790   23.3830 C   0  0  0  0  0  0  0  0  0  0  0  0
   10.4420    0.9970   23.7540 C   0  0  0  0  0  0  0  0  0  0  0  0
    9.2030    0.5050   24.0540 C   0  0  0  0  0  0  0  0  0  0  0  0
    8.6920   -0.2580   22.8960 N   0  0  0  0  0  0  0  0  0  0  0  0
    8.4150    0.3350   21.6660 C   0  0  0  0  0  0  0  0  0  0  0  0
    9.0160    1.3280   21.2400 O   0  0  0  0  0  0  0  0  0  0  0  0
    7.3880   -0.3420   21.0350 N   0  0  0  0  0  0  0  0  0  0  0  0
    6.5450    0.2420   20.0880 C   0  0  0  0  0  0  0  0  0  0  0  0
    5.3570    0.9560   20.4470 C   0  0  0  0  0  0  0  0  0  0  0  0
    4.6630    1.4970   19.1950 C   0  0  0  0  0  0  0  0  0  0  0  0
    5.1660    1.2860   17.9430 C   0  0  0  0  0  0  0  0  0  0  0  0
    6.2730    0.5980   17.6990 N   0  0  0  0  0  0  0  0  0  0  0  0
    6.9210    0.1020   18.7600 C   0  0  0  0  0  0  0  0  0  0  0  0
  1  2  1  0
  2  3  1  0
  3  4  1  0
  4  5  2  0
  5  6  1  0
  6  7  1  0
  6  8  2  0
  8  9  1  0
  4 10  1  0
  9 10  2  0
 10 11  1  0
 11 12  1  0
 12 13  1  0
 13 14  2  0
 13 15  1  0
 15 16  1  0
 16 17  2  0
 17 18  1  0
 18 19  2  0
 19 20  1  0
 16 21  1  0
 20 21  2  0
M  END
