pyridine_urea_8493
     RDKit          3D

 22 22  0  0  0  0  0  0  0  0999 V2000
    8.3460   -1.0060   27.6920 C   0  0  0  0  0  0  0  0  0  0  0  0
    8.5590   -0.6370   26.2520 C   0  0  0  0  0  0  0  0  0  0  0  0
    7.6580    0.2490   25.6380 C   0  0  0  0  0  0  0  0  0  0  0  0
    8.0710    0.9780   24.5080 C   0  0  0  0  0  0  0  0  0  0  0  0
    9.2700    1.6720   24.5830 C   0  0  0  0  0  0  0  0  0  0  0  0
   10.3630    1.5420   23.5090 C   0  0  0  0  0  0  0  0  0  0  0  0
   11.5910    0.9870   23.9170 C   0  0  0  0  0  0  0  0  0  0  0  0
   12.6560    0.5460   22.9040 C   0  0  0  0  0  0  0  0  0  0  0  0
   12.7530   -0.7790   22.4830 C   0  0  0  0  0  0  0  0  0  0  0  0
   11.5700   -1.4600   22.2400 C   0  0  0  0  0  0  0  0  0  0  0  0
   10.4110   -0.8080   22.6580 C   0  0  2  0  0  0  0  0  0  0  0  0
   10.0750   -0.7960   24.0130 C   0  0  0  0  0  0  0  0  0  0  0  0
    9.2580   -1.2960   21.9250 N   0  0  0  0  0  0  0  0  0  0  0  0
    8.3910   -0.2670   21.3410 C   0  0  0  0  0  0  0  0  0  0  0  0
    8.7500    0.8960   21.2270 O   0  0  0  0  0  0  0  0  0  0  0  0
    7.1700   -0.7280   20.9300 N   0  0  0  0  0  0  0  0  0  0  0  0
    6.3930   -0.0370   19.9960 C   0  0  0  0  0  0  0  0  0  0  0  0
    5.1910    0.6180   20.2670 C   0  0  0  0  0  0  0  0  0  0  0  0
    4.4190    1.3350   19.3240 C   0  0  0  0  0  0  0  0  0  0  0  0
    5.1570    1.2500   17.9740 C   0  0  0  0  0  0  0  0  0  0  0  0
    6.3040    0.6140   17.7220 N   0  0  0  0  0  0  0  0  0  0  0  0
    6.8860   -0.0070   18.7300 C   0  0  0  0  0  0  0  0  0  0  0  0
  1  2  1  0
  2  3  1  0
  3  4  1  0
  4  5  1  0
  5  6  1  0
  6  7  1  0
  7  8  1  0
  8  9  1  0
  9 10  1  0
 10 11  1  0
 11 12  1  1
 11 13  1  0
 13 14  1  0
 14 15  2  0
 14 16  1  0
 16 17  1  0
 17 18  2  0
 18 19  1  0
 19 20  2  0
 20 21  1  0
 17 22  1  0
 21 22  2  0
M  END
