pyridine_urea_11823
     RDKit          3D

 25 27  0  0  0  0  0  0  0  0999 V2000
    7.3610   -1.9550   18.6960 C   0  0  0  0  0  0  0  0  0  0  0  0
    7.5540   -2.5300   20.0610 C   0  0  0  0  0  0  0  0  0  0  0  0
    7.6890   -1.8520   21.2370 C   0  0  2  0  0  0  0  0  0  0  0  0
    8.8040   -1.0160   21.3040 N   0  0  0  0  0  0  0  0  0  0  0  0
    8.5570    0.3070   21.4630 C   0  0  0  0  0  0  0  0  0  0  0  0
    9.3640    1.1950   21.6480 O   0  0  0  0  0  0  0  0  0  0  0  0
    7.1890    0.4550   21.3540 N   0  0  0  0  0  0  0  0  0  0  0  0
    6.4850    0.7460   20.1770 C   0  0  0  0  0  0  0  0  0  0  0  0
    5.2890    1.4460   20.3300 C   0  0  0  0  0  0  0  0  0  0  0  0
    4.5600    1.7810   19.2050 C   0  0  0  0  0  0  0  0  0  0  0  0
    5.1310    1.3520   17.8600 C   0  0  0  0  0  0  0  0  0  0  0  0
    6.2640    0.6770   17.7510 N   0  0  0  0  0  0  0  0  0  0  0  0
    6.9030    0.3920   18.8970 C   0  0  0  0  0  0  0  0  0  0  0  0
    7.4350   -2.6590   22.3320 C   0  0  0  0  0  0  0  0  0  0  0  0
    6.3910   -3.5300   22.3520 N   0  0  0  0  0  0  0  0  0  0  0  0
    6.4380   -4.1630   23.6150 O   0  0  0  0  0  0  0  0  0  0  0  0
    7.5030   -3.5960   24.2300 C   0  0  0  0  0  0  0  0  0  0  0  0
    7.7310   -4.0140   25.5040 C   0  0  0  0  0  0  0  0  0  0  0  0
    8.3260   -5.2520   25.7590 C   0  0  0  0  0  0  0  0  0  0  0  0
    8.4740   -5.5290   27.2240 C   0  0  0  0  0  0  0  0  0  0  0  0
    7.9990   -4.5180   28.2450 C   0  0  0  0  0  0  0  0  0  0  0  0
    7.4310   -3.3240   27.8420 C   0  0  0  0  0  0  0  0  0  0  0  0
    6.8000   -1.9740   28.9960 Br  0  0  0  0  0  0  0  0  0  0  0  0
    7.3170   -3.1120   26.4950 C   0  0  0  0  0  0  0  0  0  0  0  0
    8.1290   -2.7050   23.4910 N   0  0  0  0  0  0  0  0  0  0  0  0
  1  2  1  0
  3  2  1  6
  3  4  1  0
  4  5  1  0
  5  6  2  0
  5  7  1  0
  7  8  1  0
  8  9  2  0
  9 10  1  0
 10 11  2  0
 11 12  1  0
  8 13  1  0
 12 13  2  0
  3 14  1  0
 14 15  2  0
 15 16  1  0
 16 17  1  0
 17 18  1  0
 18 19  2  0
 19 20  1  0
 20 21  2  0
 21 22  1  0
 22 23  1  0
 18 24  1  0
 22 24  2  0
 14 25  1  0
 17 25  2  0
M  END
