pyridine_urea_8221
     RDKit          3D

 23 25  0  0  0  0  0  0  0  0999 V2000
    8.9030    0.7810   21.4920 O   0  0  0  0  0  0  0  0  0  0  0  0
    8.6760   -0.4090   21.3980 C   0  0  0  0  0  0  0  0  0  0  0  0
    7.3840   -0.8590   21.1290 N   0  0  0  0  0  0  0  0  0  0  0  0
    6.6090   -0.1430   20.1070 C   0  0  0  0  0  0  0  0  0  0  0  0
    5.3020    0.6270   20.4980 C   0  0  0  0  0  0  0  0  0  0  0  0
    4.6170    1.2990   19.4810 C   0  0  0  0  0  0  0  0  0  0  0  0
    5.2130    1.2200   18.0740 C   0  0  0  0  0  0  0  0  0  0  0  0
    6.3410    0.5400   17.7870 N   0  0  0  0  0  0  0  0  0  0  0  0
    6.9970   -0.1140   18.7810 C   0  0  0  0  0  0  0  0  0  0  0  0
    9.6130   -1.4400   21.4780 N   0  0  0  0  0  0  0  0  0  0  0  0
   10.6510   -1.6350   22.5350 C   0  0  1  0  0  0  0  0  0  0  0  0
   12.1260   -1.5010   22.0870 C   0  0  0  0  0  0  0  0  0  0  0  0
   12.8650   -0.1730   22.5020 C   0  0  0  0  0  0  0  0  0  0  0  0
   12.0010    0.9920   23.0410 C   0  0  1  0  0  0  0  0  0  0  0  0
   11.8750    2.3500   22.5710 N   0  0  0  0  0  0  0  0  0  0  0  0
   10.6230    2.9520   22.5510 C   0  0  0  0  0  0  0  0  0  0  0  0
    9.5410    2.5030   22.2110 O   0  0  0  0  0  0  0  0  0  0  0  0
   10.7220    4.3450   23.0400 C   0  0  0  0  0  0  0  0  0  0  0  0
   12.0960    4.5370   23.0840 C   0  0  0  0  0  0  0  0  0  0  0  0
   12.8190    3.3660   22.6520 C   0  0  0  0  0  0  0  0  0  0  0  0
   14.1830    3.5990   22.4180 O   0  0  0  0  0  0  0  0  0  0  0  0
   10.6950    0.5610   23.1750 C   0  0  0  0  0  0  0  0  0  0  0  0
   10.5310   -0.6810   23.6650 C   0  0  0  0  0  0  0  0  0  0  0  0
  1  2  2  0
  2  3  1  0
  3  4  1  0
  4  5  2  0
  5  6  1  0
  6  7  2  0
  7  8  1  0
  4  9  1  0
  8  9  2  0
  2 10  1  0
 11 10  1  6
 11 12  1  0
 12 13  1  0
 13 14  1  0
 14 15  1  6
 15 16  1  0
 16 17  2  0
 16 18  1  0
 18 19  1  0
 15 20  1  0
 19 20  1  0
 20 21  2  0
 14 22  1  0
 11 23  1  0
 22 23  1  0
M  END
