pyridine_urea_5286
     RDKit          3D

 19 20  0  0  0  0  0  0  0  0999 V2000
   13.0810   -2.5730   21.2590 C   0  0  0  0  0  0  0  0  0  0  0  0
   11.9790   -2.3200   22.2000 C   0  0  0  0  0  0  0  0  0  0  0  0
   12.2520   -2.4290   23.6100 N   0  0  0  0  0  0  0  0  0  0  0  0
   11.0720   -2.1600   24.2000 N   0  0  0  0  0  0  0  0  0  0  0  0
   10.1220   -1.8930   23.1710 C   0  0  0  0  0  0  0  0  0  0  0  0
    8.8050   -1.5770   23.4070 C   0  0  0  0  0  0  0  0  0  0  0  0
    7.9920   -2.3780   22.6350 C   0  0  0  0  0  0  0  0  0  0  0  0
    8.5080   -1.5570   24.7960 C   0  0  0  0  0  0  0  0  0  0  0  0
    8.4980   -0.2950   23.0150 N   0  0  0  0  0  0  0  0  0  0  0  0
    8.2930    0.2210   21.6780 C   0  0  0  0  0  0  0  0  0  0  0  0
    8.9690    1.1540   21.2110 O   0  0  0  0  0  0  0  0  0  0  0  0
    7.2540   -0.4300   21.0590 N   0  0  0  0  0  0  0  0  0  0  0  0
    6.5510    0.1390   20.0060 C   0  0  0  0  0  0  0  0  0  0  0  0
    5.4030    0.8720   20.2660 C   0  0  0  0  0  0  0  0  0  0  0  0
    4.6810    1.4740   19.2690 C   0  0  0  0  0  0  0  0  0  0  0  0
    5.1350    1.3310   17.9720 C   0  0  0  0  0  0  0  0  0  0  0  0
    6.2360    0.6220   17.6760 N   0  0  0  0  0  0  0  0  0  0  0  0
    6.9280    0.0350   18.6850 C   0  0  0  0  0  0  0  0  0  0  0  0
   10.7050   -1.9980   21.9390 N   0  0  0  0  0  0  0  0  0  0  0  0
  1  2  1  0
  2  3  2  0
  3  4  1  0
  4  5  2  0
  5  6  1  0
  6  7  1  0
  6  8  1  0
  6  9  1  0
  9 10  1  0
 10 11  2  0
 10 12  1  0
 12 13  1  0
 13 14  2  0
 14 15  1  0
 15 16  2  0
 16 17  1  0
 13 18  1  0
 17 18  2  0
  2 19  1  0
  5 19  1  0
M  END
