pyridine_urea_12283
     RDKit          3D

 22 23  0  0  0  0  0  0  0  0999 V2000
    7.5250    0.5350   24.7970 C   0  0  0  0  0  0  0  0  0  0  0  0
    8.3630    0.8040   25.8630 N   0  0  0  0  0  0  0  0  0  0  0  0
    7.8230    1.4860   27.0300 C   0  0  0  0  0  0  0  0  0  0  0  0
    9.4460   -0.4330   26.2300 S   0  0  0  0  0  0  0  0  0  0  0  0
    8.6590   -1.6470   26.3100 O   0  0  0  0  0  0  0  0  0  0  0  0
   10.1360    0.0380   27.3910 O   0  0  0  0  0  0  0  0  0  0  0  0
   10.4720   -0.5510   24.8450 N   0  0  0  0  0  0  0  0  0  0  0  0
   11.8020    0.1840   24.5930 C   0  0  0  0  0  0  0  0  0  0  0  0
   12.5110   -0.2440   23.4990 C   0  0  0  0  0  0  0  0  0  0  0  0
   11.5950   -0.4810   22.3690 C   0  0  0  0  0  0  0  0  0  0  0  0
   10.2260   -0.5430   22.5330 C   0  0  1  0  0  0  0  0  0  0  0  0
    9.3870   -0.8020   21.5180 N   0  0  0  0  0  0  0  0  0  0  0  0
    8.3720    0.1430   21.1730 C   0  0  0  0  0  0  0  0  0  0  0  0
    8.6300    1.3460   21.0560 O   0  0  0  0  0  0  0  0  0  0  0  0
    7.1530   -0.4480   20.9620 N   0  0  0  0  0  0  0  0  0  0  0  0
    6.3500    0.1730   20.0320 C   0  0  0  0  0  0  0  0  0  0  0  0
    5.0280    0.8520   20.3040 C   0  0  0  0  0  0  0  0  0  0  0  0
    4.3750    1.4910   19.1130 C   0  0  0  0  0  0  0  0  0  0  0  0
    5.1330    1.3620   17.8160 C   0  0  0  0  0  0  0  0  0  0  0  0
    6.3020    0.7220   17.6770 N   0  0  0  0  0  0  0  0  0  0  0  0
    6.8470    0.1740   18.7330 C   0  0  0  0  0  0  0  0  0  0  0  0
    9.8120   -1.1280   23.6890 C   0  0  0  0  0  0  0  0  0  0  0  0
  1  2  1  0
  2  3  1  0
  4  2  1  0
  4  5  2  0
  4  6  2  0
  4  7  1  0
  7  8  1  0
  8  9  1  0
  9 10  1  0
 10 11  1  0
 11 12  1  6
 12 13  1  0
 13 14  2  0
 13 15  1  0
 15 16  1  0
 16 17  2  0
 17 18  1  0
 18 19  2  0
 19 20  1  0
 16 21  1  0
 20 21  2  0
  7 22  1  0
 11 22  1  0
M  END
