pyridine_urea_10810
     RDKit          3D

 20 21  0  0  0  0  0  0  0  0999 V2000
   13.2550   -2.7570   20.8960 C   0  0  0  0  0  0  0  0  0  0  0  0
   13.5440   -1.3900   21.1220 O   0  0  0  0  0  0  0  0  0  0  0  0
   12.7490   -1.1240   22.1560 C   0  0  0  0  0  0  0  0  0  0  0  0
   11.4820   -1.2270   22.1800 C   0  0  0  0  0  0  0  0  0  0  0  0
   10.3890   -1.1130   22.8780 C   0  0  0  0  0  0  0  0  0  0  0  0
   10.3770   -0.7120   24.2480 C   0  0  0  0  0  0  0  0  0  0  0  0
    9.0390   -0.9950   23.6600 C   0  0  0  0  0  0  0  0  0  0  0  0
    8.5530    0.1910   23.0000 N   0  0  0  0  0  0  0  0  0  0  0  0
    8.2760    0.4090   21.6890 C   0  0  0  0  0  0  0  0  0  0  0  0
    8.9310    1.4530   21.0870 O   0  0  0  0  0  0  0  0  0  0  0  0
    7.2920   -0.4580   21.0590 N   0  0  0  0  0  0  0  0  0  0  0  0
    6.5850    0.1080   20.0290 C   0  0  0  0  0  0  0  0  0  0  0  0
    5.4310    0.8200   20.3110 C   0  0  0  0  0  0  0  0  0  0  0  0
    4.6970    1.4250   19.2930 C   0  0  0  0  0  0  0  0  0  0  0  0
    5.1580    1.2900   17.9950 C   0  0  0  0  0  0  0  0  0  0  0  0
    6.2640    0.5990   17.6920 N   0  0  0  0  0  0  0  0  0  0  0  0
    6.9480    0.0270   18.7040 C   0  0  0  0  0  0  0  0  0  0  0  0
   12.0120   -0.5550   24.3120 C   0  0  0  0  0  0  0  0  0  0  0  0
   12.5130   -0.2090   25.4670 F   0  0  0  0  0  0  0  0  0  0  0  0
   13.0460   -0.7340   23.3710 C   0  0  0  0  0  0  0  0  0  0  0  0
  1  2  1  0
  2  3  1  0
  3  4  2  0
  4  5  1  0
  5  6  2  0
  6  7  1  0
  7  8  1  0
  8  9  1  0
  9 10  2  0
  9 11  1  0
 11 12  1  0
 12 13  2  0
 13 14  1  0
 14 15  2  0
 15 16  1  0
 12 17  1  0
 16 17  2  0
  6 18  1  0
 18 19  1  0
  3 20  1  0
 18 20  2  0
M  END
