pyridine_urea_2804
     RDKit          3D

 22 24  0  0  0  0  0  0  0  0999 V2000
   13.2640   -0.1260   22.6120 C   0  0  0  0  0  0  0  0  0  0  0  0
   13.2200   -1.6170   22.2340 C   0  0  0  0  0  0  0  0  0  0  0  0
   13.4970   -1.9680   20.7820 C   0  0  0  0  0  0  0  0  0  0  0  0
   13.4720   -2.5510   23.3790 C   0  0  0  0  0  0  0  0  0  0  0  0
   12.9260   -1.8230   24.5950 C   0  0  0  0  0  0  0  0  0  0  0  0
   11.7070   -1.1960   24.2860 C   0  0  0  0  0  0  0  0  0  0  0  0
   10.8740   -0.4150   25.2390 C   0  0  0  0  0  0  0  0  0  0  0  0
    9.5870    0.2030   24.8470 C   0  0  0  0  0  0  0  0  0  0  0  0
    9.3130   -0.1040   23.4100 C   0  0  0  0  0  0  0  0  0  0  0  0
    8.0980    0.4140   22.9370 N   0  0  0  0  0  0  0  0  0  0  0  0
    8.0580    0.6220   21.6110 C   0  0  0  0  0  0  0  0  0  0  0  0
    8.8470    1.6420   20.9940 O   0  0  0  0  0  0  0  0  0  0  0  0
    7.1660   -0.2510   20.9940 N   0  0  0  0  0  0  0  0  0  0  0  0
    6.4740    0.2510   19.9270 C   0  0  0  0  0  0  0  0  0  0  0  0
    5.1910    1.0030   20.1900 C   0  0  0  0  0  0  0  0  0  0  0  0
    4.5290    1.5370   19.1070 C   0  0  0  0  0  0  0  0  0  0  0  0
    5.0910    1.3430   17.8490 C   0  0  0  0  0  0  0  0  0  0  0  0
    6.2200    0.6620   17.6090 N   0  0  0  0  0  0  0  0  0  0  0  0
    6.8890    0.1300   18.6380 C   0  0  0  0  0  0  0  0  0  0  0  0
   10.0920   -0.8150   22.5440 C   0  0  0  0  0  0  0  0  0  0  0  0
   11.2530   -1.3430   22.9770 C   0  0  0  0  0  0  0  0  0  0  0  0
   11.8950   -1.9820   22.1140 N   0  0  0  0  0  0  0  0  0  0  0  0
  2  1  1  0
  2  3  1  0
  2  4  1  0
  4  5  1  0
  5  6  1  0
  6  7  1  0
  7  8  2  0
  8  9  1  0
  9 10  1  0
 10 11  1  0
 11 12  2  0
 11 13  1  0
 13 14  1  0
 14 15  2  0
 15 16  1  0
 16 17  2  0
 17 18  1  0
 14 19  1  0
 18 19  2  0
  9 20  2  0
  6 21  2  0
 20 21  1  0
  2 22  1  0
 21 22  1  0
M  END
