pyridine_urea_7881
     RDKit          3D

 28 30  0  0  0  0  0  0  0  0999 V2000
   13.5740   -3.2580   25.3470 C   0  0  0  0  0  0  0  0  0  0  0  0
   12.3950   -3.1990   25.0530 O   0  0  0  0  0  0  0  0  0  0  0  0
   12.1590   -1.9460   24.6930 C   0  0  0  0  0  0  0  0  0  0  0  0
   13.2170   -1.2910   24.1680 C   0  0  0  0  0  0  0  0  0  0  0  0
   13.1660    0.0180   23.7450 C   0  0  0  0  0  0  0  0  0  0  0  0
   11.9670    0.6510   23.8980 C   0  0  0  0  0  0  0  0  0  0  0  0
   10.8950   -0.0020   24.4150 C   0  0  0  0  0  0  0  0  0  0  0  0
    9.7220    0.6300   24.4990 C   0  0  0  0  0  0  0  0  0  0  0  0
    9.3520    0.4850   23.0690 C   0  0  2  0  0  0  0  0  0  0  0  0
    8.1500   -0.1770   22.7410 N   0  0  0  0  0  0  0  0  0  0  0  0
    7.8890    0.1670   21.4810 C   0  0  0  0  0  0  0  0  0  0  0  0
    8.5920    1.2110   20.9080 O   0  0  0  0  0  0  0  0  0  0  0  0
    6.9010   -0.5580   20.9150 N   0  0  0  0  0  0  0  0  0  0  0  0
    6.2150    0.1000   19.9310 C   0  0  0  0  0  0  0  0  0  0  0  0
    4.9990    0.7460   20.0750 C   0  0  0  0  0  0  0  0  0  0  0  0
    4.4750    1.3920   18.9840 C   0  0  0  0  0  0  0  0  0  0  0  0
    5.1210    1.4150   17.7650 C   0  0  0  0  0  0  0  0  0  0  0  0
    6.2950    0.7900   17.5820 N   0  0  0  0  0  0  0  0  0  0  0  0
    6.8190    0.1350   18.6930 C   0  0  0  0  0  0  0  0  0  0  0  0
   10.4570   -0.3940   22.5860 C   0  0  0  0  0  0  0  0  0  0  0  0
   10.6350   -1.6650   22.0890 C   0  0  0  0  0  0  0  0  0  0  0  0
   12.0900   -1.9290   21.7920 C   0  0  0  0  0  0  0  0  0  0  0  0
   13.2190   -0.9560   21.9980 C   0  0  0  0  0  0  0  0  0  0  0  0
   12.7830    0.2640   22.5050 C   0  0  0  0  0  0  0  0  0  0  0  0
   13.3400    1.5350   22.8840 O   0  0  0  0  0  0  0  0  0  0  0  0
   12.5560    2.7350   22.8500 C   0  0  0  0  0  0  0  0  0  0  0  0
   11.6910   -0.3280   22.4400 C   0  0  0  0  0  0  0  0  0  0  0  0
   10.9690   -1.2980   24.8100 C   0  0  0  0  0  0  0  0  0  0  0  0
  1  2  1  0
  2  3  1  0
  3  4  2  0
  4  5  1  0
  5  6  2  0
  6  7  1  0
  7  8  1  0
  9  8  1  1
  9 10  1  0
 10 11  1  0
 11 12  2  0
 11 13  1  0
 13 14  1  0
 14 15  2  0
 15 16  1  0
 16 17  2  0
 17 18  1  0
 14 19  1  0
 18 19  2  0
  9 20  1  0
 20 21  2  0
 21 22  1  0
 22 23  2  0
 23 24  1  0
 24 25  1  0
 25 26  1  0
 20 27  1  0
 24 27  2  0
  3 28  1  0
  7 28  2  0
M  END
