pyridine_urea_8626
     RDKit          3D

 21 22  0  0  0  0  0  0  0  0999 V2000
    9.4480   -3.0740   24.1990 C   0  0  0  0  0  0  0  0  0  0  0  0
    8.9650   -1.7450   23.9830 O   0  0  0  0  0  0  0  0  0  0  0  0
    9.8970   -0.7910   23.6290 C   0  0  0  0  0  0  0  0  0  0  0  0
   11.0050   -0.5650   24.4390 C   0  0  0  0  0  0  0  0  0  0  0  0
   10.9540   -0.6260   25.6620 C   0  0  0  0  0  0  0  0  0  0  0  0
   12.1820   -0.3300   24.9750 C   0  0  0  0  0  0  0  0  0  0  0  0
   11.3350   -0.4750   23.6150 C   0  0  0  0  0  0  0  0  0  0  0  0
   11.1430   -0.4790   22.2950 C   0  0  0  0  0  0  0  0  0  0  0  0
   10.4520   -1.7610   21.8780 C   0  0  0  0  0  0  0  0  0  0  0  0
    9.1790   -1.3750   21.1670 N   0  0  0  0  0  0  0  0  0  0  0  0
    8.4390   -0.2390   21.3600 C   0  0  0  0  0  0  0  0  0  0  0  0
    8.9390    0.8350   21.6400 O   0  0  0  0  0  0  0  0  0  0  0  0
    7.1070   -0.4880   21.1370 N   0  0  0  0  0  0  0  0  0  0  0  0
    6.4370    0.1130   20.0660 C   0  0  0  0  0  0  0  0  0  0  0  0
    5.2610    0.8300   20.2770 C   0  0  0  0  0  0  0  0  0  0  0  0
    4.6340    1.4330   19.1960 C   0  0  0  0  0  0  0  0  0  0  0  0
    5.1430    1.3420   17.9200 C   0  0  0  0  0  0  0  0  0  0  0  0
    6.2670    0.6490   17.6880 N   0  0  0  0  0  0  0  0  0  0  0  0
    6.8830    0.0540   18.7480 C   0  0  0  0  0  0  0  0  0  0  0  0
   12.7080   -0.1190   22.9950 C   0  0  0  0  0  0  0  0  0  0  0  0
   12.3750   -0.2400   24.2170 C   0  0  0  0  0  0  0  0  0  0  0  0
  1  2  1  0
  2  3  1  0
  3  4  1  0
  4  5  2  0
  5  6  1  0
  6  7  2  0
  7  8  1  0
  8  9  1  0
  9 10  1  0
 10 11  1  0
 11 12  2  0
 11 13  1  0
 13 14  1  0
 14 15  2  0
 15 16  1  0
 16 17  2  0
 17 18  1  0
 14 19  1  0
 18 19  2  0
  7 20  1  0
  4 21  1  0
 20 21  2  0
M  END
