pyridine_urea_11001
     RDKit          3D

 19 20  0  0  0  0  0  0  0  0999 V2000
   13.8450    0.9050   22.7860 N   0  0  0  0  0  0  0  0  0  0  0  0
   12.6290    0.4520   22.8310 C   0  0  0  0  0  0  0  0  0  0  0  0
   11.5910    1.3920   23.0140 C   0  0  0  0  0  0  0  0  0  0  0  0
   10.3700    0.8750   23.0490 C   0  0  0  0  0  0  0  0  0  0  0  0
   10.1650   -0.4980   22.9080 C   0  0  0  0  0  0  0  0  0  0  0  0
   10.9970   -1.6720   22.7050 C   0  0  0  0  0  0  0  0  0  0  0  0
    9.5310   -1.9280   22.7850 C   0  0  0  0  0  0  0  0  0  0  0  0
    9.0660   -1.4450   21.5770 N   0  0  0  0  0  0  0  0  0  0  0  0
    8.2790   -0.3040   21.3250 C   0  0  0  0  0  0  0  0  0  0  0  0
    8.7250    0.8350   21.2920 O   0  0  0  0  0  0  0  0  0  0  0  0
    6.9900   -0.6290   21.1200 N   0  0  0  0  0  0  0  0  0  0  0  0
    6.3770    0.0230   20.1090 C   0  0  0  0  0  0  0  0  0  0  0  0
    5.2090    0.7760   20.2310 C   0  0  0  0  0  0  0  0  0  0  0  0
    4.6130    1.4520   19.1480 C   0  0  0  0  0  0  0  0  0  0  0  0
    5.1990    1.3790   17.8900 C   0  0  0  0  0  0  0  0  0  0  0  0
    6.3640    0.6160   17.7750 N   0  0  0  0  0  0  0  0  0  0  0  0
    6.9370   -0.0470   18.8510 C   0  0  0  0  0  0  0  0  0  0  0  0
   12.3480   -0.8740   22.6980 C   0  0  0  0  0  0  0  0  0  0  0  0
   13.4320   -1.6440   22.5270 F   0  0  0  0  0  0  0  0  0  0  0  0
  1  2  1  0
  2  3  2  0
  3  4  1  0
  4  5  2  0
  5  6  1  0
  6  7  1  0
  7  8  1  0
  8  9  1  0
  9 10  2  0
  9 11  1  0
 11 12  1  0
 12 13  2  0
 13 14  1  0
 14 15  2  0
 15 16  1  0
 12 17  1  0
 16 17  2  0
  2 18  1  0
  6 18  2  0
 18 19  1  0
M  END
