pyridine_urea_13158
     RDKit          3D

 18 19  0  0  0  0  0  0  0  0999 V2000
   11.0030   -3.3030   23.9170 C   0  0  0  0  0  0  0  0  0  0  0  0
    9.5910   -2.8870   23.7340 C   0  0  0  0  0  0  0  0  0  0  0  0
    9.2730   -1.5190   23.7570 N   0  0  0  0  0  0  0  0  0  0  0  0
    7.8210   -1.6530   23.5600 C   0  0  0  0  0  0  0  0  0  0  0  0
    7.0850   -0.5100   23.5190 C   0  0  0  0  0  0  0  0  0  0  0  0
    8.1210    0.3940   23.0340 N   0  0  0  0  0  0  0  0  0  0  0  0
    8.2750    0.5800   21.6920 C   0  0  0  0  0  0  0  0  0  0  0  0
    9.0480    1.4060   21.2110 O   0  0  0  0  0  0  0  0  0  0  0  0
    7.4280   -0.2490   21.0110 N   0  0  0  0  0  0  0  0  0  0  0  0
    6.6460    0.2560   19.9970 C   0  0  0  0  0  0  0  0  0  0  0  0
    5.4830    0.9560   20.2880 C   0  0  0  0  0  0  0  0  0  0  0  0
    4.6570    1.5350   19.1700 C   0  0  0  0  0  0  0  0  0  0  0  0
    5.1270    1.3230   17.9020 C   0  0  0  0  0  0  0  0  0  0  0  0
    6.2400    0.6370   17.6090 N   0  0  0  0  0  0  0  0  0  0  0  0
    6.9510    0.1320   18.6540 C   0  0  0  0  0  0  0  0  0  0  0  0
    7.2760   -2.7520   23.4270 O   0  0  0  0  0  0  0  0  0  0  0  0
    8.3050   -3.7270   23.5100 C   0  0  0  0  0  0  0  0  0  0  0  0
    8.0000   -5.1000   23.3940 C   0  0  0  0  0  0  0  0  0  0  0  0
  1  2  1  0
  2  3  1  0
  3  4  2  0
  4  5  1  0
  5  6  1  0
  6  7  1  0
  7  8  2  0
  7  9  1  0
  9 10  1  0
 10 11  2  0
 11 12  1  0
 12 13  2  0
 13 14  1  0
 10 15  1  0
 14 15  2  0
  4 16  1  0
  2 17  2  0
 16 17  1  0
 17 18  1  0
M  END
