pyridine_urea_12978
     RDKit          3D

 19 20  0  0  0  0  0  0  0  0999 V2000
   12.8370   -0.9630   23.9700 C   0  0  0  0  0  0  0  0  0  0  0  0
   12.2290   -0.5820   22.7170 O   0  0  0  0  0  0  0  0  0  0  0  0
   11.9510   -1.6760   21.9830 C   0  0  0  0  0  0  0  0  0  0  0  0
   13.2510   -1.1900   21.7680 C   0  0  0  0  0  0  0  0  0  0  0  0
   13.2750   -0.0880   22.5100 C   0  0  0  0  0  0  0  0  0  0  0  0
   12.1400    0.3160   23.2620 C   0  0  0  0  0  0  0  0  0  0  0  0
   10.7570   -0.2800   23.4540 C   0  0  0  0  0  0  0  0  0  0  0  0
    9.5970   -1.0150   23.4560 C   0  0  0  0  0  0  0  0  0  0  0  0
    8.4360   -0.4360   22.9330 N   0  0  0  0  0  0  0  0  0  0  0  0
    8.2590    0.1630   21.6980 C   0  0  0  0  0  0  0  0  0  0  0  0
    8.9940    1.3030   21.1970 O   0  0  0  0  0  0  0  0  0  0  0  0
    7.2430   -0.4790   21.0180 N   0  0  0  0  0  0  0  0  0  0  0  0
    6.5250    0.1170   20.0090 C   0  0  0  0  0  0  0  0  0  0  0  0
    5.3620    0.8220   20.3440 C   0  0  0  0  0  0  0  0  0  0  0  0
    4.6350    1.4520   19.3280 C   0  0  0  0  0  0  0  0  0  0  0  0
    5.1540    1.3290   17.9400 C   0  0  0  0  0  0  0  0  0  0  0  0
    6.2610    0.6400   17.6560 N   0  0  0  0  0  0  0  0  0  0  0  0
    6.9110    0.0580   18.6840 C   0  0  0  0  0  0  0  0  0  0  0  0
   10.8830   -1.4300   22.6150 N   0  0  0  0  0  0  0  0  0  0  0  0
  1  2  1  0
  2  3  1  0
  3  4  2  0
  4  5  1  0
  5  6  2  0
  6  7  1  0
  7  8  1  0
  8  9  1  0
  9 10  1  0
 10 11  2  0
 10 12  1  0
 12 13  1  0
 13 14  2  0
 14 15  1  0
 15 16  2  0
 16 17  1  0
 13 18  1  0
 17 18  2  0
  3 19  1  0
  7 19  2  0
M  END
