pyridine_urea_12572
     RDKit          3D

 21 22  0  0  0  0  0  0  0  0999 V2000
    9.1340    0.5680   21.4290 O   0  0  0  0  0  0  0  0  0  0  0  0
    8.3650   -0.3770   21.5490 C   0  0  0  0  0  0  0  0  0  0  0  0
    8.7040   -1.5670   22.1390 N   0  0  0  0  0  0  0  0  0  0  0  0
    7.5740   -2.4550   22.4310 C   0  0  0  0  0  0  0  0  0  0  0  0
    7.9290   -3.9500   22.7780 C   0  0  0  0  0  0  0  0  0  0  0  0
    6.7360   -4.8690   22.9280 N   0  0  0  0  0  0  0  0  0  0  0  0
    5.6000   -4.4360   23.7720 C   0  0  0  0  0  0  0  0  0  0  0  0
    6.1300   -3.7030   25.0230 C   0  0  0  0  0  0  0  0  0  0  0  0
    7.3660   -4.1160   25.4690 N   0  0  0  0  0  0  0  0  0  0  0  0
    7.7980   -5.4510   25.5840 C   0  0  0  0  0  0  0  0  0  0  0  0
    9.2010   -5.7090   26.1260 C   0  0  0  0  0  0  0  0  0  0  0  0
    9.9660   -4.5170   26.6210 C   0  0  0  0  0  0  0  0  0  0  0  0
    9.7670   -3.4860   25.5200 C   0  0  0  0  0  0  0  0  0  0  0  0
    8.2980   -3.0480   25.3980 C   0  0  0  0  0  0  0  0  0  0  0  0
    7.0550   -0.4430   21.1580 N   0  0  0  0  0  0  0  0  0  0  0  0
    6.4670    0.1490   20.0390 C   0  0  0  0  0  0  0  0  0  0  0  0
    5.1990    0.9600   20.2390 C   0  0  0  0  0  0  0  0  0  0  0  0
    4.6180    1.5560   19.1330 C   0  0  0  0  0  0  0  0  0  0  0  0
    5.2250    1.3830   17.8930 C   0  0  0  0  0  0  0  0  0  0  0  0
    6.3430    0.6640   17.6980 N   0  0  0  0  0  0  0  0  0  0  0  0
    6.9380    0.0640   18.7520 C   0  0  0  0  0  0  0  0  0  0  0  0
  1  2  2  0
  2  3  1  0
  3  4  1  0
  4  5  1  0
  5  6  1  0
  6  7  1  0
  7  8  1  0
  8  9  1  0
  9 10  1  0
 10 11  1  0
 11 12  1  0
 12 13  1  0
  9 14  1  0
 13 14  1  0
  2 15  1  0
 15 16  1  0
 16 17  2  0
 17 18  1  0
 18 19  2  0
 19 20  1  0
 16 21  1  0
 20 21  2  0
M  END
