pyridine_urea_1544
     RDKit          3D

 19 20  0  0  0  0  0  0  0  0999 V2000
   11.8700   -1.6470   23.9690 C   0  0  0  0  0  0  0  0  0  0  0  0
   11.8940   -0.2250   23.4140 C   0  0  0  0  0  0  0  0  0  0  0  0
   13.2260   -0.5440   23.5690 C   0  0  0  0  0  0  0  0  0  0  0  0
   12.7350    0.5100   23.1350 C   0  0  0  0  0  0  0  0  0  0  0  0
   11.2920    0.4280   23.1080 C   0  0  0  0  0  0  0  0  0  0  0  0
   10.3010   -0.5060   23.4280 C   0  0  1  0  0  0  0  0  0  0  0  0
    9.6340   -0.0500   24.5600 C   0  0  0  0  0  0  0  0  0  0  0  0
    9.2700   -0.7880   22.4680 N   0  0  0  0  0  0  0  0  0  0  0  0
    8.6660    0.1110   21.6050 C   0  0  0  0  0  0  0  0  0  0  0  0
    9.1320    1.2240   21.3410 O   0  0  0  0  0  0  0  0  0  0  0  0
    7.4120   -0.4230   21.0720 N   0  0  0  0  0  0  0  0  0  0  0  0
    6.6630    0.1180   20.0710 C   0  0  0  0  0  0  0  0  0  0  0  0
    5.5130    0.8510   20.3950 C   0  0  0  0  0  0  0  0  0  0  0  0
    4.7530    1.4210   19.3710 C   0  0  0  0  0  0  0  0  0  0  0  0
    5.1610    1.2450   18.0660 C   0  0  0  0  0  0  0  0  0  0  0  0
    6.2480    0.5440   17.7290 N   0  0  0  0  0  0  0  0  0  0  0  0
    6.9670   -0.0000   18.7300 C   0  0  0  0  0  0  0  0  0  0  0  0
   11.1140    1.5200   22.6980 N   0  0  0  0  0  0  0  0  0  0  0  0
   12.4320    1.1750   22.8850 C   0  0  0  0  0  0  0  0  0  0  0  0
  1  2  1  0
  2  3  2  0
  3  4  1  0
  4  5  2  0
  5  6  1  0
  6  7  1  1
  6  8  1  0
  8  9  1  0
  9 10  2  0
  9 11  1  0
 11 12  1  0
 12 13  2  0
 13 14  1  0
 14 15  2  0
 15 16  1  0
 12 17  1  0
 16 17  2  0
  5 18  1  0
  2 19  1  0
 18 19  2  0
M  END
