pyridine_urea_11771
     RDKit          3D

 25 27  0  0  0  0  0  0  0  0999 V2000
   10.3790   -0.6940   21.8840 C   0  0  0  0  0  0  0  0  0  0  0  0
    9.5740    0.4380   22.4150 C   0  0  0  0  0  0  0  0  0  0  0  0
    8.8980    1.3850   21.6250 C   0  0  0  0  0  0  0  0  0  0  0  0
   10.5750    1.2880   23.1340 C   0  0  0  0  0  0  0  0  0  0  0  0
   11.3100    0.4290   23.8380 N   0  0  0  0  0  0  0  0  0  0  0  0
   12.5380    0.5570   24.2290 C   0  0  0  0  0  0  0  0  0  0  0  0
   12.8960   -0.5470   23.7140 C   0  0  0  0  0  0  0  0  0  0  0  0
   13.0720   -1.5740   24.5850 C   0  0  0  0  0  0  0  0  0  0  0  0
   13.4540   -2.8700   24.0330 C   0  0  0  0  0  0  0  0  0  0  0  0
   13.5840   -2.9180   22.6830 C   0  0  0  0  0  0  0  0  0  0  0  0
   13.3980   -1.8610   21.8340 C   0  0  0  0  0  0  0  0  0  0  0  0
   13.0640   -0.6370   22.2800 C   0  0  0  0  0  0  0  0  0  0  0  0
   10.4580    0.2050   24.9530 C   0  0  0  0  0  0  0  0  0  0  0  0
    9.4790   -0.6590   24.5980 C   0  0  0  0  0  0  0  0  0  0  0  0
    8.7880   -0.0630   23.4270 C   0  0  2  0  0  0  0  0  0  0  0  0
    7.8420   -0.8500   22.8440 N   0  0  0  0  0  0  0  0  0  0  0  0
    7.6300   -0.8260   21.4190 C   0  0  0  0  0  0  0  0  0  0  0  0
    8.5030   -0.6650   20.6260 O   0  0  0  0  0  0  0  0  0  0  0  0
    6.3530   -0.9820   21.1020 N   0  0  0  0  0  0  0  0  0  0  0  0
    5.9600   -0.1830   20.0880 C   0  0  0  0  0  0  0  0  0  0  0  0
    4.8580    0.6620   20.1370 C   0  0  0  0  0  0  0  0  0  0  0  0
    4.4990    1.4610   19.0580 C   0  0  0  0  0  0  0  0  0  0  0  0
    5.2640    1.4090   17.9040 C   0  0  0  0  0  0  0  0  0  0  0  0
    6.3490    0.6260   17.7490 N   0  0  0  0  0  0  0  0  0  0  0  0
    6.6660   -0.1690   18.8970 C   0  0  0  0  0  0  0  0  0  0  0  0
  2  1  1  0
  2  3  1  0
  2  4  1  0
  4  5  1  0
  5  6  1  0
  6  7  1  0
  7  8  2  0
  8  9  1  0
  9 10  2  0
 10 11  1  0
  7 12  1  0
 11 12  2  0
  5 13  1  0
 13 14  1  0
  2 15  1  0
 14 15  1  0
 15 16  1  6
 16 17  1  0
 17 18  2  0
 17 19  1  0
 19 20  1  0
 20 21  2  0
 21 22  1  0
 22 23  2  0
 23 24  1  0
 20 25  1  0
 24 25  2  0
M  END
