pyridine_urea_5376
     RDKit          3D

 19 20  0  0  0  0  0  0  0  0999 V2000
   12.7340   -2.4450   21.2510 C   0  0  0  0  0  0  0  0  0  0  0  0
   13.5230   -1.2550   21.6700 C   0  0  0  0  0  0  0  0  0  0  0  0
   12.5550   -0.4510   22.4690 C   0  0  0  0  0  0  0  0  0  0  0  0
   12.6800    0.6820   23.1530 C   0  0  0  0  0  0  0  0  0  0  0  0
   11.3990    1.2110   23.8670 C   0  0  0  0  0  0  0  0  0  0  0  0
   10.0210    0.7110   23.9500 C   0  0  0  0  0  0  0  0  0  0  0  0
    8.7730   -0.1210   23.7790 C   0  0  0  0  0  0  0  0  0  0  0  0
    8.0340   -0.7490   23.1420 N   0  0  0  0  0  0  0  0  0  0  0  0
    8.0530   -0.2000   21.7770 C   0  0  0  0  0  0  0  0  0  0  0  0
    8.8020    0.6310   21.2930 O   0  0  0  0  0  0  0  0  0  0  0  0
    6.9720   -0.8260   21.0570 N   0  0  0  0  0  0  0  0  0  0  0  0
    6.4110   -0.1260   20.0200 C   0  0  0  0  0  0  0  0  0  0  0  0
    5.1300    0.6410   20.3740 C   0  0  0  0  0  0  0  0  0  0  0  0
    4.4850    1.4480   19.2320 C   0  0  0  0  0  0  0  0  0  0  0  0
    5.2070    1.3810   17.8940 C   0  0  0  0  0  0  0  0  0  0  0  0
    6.3530    0.6420   17.7330 N   0  0  0  0  0  0  0  0  0  0  0  0
    6.9400   -0.0920   18.7520 C   0  0  0  0  0  0  0  0  0  0  0  0
   10.2020   -0.4560   23.1600 C   0  0  0  0  0  0  0  0  0  0  0  0
   11.3350   -0.7890   22.6160 C   0  0  0  0  0  0  0  0  0  0  0  0
  1  2  1  0
  2  3  1  0
  3  4  2  0
  4  5  1  0
  5  6  2  0
  6  7  1  0
  7  8  1  0
  8  9  1  0
  9 10  2  0
  9 11  1  0
 11 12  1  0
 12 13  2  0
 13 14  1  0
 14 15  2  0
 15 16  1  0
 12 17  1  0
 16 17  2  0
  6 18  1  0
  3 19  1  0
 18 19  2  0
M  END
