pyridine_urea_5510
     RDKit          3D

 18 19  0  0  0  0  0  0  0  0999 V2000
   11.8490   -2.7220   22.0570 N   0  0  0  0  0  0  0  0  0  0  0  0
   12.3830   -1.7340   22.2240 C   0  0  0  0  0  0  0  0  0  0  0  0
   13.0330   -0.4130   22.4710 C   0  0  0  0  0  0  0  0  0  0  0  0
   13.0530    1.0480   22.9520 C   0  0  0  0  0  0  0  0  0  0  0  0
   11.9310    1.5060   23.4390 C   0  0  0  0  0  0  0  0  0  0  0  0
   10.8980    0.4450   23.3880 C   0  0  0  0  0  0  0  0  0  0  0  0
   10.2620   -0.7750   23.1660 C   0  0  0  0  0  0  0  0  0  0  0  0
    8.9320   -0.7210   22.7130 N   0  0  0  0  0  0  0  0  0  0  0  0
    8.4220    0.1150   21.6020 C   0  0  0  0  0  0  0  0  0  0  0  0
    8.9100    1.1950   21.2340 O   0  0  0  0  0  0  0  0  0  0  0  0
    7.3050   -0.4770   21.0400 N   0  0  0  0  0  0  0  0  0  0  0  0
    6.5510    0.1290   20.0350 C   0  0  0  0  0  0  0  0  0  0  0  0
    5.2660    0.8510   20.4240 C   0  0  0  0  0  0  0  0  0  0  0  0
    4.5140    1.5050   19.2680 C   0  0  0  0  0  0  0  0  0  0  0  0
    5.1630    1.3360   17.9070 C   0  0  0  0  0  0  0  0  0  0  0  0
    6.2950    0.6680   17.6810 N   0  0  0  0  0  0  0  0  0  0  0  0
    6.9320    0.1020   18.7160 C   0  0  0  0  0  0  0  0  0  0  0  0
   11.7830   -0.4970   22.8120 O   0  0  0  0  0  0  0  0  0  0  0  0
  1  2  3  0
  2  3  1  0
  3  4  2  0
  4  5  1  0
  5  6  2  0
  6  7  1  0
  7  8  1  0
  8  9  1  0
  9 10  2  0
  9 11  1  0
 11 12  1  0
 12 13  2  0
 13 14  1  0
 14 15  2  0
 15 16  1  0
 12 17  1  0
 16 17  2  0
  3 18  1  0
  6 18  1  0
M  END
