pyridine_urea_2890
     RDKit          3D

 22 23  0  0  0  0  0  0  0  0999 V2000
    9.0500    1.2960   21.2460 O   0  0  0  0  0  0  0  0  0  0  0  0
    8.5900    0.2040   21.5840 C   0  0  0  0  0  0  0  0  0  0  0  0
    9.1710   -0.5680   22.5680 N   0  0  0  0  0  0  0  0  0  0  0  0
    9.2240   -2.0050   22.3870 C   0  0  0  0  0  0  0  0  0  0  0  0
    7.9350   -2.7340   22.8940 C   0  0  0  0  0  0  0  0  0  0  0  0
    8.2080   -3.8710   23.8330 N   0  0  0  0  0  0  0  0  0  0  0  0
    7.2760   -5.0040   23.7820 C   0  0  0  0  0  0  0  0  0  0  0  0
    7.8170   -6.2010   23.4080 O   0  0  0  0  0  0  0  0  0  0  0  0
    5.8170   -4.7210   24.1350 C   0  0  0  0  0  0  0  0  0  0  0  0
    5.4610   -4.0470   25.3150 C   0  0  0  0  0  0  0  0  0  0  0  0
    3.9910   -3.7680   25.6610 C   0  0  0  0  0  0  0  0  0  0  0  0
    2.8920   -4.2280   24.7180 C   0  0  0  0  0  0  0  0  0  0  0  0
    3.3690   -4.9490   23.4680 C   0  0  0  0  0  0  0  0  0  0  0  0
    4.8640   -5.1680   23.2250 C   0  0  0  0  0  0  0  0  0  0  0  0
    5.3870   -5.9770   21.8070 Cl  0  0  0  0  0  0  0  0  0  0  0  0
    7.4550   -0.3900   21.0790 N   0  0  0  0  0  0  0  0  0  0  0  0
    6.6790    0.1380   20.0390 C   0  0  0  0  0  0  0  0  0  0  0  0
    5.4200    0.9260   20.3700 C   0  0  0  0  0  0  0  0  0  0  0  0
    4.6820    1.4550   19.3220 C   0  0  0  0  0  0  0  0  0  0  0  0
    5.1350    1.2350   18.0280 C   0  0  0  0  0  0  0  0  0  0  0  0
    6.2360    0.5360   17.7130 N   0  0  0  0  0  0  0  0  0  0  0  0
    6.9800    0.0040   18.7070 C   0  0  0  0  0  0  0  0  0  0  0  0
  1  2  2  0
  2  3  1  0
  3  4  1  0
  4  5  1  0
  5  6  1  0
  6  7  1  0
  7  8  2  0
  7  9  1  0
  9 10  2  0
 10 11  1  0
 11 12  2  0
 12 13  1  0
  9 14  1  0
 13 14  2  0
 14 15  1  0
  2 16  1  0
 16 17  1  0
 17 18  2  0
 18 19  1  0
 19 20  2  0
 20 21  1  0
 17 22  1  0
 21 22  2  0
M  END
