pyridine_urea_1270
     RDKit          3D

 20 21  0  0  0  0  0  0  0  0999 V2000
    8.7720   -3.9030   23.1220 C   0  0  0  0  0  0  0  0  0  0  0  0
    9.8660   -2.8600   23.4590 C   0  0  0  0  0  0  0  0  0  0  0  0
   11.0160   -3.4990   24.2350 C   0  0  0  0  0  0  0  0  0  0  0  0
   10.5170   -2.3760   22.2950 O   0  0  0  0  0  0  0  0  0  0  0  0
   11.3730   -1.2620   22.5980 C   0  0  1  0  0  0  0  0  0  0  0  0
   10.5850   -0.1330   22.6270 C   0  0  0  0  0  0  0  0  0  0  0  0
    9.1850   -0.4640   22.4280 N   0  0  0  0  0  0  0  0  0  0  0  0
    8.5100    0.2930   21.5060 C   0  0  0  0  0  0  0  0  0  0  0  0
    8.9050    1.4140   21.1800 O   0  0  0  0  0  0  0  0  0  0  0  0
    7.3810   -0.3420   21.0390 N   0  0  0  0  0  0  0  0  0  0  0  0
    6.5660    0.2120   20.0560 C   0  0  0  0  0  0  0  0  0  0  0  0
    5.3900    0.9520   20.3010 C   0  0  0  0  0  0  0  0  0  0  0  0
    4.6660    1.4880   19.2410 C   0  0  0  0  0  0  0  0  0  0  0  0
    5.1130    1.2850   17.9440 C   0  0  0  0  0  0  0  0  0  0  0  0
    6.2360    0.5620   17.7000 N   0  0  0  0  0  0  0  0  0  0  0  0
    6.9570    0.0270   18.7480 C   0  0  0  0  0  0  0  0  0  0  0  0
   11.8770   -1.4190   24.0130 C   0  0  0  0  0  0  0  0  0  0  0  0
   13.1820   -1.1180   23.9860 C   0  0  0  0  0  0  0  0  0  0  0  0
   13.7100   -1.5070   22.9770 O   0  0  0  0  0  0  0  0  0  0  0  0
   12.7700   -1.1670   21.9590 C   0  0  0  0  0  0  0  0  0  0  0  0
  1  2  1  0
  2  3  1  0
  2  4  1  0
  5  4  1  0
  5  6  1  1
  6  7  1  0
  7  8  1  0
  8  9  2  0
  8 10  1  0
 10 11  1  0
 11 12  2  0
 12 13  1  0
 13 14  2  0
 14 15  1  0
 11 16  1  0
 15 16  2  0
  5 17  1  0
 17 18  1  0
 18 19  1  0
  5 20  1  0
 19 20  1  0
M  END
