pyridine_urea_11801
     RDKit          3D

 25 27  0  0  0  0  0  0  0  0999 V2000
   13.3080   -0.6340   22.7190 C   0  0  0  0  0  0  0  0  0  0  0  0
   12.4620   -0.2480   23.8810 C   0  0  0  0  0  0  0  0  0  0  0  0
   11.5230    0.7520   23.7090 C   0  0  0  0  0  0  0  0  0  0  0  0
   10.1770    0.4110   23.7090 C   0  0  0  0  0  0  0  0  0  0  0  0
   10.4390   -0.4080   22.8700 C   0  0  0  0  0  0  0  0  0  0  0  0
    9.0640   -0.7990   22.6300 N   0  0  0  0  0  0  0  0  0  0  0  0
    8.5010   -0.0230   21.5790 C   0  0  0  0  0  0  0  0  0  0  0  0
    8.9780    1.0970   21.2760 O   0  0  0  0  0  0  0  0  0  0  0  0
    7.3380   -0.6180   20.9060 N   0  0  0  0  0  0  0  0  0  0  0  0
    6.5680    0.0370   20.0030 C   0  0  0  0  0  0  0  0  0  0  0  0
    5.2190    0.6340   20.4400 C   0  0  0  0  0  0  0  0  0  0  0  0
    4.4870    1.3110   19.4870 C   0  0  0  0  0  0  0  0  0  0  0  0
    4.9850    1.4280   18.1950 C   0  0  0  0  0  0  0  0  0  0  0  0
    6.1470    0.9120   17.7910 N   0  0  0  0  0  0  0  0  0  0  0  0
    6.9060    0.2340   18.6770 C   0  0  0  0  0  0  0  0  0  0  0  0
   11.2290   -1.0040   22.1610 C   0  0  0  0  0  0  0  0  0  0  0  0
   10.0050   -1.4460   21.9870 N   0  0  0  0  0  0  0  0  0  0  0  0
    9.3020   -0.5310   23.0340 N   0  0  0  0  0  0  0  0  0  0  0  0
    7.9590   -0.8330   23.1230 C   0  0  0  0  0  0  0  0  0  0  0  0
    6.8820    0.2130   23.2260 C   0  0  0  0  0  0  0  0  0  0  0  0
    5.4630   -0.3140   23.3220 C   0  0  0  0  0  0  0  0  0  0  0  0
    5.2250   -1.6820   23.3120 C   0  0  0  0  0  0  0  0  0  0  0  0
    6.2470   -2.6310   23.2170 C   0  0  0  0  0  0  0  0  0  0  0  0
    7.5850   -2.2100   23.1270 C   0  0  0  0  0  0  0  0  0  0  0  0
    8.5470   -3.2160   23.0410 C   0  0  0  0  0  0  0  0  0  0  0  0
  1  2  1  0
  2  3  1  0
  3  4  1  0
  4  5  2  0
  5  6  1  0
  6  7  1  0
  7  8  2  0
  7  9  1  0
  9 10  1  0
 10 11  2  0
 11 12  1  0
 12 13  2  0
 13 14  1  0
 10 15  1  0
 14 15  2  0
  5 16  1  0
 16 17  2  0
  4 18  1  0
 17 18  1  0
 18 19  1  0
 19 20  2  0
 20 21  1  0
 21 22  2  0
 22 23  1  0
 19 24  1  0
 23 24  2  0
 24 25  1  0
M  END
