pyridine_urea_5841
     RDKit          3D

 23 25  0  0  0  0  0  0  0  0999 V2000
    8.2330    0.8530   21.3810 O   0  0  0  0  0  0  0  0  0  0  0  0
    7.9630   -0.3360   21.5100 C   0  0  0  0  0  0  0  0  0  0  0  0
    6.7290   -0.8810   21.0110 N   0  0  0  0  0  0  0  0  0  0  0  0
    6.1930   -0.1280   19.9860 C   0  0  0  0  0  0  0  0  0  0  0  0
    5.0170    0.5880   20.1780 C   0  0  0  0  0  0  0  0  0  0  0  0
    4.5170    1.3470   19.1200 C   0  0  0  0  0  0  0  0  0  0  0  0
    5.2140    1.3610   17.9090 C   0  0  0  0  0  0  0  0  0  0  0  0
    6.3480    0.6680   17.7140 N   0  0  0  0  0  0  0  0  0  0  0  0
    6.8150   -0.0630   18.7550 C   0  0  0  0  0  0  0  0  0  0  0  0
    8.7790   -1.2610   22.0740 N   0  0  0  0  0  0  0  0  0  0  0  0
   10.0980   -0.8330   21.7690 C   0  0  2  0  0  0  0  0  0  0  0  0
   11.2970   -1.7860   21.7900 C   0  0  0  0  0  0  0  0  0  0  0  0
   12.3490   -1.1230   22.3520 C   0  0  0  0  0  0  0  0  0  0  0  0
   11.7620   -0.4250   23.3720 C   0  0  1  0  0  0  0  0  0  0  0  0
   12.5170    0.2690   24.1160 C   0  0  0  0  0  0  0  0  0  0  0  0
   12.9940    1.3200   23.7900 O   0  0  0  0  0  0  0  0  0  0  0  0
   12.5180   -0.5230   25.2460 N   0  0  0  0  0  0  0  0  0  0  0  0
   13.1390   -1.7920   25.2780 C   0  0  0  0  0  0  0  0  0  0  0  0
   13.1550   -2.3920   24.1010 C   0  0  0  0  0  0  0  0  0  0  0  0
   11.8440   -2.8250   23.9190 C   0  0  0  0  0  0  0  0  0  0  0  0
   10.8010   -2.0130   24.4290 C   0  0  0  0  0  0  0  0  0  0  0  0
   11.0950   -0.8700   25.2420 C   0  0  0  0  0  0  0  0  0  0  0  0
   10.5890    0.1930   22.7230 C   0  0  0  0  0  0  0  0  0  0  0  0
  1  2  2  0
  2  3  1  0
  3  4  1  0
  4  5  2  0
  5  6  1  0
  6  7  2  0
  7  8  1  0
  4  9  1  0
  8  9  2  0
  2 10  1  0
 11 10  1  1
 11 12  1  0
 12 13  1  0
 13 14  1  0
 14 15  1  6
 15 16  2  0
 15 17  1  0
 17 18  1  0
 18 19  1  0
 19 20  1  0
 20 21  1  0
 17 22  1  0
 21 22  1  0
 11 23  1  0
 14 23  1  0
M  END
