pyridine_urea_9273
     RDKit          3D

 18 18  0  0  0  0  0  0  0  0999 V2000
   11.2710   -3.3080   25.2630 C   0  0  0  0  0  0  0  0  0  0  0  0
    9.9240   -3.9150   25.5420 C   0  0  0  0  0  0  0  0  0  0  0  0
    9.8280   -5.2420   25.9620 C   0  0  0  0  0  0  0  0  0  0  0  0
    9.0670   -3.7020   24.3840 N   0  0  0  0  0  0  0  0  0  0  0  0
    8.5940   -2.4860   23.9050 C   0  0  0  0  0  0  0  0  0  0  0  0
    7.7340   -1.8460   24.4950 O   0  0  0  0  0  0  0  0  0  0  0  0
    9.0540   -1.8960   22.7370 C   0  0  2  0  0  0  0  0  0  0  0  0
   10.3430   -2.2880   22.3720 C   0  0  0  0  0  0  0  0  0  0  0  0
    8.8670   -0.5650   22.6570 N   0  0  0  0  0  0  0  0  0  0  0  0
    8.3210    0.0520   21.5680 C   0  0  0  0  0  0  0  0  0  0  0  0
    8.8800    1.2930   21.1180 O   0  0  0  0  0  0  0  0  0  0  0  0
    7.2570   -0.5950   21.0380 N   0  0  0  0  0  0  0  0  0  0  0  0
    6.5780    0.0260   20.0430 C   0  0  0  0  0  0  0  0  0  0  0  0
    5.4410    0.7570   20.3560 C   0  0  0  0  0  0  0  0  0  0  0  0
    4.7350    1.4120   19.3430 C   0  0  0  0  0  0  0  0  0  0  0  0
    5.1940    1.3130   18.0450 C   0  0  0  0  0  0  0  0  0  0  0  0
    6.2840    0.6070   17.7160 N   0  0  0  0  0  0  0  0  0  0  0  0
    6.9470   -0.0180   18.7170 C   0  0  0  0  0  0  0  0  0  0  0  0
  1  2  1  0
  2  3  1  0
  2  4  1  0
  4  5  1  0
  5  6  2  0
  5  7  1  0
  7  8  1  1
  7  9  1  0
  9 10  1  0
 10 11  2  0
 10 12  1  0
 12 13  1  0
 13 14  2  0
 14 15  1  0
 15 16  2  0
 16 17  1  0
 13 18  1  0
 17 18  2  0
M  END
