pyridine_urea_13105
     RDKit          3D

 18 18  0  0  0  0  0  0  0  0999 V2000
    8.8570    1.1070   21.2030 O   0  0  0  0  0  0  0  0  0  0  0  0
    8.3490    0.0160   21.5060 C   0  0  0  0  0  0  0  0  0  0  0  0
    8.8100   -0.8430   22.4630 N   0  0  0  0  0  0  0  0  0  0  0  0
   10.1430   -0.9310   22.8770 C   0  0  0  0  0  0  0  0  0  0  0  0
   10.5250   -0.0740   23.9050 C   0  0  1  0  0  0  0  0  0  0  0  0
   10.8560   -0.8270   24.8120 O   0  0  0  0  0  0  0  0  0  0  0  0
   11.6480    0.6800   23.6000 C   0  0  0  0  0  0  0  0  0  0  0  0
   12.7280   -0.1010   23.2850 C   0  0  0  0  0  0  0  0  0  0  0  0
   13.7620    0.4920   22.7170 F   0  0  0  0  0  0  0  0  0  0  0  0
   13.1720   -0.7640   24.3830 F   0  0  0  0  0  0  0  0  0  0  0  0
   12.4050   -1.0950   22.4140 F   0  0  0  0  0  0  0  0  0  0  0  0
    7.2160   -0.5190   20.9490 N   0  0  0  0  0  0  0  0  0  0  0  0
    6.4850    0.1120   20.0240 C   0  0  0  0  0  0  0  0  0  0  0  0
    5.2980    0.8320   20.2720 C   0  0  0  0  0  0  0  0  0  0  0  0
    4.5800    1.5290   19.0960 C   0  0  0  0  0  0  0  0  0  0  0  0
    5.1770    1.3920   17.8590 C   0  0  0  0  0  0  0  0  0  0  0  0
    6.3020    0.6850   17.6890 N   0  0  0  0  0  0  0  0  0  0  0  0
    6.9500    0.0510   18.7280 C   0  0  0  0  0  0  0  0  0  0  0  0
  1  2  2  0
  2  3  1  0
  3  4  1  0
  4  5  1  0
  5  6  1  1
  5  7  1  0
  7  8  1  0
  8  9  1  0
  8 10  1  0
  8 11  1  0
  2 12  1  0
 12 13  1  0
 13 14  2  0
 14 15  1  0
 15 16  2  0
 16 17  1  0
 13 18  1  0
 17 18  2  0
M  END
