pyridine_urea_6964
     RDKit          3D

 20 21  0  0  0  0  0  0  0  0999 V2000
    9.0340    1.2370   21.2590 O   0  0  0  0  0  0  0  0  0  0  0  0
    8.5640    0.1320   21.5660 C   0  0  0  0  0  0  0  0  0  0  0  0
    9.1410   -0.7520   22.4690 N   0  0  0  0  0  0  0  0  0  0  0  0
    8.8990   -2.1440   22.5480 C   0  0  0  0  0  0  0  0  0  0  0  0
    8.5160   -2.7540   23.7350 C   0  0  0  0  0  0  0  0  0  0  0  0
    7.2640   -3.3500   23.7540 N   0  0  0  0  0  0  0  0  0  0  0  0
    7.0680   -4.7950   23.7360 C   0  0  0  0  0  0  0  0  0  0  0  0
    7.8800   -5.6870   23.9530 O   0  0  0  0  0  0  0  0  0  0  0  0
    5.8290   -5.3150   23.4390 C   0  0  0  0  0  0  0  0  0  0  0  0
    4.6380   -4.6390   23.5870 C   0  0  0  0  0  0  0  0  0  0  0  0
    3.5970   -5.6170   23.1470 C   0  0  0  0  0  0  0  0  0  0  0  0
    4.2790   -6.7600   22.7880 N   0  0  0  0  0  0  0  0  0  0  0  0
    5.6740   -6.6200   22.9510 N   0  0  0  0  0  0  0  0  0  0  0  0
    7.3730   -0.3820   21.0740 N   0  0  0  0  0  0  0  0  0  0  0  0
    6.6110    0.1690   20.0340 C   0  0  0  0  0  0  0  0  0  0  0  0
    5.4500    0.8890   20.3500 C   0  0  0  0  0  0  0  0  0  0  0  0
    4.7030    1.4500   19.3200 C   0  0  0  0  0  0  0  0  0  0  0  0
    5.1420    1.2730   18.0200 C   0  0  0  0  0  0  0  0  0  0  0  0
    6.2420    0.5840   17.7010 N   0  0  0  0  0  0  0  0  0  0  0  0
    6.9400    0.0520   18.7040 C   0  0  0  0  0  0  0  0  0  0  0  0
  1  2  2  0
  2  3  1  0
  3  4  1  0
  4  5  1  0
  5  6  1  0
  6  7  1  0
  7  8  2  0
  7  9  1  0
  9 10  1  0
 10 11  2  0
 11 12  1  0
  9 13  2  0
 12 13  1  0
  2 14  1  0
 14 15  1  0
 15 16  2  0
 16 17  1  0
 17 18  2  0
 18 19  1  0
 15 20  1  0
 19 20  2  0
M  END
