pyridine_urea_5295
     RDKit          3D

 19 20  0  0  0  0  0  0  0  0999 V2000
   12.1130    3.6840   22.4900 C   0  0  0  0  0  0  0  0  0  0  0  0
   12.8680    2.5150   23.0630 C   0  0  0  0  0  0  0  0  0  0  0  0
   12.3450    1.2400   22.9790 C   0  0  0  0  0  0  0  0  0  0  0  0
   13.0810    0.2320   22.4850 C   0  0  0  0  0  0  0  0  0  0  0  0
   12.4700   -0.9340   22.4020 C   0  0  0  0  0  0  0  0  0  0  0  0
   11.0420   -1.0610   22.8690 C   0  0  0  0  0  0  0  0  0  0  0  0
   10.1750   -0.0710   23.4350 C   0  0  0  0  0  0  0  0  0  0  0  0
    9.5240   -1.4420   23.3260 C   0  0  0  0  0  0  0  0  0  0  0  0
    8.6160   -1.4350   22.1470 N   0  0  0  0  0  0  0  0  0  0  0  0
    8.1710   -0.3380   21.4870 C   0  0  0  0  0  0  0  0  0  0  0  0
    8.8200    0.6940   21.3390 O   0  0  0  0  0  0  0  0  0  0  0  0
    6.9080   -0.5810   21.0370 N   0  0  0  0  0  0  0  0  0  0  0  0
    6.3220    0.0830   19.9750 C   0  0  0  0  0  0  0  0  0  0  0  0
    5.1430    0.7980   20.1870 C   0  0  0  0  0  0  0  0  0  0  0  0
    4.5710    1.4730   19.1090 C   0  0  0  0  0  0  0  0  0  0  0  0
    5.1820    1.4180   17.8660 C   0  0  0  0  0  0  0  0  0  0  0  0
    6.3110    0.7250   17.6570 N   0  0  0  0  0  0  0  0  0  0  0  0
    6.8490    0.0790   18.7040 C   0  0  0  0  0  0  0  0  0  0  0  0
   11.0410    1.0620   23.4060 C   0  0  0  0  0  0  0  0  0  0  0  0
  1  2  3  0
  2  3  1  0
  3  4  2  0
  4  5  1  0
  5  6  2  0
  6  7  1  0
  7  8  1  0
  8  9  1  0
  9 10  1  0
 10 11  2  0
 10 12  1  0
 12 13  1  0
 13 14  2  0
 14 15  1  0
 15 16  2  0
 16 17  1  0
 13 18  1  0
 17 18  2  0
  3 19  1  0
  7 19  2  0
M  END
