pyridine_urea_5854
     RDKit          3D

 22 24  0  0  0  0  0  0  0  0999 V2000
    7.1110   -0.0660   26.7000 O   0  0  0  0  0  0  0  0  0  0  0  0
    7.7390    0.4730   25.7980 C   0  0  0  0  0  0  0  0  0  0  0  0
    9.0870    0.1100   25.3460 C   0  0  0  0  0  0  0  0  0  0  0  0
    9.5440    1.0140   24.3920 C   0  0  1  0  0  0  0  0  0  0  0  0
   10.5120    0.3310   23.6540 C   0  0  0  0  0  0  0  0  0  0  0  0
   11.8460    0.6750   23.9110 C   0  0  0  0  0  0  0  0  0  0  0  0
   13.0200    0.0450   23.2370 C   0  0  0  0  0  0  0  0  0  0  0  0
   12.7020   -1.0200   22.2420 C   0  0  0  0  0  0  0  0  0  0  0  0
   11.2640   -1.3680   21.9690 C   0  0  0  0  0  0  0  0  0  0  0  0
   10.2920   -0.6800   22.6660 C   0  0  0  0  0  0  0  0  0  0  0  0
    8.9600   -0.9740   22.3770 N   0  0  0  0  0  0  0  0  0  0  0  0
    8.2980   -0.1680   21.4600 C   0  0  0  0  0  0  0  0  0  0  0  0
    8.8020    1.1410   21.1240 O   0  0  0  0  0  0  0  0  0  0  0  0
    7.1470   -0.7320   20.9470 N   0  0  0  0  0  0  0  0  0  0  0  0
    6.4110   -0.0480   20.0190 C   0  0  0  0  0  0  0  0  0  0  0  0
    5.2320    0.6350   20.2440 C   0  0  0  0  0  0  0  0  0  0  0  0
    4.5850    1.3100   19.2300 C   0  0  0  0  0  0  0  0  0  0  0  0
    5.1590    1.2850   17.9690 C   0  0  0  0  0  0  0  0  0  0  0  0
    6.3010    0.6260   17.7070 N   0  0  0  0  0  0  0  0  0  0  0  0
    6.8910   -0.0200   18.7290 C   0  0  0  0  0  0  0  0  0  0  0  0
    8.1370    1.4680   23.8310 C   0  0  0  0  0  0  0  0  0  0  0  0
    7.3890    1.5090   24.9850 N   0  0  0  0  0  0  0  0  0  0  0  0
  1  2  2  0
  2  3  1  0
  3  4  1  0
  4  5  1  6
  5  6  2  0
  6  7  1  0
  7  8  2  0
  8  9  1  0
  5 10  1  0
  9 10  2  0
 10 11  1  0
 11 12  1  0
 12 13  2  0
 12 14  1  0
 14 15  1  0
 15 16  2  0
 16 17  1  0
 17 18  2  0
 18 19  1  0
 15 20  1  0
 19 20  2  0
  4 21  1  0
  2 22  1  0
 21 22  1  0
M  END
