pyridine_urea_10440
     RDKit          3D

 22 23  0  0  0  0  0  0  0  0999 V2000
   13.3150    4.4880   21.3960 C   0  0  0  0  0  0  0  0  0  0  0  0
   12.7080    3.1830   21.4770 O   0  0  0  0  0  0  0  0  0  0  0  0
   13.3350    2.4470   22.4650 C   0  0  0  0  0  0  0  0  0  0  0  0
   13.4170    2.9990   23.5630 O   0  0  0  0  0  0  0  0  0  0  0  0
   13.8530    1.0480   22.2490 N   0  0  0  0  0  0  0  0  0  0  0  0
   12.7850    0.2630   22.2970 C   0  0  0  0  0  0  0  0  0  0  0  0
   12.0030    0.5170   23.5820 C   0  0  0  0  0  0  0  0  0  0  0  0
   10.7190   -0.1210   23.8840 C   0  0  0  0  0  0  0  0  0  0  0  0
   10.1780   -0.9310   22.9790 C   0  0  0  0  0  0  0  0  0  0  0  0
    8.9390   -1.6410   22.7890 N   0  0  0  0  0  0  0  0  0  0  0  0
    8.3980   -1.2080   21.5780 C   0  0  0  0  0  0  0  0  0  0  0  0
    9.0610   -1.4710   20.4070 O   0  0  0  0  0  0  0  0  0  0  0  0
    7.1440   -0.4350   21.6610 N   0  0  0  0  0  0  0  0  0  0  0  0
    6.5880    0.0580   20.4780 C   0  0  0  0  0  0  0  0  0  0  0  0
    5.3740    0.6990   20.5590 C   0  0  0  0  0  0  0  0  0  0  0  0
    4.7910    1.2150   19.4140 C   0  0  0  0  0  0  0  0  0  0  0  0
    5.4360    1.0810   18.1600 C   0  0  0  0  0  0  0  0  0  0  0  0
    6.6110    0.4810   18.0310 N   0  0  0  0  0  0  0  0  0  0  0  0
    7.1400   -0.0120   19.1780 C   0  0  0  0  0  0  0  0  0  0  0  0
   11.2970   -0.8540   22.0070 C   0  0  0  0  0  0  0  0  0  0  0  0
   12.3020   -0.7850   21.1340 C   0  0  0  0  0  0  0  0  0  0  0  0
   12.6420   -1.3350   19.8930 F   0  0  0  0  0  0  0  0  0  0  0  0
  1  2  1  0
  2  3  1  0
  3  4  2  0
  3  5  1  0
  5  6  1  0
  6  7  2  0
  7  8  1  0
  8  9  2  0
  9 10  1  0
 10 11  1  0
 11 12  2  0
 11 13  1  0
 13 14  1  0
 14 15  2  0
 15 16  1  0
 16 17  2  0
 17 18  1  0
 14 19  1  0
 18 19  2  0
  9 20  1  0
  6 21  1  0
 20 21  2  0
 21 22  1  0
M  END
