pyridine_urea_3113
     RDKit          3D

 21 22  0  0  0  0  0  0  0  0999 V2000
    8.4010   -2.0660   23.8050 C   0  0  0  0  0  0  0  0  0  0  0  0
    9.6740   -2.1120   24.4400 O   0  0  0  0  0  0  0  0  0  0  0  0
   10.6450   -1.2050   24.0740 C   0  0  0  0  0  0  0  0  0  0  0  0
   10.8960   -0.0470   24.6640 C   0  0  0  0  0  0  0  0  0  0  0  0
   11.9120    0.7160   24.1530 C   0  0  0  0  0  0  0  0  0  0  0  0
   12.6610    0.3430   23.0930 C   0  0  0  0  0  0  0  0  0  0  0  0
   12.5890   -0.9020   22.2180 C   0  0  0  0  0  0  0  0  0  0  0  0
   12.0430   -2.0790   21.8710 C   0  0  2  0  0  0  0  0  0  0  0  0
   12.1070   -2.4870   20.7270 O   0  0  0  0  0  0  0  0  0  0  0  0
   10.5230   -2.0210   22.3010 C   0  0  0  0  0  0  0  0  0  0  0  0
    9.5900   -1.3450   21.2940 N   0  0  0  0  0  0  0  0  0  0  0  0
    8.7160   -0.2720   21.4200 C   0  0  0  0  0  0  0  0  0  0  0  0
    9.1070    0.8450   21.7170 O   0  0  0  0  0  0  0  0  0  0  0  0
    7.3990   -0.6050   21.1220 N   0  0  0  0  0  0  0  0  0  0  0  0
    6.6440    0.0050   20.1000 C   0  0  0  0  0  0  0  0  0  0  0  0
    5.4910    0.7260   20.4310 C   0  0  0  0  0  0  0  0  0  0  0  0
    4.7460    1.3480   19.4150 C   0  0  0  0  0  0  0  0  0  0  0  0
    5.1760    1.2290   18.1040 C   0  0  0  0  0  0  0  0  0  0  0  0
    6.2690    0.5400   17.7570 N   0  0  0  0  0  0  0  0  0  0  0  0
    6.9770   -0.0560   18.7550 C   0  0  0  0  0  0  0  0  0  0  0  0
   11.4030   -1.5690   22.9860 C   0  0  0  0  0  0  0  0  0  0  0  0
  1  2  1  0
  2  3  1  0
  3  4  2  0
  4  5  1  0
  5  6  2  0
  6  7  1  0
  7  8  1  0
  8  9  1  6
  8 10  1  0
 10 11  1  0
 11 12  1  0
 12 13  2  0
 12 14  1  0
 14 15  1  0
 15 16  2  0
 16 17  1  0
 17 18  2  0
 18 19  1  0
 15 20  1  0
 19 20  2  0
  3 21  1  0
  7 21  2  0
M  END
