pyridine_urea_14999
     RDKit          3D

 18 19  0  0  0  0  0  0  0  0999 V2000
   13.2340   -1.8620   25.0740 C   0  0  0  0  0  0  0  0  0  0  0  0
   13.5050   -1.4790   23.7760 N   0  0  0  0  0  0  0  0  0  0  0  0
   13.4480   -2.5830   22.8760 C   0  0  0  0  0  0  0  0  0  0  0  0
   12.7160   -0.4460   23.3690 C   0  0  0  0  0  0  0  0  0  0  0  0
   11.4240   -1.1670   23.1830 C   0  0  1  0  0  0  0  0  0  0  0  0
   10.3360   -0.7610   24.0640 C   0  0  0  0  0  0  0  0  0  0  0  0
    9.4810   -1.2140   22.9730 C   0  0  1  0  0  0  0  0  0  0  0  0
    8.4970   -0.3150   22.7380 N   0  0  0  0  0  0  0  0  0  0  0  0
    8.1850    0.2490   21.5030 C   0  0  0  0  0  0  0  0  0  0  0  0
    8.7550    1.2540   21.0620 O   0  0  0  0  0  0  0  0  0  0  0  0
    7.1940   -0.4730   20.9490 N   0  0  0  0  0  0  0  0  0  0  0  0
    6.5060    0.1310   19.9690 C   0  0  0  0  0  0  0  0  0  0  0  0
    5.3450    0.8440   20.2810 C   0  0  0  0  0  0  0  0  0  0  0  0
    4.6670    1.4660   19.2470 C   0  0  0  0  0  0  0  0  0  0  0  0
    5.1510    1.3640   17.9540 C   0  0  0  0  0  0  0  0  0  0  0  0
    6.2560    0.6750   17.6430 N   0  0  0  0  0  0  0  0  0  0  0  0
    6.8930    0.0840   18.6600 C   0  0  0  0  0  0  0  0  0  0  0  0
   10.6920   -1.2350   21.9710 C   0  0  0  0  0  0  0  0  0  0  0  0
  1  2  1  0
  2  3  1  0
  2  4  1  0
  5  4  1  6
  5  6  1  0
  6  7  1  0
  7  8  1  6
  8  9  1  0
  9 10  2  0
  9 11  1  0
 11 12  1  0
 12 13  2  0
 13 14  1  0
 14 15  2  0
 15 16  1  0
 12 17  1  0
 16 17  2  0
  5 18  1  0
  7 18  1  0
M  END
