pyridine_urea_2068
     RDKit          3D

 23 25  0  0  0  0  0  0  0  0999 V2000
    8.7270    1.4350   21.1380 O   0  0  0  0  0  0  0  0  0  0  0  0
    8.4190    0.2440   21.2190 C   0  0  0  0  0  0  0  0  0  0  0  0
    7.1760   -0.2980   21.0290 N   0  0  0  0  0  0  0  0  0  0  0  0
    6.3640    0.2770   20.0770 C   0  0  0  0  0  0  0  0  0  0  0  0
    5.0330    0.9760   20.3580 C   0  0  0  0  0  0  0  0  0  0  0  0
    4.3830    1.5510   19.1150 C   0  0  0  0  0  0  0  0  0  0  0  0
    5.1030    1.3650   17.8180 C   0  0  0  0  0  0  0  0  0  0  0  0
    6.2630    0.7170   17.6880 N   0  0  0  0  0  0  0  0  0  0  0  0
    6.8410    0.2060   18.7810 C   0  0  0  0  0  0  0  0  0  0  0  0
    9.3210   -0.7210   21.4660 N   0  0  0  0  0  0  0  0  0  0  0  0
    9.2000   -1.4950   22.6300 C   0  0  2  0  0  0  0  0  0  0  0  0
    9.6360   -0.8320   23.7780 C   0  0  0  0  0  0  0  0  0  0  0  0
   10.7110   -1.4330   24.4350 C   0  0  0  0  0  0  0  0  0  0  0  0
   10.5590   -2.6050   24.1410 O   0  0  0  0  0  0  0  0  0  0  0  0
   10.3350   -2.5170   22.7640 C   0  0  2  0  0  0  0  0  0  0  0  0
   11.4610   -1.9770   22.2840 C   0  0  0  0  0  0  0  0  0  0  0  0
   12.4620   -2.2830   21.3180 C   0  0  0  0  0  0  0  0  0  0  0  0
   13.4120   -1.1830   21.3820 C   0  0  0  0  0  0  0  0  0  0  0  0
   13.1050   -0.2280   22.2610 C   0  0  0  0  0  0  0  0  0  0  0  0
   13.7230    1.1640   22.7490 Cl  0  0  0  0  0  0  0  0  0  0  0  0
   12.1820   -0.0650   23.0470 C   0  0  0  0  0  0  0  0  0  0  0  0
   12.4120    1.0750   23.6150 F   0  0  0  0  0  0  0  0  0  0  0  0
   11.1970   -0.8350   23.2650 C   0  0  0  0  0  0  0  0  0  0  0  0
  1  2  2  0
  2  3  1  0
  3  4  1  0
  4  5  2  0
  5  6  1  0
  6  7  2  0
  7  8  1  0
  4  9  1  0
  8  9  2  0
  2 10  1  0
 11 10  1  6
 11 12  1  0
 12 13  1  0
 13 14  1  0
 11 15  1  0
 14 15  1  0
 15 16  1  6
 16 17  2  0
 17 18  1  0
 18 19  2  0
 19 20  1  0
 19 21  1  0
 21 22  1  0
 16 23  1  0
 21 23  2  0
M  END
