pyridine_urea_8197
     RDKit          3D

 23 25  0  0  0  0  0  0  0  0999 V2000
    7.6930   -0.9520   29.3900 C   0  0  0  0  0  0  0  0  0  0  0  0
    7.9500   -0.1110   28.3170 N   0  0  0  0  0  0  0  0  0  0  0  0
    9.3390    0.1590   27.9670 C   0  0  0  0  0  0  0  0  0  0  0  0
   10.3410    0.6620   28.8540 O   0  0  0  0  0  0  0  0  0  0  0  0
    9.8040   -0.1470   26.4790 C   0  0  0  0  0  0  0  0  0  0  0  0
    8.9640   -0.1800   25.4590 C   0  0  0  0  0  0  0  0  0  0  0  0
    9.7120   -0.5000   24.2550 C   0  0  0  0  0  0  0  0  0  0  0  0
    9.2260   -0.6430   23.0610 C   0  0  0  0  0  0  0  0  0  0  0  0
   10.2040   -1.0020   22.0130 C   0  0  0  0  0  0  0  0  0  0  0  0
    9.3340   -1.1020   20.9510 N   0  0  0  0  0  0  0  0  0  0  0  0
    8.3610   -0.1200   21.0500 C   0  0  0  0  0  0  0  0  0  0  0  0
    8.6450    1.2970   21.1000 O   0  0  0  0  0  0  0  0  0  0  0  0
    7.0930   -0.5630   21.0440 N   0  0  0  0  0  0  0  0  0  0  0  0
    6.3710    0.0760   20.1150 C   0  0  0  0  0  0  0  0  0  0  0  0
    5.0680    0.8050   20.4000 C   0  0  0  0  0  0  0  0  0  0  0  0
    4.4300    1.4800   19.1990 C   0  0  0  0  0  0  0  0  0  0  0  0
    5.1700    1.3390   17.8860 C   0  0  0  0  0  0  0  0  0  0  0  0
    6.3170    0.6610   17.7530 N   0  0  0  0  0  0  0  0  0  0  0  0
    6.8680    0.0680   18.8180 C   0  0  0  0  0  0  0  0  0  0  0  0
   11.5900   -1.1650   22.2070 C   0  0  0  0  0  0  0  0  0  0  0  0
   11.9790   -0.9680   23.5220 C   0  0  0  0  0  0  0  0  0  0  0  0
   11.0230   -0.6590   24.4840 C   0  0  0  0  0  0  0  0  0  0  0  0
   11.0800   -0.4540   25.8120 N   0  0  0  0  0  0  0  0  0  0  0  0
  1  2  1  0
  2  3  1  0
  3  4  2  0
  3  5  1  0
  5  6  2  0
  6  7  1  0
  7  8  2  0
  8  9  1  0
  9 10  1  0
 10 11  1  0
 11 12  2  0
 11 13  1  0
 13 14  1  0
 14 15  2  0
 15 16  1  0
 16 17  2  0
 17 18  1  0
 14 19  1  0
 18 19  2  0
  9 20  2  0
 20 21  1  0
  7 22  1  0
 21 22  2  0
  5 23  1  0
 22 23  1  0
M  END
