pyridine_urea_12443
     RDKit          3D

 21 23  0  0  0  0  0  0  0  0999 V2000
   12.2040   -1.2250   24.3340 C   0  0  0  0  0  0  0  0  0  0  0  0
   10.7870   -0.8090   23.9470 C   0  0  2  0  0  0  0  0  0  0  0  0
   10.3160   -1.7770   22.8100 C   0  0  1  0  0  0  0  0  0  0  0  0
    8.8850   -1.7310   22.4540 N   0  0  0  0  0  0  0  0  0  0  0  0
    8.3320   -0.7050   21.6550 C   0  0  0  0  0  0  0  0  0  0  0  0
    8.8740    0.3810   21.4760 O   0  0  0  0  0  0  0  0  0  0  0  0
    7.0500   -1.0760   21.0860 N   0  0  0  0  0  0  0  0  0  0  0  0
    6.4370   -0.2860   20.1230 C   0  0  0  0  0  0  0  0  0  0  0  0
    5.2820    0.4380   20.4130 C   0  0  0  0  0  0  0  0  0  0  0  0
    4.6090    1.2990   19.3640 C   0  0  0  0  0  0  0  0  0  0  0  0
    5.2760    1.3110   18.0150 C   0  0  0  0  0  0  0  0  0  0  0  0
    6.4000    0.5840   17.8010 N   0  0  0  0  0  0  0  0  0  0  0  0
    6.9370   -0.1740   18.8210 C   0  0  0  0  0  0  0  0  0  0  0  0
   10.9220   -0.7870   21.9300 C   0  0  0  0  0  0  0  0  0  0  0  0
   10.7020    0.2280   23.0250 C   0  0  2  0  0  0  0  0  0  0  0  0
   11.4520    1.5380   22.8970 C   0  0  0  0  0  0  0  0  0  0  0  0
   12.7830    1.8900   22.8760 C   0  0  0  0  0  0  0  0  0  0  0  0
   13.1310    3.2600   22.7220 C   0  0  0  0  0  0  0  0  0  0  0  0
   12.1940    4.2670   22.5970 C   0  0  0  0  0  0  0  0  0  0  0  0
   10.8670    4.0020   22.6130 C   0  0  0  0  0  0  0  0  0  0  0  0
   10.4410    2.6930   22.7550 C   0  0  0  0  0  0  0  0  0  0  0  0
  2  1  1  6
  2  3  1  0
  3  4  1  6
  4  5  1  0
  5  6  2  0
  5  7  1  0
  7  8  1  0
  8  9  2  0
  9 10  1  0
 10 11  2  0
 11 12  1  0
  8 13  1  0
 12 13  2  0
  3 14  1  0
  2 15  1  0
 14 15  1  0
 15 16  1  1
 16 17  2  0
 17 18  1  0
 18 19  2  0
 19 20  1  0
 16 21  1  0
 20 21  2  0
M  END
