pyridine_urea_5450
     RDKit          3D

 18 18  0  0  0  0  0  0  0  0999 V2000
   13.0210   -2.0670   22.3260 C   0  0  0  0  0  0  0  0  0  0  0  0
   12.7500   -0.6900   22.0910 O   0  0  0  0  0  0  0  0  0  0  0  0
   13.0710    0.1530   23.2020 C   0  0  0  0  0  0  0  0  0  0  0  0
   11.7570    0.9330   23.5340 C   0  0  0  0  0  0  0  0  0  0  0  0
   10.7010    0.1430   23.9150 C   0  0  1  0  0  0  0  0  0  0  0  0
   11.1770   -0.7340   25.0720 C   0  0  0  0  0  0  0  0  0  0  0  0
    9.5800    0.8460   24.2770 O   0  0  0  0  0  0  0  0  0  0  0  0
   10.2220   -0.6040   22.8110 C   0  0  0  0  0  0  0  0  0  0  0  0
    8.7560   -0.6050   22.7530 N   0  0  0  0  0  0  0  0  0  0  0  0
    8.2540    0.0600   21.5480 C   0  0  0  0  0  0  0  0  0  0  0  0
    8.7220    1.1220   21.1100 O   0  0  0  0  0  0  0  0  0  0  0  0
    7.1630   -0.7070   21.0340 N   0  0  0  0  0  0  0  0  0  0  0  0
    6.5080   -0.0220   20.0350 C   0  0  0  0  0  0  0  0  0  0  0  0
    5.2380    0.7360   20.3790 C   0  0  0  0  0  0  0  0  0  0  0  0
    4.5590    1.4790   19.2520 C   0  0  0  0  0  0  0  0  0  0  0  0
    5.2290    1.3810   17.9060 C   0  0  0  0  0  0  0  0  0  0  0  0
    6.3560    0.6800   17.6880 N   0  0  0  0  0  0  0  0  0  0  0  0
    6.9450    0.0180   18.7190 C   0  0  0  0  0  0  0  0  0  0  0  0
  1  2  1  0
  2  3  1  0
  3  4  1  0
  4  5  1  0
  5  6  1  1
  5  7  1  0
  5  8  1  0
  8  9  1  0
  9 10  1  0
 10 11  2  0
 10 12  1  0
 12 13  1  0
 13 14  2  0
 14 15  1  0
 15 16  2  0
 16 17  1  0
 13 18  1  0
 17 18  2  0
M  END
