pyridine_urea_5075
     RDKit          3D

 20 22  0  0  0  0  0  0  0  0999 V2000
    8.8180    0.7790   21.4640 O   0  0  0  0  0  0  0  0  0  0  0  0
    8.4020   -0.3690   21.3640 C   0  0  0  0  0  0  0  0  0  0  0  0
    9.1280   -1.5240   21.5080 N   0  0  0  0  0  0  0  0  0  0  0  0
    9.8850   -1.9370   22.6290 C   0  0  0  0  0  0  0  0  0  0  0  0
   11.2120   -1.4990   22.6150 C   0  0  0  0  0  0  0  0  0  0  0  0
   12.6840   -0.8420   22.6390 C   0  0  0  0  0  0  0  0  0  0  0  0
   13.2540    0.5070   22.9050 C   0  0  0  0  0  0  0  0  0  0  0  0
   12.1190    1.1660   23.1580 C   0  0  0  0  0  0  0  0  0  0  0  0
   10.8550    0.6900   23.1570 C   0  0  0  0  0  0  0  0  0  0  0  0
   10.2320   -0.4340   22.9560 N   0  0  0  0  0  0  0  0  0  0  0  0
   11.2920   -0.7530   22.8400 C   0  0  0  0  0  0  0  0  0  0  0  0
   12.3280   -0.9860   23.5550 C   0  0  0  0  0  0  0  0  0  0  0  0
   12.8140   -0.0490   22.8190 C   0  0  0  0  0  0  0  0  0  0  0  0
    7.0880   -0.6290   21.0390 N   0  0  0  0  0  0  0  0  0  0  0  0
    6.3980    0.0280   20.0800 C   0  0  0  0  0  0  0  0  0  0  0  0
    5.2130    0.7360   20.2850 C   0  0  0  0  0  0  0  0  0  0  0  0
    4.6000    1.3870   19.2080 C   0  0  0  0  0  0  0  0  0  0  0  0
    5.2090    1.3000   17.9660 C   0  0  0  0  0  0  0  0  0  0  0  0
    6.3480    0.6200   17.7420 N   0  0  0  0  0  0  0  0  0  0  0  0
    6.9160   -0.0010   18.7910 C   0  0  0  0  0  0  0  0  0  0  0  0
  1  2  2  0
  2  3  1  0
  3  4  1  0
  4  5  1  0
  5  6  2  0
  6  7  1  0
  7  8  2  0
  8  9  1  0
  5 10  1  0
  9 10  2  0
  9 11  1  0
 11 12  1  0
  8 13  1  0
 12 13  1  0
  2 14  1  0
 14 15  1  0
 15 16  2  0
 16 17  1  0
 17 18  2  0
 18 19  1  0
 15 20  1  0
 19 20  2  0
M  END
