pyridine_urea_9938
     RDKit          3D

 25 27  0  0  0  0  0  0  0  0999 V2000
    8.8080    1.3180   21.0760 O   0  0  0  0  0  0  0  0  0  0  0  0
    8.4380    0.1870   21.4030 C   0  0  0  0  0  0  0  0  0  0  0  0
    9.1300   -0.6160   22.2550 N   0  0  0  0  0  0  0  0  0  0  0  0
    9.6550   -0.2260   23.4880 C   0  0  0  0  0  0  0  0  0  0  0  0
   10.1330    1.0320   23.8060 C   0  0  2  0  0  0  0  0  0  0  0  0
    9.3810    1.9360   23.4300 O   0  0  0  0  0  0  0  0  0  0  0  0
   11.4580    1.1300   23.4240 C   0  0  0  0  0  0  0  0  0  0  0  0
   11.1370    2.4470   23.1300 C   0  0  0  0  0  0  0  0  0  0  0  0
   12.2880    1.9000   22.9720 C   0  0  0  0  0  0  0  0  0  0  0  0
   12.1340    0.4500   23.4280 C   0  0  0  0  0  0  0  0  0  0  0  0
   12.6400   -0.7400   23.6490 C   0  0  0  0  0  0  0  0  0  0  0  0
   12.9020   -0.9810   24.9790 C   0  0  0  0  0  0  0  0  0  0  0  0
   13.4160   -2.1570   25.3610 C   0  0  0  0  0  0  0  0  0  0  0  0
   13.6560   -3.0670   24.4230 C   0  0  0  0  0  0  0  0  0  0  0  0
   13.3960   -2.8190   22.9900 C   0  0  0  0  0  0  0  0  0  0  0  0
   12.8730   -1.6240   22.6280 C   0  0  0  0  0  0  0  0  0  0  0  0
   13.3620    0.5200   23.0750 C   0  0  0  0  0  0  0  0  0  0  0  0
   12.7070    1.7550   22.9130 C   0  0  0  0  0  0  0  0  0  0  0  0
    7.2920   -0.4400   20.9870 N   0  0  0  0  0  0  0  0  0  0  0  0
    6.4550    0.1870   20.0080 C   0  0  0  0  0  0  0  0  0  0  0  0
    5.2740    0.8710   20.2540 C   0  0  0  0  0  0  0  0  0  0  0  0
    4.6010    1.4450   19.2060 C   0  0  0  0  0  0  0  0  0  0  0  0
    5.1140    1.3280   17.9210 C   0  0  0  0  0  0  0  0  0  0  0  0
    6.2430    0.6610   17.6540 N   0  0  0  0  0  0  0  0  0  0  0  0
    6.8790    0.1110   18.7000 C   0  0  0  0  0  0  0  0  0  0  0  0
  1  2  2  0
  2  3  1  0
  3  4  1  0
  4  5  1  0
  5  6  1  6
  5  7  1  0
  7  8  2  0
  8  9  1  0
  9 10  2  0
 10 11  1  0
 11 12  2  0
 12 13  1  0
 13 14  2  0
 14 15  1  0
 11 16  1  0
 15 16  2  0
 10 17  1  0
  7 18  1  0
 17 18  2  0
  2 19  1  0
 19 20  1  0
 20 21  2  0
 21 22  1  0
 22 23  2  0
 23 24  1  0
 20 25  1  0
 24 25  2  0
M  END
