pyridine_urea_11479
     RDKit          3D

 21 22  0  0  0  0  0  0  0  0999 V2000
   13.6740    0.8030   22.7370 C   0  0  0  0  0  0  0  0  0  0  0  0
   12.4370    1.5410   22.9590 C   0  0  0  0  0  0  0  0  0  0  0  0
   11.6220    0.5400   23.1720 C   0  0  0  0  0  0  0  0  0  0  0  0
   10.3220    0.5390   22.9060 C   0  0  0  0  0  0  0  0  0  0  0  0
    9.7180   -0.5670   23.1550 C   0  0  0  0  0  0  0  0  0  0  0  0
    8.3300   -0.7300   22.8790 N   0  0  0  0  0  0  0  0  0  0  0  0
    8.0280   -0.1190   21.6970 C   0  0  0  0  0  0  0  0  0  0  0  0
    8.7030    0.8150   21.2590 O   0  0  0  0  0  0  0  0  0  0  0  0
    6.8680   -0.6590   21.0360 N   0  0  0  0  0  0  0  0  0  0  0  0
    6.3140   -0.0270   19.9920 C   0  0  0  0  0  0  0  0  0  0  0  0
    5.0040    0.7450   20.1730 C   0  0  0  0  0  0  0  0  0  0  0  0
    4.4690    1.4040   19.0910 C   0  0  0  0  0  0  0  0  0  0  0  0
    5.1520    1.3360   17.8800 C   0  0  0  0  0  0  0  0  0  0  0  0
    6.3050    0.6560   17.6960 N   0  0  0  0  0  0  0  0  0  0  0  0
    6.8590   -0.0040   18.7290 C   0  0  0  0  0  0  0  0  0  0  0  0
   10.8250   -1.6450   23.7750 S   0  0  0  0  0  0  0  0  0  0  0  0
   12.2580   -0.6530   23.7160 C   0  0  0  0  0  0  0  0  0  0  0  0
   12.6320   -1.8590   24.2140 C   0  0  0  0  0  0  0  0  0  0  0  0
   13.4570   -1.9670   25.2920 O   0  0  0  0  0  0  0  0  0  0  0  0
   12.0660   -2.9450   23.4990 O   0  0  0  0  0  0  0  0  0  0  0  0
   10.7120   -3.1820   23.6620 C   0  0  0  0  0  0  0  0  0  0  0  0
  1  2  1  0
  2  3  1  0
  3  4  1  0
  4  5  2  0
  5  6  1  0
  6  7  1  0
  7  8  2  0
  7  9  1  0
  9 10  1  0
 10 11  2  0
 11 12  1  0
 12 13  2  0
 13 14  1  0
 10 15  1  0
 14 15  2  0
  5 16  1  0
  3 17  2  0
 16 17  1  0
 17 18  1  0
 18 19  2  0
 18 20  1  0
 20 21  1  0
M  END
