pyridine_urea_10589
     RDKit          3D

 21 22  0  0  0  0  0  0  0  0999 V2000
    8.4910   -0.5960   25.1160 C   0  0  0  0  0  0  0  0  0  0  0  0
    9.9280   -0.2220   26.1400 S   0  0  0  0  0  0  0  0  0  0  0  0
   11.2670   -0.6470   24.9510 C   0  0  0  0  0  0  0  0  0  0  0  0
   12.5020   -1.7610   25.0750 C   0  0  0  0  0  0  0  0  0  0  0  0
   13.5830   -2.0080   23.8840 C   0  0  0  0  0  0  0  0  0  0  0  0
   13.2930   -1.1100   22.7680 C   0  0  0  0  0  0  0  0  0  0  0  0
   12.3680   -0.7530   23.5160 C   0  0  0  0  0  0  0  0  0  0  0  0
   11.3680   -0.0730   23.7530 C   0  0  0  0  0  0  0  0  0  0  0  0
   10.6970    0.7980   23.0470 C   0  0  0  0  0  0  0  0  0  0  0  0
   10.1390   -0.1090   22.1690 C   0  0  1  0  0  0  0  0  0  0  0  0
   10.7380   -1.3680   22.0400 C   0  0  0  0  0  0  0  0  0  0  0  0
    8.7930   -0.3920   22.5030 N   0  0  0  0  0  0  0  0  0  0  0  0
    8.0170    0.2790   21.5040 C   0  0  0  0  0  0  0  0  0  0  0  0
    8.3700    1.3720   21.0430 O   0  0  0  0  0  0  0  0  0  0  0  0
    6.9190   -0.3990   21.1020 N   0  0  0  0  0  0  0  0  0  0  0  0
    6.3170    0.1560   20.0020 C   0  0  0  0  0  0  0  0  0  0  0  0
    5.0170    0.9170   20.1460 C   0  0  0  0  0  0  0  0  0  0  0  0
    4.5020    1.4740   19.0190 C   0  0  0  0  0  0  0  0  0  0  0  0
    5.1370    1.3510   17.8020 C   0  0  0  0  0  0  0  0  0  0  0  0
    6.2850    0.6730   17.6380 N   0  0  0  0  0  0  0  0  0  0  0  0
    6.8440    0.0930   18.7280 C   0  0  0  0  0  0  0  0  0  0  0  0
  1  2  1  0
  2  3  1  0
  3  4  2  0
  4  5  1  0
  5  6  2  0
  6  7  1  0
  3  8  1  0
  7  8  2  0
  8  9  1  0
  9 10  1  0
 10 11  1  1
 10 12  1  0
 12 13  1  0
 13 14  2  0
 13 15  1  0
 15 16  1  0
 16 17  2  0
 17 18  1  0
 18 19  2  0
 19 20  1  0
 16 21  1  0
 20 21  2  0
M  END
