pyridine_urea_496
     RDKit          3D

 25 27  0  0  0  0  0  0  0  0999 V2000
    8.4280    0.7630   21.0660 O   0  0  0  0  0  0  0  0  0  0  0  0
    7.7920   -0.2430   21.3600 C   0  0  0  0  0  0  0  0  0  0  0  0
    8.1960   -1.1540   22.2460 N   0  0  0  0  0  0  0  0  0  0  0  0
    9.3400   -0.8620   22.8990 C   0  0  0  0  0  0  0  0  0  0  0  0
    9.3150   -0.5770   24.2500 C   0  0  0  0  0  0  0  0  0  0  0  0
   10.4590   -0.2800   24.9080 C   0  0  0  0  0  0  0  0  0  0  0  0
   11.5880   -0.2790   24.1860 C   0  0  0  0  0  0  0  0  0  0  0  0
   12.7010   -0.0300   24.7490 C   0  0  0  0  0  0  0  0  0  0  0  0
   13.4500   -0.9560   24.2290 N   0  0  0  0  0  0  0  0  0  0  0  0
   13.2030   -2.2280   24.5650 C   0  0  0  0  0  0  0  0  0  0  0  0
   13.8470   -2.9750   25.5240 O   0  0  0  0  0  0  0  0  0  0  0  0
   12.2010   -2.7740   23.8470 C   0  0  0  0  0  0  0  0  0  0  0  0
   12.6180   -2.7280   22.5090 C   0  0  0  0  0  0  0  0  0  0  0  0
   12.8560   -1.4780   22.0250 C   0  0  0  0  0  0  0  0  0  0  0  0
   13.4630   -0.6000   22.8960 C   0  0  0  0  0  0  0  0  0  0  0  0
   13.9310    0.4310   22.4800 O   0  0  0  0  0  0  0  0  0  0  0  0
   11.6150   -0.5480   22.8460 C   0  0  0  0  0  0  0  0  0  0  0  0
   10.5050   -0.8510   22.1570 C   0  0  0  0  0  0  0  0  0  0  0  0
    6.5850   -0.5750   20.8480 N   0  0  0  0  0  0  0  0  0  0  0  0
    6.0760    0.1100   19.8350 C   0  0  0  0  0  0  0  0  0  0  0  0
    4.8810    0.7770   20.0130 C   0  0  0  0  0  0  0  0  0  0  0  0
    4.4080    1.4980   18.9390 C   0  0  0  0  0  0  0  0  0  0  0  0
    5.1340    1.5170   17.7600 C   0  0  0  0  0  0  0  0  0  0  0  0
    6.3190    0.8550   17.5570 N   0  0  0  0  0  0  0  0  0  0  0  0
    6.7420    0.1620   18.6430 C   0  0  0  0  0  0  0  0  0  0  0  0
  1  2  2  0
  2  3  1  0
  3  4  1  0
  4  5  2  0
  5  6  1  0
  6  7  2  0
  7  8  1  0
  8  9  1  0
  9 10  1  0
 10 11  2  0
 10 12  1  0
 12 13  1  0
 13 14  1  0
  9 15  1  0
 14 15  1  0
 15 16  2  0
  7 17  1  0
  4 18  1  0
 17 18  2  0
  2 19  1  0
 19 20  1  0
 20 21  2  0
 21 22  1  0
 22 23  2  0
 23 24  1  0
 20 25  1  0
 24 25  2  0
M  END
