pyridine_urea_4117
     RDKit          3D

 25 27  0  0  0  0  0  0  0  0999 V2000
    9.8160   -2.9610   23.4660 C   0  0  0  0  0  0  0  0  0  0  0  0
   10.7200   -1.7830   23.5400 C   0  0  0  0  0  0  0  0  0  0  0  0
   12.0130   -1.8530   23.9420 C   0  0  0  0  0  0  0  0  0  0  0  0
   12.8170   -0.7880   24.0260 C   0  0  0  0  0  0  0  0  0  0  0  0
   12.2900    0.4250   23.6840 C   0  0  0  0  0  0  0  0  0  0  0  0
   12.9170    1.4620   23.7400 O   0  0  0  0  0  0  0  0  0  0  0  0
   12.1180    2.0400   22.8270 C   0  0  0  0  0  0  0  0  0  0  0  0
   11.8200    0.7530   22.4310 C   0  0  0  0  0  0  0  0  0  0  0  0
   13.0420   -0.1860   22.2950 C   0  0  0  0  0  0  0  0  0  0  0  0
   12.8700   -1.4870   21.8980 C   0  0  0  0  0  0  0  0  0  0  0  0
   11.5880   -1.9410   21.6240 C   0  0  0  0  0  0  0  0  0  0  0  0
   10.4590   -1.1300   21.7410 C   0  0  0  0  0  0  0  0  0  0  0  0
   10.5630    0.2160   22.1480 C   0  0  0  0  0  0  0  0  0  0  0  0
   10.8380    0.8030   23.1700 C   0  0  0  0  0  0  0  0  0  0  0  0
   10.1830   -0.5680   23.1830 C   0  0  0  0  0  0  0  0  0  0  0  0
    8.8130   -0.6080   22.7630 N   0  0  0  0  0  0  0  0  0  0  0  0
    8.2480    0.1140   21.5900 C   0  0  0  0  0  0  0  0  0  0  0  0
    8.6690    1.2080   21.1430 O   0  0  0  0  0  0  0  0  0  0  0  0
    7.1320   -0.6200   21.0330 N   0  0  0  0  0  0  0  0  0  0  0  0
    6.4200    0.0320   20.0680 C   0  0  0  0  0  0  0  0  0  0  0  0
    5.2350    0.7410   20.2610 C   0  0  0  0  0  0  0  0  0  0  0  0
    4.6000    1.3820   19.2040 C   0  0  0  0  0  0  0  0  0  0  0  0
    5.1850    1.2930   17.9510 C   0  0  0  0  0  0  0  0  0  0  0  0
    6.3240    0.6120   17.7330 N   0  0  0  0  0  0  0  0  0  0  0  0
    6.9060    0.0010   18.7820 C   0  0  0  0  0  0  0  0  0  0  0  0
  1  2  1  0
  2  3  2  0
  3  4  1  0
  4  5  2  0
  5  6  1  0
  6  7  1  0
  7  8  1  0
  8  9  2  0
  9 10  1  0
 10 11  2  0
 11 12  1  0
  8 13  1  0
 12 13  2  0
  5 14  1  0
  2 15  1  0
 14 15  2  0
 15 16  1  0
 16 17  1  0
 17 18  2  0
 17 19  1  0
 19 20  1  0
 20 21  2  0
 21 22  1  0
 22 23  2  0
 23 24  1  0
 20 25  1  0
 24 25  2  0
M  END
