pyridine_urea_6638
     RDKit          3D

 22 23  0  0  0  0  0  0  0  0999 V2000
   11.5500   -3.1140   24.4080 C   0  0  0  0  0  0  0  0  0  0  0  0
   10.2720   -2.6750   23.6710 C   0  0  2  0  0  0  0  0  0  0  0  0
    9.1060   -3.6800   23.6840 C   0  0  0  0  0  0  0  0  0  0  0  0
    7.7550   -3.0670   24.0100 N   0  0  0  0  0  0  0  0  0  0  0  0
   10.6550   -2.3680   22.3430 O   0  0  0  0  0  0  0  0  0  0  0  0
   11.0760   -1.1230   22.5110 C   0  0  0  0  0  0  0  0  0  0  0  0
   12.5180   -0.7830   22.5700 C   0  0  0  0  0  0  0  0  0  0  0  0
   12.7810    0.5390   22.7780 C   0  0  0  0  0  0  0  0  0  0  0  0
   14.0230    0.9020   22.8160 F   0  0  0  0  0  0  0  0  0  0  0  0
   11.8350    1.5260   22.9420 C   0  0  0  0  0  0  0  0  0  0  0  0
   10.4970    1.1710   22.8750 C   0  0  0  0  0  0  0  0  0  0  0  0
   10.1440   -0.1320   22.6550 C   0  0  0  0  0  0  0  0  0  0  0  0
    8.8160   -0.3740   22.5760 N   0  0  0  0  0  0  0  0  0  0  0  0
    8.1370    0.1930   21.4990 C   0  0  0  0  0  0  0  0  0  0  0  0
    8.5610    1.4420   20.9810 O   0  0  0  0  0  0  0  0  0  0  0  0
    7.1080   -0.5550   21.0660 N   0  0  0  0  0  0  0  0  0  0  0  0
    6.3910    0.0770   20.1210 C   0  0  0  0  0  0  0  0  0  0  0  0
    5.1710    0.7830   20.3990 C   0  0  0  0  0  0  0  0  0  0  0  0
    4.5930    1.4210   19.1280 C   0  0  0  0  0  0  0  0  0  0  0  0
    5.2160    1.2930   17.9130 C   0  0  0  0  0  0  0  0  0  0  0  0
    6.3380    0.6300   17.6840 N   0  0  0  0  0  0  0  0  0  0  0  0
    6.9100    0.0170   18.8390 C   0  0  0  0  0  0  0  0  0  0  0  0
  2  1  1  1
  2  3  1  0
  3  4  3  0
  2  5  1  0
  5  6  1  0
  6  7  2  0
  7  8  1  0
  8  9  1  0
  8 10  2  0
 10 11  1  0
  6 12  1  0
 11 12  2  0
 12 13  1  0
 13 14  1  0
 14 15  2  0
 14 16  1  0
 16 17  1  0
 17 18  2  0
 18 19  1  0
 19 20  2  0
 20 21  1  0
 17 22  1  0
 21 22  2  0
M  END
