pyridine_urea_9866
     RDKit          3D

 25 26  0  0  0  0  0  0  0  0999 V2000
   13.7780   -2.6290   25.3470 C   0  0  0  0  0  0  0  0  0  0  0  0
   13.2220   -2.3860   23.9380 C   0  0  0  0  0  0  0  0  0  0  0  0
   11.7380   -2.5960   24.1200 C   0  0  0  0  0  0  0  0  0  0  0  0
   10.8070   -2.1720   23.0000 C   0  0  0  0  0  0  0  0  0  0  0  0
    9.5690   -1.6760   23.7280 C   0  0  0  0  0  0  0  0  0  0  0  0
    8.2990   -2.3470   23.5100 N   0  0  0  0  0  0  0  0  0  0  0  0
    7.2090   -1.7110   24.0680 C   0  0  0  0  0  0  0  0  0  0  0  0
    7.1320   -0.2360   23.6900 C   0  0  0  0  0  0  0  0  0  0  0  0
    8.3270    0.1070   22.9150 N   0  0  0  0  0  0  0  0  0  0  0  0
    8.1880    0.4590   21.5750 C   0  0  0  0  0  0  0  0  0  0  0  0
    8.8290    1.3870   21.0730 O   0  0  0  0  0  0  0  0  0  0  0  0
    7.2750   -0.3490   20.9950 N   0  0  0  0  0  0  0  0  0  0  0  0
    6.5980    0.1870   19.9720 C   0  0  0  0  0  0  0  0  0  0  0  0
    5.4930    0.9630   20.2860 C   0  0  0  0  0  0  0  0  0  0  0  0
    4.7410    1.5680   19.3060 C   0  0  0  0  0  0  0  0  0  0  0  0
    5.1290    1.3730   18.0090 C   0  0  0  0  0  0  0  0  0  0  0  0
    6.1970    0.6170   17.6400 N   0  0  0  0  0  0  0  0  0  0  0  0
    7.0060   -0.0370   18.6690 C   0  0  0  0  0  0  0  0  0  0  0  0
    8.1610   -3.7080   23.0160 C   0  0  0  0  0  0  0  0  0  0  0  0
    6.7710   -4.2410   22.9880 C   0  0  0  0  0  0  0  0  0  0  0  0
    5.6460   -3.4350   22.8590 C   0  0  0  0  0  0  0  0  0  0  0  0
    4.3910   -3.9720   22.8400 C   0  0  0  0  0  0  0  0  0  0  0  0
    4.1780   -5.3370   22.9430 C   0  0  0  0  0  0  0  0  0  0  0  0
    5.2760   -6.1800   23.0700 C   0  0  0  0  0  0  0  0  0  0  0  0
    6.5650   -5.6400   23.0920 C   0  0  0  0  0  0  0  0  0  0  0  0
  1  2  1  0
  2  3  1  0
  3  4  1  0
  4  5  1  0
  5  6  1  0
  6  7  1  0
  7  8  1  0
  8  9  1  0
  9 10  1  0
 10 11  2  0
 10 12  1  0
 12 13  1  0
 13 14  2  0
 14 15  1  0
 15 16  2  0
 16 17  1  0
 13 18  1  0
 17 18  2  0
  6 19  1  0
 19 20  1  0
 20 21  2  0
 21 22  1  0
 22 23  2  0
 23 24  1  0
 20 25  1  0
 24 25  2  0
M  END
