pyridine_urea_9212
     RDKit          3D

 18 18  0  0  0  0  0  0  0  0999 V2000
   12.9520    0.8190   23.0150 C   0  0  0  0  0  0  0  0  0  0  0  0
   11.8930    0.5930   24.0290 C   0  0  0  0  0  0  0  0  0  0  0  0
   11.9920   -0.4220   25.0000 C   0  0  0  0  0  0  0  0  0  0  0  0
   10.5870    0.3700   23.2750 C   0  0  0  0  0  0  0  0  0  0  0  0
   10.3670   -0.9550   23.0070 C   0  0  2  0  0  0  0  0  0  0  0  0
   11.2790   -1.6440   22.1850 C   0  0  0  0  0  0  0  0  0  0  0  0
   12.6550   -1.4910   22.3940 C   0  0  0  0  0  0  0  0  0  0  0  0
   13.2870   -2.5130   22.6320 O   0  0  0  0  0  0  0  0  0  0  0  0
    9.0620   -1.0310   22.3560 N   0  0  0  0  0  0  0  0  0  0  0  0
    8.5000   -0.0740   21.5390 C   0  0  0  0  0  0  0  0  0  0  0  0
    9.0900    1.2160   21.2670 O   0  0  0  0  0  0  0  0  0  0  0  0
    7.2330   -0.5400   21.0210 N   0  0  0  0  0  0  0  0  0  0  0  0
    6.5400    0.0590   20.0210 C   0  0  0  0  0  0  0  0  0  0  0  0
    5.3790    0.7720   20.3260 C   0  0  0  0  0  0  0  0  0  0  0  0
    4.6810    1.4000   19.2940 C   0  0  0  0  0  0  0  0  0  0  0  0
    5.1590    1.2970   18.0040 C   0  0  0  0  0  0  0  0  0  0  0  0
    6.2640    0.6090   17.6940 N   0  0  0  0  0  0  0  0  0  0  0  0
    6.9270    0.0080   18.7020 C   0  0  0  0  0  0  0  0  0  0  0  0
  1  2  1  0
  2  3  1  0
  2  4  1  0
  5  4  1  6
  5  6  1  0
  6  7  1  0
  7  8  1  0
  5  9  1  0
  9 10  1  0
 10 11  2  0
 10 12  1  0
 12 13  1  0
 13 14  2  0
 14 15  1  0
 15 16  2  0
 16 17  1  0
 13 18  1  0
 17 18  2  0
M  END
