pyridine_urea_10688
     RDKit          3D

 21 22  0  0  0  0  0  0  0  0999 V2000
   11.3150    5.0530   24.1770 C   0  0  0  0  0  0  0  0  0  0  0  0
   11.3370    4.1250   22.9400 C   0  0  0  0  0  0  0  0  0  0  0  0
   12.4400    3.2130   23.0080 O   0  0  0  0  0  0  0  0  0  0  0  0
   12.1620    1.8780   22.9450 C   0  0  0  0  0  0  0  0  0  0  0  0
   13.0730    0.7400   22.8370 C   0  0  0  0  0  0  0  0  0  0  0  0
   12.5650   -0.7050   22.7720 C   0  0  0  0  0  0  0  0  0  0  0  0
   11.3000   -1.4650   22.7890 C   0  0  0  0  0  0  0  0  0  0  0  0
    9.9430   -1.7710   22.8390 C   0  0  0  0  0  0  0  0  0  0  0  0
    9.3080   -1.4600   21.5630 N   0  0  0  0  0  0  0  0  0  0  0  0
    8.5110   -0.3430   21.4270 C   0  0  0  0  0  0  0  0  0  0  0  0
    8.9450    0.8000   21.4690 O   0  0  0  0  0  0  0  0  0  0  0  0
    7.1960   -0.6540   21.1980 N   0  0  0  0  0  0  0  0  0  0  0  0
    6.5030   -0.0140   20.1690 C   0  0  0  0  0  0  0  0  0  0  0  0
    5.3320    0.7280   20.3550 C   0  0  0  0  0  0  0  0  0  0  0  0
    4.6710    1.3730   19.3100 C   0  0  0  0  0  0  0  0  0  0  0  0
    5.1530    1.3090   18.0070 C   0  0  0  0  0  0  0  0  0  0  0  0
    6.2510    0.6300   17.6790 N   0  0  0  0  0  0  0  0  0  0  0  0
    6.9000   -0.0010   18.6940 C   0  0  0  0  0  0  0  0  0  0  0  0
   10.4220   -0.1310   22.9160 C   0  0  0  0  0  0  0  0  0  0  0  0
   10.9200    1.1010   22.9600 C   0  0  0  0  0  0  0  0  0  0  0  0
   11.9480    0.2550   22.8640 F   0  0  0  0  0  0  0  0  0  0  0  0
  1  2  1  0
  2  3  1  0
  3  4  1  0
  4  5  2  0
  5  6  1  0
  6  7  2  0
  7  8  1  0
  8  9  1  0
  9 10  1  0
 10 11  2  0
 10 12  1  0
 12 13  1  0
 13 14  2  0
 14 15  1  0
 15 16  2  0
 16 17  1  0
 13 18  1  0
 17 18  2  0
  7 19  1  0
  4 20  1  0
 19 20  2  0
 20 21  1  0
M  END
