pyridine_urea_14047
     RDKit          3D

 23 24  0  0  0  0  0  0  0  0999 V2000
   10.2170    1.1280   23.4150 C   0  0  0  0  0  0  0  0  0  0  0  0
   11.3500    1.4460   23.2630 C   0  0  0  0  0  0  0  0  0  0  0  0
   12.4640    2.2030   22.9220 C   0  0  0  0  0  0  0  0  0  0  0  0
   12.5430    0.8130   23.5220 C   0  0  0  0  0  0  0  0  0  0  0  0
   11.0330    0.6700   23.5410 C   0  0  0  0  0  0  0  0  0  0  0  0
    9.6500   -0.0190   23.8000 C   0  0  0  0  0  0  0  0  0  0  0  0
    9.1760   -0.7110   22.5660 N   0  0  0  0  0  0  0  0  0  0  0  0
    8.4920    0.0150   21.6160 C   0  0  0  0  0  0  0  0  0  0  0  0
    8.7710    1.3040   21.0430 O   0  0  0  0  0  0  0  0  0  0  0  0
    7.2700   -0.6020   21.1290 N   0  0  0  0  0  0  0  0  0  0  0  0
    6.5910    0.0400   20.0080 C   0  0  0  0  0  0  0  0  0  0  0  0
    5.3670    0.8390   20.3560 C   0  0  0  0  0  0  0  0  0  0  0  0
    4.6960    1.4830   19.3200 C   0  0  0  0  0  0  0  0  0  0  0  0
    5.1240    1.4040   18.0010 C   0  0  0  0  0  0  0  0  0  0  0  0
    6.2990    0.6210   17.6860 N   0  0  0  0  0  0  0  0  0  0  0  0
    6.9640   -0.0130   18.6950 C   0  0  0  0  0  0  0  0  0  0  0  0
   11.3710   -0.5840   24.1350 C   0  0  0  0  0  0  0  0  0  0  0  0
   12.4000   -1.4510   24.5710 O   0  0  0  0  0  0  0  0  0  0  0  0
   12.4040   -2.5780   23.7450 C   0  0  0  0  0  0  0  0  0  0  0  0
   13.2420   -2.1380   22.6080 C   0  0  0  0  0  0  0  0  0  0  0  0
   13.2990   -0.7790   22.3740 C   0  0  0  0  0  0  0  0  0  0  0  0
   12.8430   -2.4680   21.1710 C   0  0  0  0  0  0  0  0  0  0  0  0
   12.1830    0.3560   23.7400 C   0  0  0  0  0  0  0  0  0  0  0  0
  1  2  1  0
  2  3  2  0
  3  4  1  0
  4  5  2  0
  5  6  1  0
  6  7  1  0
  7  8  1  0
  8  9  2  0
  8 10  1  0
 10 11  1  0
 11 12  2  0
 12 13  1  0
 13 14  2  0
 14 15  1  0
 11 16  1  0
 15 16  2  0
  5 17  1  0
 17 18  1  0
 18 19  1  0
 19 20  1  0
 20 21  1  0
 20 22  1  0
  2 23  1  0
 17 23  2  0
M  END
