pyridine_urea_1739
     RDKit          3D

 18 18  0  0  0  0  0  0  0  0999 V2000
    8.4800   -0.9590   27.6480 C   0  0  0  0  0  0  0  0  0  0  0  0
    7.8660   -1.4910   26.3700 C   0  0  0  0  0  0  0  0  0  0  0  0
    7.9920   -2.8300   25.9990 C   0  0  0  0  0  0  0  0  0  0  0  0
    6.4500   -1.2410   26.4650 O   0  0  0  0  0  0  0  0  0  0  0  0
    8.4200   -0.6400   25.2090 C   0  0  0  0  0  0  0  0  0  0  0  0
   10.0340   -0.1250   25.4460 S   0  0  0  0  0  0  0  0  0  0  0  0
   10.2820    0.5050   23.8900 C   0  0  0  0  0  0  0  0  0  0  0  0
   10.3700   -0.4900   22.9160 C   0  0  0  0  0  0  0  0  0  0  0  0
    9.2180   -0.8620   22.2050 N   0  0  0  0  0  0  0  0  0  0  0  0
    8.4680    0.0020   21.4400 C   0  0  0  0  0  0  0  0  0  0  0  0
    8.9670    1.3150   21.1660 O   0  0  0  0  0  0  0  0  0  0  0  0
    7.2670   -0.5360   21.0180 N   0  0  0  0  0  0  0  0  0  0  0  0
    6.4440    0.1330   20.0170 C   0  0  0  0  0  0  0  0  0  0  0  0
    5.2700    0.8210   20.2380 C   0  0  0  0  0  0  0  0  0  0  0  0
    4.5970    1.4350   19.1890 C   0  0  0  0  0  0  0  0  0  0  0  0
    5.1470    1.3280   17.9220 C   0  0  0  0  0  0  0  0  0  0  0  0
    6.2810    0.6570   17.6770 N   0  0  0  0  0  0  0  0  0  0  0  0
    6.8950    0.0810   18.7180 C   0  0  0  0  0  0  0  0  0  0  0  0
  1  2  1  0
  2  3  1  0
  2  4  1  0
  2  5  1  0
  5  6  1  0
  6  7  1  0
  7  8  1  0
  8  9  1  0
  9 10  1  0
 10 11  2  0
 10 12  1  0
 12 13  1  0
 13 14  2  0
 14 15  1  0
 15 16  2  0
 16 17  1  0
 13 18  1  0
 17 18  2  0
M  END
