pyridine_urea_14894
     RDKit          3D

 19 20  0  0  0  0  0  0  0  0999 V2000
   13.2400    0.7110   23.1760 C   0  0  0  0  0  0  0  0  0  0  0  0
   11.9300    0.8310   23.3680 N   0  0  0  0  0  0  0  0  0  0  0  0
   10.5420    0.5860   23.3590 C   0  0  0  0  0  0  0  0  0  0  0  0
   10.0370   -0.5040   22.7840 C   0  0  0  0  0  0  0  0  0  0  0  0
    8.7310   -0.8470   22.6720 N   0  0  0  0  0  0  0  0  0  0  0  0
    8.0410   -0.1530   21.6090 C   0  0  0  0  0  0  0  0  0  0  0  0
    8.4690    0.9290   21.1570 O   0  0  0  0  0  0  0  0  0  0  0  0
    6.8400   -0.7600   21.1000 N   0  0  0  0  0  0  0  0  0  0  0  0
    6.3310   -0.0900   20.0280 C   0  0  0  0  0  0  0  0  0  0  0  0
    5.1480    0.6100   20.2350 C   0  0  0  0  0  0  0  0  0  0  0  0
    4.5310    1.4000   19.0770 C   0  0  0  0  0  0  0  0  0  0  0  0
    5.2090    1.3640   17.8770 C   0  0  0  0  0  0  0  0  0  0  0  0
    6.3570    0.6710   17.6930 N   0  0  0  0  0  0  0  0  0  0  0  0
    6.8730   -0.0180   18.7370 C   0  0  0  0  0  0  0  0  0  0  0  0
   11.2320   -1.1080   22.3590 C   0  0  0  0  0  0  0  0  0  0  0  0
   11.2650   -2.2950   21.7020 C   0  0  0  0  0  0  0  0  0  0  0  0
   12.6140   -2.7420   21.3240 N   0  0  0  0  0  0  0  0  0  0  0  0
   10.1910   -2.8380   21.5290 O   0  0  0  0  0  0  0  0  0  0  0  0
   12.2740   -0.3390   22.6970 N   0  0  0  0  0  0  0  0  0  0  0  0
  1  2  1  0
  2  3  1  0
  3  4  2  0
  4  5  1  0
  5  6  1  0
  6  7  2  0
  6  8  1  0
  8  9  1  0
  9 10  2  0
 10 11  1  0
 11 12  2  0
 12 13  1  0
  9 14  1  0
 13 14  2  0
  4 15  1  0
 15 16  1  0
 16 17  1  0
 16 18  2  0
  2 19  1  0
 15 19  2  0
M  END
