pyridine_urea_12802
     RDKit          3D

 20 21  0  0  0  0  0  0  0  0999 V2000
   12.3630   -2.1450   21.4120 C   0  0  0  0  0  0  0  0  0  0  0  0
   13.2830   -2.8060   22.4570 C   0  0  0  0  0  0  0  0  0  0  0  0
   13.3450   -2.3170   23.8890 C   0  0  0  0  0  0  0  0  0  0  0  0
   13.5810   -0.9440   23.7710 O   0  0  0  0  0  0  0  0  0  0  0  0
   12.3320   -0.3480   23.4820 C   0  0  0  0  0  0  0  0  0  0  0  0
   12.4170    1.0150   23.5770 C   0  0  0  0  0  0  0  0  0  0  0  0
   11.2860    1.7650   23.3680 C   0  0  0  0  0  0  0  0  0  0  0  0
   10.0970    1.1560   23.0500 C   0  0  0  0  0  0  0  0  0  0  0  0
   10.0430   -0.2160   22.9360 C   0  0  0  0  0  0  0  0  0  0  0  0
    8.7660   -0.7370   22.5720 N   0  0  0  0  0  0  0  0  0  0  0  0
    8.2090   -0.0210   21.5590 C   0  0  0  0  0  0  0  0  0  0  0  0
    8.7840    1.1980   21.1250 O   0  0  0  0  0  0  0  0  0  0  0  0
    7.0460   -0.5930   21.0420 N   0  0  0  0  0  0  0  0  0  0  0  0
    6.4360    0.0200   19.9850 C   0  0  0  0  0  0  0  0  0  0  0  0
    5.2870    0.7270   20.3380 C   0  0  0  0  0  0  0  0  0  0  0  0
    4.6210    1.4330   19.1990 C   0  0  0  0  0  0  0  0  0  0  0  0
    5.1320    1.3610   17.9260 C   0  0  0  0  0  0  0  0  0  0  0  0
    6.2430    0.6510   17.6360 N   0  0  0  0  0  0  0  0  0  0  0  0
    6.8830   -0.0150   18.6920 C   0  0  0  0  0  0  0  0  0  0  0  0
   11.1510   -0.9910   23.1540 C   0  0  0  0  0  0  0  0  0  0  0  0
  1  2  2  3
  2  3  1  0
  3  4  1  0
  4  5  1  0
  5  6  2  0
  6  7  1  0
  7  8  2  0
  8  9  1  0
  9 10  1  0
 10 11  1  0
 11 12  2  0
 11 13  1  0
 13 14  1  0
 14 15  2  0
 15 16  1  0
 16 17  2  0
 17 18  1  0
 14 19  1  0
 18 19  2  0
  5 20  1  0
  9 20  2  0
M  END
