pyridine_urea_9095
     RDKit          3D

 19 20  0  0  0  0  0  0  0  0999 V2000
    8.7900    1.1550   21.1680 O   0  0  0  0  0  0  0  0  0  0  0  0
    8.2430    0.1020   21.5270 C   0  0  0  0  0  0  0  0  0  0  0  0
    8.6860   -0.6510   22.5690 N   0  0  0  0  0  0  0  0  0  0  0  0
   10.0610   -0.5550   22.9490 C   0  0  0  0  0  0  0  0  0  0  0  0
   10.5590    0.9090   22.8970 C   0  0  0  0  0  0  0  0  0  0  0  0
   11.9500    1.1190   22.9350 C   0  0  0  0  0  0  0  0  0  0  0  0
   12.6840    0.0580   22.4910 C   0  0  0  0  0  0  0  0  0  0  0  0
   13.2790   -1.1950   22.2470 C   0  0  0  0  0  0  0  0  0  0  0  0
   13.1020   -2.4470   22.8050 C   0  0  0  0  0  0  0  0  0  0  0  0
   12.2210   -2.6550   23.7930 C   0  0  0  0  0  0  0  0  0  0  0  0
   11.5860   -1.5620   24.1050 N   0  0  0  0  0  0  0  0  0  0  0  0
   11.7900   -0.3320   23.5200 C   0  0  0  0  0  0  0  0  0  0  0  0
    7.1300   -0.4700   20.9860 N   0  0  0  0  0  0  0  0  0  0  0  0
    6.4640    0.1210   20.0020 C   0  0  0  0  0  0  0  0  0  0  0  0
    5.2740    0.8060   20.2910 C   0  0  0  0  0  0  0  0  0  0  0  0
    4.6130    1.4560   19.1270 C   0  0  0  0  0  0  0  0  0  0  0  0
    5.1340    1.3850   17.8730 C   0  0  0  0  0  0  0  0  0  0  0  0
    6.2790    0.7030   17.6380 N   0  0  0  0  0  0  0  0  0  0  0  0
    6.8900    0.1060   18.6910 C   0  0  0  0  0  0  0  0  0  0  0  0
  1  2  2  0
  2  3  1  0
  3  4  1  0
  4  5  1  0
  5  6  1  0
  6  7  1  0
  7  8  2  0
  8  9  1  0
  9 10  2  0
 10 11  1  0
  7 12  1  0
 11 12  2  0
  2 13  1  0
 13 14  1  0
 14 15  2  0
 15 16  1  0
 16 17  2  0
 17 18  1  0
 14 19  1  0
 18 19  2  0
M  END
