pyridine_urea_10616
     RDKit          3D

 23 24  0  0  0  0  0  0  0  0999 V2000
   14.3410   -0.1800   19.7070 C   0  0  0  0  0  0  0  0  0  0  0  0
   14.1550   -1.4480   20.3900 O   0  0  0  0  0  0  0  0  0  0  0  0
   13.1530   -1.4940   21.3400 C   0  0  0  0  0  0  0  0  0  0  0  0
   13.3350   -2.3480   22.5990 C   0  0  0  0  0  0  0  0  0  0  0  0
   11.7810   -2.6040   23.4300 S   0  0  0  0  0  0  0  0  0  0  0  0
   11.1230   -0.9380   23.7260 C   0  0  0  0  0  0  0  0  0  0  0  0
   12.5250   -0.9020   24.3120 C   0  0  0  0  0  0  0  0  0  0  0  0
   11.7970    0.0870   24.3580 C   0  0  0  0  0  0  0  0  0  0  0  0
   10.5900   -0.2770   23.7140 C   0  0  0  0  0  0  0  0  0  0  0  0
   10.0960   -1.4120   23.0620 C   0  0  2  0  0  0  0  0  0  0  0  0
   10.6450   -1.5340   21.8040 C   0  0  0  0  0  0  0  0  0  0  0  0
    8.6590   -1.2580   22.7990 N   0  0  0  0  0  0  0  0  0  0  0  0
    8.1920   -0.4240   21.7740 C   0  0  0  0  0  0  0  0  0  0  0  0
    8.8130    0.7930   21.5240 O   0  0  0  0  0  0  0  0  0  0  0  0
    7.1010   -0.9030   21.0880 N   0  0  0  0  0  0  0  0  0  0  0  0
    6.3880   -0.1450   20.1280 C   0  0  0  0  0  0  0  0  0  0  0  0
    5.1730    0.5610   20.4110 C   0  0  0  0  0  0  0  0  0  0  0  0
    4.6260    1.3020   19.1870 C   0  0  0  0  0  0  0  0  0  0  0  0
    5.2780    1.2510   17.9900 C   0  0  0  0  0  0  0  0  0  0  0  0
    6.4080    0.5750   17.7830 N   0  0  0  0  0  0  0  0  0  0  0  0
    6.9200   -0.0960   18.8400 C   0  0  0  0  0  0  0  0  0  0  0  0
    9.8200    0.6580   23.7390 C   0  0  0  0  0  0  0  0  0  0  0  0
   11.1430    0.6630   24.3060 C   0  0  0  0  0  0  0  0  0  0  0  0
  1  2  1  0
  2  3  1  0
  3  4  1  0
  4  5  1  0
  5  6  1  0
  6  7  2  0
  7  8  1  0
  8  9  2  0
  9 10  1  0
 10 11  1  6
 10 12  1  0
 12 13  1  0
 13 14  2  0
 13 15  1  0
 15 16  1  0
 16 17  2  0
 17 18  1  0
 18 19  2  0
 19 20  1  0
 16 21  1  0
 20 21  2  0
  9 22  1  0
  6 23  1  0
 22 23  2  0
M  END
