pyridine_urea_3368
     RDKit          3D

 19 20  0  0  0  0  0  0  0  0999 V2000
   11.9330   -0.2910   24.8590 C   0  0  0  0  0  0  0  0  0  0  0  0
   10.4740   -0.3860   24.5280 C   0  0  0  0  0  0  0  0  0  0  0  0
   10.1960   -0.8070   23.2340 C   0  0  1  0  0  0  0  0  0  0  0  0
    8.8040   -0.5530   22.8050 N   0  0  0  0  0  0  0  0  0  0  0  0
    8.4470    0.0880   21.6120 C   0  0  0  0  0  0  0  0  0  0  0  0
    8.9930    1.1130   21.1810 O   0  0  0  0  0  0  0  0  0  0  0  0
    7.3160   -0.6140   20.9810 N   0  0  0  0  0  0  0  0  0  0  0  0
    6.5830    0.0240   20.0080 C   0  0  0  0  0  0  0  0  0  0  0  0
    5.3010    0.7570   20.3870 C   0  0  0  0  0  0  0  0  0  0  0  0
    4.6090    1.3890   19.3560 C   0  0  0  0  0  0  0  0  0  0  0  0
    5.2030    1.3040   17.9490 C   0  0  0  0  0  0  0  0  0  0  0  0
    6.3370    0.6350   17.6820 N   0  0  0  0  0  0  0  0  0  0  0  0
    6.9860    0.0260   18.6930 C   0  0  0  0  0  0  0  0  0  0  0  0
   11.0660   -0.3680   22.2580 C   0  0  0  0  0  0  0  0  0  0  0  0
   10.4800    0.6440   23.0410 C   0  0  0  0  0  0  0  0  0  0  0  0
   11.2770    1.7750   23.0570 C   0  0  0  0  0  0  0  0  0  0  0  0
   12.5560    1.6080   22.6530 O   0  0  0  0  0  0  0  0  0  0  0  0
   13.1350    0.3410   22.9150 C   0  0  0  0  0  0  0  0  0  0  0  0
   12.4130   -0.7650   22.4460 C   0  0  0  0  0  0  0  0  0  0  0  0
  1  2  1  0
  3  2  1  1
  3  4  1  0
  4  5  1  0
  5  6  2  0
  5  7  1  0
  7  8  1  0
  8  9  2  0
  9 10  1  0
 10 11  2  0
 11 12  1  0
  8 13  1  0
 12 13  2  0
  3 14  1  0
 14 15  1  0
 15 16  1  0
 16 17  1  0
 17 18  1  0
 14 19  1  0
 18 19  1  0
M  END
