pyridine_urea_12327
     RDKit          3D

 22 23  0  0  0  0  0  0  0  0999 V2000
    8.5550   -0.1220   26.0280 C   0  0  0  0  0  0  0  0  0  0  0  0
    8.1210    0.7660   24.8670 C   0  0  0  0  0  0  0  0  0  0  0  0
    8.8670    0.4560   23.6760 O   0  0  0  0  0  0  0  0  0  0  0  0
   10.2220    0.6340   23.7390 C   0  0  0  0  0  0  0  0  0  0  0  0
    9.8460    1.9440   24.1790 O   0  0  0  0  0  0  0  0  0  0  0  0
    9.9320   -0.6660   23.2890 C   0  0  1  0  0  0  0  0  0  0  0  0
    8.8230   -0.9430   22.4770 N   0  0  0  0  0  0  0  0  0  0  0  0
    8.2200   -0.2280   21.4780 C   0  0  0  0  0  0  0  0  0  0  0  0
    8.6460    0.8720   21.1480 O   0  0  0  0  0  0  0  0  0  0  0  0
    7.1440   -0.8420   20.9390 N   0  0  0  0  0  0  0  0  0  0  0  0
    6.4720   -0.1190   20.0230 C   0  0  0  0  0  0  0  0  0  0  0  0
    5.1810    0.6780   20.2820 C   0  0  0  0  0  0  0  0  0  0  0  0
    4.4540    1.4940   19.2080 C   0  0  0  0  0  0  0  0  0  0  0  0
    5.2170    1.3730   17.8980 C   0  0  0  0  0  0  0  0  0  0  0  0
    6.3550    0.6440   17.7330 N   0  0  0  0  0  0  0  0  0  0  0  0
    6.9680   -0.0800   18.7460 C   0  0  0  0  0  0  0  0  0  0  0  0
   11.2430   -1.1060   22.6700 C   0  0  0  0  0  0  0  0  0  0  0  0
   11.8220   -2.3250   23.3780 C   0  0  0  0  0  0  0  0  0  0  0  0
   12.6660   -1.9480   24.4150 C   0  0  0  0  0  0  0  0  0  0  0  0
   12.4080   -0.6230   24.7550 C   0  0  0  0  0  0  0  0  0  0  0  0
   12.8250    0.2160   23.7350 C   0  0  0  0  0  0  0  0  0  0  0  0
   12.1900   -0.0950   22.5960 C   0  0  0  0  0  0  0  0  0  0  0  0
  1  2  1  0
  2  3  1  0
  3  4  1  0
  4  5  2  0
  4  6  1  0
  6  7  1  6
  7  8  1  0
  8  9  2  0
  8 10  1  0
 10 11  1  0
 11 12  2  0
 12 13  1  0
 13 14  2  0
 14 15  1  0
 11 16  1  0
 15 16  2  0
  6 17  1  0
 17 18  1  0
 18 19  1  0
 19 20  1  0
 20 21  1  0
 17 22  1  0
 21 22  1  0
M  END
