pyridine_urea_443
     RDKit          3D

 25 27  0  0  0  0  0  0  0  0999 V2000
    8.6190    1.3870   20.8910 O   0  0  0  0  0  0  0  0  0  0  0  0
    8.0870    0.4030   21.3940 C   0  0  0  0  0  0  0  0  0  0  0  0
    7.0820   -0.3570   20.8590 N   0  0  0  0  0  0  0  0  0  0  0  0
    6.3200    0.2460   19.9020 C   0  0  0  0  0  0  0  0  0  0  0  0
    5.1070    0.8830   20.1020 C   0  0  0  0  0  0  0  0  0  0  0  0
    4.4820    1.4830   19.0210 C   0  0  0  0  0  0  0  0  0  0  0  0
    5.1100    1.4100   17.7930 C   0  0  0  0  0  0  0  0  0  0  0  0
    6.2730    0.7830   17.5880 N   0  0  0  0  0  0  0  0  0  0  0  0
    6.8410    0.2210   18.6420 C   0  0  0  0  0  0  0  0  0  0  0  0
    8.4180   -0.0630   22.5940 N   0  0  0  0  0  0  0  0  0  0  0  0
    9.7090   -0.0710   23.0150 C   0  0  0  0  0  0  0  0  0  0  0  0
   10.3340   -1.1790   23.1530 C   0  0  0  0  0  0  0  0  0  0  0  0
   11.5180   -1.0550   23.5670 N   0  0  0  0  0  0  0  0  0  0  0  0
   11.9200    0.2570   23.7880 N   0  0  0  0  0  0  0  0  0  0  0  0
   12.7060   -0.8400   24.0300 C   0  0  0  0  0  0  0  0  0  0  0  0
   13.1440   -1.1950   25.2600 C   0  0  0  0  0  0  0  0  0  0  0  0
   13.8470   -2.3680   25.4250 C   0  0  0  0  0  0  0  0  0  0  0  0
   14.1180   -3.1740   24.4170 N   0  0  0  0  0  0  0  0  0  0  0  0
   13.6870   -2.7980   23.2070 C   0  0  0  0  0  0  0  0  0  0  0  0
   12.9830   -1.6480   22.9500 C   0  0  0  0  0  0  0  0  0  0  0  0
   10.6600    0.8800   23.3770 C   0  0  0  0  0  0  0  0  0  0  0  0
   10.3930    2.2530   23.3470 C   0  0  0  0  0  0  0  0  0  0  0  0
    9.5420    2.7440   24.2560 F   0  0  0  0  0  0  0  0  0  0  0  0
   11.5340    2.9790   23.4890 F   0  0  0  0  0  0  0  0  0  0  0  0
    9.8990    2.6380   22.1520 F   0  0  0  0  0  0  0  0  0  0  0  0
  1  2  2  0
  2  3  1  0
  3  4  1  0
  4  5  2  0
  5  6  1  0
  6  7  2  0
  7  8  1  0
  4  9  1  0
  8  9  2  0
  2 10  1  0
 10 11  1  0
 11 12  1  0
 12 13  2  0
 13 14  1  0
 14 15  1  0
 15 16  2  0
 16 17  1  0
 17 18  2  0
 18 19  1  0
 15 20  1  0
 19 20  2  0
 11 21  2  0
 14 21  1  0
 21 22  1  0
 22 23  1  0
 22 24  1  0
 22 25  1  0
M  END
