pyridine_urea_13406
     RDKit          3D

 23 25  0  0  0  0  0  0  0  0999 V2000
    8.9950    0.3010   21.6540 O   0  0  0  0  0  0  0  0  0  0  0  0
    8.0870   -0.5220   21.7840 C   0  0  0  0  0  0  0  0  0  0  0  0
    7.2210   -0.9390   20.8140 N   0  0  0  0  0  0  0  0  0  0  0  0
    6.4530   -0.1340   19.9740 C   0  0  0  0  0  0  0  0  0  0  0  0
    5.1660    0.6010   20.3790 C   0  0  0  0  0  0  0  0  0  0  0  0
    4.5320    1.4160   19.2490 C   0  0  0  0  0  0  0  0  0  0  0  0
    5.2180    1.4050   17.9220 C   0  0  0  0  0  0  0  0  0  0  0  0
    6.3480    0.7170   17.6890 N   0  0  0  0  0  0  0  0  0  0  0  0
    6.9090   -0.0070   18.6800 C   0  0  0  0  0  0  0  0  0  0  0  0
    7.7410   -1.1720   22.9590 N   0  0  0  0  0  0  0  0  0  0  0  0
    8.6190   -1.8550   23.8820 C   0  0  2  0  0  0  0  0  0  0  0  0
    9.6270   -1.0520   24.1800 C   0  0  0  0  0  0  0  0  0  0  0  0
   10.9030   -1.6450   24.5080 C   0  0  0  0  0  0  0  0  0  0  0  0
   11.0370   -3.0060   24.3570 C   0  0  0  0  0  0  0  0  0  0  0  0
    9.7750   -3.6270   24.3020 O   0  0  0  0  0  0  0  0  0  0  0  0
    9.2040   -2.9220   23.3670 C   0  0  2  0  0  0  0  0  0  0  0  0
   10.4330   -2.5000   22.9970 C   0  0  0  0  0  0  0  0  0  0  0  0
   10.5770   -2.4880   21.6020 C   0  0  0  0  0  0  0  0  0  0  0  0
   11.7330   -2.1180   21.1900 C   0  0  0  0  0  0  0  0  0  0  0  0
   12.7170   -1.7530   21.9160 C   0  0  0  0  0  0  0  0  0  0  0  0
   13.7970   -1.3830   20.7710 Cl  0  0  0  0  0  0  0  0  0  0  0  0
   12.7650   -1.7040   23.2900 C   0  0  0  0  0  0  0  0  0  0  0  0
   11.5970   -2.0900   23.9560 C   0  0  0  0  0  0  0  0  0  0  0  0
  1  2  2  0
  2  3  1  0
  3  4  1  0
  4  5  2  0
  5  6  1  0
  6  7  2  0
  7  8  1  0
  4  9  1  0
  8  9  2  0
  2 10  1  0
 11 10  1  6
 11 12  1  0
 12 13  1  0
 13 14  1  0
 14 15  1  0
 11 16  1  0
 15 16  1  0
 16 17  1  6
 17 18  2  0
 18 19  1  0
 19 20  2  0
 20 21  1  0
 20 22  1  0
 17 23  1  0
 22 23  2  0
M  END
