pyridine_urea_7326
     RDKit          3D

 17 18  0  0  0  0  0  0  0  0999 V2000
    9.0610    0.9750   21.6580 O   0  0  0  0  0  0  0  0  0  0  0  0
    8.6100   -0.1340   21.4230 C   0  0  0  0  0  0  0  0  0  0  0  0
    7.2960   -0.4480   21.1550 N   0  0  0  0  0  0  0  0  0  0  0  0
    6.5740    0.1210   20.0910 C   0  0  0  0  0  0  0  0  0  0  0  0
    5.4190    0.8590   20.3690 C   0  0  0  0  0  0  0  0  0  0  0  0
    4.7000    1.4450   19.3260 C   0  0  0  0  0  0  0  0  0  0  0  0
    5.1660    1.2690   18.0410 C   0  0  0  0  0  0  0  0  0  0  0  0
    6.2610    0.5610   17.7420 N   0  0  0  0  0  0  0  0  0  0  0  0
    6.9390    0.0030   18.7660 C   0  0  0  0  0  0  0  0  0  0  0  0
    9.3980   -1.2520   21.3420 N   0  0  0  0  0  0  0  0  0  0  0  0
   10.3740   -1.6820   22.3540 C   0  0  1  0  0  0  0  0  0  0  0  0
   11.7390   -1.1950   21.9850 C   0  0  0  0  0  0  0  0  0  0  0  0
   12.8000   -1.4050   22.8350 C   0  0  0  0  0  0  0  0  0  0  0  0
   12.4950   -0.9390   24.0950 C   0  0  0  0  0  0  0  0  0  0  0  0
   11.1740   -1.2500   24.5150 C   0  0  0  0  0  0  0  0  0  0  0  0
   10.1370   -1.5930   23.6600 C   0  0  0  0  0  0  0  0  0  0  0  0
    8.3660   -1.9970   24.1490 Br  0  0  0  0  0  0  0  0  0  0  0  0
  1  2  2  0
  2  3  1  0
  3  4  1  0
  4  5  2  0
  5  6  1  0
  6  7  2  0
  7  8  1  0
  4  9  1  0
  8  9  2  0
  2 10  1  0
 11 10  1  6
 11 12  1  0
 12 13  1  0
 13 14  1  0
 14 15  1  0
 11 16  1  0
 15 16  2  0
 16 17  1  0
M  END
