pyridine_urea_3124
     RDKit          3D

 21 22  0  0  0  0  0  0  0  0999 V2000
    8.7930    1.0260   21.2830 O   0  0  0  0  0  0  0  0  0  0  0  0
    8.3420   -0.1090   21.3570 C   0  0  0  0  0  0  0  0  0  0  0  0
    9.0460   -1.2140   21.6900 N   0  0  0  0  0  0  0  0  0  0  0  0
    9.4700   -1.5160   22.9920 C   0  0  0  0  0  0  0  0  0  0  0  0
   10.8150   -1.4090   23.2310 C   0  0  0  0  0  0  0  0  0  0  0  0
   10.2970   -0.1080   22.9000 C   0  0  0  0  0  0  0  0  0  0  0  0
   10.8830    1.1400   22.7780 C   0  0  0  0  0  0  0  0  0  0  0  0
   12.3340    1.3480   22.9950 C   0  0  0  0  0  0  0  0  0  0  0  0
   12.9190    0.2000   23.3170 C   0  0  0  0  0  0  0  0  0  0  0  0
   12.1760   -1.1060   23.4340 C   0  0  0  0  0  0  0  0  0  0  0  0
   12.8950   -2.2250   23.8080 C   0  0  0  0  0  0  0  0  0  0  0  0
   13.6390   -2.8190   22.8810 F   0  0  0  0  0  0  0  0  0  0  0  0
   13.7100   -2.0120   24.8720 F   0  0  0  0  0  0  0  0  0  0  0  0
   12.0470   -3.1760   24.2660 F   0  0  0  0  0  0  0  0  0  0  0  0
    7.0490   -0.4390   21.0870 N   0  0  0  0  0  0  0  0  0  0  0  0
    6.3860    0.1500   20.0220 C   0  0  0  0  0  0  0  0  0  0  0  0
    5.2050    0.8530   20.2510 C   0  0  0  0  0  0  0  0  0  0  0  0
    4.5720    1.4590   19.1630 C   0  0  0  0  0  0  0  0  0  0  0  0
    5.1310    1.3460   17.8970 C   0  0  0  0  0  0  0  0  0  0  0  0
    6.2590    0.6630   17.6690 N   0  0  0  0  0  0  0  0  0  0  0  0
    6.8560    0.0840   18.7250 C   0  0  0  0  0  0  0  0  0  0  0  0
  1  2  2  0
  2  3  1  0
  3  4  1  0
  4  5  1  0
  5  6  2  0
  6  7  1  0
  7  8  2  0
  8  9  1  0
  5 10  1  0
  9 10  2  0
 10 11  1  0
 11 12  1  0
 11 13  1  0
 11 14  1  0
  2 15  1  0
 15 16  1  0
 16 17  2  0
 17 18  1  0
 18 19  2  0
 19 20  1  0
 16 21  1  0
 20 21  2  0
M  END
