pyridine_urea_1905
     RDKit          3D

 22 23  0  0  0  0  0  0  0  0999 V2000
    9.5600    0.0680   25.6880 C   0  0  0  0  0  0  0  0  0  0  0  0
    9.5650    1.2460   24.8760 O   0  0  0  0  0  0  0  0  0  0  0  0
   10.7530    1.5650   24.2200 C   0  0  0  0  0  0  0  0  0  0  0  0
   11.0680    2.7270   23.9900 O   0  0  0  0  0  0  0  0  0  0  0  0
   11.5710    0.5230   23.7960 C   0  0  1  0  0  0  0  0  0  0  0  0
   12.5380    0.8150   22.8610 C   0  0  0  0  0  0  0  0  0  0  0  0
   12.8880   -0.4020   22.3350 C   0  0  0  0  0  0  0  0  0  0  0  0
   11.8390   -1.2900   22.5450 C   0  0  2  0  0  0  0  0  0  0  0  0
   12.0110   -2.3550   21.7430 F   0  0  0  0  0  0  0  0  0  0  0  0
   10.5530   -0.6810   22.5660 C   0  0  0  0  0  0  0  0  0  0  0  0
    9.5720   -1.1620   21.6110 N   0  0  0  0  0  0  0  0  0  0  0  0
    8.6020   -0.2160   21.3560 C   0  0  0  0  0  0  0  0  0  0  0  0
    8.8540    0.9760   21.4270 O   0  0  0  0  0  0  0  0  0  0  0  0
    7.3010   -0.7260   20.9640 N   0  0  0  0  0  0  0  0  0  0  0  0
    6.5600   -0.0850   20.0240 C   0  0  0  0  0  0  0  0  0  0  0  0
    5.3890    0.5930   20.3800 C   0  0  0  0  0  0  0  0  0  0  0  0
    4.6760    1.2520   19.3790 C   0  0  0  0  0  0  0  0  0  0  0  0
    5.1290    1.2260   18.0780 C   0  0  0  0  0  0  0  0  0  0  0  0
    6.2390    0.5750   17.7200 N   0  0  0  0  0  0  0  0  0  0  0  0
    6.9250   -0.0610   18.6930 C   0  0  0  0  0  0  0  0  0  0  0  0
   12.1120   -1.7610   23.8190 C   0  0  0  0  0  0  0  0  0  0  0  0
   12.0290   -0.4740   24.6570 C   0  0  0  0  0  0  0  0  0  0  0  0
  1  2  1  0
  2  3  1  0
  3  4  2  0
  5  3  1  1
  5  6  1  0
  6  7  1  0
  7  8  1  0
  8  9  1  6
  8 10  1  0
 10 11  1  0
 11 12  1  0
 12 13  2  0
 12 14  1  0
 14 15  1  0
 15 16  2  0
 16 17  1  0
 17 18  2  0
 18 19  1  0
 15 20  1  0
 19 20  2  0
  8 21  1  0
  5 22  1  0
 21 22  1  0
M  END
