pyridine_urea_6959
     RDKit          3D

 20 22  0  0  0  0  0  0  0  0999 V2000
    8.8590    0.6470   21.3700 O   0  0  0  0  0  0  0  0  0  0  0  0
    8.2020   -0.3800   21.4910 C   0  0  0  0  0  0  0  0  0  0  0  0
    6.9240   -0.5920   21.0310 N   0  0  0  0  0  0  0  0  0  0  0  0
    6.2780    0.1080   20.0150 C   0  0  0  0  0  0  0  0  0  0  0  0
    5.1020    0.8310   20.1670 C   0  0  0  0  0  0  0  0  0  0  0  0
    4.5610    1.4960   19.0660 C   0  0  0  0  0  0  0  0  0  0  0  0
    5.2190    1.4110   17.8590 C   0  0  0  0  0  0  0  0  0  0  0  0
    6.3530    0.7120   17.6900 N   0  0  0  0  0  0  0  0  0  0  0  0
    6.8500    0.0820   18.7620 C   0  0  0  0  0  0  0  0  0  0  0  0
    8.6040   -1.5340   22.1120 N   0  0  0  0  0  0  0  0  0  0  0  0
    9.7630   -1.7480   22.8460 C   0  0  2  0  0  0  0  0  0  0  0  0
    9.9840   -0.9610   23.9280 C   0  0  0  0  0  0  0  0  0  0  0  0
   11.1450   -1.2120   24.1410 O   0  0  0  0  0  0  0  0  0  0  0  0
   11.9350   -1.1940   22.9380 C   0  0  0  0  0  0  0  0  0  0  0  0
   12.9020   -2.0980   23.1990 C   0  0  0  0  0  0  0  0  0  0  0  0
   13.1570   -1.9600   24.5410 C   0  0  0  0  0  0  0  0  0  0  0  0
   12.6000   -0.6620   25.0930 C   0  0  0  0  0  0  0  0  0  0  0  0
   12.2950    0.4230   24.1840 C   0  0  0  0  0  0  0  0  0  0  0  0
   12.4060    0.0680   22.8770 C   0  0  0  0  0  0  0  0  0  0  0  0
   10.9830   -1.4910   21.9590 C   0  0  0  0  0  0  0  0  0  0  0  0
  1  2  2  0
  2  3  1  0
  3  4  1  0
  4  5  2  0
  5  6  1  0
  6  7  2  0
  7  8  1  0
  4  9  1  0
  8  9  2  0
  2 10  1  0
 11 10  1  6
 11 12  1  0
 12 13  1  0
 14 13  1  0
 14 15  1  0
 15 16  1  0
 16 17  1  0
 17 18  1  0
 14 19  1  0
 18 19  1  0
 11 20  1  0
 14 20  1  0
M  END
