pyridine_urea_8875
     RDKit          3D

 20 21  0  0  0  0  0  0  0  0999 V2000
    9.4960    1.4860   23.1800 C   0  0  0  0  0  0  0  0  0  0  0  0
    8.5290    0.4460   23.3620 O   0  0  0  0  0  0  0  0  0  0  0  0
    8.9470   -0.8500   23.6030 C   0  0  0  0  0  0  0  0  0  0  0  0
    9.7500   -1.4860   22.4710 C   0  0  1  0  0  0  0  0  0  0  0  0
    9.0150   -1.3490   21.2790 N   0  0  0  0  0  0  0  0  0  0  0  0
    8.2400   -0.2570   21.1810 C   0  0  0  0  0  0  0  0  0  0  0  0
    8.6480    0.8940   21.2270 O   0  0  0  0  0  0  0  0  0  0  0  0
    6.9210   -0.5130   20.9870 N   0  0  0  0  0  0  0  0  0  0  0  0
    6.2910    0.1270   19.9460 C   0  0  0  0  0  0  0  0  0  0  0  0
    5.0940    0.8020   20.1610 C   0  0  0  0  0  0  0  0  0  0  0  0
    4.5060    1.4560   19.0890 C   0  0  0  0  0  0  0  0  0  0  0  0
    5.1350    1.4100   17.8500 C   0  0  0  0  0  0  0  0  0  0  0  0
    6.2820    0.7540   17.6390 N   0  0  0  0  0  0  0  0  0  0  0  0
    6.8280    0.1290   18.6870 C   0  0  0  0  0  0  0  0  0  0  0  0
   10.9960   -0.7110   22.4040 C   0  0  0  0  0  0  0  0  0  0  0  0
   12.2320   -0.1720   22.6330 C   0  0  0  0  0  0  0  0  0  0  0  0
   13.1480   -0.4880   23.7040 C   0  0  0  0  0  0  0  0  0  0  0  0
   13.2380   -1.3140   24.7920 C   0  0  0  0  0  0  0  0  0  0  0  0
   11.9750   -1.7810   24.4340 C   0  0  0  0  0  0  0  0  0  0  0  0
   11.1200   -1.5010   23.4650 N   0  0  0  0  0  0  0  0  0  0  0  0
  1  2  1  0
  2  3  1  0
  4  3  1  1
  4  5  1  0
  5  6  1  0
  6  7  2  0
  6  8  1  0
  8  9  1  0
  9 10  2  0
 10 11  1  0
 11 12  2  0
 12 13  1  0
  9 14  1  0
 13 14  2  0
  4 15  1  0
 15 16  2  0
 16 17  1  0
 17 18  2  0
 18 19  1  0
 15 20  1  0
 19 20  2  0
M  END
