pyridine_urea_2052
     RDKit          3D

 19 20  0  0  0  0  0  0  0  0999 V2000
    8.1500   -2.3570   23.8530 C   0  0  0  0  0  0  0  0  0  0  0  0
    9.3460   -2.6790   23.1350 O   0  0  0  0  0  0  0  0  0  0  0  0
   10.4760   -2.0940   23.6410 C   0  0  0  0  0  0  0  0  0  0  0  0
   11.5760   -2.8600   24.2530 N   0  0  0  0  0  0  0  0  0  0  0  0
   12.5400   -1.9090   24.6540 N   0  0  0  0  0  0  0  0  0  0  0  0
   13.6120   -2.5300   25.2360 C   0  0  0  0  0  0  0  0  0  0  0  0
   12.1760   -0.5730   24.3620 C   0  0  0  0  0  0  0  0  0  0  0  0
   10.8640   -0.5690   23.7040 C   0  0  0  0  0  0  0  0  0  0  0  0
   10.0450    0.3950   23.2060 C   0  0  0  0  0  0  0  0  0  0  0  0
    9.1100   -0.4200   22.4870 N   0  0  0  0  0  0  0  0  0  0  0  0
    8.2940    0.2040   21.4930 C   0  0  0  0  0  0  0  0  0  0  0  0
    8.6650    1.2730   20.9890 O   0  0  0  0  0  0  0  0  0  0  0  0
    7.0970   -0.4890   21.1970 N   0  0  0  0  0  0  0  0  0  0  0  0
    6.4990    0.1140   19.9990 C   0  0  0  0  0  0  0  0  0  0  0  0
    5.3600    0.8490   20.3090 C   0  0  0  0  0  0  0  0  0  0  0  0
    4.6910    1.4830   19.2740 C   0  0  0  0  0  0  0  0  0  0  0  0
    5.1850    1.3620   17.9710 C   0  0  0  0  0  0  0  0  0  0  0  0
    6.2840    0.6450   17.6780 N   0  0  0  0  0  0  0  0  0  0  0  0
    6.9200    0.0340   18.6990 C   0  0  0  0  0  0  0  0  0  0  0  0
  1  2  1  0
  2  3  1  0
  3  4  2  0
  4  5  1  0
  5  6  1  0
  5  7  1  0
  3  8  1  0
  7  8  2  0
  8  9  1  0
  9 10  1  0
 10 11  1  0
 11 12  2  0
 11 13  1  0
 13 14  1  0
 14 15  2  0
 15 16  1  0
 16 17  2  0
 17 18  1  0
 14 19  1  0
 18 19  2  0
M  END
