pyridine_urea_6361
     RDKit          3D

 23 25  0  0  0  0  0  0  0  0999 V2000
    8.4750    1.0300   21.2360 O   0  0  0  0  0  0  0  0  0  0  0  0
    8.2520   -0.1710   21.3640 C   0  0  0  0  0  0  0  0  0  0  0  0
    7.0380   -0.7290   21.0760 N   0  0  0  0  0  0  0  0  0  0  0  0
    6.3970   -0.0470   19.9890 C   0  0  0  0  0  0  0  0  0  0  0  0
    5.1030    0.6890   20.3070 C   0  0  0  0  0  0  0  0  0  0  0  0
    4.5030    1.3940   19.1420 C   0  0  0  0  0  0  0  0  0  0  0  0
    5.1460    1.3240   17.9190 C   0  0  0  0  0  0  0  0  0  0  0  0
    6.2890    0.6490   17.6990 N   0  0  0  0  0  0  0  0  0  0  0  0
    6.8810   -0.0100   18.7100 C   0  0  0  0  0  0  0  0  0  0  0  0
    9.2100   -1.0410   21.7750 N   0  0  0  0  0  0  0  0  0  0  0  0
   10.2810   -0.3160   22.4630 C   0  0  1  0  0  0  0  0  0  0  0  0
    9.9310    0.1420   23.6670 C   0  0  0  0  0  0  0  0  0  0  0  0
   11.0260   -0.6920   24.2160 C   0  0  0  0  0  0  0  0  0  0  0  0
   12.2360   -0.4940   24.7260 C   0  0  0  0  0  0  0  0  0  0  0  0
   12.8940   -1.6250   25.0890 C   0  0  0  0  0  0  0  0  0  0  0  0
   12.3200   -2.8590   24.9310 C   0  0  0  0  0  0  0  0  0  0  0  0
   10.9570   -3.3390   24.3880 C   0  0  0  0  0  0  0  0  0  0  0  0
   10.3890   -2.0030   24.0420 C   0  0  0  0  0  0  0  0  0  0  0  0
   11.6480   -1.0550   22.3720 C   0  0  0  0  0  0  0  0  0  0  0  0
   12.8530   -0.9340   22.4330 C   0  0  0  0  0  0  0  0  0  0  0  0
   12.4390    0.5670   22.6980 C   0  0  0  0  0  0  0  0  0  0  0  0
   13.6080    0.7640   22.7700 C   0  0  0  0  0  0  0  0  0  0  0  0
   12.2910    0.1450   22.6150 O   0  0  0  0  0  0  0  0  0  0  0  0
  1  2  2  0
  2  3  1  0
  3  4  1  0
  4  5  2  0
  5  6  1  0
  6  7  2  0
  7  8  1  0
  4  9  1  0
  8  9  2  0
  2 10  1  0
 10 11  1  0
 11 12  1  1
 12 13  1  0
 13 14  2  0
 14 15  1  0
 15 16  2  0
 16 17  1  0
 13 18  1  0
 17 18  2  0
 11 19  1  0
 19 20  2  0
 20 21  1  0
 21 22  2  0
 19 23  1  0
 22 23  1  0
M  END
