pyridine_urea_1016
     RDKit          3D

 22 24  0  0  0  0  0  0  0  0999 V2000
    8.5260    1.3020   21.0310 O   0  0  0  0  0  0  0  0  0  0  0  0
    7.8750    0.3670   21.5270 C   0  0  0  0  0  0  0  0  0  0  0  0
    8.1240   -0.1190   22.8240 N   0  0  0  0  0  0  0  0  0  0  0  0
    9.4320   -0.2870   22.8620 C   0  0  0  0  0  0  0  0  0  0  0  0
    9.8510   -1.5180   22.4230 C   0  0  0  0  0  0  0  0  0  0  0  0
   11.1550   -1.8450   22.3880 C   0  0  0  0  0  0  0  0  0  0  0  0
   12.1150   -0.9820   22.7900 C   0  0  0  0  0  0  0  0  0  0  0  0
   13.2870   -1.3770   22.7220 N   0  0  0  0  0  0  0  0  0  0  0  0
   13.2720   -2.5790   22.0390 N   0  0  0  0  0  0  0  0  0  0  0  0
   13.1230   -2.2760   20.7940 N   0  0  0  0  0  0  0  0  0  0  0  0
   13.7610   -1.0900   20.7590 N   0  0  0  0  0  0  0  0  0  0  0  0
   13.6860   -0.4690   22.0070 C   0  0  0  0  0  0  0  0  0  0  0  0
   13.9160    0.6470   22.3940 O   0  0  0  0  0  0  0  0  0  0  0  0
   11.7280    0.3920   23.2770 C   0  0  0  0  0  0  0  0  0  0  0  0
   10.2800    0.6840   23.2800 C   0  0  0  0  0  0  0  0  0  0  0  0
    6.8690   -0.3350   20.9510 N   0  0  0  0  0  0  0  0  0  0  0  0
    6.2840    0.2420   19.8740 C   0  0  0  0  0  0  0  0  0  0  0  0
    5.1170    0.9760   20.0620 C   0  0  0  0  0  0  0  0  0  0  0  0
    4.5240    1.6060   18.9790 C   0  0  0  0  0  0  0  0  0  0  0  0
    5.1100    1.4860   17.7410 C   0  0  0  0  0  0  0  0  0  0  0  0
    6.2230    0.7810   17.5040 N   0  0  0  0  0  0  0  0  0  0  0  0
    6.8070    0.1480   18.6290 C   0  0  0  0  0  0  0  0  0  0  0  0
  1  2  2  0
  2  3  1  0
  3  4  1  0
  4  5  2  0
  5  6  1  0
  6  7  2  0
  7  8  1  0
  8  9  1  0
  9 10  1  0
 10 11  1  0
  8 12  1  0
 11 12  1  0
 12 13  2  0
  7 14  1  0
  4 15  1  0
 14 15  2  0
  2 16  1  0
 16 17  1  0
 17 18  2  0
 18 19  1  0
 19 20  2  0
 20 21  1  0
 17 22  1  0
 21 22  2  0
M  END
