pyridine_urea_6252
     RDKit          3D

 24 26  0  0  0  0  0  0  0  0999 V2000
    8.9100    0.9070   21.4350 O   0  0  0  0  0  0  0  0  0  0  0  0
    8.5060   -0.2380   21.3460 C   0  0  0  0  0  0  0  0  0  0  0  0
    9.3080   -1.3450   21.5330 N   0  0  0  0  0  0  0  0  0  0  0  0
   10.1020   -1.5310   22.7430 C   0  0  0  0  0  0  0  0  0  0  0  0
   11.5350   -0.9930   22.6710 C   0  0  0  0  0  0  0  0  0  0  0  0
   10.4720   -0.0440   23.0150 C   0  0  0  0  0  0  0  0  0  0  0  0
   10.6240    1.1960   23.2380 C   0  0  0  0  0  0  0  0  0  0  0  0
   11.4580    2.3470   23.3480 C   0  0  0  0  0  0  0  0  0  0  0  0
   11.0790    4.0870   23.6960 S   0  0  0  0  0  0  0  0  0  0  0  0
   12.0570    4.7170   24.5490 O   0  0  0  0  0  0  0  0  0  0  0  0
    9.6610    4.1870   23.9850 O   0  0  0  0  0  0  0  0  0  0  0  0
   11.3810    4.8090   22.2210 N   0  0  0  0  0  0  0  0  0  0  0  0
   12.6180    4.4340   21.7120 C   0  0  0  0  0  0  0  0  0  0  0  0
   13.6340    4.0780   22.4840 C   0  0  0  0  0  0  0  0  0  0  0  0
   13.9230    5.2980   21.7880 C   0  0  0  0  0  0  0  0  0  0  0  0
   12.6040    1.5820   23.0590 C   0  0  0  0  0  0  0  0  0  0  0  0
   12.7430    0.1380   22.7530 C   0  0  0  0  0  0  0  0  0  0  0  0
    7.2010   -0.5410   21.0050 N   0  0  0  0  0  0  0  0  0  0  0  0
    6.4430    0.0930   20.0500 C   0  0  0  0  0  0  0  0  0  0  0  0
    5.1120    0.6880   20.5840 C   0  0  0  0  0  0  0  0  0  0  0  0
    4.6170    1.2870   19.2720 C   0  0  0  0  0  0  0  0  0  0  0  0
    5.2750    1.2590   17.9410 C   0  0  0  0  0  0  0  0  0  0  0  0
    6.4140    0.6880   17.6990 N   0  0  0  0  0  0  0  0  0  0  0  0
    6.9530    0.1270   18.7620 C   0  0  0  0  0  0  0  0  0  0  0  0
  1  2  2  0
  2  3  1  0
  3  4  1  0
  4  5  1  0
  5  6  2  0
  6  7  1  0
  7  8  2  0
  8  9  1  0
  9 10  2  0
  9 11  2  0
  9 12  1  0
 12 13  1  0
 13 14  1  0
 13 15  1  0
 14 15  1  0
  8 16  1  0
  5 17  1  0
 16 17  2  0
  2 18  1  0
 18 19  1  0
 19 20  2  0
 20 21  1  0
 21 22  2  0
 22 23  1  0
 19 24  1  0
 23 24  2  0
M  END
