pyridine_urea_11382
     RDKit          3D

 18 19  0  0  0  0  0  0  0  0999 V2000
   11.1710   -0.3610   24.9730 C   0  0  0  0  0  0  0  0  0  0  0  0
   12.1680   -0.0440   24.4120 C   0  0  2  0  0  0  0  0  0  0  0  0
   11.9420    1.3500   24.1740 O   0  0  0  0  0  0  0  0  0  0  0  0
   12.4200    1.5630   22.9450 C   0  0  0  0  0  0  0  0  0  0  0  0
   13.1370    0.2880   22.6320 C   0  0  0  0  0  0  0  0  0  0  0  0
   12.5740   -0.8280   23.1720 C   0  0  2  0  0  0  0  0  0  0  0  0
   11.4170   -1.6240   22.5400 C   0  0  0  0  0  0  0  0  0  0  0  0
   10.0810   -1.1210   22.9240 C   0  0  0  0  0  0  0  0  0  0  0  0
    9.1080   -1.3520   21.8890 N   0  0  0  0  0  0  0  0  0  0  0  0
    8.3790   -0.2870   21.4260 C   0  0  0  0  0  0  0  0  0  0  0  0
    8.8250    0.8510   21.3680 O   0  0  0  0  0  0  0  0  0  0  0  0
    7.1220   -0.6640   21.0370 N   0  0  0  0  0  0  0  0  0  0  0  0
    6.4000    0.0240   20.0560 C   0  0  0  0  0  0  0  0  0  0  0  0
    5.2210    0.7290   20.2230 C   0  0  0  0  0  0  0  0  0  0  0  0
    4.6000    1.3890   19.1780 C   0  0  0  0  0  0  0  0  0  0  0  0
    5.1850    1.3380   17.9340 C   0  0  0  0  0  0  0  0  0  0  0  0
    6.3320    0.6600   17.7190 N   0  0  0  0  0  0  0  0  0  0  0  0
    6.9010    0.0260   18.7670 C   0  0  0  0  0  0  0  0  0  0  0  0
  2  1  1  6
  2  3  1  0
  3  4  1  0
  4  5  1  0
  2  6  1  0
  5  6  1  0
  6  7  1  6
  7  8  1  0
  8  9  1  0
  9 10  1  0
 10 11  2  0
 10 12  1  0
 12 13  1  0
 13 14  2  0
 14 15  1  0
 15 16  2  0
 16 17  1  0
 13 18  1  0
 17 18  2  0
M  END
