pyridine_urea_2008
     RDKit          3D

 16 17  0  0  0  0  0  0  0  0999 V2000
   11.9200    1.7400   22.8270 C   0  0  0  0  0  0  0  0  0  0  0  0
   12.8200    0.4940   22.9750 C   0  0  0  0  0  0  0  0  0  0  0  0
   11.9970   -0.7220   23.4530 C   0  0  1  0  0  0  0  0  0  0  0  0
   10.5190   -0.4140   23.6960 C   0  0  0  0  0  0  0  0  0  0  0  0
   10.0720   -1.2650   22.6600 C   0  0  1  0  0  0  0  0  0  0  0  0
    9.2270   -0.9490   21.4950 N   0  0  0  0  0  0  0  0  0  0  0  0
    8.5640    0.2820   21.4580 C   0  0  0  0  0  0  0  0  0  0  0  0
    9.6190    0.7430   21.8210 O   0  0  0  0  0  0  0  0  0  0  0  0
    7.4710   -0.5800   21.0280 N   0  0  0  0  0  0  0  0  0  0  0  0
    6.5990    0.0180   20.1390 C   0  0  0  0  0  0  0  0  0  0  0  0
    5.4150    0.6440   20.7130 C   0  0  0  0  0  0  0  0  0  0  0  0
    5.3520    0.8430   19.4250 C   0  0  0  0  0  0  0  0  0  0  0  0
    5.1320    1.1290   18.1800 C   0  0  0  0  0  0  0  0  0  0  0  0
    6.1560    0.5770   17.6310 N   0  0  0  0  0  0  0  0  0  0  0  0
    6.8820    0.0180   18.7000 C   0  0  0  0  0  0  0  0  0  0  0  0
   11.3800   -1.6740   22.2040 C   0  0  0  0  0  0  0  0  0  0  0  0
  1  2  3  0
  3  2  1  6
  3  4  1  0
  4  5  1  0
  5  6  1  6
  6  7  1  0
  7  8  2  0
  7  9  1  0
  9 10  1  0
 10 11  2  0
 11 12  1  0
 12 13  2  0
 13 14  1  0
 10 15  1  0
 14 15  2  0
  3 16  1  0
  5 16  1  0
M  END
