pyridine_urea_3014
     RDKit          3D

 21 22  0  0  0  0  0  0  0  0999 V2000
    8.5240    0.8100   21.0150 O   0  0  0  0  0  0  0  0  0  0  0  0
    8.2230   -0.2600   21.5050 C   0  0  0  0  0  0  0  0  0  0  0  0
    7.0810   -0.8990   21.0890 N   0  0  0  0  0  0  0  0  0  0  0  0
    6.4000   -0.1600   20.0430 C   0  0  0  0  0  0  0  0  0  0  0  0
    5.0700    0.5990   20.3550 C   0  0  0  0  0  0  0  0  0  0  0  0
    4.4730    1.3030   19.3140 C   0  0  0  0  0  0  0  0  0  0  0  0
    5.1850    1.2620   17.9590 C   0  0  0  0  0  0  0  0  0  0  0  0
    6.3310    0.5840   17.7430 N   0  0  0  0  0  0  0  0  0  0  0  0
    6.8990   -0.0970   18.7590 C   0  0  0  0  0  0  0  0  0  0  0  0
    8.9410   -0.9070   22.4800 N   0  0  0  0  0  0  0  0  0  0  0  0
   10.2920   -0.3840   22.6210 C   0  0  0  0  0  0  0  0  0  0  0  0
   11.3980   -1.4240   22.5170 C   0  0  0  0  0  0  0  0  0  0  0  0
   12.8290   -0.9170   22.6430 C   0  0  0  0  0  0  0  0  0  0  0  0
   13.0670    0.5800   22.8550 C   0  0  0  0  0  0  0  0  0  0  0  0
   11.9000    1.5470   22.9420 C   0  0  0  0  0  0  0  0  0  0  0  0
   12.0750    2.8670   23.1190 F   0  0  0  0  0  0  0  0  0  0  0  0
   10.5000    0.9920   22.8220 C   0  0  0  0  0  0  0  0  0  0  0  0
    9.4370    1.9110   22.9100 C   0  0  0  0  0  0  0  0  0  0  0  0
    9.6800    2.9340   23.7790 F   0  0  0  0  0  0  0  0  0  0  0  0
    8.2470    1.3730   23.3060 F   0  0  0  0  0  0  0  0  0  0  0  0
    9.1910    2.5540   21.7580 F   0  0  0  0  0  0  0  0  0  0  0  0
  1  2  2  0
  2  3  1  0
  3  4  1  0
  4  5  2  0
  5  6  1  0
  6  7  2  0
  7  8  1  0
  4  9  1  0
  8  9  2  0
  2 10  1  0
 10 11  1  0
 11 12  2  0
 12 13  1  0
 13 14  2  0
 14 15  1  0
 15 16  1  0
 11 17  1  0
 15 17  2  0
 17 18  1  0
 18 19  1  0
 18 20  1  0
 18 21  1  0
M  END
