pyridine_urea_2404
     RDKit          3D

 24 26  0  0  0  0  0  0  0  0999 V2000
    8.9460    1.4140   21.2900 O   0  0  0  0  0  0  0  0  0  0  0  0
    8.5620    0.2500   21.3720 C   0  0  0  0  0  0  0  0  0  0  0  0
    7.2880   -0.2040   21.1390 N   0  0  0  0  0  0  0  0  0  0  0  0
    6.5560    0.2710   20.0610 C   0  0  0  0  0  0  0  0  0  0  0  0
    5.3880    0.9940   20.3020 C   0  0  0  0  0  0  0  0  0  0  0  0
    4.6590    1.4980   19.2320 C   0  0  0  0  0  0  0  0  0  0  0  0
    5.1300    1.2550   17.9620 C   0  0  0  0  0  0  0  0  0  0  0  0
    6.2380    0.5570   17.7020 N   0  0  0  0  0  0  0  0  0  0  0  0
    6.9260    0.0780   18.7480 C   0  0  0  0  0  0  0  0  0  0  0  0
    9.3990   -0.7860   21.6530 N   0  0  0  0  0  0  0  0  0  0  0  0
   10.3160   -0.8410   22.7930 C   0  0  0  0  0  0  0  0  0  0  0  0
    9.5460   -1.6520   23.8360 C   0  0  0  0  0  0  0  0  0  0  0  0
    9.1780   -2.9830   23.5790 C   0  0  0  0  0  0  0  0  0  0  0  0
    8.4690   -3.7210   24.5280 C   0  0  0  0  0  0  0  0  0  0  0  0
    8.0980   -3.1780   25.7510 C   0  0  0  0  0  0  0  0  0  0  0  0
    7.3870   -3.9410   26.6760 C   0  0  0  0  0  0  0  0  0  0  0  0
    8.1190   -4.7130   27.5040 F   0  0  0  0  0  0  0  0  0  0  0  0
    6.5360   -4.7830   26.0460 F   0  0  0  0  0  0  0  0  0  0  0  0
    6.6130   -3.1480   27.4490 F   0  0  0  0  0  0  0  0  0  0  0  0
    8.4600   -1.8550   26.0170 C   0  0  0  0  0  0  0  0  0  0  0  0
    9.1710   -1.1070   25.0780 C   0  0  0  0  0  0  0  0  0  0  0  0
   11.7200   -1.3400   22.3900 C   0  0  0  0  0  0  0  0  0  0  0  0
   12.2260   -0.2100   22.8960 C   0  0  0  0  0  0  0  0  0  0  0  0
   10.9880    0.3780   23.2500 C   0  0  0  0  0  0  0  0  0  0  0  0
  1  2  2  0
  2  3  1  0
  3  4  1  0
  4  5  2  0
  5  6  1  0
  6  7  2  0
  7  8  1  0
  4  9  1  0
  8  9  2  0
  2 10  1  0
 11 10  1  0
 11 12  1  0
 12 13  2  0
 13 14  1  0
 14 15  2  0
 15 16  1  0
 16 17  1  0
 16 18  1  0
 16 19  1  0
 15 20  1  0
 12 21  1  0
 20 21  2  0
 11 22  1  0
 22 23  1  0
 11 24  1  0
 23 24  1  0
M  END
