pyridine_urea_5824
     RDKit          3D

 19 20  0  0  0  0  0  0  0  0999 V2000
   13.1630    0.0120   22.5790 C   0  0  0  0  0  0  0  0  0  0  0  0
   12.8040   -0.6420   23.8620 C   0  0  0  0  0  0  0  0  0  0  0  0
   12.7370   -2.0400   23.9080 C   0  0  0  0  0  0  0  0  0  0  0  0
   11.4660   -0.0310   24.2640 C   0  0  2  0  0  0  0  0  0  0  0  0
   10.6950   -0.7230   25.1900 C   0  0  0  0  0  0  0  0  0  0  0  0
    9.2540   -0.4590   24.9610 C   0  0  0  0  0  0  0  0  0  0  0  0
    9.1010    0.0750   23.8940 O   0  0  0  0  0  0  0  0  0  0  0  0
   10.3700    0.0070   23.2020 C   0  0  2  0  0  0  0  0  0  0  0  0
   10.3410   -1.2190   22.3160 C   0  0  0  0  0  0  0  0  0  0  0  0
    9.0180   -1.4330   21.7990 N   0  0  0  0  0  0  0  0  0  0  0  0
    8.3310   -0.3210   21.3840 C   0  0  0  0  0  0  0  0  0  0  0  0
    8.7950    0.8070   21.3060 O   0  0  0  0  0  0  0  0  0  0  0  0
    7.0430   -0.6320   21.0400 N   0  0  0  0  0  0  0  0  0  0  0  0
    6.3990    0.0260   19.9950 C   0  0  0  0  0  0  0  0  0  0  0  0
    5.2200    0.7320   20.2280 C   0  0  0  0  0  0  0  0  0  0  0  0
    4.5890    1.4010   19.1950 C   0  0  0  0  0  0  0  0  0  0  0  0
    5.1670    1.3430   17.9420 C   0  0  0  0  0  0  0  0  0  0  0  0
    6.2960    0.6640   17.6900 N   0  0  0  0  0  0  0  0  0  0  0  0
    6.8830    0.0250   18.7130 C   0  0  0  0  0  0  0  0  0  0  0  0
  1  2  1  0
  2  3  1  0
  4  2  1  6
  4  5  1  0
  5  6  1  0
  6  7  1  0
  4  8  1  0
  7  8  1  0
  8  9  1  1
  9 10  1  0
 10 11  1  0
 11 12  2  0
 11 13  1  0
 13 14  1  0
 14 15  2  0
 15 16  1  0
 16 17  2  0
 17 18  1  0
 14 19  1  0
 18 19  2  0
M  END
