pyridine_urea_8629
     RDKit          3D

 21 22  0  0  0  0  0  0  0  0999 V2000
    9.8670   -2.5380   22.8620 C   0  0  0  0  0  0  0  0  0  0  0  0
   11.3020   -2.2990   22.4860 C   0  0  0  0  0  0  0  0  0  0  0  0
   12.5200   -1.4810   22.3570 C   0  0  0  0  0  0  0  0  0  0  0  0
   11.8550   -0.1920   22.9560 C   0  0  0  0  0  0  0  0  0  0  0  0
   11.8810    1.4580   23.4420 Cl  0  0  0  0  0  0  0  0  0  0  0  0
   13.1100    0.3450   22.7430 C   0  0  0  0  0  0  0  0  0  0  0  0
   12.7030   -0.9420   22.4660 C   0  0  0  0  0  0  0  0  0  0  0  0
   11.3130   -1.1000   22.8460 C   0  0  0  0  0  0  0  0  0  0  0  0
   10.2280   -0.1550   23.4860 C   0  0  2  0  0  0  0  0  0  0  0  0
   10.2040   -0.3590   24.8560 C   0  0  0  0  0  0  0  0  0  0  0  0
    9.2790    0.2530   25.3780 O   0  0  0  0  0  0  0  0  0  0  0  0
    8.7840   -0.5310   23.0880 N   0  0  0  0  0  0  0  0  0  0  0  0
    8.5010   -0.5560   21.7580 C   0  0  0  0  0  0  0  0  0  0  0  0
    9.5290   -0.6050   20.9420 O   0  0  0  0  0  0  0  0  0  0  0  0
    7.1400   -0.5360   21.3990 N   0  0  0  0  0  0  0  0  0  0  0  0
    6.5390    0.0420   20.2400 C   0  0  0  0  0  0  0  0  0  0  0  0
    5.3770    0.8160   20.4180 C   0  0  0  0  0  0  0  0  0  0  0  0
    4.7480    1.4110   19.3170 C   0  0  0  0  0  0  0  0  0  0  0  0
    5.3010    1.2180   18.0650 C   0  0  0  0  0  0  0  0  0  0  0  0
    6.4080    0.4840   17.8540 N   0  0  0  0  0  0  0  0  0  0  0  0
    7.0050   -0.0930   18.9270 C   0  0  0  0  0  0  0  0  0  0  0  0
  1  2  1  0
  2  3  2  0
  3  4  1  0
  4  5  1  0
  4  6  2  0
  6  7  1  0
  2  8  1  0
  7  8  2  0
  8  9  1  0
  9 10  1  1
 10 11  1  0
  9 12  1  0
 12 13  1  0
 13 14  2  0
 13 15  1  0
 15 16  1  0
 16 17  2  0
 17 18  1  0
 18 19  2  0
 19 20  1  0
 16 21  1  0
 20 21  2  0
M  END
