pyridine_urea_14769
     RDKit          3D

 20 21  0  0  0  0  0  0  0  0999 V2000
    9.9810    0.8180   24.2720 C   0  0  0  0  0  0  0  0  0  0  0  0
    9.6920   -0.4580   23.5020 C   0  0  2  0  0  0  0  0  0  0  0  0
   10.4930   -0.7590   22.4240 C   0  0  0  0  0  0  0  0  0  0  0  0
   11.3790   -1.7460   22.6840 C   0  0  0  0  0  0  0  0  0  0  0  0
   11.8200   -1.5670   24.0580 N   0  0  0  0  0  0  0  0  0  0  0  0
   12.7690   -2.4740   24.3780 C   0  0  0  0  0  0  0  0  0  0  0  0
   13.5750   -2.5590   23.2640 C   0  0  0  0  0  0  0  0  0  0  0  0
   13.8490   -1.4940   22.6860 O   0  0  0  0  0  0  0  0  0  0  0  0
   13.2200   -0.2920   23.0610 C   0  0  0  0  0  0  0  0  0  0  0  0
   12.4790   -0.3960   24.2170 C   0  0  0  0  0  0  0  0  0  0  0  0
    8.3750   -0.4590   22.8790 N   0  0  0  0  0  0  0  0  0  0  0  0
    8.1550    0.1700   21.5830 C   0  0  0  0  0  0  0  0  0  0  0  0
    8.8450    1.3520   21.1050 O   0  0  0  0  0  0  0  0  0  0  0  0
    7.1940   -0.5210   20.9100 N   0  0  0  0  0  0  0  0  0  0  0  0
    6.4160    0.1320   19.9810 C   0  0  0  0  0  0  0  0  0  0  0  0
    5.2270    0.8070   20.2400 C   0  0  0  0  0  0  0  0  0  0  0  0
    4.5380    1.4810   19.1120 C   0  0  0  0  0  0  0  0  0  0  0  0
    5.1230    1.3980   17.8460 C   0  0  0  0  0  0  0  0  0  0  0  0
    6.2610    0.7350   17.6020 N   0  0  0  0  0  0  0  0  0  0  0  0
    6.8560    0.1300   18.6910 C   0  0  0  0  0  0  0  0  0  0  0  0
  2  1  1  6
  2  3  1  0
  3  4  1  0
  4  5  1  0
  5  6  1  0
  6  7  1  0
  7  8  1  0
  8  9  1  0
  5 10  1  0
  9 10  1  0
  2 11  1  0
 11 12  1  0
 12 13  2  0
 12 14  1  0
 14 15  1  0
 15 16  2  0
 16 17  1  0
 17 18  2  0
 18 19  1  0
 15 20  1  0
 19 20  2  0
M  END
