pyridine_urea_11836
     RDKit          3D

 25 27  0  0  0  0  0  0  0  0999 V2000
    8.6470   -1.7800   20.7170 N   0  0  0  0  0  0  0  0  0  0  0  0
    9.6350   -2.3420   21.4640 C   0  0  0  0  0  0  0  0  0  0  0  0
    9.2800   -3.4910   22.2470 O   0  0  0  0  0  0  0  0  0  0  0  0
   11.0110   -1.6410   21.4250 C   0  0  2  0  0  0  0  0  0  0  0  0
   12.1510   -2.1160   20.6760 C   0  0  0  0  0  0  0  0  0  0  0  0
   13.2980   -2.1820   21.1900 C   0  0  0  0  0  0  0  0  0  0  0  0
   12.9120   -2.2130   22.3620 C   0  0  0  0  0  0  0  0  0  0  0  0
   11.6080   -1.8350   22.4890 N   0  0  0  0  0  0  0  0  0  0  0  0
   10.4980   -2.4950   22.8730 C   0  0  0  0  0  0  0  0  0  0  0  0
    9.6790   -1.5420   23.5000 C   0  0  0  0  0  0  0  0  0  0  0  0
    9.3040   -1.6650   24.9650 C   0  0  0  0  0  0  0  0  0  0  0  0
    8.5660   -0.7330   25.5840 C   0  0  0  0  0  0  0  0  0  0  0  0
    8.0830    0.3510   24.9260 C   0  0  0  0  0  0  0  0  0  0  0  0
    8.3680    0.4820   23.6120 C   0  0  0  0  0  0  0  0  0  0  0  0
    9.1330   -0.4160   22.9360 C   0  0  0  0  0  0  0  0  0  0  0  0
    9.3920   -0.2590   21.6940 N   0  0  0  0  0  0  0  0  0  0  0  0
    8.4280    0.5400   21.2370 C   0  0  0  0  0  0  0  0  0  0  0  0
    8.6690    1.8390   20.9260 O   0  0  0  0  0  0  0  0  0  0  0  0
    7.2360   -0.0870   21.1390 N   0  0  0  0  0  0  0  0  0  0  0  0
    6.5750    0.3320   20.0640 C   0  0  0  0  0  0  0  0  0  0  0  0
    5.3320    1.1800   20.2530 C   0  0  0  0  0  0  0  0  0  0  0  0
    4.6470    1.6570   19.1500 C   0  0  0  0  0  0  0  0  0  0  0  0
    5.1140    1.3510   17.8790 C   0  0  0  0  0  0  0  0  0  0  0  0
    6.1950    0.5960   17.6270 N   0  0  0  0  0  0  0  0  0  0  0  0
    6.9380    0.0740   18.7710 C   0  0  0  0  0  0  0  0  0  0  0  0
  1  2  1  0
  2  3  2  0
  4  2  1  1
  4  5  1  0
  5  6  1  0
  6  7  1  0
  4  8  1  0
  7  8  1  0
  8  9  1  0
  9 10  1  0
 10 11  2  0
 11 12  1  0
 12 13  2  0
 13 14  1  0
 10 15  1  0
 14 15  2  0
 15 16  1  0
 16 17  1  0
 17 18  2  0
 17 19  1  0
 19 20  1  0
 20 21  2  0
 21 22  1  0
 22 23  2  0
 23 24  1  0
 20 25  1  0
 24 25  2  0
M  END
