pyridine_urea_2619
     RDKit          3D

 23 25  0  0  0  0  0  0  0  0999 V2000
    8.8120    1.2170   21.1110 O   0  0  0  0  0  0  0  0  0  0  0  0
    8.3330    0.1370   21.4770 C   0  0  0  0  0  0  0  0  0  0  0  0
    8.8080   -0.6060   22.5080 N   0  0  0  0  0  0  0  0  0  0  0  0
   10.1230   -0.5510   22.9540 C   0  0  0  0  0  0  0  0  0  0  0  0
   10.4420    0.4100   23.9130 C   0  0  0  0  0  0  0  0  0  0  0  0
   11.7350    0.8650   23.7610 C   0  0  0  0  0  0  0  0  0  0  0  0
   12.3990   -0.3100   23.8750 C   0  0  0  0  0  0  0  0  0  0  0  0
   12.9730   -1.0060   24.8590 C   0  0  0  0  0  0  0  0  0  0  0  0
   13.4570   -2.1960   24.2260 C   0  0  0  0  0  0  0  0  0  0  0  0
   13.2700   -2.4880   22.6530 C   0  0  0  0  0  0  0  0  0  0  0  0
   12.6000   -1.5800   21.7520 C   0  0  0  0  0  0  0  0  0  0  0  0
   12.7150   -1.2650   23.0090 C   0  0  0  0  0  0  0  0  0  0  0  0
    9.8880   -0.2360   25.0690 C   0  0  0  0  0  0  0  0  0  0  0  0
    8.6960    0.3080   25.4650 C   0  0  0  0  0  0  0  0  0  0  0  0
    8.4510    1.4530   24.7330 C   0  0  0  0  0  0  0  0  0  0  0  0
    9.4860    1.6540   23.8050 C   0  0  0  0  0  0  0  0  0  0  0  0
    7.2440   -0.4860   20.9360 N   0  0  0  0  0  0  0  0  0  0  0  0
    6.4540    0.1550   19.9940 C   0  0  0  0  0  0  0  0  0  0  0  0
    5.2830    0.8650   20.2420 C   0  0  0  0  0  0  0  0  0  0  0  0
    4.6220    1.4710   19.1910 C   0  0  0  0  0  0  0  0  0  0  0  0
    5.1520    1.3440   17.9230 C   0  0  0  0  0  0  0  0  0  0  0  0
    6.2630    0.6640   17.6240 N   0  0  0  0  0  0  0  0  0  0  0  0
    6.8680    0.0970   18.6800 C   0  0  0  0  0  0  0  0  0  0  0  0
  1  2  2  0
  2  3  1  0
  3  4  1  0
  5  4  1  0
  5  6  1  0
  6  7  1  0
  7  8  2  0
  8  9  1  0
  9 10  2  0
 10 11  1  0
  7 12  1  0
 11 12  2  0
  5 13  1  0
 13 14  1  0
 14 15  1  0
  5 16  1  0
 15 16  1  0
  2 17  1  0
 17 18  1  0
 18 19  2  0
 19 20  1  0
 20 21  2  0
 21 22  1  0
 18 23  1  0
 22 23  2  0
M  END
