pyridine_urea_11828
     RDKit          3D

 25 27  0  0  0  0  0  0  0  0999 V2000
    9.0270    1.2560   20.9970 O   0  0  0  0  0  0  0  0  0  0  0  0
    8.4790    0.2040   21.3280 C   0  0  0  0  0  0  0  0  0  0  0  0
    7.3790   -0.3760   20.7690 N   0  0  0  0  0  0  0  0  0  0  0  0
    6.5950    0.1900   19.7650 C   0  0  0  0  0  0  0  0  0  0  0  0
    5.3550    0.7370   20.1010 C   0  0  0  0  0  0  0  0  0  0  0  0
    4.5650    1.3160   19.1020 C   0  0  0  0  0  0  0  0  0  0  0  0
    5.0340    1.3310   17.8180 C   0  0  0  0  0  0  0  0  0  0  0  0
    6.2270    0.8040   17.4660 N   0  0  0  0  0  0  0  0  0  0  0  0
    6.9780    0.2520   18.4400 C   0  0  0  0  0  0  0  0  0  0  0  0
    8.9260   -0.5610   22.3660 N   0  0  0  0  0  0  0  0  0  0  0  0
   10.2650   -0.4320   22.8800 C   0  0  0  0  0  0  0  0  0  0  0  0
   10.6790    0.7950   23.5940 C   0  0  0  0  0  0  0  0  0  0  0  0
   11.9740    0.8130   24.0830 C   0  0  0  0  0  0  0  0  0  0  0  0
   13.0290   -0.1760   24.0440 C   0  0  0  0  0  0  0  0  0  0  0  0
   13.9270   -1.2100   23.9280 O   0  0  0  0  0  0  0  0  0  0  0  0
   13.2400   -2.2200   24.5680 C   0  0  0  0  0  0  0  0  0  0  0  0
   12.0700   -2.6250   23.8990 C   0  0  0  0  0  0  0  0  0  0  0  0
   11.1620   -3.6140   24.3600 C   0  0  0  0  0  0  0  0  0  0  0  0
   11.5570   -4.2510   25.6670 C   0  0  0  0  0  0  0  0  0  0  0  0
   10.7050   -5.2150   26.1640 F   0  0  0  0  0  0  0  0  0  0  0  0
   12.8400   -3.8200   26.3720 C   0  0  0  0  0  0  0  0  0  0  0  0
   13.6250   -2.8140   25.7880 C   0  0  0  0  0  0  0  0  0  0  0  0
   14.7650   -2.4530   26.4740 F   0  0  0  0  0  0  0  0  0  0  0  0
   12.4750   -1.2220   23.3310 N   0  0  0  0  0  0  0  0  0  0  0  0
   11.2060   -1.3740   22.7690 C   0  0  0  0  0  0  0  0  0  0  0  0
  1  2  2  0
  2  3  1  0
  3  4  1  0
  4  5  2  0
  5  6  1  0
  6  7  2  0
  7  8  1  0
  4  9  1  0
  8  9  2  0
  2 10  1  0
 10 11  1  0
 11 12  2  0
 12 13  1  0
 13 14  2  0
 14 15  1  0
 15 16  1  0
 16 17  2  0
 17 18  1  0
 18 19  2  0
 19 20  1  0
 19 21  1  0
 16 22  1  0
 21 22  2  0
 22 23  1  0
 14 24  1  0
 11 25  1  0
 24 25  2  0
M  END
