pyridine_urea_10373
     RDKit          3D

 22 23  0  0  0  0  0  0  0  0999 V2000
    8.9390    0.8500   21.3900 O   0  0  0  0  0  0  0  0  0  0  0  0
    8.4960   -0.2890   21.4340 C   0  0  0  0  0  0  0  0  0  0  0  0
    9.1930   -1.4220   21.7900 N   0  0  0  0  0  0  0  0  0  0  0  0
   10.3250   -1.5020   22.6280 C   0  0  0  0  0  0  0  0  0  0  0  0
   11.7620   -1.3300   22.0820 C   0  0  2  0  0  0  0  0  0  0  0  0
   12.6600   -2.4070   22.6790 C   0  0  0  0  0  0  0  0  0  0  0  0
   13.3190   -2.8250   21.7380 O   0  0  0  0  0  0  0  0  0  0  0  0
   12.4550    0.0050   22.5060 C   0  0  0  0  0  0  0  0  0  0  0  0
   12.8870   -0.2680   23.7400 C   0  0  0  0  0  0  0  0  0  0  0  0
   11.6550   -0.2080   24.1250 C   0  0  0  0  0  0  0  0  0  0  0  0
   10.5080    0.0650   23.4700 C   0  0  0  0  0  0  0  0  0  0  0  0
    9.8590   -0.1250   24.5840 C   0  0  0  0  0  0  0  0  0  0  0  0
    7.9650   -0.0200   24.9610 Br  0  0  0  0  0  0  0  0  0  0  0  0
   10.8870   -0.4330   25.4900 C   0  0  0  0  0  0  0  0  0  0  0  0
   12.3830   -0.5230   25.2220 C   0  0  0  0  0  0  0  0  0  0  0  0
    7.2060   -0.6120   21.0960 N   0  0  0  0  0  0  0  0  0  0  0  0
    6.5230    0.0140   20.0500 C   0  0  0  0  0  0  0  0  0  0  0  0
    5.2550    0.8090   20.3180 C   0  0  0  0  0  0  0  0  0  0  0  0
    4.6240    1.4250   19.2740 C   0  0  0  0  0  0  0  0  0  0  0  0
    5.1550    1.3060   18.0040 C   0  0  0  0  0  0  0  0  0  0  0  0
    6.2680    0.6070   17.7060 N   0  0  0  0  0  0  0  0  0  0  0  0
    6.9200   -0.0190   18.7260 C   0  0  0  0  0  0  0  0  0  0  0  0
  1  2  2  0
  2  3  1  0
  3  4  1  0
  5  4  1  1
  5  6  1  0
  6  7  1  0
  5  8  1  0
  8  9  1  0
  9 10  2  0
 10 11  1  0
 11 12  2  0
 12 13  1  0
 12 14  1  0
  9 15  1  0
 14 15  2  0
  2 16  1  0
 16 17  1  0
 17 18  2  0
 18 19  1  0
 19 20  2  0
 20 21  1  0
 17 22  1  0
 21 22  2  0
M  END
