pyridine_urea_3432
     RDKit          3D

 19 20  0  0  0  0  0  0  0  0999 V2000
   13.2380   -1.5300   25.2130 C   0  0  0  0  0  0  0  0  0  0  0  0
   12.1740   -1.2690   24.2490 C   0  0  0  0  0  0  0  0  0  0  0  0
   10.9620   -0.7210   24.6520 C   0  0  0  0  0  0  0  0  0  0  0  0
   10.6890   -0.3820   25.8980 F   0  0  0  0  0  0  0  0  0  0  0  0
    9.9610   -0.5280   23.7480 C   0  0  0  0  0  0  0  0  0  0  0  0
   10.1740   -0.8950   22.4480 C   0  0  0  0  0  0  0  0  0  0  0  0
    9.2150   -0.7830   21.4790 N   0  0  0  0  0  0  0  0  0  0  0  0
    8.4040    0.2760   21.2620 C   0  0  0  0  0  0  0  0  0  0  0  0
    8.8140    1.4340   21.2010 O   0  0  0  0  0  0  0  0  0  0  0  0
    7.1190   -0.1730   21.0910 N   0  0  0  0  0  0  0  0  0  0  0  0
    6.3700    0.3490   20.0570 C   0  0  0  0  0  0  0  0  0  0  0  0
    5.0540    1.1030   20.1980 C   0  0  0  0  0  0  0  0  0  0  0  0
    4.4720    1.5810   19.0390 C   0  0  0  0  0  0  0  0  0  0  0  0
    5.1130    1.3480   17.8380 C   0  0  0  0  0  0  0  0  0  0  0  0
    6.2670    0.6740   17.6850 N   0  0  0  0  0  0  0  0  0  0  0  0
    6.8590    0.1930   18.7820 C   0  0  0  0  0  0  0  0  0  0  0  0
   11.3840   -1.4240   22.0350 C   0  0  0  0  0  0  0  0  0  0  0  0
   12.3850   -1.6060   22.9330 C   0  0  0  0  0  0  0  0  0  0  0  0
   13.5520   -2.1290   22.5310 F   0  0  0  0  0  0  0  0  0  0  0  0
  1  2  1  0
  2  3  2  0
  3  4  1  0
  3  5  1  0
  5  6  2  0
  6  7  1  0
  7  8  1  0
  8  9  2  0
  8 10  1  0
 10 11  1  0
 11 12  2  0
 12 13  1  0
 13 14  2  0
 14 15  1  0
 11 16  1  0
 15 16  2  0
  6 17  1  0
  2 18  1  0
 17 18  2  0
 18 19  1  0
M  END
