pyridine_urea_7743
     RDKit          3D

 28 30  0  0  0  0  0  0  0  0999 V2000
    5.5040   -5.0060   22.0130 N   0  0  0  0  0  0  0  0  0  0  0  0
    5.8460   -5.1180   23.3270 C   0  0  0  0  0  0  0  0  0  0  0  0
    5.3440   -5.9970   24.0230 O   0  0  0  0  0  0  0  0  0  0  0  0
    6.8580   -4.0900   23.8290 C   0  0  0  0  0  0  0  0  0  0  0  0
    6.8380   -2.9990   23.2830 O   0  0  0  0  0  0  0  0  0  0  0  0
    8.0280   -2.3440   23.0630 C   0  0  0  0  0  0  0  0  0  0  0  0
    8.6920   -2.0930   24.2570 C   0  0  0  0  0  0  0  0  0  0  0  0
    9.9340   -1.4350   24.2040 C   0  0  0  0  0  0  0  0  0  0  0  0
   10.5100   -1.0210   22.9930 C   0  0  0  0  0  0  0  0  0  0  0  0
   11.7720   -0.3640   22.9010 C   0  0  0  0  0  0  0  0  0  0  0  0
   12.2680    1.0870   23.0470 C   0  0  0  0  0  0  0  0  0  0  0  0
   12.8580   -0.0500   22.7860 C   0  0  0  0  0  0  0  0  0  0  0  0
   11.6880   -0.9180   22.7700 C   0  0  0  0  0  0  0  0  0  0  0  0
   10.3770   -0.3690   22.9880 C   0  0  0  0  0  0  0  0  0  0  0  0
    9.5810   -0.4740   21.8370 N   0  0  0  0  0  0  0  0  0  0  0  0
    8.5910    0.4480   21.3880 C   0  0  0  0  0  0  0  0  0  0  0  0
    8.8040    1.6340   21.1550 O   0  0  0  0  0  0  0  0  0  0  0  0
    7.3760   -0.1380   21.2060 N   0  0  0  0  0  0  0  0  0  0  0  0
    6.6210    0.3230   20.1800 C   0  0  0  0  0  0  0  0  0  0  0  0
    5.4880    1.1420   20.3490 C   0  0  0  0  0  0  0  0  0  0  0  0
    4.7570    1.6040   19.2440 C   0  0  0  0  0  0  0  0  0  0  0  0
    5.1590    1.2480   17.9720 C   0  0  0  0  0  0  0  0  0  0  0  0
    6.2390    0.4560   17.7940 N   0  0  0  0  0  0  0  0  0  0  0  0
    6.9710   -0.0140   18.8770 C   0  0  0  0  0  0  0  0  0  0  0  0
   12.1530   -2.1530   22.5260 C   0  0  0  0  0  0  0  0  0  0  0  0
   13.1010   -1.1950   22.5760 C   0  0  0  0  0  0  0  0  0  0  0  0
    9.7940   -1.3000   21.8340 C   0  0  0  0  0  0  0  0  0  0  0  0
    8.5660   -1.9540   21.8580 C   0  0  0  0  0  0  0  0  0  0  0  0
  1  2  1  0
  2  3  2  0
  2  4  1  0
  4  5  1  0
  5  6  1  0
  6  7  2  0
  7  8  1  0
  8  9  2  0
  9 10  1  0
 10 11  2  0
 11 12  1  0
 12 13  2  0
 13 14  1  0
 14 15  1  0
 15 16  1  0
 16 17  2  0
 16 18  1  0
 18 19  1  0
 19 20  2  0
 20 21  1  0
 21 22  2  0
 22 23  1  0
 19 24  1  0
 23 24  2  0
 13 25  1  0
 10 26  1  0
 25 26  2  0
  9 27  1  0
  6 28  1  0
 27 28  2  0
M  END
