pyridine_urea_10546
     RDKit          3D

 21 22  0  0  0  0  0  0  0  0999 V2000
    8.7950    0.8510   21.2070 O   0  0  0  0  0  0  0  0  0  0  0  0
    8.2000   -0.1240   21.6330 C   0  0  0  0  0  0  0  0  0  0  0  0
    7.1390   -0.7250   21.0160 N   0  0  0  0  0  0  0  0  0  0  0  0
    6.3820   -0.0270   20.0710 C   0  0  0  0  0  0  0  0  0  0  0  0
    5.0670    0.7040   20.3830 C   0  0  0  0  0  0  0  0  0  0  0  0
    4.4540    1.4120   19.1800 C   0  0  0  0  0  0  0  0  0  0  0  0
    5.1800    1.3190   17.8780 C   0  0  0  0  0  0  0  0  0  0  0  0
    6.3280    0.6410   17.7240 N   0  0  0  0  0  0  0  0  0  0  0  0
    6.8760    0.0090   18.7780 C   0  0  0  0  0  0  0  0  0  0  0  0
    8.5480   -0.7110   22.8270 N   0  0  0  0  0  0  0  0  0  0  0  0
    9.6840   -0.1780   23.5350 C   0  0  2  0  0  0  0  0  0  0  0  0
   10.0640    1.0840   23.0740 C   0  0  0  0  0  0  0  0  0  0  0  0
   10.9970    1.7470   23.8480 C   0  0  0  0  0  0  0  0  0  0  0  0
   10.3610    2.6160   24.4320 O   0  0  0  0  0  0  0  0  0  0  0  0
   10.9930   -0.6850   22.9300 C   0  0  0  0  0  0  0  0  0  0  0  0
   10.8240   -2.0440   22.7180 C   0  0  0  0  0  0  0  0  0  0  0  0
   11.5330   -2.4650   21.5770 C   0  0  0  0  0  0  0  0  0  0  0  0
   12.8720   -2.5680   22.2490 C   0  0  0  0  0  0  0  0  0  0  0  0
   13.2630   -1.2910   22.1130 C   0  0  0  0  0  0  0  0  0  0  0  0
   13.3010   -0.5490   23.2690 C   0  0  0  0  0  0  0  0  0  0  0  0
   12.0660   -0.2670   23.7280 C   0  0  0  0  0  0  0  0  0  0  0  0
  1  2  2  0
  2  3  1  0
  3  4  1  0
  4  5  2  0
  5  6  1  0
  6  7  2  0
  7  8  1  0
  4  9  1  0
  8  9  2  0
  2 10  1  0
 10 11  1  0
 11 12  1  6
 12 13  1  0
 13 14  1  0
 11 15  1  0
 15 16  1  0
 16 17  1  0
 17 18  1  0
 18 19  1  0
 19 20  1  0
 15 21  1  0
 20 21  1  0
M  END
