pyridine_urea_6097
     RDKit          3D

 25 26  0  0  0  0  0  0  0  0999 V2000
   12.9670   -2.6060   21.1530 C   0  0  0  0  0  0  0  0  0  0  0  0
   11.6310   -2.3410   21.5580 O   0  0  0  0  0  0  0  0  0  0  0  0
   11.6750   -1.1290   22.1220 C   0  0  0  0  0  0  0  0  0  0  0  0
   12.7680   -0.5580   22.1550 O   0  0  0  0  0  0  0  0  0  0  0  0
   10.5750   -0.4720   22.7120 C   0  0  1  0  0  0  0  0  0  0  0  0
    9.2210   -1.1110   22.4590 N   0  0  0  0  0  0  0  0  0  0  0  0
    8.3310   -0.4150   21.6430 C   0  0  0  0  0  0  0  0  0  0  0  0
    8.7050    0.9480   21.3900 O   0  0  0  0  0  0  0  0  0  0  0  0
    7.1240   -1.0200   21.1030 N   0  0  0  0  0  0  0  0  0  0  0  0
    6.5170   -0.2830   20.0940 C   0  0  0  0  0  0  0  0  0  0  0  0
    5.2500    0.4940   20.4150 C   0  0  0  0  0  0  0  0  0  0  0  0
    4.5400    1.3330   19.3440 C   0  0  0  0  0  0  0  0  0  0  0  0
    5.2380    1.2860   18.0000 C   0  0  0  0  0  0  0  0  0  0  0  0
    6.3730    0.5620   17.7960 N   0  0  0  0  0  0  0  0  0  0  0  0
    6.9980   -0.2010   18.7950 C   0  0  0  0  0  0  0  0  0  0  0  0
   11.5010   -0.1760   23.7070 C   0  0  0  0  0  0  0  0  0  0  0  0
   11.7730    1.1390   23.7980 C   0  0  0  0  0  0  0  0  0  0  0  0
   12.2430    0.0770   24.3750 C   0  0  0  0  0  0  0  0  0  0  0  0
   11.4530   -1.0650   23.9270 C   0  0  0  0  0  0  0  0  0  0  0  0
   10.3200   -1.1610   23.1120 C   0  0  0  0  0  0  0  0  0  0  0  0
   10.3520   -1.1560   21.7030 C   0  0  0  0  0  0  0  0  0  0  0  0
    9.6760   -2.3410   23.6290 C   0  0  0  0  0  0  0  0  0  0  0  0
    9.4020    0.0010   23.6560 C   0  0  0  0  0  0  0  0  0  0  0  0
   11.8840   -2.1750   24.4300 C   0  0  0  0  0  0  0  0  0  0  0  0
   12.4220   -0.9390   24.7340 C   0  0  0  0  0  0  0  0  0  0  0  0
  1  2  1  0
  2  3  1  0
  3  4  2  0
  3  5  1  0
  5  6  1  1
  6  7  1  0
  7  8  2  0
  7  9  1  0
  9 10  1  0
 10 11  2  0
 11 12  1  0
 12 13  2  0
 13 14  1  0
 10 15  1  0
 14 15  2  0
  5 16  1  0
 16 17  2  0
 17 18  1  0
 18 19  2  0
 19 20  1  0
 20 21  1  0
 20 22  1  0
 20 23  1  0
 19 24  1  0
 16 25  1  0
 24 25  2  0
M  END
