pyridine_urea_13629
     RDKit          3D

 27 30  0  0  0  0  0  0  0  0999 V2000
    9.0350    1.1170   21.2700 O   0  0  0  0  0  0  0  0  0  0  0  0
    8.3000    0.2070   21.6890 C   0  0  0  0  0  0  0  0  0  0  0  0
    7.3730   -0.4980   20.9630 N   0  0  0  0  0  0  0  0  0  0  0  0
    6.5450    0.1220   20.0340 C   0  0  0  0  0  0  0  0  0  0  0  0
    5.1850    0.7620   20.3600 C   0  0  0  0  0  0  0  0  0  0  0  0
    4.4960    1.3980   19.1560 C   0  0  0  0  0  0  0  0  0  0  0  0
    5.2040    1.3210   17.8410 C   0  0  0  0  0  0  0  0  0  0  0  0
    6.3940    0.7210   17.6770 N   0  0  0  0  0  0  0  0  0  0  0  0
    7.0050    0.1610   18.7330 C   0  0  0  0  0  0  0  0  0  0  0  0
    8.2680   -0.2110   23.0060 N   0  0  0  0  0  0  0  0  0  0  0  0
    9.3180   -0.9700   23.6120 C   0  0  2  0  0  0  0  0  0  0  0  0
   10.3520   -0.2230   24.1090 C   0  0  0  0  0  0  0  0  0  0  0  0
   11.5810    0.3140   24.6690 C   0  0  0  0  0  0  0  0  0  0  0  0
   12.4810   -0.7430   24.9780 C   0  0  0  0  0  0  0  0  0  0  0  0
   12.4960   -2.0980   24.9040 C   0  0  0  0  0  0  0  0  0  0  0  0
   11.4420   -2.7330   24.4350 C   0  0  0  0  0  0  0  0  0  0  0  0
   10.4400   -1.6750   24.0680 C   0  0  0  0  0  0  0  0  0  0  0  0
   10.3180   -1.4580   22.8730 C   0  0  0  0  0  0  0  0  0  0  0  0
   10.8380   -2.3980   22.1990 C   0  0  0  0  0  0  0  0  0  0  0  0
   12.0970   -1.7970   21.8170 C   0  0  0  0  0  0  0  0  0  0  0  0
   12.5310   -0.4010   22.1720 C   0  0  0  0  0  0  0  0  0  0  0  0
   13.8430   -0.1070   21.6180 C   0  0  0  0  0  0  0  0  0  0  0  0
   14.3780    1.2550   21.8580 C   0  0  0  0  0  0  0  0  0  0  0  0
   13.6160    2.0970   22.5720 C   0  0  0  0  0  0  0  0  0  0  0  0
   12.3960    1.7360   23.0770 C   0  0  0  0  0  0  0  0  0  0  0  0
   11.7020    0.5120   22.9560 C   0  0  0  0  0  0  0  0  0  0  0  0
   11.4830   -0.6780   22.5950 C   0  0  0  0  0  0  0  0  0  0  0  0
  1  2  2  0
  2  3  1  0
  3  4  1  0
  4  5  2  0
  5  6  1  0
  6  7  2  0
  7  8  1  0
  4  9  1  0
  8  9  2  0
  2 10  1  0
 11 10  1  6
 11 12  1  0
 12 13  2  0
 13 14  1  0
 14 15  2  0
 15 16  1  0
 12 17  1  0
 16 17  2  0
 11 18  1  0
 18 19  2  0
 19 20  1  0
 20 21  2  0
 21 22  1  0
 22 23  2  0
 23 24  1  0
 24 25  2  0
 21 26  1  0
 25 26  1  0
 18 27  1  0
 26 27  2  0
M  END
