pyridine_urea_13605
     RDKit          3D

 27 29  0  0  0  0  0  0  0  0999 V2000
   11.0190   -2.4610   21.7280 C   0  0  0  0  0  0  0  0  0  0  0  0
   10.9380   -1.1180   22.3850 C   0  0  0  0  0  0  0  0  0  0  0  0
   12.2100   -0.3770   22.4830 C   0  0  0  0  0  0  0  0  0  0  0  0
   12.1750    0.9690   23.1040 C   0  0  0  0  0  0  0  0  0  0  0  0
   13.3370    1.6430   23.1040 N   0  0  0  0  0  0  0  0  0  0  0  0
   14.3910    1.1410   22.4370 C   0  0  0  0  0  0  0  0  0  0  0  0
   14.2900    0.0100   22.0310 O   0  0  0  0  0  0  0  0  0  0  0  0
   15.2780    2.2520   22.6600 C   0  0  0  0  0  0  0  0  0  0  0  0
   14.2910    3.5050   22.7170 C   0  0  0  0  0  0  0  0  0  0  0  0
   14.8300    4.6170   23.5650 C   0  0  0  0  0  0  0  0  0  0  0  0
   16.5770    4.5460   24.3990 C   0  0  0  0  0  0  0  0  0  0  0  0
   17.7680    3.4950   24.4390 C   0  0  0  0  0  0  0  0  0  0  0  0
   19.4330    3.3130   25.3580 Cl  0  0  0  0  0  0  0  0  0  0  0  0
   17.5050    2.3740   23.6760 C   0  0  0  0  0  0  0  0  0  0  0  0
   10.9640    1.5400   23.6570 C   0  0  0  0  0  0  0  0  0  0  0  0
    9.7010    0.7550   23.5370 C   0  0  0  0  0  0  0  0  0  0  0  0
    9.6690   -0.4740   22.9240 C   0  0  0  0  0  0  0  0  0  0  0  0
    8.4910   -1.1350   22.7380 N   0  0  0  0  0  0  0  0  0  0  0  0
    7.8490   -0.4910   21.5910 C   0  0  0  0  0  0  0  0  0  0  0  0
    8.3990    0.7040   20.9800 O   0  0  0  0  0  0  0  0  0  0  0  0
    6.7310   -1.0510   21.1500 N   0  0  0  0  0  0  0  0  0  0  0  0
    6.1640   -0.2640   20.2040 C   0  0  0  0  0  0  0  0  0  0  0  0
    5.0000    0.4760   20.3490 C   0  0  0  0  0  0  0  0  0  0  0  0
    4.4810    1.3380   19.1870 C   0  0  0  0  0  0  0  0  0  0  0  0
    5.2820    1.3380   17.9010 C   0  0  0  0  0  0  0  0  0  0  0  0
    6.4030    0.6270   17.7440 N   0  0  0  0  0  0  0  0  0  0  0  0
    6.8500   -0.1440   18.8240 C   0  0  0  0  0  0  0  0  0  0  0  0
  1  2  1  0
  2  3  2  0
  3  4  1  0
  4  5  1  0
  5  6  1  0
  6  7  2  0
  6  8  1  0
  8  9  2  0
  9 10  1  0
 10 11  2  0
 11 12  1  0
 12 13  1  0
  8 14  1  0
 12 14  2  0
  4 15  2  0
 15 16  1  0
  2 17  1  0
 16 17  2  0
 17 18  1  0
 18 19  1  0
 19 20  2  0
 19 21  1  0
 21 22  1  0
 22 23  2  0
 23 24  1  0
 24 25  2  0
 25 26  1  0
 22 27  1  0
 26 27  2  0
M  END
