pyridine_urea_741
     RDKit          3D

 23 26  0  0  0  0  0  0  0  0999 V2000
    8.8310    0.5390   21.3850 O   0  0  0  0  0  0  0  0  0  0  0  0
    8.2310   -0.5080   21.5770 C   0  0  0  0  0  0  0  0  0  0  0  0
    7.0040   -0.8150   21.0210 N   0  0  0  0  0  0  0  0  0  0  0  0
    6.3270   -0.0640   20.0430 C   0  0  0  0  0  0  0  0  0  0  0  0
    5.1460    0.6550   20.2360 C   0  0  0  0  0  0  0  0  0  0  0  0
    4.5830    1.3680   19.1770 C   0  0  0  0  0  0  0  0  0  0  0  0
    5.2190    1.3410   17.9550 C   0  0  0  0  0  0  0  0  0  0  0  0
    6.3550    0.6530   17.7410 N   0  0  0  0  0  0  0  0  0  0  0  0
    6.8740   -0.0260   18.7760 C   0  0  0  0  0  0  0  0  0  0  0  0
    8.6830   -1.5530   22.3820 N   0  0  0  0  0  0  0  0  0  0  0  0
    9.9900   -1.6610   22.8890 C   0  0  1  0  0  0  0  0  0  0  0  0
   10.8880   -1.2250   22.1700 C   0  0  2  0  0  0  0  0  0  0  0  0
   12.1090   -1.8360   22.0340 C   0  0  0  0  0  0  0  0  0  0  0  0
   12.7610   -0.9840   22.9580 N   0  0  0  0  0  0  0  0  0  0  0  0
   13.2030    0.2620   22.5510 C   0  0  0  0  0  0  0  0  0  0  0  0
   12.2830    1.3450   22.6730 C   0  0  0  0  0  0  0  0  0  0  0  0
   10.8000    1.1740   22.7210 C   0  0  0  0  0  0  0  0  0  0  0  0
    9.9710    2.3060   22.8330 C   0  0  0  0  0  0  0  0  0  0  0  0
   10.5180    3.5880   22.9020 C   0  0  0  0  0  0  0  0  0  0  0  0
   11.8940    3.7700   22.8600 C   0  0  0  0  0  0  0  0  0  0  0  0
   12.7310    2.6710   22.7490 C   0  0  0  0  0  0  0  0  0  0  0  0
   11.9700   -0.8770   24.0420 C   0  0  0  0  0  0  0  0  0  0  0  0
   10.7430   -0.5790   23.4720 C   0  0  2  0  0  0  0  0  0  0  0  0
  1  2  2  0
  2  3  1  0
  3  4  1  0
  4  5  2  0
  5  6  1  0
  6  7  2  0
  7  8  1  0
  4  9  1  0
  8  9  2  0
  2 10  1  0
 11 10  1  6
 11 12  1  0
 12 13  1  1
 13 14  1  0
 14 15  1  0
 15 16  1  0
 16 17  2  0
 17 18  1  0
 18 19  2  0
 19 20  1  0
 16 21  1  0
 20 21  2  0
 14 22  1  0
 11 23  1  0
 12 23  1  0
 23 22  1  1
M  END
