pyridine_urea_13649
     RDKit          3D

 26 27  0  0  0  0  0  0  0  0999 V2000
    9.3360   -0.1060   26.1380 C   0  0  0  0  0  0  0  0  0  0  0  0
    9.4270    1.0880   25.3530 O   0  0  0  0  0  0  0  0  0  0  0  0
   10.3910    1.0110   24.3830 C   0  0  0  0  0  0  0  0  0  0  0  0
   11.0670    1.9760   24.0150 O   0  0  0  0  0  0  0  0  0  0  0  0
   10.4860   -0.4170   23.8450 C   0  0  0  0  0  0  0  0  0  0  0  0
   10.6230   -0.3710   22.3290 C   0  0  2  0  0  0  0  0  0  0  0  0
    9.3820   -0.7210   21.6420 N   0  0  0  0  0  0  0  0  0  0  0  0
    8.4660    0.2490   21.3330 C   0  0  0  0  0  0  0  0  0  0  0  0
    8.7800    1.4280   21.1650 O   0  0  0  0  0  0  0  0  0  0  0  0
    7.2270   -0.2800   21.2160 N   0  0  0  0  0  0  0  0  0  0  0  0
    6.5030    0.2320   20.2020 C   0  0  0  0  0  0  0  0  0  0  0  0
    5.3330    0.9640   20.3770 C   0  0  0  0  0  0  0  0  0  0  0  0
    4.6740    1.4660   19.2540 C   0  0  0  0  0  0  0  0  0  0  0  0
    5.1580    1.2500   17.9810 C   0  0  0  0  0  0  0  0  0  0  0  0
    6.2680    0.5480   17.7260 N   0  0  0  0  0  0  0  0  0  0  0  0
    6.9380    0.0410   18.7830 C   0  0  0  0  0  0  0  0  0  0  0  0
   11.6660   -1.4470   21.9540 C   0  0  0  0  0  0  0  0  0  0  0  0
   12.2390   -1.4600   23.0280 C   0  0  0  0  0  0  0  0  0  0  0  0
   12.1540   -0.8190   24.2430 C   0  0  0  0  0  0  0  0  0  0  0  0
   13.0440   -1.3860   24.8650 C   0  0  0  0  0  0  0  0  0  0  0  0
   13.6170   -1.3970   26.0970 O   0  0  0  0  0  0  0  0  0  0  0  0
   14.3550   -2.5920   26.0380 C   0  0  0  0  0  0  0  0  0  0  0  0
   13.5250   -2.3470   23.7070 C   0  0  0  0  0  0  0  0  0  0  0  0
   12.8380   -2.3100   22.3700 C   0  0  0  0  0  0  0  0  0  0  0  0
   13.2730   -3.1340   21.4160 O   0  0  0  0  0  0  0  0  0  0  0  0
   12.2730   -3.0890   20.5000 C   0  0  0  0  0  0  0  0  0  0  0  0
  1  2  1  0
  2  3  1  0
  3  4  2  0
  3  5  1  0
  6  5  1  1
  6  7  1  0
  7  8  1  0
  8  9  2  0
  8 10  1  0
 10 11  1  0
 11 12  2  0
 12 13  1  0
 13 14  2  0
 14 15  1  0
 11 16  1  0
 15 16  2  0
  6 17  1  0
 17 18  2  0
 18 19  1  0
 19 20  2  0
 20 21  1  0
 21 22  1  0
 20 23  1  0
 17 24  1  0
 23 24  2  0
 24 25  1  0
 25 26  1  0
M  END
