pyridine_urea_3130
     RDKit          3D

 21 22  0  0  0  0  0  0  0  0999 V2000
   13.2660   -2.6510   20.9020 C   0  0  0  0  0  0  0  0  0  0  0  0
   13.6050   -1.3250   21.1350 O   0  0  0  0  0  0  0  0  0  0  0  0
   12.8190   -1.0150   22.1570 C   0  0  0  0  0  0  0  0  0  0  0  0
   12.7160   -0.7640   23.4740 C   0  0  0  0  0  0  0  0  0  0  0  0
   11.2990   -0.4460   24.0400 C   0  0  0  0  0  0  0  0  0  0  0  0
   12.3210   -0.5370   24.5340 C   0  0  0  0  0  0  0  0  0  0  0  0
   12.8240   -0.4310   25.7370 F   0  0  0  0  0  0  0  0  0  0  0  0
   12.9500   -0.8550   23.2300 C   0  0  0  0  0  0  0  0  0  0  0  0
   11.6390   -0.8230   22.2870 C   0  0  0  0  0  0  0  0  0  0  0  0
   10.4300   -0.5000   23.1430 C   0  0  1  0  0  0  0  0  0  0  0  0
   10.2760    0.8520   23.2360 C   0  0  0  0  0  0  0  0  0  0  0  0
    9.2120   -0.9440   22.3380 N   0  0  0  0  0  0  0  0  0  0  0  0
    8.5490   -0.0290   21.5240 C   0  0  0  0  0  0  0  0  0  0  0  0
    9.0120    1.2330   21.1980 O   0  0  0  0  0  0  0  0  0  0  0  0
    7.3380   -0.5330   21.0720 N   0  0  0  0  0  0  0  0  0  0  0  0
    6.5930    0.0640   20.0480 C   0  0  0  0  0  0  0  0  0  0  0  0
    5.4340    0.7850   20.3700 C   0  0  0  0  0  0  0  0  0  0  0  0
    4.6980    1.4010   19.3500 C   0  0  0  0  0  0  0  0  0  0  0  0
    5.1570    1.2680   18.0520 C   0  0  0  0  0  0  0  0  0  0  0  0
    6.2580    0.5770   17.7170 N   0  0  0  0  0  0  0  0  0  0  0  0
    6.9520   -0.0110   18.7140 C   0  0  0  0  0  0  0  0  0  0  0  0
  1  2  1  0
  2  3  1  0
  3  4  2  0
  4  5  1  0
  5  6  2  0
  6  7  1  0
  6  8  1  0
  3  9  1  0
  8  9  2  0
  9 10  1  0
 10 11  1  6
 10 12  1  0
 12 13  1  0
 13 14  2  0
 13 15  1  0
 15 16  1  0
 16 17  2  0
 17 18  1  0
 18 19  2  0
 19 20  1  0
 16 21  1  0
 20 21  2  0
M  END
