pyridine_urea_15075
     RDKit          3D

 17 18  0  0  0  0  0  0  0  0999 V2000
    8.9410    0.5790   21.3670 O   0  0  0  0  0  0  0  0  0  0  0  0
    8.4330   -0.5280   21.4270 C   0  0  0  0  0  0  0  0  0  0  0  0
    9.0960   -1.6730   21.8650 N   0  0  0  0  0  0  0  0  0  0  0  0
   10.0090   -1.7250   23.0060 C   0  0  0  0  0  0  0  0  0  0  0  0
   11.4780   -1.5600   22.6290 C   0  0  0  0  0  0  0  0  0  0  0  0
   11.7990   -0.1060   22.6990 C   0  0  2  0  0  0  0  0  0  0  0  0
   12.2570    0.4560   24.0060 C   0  0  0  0  0  0  0  0  0  0  0  0
   11.1810    1.4370   24.0920 C   0  0  1  0  0  0  0  0  0  0  0  0
   11.6220    2.5240   23.7540 O   0  0  0  0  0  0  0  0  0  0  0  0
   10.5190    0.8690   22.8810 C   0  0  0  0  0  0  0  0  0  0  0  0
    7.1410   -0.8070   21.0450 N   0  0  0  0  0  0  0  0  0  0  0  0
    6.4150   -0.0750   20.0780 C   0  0  0  0  0  0  0  0  0  0  0  0
    5.2270    0.6270   20.3120 C   0  0  0  0  0  0  0  0  0  0  0  0
    4.6400    1.3100   19.2570 C   0  0  0  0  0  0  0  0  0  0  0  0
    5.2320    1.2870   18.0050 C   0  0  0  0  0  0  0  0  0  0  0  0
    6.3700    0.6170   17.7610 N   0  0  0  0  0  0  0  0  0  0  0  0
    6.9280   -0.0460   18.7930 C   0  0  0  0  0  0  0  0  0  0  0  0
  1  2  2  0
  2  3  1  0
  3  4  1  0
  4  5  1  0
  6  5  1  1
  6  7  1  0
  7  8  1  0
  8  9  1  6
  6 10  1  0
  8 10  1  0
  2 11  1  0
 11 12  1  0
 12 13  2  0
 13 14  1  0
 14 15  2  0
 15 16  1  0
 12 17  1  0
 16 17  2  0
M  END
