pyridine_urea_242
     RDKit          3D

 18 19  0  0  0  0  0  0  0  0999 V2000
   12.9780   -0.9860   25.5190 C   0  0  0  0  0  0  0  0  0  0  0  0
   12.1770   -0.7100   24.7370 C   0  0  0  0  0  0  0  0  0  0  0  0
   11.4630   -0.9880   23.5220 C   0  0  1  0  0  0  0  0  0  0  0  0
   11.5980   -2.3740   23.4390 O   0  0  0  0  0  0  0  0  0  0  0  0
   12.8790   -2.2430   22.7870 C   0  0  0  0  0  0  0  0  0  0  0  0
   12.4400   -1.3900   21.8450 C   0  0  0  0  0  0  0  0  0  0  0  0
   10.8800   -1.1620   21.8120 C   0  0  0  0  0  0  0  0  0  0  0  0
   10.3360   -0.2230   22.8000 C   0  0  1  0  0  0  0  0  0  0  0  0
    8.9230   -0.4900   22.7510 N   0  0  0  0  0  0  0  0  0  0  0  0
    8.3500    0.1550   21.6600 C   0  0  0  0  0  0  0  0  0  0  0  0
    8.8240    1.2210   21.2360 O   0  0  0  0  0  0  0  0  0  0  0  0
    7.2550   -0.4870   21.1300 N   0  0  0  0  0  0  0  0  0  0  0  0
    6.4750    0.1170   20.1290 C   0  0  0  0  0  0  0  0  0  0  0  0
    5.2900    0.8210   20.3500 C   0  0  0  0  0  0  0  0  0  0  0  0
    4.6630    1.3730   19.2460 C   0  0  0  0  0  0  0  0  0  0  0  0
    5.1740    1.2390   17.9870 C   0  0  0  0  0  0  0  0  0  0  0  0
    6.2990    0.5640   17.7330 N   0  0  0  0  0  0  0  0  0  0  0  0
    6.9170    0.0190   18.8080 C   0  0  0  0  0  0  0  0  0  0  0  0
  1  2  2  3
  3  2  1  1
  3  4  1  0
  4  5  1  0
  5  6  1  0
  6  7  1  0
  3  8  1  0
  7  8  1  0
  8  9  1  1
  9 10  1  0
 10 11  2  0
 10 12  1  0
 12 13  1  0
 13 14  2  0
 14 15  1  0
 15 16  2  0
 16 17  1  0
 13 18  1  0
 17 18  2  0
M  END
