pyridine_urea_14548
     RDKit          3D

 21 22  0  0  0  0  0  0  0  0999 V2000
   12.9080   -2.1490   21.2120 C   0  0  0  0  0  0  0  0  0  0  0  0
   11.7640   -1.8310   21.5240 O   0  0  0  0  0  0  0  0  0  0  0  0
   11.5560   -0.6440   22.1730 C   0  0  0  0  0  0  0  0  0  0  0  0
   12.4030    0.2390   22.2890 O   0  0  0  0  0  0  0  0  0  0  0  0
   10.3060   -0.4790   22.7000 C   0  0  1  0  0  0  0  0  0  0  0  0
    9.2840   -1.1740   21.9440 N   0  0  0  0  0  0  0  0  0  0  0  0
    8.3500   -0.2000   21.3890 C   0  0  0  0  0  0  0  0  0  0  0  0
    8.7890    1.1560   21.1310 O   0  0  0  0  0  0  0  0  0  0  0  0
    7.0660   -0.6380   21.1290 N   0  0  0  0  0  0  0  0  0  0  0  0
    6.4080    0.0460   20.0370 C   0  0  0  0  0  0  0  0  0  0  0  0
    5.2260    0.7740   20.2470 C   0  0  0  0  0  0  0  0  0  0  0  0
    4.5470    1.5190   19.0770 C   0  0  0  0  0  0  0  0  0  0  0  0
    5.1620    1.4260   17.8450 C   0  0  0  0  0  0  0  0  0  0  0  0
    6.2990    0.6960   17.7110 N   0  0  0  0  0  0  0  0  0  0  0  0
    6.9360    0.0110   18.7370 C   0  0  0  0  0  0  0  0  0  0  0  0
   10.4340   -0.9790   24.0420 C   0  0  0  0  0  0  0  0  0  0  0  0
   11.1530   -0.0770   24.7330 C   0  0  0  0  0  0  0  0  0  0  0  0
   12.6040   -0.1240   24.4020 C   0  0  0  0  0  0  0  0  0  0  0  0
   13.1030   -1.2500   23.7040 C   0  0  0  0  0  0  0  0  0  0  0  0
   12.2980   -2.3980   23.6800 C   0  0  0  0  0  0  0  0  0  0  0  0
   11.0280   -2.2380   24.1910 C   0  0  0  0  0  0  0  0  0  0  0  0
  1  2  1  0
  2  3  1  0
  3  4  2  0
  3  5  1  0
  5  6  1  6
  6  7  1  0
  7  8  2  0
  7  9  1  0
  9 10  1  0
 10 11  2  0
 11 12  1  0
 12 13  2  0
 13 14  1  0
 10 15  1  0
 14 15  2  0
  5 16  1  0
 16 17  1  0
 17 18  1  0
 18 19  1  0
 19 20  1  0
 16 21  1  0
 20 21  1  0
M  END
