pyridine_urea_1986
     RDKit          3D

 22 23  0  0  0  0  0  0  0  0999 V2000
   13.2430   -1.4650   20.8460 C   0  0  0  0  0  0  0  0  0  0  0  0
   12.7060   -0.6930   21.8750 N   0  0  0  0  0  0  0  0  0  0  0  0
   13.6020    0.3800   22.6910 N   0  0  0  0  0  0  0  0  0  0  0  0
   12.5060    0.9520   23.5720 C   0  0  0  0  0  0  0  0  0  0  0  0
   11.0710    0.5400   23.7170 C   0  0  0  0  0  0  0  0  0  0  0  0
   10.3460    1.1530   22.7470 F   0  0  0  0  0  0  0  0  0  0  0  0
   11.0990   -0.8530   23.3680 F   0  0  0  0  0  0  0  0  0  0  0  0
   10.5060    0.6500   24.9320 F   0  0  0  0  0  0  0  0  0  0  0  0
   12.7900    0.0540   22.6000 C   0  0  0  0  0  0  0  0  0  0  0  0
   14.0910    0.7970   22.8300 Cl  0  0  0  0  0  0  0  0  0  0  0  0
   11.5490   -0.6560   22.3790 C   0  0  0  0  0  0  0  0  0  0  0  0
   10.1180   -0.6110   23.0010 C   0  0  0  0  0  0  0  0  0  0  0  0
    9.3510   -1.3540   22.1470 N   0  0  0  0  0  0  0  0  0  0  0  0
    8.3050   -0.4790   21.5730 C   0  0  0  0  0  0  0  0  0  0  0  0
    8.7250    0.6990   21.4380 O   0  0  0  0  0  0  0  0  0  0  0  0
    6.9290   -0.9540   21.3090 N   0  0  0  0  0  0  0  0  0  0  0  0
    6.3910   -0.1790   20.0930 C   0  0  0  0  0  0  0  0  0  0  0  0
    5.1140    0.4680   20.3240 C   0  0  0  0  0  0  0  0  0  0  0  0
    4.5710    1.1400   19.2870 C   0  0  0  0  0  0  0  0  0  0  0  0
    5.1460    1.2320   18.0520 C   0  0  0  0  0  0  0  0  0  0  0  0
    6.3500    0.6150   17.8560 N   0  0  0  0  0  0  0  0  0  0  0  0
    6.9530   -0.0300   18.8430 C   0  0  0  0  0  0  0  0  0  0  0  0
  1  2  1  0
  2  3  1  0
  3  4  2  0
  4  5  1  0
  5  6  1  0
  5  7  1  0
  5  8  1  0
  4  9  1  0
  9 10  1  0
  2 11  1  0
  9 11  2  0
 11 12  1  0
 12 13  1  0
 13 14  1  0
 14 15  2  0
 14 16  1  0
 16 17  1  0
 17 18  2  0
 18 19  1  0
 19 20  2  0
 20 21  1  0
 17 22  1  0
 21 22  2  0
M  END
