pyridine_urea_11203
     RDKit          3D

 17 18  0  0  0  0  0  0  0  0999 V2000
   13.2860   -1.5670   23.7520 C   0  0  0  0  0  0  0  0  0  0  0  0
   12.1790   -1.1990   23.7770 C   0  0  2  0  0  0  0  0  0  0  0  0
   10.6880   -1.1340   23.8440 C   0  0  0  0  0  0  0  0  0  0  0  0
   10.4080   -0.2760   22.7250 C   0  0  2  0  0  0  0  0  0  0  0  0
   10.3470    1.1000   22.8350 C   0  0  0  0  0  0  0  0  0  0  0  0
   11.7410    1.5180   22.9660 O   0  0  0  0  0  0  0  0  0  0  0  0
    9.3760   -0.8220   21.8630 N   0  0  0  0  0  0  0  0  0  0  0  0
    8.4520    0.0230   21.2960 C   0  0  0  0  0  0  0  0  0  0  0  0
    8.7270    1.3460   21.0600 O   0  0  0  0  0  0  0  0  0  0  0  0
    7.2600   -0.5760   20.9700 N   0  0  0  0  0  0  0  0  0  0  0  0
    6.4030    0.0700   20.0700 C   0  0  0  0  0  0  0  0  0  0  0  0
    5.2370    0.6630   20.4560 C   0  0  0  0  0  0  0  0  0  0  0  0
    4.6090    1.2800   19.2110 C   0  0  0  0  0  0  0  0  0  0  0  0
    5.1670    1.2170   17.9530 C   0  0  0  0  0  0  0  0  0  0  0  0
    6.3020    0.6010   17.7070 N   0  0  0  0  0  0  0  0  0  0  0  0
    6.8750    0.0530   18.7680 C   0  0  0  0  0  0  0  0  0  0  0  0
   11.8060   -0.8680   22.3020 C   0  0  0  0  0  0  0  0  0  0  0  0
  2  1  1  6
  2  3  1  0
  3  4  1  0
  4  5  1  1
  5  6  1  0
  4  7  1  0
  7  8  1  0
  8  9  2  0
  8 10  1  0
 10 11  1  0
 11 12  2  0
 12 13  1  0
 13 14  2  0
 14 15  1  0
 11 16  1  0
 15 16  2  0
  2 17  1  0
  4 17  1  0
M  END
