pyridine_urea_11810
     RDKit          3D

 25 28  0  0  0  0  0  0  0  0999 V2000
    8.8990    0.8020   21.2750 O   0  0  0  0  0  0  0  0  0  0  0  0
    8.4660   -0.3470   21.2930 C   0  0  0  0  0  0  0  0  0  0  0  0
    7.1840   -0.6920   20.9720 N   0  0  0  0  0  0  0  0  0  0  0  0
    6.4740   -0.0230   19.9780 C   0  0  0  0  0  0  0  0  0  0  0  0
    5.2950    0.6600   20.2850 C   0  0  0  0  0  0  0  0  0  0  0  0
    4.6100    1.3420   19.2760 C   0  0  0  0  0  0  0  0  0  0  0  0
    5.1390    1.3100   18.0030 C   0  0  0  0  0  0  0  0  0  0  0  0
    6.2630    0.6520   17.6920 N   0  0  0  0  0  0  0  0  0  0  0  0
    6.9000    0.0060   18.6800 C   0  0  0  0  0  0  0  0  0  0  0  0
    9.2620   -1.3980   21.6550 N   0  0  0  0  0  0  0  0  0  0  0  0
   10.2430   -1.0290   22.6350 C   0  0  0  0  0  0  0  0  0  0  0  0
   11.7490   -1.0060   22.3320 C   0  0  0  0  0  0  0  0  0  0  0  0
   12.5790   -0.6130   23.3650 C   0  0  0  0  0  0  0  0  0  0  0  0
   12.0130   -0.2710   24.6160 C   0  0  0  0  0  0  0  0  0  0  0  0
   10.6050   -0.3190   24.8500 C   0  0  0  0  0  0  0  0  0  0  0  0
    9.7780   -0.6950   23.8580 C   0  0  0  0  0  0  0  0  0  0  0  0
    8.4780   -0.6930   24.2820 C   0  0  0  0  0  0  0  0  0  0  0  0
    8.5380   -0.5170   25.5950 N   0  0  0  0  0  0  0  0  0  0  0  0
    7.4360   -0.0520   26.2380 C   0  0  0  0  0  0  0  0  0  0  0  0
    7.5400    1.0250   27.3010 C   0  0  0  0  0  0  0  0  0  0  0  0
    6.3590    1.4400   27.9020 C   0  0  0  0  0  0  0  0  0  0  0  0
    5.1510    0.8510   27.5000 C   0  0  0  0  0  0  0  0  0  0  0  0
    5.1350   -0.1440   26.5070 C   0  0  0  0  0  0  0  0  0  0  0  0
    6.2310   -0.6170   25.8630 N   0  0  0  0  0  0  0  0  0  0  0  0
    9.8650   -0.0170   26.0610 C   0  0  0  0  0  0  0  0  0  0  0  0
  1  2  2  0
  2  3  1  0
  3  4  1  0
  4  5  2  0
  5  6  1  0
  6  7  2  0
  7  8  1  0
  4  9  1  0
  8  9  2  0
  2 10  1  0
 10 11  1  0
 11 12  2  0
 12 13  1  0
 13 14  2  0
 14 15  1  0
 11 16  1  0
 15 16  2  0
 16 17  1  0
 17 18  1  0
 18 19  1  0
 19 20  2  0
 20 21  1  0
 21 22  2  0
 22 23  1  0
 19 24  1  0
 23 24  2  0
 15 25  1  0
 18 25  1  0
M  END
