pyridine_urea_3114
     RDKit          3D

 21 22  0  0  0  0  0  0  0  0999 V2000
    9.1760   -6.0710   26.9030 C   0  0  0  0  0  0  0  0  0  0  0  0
    8.9090   -5.0080   26.0020 O   0  0  0  0  0  0  0  0  0  0  0  0
    7.9240   -5.2040   25.0710 C   0  0  0  0  0  0  0  0  0  0  0  0
    7.9730   -6.0170   24.1600 O   0  0  0  0  0  0  0  0  0  0  0  0
    6.7920   -4.3340   25.2540 N   0  0  0  0  0  0  0  0  0  0  0  0
    6.3760   -3.8560   23.9230 C   0  0  0  0  0  0  0  0  0  0  0  0
    7.2840   -2.9390   23.4040 C   0  0  0  0  0  0  0  0  0  0  0  0
    7.6710   -1.9610   24.3220 C   0  0  0  0  0  0  0  0  0  0  0  0
    7.5190   -0.5800   23.6900 C   0  0  0  0  0  0  0  0  0  0  0  0
    8.5450   -0.3810   22.7760 N   0  0  0  0  0  0  0  0  0  0  0  0
    8.3450    0.1980   21.5150 C   0  0  0  0  0  0  0  0  0  0  0  0
    8.9370    1.2170   21.1400 O   0  0  0  0  0  0  0  0  0  0  0  0
    7.4190   -0.5310   20.8570 N   0  0  0  0  0  0  0  0  0  0  0  0
    6.6040    0.1190   19.9960 C   0  0  0  0  0  0  0  0  0  0  0  0
    5.4640    0.8570   20.3330 C   0  0  0  0  0  0  0  0  0  0  0  0
    4.7370    1.4750   19.3270 C   0  0  0  0  0  0  0  0  0  0  0  0
    5.1730    1.3360   18.0170 C   0  0  0  0  0  0  0  0  0  0  0  0
    6.2570    0.6280   17.6760 N   0  0  0  0  0  0  0  0  0  0  0  0
    6.9410    0.0390   18.6700 C   0  0  0  0  0  0  0  0  0  0  0  0
    6.9640   -2.0520   25.5410 C   0  0  0  0  0  0  0  0  0  0  0  0
    7.0330   -3.2620   26.2080 C   0  0  0  0  0  0  0  0  0  0  0  0
  1  2  1  0
  2  3  1  0
  3  4  2  0
  3  5  1  0
  5  6  1  0
  6  7  1  0
  7  8  1  0
  8  9  1  0
  9 10  1  0
 10 11  1  0
 11 12  2  0
 11 13  1  0
 13 14  1  0
 14 15  2  0
 15 16  1  0
 16 17  2  0
 17 18  1  0
 14 19  1  0
 18 19  2  0
  8 20  1  0
  5 21  1  0
 20 21  1  0
M  END
