pyridine_urea_3123
     RDKit          3D

 21 22  0  0  0  0  0  0  0  0999 V2000
   12.4320   -1.8450   21.7970 C   0  0  0  0  0  0  0  0  0  0  0  0
   11.5420   -1.1660   22.7380 O   0  0  0  0  0  0  0  0  0  0  0  0
   10.9350   -2.0170   23.6490 C   0  0  0  0  0  0  0  0  0  0  0  0
    9.7670   -1.7950   22.8590 C   0  0  0  0  0  0  0  0  0  0  0  0
   10.0810   -0.8870   21.8380 C   0  0  0  0  0  0  0  0  0  0  0  0
   11.3740   -0.6460   22.1070 C   0  0  0  0  0  0  0  0  0  0  0  0
   10.4950   -1.6120   22.9510 C   0  0  1  0  0  0  0  0  0  0  0  0
   10.0220   -1.2060   24.2270 C   0  0  0  0  0  0  0  0  0  0  0  0
    9.2220   -1.5760   22.1520 N   0  0  0  0  0  0  0  0  0  0  0  0
    8.5560   -0.4270   21.6420 C   0  0  0  0  0  0  0  0  0  0  0  0
    9.0930    0.9340   21.6750 O   0  0  0  0  0  0  0  0  0  0  0  0
    7.3200   -0.7730   21.1050 N   0  0  0  0  0  0  0  0  0  0  0  0
    6.5590   -0.0620   20.1380 C   0  0  0  0  0  0  0  0  0  0  0  0
    5.4050    0.6670   20.3900 C   0  0  0  0  0  0  0  0  0  0  0  0
    4.7330    1.3380   19.3630 C   0  0  0  0  0  0  0  0  0  0  0  0
    5.2530    1.2600   18.0700 C   0  0  0  0  0  0  0  0  0  0  0  0
    6.3650    0.5600   17.7900 N   0  0  0  0  0  0  0  0  0  0  0  0
    6.9830   -0.0780   18.8140 C   0  0  0  0  0  0  0  0  0  0  0  0
   12.5500   -0.8580   22.8880 C   0  0  0  0  0  0  0  0  0  0  0  0
   12.2600   -1.7420   23.8590 C   0  0  0  0  0  0  0  0  0  0  0  0
   13.4350   -2.4050   25.1710 Br  0  0  0  0  0  0  0  0  0  0  0  0
  1  2  1  0
  2  3  1  0
  3  4  2  0
  4  5  1  0
  5  6  2  0
  6  7  1  0
  7  8  1  1
  7  9  1  0
  9 10  1  0
 10 11  2  0
 10 12  1  0
 12 13  1  0
 13 14  2  0
 14 15  1  0
 15 16  2  0
 16 17  1  0
 13 18  1  0
 17 18  2  0
  6 19  1  0
  3 20  1  0
 19 20  2  0
 20 21  1  0
M  END
