pyridine_urea_6146
     RDKit          3D

 24 26  0  0  0  0  0  0  0  0999 V2000
    8.8000    0.9180   21.3230 O   0  0  0  0  0  0  0  0  0  0  0  0
    8.3300   -0.2170   21.3420 C   0  0  0  0  0  0  0  0  0  0  0  0
    6.9970   -0.5000   21.1640 N   0  0  0  0  0  0  0  0  0  0  0  0
    6.3890    0.1230   20.0260 C   0  0  0  0  0  0  0  0  0  0  0  0
    5.1060    0.8930   20.2940 C   0  0  0  0  0  0  0  0  0  0  0  0
    4.5200    1.5380   19.0920 C   0  0  0  0  0  0  0  0  0  0  0  0
    5.1650    1.3880   17.8790 C   0  0  0  0  0  0  0  0  0  0  0  0
    6.2980    0.6860   17.6970 N   0  0  0  0  0  0  0  0  0  0  0  0
    6.8770    0.0770   18.7460 C   0  0  0  0  0  0  0  0  0  0  0  0
    9.0510   -1.3640   21.4920 N   0  0  0  0  0  0  0  0  0  0  0  0
    9.9210   -1.6850   22.6440 C   0  0  1  0  0  0  0  0  0  0  0  0
   11.1370   -1.3060   22.3920 C   0  0  0  0  0  0  0  0  0  0  0  0
   11.3950   -2.3610   21.4610 C   0  0  0  0  0  0  0  0  0  0  0  0
   12.5830   -2.4320   20.8550 C   0  0  0  0  0  0  0  0  0  0  0  0
   13.5390   -1.4730   21.1310 C   0  0  0  0  0  0  0  0  0  0  0  0
   13.3490   -0.4300   22.0540 C   0  0  0  0  0  0  0  0  0  0  0  0
   12.0550   -0.3380   22.7330 C   0  0  0  0  0  0  0  0  0  0  0  0
    9.5260   -1.2740   24.0280 C   0  0  0  0  0  0  0  0  0  0  0  0
    8.9810   -2.0300   24.7870 O   0  0  0  0  0  0  0  0  0  0  0  0
    8.4880   -0.2880   23.5680 C   0  0  0  0  0  0  0  0  0  0  0  0
    8.1930    0.5870   24.6110 C   0  0  0  0  0  0  0  0  0  0  0  0
    9.3170    0.7320   25.4080 C   0  0  0  0  0  0  0  0  0  0  0  0
   10.4630    0.5150   24.6010 C   0  0  0  0  0  0  0  0  0  0  0  0
   10.6390   -0.7850   24.6820 C   0  0  0  0  0  0  0  0  0  0  0  0
  1  2  2  0
  2  3  1  0
  3  4  1  0
  4  5  2  0
  5  6  1  0
  6  7  2  0
  7  8  1  0
  4  9  1  0
  8  9  2  0
  2 10  1  0
 11 10  1  6
 11 12  1  0
 12 13  2  0
 13 14  1  0
 14 15  2  0
 15 16  1  0
 12 17  1  0
 16 17  2  0
 11 18  1  0
 18 19  1  0
 18 20  1  0
 20 21  1  0
 21 22  1  0
 22 23  1  0
 18 24  1  0
 23 24  1  0
M  END
