pyridine_urea_12146
     RDKit          3D

 23 24  0  0  0  0  0  0  0  0999 V2000
   13.2190   -3.1870   21.4410 C   0  0  0  0  0  0  0  0  0  0  0  0
   13.4790   -2.7950   22.9070 C   0  0  0  0  0  0  0  0  0  0  0  0
   13.8440   -1.4760   22.6920 O   0  0  0  0  0  0  0  0  0  0  0  0
   13.2830   -1.3140   21.5040 C   0  0  0  0  0  0  0  0  0  0  0  0
   13.9900   -1.0590   20.2920 O   0  0  0  0  0  0  0  0  0  0  0  0
   11.9860   -1.4550   21.5780 N   0  0  0  0  0  0  0  0  0  0  0  0
   11.2980   -1.0710   22.6340 C   0  0  0  0  0  0  0  0  0  0  0  0
   12.1160   -0.8050   23.7110 C   0  0  0  0  0  0  0  0  0  0  0  0
   11.6510   -0.4110   24.9590 C   0  0  0  0  0  0  0  0  0  0  0  0
   10.2410   -0.2720   25.1190 C   0  0  0  0  0  0  0  0  0  0  0  0
    9.2990    0.2130   26.7160 Br  0  0  0  0  0  0  0  0  0  0  0  0
    9.4200   -0.5530   23.9060 C   0  0  0  0  0  0  0  0  0  0  0  0
    9.9420   -0.9400   22.7120 C   0  0  0  0  0  0  0  0  0  0  0  0
    9.0640   -1.1610   21.7160 N   0  0  0  0  0  0  0  0  0  0  0  0
    8.1690   -0.2220   21.2300 C   0  0  0  0  0  0  0  0  0  0  0  0
    8.4780    0.9500   21.0550 O   0  0  0  0  0  0  0  0  0  0  0  0
    6.9450   -0.7080   20.9780 N   0  0  0  0  0  0  0  0  0  0  0  0
    6.3080   -0.0100   20.0250 C   0  0  0  0  0  0  0  0  0  0  0  0
    5.1310    0.7080   20.2100 C   0  0  0  0  0  0  0  0  0  0  0  0
    4.5700    1.4050   19.1410 C   0  0  0  0  0  0  0  0  0  0  0  0
    5.2000    1.3670   17.9110 C   0  0  0  0  0  0  0  0  0  0  0  0
    6.3330    0.6800   17.6930 N   0  0  0  0  0  0  0  0  0  0  0  0
    6.8870   -0.0170   18.7680 C   0  0  0  0  0  0  0  0  0  0  0  0
  1  2  1  0
  2  3  1  0
  3  4  1  0
  4  5  2  0
  4  6  1  0
  6  7  1  0
  7  8  2  0
  8  9  1  0
  9 10  2  0
 10 11  1  0
 10 12  1  0
  7 13  1  0
 12 13  2  0
 13 14  1  0
 14 15  1  0
 15 16  2  0
 15 17  1  0
 17 18  1  0
 18 19  2  0
 19 20  1  0
 20 21  2  0
 21 22  1  0
 18 23  1  0
 22 23  2  0
M  END
