pyridine_urea_2906
     RDKit          3D

 22 24  0  0  0  0  0  0  0  0999 V2000
    9.0540    1.1830   21.2640 O   0  0  0  0  0  0  0  0  0  0  0  0
    8.5400    0.1060   21.5930 C   0  0  0  0  0  0  0  0  0  0  0  0
    9.0730   -0.7020   22.5830 N   0  0  0  0  0  0  0  0  0  0  0  0
    9.3160   -2.1140   22.3130 C   0  0  0  0  0  0  0  0  0  0  0  0
    8.5350   -3.0800   23.2790 C   0  0  0  0  0  0  0  0  0  0  0  0
    7.5250   -3.9180   22.8220 C   0  0  0  0  0  0  0  0  0  0  0  0
    6.7370   -4.8690   23.7290 C   0  0  0  0  0  0  0  0  0  0  0  0
    6.9370   -4.9920   25.0580 N   0  0  0  0  0  0  0  0  0  0  0  0
    7.8990   -4.2450   25.6690 C   0  0  0  0  0  0  0  0  0  0  0  0
    8.1970   -4.2470   26.8540 O   0  0  0  0  0  0  0  0  0  0  0  0
    7.9570   -5.5000   27.4980 C   0  0  0  0  0  0  0  0  0  0  0  0
    6.8200   -5.2810   28.4890 C   0  0  0  0  0  0  0  0  0  0  0  0
    5.7070   -5.0740   27.7060 C   0  0  0  0  0  0  0  0  0  0  0  0
    5.7940   -6.2950   28.7440 C   0  0  0  0  0  0  0  0  0  0  0  0
    8.7180   -3.2770   24.8180 C   0  0  0  0  0  0  0  0  0  0  0  0
    7.3850   -0.4360   21.0790 N   0  0  0  0  0  0  0  0  0  0  0  0
    6.6560    0.1050   20.0800 C   0  0  0  0  0  0  0  0  0  0  0  0
    5.5130    0.8540   20.4000 C   0  0  0  0  0  0  0  0  0  0  0  0
    4.7550    1.4390   19.3730 C   0  0  0  0  0  0  0  0  0  0  0  0
    5.1510    1.2640   18.0610 C   0  0  0  0  0  0  0  0  0  0  0  0
    6.2090    0.5680   17.6580 N   0  0  0  0  0  0  0  0  0  0  0  0
    6.9770   -0.0300   18.7470 C   0  0  0  0  0  0  0  0  0  0  0  0
  1  2  2  0
  2  3  1  0
  3  4  1  0
  4  5  1  0
  5  6  2  0
  6  7  1  0
  7  8  2  0
  8  9  1  0
  9 10  1  0
 10 11  1  0
 11 12  1  0
 12 13  1  0
 12 14  1  0
 13 14  1  0
  5 15  1  0
  9 15  2  0
  2 16  1  0
 16 17  1  0
 17 18  2  0
 18 19  1  0
 19 20  2  0
 20 21  1  0
 17 22  1  0
 21 22  2  0
M  END
