pyridine_urea_14365
     RDKit          3D

 20 21  0  0  0  0  0  0  0  0999 V2000
   13.2530   -1.1860   22.4370 C   0  0  0  0  0  0  0  0  0  0  0  0
   12.2670   -0.2110   23.0120 C   0  0  0  0  0  0  0  0  0  0  0  0
   13.1550    0.7640   22.6800 C   0  0  0  0  0  0  0  0  0  0  0  0
   12.8040    2.1290   22.9500 C   0  0  0  0  0  0  0  0  0  0  0  0
   11.5790    2.5380   23.5610 C   0  0  0  0  0  0  0  0  0  0  0  0
   10.5870    1.4980   23.9740 C   0  0  0  0  0  0  0  0  0  0  0  0
   10.3010    0.0180   24.0110 C   0  0  0  0  0  0  0  0  0  0  0  0
   10.2970   -0.5230   22.5820 C   0  0  1  0  0  0  0  0  0  0  0  0
   10.9590   -1.7080   22.3020 C   0  0  0  0  0  0  0  0  0  0  0  0
    8.9520   -0.8680   22.2350 N   0  0  0  0  0  0  0  0  0  0  0  0
    8.3200    0.0270   21.4120 C   0  0  0  0  0  0  0  0  0  0  0  0
    8.7680    1.1540   21.1200 O   0  0  0  0  0  0  0  0  0  0  0  0
    7.1270   -0.5010   20.9680 N   0  0  0  0  0  0  0  0  0  0  0  0
    6.3840    0.1360   20.0220 C   0  0  0  0  0  0  0  0  0  0  0  0
    5.2010    0.8170   20.2430 C   0  0  0  0  0  0  0  0  0  0  0  0
    4.5980    1.4210   19.1610 C   0  0  0  0  0  0  0  0  0  0  0  0
    5.1560    1.3470   17.8990 C   0  0  0  0  0  0  0  0  0  0  0  0
    6.2950    0.6830   17.6740 N   0  0  0  0  0  0  0  0  0  0  0  0
    6.8730    0.0980   18.7340 C   0  0  0  0  0  0  0  0  0  0  0  0
   11.8620    1.0410   23.3220 C   0  0  0  0  0  0  0  0  0  0  0  0
  1  2  1  0
  2  3  2  0
  3  4  1  0
  4  5  2  0
  5  6  1  0
  6  7  1  0
  7  8  1  0
  8  9  1  1
  8 10  1  0
 10 11  1  0
 11 12  2  0
 11 13  1  0
 13 14  1  0
 14 15  2  0
 15 16  1  0
 16 17  2  0
 17 18  1  0
 14 19  1  0
 18 19  2  0
  2 20  1  0
  6 20  2  0
M  END
