pyridine_urea_3211
     RDKit          3D

 20 21  0  0  0  0  0  0  0  0999 V2000
    8.6630    0.9460   21.2450 O   0  0  0  0  0  0  0  0  0  0  0  0
    8.1990   -0.1370   21.5740 C   0  0  0  0  0  0  0  0  0  0  0  0
    7.0570   -0.6780   21.0680 N   0  0  0  0  0  0  0  0  0  0  0  0
    6.4080   -0.0310   20.0130 C   0  0  0  0  0  0  0  0  0  0  0  0
    5.2200    0.6610   20.2540 C   0  0  0  0  0  0  0  0  0  0  0  0
    4.5820    1.3250   19.2050 C   0  0  0  0  0  0  0  0  0  0  0  0
    5.1610    1.2710   17.9550 C   0  0  0  0  0  0  0  0  0  0  0  0
    6.2970    0.6060   17.7050 N   0  0  0  0  0  0  0  0  0  0  0  0
    6.8920   -0.0280   18.7290 C   0  0  0  0  0  0  0  0  0  0  0  0
    8.8300   -0.9120   22.5130 N   0  0  0  0  0  0  0  0  0  0  0  0
   10.1840   -0.4880   22.7290 C   0  0  0  0  0  0  0  0  0  0  0  0
   10.4420    1.0030   22.7510 C   0  0  0  0  0  0  0  0  0  0  0  0
   11.7380    1.4510   22.9220 C   0  0  0  0  0  0  0  0  0  0  0  0
   12.0260    3.3260   22.8920 Br  0  0  0  0  0  0  0  0  0  0  0  0
   12.7690    0.5280   23.0890 C   0  0  0  0  0  0  0  0  0  0  0  0
   12.5070   -0.8590   23.0780 C   0  0  0  0  0  0  0  0  0  0  0  0
   13.4210   -1.8060   23.2310 N   0  0  0  0  0  0  0  0  0  0  0  0
   13.5430   -2.2290   22.0830 O   0  0  0  0  0  0  0  0  0  0  0  0
   13.3200   -2.5140   24.2380 O   0  0  0  0  0  0  0  0  0  0  0  0
   11.2290   -1.3690   22.8950 C   0  0  0  0  0  0  0  0  0  0  0  0
  1  2  2  0
  2  3  1  0
  3  4  1  0
  4  5  2  0
  5  6  1  0
  6  7  2  0
  7  8  1  0
  4  9  1  0
  8  9  2  0
  2 10  1  0
 10 11  1  0
 11 12  2  0
 12 13  1  0
 13 14  1  0
 13 15  2  0
 15 16  1  0
 16 17  1  0
 17 18  2  0
 17 19  1  0
 11 20  1  0
 16 20  2  0
M  CHG  2  17   1  19  -1
M  END
