pyridine_urea_11229
     RDKit          3D

 17 18  0  0  0  0  0  0  0  0999 V2000
    8.9140    1.3380   21.2090 O   0  0  0  0  0  0  0  0  0  0  0  0
    8.3780    0.3130   21.6470 C   0  0  0  0  0  0  0  0  0  0  0  0
    8.8240   -0.3280   22.7680 N   0  0  0  0  0  0  0  0  0  0  0  0
    9.7460   -1.4120   22.6060 C   0  0  0  0  0  0  0  0  0  0  0  0
   11.0500   -1.1770   23.3260 C   0  0  0  0  0  0  0  0  0  0  0  0
   10.9390   -1.7800   24.3880 O   0  0  0  0  0  0  0  0  0  0  0  0
   12.0880   -1.5960   22.3510 C   0  0  0  0  0  0  0  0  0  0  0  0
   13.0770   -0.7390   22.5780 C   0  0  0  0  0  0  0  0  0  0  0  0
   12.7170    0.3250   23.5900 C   0  0  0  0  0  0  0  0  0  0  0  0
   11.2500    0.3540   23.7920 C   0  0  0  0  0  0  0  0  0  0  0  0
    7.2880   -0.3400   21.1320 N   0  0  0  0  0  0  0  0  0  0  0  0
    6.6050    0.1940   19.9760 C   0  0  0  0  0  0  0  0  0  0  0  0
    5.3940    1.0150   20.2740 C   0  0  0  0  0  0  0  0  0  0  0  0
    4.6650    1.6090   19.2510 C   0  0  0  0  0  0  0  0  0  0  0  0
    5.0910    1.4230   17.9350 C   0  0  0  0  0  0  0  0  0  0  0  0
    6.2610    0.6090   17.6650 N   0  0  0  0  0  0  0  0  0  0  0  0
    6.9630    0.0330   18.6750 C   0  0  0  0  0  0  0  0  0  0  0  0
  1  2  2  0
  2  3  1  0
  3  4  1  0
  4  5  1  0
  5  6  1  0
  5  7  1  0
  7  8  1  0
  8  9  1  0
  5 10  1  0
  9 10  1  0
  2 11  1  0
 11 12  1  0
 12 13  2  0
 13 14  1  0
 14 15  2  0
 15 16  1  0
 12 17  1  0
 16 17  2  0
M  END
