pyridine_urea_9582
     RDKit          3D

 22 24  0  0  0  0  0  0  0  0999 V2000
    4.3900   -6.7970   23.8650 C   0  0  0  0  0  0  0  0  0  0  0  0
    5.4880   -5.9660   23.8690 N   0  0  0  0  0  0  0  0  0  0  0  0
    6.4020   -5.9760   22.7490 C   0  0  0  0  0  0  0  0  0  0  0  0
    7.0200   -4.6040   22.4920 C   0  0  0  0  0  0  0  0  0  0  0  0
    7.4140   -3.9400   23.6380 N   0  0  0  0  0  0  0  0  0  0  0  0
    8.3050   -2.8890   23.7930 C   0  0  0  0  0  0  0  0  0  0  0  0
    9.0720   -2.2120   22.6430 C   0  0  0  0  0  0  0  0  0  0  0  0
    8.9710   -0.8270   22.6430 N   0  0  0  0  0  0  0  0  0  0  0  0
    8.4870    0.0110   21.6030 C   0  0  0  0  0  0  0  0  0  0  0  0
    9.0420    1.0780   21.2880 O   0  0  0  0  0  0  0  0  0  0  0  0
    7.3410   -0.5140   21.0490 N   0  0  0  0  0  0  0  0  0  0  0  0
    6.6000    0.0860   20.0250 C   0  0  0  0  0  0  0  0  0  0  0  0
    5.4400    0.8020   20.3430 C   0  0  0  0  0  0  0  0  0  0  0  0
    4.7060    1.4150   19.3280 C   0  0  0  0  0  0  0  0  0  0  0  0
    5.1600    1.2890   18.0330 C   0  0  0  0  0  0  0  0  0  0  0  0
    6.2620    0.6010   17.7060 N   0  0  0  0  0  0  0  0  0  0  0  0
    6.9530    0.0170   18.7020 C   0  0  0  0  0  0  0  0  0  0  0  0
    8.3280   -2.6170   25.1450 N   0  0  0  0  0  0  0  0  0  0  0  0
    7.4600   -3.4900   25.8050 N   0  0  0  0  0  0  0  0  0  0  0  0
    6.8890   -4.3030   24.9190 C   0  0  0  0  0  0  0  0  0  0  0  0
    5.8940   -5.4060   25.0570 C   0  0  0  0  0  0  0  0  0  0  0  0
    5.4710   -5.7690   26.3070 O   0  0  0  0  0  0  0  0  0  0  0  0
  1  2  1  0
  2  3  1  0
  3  4  1  0
  4  5  1  0
  5  6  1  0
  6  7  1  0
  7  8  1  0
  8  9  1  0
  9 10  2  0
  9 11  1  0
 11 12  1  0
 12 13  2  0
 13 14  1  0
 14 15  2  0
 15 16  1  0
 12 17  1  0
 16 17  2  0
  6 18  2  0
 18 19  1  0
  5 20  1  0
 19 20  2  0
  2 21  1  0
 20 21  1  0
 21 22  2  0
M  END
