pyridine_urea_11925
     RDKit          3D

 25 26  0  0  0  0  0  0  0  0999 V2000
    8.7990    1.4670   21.2690 O   0  0  0  0  0  0  0  0  0  0  0  0
    8.6070    0.2600   21.1740 C   0  0  0  0  0  0  0  0  0  0  0  0
    7.3830   -0.3380   21.0400 N   0  0  0  0  0  0  0  0  0  0  0  0
    6.5780    0.1690   20.0290 C   0  0  0  0  0  0  0  0  0  0  0  0
    5.3920    0.8340   20.3430 C   0  0  0  0  0  0  0  0  0  0  0  0
    4.6190    1.3630   19.3150 C   0  0  0  0  0  0  0  0  0  0  0  0
    5.0720    1.2010   18.0220 C   0  0  0  0  0  0  0  0  0  0  0  0
    6.1950    0.5590   17.7010 N   0  0  0  0  0  0  0  0  0  0  0  0
    6.9200    0.0570   18.7080 C   0  0  0  0  0  0  0  0  0  0  0  0
    9.6690   -0.6210   21.0940 N   0  0  0  0  0  0  0  0  0  0  0  0
   10.3990   -0.9810   22.2340 C   0  0  0  0  0  0  0  0  0  0  0  0
    9.3810   -1.0200   23.2470 C   0  0  0  0  0  0  0  0  0  0  0  0
    9.7120   -1.3170   24.4750 C   0  0  0  0  0  0  0  0  0  0  0  0
    8.4950   -1.2040   25.2370 C   0  0  0  0  0  0  0  0  0  0  0  0
    7.6290   -2.2330   25.3300 F   0  0  0  0  0  0  0  0  0  0  0  0
    7.6980   -0.2940   24.6060 F   0  0  0  0  0  0  0  0  0  0  0  0
    8.5860   -0.6100   26.4610 F   0  0  0  0  0  0  0  0  0  0  0  0
   11.1310   -1.6540   24.7600 C   0  0  0  0  0  0  0  0  0  0  0  0
   12.2010   -1.6410   23.8230 C   0  0  0  0  0  0  0  0  0  0  0  0
   11.9370   -1.2730   22.5200 C   0  0  0  0  0  0  0  0  0  0  0  0
   13.3530   -1.2250   21.5790 S   0  0  0  0  0  0  0  0  0  0  0  0
   12.6590   -2.6490   21.3630 C   0  0  0  0  0  0  0  0  0  0  0  0
   11.3480   -2.4520   21.7790 C   0  0  0  0  0  0  0  0  0  0  0  0
   11.0820   -1.1500   21.9810 F   0  0  0  0  0  0  0  0  0  0  0  0
   11.2060   -2.9860   23.0130 F   0  0  0  0  0  0  0  0  0  0  0  0
  1  2  2  0
  2  3  1  0
  3  4  1  0
  4  5  2  0
  5  6  1  0
  6  7  2  0
  7  8  1  0
  4  9  1  0
  8  9  2  0
  2 10  1  0
 10 11  1  0
 11 12  2  0
 12 13  1  0
 13 14  1  0
 14 15  1  0
 14 16  1  0
 14 17  1  0
 13 18  2  0
 18 19  1  0
 11 20  1  0
 19 20  2  0
 20 21  1  0
 21 22  1  0
 22 23  1  0
 23 24  1  0
 23 25  1  0
M  END
