pyridine_urea_1637
     RDKit          3D

 19 21  0  0  0  0  0  0  0  0999 V2000
    8.7040    0.7520   21.4610 O   0  0  0  0  0  0  0  0  0  0  0  0
    8.5490   -0.4540   21.6200 C   0  0  0  0  0  0  0  0  0  0  0  0
    9.3690   -1.2310   22.3610 N   0  0  0  0  0  0  0  0  0  0  0  0
   10.6410   -0.7190   22.5510 C   0  0  0  0  0  0  0  0  0  0  0  0
   11.7530   -1.5170   22.3340 C   0  0  0  0  0  0  0  0  0  0  0  0
   13.0200   -0.9760   22.5080 C   0  0  0  0  0  0  0  0  0  0  0  0
   13.1190    0.3430   22.8880 C   0  0  0  0  0  0  0  0  0  0  0  0
   12.0760    1.1350   23.1050 N   0  0  0  0  0  0  0  0  0  0  0  0
   10.8550    0.5880   22.9360 C   0  0  0  0  0  0  0  0  0  0  0  0
    7.5210   -1.0820   20.9980 N   0  0  0  0  0  0  0  0  0  0  0  0
    6.9050   -0.1250   20.1230 C   0  0  2  0  0  0  0  0  0  0  0  0
    6.0460    0.7900   20.9620 C   0  0  0  0  0  0  0  0  0  0  0  0
    5.6630    1.6750   20.0300 C   0  0  0  0  0  0  0  0  0  0  0  0
    5.7870    1.1270   18.7880 N   0  0  0  0  0  0  0  0  0  0  0  0
    4.6980    1.5250   18.2150 C   0  0  0  0  0  0  0  0  0  0  0  0
    4.2000    2.6410   18.4510 C   0  0  0  0  0  0  0  0  0  0  0  0
    3.6750    1.5920   19.3520 C   0  0  0  0  0  0  0  0  0  0  0  0
    6.1880   -0.1780   18.8860 C   0  0  0  0  0  0  0  0  0  0  0  0
    5.9720   -1.2550   18.0880 O   0  0  0  0  0  0  0  0  0  0  0  0
  1  2  2  0
  2  3  1  0
  3  4  1  0
  4  5  2  0
  5  6  1  0
  6  7  2  0
  7  8  1  0
  4  9  1  0
  8  9  2  0
  2 10  1  0
 11 10  1  1
 11 12  1  0
 12 13  1  0
 13 14  1  0
 14 15  1  0
 15 16  1  0
 15 17  1  0
 16 17  1  0
 11 18  1  0
 14 18  1  0
 18 19  2  0
M  END
