pyridine_urea_12480
     RDKit          3D

 22 23  0  0  0  0  0  0  0  0999 V2000
   13.7310   -2.9780   25.6250 C   0  0  0  0  0  0  0  0  0  0  0  0
   12.2850   -3.0770   25.1880 C   0  0  0  0  0  0  0  0  0  0  0  0
   11.3720   -4.0740   25.9600 C   0  0  0  0  0  0  0  0  0  0  0  0
   10.0290   -4.2720   25.6710 C   0  0  0  0  0  0  0  0  0  0  0  0
    9.0960   -5.3980   26.5860 Cl  0  0  0  0  0  0  0  0  0  0  0  0
    9.4460   -3.4440   24.5100 C   0  0  0  0  0  0  0  0  0  0  0  0
   10.2500   -2.5350   23.7960 C   0  0  0  0  0  0  0  0  0  0  0  0
   11.7350   -2.3450   24.1630 C   0  0  0  0  0  0  0  0  0  0  0  0
   12.4180   -1.5380   23.5430 O   0  0  0  0  0  0  0  0  0  0  0  0
   12.2420   -0.1680   23.9130 C   0  0  0  0  0  0  0  0  0  0  0  0
   10.8580    0.3490   23.6470 C   0  0  0  0  0  0  0  0  0  0  0  0
   10.2690   -0.5490   22.5760 C   0  0  0  0  0  0  0  0  0  0  0  0
    8.8350   -0.4740   22.5340 N   0  0  0  0  0  0  0  0  0  0  0  0
    8.3360    0.2510   21.5010 C   0  0  0  0  0  0  0  0  0  0  0  0
    8.8420    1.3210   21.1450 O   0  0  0  0  0  0  0  0  0  0  0  0
    7.2080   -0.3860   20.9590 N   0  0  0  0  0  0  0  0  0  0  0  0
    6.4410    0.2070   20.0000 C   0  0  0  0  0  0  0  0  0  0  0  0
    5.2590    0.9080   20.2490 C   0  0  0  0  0  0  0  0  0  0  0  0
    4.6010    1.4810   19.1680 C   0  0  0  0  0  0  0  0  0  0  0  0
    5.1530    1.3220   17.9180 C   0  0  0  0  0  0  0  0  0  0  0  0
    6.2720    0.6490   17.6450 N   0  0  0  0  0  0  0  0  0  0  0  0
    6.8870    0.1070   18.7020 C   0  0  0  0  0  0  0  0  0  0  0  0
  1  2  1  0
  2  3  2  0
  3  4  1  0
  4  5  1  0
  4  6  2  0
  6  7  1  0
  2  8  1  0
  7  8  2  0
  8  9  1  0
  9 10  1  0
 10 11  1  0
 11 12  1  0
 12 13  1  0
 13 14  1  0
 14 15  2  0
 14 16  1  0
 16 17  1  0
 17 18  2  0
 18 19  1  0
 19 20  2  0
 20 21  1  0
 17 22  1  0
 21 22  2  0
M  END
