pyridine_urea_6308
     RDKit          3D

 23 24  0  0  0  0  0  0  0  0999 V2000
   10.2410   -0.0770   25.1440 C   0  0  0  0  0  0  0  0  0  0  0  0
    9.6100    0.6040   24.3890 C   0  0  0  0  0  0  0  0  0  0  0  0
    8.4800    1.4700   23.8240 C   0  0  0  0  0  0  0  0  0  0  0  0
    9.7590   -0.4620   23.2790 C   0  0  1  0  0  0  0  0  0  0  0  0
    8.4200   -0.3320   22.7660 N   0  0  0  0  0  0  0  0  0  0  0  0
    8.1480    0.1820   21.5320 C   0  0  0  0  0  0  0  0  0  0  0  0
    8.8140    1.3760   21.0090 O   0  0  0  0  0  0  0  0  0  0  0  0
    7.1930   -0.5600   20.9440 N   0  0  0  0  0  0  0  0  0  0  0  0
    6.5280    0.0470   19.9510 C   0  0  0  0  0  0  0  0  0  0  0  0
    5.2990    0.8150   20.2650 C   0  0  0  0  0  0  0  0  0  0  0  0
    4.5150    1.4940   19.3910 C   0  0  0  0  0  0  0  0  0  0  0  0
    5.1610    1.2970   18.0350 C   0  0  0  0  0  0  0  0  0  0  0  0
    6.2600    0.6120   17.6960 N   0  0  0  0  0  0  0  0  0  0  0  0
    6.9290   -0.0050   18.6610 C   0  0  0  0  0  0  0  0  0  0  0  0
   10.8880   -0.1320   22.3280 C   0  0  1  0  0  0  0  0  0  0  0  0
   11.1220    1.1990   22.3560 O   0  0  0  0  0  0  0  0  0  0  0  0
   11.7480   -0.6960   23.1450 C   0  0  0  0  0  0  0  0  0  0  0  0
   12.0080    0.2400   24.3100 C   0  0  0  0  0  0  0  0  0  0  0  0
   12.8490   -0.6960   25.0790 C   0  0  0  0  0  0  0  0  0  0  0  0
   13.2970   -2.0430   24.7740 C   0  0  0  0  0  0  0  0  0  0  0  0
   14.2280   -2.7880   25.9470 Cl  0  0  0  0  0  0  0  0  0  0  0  0
   12.9660   -2.6420   23.6240 C   0  0  0  0  0  0  0  0  0  0  0  0
   12.1640   -1.9820   22.7790 C   0  0  0  0  0  0  0  0  0  0  0  0
  1  2  1  0
  2  3  1  0
  2  4  1  0
  4  5  1  6
  5  6  1  0
  6  7  2  0
  6  8  1  0
  8  9  1  0
  9 10  2  0
 10 11  1  0
 11 12  2  0
 12 13  1  0
  9 14  1  0
 13 14  2  0
  4 15  1  0
 15 16  1  1
 15 17  1  0
 17 18  2  0
 18 19  1  0
 19 20  2  0
 20 21  1  0
 20 22  1  0
 17 23  1  0
 22 23  2  0
M  END
