pyridine_urea_5093
     RDKit          3D

 20 22  0  0  0  0  0  0  0  0999 V2000
    8.3980    1.6640   20.7290 O   0  0  0  0  0  0  0  0  0  0  0  0
    8.3550    0.6330   21.3670 C   0  0  0  0  0  0  0  0  0  0  0  0
    9.2320    0.3800   22.3540 N   0  0  0  0  0  0  0  0  0  0  0  0
   10.1450    1.4230   22.6950 C   0  0  0  0  0  0  0  0  0  0  0  0
   11.4810    1.0610   22.6760 C   0  0  0  0  0  0  0  0  0  0  0  0
   12.6560    0.2400   22.8740 C   0  0  0  0  0  0  0  0  0  0  0  0
   12.4530   -0.9570   23.4180 C   0  0  0  0  0  0  0  0  0  0  0  0
   13.4130   -2.0260   23.7310 C   0  0  0  0  0  0  0  0  0  0  0  0
   12.8090   -3.0470   24.2550 N   0  0  0  0  0  0  0  0  0  0  0  0
   11.4600   -3.0070   24.4290 C   0  0  0  0  0  0  0  0  0  0  0  0
   10.3300   -1.9880   24.1660 C   0  0  0  0  0  0  0  0  0  0  0  0
   11.1580   -0.9900   23.6200 C   0  0  0  0  0  0  0  0  0  0  0  0
   10.6310    0.1020   23.2190 N   0  0  0  0  0  0  0  0  0  0  0  0
    7.3870   -0.2860   21.0780 N   0  0  0  0  0  0  0  0  0  0  0  0
    6.5380    0.1470   20.1260 C   0  0  0  0  0  0  0  0  0  0  0  0
    5.3160    0.7770   20.3660 C   0  0  0  0  0  0  0  0  0  0  0  0
    4.5590    1.2160   19.2780 C   0  0  0  0  0  0  0  0  0  0  0  0
    5.0480    1.0100   18.0010 C   0  0  0  0  0  0  0  0  0  0  0  0
    6.2060    0.3980   17.7450 N   0  0  0  0  0  0  0  0  0  0  0  0
    6.9230   -0.0210   18.8060 C   0  0  0  0  0  0  0  0  0  0  0  0
  1  2  2  0
  2  3  1  0
  3  4  1  0
  4  5  1  0
  5  6  2  0
  6  7  1  0
  7  8  2  0
  8  9  1  0
  9 10  2  0
 10 11  1  0
  7 12  1  0
 11 12  2  0
  5 13  1  0
 12 13  1  0
  2 14  1  0
 14 15  1  0
 15 16  2  0
 16 17  1  0
 17 18  2  0
 18 19  1  0
 15 20  1  0
 19 20  2  0
M  END
