pyridine_urea_10572
     RDKit          3D

 21 22  0  0  0  0  0  0  0  0999 V2000
    8.6710    0.6310   21.1940 O   0  0  0  0  0  0  0  0  0  0  0  0
    8.0150   -0.3700   21.4720 C   0  0  0  0  0  0  0  0  0  0  0  0
    8.2260   -1.2620   22.4600 N   0  0  0  0  0  0  0  0  0  0  0  0
    9.3490   -1.3490   23.2380 C   0  0  0  0  0  0  0  0  0  0  0  0
    9.8930   -0.1420   23.9740 C   0  0  1  0  0  0  0  0  0  0  0  0
    9.5240   -0.2880   25.4530 C   0  0  0  0  0  0  0  0  0  0  0  0
    8.4770    0.6230   26.0480 C   0  0  0  0  0  0  0  0  0  0  0  0
    7.4380   -0.1630   26.6370 O   0  0  0  0  0  0  0  0  0  0  0  0
   11.3840   -0.2030   23.8230 C   0  0  0  0  0  0  0  0  0  0  0  0
   11.6820   -1.2800   24.4290 C   0  0  0  0  0  0  0  0  0  0  0  0
   13.1240   -1.1620   24.1300 C   0  0  0  0  0  0  0  0  0  0  0  0
   13.6250    0.0390   23.3190 N   0  0  0  0  0  0  0  0  0  0  0  0
   12.8510    1.1710   22.7660 C   0  0  0  0  0  0  0  0  0  0  0  0
   12.6170    0.1820   23.4140 C   0  0  0  0  0  0  0  0  0  0  0  0
    6.9030   -0.7650   20.7960 N   0  0  0  0  0  0  0  0  0  0  0  0
    6.2370   -0.0050   19.9350 C   0  0  0  0  0  0  0  0  0  0  0  0
    5.0050    0.6600   20.2120 C   0  0  0  0  0  0  0  0  0  0  0  0
    4.5140    1.4540   19.0030 C   0  0  0  0  0  0  0  0  0  0  0  0
    5.1960    1.4990   17.8140 C   0  0  0  0  0  0  0  0  0  0  0  0
    6.3430    0.8710   17.5700 N   0  0  0  0  0  0  0  0  0  0  0  0
    6.8140    0.1240   18.6920 C   0  0  0  0  0  0  0  0  0  0  0  0
  1  2  2  0
  2  3  1  0
  3  4  1  0
  5  4  1  6
  5  6  1  0
  6  7  1  0
  7  8  1  0
  5  9  1  0
  9 10  2  0
 10 11  1  0
 11 12  2  0
 12 13  1  0
  9 14  1  0
 13 14  2  0
  2 15  1  0
 15 16  1  0
 16 17  2  0
 17 18  1  0
 18 19  2  0
 19 20  1  0
 16 21  1  0
 20 21  2  0
M  END
