pyridine_urea_495
     RDKit          3D

 25 27  0  0  0  0  0  0  0  0999 V2000
    9.2220    1.2380   21.5770 O   0  0  0  0  0  0  0  0  0  0  0  0
    8.4250    0.3210   21.8770 C   0  0  0  0  0  0  0  0  0  0  0  0
    8.2270   -0.2500   23.1700 N   0  0  0  0  0  0  0  0  0  0  0  0
    9.0420   -1.1450   23.9570 C   0  0  0  0  0  0  0  0  0  0  0  0
   10.2950   -1.4110   23.5270 C   0  0  0  0  0  0  0  0  0  0  0  0
   11.4010   -1.2670   24.3380 C   0  0  0  0  0  0  0  0  0  0  0  0
   12.7030   -1.4430   23.8930 C   0  0  0  0  0  0  0  0  0  0  0  0
   12.8990   -1.8050   22.5730 C   0  0  0  0  0  0  0  0  0  0  0  0
   11.6400   -2.0100   21.7340 C   0  0  0  0  0  0  0  0  0  0  0  0
   10.3740   -1.8150   22.2440 C   0  0  0  0  0  0  0  0  0  0  0  0
    9.2110   -2.0230   21.5040 C   0  0  0  0  0  0  0  0  0  0  0  0
    8.0220   -2.4380   22.3290 N   0  0  0  0  0  0  0  0  0  0  0  0
    6.6690   -2.1600   21.9820 C   0  0  0  0  0  0  0  0  0  0  0  0
    5.6450   -2.4380   22.8940 C   0  0  0  0  0  0  0  0  0  0  0  0
    5.2880   -3.8820   22.9840 C   0  0  0  0  0  0  0  0  0  0  0  0
    6.2220   -4.5840   23.7510 C   0  0  0  0  0  0  0  0  0  0  0  0
    7.4760   -4.5620   23.1460 C   0  0  0  0  0  0  0  0  0  0  0  0
    8.2030   -3.3810   23.3830 C   0  0  0  0  0  0  0  0  0  0  0  0
    7.5630   -0.2830   20.9540 N   0  0  0  0  0  0  0  0  0  0  0  0
    6.6510    0.3430   20.0800 C   0  0  0  0  0  0  0  0  0  0  0  0
    5.5070    1.0350   20.4830 C   0  0  0  0  0  0  0  0  0  0  0  0
    4.7000    1.6120   19.5150 C   0  0  0  0  0  0  0  0  0  0  0  0
    5.0490    1.4860   18.1770 C   0  0  0  0  0  0  0  0  0  0  0  0
    6.1270    0.8240   17.7700 N   0  0  0  0  0  0  0  0  0  0  0  0
    6.8990    0.2680   18.7200 C   0  0  0  0  0  0  0  0  0  0  0  0
  1  2  2  0
  2  3  1  0
  3  4  1  0
  4  5  1  0
  5  6  2  0
  6  7  1  0
  7  8  2  0
  8  9  1  0
  5 10  1  0
  9 10  2  0
 10 11  1  0
 11 12  1  0
 12 13  1  0
 13 14  1  0
 14 15  1  0
 15 16  1  0
 16 17  1  0
 12 18  1  0
 17 18  1  0
  2 19  1  0
 19 20  1  0
 20 21  2  0
 21 22  1  0
 22 23  2  0
 23 24  1  0
 20 25  1  0
 24 25  2  0
M  END
