pyridine_urea_7988
     RDKit          3D

 25 27  0  0  0  0  0  0  0  0999 V2000
    8.7440    1.4140   21.0340 O   0  0  0  0  0  0  0  0  0  0  0  0
    8.2320    0.4200   21.5510 C   0  0  0  0  0  0  0  0  0  0  0  0
    8.5940   -0.1080   22.7430 N   0  0  0  0  0  0  0  0  0  0  0  0
    9.6760    0.3360   23.4930 C   0  0  0  0  0  0  0  0  0  0  0  0
   10.7870   -0.4810   23.5360 C   0  0  0  0  0  0  0  0  0  0  0  0
   11.5510   -0.4330   22.4430 C   0  0  0  0  0  0  0  0  0  0  0  0
   12.5390    0.2850   22.4920 O   0  0  0  0  0  0  0  0  0  0  0  0
   10.9730   -1.2880   21.4290 N   0  0  0  0  0  0  0  0  0  0  0  0
    9.5800   -1.5330   21.6640 C   0  0  0  0  0  0  0  0  0  0  0  0
    9.3160   -2.3650   22.7640 C   0  0  0  0  0  0  0  0  0  0  0  0
   10.0800   -3.2920   22.7520 O   0  0  0  0  0  0  0  0  0  0  0  0
   11.3750   -2.9170   23.1850 C   0  0  0  0  0  0  0  0  0  0  0  0
   11.6790   -3.2120   24.5770 C   0  0  0  0  0  0  0  0  0  0  0  0
   12.8940   -2.8650   25.0860 C   0  0  0  0  0  0  0  0  0  0  0  0
   13.7400   -2.2750   24.2850 C   0  0  0  0  0  0  0  0  0  0  0  0
   13.4820   -2.0000   22.9700 C   0  0  0  0  0  0  0  0  0  0  0  0
   12.3060   -2.3370   22.4380 C   0  0  0  0  0  0  0  0  0  0  0  0
   12.0670   -2.0760   21.1860 C   0  0  0  0  0  0  0  0  0  0  0  0
    7.2040   -0.2860   20.9850 N   0  0  0  0  0  0  0  0  0  0  0  0
    6.4220    0.2830   19.9960 C   0  0  0  0  0  0  0  0  0  0  0  0
    5.2410    0.9800   20.2180 C   0  0  0  0  0  0  0  0  0  0  0  0
    4.5790    1.5220   19.1340 C   0  0  0  0  0  0  0  0  0  0  0  0
    5.1190    1.3480   17.8750 C   0  0  0  0  0  0  0  0  0  0  0  0
    6.2460    0.6680   17.6430 N   0  0  0  0  0  0  0  0  0  0  0  0
    6.8690    0.1530   18.7040 C   0  0  0  0  0  0  0  0  0  0  0  0
  1  2  2  0
  2  3  1  0
  3  4  1  0
  4  5  1  0
  5  6  1  0
  6  7  2  0
  6  8  1  0
  8  9  1  0
  9 10  1  0
 10 11  1  0
 11 12  1  0
 12 13  1  0
 13 14  2  0
 14 15  1  0
 15 16  2  0
 12 17  2  0
 16 17  1  0
  8 18  1  0
 17 18  1  0
  2 19  1  0
 19 20  1  0
 20 21  2  0
 21 22  1  0
 22 23  2  0
 23 24  1  0
 20 25  1  0
 24 25  2  0
M  END
