pyridine_urea_6784
     RDKit          3D

 21 22  0  0  0  0  0  0  0  0999 V2000
   12.1360   -1.8300   21.7720 C   0  0  0  0  0  0  0  0  0  0  0  0
   11.8140   -0.6390   22.7100 C   0  0  0  0  0  0  0  0  0  0  0  0
   12.7450   -0.9330   23.8810 C   0  0  0  0  0  0  0  0  0  0  0  0
   10.2910   -0.7030   23.1260 C   0  0  0  0  0  0  0  0  0  0  0  0
    9.3760   -1.1160   22.0440 N   0  0  0  0  0  0  0  0  0  0  0  0
    8.4900   -0.2090   21.4530 C   0  0  0  0  0  0  0  0  0  0  0  0
    8.7690    0.9560   21.2250 O   0  0  0  0  0  0  0  0  0  0  0  0
    7.2860   -0.7600   21.1410 N   0  0  0  0  0  0  0  0  0  0  0  0
    6.5630   -0.0890   20.1960 C   0  0  0  0  0  0  0  0  0  0  0  0
    5.4090    0.6700   20.4280 C   0  0  0  0  0  0  0  0  0  0  0  0
    4.7290    1.3380   19.4020 C   0  0  0  0  0  0  0  0  0  0  0  0
    5.2180    1.2420   18.1130 C   0  0  0  0  0  0  0  0  0  0  0  0
    6.3080    0.5440   17.7540 N   0  0  0  0  0  0  0  0  0  0  0  0
    6.9640   -0.1050   18.7520 C   0  0  0  0  0  0  0  0  0  0  0  0
   12.2070    0.4770   22.3360 O   0  0  0  0  0  0  0  0  0  0  0  0
   11.6270    1.7040   22.6960 C   0  0  0  0  0  0  0  0  0  0  0  0
   10.2090    1.7140   22.8950 C   0  0  0  0  0  0  0  0  0  0  0  0
    9.6710    3.0720   23.2610 C   0  0  0  0  0  0  0  0  0  0  0  0
   10.5020    4.1200   23.3700 C   0  0  0  0  0  0  0  0  0  0  0  0
   11.8590    4.0860   23.1730 C   0  0  0  0  0  0  0  0  0  0  0  0
   12.6050    2.9440   22.8230 C   0  0  0  0  0  0  0  0  0  0  0  0
  1  2  1  0
  2  3  1  0
  2  4  1  0
  4  5  1  0
  5  6  1  0
  6  7  2  0
  6  8  1  0
  8  9  1  0
  9 10  2  0
 10 11  1  0
 11 12  2  0
 12 13  1  0
  9 14  1  0
 13 14  2  0
  2 15  1  0
 15 16  1  0
 16 17  2  0
 17 18  1  0
 18 19  2  0
 19 20  1  0
 16 21  1  0
 20 21  2  0
M  END
