pyridine_urea_10498
     RDKit          3D

 22 24  0  0  0  0  0  0  0  0999 V2000
   12.9690   -1.2130   25.1390 C   0  0  0  0  0  0  0  0  0  0  0  0
   11.9520   -0.6020   24.1820 C   0  0  0  0  0  0  0  0  0  0  0  0
   12.4120    0.7760   23.6920 C   0  0  0  0  0  0  0  0  0  0  0  0
   12.2130   -1.4270   22.9430 C   0  0  0  0  0  0  0  0  0  0  0  0
   11.1440   -1.2060   21.9830 C   0  0  0  0  0  0  0  0  0  0  0  0
    9.9340   -1.7740   22.1600 C   0  0  2  0  0  0  0  0  0  0  0  0
    9.0750   -1.4320   21.1900 N   0  0  0  0  0  0  0  0  0  0  0  0
    8.4510   -0.2390   21.3720 C   0  0  0  0  0  0  0  0  0  0  0  0
    9.0300    0.8040   21.6340 O   0  0  0  0  0  0  0  0  0  0  0  0
    7.1070   -0.3980   21.1680 N   0  0  0  0  0  0  0  0  0  0  0  0
    6.4520    0.1780   20.0780 C   0  0  0  0  0  0  0  0  0  0  0  0
    5.2920    0.9060   20.2810 C   0  0  0  0  0  0  0  0  0  0  0  0
    4.6550    1.4910   19.2090 C   0  0  0  0  0  0  0  0  0  0  0  0
    5.1670    1.3570   17.9230 C   0  0  0  0  0  0  0  0  0  0  0  0
    6.2850    0.6510   17.6970 N   0  0  0  0  0  0  0  0  0  0  0  0
    6.8960    0.0780   18.7670 C   0  0  0  0  0  0  0  0  0  0  0  0
    9.6180   -1.2150   23.5570 C   0  0  0  0  0  0  0  0  0  0  0  0
    8.2830   -1.2470   23.9470 C   0  0  0  0  0  0  0  0  0  0  0  0
    7.7710   -0.8340   25.1540 C   0  0  0  0  0  0  0  0  0  0  0  0
    8.6000   -0.3470   26.1120 C   0  0  0  0  0  0  0  0  0  0  0  0
    9.9430   -0.2660   25.8540 C   0  0  0  0  0  0  0  0  0  0  0  0
   10.5720   -0.6920   24.4920 C   0  0  0  0  0  0  0  0  0  0  0  0
  2  1  1  0
  2  3  1  0
  2  4  1  0
  4  5  1  0
  5  6  1  0
  6  7  1  6
  7  8  1  0
  8  9  2  0
  8 10  1  0
 10 11  1  0
 11 12  2  0
 12 13  1  0
 13 14  2  0
 14 15  1  0
 11 16  1  0
 15 16  2  0
  6 17  1  0
 17 18  1  0
 18 19  2  0
 19 20  1  0
 20 21  2  0
  2 22  1  0
 17 22  2  0
 21 22  1  0
M  END
