pyridine_urea_1176
     RDKit          3D

 21 23  0  0  0  0  0  0  0  0999 V2000
    8.3100    1.5410   20.7710 O   0  0  0  0  0  0  0  0  0  0  0  0
    8.3080    0.4540   21.3200 C   0  0  0  0  0  0  0  0  0  0  0  0
    7.3350   -0.4640   21.0570 N   0  0  0  0  0  0  0  0  0  0  0  0
    6.6140    0.0510   19.9440 C   0  0  0  0  0  0  0  0  0  0  0  0
    5.3580    0.8720   20.2790 C   0  0  0  0  0  0  0  0  0  0  0  0
    4.6180    1.4470   19.2570 C   0  0  0  0  0  0  0  0  0  0  0  0
    5.0660    1.2480   17.9580 C   0  0  0  0  0  0  0  0  0  0  0  0
    6.1830    0.4960   17.7060 N   0  0  0  0  0  0  0  0  0  0  0  0
    6.9720   -0.1130   18.6760 C   0  0  0  0  0  0  0  0  0  0  0  0
    9.2450    0.1080   22.1960 N   0  0  0  0  0  0  0  0  0  0  0  0
   10.1980   -0.0200   23.0880 C   0  0  1  0  0  0  0  0  0  0  0  0
    9.8020   -0.3600   24.3180 C   0  0  0  0  0  0  0  0  0  0  0  0
   10.7790    0.0210   25.1490 C   0  0  0  0  0  0  0  0  0  0  0  0
   12.1320   -0.2560   24.7970 C   0  0  0  0  0  0  0  0  0  0  0  0
   12.2190   -1.0700   23.7030 C   0  0  0  0  0  0  0  0  0  0  0  0
   13.2560   -2.0600   23.4340 C   0  0  0  0  0  0  0  0  0  0  0  0
   13.2820   -2.8250   22.3090 C   0  0  0  0  0  0  0  0  0  0  0  0
   12.2600   -2.6360   21.3480 C   0  0  0  0  0  0  0  0  0  0  0  0
   12.2770   -3.3260   20.2320 F   0  0  0  0  0  0  0  0  0  0  0  0
   11.2700   -1.7470   21.6030 C   0  0  0  0  0  0  0  0  0  0  0  0
   11.2630   -0.9610   22.7980 C   0  0  0  0  0  0  0  0  0  0  0  0
  1  2  2  0
  2  3  1  0
  3  4  1  0
  4  5  2  0
  5  6  1  0
  6  7  2  0
  7  8  1  0
  4  9  1  0
  8  9  2  0
  2 10  1  0
 11 10  1  6
 11 12  1  0
 12 13  1  0
 13 14  1  0
 14 15  1  0
 15 16  2  0
 16 17  1  0
 17 18  2  0
 18 19  1  0
 18 20  1  0
 11 21  1  0
 15 21  1  0
 20 21  2  0
M  END
