pyridine_urea_10686
     RDKit          3D

 21 22  0  0  0  0  0  0  0  0999 V2000
   15.0490   -5.1150   20.4180 C   0  0  0  0  0  0  0  0  0  0  0  0
   14.1870   -4.0140   20.0080 O   0  0  0  0  0  0  0  0  0  0  0  0
   13.3840   -3.3860   20.9440 C   0  0  0  0  0  0  0  0  0  0  0  0
   13.4140   -1.8760   20.9600 C   0  0  0  0  0  0  0  0  0  0  0  0
   13.6790   -1.4740   22.0820 O   0  0  0  0  0  0  0  0  0  0  0  0
   12.5680   -0.8950   22.4980 C   0  0  0  0  0  0  0  0  0  0  0  0
   12.7540    0.3160   23.2970 C   0  0  0  0  0  0  0  0  0  0  0  0
   11.7470    1.0710   23.8220 C   0  0  0  0  0  0  0  0  0  0  0  0
   10.4430    0.6560   23.5670 C   0  0  0  0  0  0  0  0  0  0  0  0
   10.1330   -0.4940   22.7980 C   0  0  0  0  0  0  0  0  0  0  0  0
    8.7440   -0.7500   22.6100 N   0  0  0  0  0  0  0  0  0  0  0  0
    8.2150   -0.0220   21.5750 C   0  0  0  0  0  0  0  0  0  0  0  0
    8.8030    1.2320   21.1720 O   0  0  0  0  0  0  0  0  0  0  0  0
    7.1140   -0.6120   21.0220 N   0  0  0  0  0  0  0  0  0  0  0  0
    6.4010    0.0510   20.0300 C   0  0  0  0  0  0  0  0  0  0  0  0
    5.2030    0.7750   20.2270 C   0  0  0  0  0  0  0  0  0  0  0  0
    4.4790    1.4780   19.2240 C   0  0  0  0  0  0  0  0  0  0  0  0
    5.1660    1.3610   17.8750 C   0  0  0  0  0  0  0  0  0  0  0  0
    6.3100    0.6560   17.6960 N   0  0  0  0  0  0  0  0  0  0  0  0
    6.9230    0.0040   18.7550 C   0  0  0  0  0  0  0  0  0  0  0  0
   11.2980   -1.3170   22.2390 C   0  0  0  0  0  0  0  0  0  0  0  0
  1  2  1  0
  2  3  1  0
  3  4  1  0
  4  5  1  0
  5  6  1  0
  6  7  2  0
  7  8  1  0
  8  9  2  0
  9 10  1  0
 10 11  1  0
 11 12  1  0
 12 13  2  0
 12 14  1  0
 14 15  1  0
 15 16  2  0
 16 17  1  0
 17 18  2  0
 18 19  1  0
 15 20  1  0
 19 20  2  0
  6 21  1  0
 10 21  2  0
M  END
