pyridine_urea_5753
     RDKit          3D

 19 21  0  0  0  0  0  0  0  0999 V2000
    8.9540    1.2590   21.2010 O   0  0  0  0  0  0  0  0  0  0  0  0
    8.5350    0.1380   21.5170 C   0  0  0  0  0  0  0  0  0  0  0  0
    9.1980   -0.6940   22.5150 N   0  0  0  0  0  0  0  0  0  0  0  0
    9.9870   -1.7690   22.1000 C   0  0  0  0  0  0  0  0  0  0  0  0
   11.3760   -1.6070   21.9350 C   0  0  2  0  0  0  0  0  0  0  0  0
   12.1020   -2.2000   22.9630 C   0  0  0  0  0  0  0  0  0  0  0  0
   12.3800   -0.9770   23.3560 C   0  0  2  0  0  0  0  0  0  0  0  0
   11.9430   -0.1320   22.3130 C   0  0  0  0  0  0  0  0  0  0  0  0
   11.1800   -0.8140   24.1750 C   0  0  0  0  0  0  0  0  0  0  0  0
   12.1870   -0.0690   24.6940 C   0  0  0  0  0  0  0  0  0  0  0  0
   12.8810   -0.4170   25.7500 F   0  0  0  0  0  0  0  0  0  0  0  0
   12.1260    1.2530   24.4080 F   0  0  0  0  0  0  0  0  0  0  0  0
    7.3900   -0.4650   21.0060 N   0  0  0  0  0  0  0  0  0  0  0  0
    6.6110    0.1140   20.0520 C   0  0  0  0  0  0  0  0  0  0  0  0
    5.4590    0.8420   20.3390 C   0  0  0  0  0  0  0  0  0  0  0  0
    4.7020    1.4340   19.3350 C   0  0  0  0  0  0  0  0  0  0  0  0
    5.1300    1.2780   18.0320 C   0  0  0  0  0  0  0  0  0  0  0  0
    6.2280    0.5790   17.6930 N   0  0  0  0  0  0  0  0  0  0  0  0
    6.9610   -0.0030   18.7300 C   0  0  0  0  0  0  0  0  0  0  0  0
  1  2  2  0
  2  3  1  0
  3  4  1  0
  5  4  1  1
  5  6  1  0
  7  6  1  6
  5  8  1  0
  7  8  1  0
  7  9  1  0
  7 10  1  0
  9 10  1  0
 10 11  1  0
 10 12  1  0
  2 13  1  0
 13 14  1  0
 14 15  2  0
 15 16  1  0
 16 17  2  0
 17 18  1  0
 14 19  1  0
 18 19  2  0
M  END
