pyridine_urea_13782
     RDKit          3D

 25 27  0  0  0  0  0  0  0  0999 V2000
    8.9920    7.2490   22.8320 C   0  0  0  0  0  0  0  0  0  0  0  0
    9.7040    6.2010   23.3800 N   0  0  0  0  0  0  0  0  0  0  0  0
    9.0780    4.8790   23.3380 C   0  0  0  0  0  0  0  0  0  0  0  0
   10.0110    3.7330   23.7230 C   0  0  0  0  0  0  0  0  0  0  0  0
   11.2870    3.8880   22.9770 C   0  0  0  0  0  0  0  0  0  0  0  0
   12.2440    2.8740   23.3060 O   0  0  0  0  0  0  0  0  0  0  0  0
   11.8930    1.5800   23.0440 C   0  0  0  0  0  0  0  0  0  0  0  0
   12.9950    0.6750   22.8660 C   0  0  0  0  0  0  0  0  0  0  0  0
   12.8140   -0.7010   22.5910 C   0  0  0  0  0  0  0  0  0  0  0  0
   11.7400   -1.5110   22.4280 C   0  0  0  0  0  0  0  0  0  0  0  0
   10.2340   -1.5180   22.4280 C   0  0  0  0  0  0  0  0  0  0  0  0
    8.9340   -1.0510   22.4810 N   0  0  0  0  0  0  0  0  0  0  0  0
    8.2560   -0.1860   21.4810 C   0  0  0  0  0  0  0  0  0  0  0  0
    8.8380    1.0880   21.1450 O   0  0  0  0  0  0  0  0  0  0  0  0
    7.1090   -0.7090   21.0030 N   0  0  0  0  0  0  0  0  0  0  0  0
    6.5210   -0.0590   19.9870 C   0  0  0  0  0  0  0  0  0  0  0  0
    5.3800    0.6850   20.2270 C   0  0  0  0  0  0  0  0  0  0  0  0
    4.4680    1.5410   19.3300 C   0  0  0  0  0  0  0  0  0  0  0  0
    5.2140    1.3320   18.0130 C   0  0  0  0  0  0  0  0  0  0  0  0
    6.3140    0.6270   17.7000 N   0  0  0  0  0  0  0  0  0  0  0  0
    6.9510   -0.0670   18.7260 C   0  0  0  0  0  0  0  0  0  0  0  0
   10.8320   -0.1730   22.6960 C   0  0  0  0  0  0  0  0  0  0  0  0
   10.6010    1.2410   22.9770 C   0  0  0  0  0  0  0  0  0  0  0  0
   11.8840    5.2180   23.4280 C   0  0  0  0  0  0  0  0  0  0  0  0
   11.1020    6.2400   22.8920 C   0  0  0  0  0  0  0  0  0  0  0  0
  1  2  1  0
  2  3  1  0
  3  4  1  0
  4  5  1  0
  5  6  1  0
  6  7  1  0
  7  8  2  0
  8  9  1  0
  9 10  2  0
 10 11  1  0
 11 12  1  0
 12 13  1  0
 13 14  2  0
 13 15  1  0
 15 16  1  0
 16 17  2  0
 17 18  1  0
 18 19  2  0
 19 20  1  0
 16 21  1  0
 20 21  2  0
 10 22  1  0
  7 23  1  0
 22 23  2  0
  5 24  1  0
  2 25  1  0
 24 25  1  0
M  END
