pyridine_urea_868
     RDKit          3D

 22 24  0  0  0  0  0  0  0  0999 V2000
    8.4040    1.0520   21.3950 O   0  0  0  0  0  0  0  0  0  0  0  0
    8.1320   -0.1190   21.6390 C   0  0  0  0  0  0  0  0  0  0  0  0
    6.9250   -0.7390   21.1260 N   0  0  0  0  0  0  0  0  0  0  0  0
    6.3330   -0.0580   20.0750 C   0  0  0  0  0  0  0  0  0  0  0  0
    5.1560    0.6550   20.2810 C   0  0  0  0  0  0  0  0  0  0  0  0
    4.5880    1.3410   19.2060 C   0  0  0  0  0  0  0  0  0  0  0  0
    5.2200    1.2920   17.9600 C   0  0  0  0  0  0  0  0  0  0  0  0
    6.3560    0.6050   17.7500 N   0  0  0  0  0  0  0  0  0  0  0  0
    6.8880   -0.0580   18.8080 C   0  0  0  0  0  0  0  0  0  0  0  0
    8.9070   -0.9760   22.3610 N   0  0  0  0  0  0  0  0  0  0  0  0
   10.2470   -0.9160   21.8640 C   0  0  1  0  0  0  0  0  0  0  0  0
   11.1280   -0.0310   22.6190 C   0  0  0  0  0  0  0  0  0  0  0  0
   12.0520   -0.9840   22.2890 C   0  0  1  0  0  0  0  0  0  0  0  0
   12.5420   -1.4540   23.3520 C   0  0  0  0  0  0  0  0  0  0  0  0
   13.0080   -2.7520   23.5570 C   0  0  0  0  0  0  0  0  0  0  0  0
   13.4420   -3.0120   24.8390 C   0  0  0  0  0  0  0  0  0  0  0  0
   13.9010   -4.0390   25.4720 F   0  0  0  0  0  0  0  0  0  0  0  0
   13.3940   -2.0780   25.6250 C   0  0  0  0  0  0  0  0  0  0  0  0
   12.9470   -0.9120   25.3520 C   0  0  0  0  0  0  0  0  0  0  0  0
   12.9680   -0.1960   26.2530 F   0  0  0  0  0  0  0  0  0  0  0  0
   12.5000   -0.5030   24.2410 C   0  0  0  0  0  0  0  0  0  0  0  0
   11.1890   -1.9670   21.7440 C   0  0  0  0  0  0  0  0  0  0  0  0
  1  2  2  0
  2  3  1  0
  3  4  1  0
  4  5  2  0
  5  6  1  0
  6  7  2  0
  7  8  1  0
  4  9  1  0
  8  9  2  0
  2 10  1  0
 11 10  1  1
 11 12  1  0
 12 13  1  0
 13 14  1  1
 14 15  2  0
 15 16  1  0
 16 17  1  0
 16 18  2  0
 18 19  1  0
 19 20  1  0
 14 21  1  0
 19 21  2  0
 11 22  1  0
 13 22  1  0
M  END
