pyridine_urea_1913
     RDKit          3D

 16 16  0  0  0  0  0  0  0  0999 V2000
   12.9830    0.1560   23.0280 C   0  0  0  0  0  0  0  0  0  0  0  0
   12.0670    0.5340   24.1970 C   0  0  0  0  0  0  0  0  0  0  0  0
   10.5880    0.2140   23.9450 C   0  0  1  0  0  0  0  0  0  0  0  0
    9.9110    1.4450   23.3380 C   0  0  0  0  0  0  0  0  0  0  0  0
   10.3280   -1.0860   23.1200 C   0  0  2  0  0  0  0  0  0  0  0  0
   11.3180   -1.4080   22.2080 C   0  0  0  0  0  0  0  0  0  0  0  0
    8.9880   -1.1510   22.5130 N   0  0  0  0  0  0  0  0  0  0  0  0
    8.4870   -0.2360   21.6130 C   0  0  0  0  0  0  0  0  0  0  0  0
    9.0380    0.8170   21.3410 O   0  0  0  0  0  0  0  0  0  0  0  0
    7.2850   -0.6640   21.0840 N   0  0  0  0  0  0  0  0  0  0  0  0
    6.5750   -0.0150   20.0540 C   0  0  0  0  0  0  0  0  0  0  0  0
    5.4270    0.7160   20.3690 C   0  0  0  0  0  0  0  0  0  0  0  0
    4.7220    1.3720   19.3650 C   0  0  0  0  0  0  0  0  0  0  0  0
    5.1880    1.2810   18.0530 C   0  0  0  0  0  0  0  0  0  0  0  0
    6.2840    0.5780   17.7290 N   0  0  0  0  0  0  0  0  0  0  0  0
    6.9480   -0.0500   18.7270 C   0  0  0  0  0  0  0  0  0  0  0  0
  1  2  1  0
  2  3  1  0
  3  4  1  6
  3  5  1  0
  5  6  1  6
  5  7  1  0
  7  8  1  0
  8  9  2  0
  8 10  1  0
 10 11  1  0
 11 12  2  0
 12 13  1  0
 13 14  2  0
 14 15  1  0
 11 16  1  0
 15 16  2  0
M  END
