pyridine_urea_9121
     RDKit          3D

 19 20  0  0  0  0  0  0  0  0999 V2000
   13.4200   -1.3350   21.0460 C   0  0  0  0  0  0  0  0  0  0  0  0
   13.2990   -2.5110   21.9450 C   0  0  0  0  0  0  0  0  0  0  0  0
   13.3510   -3.6000   20.8650 C   0  0  0  0  0  0  0  0  0  0  0  0
   12.0630   -2.2960   22.7640 C   0  0  0  0  0  0  0  0  0  0  0  0
   12.2780   -2.1960   24.0960 C   0  0  0  0  0  0  0  0  0  0  0  0
   10.8080   -1.9460   24.8880 S   0  0  0  0  0  0  0  0  0  0  0  0
   10.0270   -1.9990   23.3500 C   0  0  0  0  0  0  0  0  0  0  0  0
    8.6710   -1.8470   23.2630 C   0  0  0  0  0  0  0  0  0  0  0  0
    8.2360   -0.5580   22.9680 N   0  0  0  0  0  0  0  0  0  0  0  0
    8.1590    0.0040   21.7150 C   0  0  0  0  0  0  0  0  0  0  0  0
    8.9020    0.8750   21.2700 O   0  0  0  0  0  0  0  0  0  0  0  0
    7.1000   -0.5540   21.0310 N   0  0  0  0  0  0  0  0  0  0  0  0
    6.4420    0.0820   20.0060 C   0  0  0  0  0  0  0  0  0  0  0  0
    5.2640    0.7850   20.3030 C   0  0  0  0  0  0  0  0  0  0  0  0
    4.6180    1.4400   19.2550 C   0  0  0  0  0  0  0  0  0  0  0  0
    5.2020    1.3600   17.8940 C   0  0  0  0  0  0  0  0  0  0  0  0
    6.3160    0.6750   17.6460 N   0  0  0  0  0  0  0  0  0  0  0  0
    6.9000    0.0600   18.6980 C   0  0  0  0  0  0  0  0  0  0  0  0
   10.8450   -2.1960   22.2560 N   0  0  0  0  0  0  0  0  0  0  0  0
  1  2  1  0
  2  3  1  0
  2  4  1  0
  4  5  2  0
  5  6  1  0
  6  7  1  0
  7  8  1  0
  8  9  1  0
  9 10  1  0
 10 11  2  0
 10 12  1  0
 12 13  1  0
 13 14  2  0
 14 15  1  0
 15 16  2  0
 16 17  1  0
 13 18  1  0
 17 18  2  0
  4 19  1  0
  7 19  2  0
M  END
