pyridine_urea_5129
     RDKit          3D

 20 21  0  0  0  0  0  0  0  0999 V2000
    9.6850    0.8960   24.0270 C   0  0  0  0  0  0  0  0  0  0  0  0
    9.5430   -0.5880   23.7940 C   0  0  1  0  0  0  0  0  0  0  0  0
    8.2990   -0.8500   23.1070 N   0  0  0  0  0  0  0  0  0  0  0  0
    8.1730   -0.1880   21.7840 C   0  0  0  0  0  0  0  0  0  0  0  0
    8.9520    0.7120   21.4210 O   0  0  0  0  0  0  0  0  0  0  0  0
    7.1130   -0.6900   21.0810 N   0  0  0  0  0  0  0  0  0  0  0  0
    6.4650   -0.0210   20.0420 C   0  0  0  0  0  0  0  0  0  0  0  0
    5.3050    0.6760   20.3060 C   0  0  0  0  0  0  0  0  0  0  0  0
    4.6120    1.4130   19.1840 C   0  0  0  0  0  0  0  0  0  0  0  0
    5.1880    1.3510   17.9300 C   0  0  0  0  0  0  0  0  0  0  0  0
    6.3190    0.6540   17.7130 N   0  0  0  0  0  0  0  0  0  0  0  0
    6.9220   -0.0050   18.7390 C   0  0  0  0  0  0  0  0  0  0  0  0
   10.7010   -1.2110   22.9770 C   0  0  0  0  0  0  0  0  0  0  0  0
   10.6030   -2.2940   22.3990 C   0  0  0  0  0  0  0  0  0  0  0  0
   11.7540   -1.4700   22.4030 C   0  0  0  0  0  0  0  0  0  0  0  0
   10.9110   -0.5230   23.3150 C   0  0  0  0  0  0  0  0  0  0  0  0
   12.0130    0.3470   23.3310 C   0  0  0  0  0  0  0  0  0  0  0  0
   13.5730    0.5760   22.7710 Cl  0  0  0  0  0  0  0  0  0  0  0  0
   11.9690   -0.7310   22.7360 C   0  0  0  0  0  0  0  0  0  0  0  0
   13.2480   -1.4650   21.7980 Cl  0  0  0  0  0  0  0  0  0  0  0  0
  2  1  1  6
  2  3  1  0
  3  4  1  0
  4  5  2  0
  4  6  1  0
  6  7  1  0
  7  8  2  0
  8  9  1  0
  9 10  2  0
 10 11  1  0
  7 12  1  0
 11 12  2  0
  2 13  1  0
 13 14  2  0
 14 15  1  0
 15 16  2  0
 16 17  1  0
 17 18  1  0
 13 19  1  0
 17 19  2  0
 19 20  1  0
M  END
