pyridine_urea_2134
     RDKit          3D

 22 24  0  0  0  0  0  0  0  0999 V2000
   13.3930   -2.7410   25.1500 C   0  0  0  0  0  0  0  0  0  0  0  0
   13.0410   -2.0510   24.0120 N   0  0  0  0  0  0  0  0  0  0  0  0
   13.5800   -2.3910   22.5530 N   0  0  0  0  0  0  0  0  0  0  0  0
   13.0440   -1.5110   21.4720 C   0  0  0  0  0  0  0  0  0  0  0  0
   12.8110   -1.4920   22.7310 C   0  0  0  0  0  0  0  0  0  0  0  0
   12.2120   -1.0070   23.7890 C   0  0  0  0  0  0  0  0  0  0  0  0
   11.3130   -0.1170   24.4990 C   0  0  2  0  0  0  0  0  0  0  0  0
   11.2410   -0.6660   25.5670 O   0  0  0  0  0  0  0  0  0  0  0  0
   10.5550   -1.8380   25.1750 C   0  0  0  0  0  0  0  0  0  0  0  0
    9.5500   -1.3100   24.4280 C   0  0  0  0  0  0  0  0  0  0  0  0
    9.9230   -0.0120   23.9740 C   0  0  2  0  0  0  0  0  0  0  0  0
   10.0630    0.0000   22.6150 C   0  0  0  0  0  0  0  0  0  0  0  0
    9.1560   -0.7110   21.9610 N   0  0  0  0  0  0  0  0  0  0  0  0
    8.3040    0.1070   21.3550 C   0  0  0  0  0  0  0  0  0  0  0  0
    8.6110    1.4440   21.0100 O   0  0  0  0  0  0  0  0  0  0  0  0
    7.1020   -0.4500   21.0580 N   0  0  0  0  0  0  0  0  0  0  0  0
    6.4270    0.1370   19.9520 C   0  0  0  0  0  0  0  0  0  0  0  0
    5.2570    0.8270   20.3710 C   0  0  0  0  0  0  0  0  0  0  0  0
    4.5800    1.4780   19.1720 C   0  0  0  0  0  0  0  0  0  0  0  0
    5.1170    1.3460   17.9160 C   0  0  0  0  0  0  0  0  0  0  0  0
    6.2180    0.6620   17.6170 N   0  0  0  0  0  0  0  0  0  0  0  0
    6.8450    0.0760   18.6450 C   0  0  0  0  0  0  0  0  0  0  0  0
  1  2  1  0
  2  3  1  0
  3  4  2  0
  4  5  1  0
  2  6  1  0
  5  6  2  0
  7  6  1  6
  7  8  1  0
  8  9  1  0
  9 10  1  0
  7 11  1  0
 10 11  1  0
 11 12  1  6
 12 13  1  0
 13 14  1  0
 14 15  2  0
 14 16  1  0
 16 17  1  0
 17 18  2  0
 18 19  1  0
 19 20  2  0
 20 21  1  0
 17 22  1  0
 21 22  2  0
M  END
