pyridine_urea_3573
     RDKit          3D

 16 16  0  0  0  0  0  0  0  0999 V2000
   13.0980   -0.0750   22.9890 C   0  0  0  0  0  0  0  0  0  0  0  0
   11.7950    0.7120   23.0550 C   0  0  0  0  0  0  0  0  0  0  0  0
   10.5840   -0.0520   23.5560 C   0  0  0  0  0  0  0  0  0  0  0  0
   10.2910   -1.3360   22.8770 C   0  0  0  0  0  0  0  0  0  0  0  0
   10.7120   -2.4980   23.7320 C   0  0  0  0  0  0  0  0  0  0  0  0
   10.9950   -1.5110   21.5970 C   0  0  0  0  0  0  0  0  0  0  0  0
    8.8530   -1.3250   22.5350 N   0  0  0  0  0  0  0  0  0  0  0  0
    8.3400   -0.3950   21.6380 C   0  0  0  0  0  0  0  0  0  0  0  0
    8.8840    0.6770   21.4010 O   0  0  0  0  0  0  0  0  0  0  0  0
    7.0850   -0.8690   21.0450 N   0  0  0  0  0  0  0  0  0  0  0  0
    6.4070   -0.1070   20.0740 C   0  0  0  0  0  0  0  0  0  0  0  0
    5.2320    0.6220   20.3010 C   0  0  0  0  0  0  0  0  0  0  0  0
    4.6700    1.3310   19.2490 C   0  0  0  0  0  0  0  0  0  0  0  0
    5.2780    1.3070   18.0060 C   0  0  0  0  0  0  0  0  0  0  0  0
    6.4040    0.6150   17.7670 N   0  0  0  0  0  0  0  0  0  0  0  0
    6.9320   -0.0690   18.7960 C   0  0  0  0  0  0  0  0  0  0  0  0
  1  2  2  3
  2  3  1  0
  3  4  1  0
  4  5  1  0
  4  6  1  0
  4  7  1  0
  7  8  1  0
  8  9  2  0
  8 10  1  0
 10 11  1  0
 11 12  2  0
 12 13  1  0
 13 14  2  0
 14 15  1  0
 11 16  1  0
 15 16  2  0
M  END
