pyridine_urea_8586
     RDKit          3D

 21 22  0  0  0  0  0  0  0  0999 V2000
    9.9720    0.0310   25.7090 C   0  0  0  0  0  0  0  0  0  0  0  0
   10.4130   -0.5280   24.4190 C   0  0  0  0  0  0  0  0  0  0  0  0
    9.3810   -0.8200   23.6140 C   0  0  0  0  0  0  0  0  0  0  0  0
    9.5910   -1.3510   22.3860 C   0  0  0  0  0  0  0  0  0  0  0  0
    8.6720   -1.6480   21.5310 N   0  0  0  0  0  0  0  0  0  0  0  0
    8.0420   -0.5250   21.2100 C   0  0  0  0  0  0  0  0  0  0  0  0
    8.6000    0.5660   21.1570 O   0  0  0  0  0  0  0  0  0  0  0  0
    6.7580   -0.7720   20.9820 N   0  0  0  0  0  0  0  0  0  0  0  0
    6.2100   -0.0450   20.0080 C   0  0  0  0  0  0  0  0  0  0  0  0
    5.0480    0.7190   20.1280 C   0  0  0  0  0  0  0  0  0  0  0  0
    4.4880    1.5370   18.9690 C   0  0  0  0  0  0  0  0  0  0  0  0
    5.1830    1.4920   17.7780 C   0  0  0  0  0  0  0  0  0  0  0  0
    6.3070    0.7290   17.7070 N   0  0  0  0  0  0  0  0  0  0  0  0
    6.8290   -0.0240   18.7630 C   0  0  0  0  0  0  0  0  0  0  0  0
   10.9680   -1.6400   21.8900 C   0  0  0  0  0  0  0  0  0  0  0  0
   11.9810   -1.3250   22.7120 C   0  0  0  0  0  0  0  0  0  0  0  0
   11.7040   -0.7770   23.9430 C   0  0  0  0  0  0  0  0  0  0  0  0
   12.8240   -0.5280   24.5220 C   0  0  0  0  0  0  0  0  0  0  0  0
   13.3750    0.1800   23.5350 N   0  0  0  0  0  0  0  0  0  0  0  0
   12.6840    1.3100   23.2290 C   0  0  0  0  0  0  0  0  0  0  0  0
   13.3940   -0.6670   22.4800 C   0  0  0  0  0  0  0  0  0  0  0  0
  1  2  1  0
  2  3  2  0
  3  4  1  0
  4  5  1  0
  5  6  1  0
  6  7  2  0
  6  8  1  0
  8  9  1  0
  9 10  2  0
 10 11  1  0
 11 12  2  0
 12 13  1  0
  9 14  1  0
 13 14  2  0
  4 15  2  0
 15 16  1  0
  2 17  1  0
 16 17  2  0
 17 18  1  0
 18 19  1  0
 19 20  1  0
 19 21  1  0
M  END
