pyridine_urea_7751
     RDKit          3D

 16 17  0  0  0  0  0  0  0  0999 V2000
    9.0330    0.9990   21.6010 O   0  0  0  0  0  0  0  0  0  0  0  0
    8.6380   -0.1400   21.4360 C   0  0  0  0  0  0  0  0  0  0  0  0
    7.3400   -0.5040   21.1250 N   0  0  0  0  0  0  0  0  0  0  0  0
    6.6000    0.0780   20.0790 C   0  0  0  0  0  0  0  0  0  0  0  0
    5.4420    0.8020   20.3780 C   0  0  0  0  0  0  0  0  0  0  0  0
    4.7060    1.3990   19.3520 C   0  0  0  0  0  0  0  0  0  0  0  0
    5.1570    1.2470   18.0590 C   0  0  0  0  0  0  0  0  0  0  0  0
    6.2560    0.5530   17.7400 N   0  0  0  0  0  0  0  0  0  0  0  0
    6.9500   -0.0160   18.7500 C   0  0  0  0  0  0  0  0  0  0  0  0
    9.4780   -1.2270   21.5010 N   0  0  0  0  0  0  0  0  0  0  0  0
   10.5020   -1.4140   22.5570 C   0  0  1  0  0  0  0  0  0  0  0  0
   11.8430   -1.7560   21.9660 C   0  0  0  0  0  0  0  0  0  0  0  0
   12.7830   -0.8480   22.4350 C   0  0  0  0  0  0  0  0  0  0  0  0
   12.0800    0.0650   23.2280 C   0  0  0  0  0  0  0  0  0  0  0  0
   10.7180   -0.3480   23.4080 C   0  0  2  0  0  0  0  0  0  0  0  0
   10.6410   -1.0040   24.6440 O   0  0  0  0  0  0  0  0  0  0  0  0
  1  2  2  0
  2  3  1  0
  3  4  1  0
  4  5  2  0
  5  6  1  0
  6  7  2  0
  7  8  1  0
  4  9  1  0
  8  9  2  0
  2 10  1  0
 11 10  1  6
 11 12  1  0
 12 13  1  0
 13 14  1  0
 11 15  1  0
 14 15  1  0
 15 16  1  1
M  END
