pyridine_urea_8536
     RDKit          3D

 22 23  0  0  0  0  0  0  0  0999 V2000
   11.2190    5.2940   23.9010 C   0  0  0  0  0  0  0  0  0  0  0  0
   11.4060    4.0160   23.1290 C   0  0  0  0  0  0  0  0  0  0  0  0
   12.5530    3.8750   22.3550 C   0  0  0  0  0  0  0  0  0  0  0  0
   11.3910    2.9490   24.1030 O   0  0  0  0  0  0  0  0  0  0  0  0
   11.0820    1.7040   23.6420 C   0  0  0  0  0  0  0  0  0  0  0  0
   11.7690    0.9480   22.7150 C   0  0  0  0  0  0  0  0  0  0  0  0
   11.1990   -0.4810   22.3540 C   0  0  0  0  0  0  0  0  0  0  0  0
    9.9900   -0.9990   22.9600 C   0  0  0  0  0  0  0  0  0  0  0  0
    9.2710   -0.1000   24.0060 C   0  0  0  0  0  0  0  0  0  0  0  0
    9.9950    1.0290   24.1030 C   0  0  0  0  0  0  0  0  0  0  0  0
   10.4450    0.2220   23.0840 C   0  0  1  0  0  0  0  0  0  0  0  0
   11.6810   -0.4420   23.1020 C   0  0  0  0  0  0  0  0  0  0  0  0
    9.2320   -0.5860   22.7690 N   0  0  0  0  0  0  0  0  0  0  0  0
    8.4000   -0.5600   21.6640 C   0  0  0  0  0  0  0  0  0  0  0  0
    8.8530   -1.0590   20.5480 O   0  0  0  0  0  0  0  0  0  0  0  0
    7.1390   -0.0550   21.6620 N   0  0  0  0  0  0  0  0  0  0  0  0
    6.4440    0.3600   20.4780 C   0  0  0  0  0  0  0  0  0  0  0  0
    5.2830    1.1170   20.4880 C   0  0  0  0  0  0  0  0  0  0  0  0
    4.6760    1.4890   19.2910 C   0  0  0  0  0  0  0  0  0  0  0  0
    5.2470    1.0950   18.0910 C   0  0  0  0  0  0  0  0  0  0  0  0
    6.3670    0.3580   18.0210 N   0  0  0  0  0  0  0  0  0  0  0  0
    6.9340    0.0060   19.2050 C   0  0  0  0  0  0  0  0  0  0  0  0
  1  2  1  0
  2  3  1  0
  2  4  1  0
  4  5  1  0
  5  6  2  0
  6  7  1  0
  7  8  2  0
  8  9  1  0
  5 10  1  0
  9 10  2  0
 10 11  1  0
 11 12  1  1
 11 13  1  0
 13 14  1  0
 14 15  2  0
 14 16  1  0
 16 17  1  0
 17 18  2  0
 18 19  1  0
 19 20  2  0
 20 21  1  0
 17 22  1  0
 21 22  2  0
M  END
