pyridine_urea_4311
     RDKit          3D

 24 26  0  0  0  0  0  0  0  0999 V2000
    6.3350   -3.9550   28.5650 C   0  0  0  0  0  0  0  0  0  0  0  0
    5.3230   -2.8280   28.3320 C   0  0  0  0  0  0  0  0  0  0  0  0
    4.0420   -2.7820   29.1340 C   0  0  0  0  0  0  0  0  0  0  0  0
    3.0370   -1.6770   28.9150 C   0  0  0  0  0  0  0  0  0  0  0  0
    3.2410   -0.5520   27.8930 C   0  0  0  0  0  0  0  0  0  0  0  0
    2.0900    0.6660   27.6860 Cl  0  0  0  0  0  0  0  0  0  0  0  0
    4.5320   -0.5590   27.0510 C   0  0  0  0  0  0  0  0  0  0  0  0
    5.5410   -1.6940   27.2910 C   0  0  0  0  0  0  0  0  0  0  0  0
    6.7780   -1.6910   26.4800 N   0  0  0  0  0  0  0  0  0  0  0  0
    7.5420   -0.5590   26.3260 C   0  0  0  0  0  0  0  0  0  0  0  0
    7.9850   -0.4430   25.0240 C   0  0  0  0  0  0  0  0  0  0  0  0
    7.3160   -1.3750   24.2520 C   0  0  1  0  0  0  0  0  0  0  0  0
    8.1670   -2.0460   23.3660 C   0  0  0  0  0  0  0  0  0  0  0  0
    8.9210   -1.0520   22.6100 N   0  0  0  0  0  0  0  0  0  0  0  0
    8.2950   -0.2760   21.5380 C   0  0  0  0  0  0  0  0  0  0  0  0
    8.7580    0.8130   21.2150 O   0  0  0  0  0  0  0  0  0  0  0  0
    7.2030   -0.8350   20.9720 N   0  0  0  0  0  0  0  0  0  0  0  0
    6.5090   -0.1080   20.0570 C   0  0  0  0  0  0  0  0  0  0  0  0
    5.3320    0.6160   20.2710 C   0  0  0  0  0  0  0  0  0  0  0  0
    4.6600    1.3790   19.1900 C   0  0  0  0  0  0  0  0  0  0  0  0
    5.2800    1.3270   17.9560 C   0  0  0  0  0  0  0  0  0  0  0  0
    6.4140    0.6330   17.7290 N   0  0  0  0  0  0  0  0  0  0  0  0
    6.9900   -0.0550   18.7540 C   0  0  0  0  0  0  0  0  0  0  0  0
    6.6050   -2.2590   25.1150 C   0  0  0  0  0  0  0  0  0  0  0  0
  1  2  1  0
  2  3  2  0
  3  4  1  0
  4  5  2  0
  5  6  1  0
  5  7  1  0
  2  8  1  0
  7  8  2  0
  8  9  1  0
  9 10  1  0
 10 11  1  0
 11 12  1  0
 12 13  1  1
 13 14  1  0
 14 15  1  0
 15 16  2  0
 15 17  1  0
 17 18  1  0
 18 19  2  0
 19 20  1  0
 20 21  2  0
 21 22  1  0
 18 23  1  0
 22 23  2  0
  9 24  1  0
 12 24  1  0
M  END
