pyridine_urea_4276
     RDKit          3D

 24 26  0  0  0  0  0  0  0  0999 V2000
   13.0950   -2.5170   21.0820 C   0  0  0  0  0  0  0  0  0  0  0  0
   13.4590   -1.2560   21.5280 O   0  0  0  0  0  0  0  0  0  0  0  0
   12.6280   -1.0630   22.6420 C   0  0  0  0  0  0  0  0  0  0  0  0
   13.3110   -1.0760   23.9490 C   0  0  0  0  0  0  0  0  0  0  0  0
   12.6990   -0.9030   25.2320 C   0  0  0  0  0  0  0  0  0  0  0  0
   11.2600   -0.7080   25.2010 C   0  0  0  0  0  0  0  0  0  0  0  0
   10.5520   -0.7020   23.8960 C   0  0  0  0  0  0  0  0  0  0  0  0
   11.1060   -0.8720   22.4380 C   0  0  0  0  0  0  0  0  0  0  0  0
    9.8360   -0.6750   22.7710 C   0  0  2  0  0  0  0  0  0  0  0  0
    9.0660   -0.8050   21.5970 N   0  0  0  0  0  0  0  0  0  0  0  0
    8.1870    0.0940   21.1860 C   0  0  0  0  0  0  0  0  0  0  0  0
    8.5750    1.2630   21.0410 O   0  0  0  0  0  0  0  0  0  0  0  0
    6.9540   -0.3820   20.9440 N   0  0  0  0  0  0  0  0  0  0  0  0
    6.2210    0.2450   19.9680 C   0  0  0  0  0  0  0  0  0  0  0  0
    5.0130    0.8940   20.1530 C   0  0  0  0  0  0  0  0  0  0  0  0
    4.4150    1.5120   19.0680 C   0  0  0  0  0  0  0  0  0  0  0  0
    5.1280    1.4270   17.7720 C   0  0  0  0  0  0  0  0  0  0  0  0
    6.2840    0.7810   17.6230 N   0  0  0  0  0  0  0  0  0  0  0  0
    6.7970    0.2110   18.7110 C   0  0  0  0  0  0  0  0  0  0  0  0
    9.7600    0.5520   23.4530 C   0  0  0  0  0  0  0  0  0  0  0  0
   10.1080    1.8380   23.9340 C   0  0  0  0  0  0  0  0  0  0  0  0
   11.2410    2.4620   23.6350 C   0  0  0  0  0  0  0  0  0  0  0  0
   11.9070    1.6560   22.8650 C   0  0  0  0  0  0  0  0  0  0  0  0
   11.1060    0.5610   22.7260 O   0  0  0  0  0  0  0  0  0  0  0  0
  1  2  1  0
  2  3  1  0
  3  4  2  0
  4  5  1  0
  5  6  2  0
  6  7  1  0
  3  8  1  0
  7  8  2  0
  8  9  1  0
  9 10  1  6
 10 11  1  0
 11 12  2  0
 11 13  1  0
 13 14  1  0
 14 15  2  0
 15 16  1  0
 16 17  2  0
 17 18  1  0
 14 19  1  0
 18 19  2  0
  9 20  1  0
 20 21  2  0
 21 22  1  0
 22 23  2  0
 20 24  1  0
 23 24  1  0
M  END
