pyridine_urea_18
     RDKit          3D

 18 19  0  0  0  0  0  0  0  0999 V2000
   12.9630   -2.0920   22.0020 C   0  0  0  0  0  0  0  0  0  0  0  0
   12.9270   -0.6780   21.8600 O   0  0  0  0  0  0  0  0  0  0  0  0
   13.0590    0.0750   23.0570 C   0  0  2  0  0  0  0  0  0  0  0  0
   12.8910   -0.8420   24.2580 C   0  0  0  0  0  0  0  0  0  0  0  0
   11.5330   -1.3670   24.1650 N   0  0  0  0  0  0  0  0  0  0  0  0
   10.9370   -0.3940   23.2460 C   0  0  1  0  0  0  0  0  0  0  0  0
    9.6010   -0.2540   23.4490 C   0  0  0  0  0  0  0  0  0  0  0  0
    8.7430   -0.7890   22.5810 N   0  0  0  0  0  0  0  0  0  0  0  0
    8.3130    0.0130   21.5820 C   0  0  0  0  0  0  0  0  0  0  0  0
    8.9370    1.1910   21.2240 O   0  0  0  0  0  0  0  0  0  0  0  0
    7.1800   -0.5150   21.0260 N   0  0  0  0  0  0  0  0  0  0  0  0
    6.4250    0.1520   19.9670 C   0  0  0  0  0  0  0  0  0  0  0  0
    5.2970    0.7750   20.4110 C   0  0  0  0  0  0  0  0  0  0  0  0
    4.6720    1.4150   19.1880 C   0  0  0  0  0  0  0  0  0  0  0  0
    5.1720    1.3540   17.9100 C   0  0  0  0  0  0  0  0  0  0  0  0
    6.2750    0.7020   17.6260 N   0  0  0  0  0  0  0  0  0  0  0  0
    6.8660    0.1230   18.6620 C   0  0  0  0  0  0  0  0  0  0  0  0
   11.7950    0.8680   23.4900 C   0  0  0  0  0  0  0  0  0  0  0  0
  1  2  1  0
  3  2  1  6
  3  4  1  0
  4  5  1  0
  5  6  1  0
  6  7  1  1
  7  8  1  0
  8  9  1  0
  9 10  2  0
  9 11  1  0
 11 12  1  0
 12 13  2  0
 13 14  1  0
 14 15  2  0
 15 16  1  0
 12 17  1  0
 16 17  2  0
  3 18  1  0
  6 18  1  0
M  END
