pyridine_urea_8269
     RDKit          3D

 23 25  0  0  0  0  0  0  0  0999 V2000
    8.6790    0.7820   21.1790 O   0  0  0  0  0  0  0  0  0  0  0  0
    8.0440   -0.0590   21.7700 C   0  0  0  0  0  0  0  0  0  0  0  0
    7.0600   -0.7790   21.1290 N   0  0  0  0  0  0  0  0  0  0  0  0
    6.4120   -0.0590   20.0520 C   0  0  0  0  0  0  0  0  0  0  0  0
    5.0900    0.7260   20.3350 C   0  0  0  0  0  0  0  0  0  0  0  0
    4.5160    1.4150   19.2740 C   0  0  0  0  0  0  0  0  0  0  0  0
    5.2400    1.3390   17.9250 C   0  0  0  0  0  0  0  0  0  0  0  0
    6.3790    0.6420   17.7330 N   0  0  0  0  0  0  0  0  0  0  0  0
    6.9260   -0.0300   18.7720 C   0  0  0  0  0  0  0  0  0  0  0  0
    8.1660   -0.3940   23.0990 N   0  0  0  0  0  0  0  0  0  0  0  0
    9.4420   -0.8850   23.6250 C   0  0  1  0  0  0  0  0  0  0  0  0
    9.9640   -1.9530   22.6520 C   0  0  0  0  0  0  0  0  0  0  0  0
   10.8930   -1.1520   21.8420 C   0  0  0  0  0  0  0  0  0  0  0  0
   12.2630   -1.7690   21.7440 C   0  0  0  0  0  0  0  0  0  0  0  0
   13.3010   -0.5280   22.4170 S   0  0  0  0  0  0  0  0  0  0  0  0
   13.9790   -0.9890   23.5260 O   0  0  0  0  0  0  0  0  0  0  0  0
   13.8470    0.3040   21.4040 O   0  0  0  0  0  0  0  0  0  0  0  0
   12.0080    0.3500   23.2870 C   0  0  0  0  0  0  0  0  0  0  0  0
   11.5480   -0.8580   22.8620 C   0  0  0  0  0  0  0  0  0  0  0  0
   10.4260   -0.6200   23.3750 C   0  0  0  0  0  0  0  0  0  0  0  0
   11.2620    0.6470   23.7000 C   0  0  0  0  0  0  0  0  0  0  0  0
   10.4010    1.4180   24.3680 C   0  0  0  0  0  0  0  0  0  0  0  0
   10.5310    0.2580   23.7710 C   0  0  0  0  0  0  0  0  0  0  0  0
  1  2  2  0
  2  3  1  0
  3  4  1  0
  4  5  2  0
  5  6  1  0
  6  7  2  0
  7  8  1  0
  4  9  1  0
  8  9  2  0
  2 10  1  0
 11 10  1  6
 11 12  1  0
 12 13  1  0
 13 14  1  0
 15 14  1  0
 15 16  2  0
 15 17  2  0
 15 18  1  0
 18 19  1  0
 19 20  2  0
 20 21  1  0
 21 22  2  0
 11 23  1  0
 18 23  2  0
 22 23  1  0
M  END
