pyridine_urea_1937
     RDKit          3D

 29 31  0  0  0  0  0  0  0  0999 V2000
    9.0840    1.1450   21.1410 O   0  0  0  0  0  0  0  0  0  0  0  0
    8.5920    0.1260   21.6240 C   0  0  0  0  0  0  0  0  0  0  0  0
    7.5240   -0.5600   21.0610 N   0  0  0  0  0  0  0  0  0  0  0  0
    6.6420    0.0490   20.1430 C   0  0  0  0  0  0  0  0  0  0  0  0
    5.3440    0.7820   20.5280 C   0  0  0  0  0  0  0  0  0  0  0  0
    4.5820    1.3790   19.3430 C   0  0  0  0  0  0  0  0  0  0  0  0
    5.1700    1.1880   17.9840 C   0  0  0  0  0  0  0  0  0  0  0  0
    6.3070    0.5220   17.7610 N   0  0  0  0  0  0  0  0  0  0  0  0
    6.9850   -0.0120   18.7990 C   0  0  0  0  0  0  0  0  0  0  0  0
    9.0690   -0.4300   22.8280 N   0  0  0  0  0  0  0  0  0  0  0  0
   10.1870    0.1220   23.6680 C   0  0  2  0  0  0  0  0  0  0  0  0
   11.3060    0.3220   22.8200 C   0  0  0  0  0  0  0  0  0  0  0  0
   12.3040    1.2210   23.2660 C   0  0  0  0  0  0  0  0  0  0  0  0
   11.9520    2.6010   23.2220 C   0  0  0  0  0  0  0  0  0  0  0  0
   10.7600    3.0770   23.8160 C   0  0  0  0  0  0  0  0  0  0  0  0
   10.3300    4.4540   23.8170 C   0  0  0  0  0  0  0  0  0  0  0  0
   11.3180    5.3790   23.0940 C   0  0  0  0  0  0  0  0  0  0  0  0
   11.0390    6.6870   23.0240 F   0  0  0  0  0  0  0  0  0  0  0  0
   12.4670    4.8860   22.5320 C   0  0  0  0  0  0  0  0  0  0  0  0
   13.3060    5.7260   21.9100 F   0  0  0  0  0  0  0  0  0  0  0  0
   12.7780    3.5390   22.5950 C   0  0  0  0  0  0  0  0  0  0  0  0
   10.5330   -0.8930   24.5390 C   0  0  0  0  0  0  0  0  0  0  0  0
   11.5750   -0.4260   23.8780 C   0  0  0  0  0  0  0  0  0  0  0  0
   11.3520    0.8320   22.9580 C   0  0  0  0  0  0  0  0  0  0  0  0
    9.7530    1.0360   23.2620 C   0  0  0  0  0  0  0  0  0  0  0  0
    9.0400    2.3960   22.4510 Cl  0  0  0  0  0  0  0  0  0  0  0  0
    8.8130    0.3190   24.0730 C   0  0  0  0  0  0  0  0  0  0  0  0
    7.5210    0.6940   24.1590 F   0  0  0  0  0  0  0  0  0  0  0  0
    9.2270   -0.7450   24.7760 C   0  0  0  0  0  0  0  0  0  0  0  0
  1  2  2  0
  2  3  1  0
  3  4  1  0
  4  5  2  0
  5  6  1  0
  6  7  2  0
  7  8  1  0
  4  9  1  0
  8  9  2  0
  2 10  1  0
 10 11  1  0
 11 12  1  6
 12 13  1  0
 13 14  1  0
 14 15  2  0
 15 16  1  0
 16 17  2  0
 17 18  1  0
 17 19  1  0
 19 20  1  0
 14 21  1  0
 19 21  2  0
 11 22  1  0
 22 23  2  0
 23 24  1  0
 24 25  2  0
 25 26  1  0
 25 27  1  0
 27 28  1  0
 22 29  1  0
 27 29  2  0
M  END
