pyridine_urea_15045
     RDKit          3D

 18 20  0  0  0  0  0  0  0  0999 V2000
    8.6610    1.2540   21.0560 O   0  0  0  0  0  0  0  0  0  0  0  0
    8.2200    0.1510   21.4110 C   0  0  0  0  0  0  0  0  0  0  0  0
    8.8200   -0.5620   22.3880 N   0  0  0  0  0  0  0  0  0  0  0  0
   10.0180    0.0570   22.8300 C   0  0  0  0  0  0  0  0  0  0  0  0
   11.0930   -0.9520   23.0050 C   0  0  0  0  0  0  0  0  0  0  0  0
   12.4290   -0.3310   22.9110 C   0  0  0  0  0  0  0  0  0  0  0  0
   12.4920    0.9890   23.3580 C   0  0  0  0  0  0  0  0  0  0  0  0
   12.6210   -0.0940   24.4710 C   0  0  0  0  0  0  0  0  0  0  0  0
   10.7760   -1.8480   24.2580 C   0  0  0  0  0  0  0  0  0  0  0  0
   10.9240   -2.7760   23.1850 C   0  0  0  0  0  0  0  0  0  0  0  0
   11.0850   -2.0510   22.0720 C   0  0  0  0  0  0  0  0  0  0  0  0
    7.1170   -0.4900   20.9340 N   0  0  0  0  0  0  0  0  0  0  0  0
    6.3460    0.1490   19.9870 C   0  0  0  0  0  0  0  0  0  0  0  0
    5.1400    0.7980   20.2100 C   0  0  0  0  0  0  0  0  0  0  0  0
    4.4950    1.4270   19.1620 C   0  0  0  0  0  0  0  0  0  0  0  0
    5.1360    1.3760   17.8290 C   0  0  0  0  0  0  0  0  0  0  0  0
    6.2940    0.7330   17.6240 N   0  0  0  0  0  0  0  0  0  0  0  0
    6.8410    0.1530   18.7000 C   0  0  0  0  0  0  0  0  0  0  0  0
  1  2  2  0
  2  3  1  0
  3  4  1  0
  5  4  1  0
  5  6  1  0
  6  7  1  0
  6  8  1  0
  7  8  1  0
  5  9  1  0
  9 10  1  0
  5 11  1  0
 10 11  1  0
  2 12  1  0
 12 13  1  0
 13 14  2  0
 14 15  1  0
 15 16  2  0
 16 17  1  0
 13 18  1  0
 17 18  2  0
M  END
