pyridine_urea_8539
     RDKit          3D

 22 24  0  0  0  0  0  0  0  0999 V2000
    8.6730    1.4230   21.0810 O   0  0  0  0  0  0  0  0  0  0  0  0
    8.4610    0.2340   21.3200 C   0  0  0  0  0  0  0  0  0  0  0  0
    9.3880   -0.6400   21.7980 N   0  0  0  0  0  0  0  0  0  0  0  0
   10.3780   -0.1840   22.7130 C   0  0  0  0  0  0  0  0  0  0  0  0
   11.5480   -0.9290   22.7760 C   0  0  0  0  0  0  0  0  0  0  0  0
   11.5070   -2.1870   22.6430 C   0  0  0  0  0  0  0  0  0  0  0  0
   12.5540   -1.3390   22.8590 C   0  0  0  0  0  0  0  0  0  0  0  0
   11.3380   -0.1440   22.8360 C   0  0  0  0  0  0  0  0  0  0  0  0
   10.8860    1.2090   22.9130 C   0  0  0  0  0  0  0  0  0  0  0  0
    9.4570    1.6520   23.1940 C   0  0  0  0  0  0  0  0  0  0  0  0
    9.4420    3.0200   23.1790 C   0  0  0  0  0  0  0  0  0  0  0  0
   10.7510    3.3950   22.9140 N   0  0  0  0  0  0  0  0  0  0  0  0
   11.6650    2.3290   22.7460 N   0  0  0  0  0  0  0  0  0  0  0  0
   12.4620    0.4970   23.0350 C   0  0  0  0  0  0  0  0  0  0  0  0
   13.1220   -0.5440   23.0050 C   0  0  0  0  0  0  0  0  0  0  0  0
    7.2460   -0.3320   21.0580 N   0  0  0  0  0  0  0  0  0  0  0  0
    6.6040    0.1160   19.9750 C   0  0  0  0  0  0  0  0  0  0  0  0
    5.5150    0.8100   20.4510 C   0  0  0  0  0  0  0  0  0  0  0  0
    4.7410    1.3770   19.4650 C   0  0  0  0  0  0  0  0  0  0  0  0
    5.0740    1.2310   18.1210 C   0  0  0  0  0  0  0  0  0  0  0  0
    6.1480    0.5330   17.6720 N   0  0  0  0  0  0  0  0  0  0  0  0
    6.8910   -0.0140   18.6520 C   0  0  0  0  0  0  0  0  0  0  0  0
  1  2  2  0
  2  3  1  0
  3  4  1  0
  4  5  1  0
  5  6  2  0
  6  7  1  0
  7  8  2  0
  8  9  1  0
  9 10  1  0
 10 11  2  0
 11 12  1  0
  9 13  2  0
 12 13  1  0
  8 14  1  0
  5 15  1  0
 14 15  2  0
  2 16  1  0
 16 17  1  0
 17 18  2  0
 18 19  1  0
 19 20  2  0
 20 21  1  0
 17 22  1  0
 21 22  2  0
M  END
