pyridine_urea_12023
     RDKit          3D

 23 24  0  0  0  0  0  0  0  0999 V2000
    8.9610    1.1880   21.2370 O   0  0  0  0  0  0  0  0  0  0  0  0
    8.3410    0.2000   21.6560 C   0  0  0  0  0  0  0  0  0  0  0  0
    8.5580   -0.4470   22.8580 N   0  0  0  0  0  0  0  0  0  0  0  0
    9.0640    0.1070   24.0720 C   0  0  0  0  0  0  0  0  0  0  0  0
   10.2980    0.7090   23.9640 C   0  0  0  0  0  0  0  0  0  0  0  0
   11.6570    0.9730   23.6460 C   0  0  0  0  0  0  0  0  0  0  0  0
   12.5570    0.1920   22.9620 C   0  0  0  0  0  0  0  0  0  0  0  0
   13.7700    0.6870   22.7940 F   0  0  0  0  0  0  0  0  0  0  0  0
   12.2520   -1.0250   22.4670 C   0  0  0  0  0  0  0  0  0  0  0  0
   12.9900   -1.9300   21.7720 C   0  0  0  0  0  0  0  0  0  0  0  0
   12.1850   -2.6980   21.0410 F   0  0  0  0  0  0  0  0  0  0  0  0
   13.8220   -1.3550   20.9070 F   0  0  0  0  0  0  0  0  0  0  0  0
   13.6170   -2.7610   22.6250 F   0  0  0  0  0  0  0  0  0  0  0  0
   10.8810   -1.4710   22.7160 C   0  0  0  0  0  0  0  0  0  0  0  0
   10.0720   -0.5950   23.4150 C   0  0  0  0  0  0  0  0  0  0  0  0
    8.8380   -1.0810   23.6120 F   0  0  0  0  0  0  0  0  0  0  0  0
    7.3040   -0.4290   21.0100 N   0  0  0  0  0  0  0  0  0  0  0  0
    6.5110    0.1820   20.0410 C   0  0  0  0  0  0  0  0  0  0  0  0
    5.3470    0.9030   20.2840 C   0  0  0  0  0  0  0  0  0  0  0  0
    4.6590    1.4800   19.2250 C   0  0  0  0  0  0  0  0  0  0  0  0
    5.1480    1.3270   17.9370 C   0  0  0  0  0  0  0  0  0  0  0  0
    6.2550    0.6330   17.6470 N   0  0  0  0  0  0  0  0  0  0  0  0
    6.9210    0.0660   18.7310 C   0  0  0  0  0  0  0  0  0  0  0  0
  1  2  2  0
  2  3  1  0
  3  4  1  0
  4  5  1  0
  5  6  2  0
  6  7  1  0
  7  8  1  0
  7  9  2  0
  9 10  1  0
 10 11  1  0
 10 12  1  0
 10 13  1  0
  9 14  1  0
  5 15  1  0
 14 15  2  0
 15 16  1  0
  2 17  1  0
 17 18  1  0
 18 19  2  0
 19 20  1  0
 20 21  2  0
 21 22  1  0
 18 23  1  0
 22 23  2  0
M  END
