pyridine_urea_3056
     RDKit          3D

 21 23  0  0  0  0  0  0  0  0999 V2000
    8.6600    0.7210   21.0630 O   0  0  0  0  0  0  0  0  0  0  0  0
    8.1630   -0.3530   21.3590 C   0  0  0  0  0  0  0  0  0  0  0  0
    8.7530   -1.2180   22.2330 N   0  0  0  0  0  0  0  0  0  0  0  0
    9.2330   -0.5610   23.4120 C   0  0  0  0  0  0  0  0  0  0  0  0
    9.6600    0.9210   23.1230 C   0  0  0  0  0  0  0  0  0  0  0  0
   11.0010    1.1090   22.9870 C   0  0  0  0  0  0  0  0  0  0  0  0
   12.1240    2.0740   22.9030 C   0  0  0  0  0  0  0  0  0  0  0  0
   13.3450    1.2940   22.7640 C   0  0  0  0  0  0  0  0  0  0  0  0
   13.3070   -0.3170   22.7120 C   0  0  0  0  0  0  0  0  0  0  0  0
   13.8460   -1.4940   22.6200 O   0  0  0  0  0  0  0  0  0  0  0  0
   12.7000   -2.6220   22.6870 C   0  0  0  0  0  0  0  0  0  0  0  0
   11.3010   -1.6910   22.8450 C   0  0  0  0  0  0  0  0  0  0  0  0
   12.4740   -1.1640   22.7580 C   0  0  0  0  0  0  0  0  0  0  0  0
   12.0330    0.1650   22.8510 C   0  0  0  0  0  0  0  0  0  0  0  0
    6.9700   -0.8060   20.8890 N   0  0  0  0  0  0  0  0  0  0  0  0
    6.2710   -0.0670   19.9700 C   0  0  0  0  0  0  0  0  0  0  0  0
    5.0640    0.6010   20.1940 C   0  0  0  0  0  0  0  0  0  0  0  0
    4.5160    1.3210   19.1350 C   0  0  0  0  0  0  0  0  0  0  0  0
    5.1780    1.3440   17.9230 C   0  0  0  0  0  0  0  0  0  0  0  0
    6.3290    0.7080   17.6820 N   0  0  0  0  0  0  0  0  0  0  0  0
    6.8400    0.0210   18.7120 C   0  0  0  0  0  0  0  0  0  0  0  0
  1  2  2  0
  2  3  1  0
  3  4  1  0
  4  5  1  0
  5  6  1  0
  6  7  2  0
  7  8  1  0
  8  9  2  0
  9 10  1  0
 10 11  1  0
 11 12  2  0
  9 13  1  0
 12 13  1  0
  6 14  1  0
 13 14  2  0
  2 15  1  0
 15 16  1  0
 16 17  2  0
 17 18  1  0
 18 19  2  0
 19 20  1  0
 16 21  1  0
 20 21  2  0
M  END
