pyridine_urea_10115
     RDKit          3D

 24 26  0  0  0  0  0  0  0  0999 V2000
    8.9030    0.8710   21.3270 O   0  0  0  0  0  0  0  0  0  0  0  0
    8.4810   -0.2390   21.6040 C   0  0  0  0  0  0  0  0  0  0  0  0
    9.1840   -1.0610   22.4340 N   0  0  0  0  0  0  0  0  0  0  0  0
   10.5190   -0.7180   22.5960 C   0  0  0  0  0  0  0  0  0  0  0  0
   10.8860    0.5590   22.9770 C   0  0  0  0  0  0  0  0  0  0  0  0
   12.2250    0.8780   23.1040 C   0  0  0  0  0  0  0  0  0  0  0  0
   13.1420   -0.0950   22.8500 C   0  0  0  0  0  0  0  0  0  0  0  0
   12.8390   -1.3560   22.4810 N   0  0  0  0  0  0  0  0  0  0  0  0
   11.5300   -1.6340   22.3610 C   0  0  0  0  0  0  0  0  0  0  0  0
    7.3030   -0.7420   21.1140 N   0  0  0  0  0  0  0  0  0  0  0  0
    6.6080   -0.1040   20.0850 C   0  0  0  0  0  0  0  0  0  0  0  0
    5.6720   -0.7950   19.3220 C   0  0  0  0  0  0  0  0  0  0  0  0
    4.9800   -0.1640   18.2770 C   0  0  0  0  0  0  0  0  0  0  0  0
    5.1890    1.1280   17.9830 C   0  0  0  0  0  0  0  0  0  0  0  0
    6.0890    1.7450   18.7490 N   0  0  0  0  0  0  0  0  0  0  0  0
    6.7950    1.2200   19.7540 C   0  0  0  0  0  0  0  0  0  0  0  0
    7.6060    1.8870   20.3970 O   0  0  0  0  0  0  0  0  0  0  0  0
    7.2180    2.5650   21.5350 C   0  0  0  0  0  0  0  0  0  0  0  0
    5.8200    2.5820   21.7060 C   0  0  0  0  0  0  0  0  0  0  0  0
    4.9710    3.0190   20.6790 C   0  0  0  0  0  0  0  0  0  0  0  0
    3.5910    3.0390   20.8490 C   0  0  0  0  0  0  0  0  0  0  0  0
    3.0520    2.6170   22.0580 C   0  0  0  0  0  0  0  0  0  0  0  0
    3.8670    2.1790   23.0940 C   0  0  0  0  0  0  0  0  0  0  0  0
    5.2400    2.1570   22.9270 C   0  0  0  0  0  0  0  0  0  0  0  0
  1  2  2  0
  2  3  1  0
  3  4  1  0
  4  5  2  0
  5  6  1  0
  6  7  2  0
  7  8  1  0
  4  9  1  0
  8  9  2  0
  2 10  1  0
 10 11  1  0
 11 12  2  0
 12 13  1  0
 13 14  2  0
 14 15  1  0
 11 16  1  0
 15 16  2  0
 16 17  1  0
 17 18  1  0
 18 19  1  0
 19 20  2  0
 20 21  1  0
 21 22  2  0
 22 23  1  0
 19 24  1  0
 23 24  2  0
M  END
