pyridine_urea_12719
     RDKit          3D

 20 21  0  0  0  0  0  0  0  0999 V2000
   13.9120   -1.8200   22.6390 N   0  0  0  0  0  0  0  0  0  0  0  0
   13.0510   -1.1840   22.6070 C   0  0  0  0  0  0  0  0  0  0  0  0
   11.7680   -0.5110   22.5700 C   0  0  0  0  0  0  0  0  0  0  0  0
   12.2730    0.6460   23.1110 C   0  0  0  0  0  0  0  0  0  0  0  0
   11.0800    1.4180   23.1380 C   0  0  0  0  0  0  0  0  0  0  0  0
   11.4380    2.4890   23.5960 C   0  0  0  0  0  0  0  0  0  0  0  0
   12.2770    1.3440   23.3520 C   0  0  0  0  0  0  0  0  0  0  0  0
   11.0260    0.6200   22.8190 C   0  0  0  0  0  0  0  0  0  0  0  0
   10.3250   -0.4360   22.2760 C   0  0  0  0  0  0  0  0  0  0  0  0
    9.5310   -1.0330   23.1920 C   0  0  0  0  0  0  0  0  0  0  0  0
    8.2130   -0.9470   22.8040 N   0  0  0  0  0  0  0  0  0  0  0  0
    7.8790   -0.1910   21.7060 C   0  0  0  0  0  0  0  0  0  0  0  0
    8.4550    0.8280   21.3360 O   0  0  0  0  0  0  0  0  0  0  0  0
    6.8050   -0.7160   21.0480 N   0  0  0  0  0  0  0  0  0  0  0  0
    6.2800   -0.0350   19.9610 C   0  0  0  0  0  0  0  0  0  0  0  0
    5.0170    0.7440   20.1140 C   0  0  0  0  0  0  0  0  0  0  0  0
    4.4540    1.4560   19.0790 C   0  0  0  0  0  0  0  0  0  0  0  0
    5.1810    1.3850   17.8570 C   0  0  0  0  0  0  0  0  0  0  0  0
    6.3260    0.6850   17.6830 N   0  0  0  0  0  0  0  0  0  0  0  0
    6.8410    0.0000   18.7180 C   0  0  0  0  0  0  0  0  0  0  0  0
  1  2  3  0
  2  3  1  0
  3  4  2  0
  4  5  1  0
  5  6  2  0
  6  7  1  0
  3  8  1  0
  7  8  2  0
  8  9  1  0
  9 10  1  0
 10 11  1  0
 11 12  1  0
 12 13  2  0
 12 14  1  0
 14 15  1  0
 15 16  2  0
 16 17  1  0
 17 18  2  0
 18 19  1  0
 15 20  1  0
 19 20  2  0
M  END
