pyridine_urea_9022
     RDKit          3D

 19 20  0  0  0  0  0  0  0  0999 V2000
   11.2240   -2.2870   21.5730 C   0  0  0  0  0  0  0  0  0  0  0  0
   10.9350   -0.9230   21.5520 O   0  0  0  0  0  0  0  0  0  0  0  0
   11.1290   -0.3400   22.7160 C   0  0  0  0  0  0  0  0  0  0  0  0
    9.9780   -0.8530   23.5850 C   0  0  0  0  0  0  0  0  0  0  0  0
    8.8740   -1.1900   22.6750 N   0  0  0  0  0  0  0  0  0  0  0  0
    8.3800   -0.2940   21.7300 C   0  0  0  0  0  0  0  0  0  0  0  0
    8.8870    0.7770   21.4250 O   0  0  0  0  0  0  0  0  0  0  0  0
    7.1960   -0.6990   21.1300 N   0  0  0  0  0  0  0  0  0  0  0  0
    6.5270   -0.0390   20.0800 C   0  0  0  0  0  0  0  0  0  0  0  0
    5.3720    0.7020   20.3730 C   0  0  0  0  0  0  0  0  0  0  0  0
    4.7000    1.3690   19.3480 C   0  0  0  0  0  0  0  0  0  0  0  0
    5.2120    1.2690   18.0630 C   0  0  0  0  0  0  0  0  0  0  0  0
    6.3100    0.5650   17.7540 N   0  0  0  0  0  0  0  0  0  0  0  0
    6.9430   -0.0750   18.7620 C   0  0  0  0  0  0  0  0  0  0  0  0
   12.4580   -0.6410   23.0520 C   0  0  0  0  0  0  0  0  0  0  0  0
   12.4370   -0.3440   24.4100 C   0  0  0  0  0  0  0  0  0  0  0  0
   12.5040    0.8570   24.5630 O   0  0  0  0  0  0  0  0  0  0  0  0
   11.4650    1.5710   23.9110 C   0  0  0  0  0  0  0  0  0  0  0  0
   11.2700    1.0360   22.7010 C   0  0  0  0  0  0  0  0  0  0  0  0
  1  2  1  0
  3  2  1  0
  3  4  1  0
  4  5  1  0
  5  6  1  0
  6  7  2  0
  6  8  1  0
  8  9  1  0
  9 10  2  0
 10 11  1  0
 11 12  2  0
 12 13  1  0
  9 14  1  0
 13 14  2  0
  3 15  1  0
 15 16  1  0
 16 17  1  0
 17 18  1  0
  3 19  1  0
 18 19  1  0
M  END
