pyridine_urea_5363
     RDKit          3D

 19 21  0  0  0  0  0  0  0  0999 V2000
    8.7640    0.9330   21.3960 O   0  0  0  0  0  0  0  0  0  0  0  0
    8.4380   -0.2460   21.4070 C   0  0  0  0  0  0  0  0  0  0  0  0
    7.1420   -0.6560   21.1610 N   0  0  0  0  0  0  0  0  0  0  0  0
    6.4530    0.0220   20.0810 C   0  0  0  0  0  0  0  0  0  0  0  0
    5.1330    0.8070   20.3730 C   0  0  0  0  0  0  0  0  0  0  0  0
    4.5280    1.4500   19.3010 C   0  0  0  0  0  0  0  0  0  0  0  0
    5.2160    1.3290   17.9360 C   0  0  0  0  0  0  0  0  0  0  0  0
    6.3560    0.6320   17.7410 N   0  0  0  0  0  0  0  0  0  0  0  0
    6.9340    0.0070   18.7870 C   0  0  0  0  0  0  0  0  0  0  0  0
    9.2610   -1.3150   21.6310 N   0  0  0  0  0  0  0  0  0  0  0  0
   10.1950   -1.3250   22.7610 C   0  0  1  0  0  0  0  0  0  0  0  0
   11.6080   -1.4200   22.2080 C   0  0  0  0  0  0  0  0  0  0  0  0
   12.4350   -1.8660   23.3960 C   0  0  0  0  0  0  0  0  0  0  0  0
   11.7930   -1.6410   24.4070 O   0  0  0  0  0  0  0  0  0  0  0  0
   11.1880   -0.3470   24.4430 C   0  0  1  0  0  0  0  0  0  0  0  0
   12.2300    0.6200   23.9420 C   0  0  0  0  0  0  0  0  0  0  0  0
   11.8240    1.2890   22.8260 C   0  0  0  0  0  0  0  0  0  0  0  0
   13.0610    0.5790   22.5690 C   0  0  0  0  0  0  0  0  0  0  0  0
   10.0140   -0.3140   23.7020 C   0  0  0  0  0  0  0  0  0  0  0  0
  1  2  2  0
  2  3  1  0
  3  4  1  0
  4  5  2  0
  5  6  1  0
  6  7  2  0
  7  8  1  0
  4  9  1  0
  8  9  2  0
  2 10  1  0
 11 10  1  6
 11 12  1  0
 12 13  1  0
 13 14  1  0
 14 15  1  0
 15 16  1  6
 16 17  1  0
 16 18  1  0
 17 18  1  0
 11 19  1  0
 15 19  1  0
M  END
