pyridine_urea_8831
     RDKit          3D

 20 21  0  0  0  0  0  0  0  0999 V2000
    8.8860    1.1250   21.1350 O   0  0  0  0  0  0  0  0  0  0  0  0
    8.2250    0.1580   21.5410 C   0  0  0  0  0  0  0  0  0  0  0  0
    8.4580   -0.4330   22.7350 N   0  0  0  0  0  0  0  0  0  0  0  0
    8.8830    0.4230   23.8170 C   0  0  0  0  0  0  0  0  0  0  0  0
   10.2760    0.9100   23.4970 C   0  0  0  0  0  0  0  0  0  0  0  0
   10.2530   -0.4810   23.7390 C   0  0  0  0  0  0  0  0  0  0  0  0
    8.8580   -1.4260   24.1590 Cl  0  0  0  0  0  0  0  0  0  0  0  0
   11.3460   -1.1270   23.6530 C   0  0  0  0  0  0  0  0  0  0  0  0
   12.5790   -1.0840   23.4300 C   0  0  0  0  0  0  0  0  0  0  0  0
   13.5850   -2.6230   23.5180 Br  0  0  0  0  0  0  0  0  0  0  0  0
   12.8520    0.2080   23.1690 C   0  0  0  0  0  0  0  0  0  0  0  0
   11.7340    1.1170   23.2120 C   0  0  0  0  0  0  0  0  0  0  0  0
   12.1680    2.7450   22.8540 Cl  0  0  0  0  0  0  0  0  0  0  0  0
    7.1760   -0.4560   20.9290 N   0  0  0  0  0  0  0  0  0  0  0  0
    6.4720    0.1560   19.9380 C   0  0  0  0  0  0  0  0  0  0  0  0
    5.3000    0.8430   20.2670 C   0  0  0  0  0  0  0  0  0  0  0  0
    4.5940    1.4900   19.2500 C   0  0  0  0  0  0  0  0  0  0  0  0
    5.1460    1.4020   17.8690 C   0  0  0  0  0  0  0  0  0  0  0  0
    6.2640    0.7220   17.6050 N   0  0  0  0  0  0  0  0  0  0  0  0
    6.8880    0.1260   18.6330 C   0  0  0  0  0  0  0  0  0  0  0  0
  1  2  2  0
  2  3  1  0
  3  4  1  0
  4  5  1  0
  5  6  2  0
  6  7  1  0
  6  8  1  0
  8  9  2  0
  9 10  1  0
  9 11  1  0
  5 12  1  0
 11 12  2  0
 12 13  1  0
  2 14  1  0
 14 15  1  0
 15 16  2  0
 16 17  1  0
 17 18  2  0
 18 19  1  0
 15 20  1  0
 19 20  2  0
M  END
