pyridine_urea_11613
     RDKit          3D

 22 24  0  0  0  0  0  0  0  0999 V2000
    6.0250    4.6010   22.6350 C   0  0  0  0  0  0  0  0  0  0  0  0
    5.4920    3.8010   21.4820 C   0  0  0  0  0  0  0  0  0  0  0  0
    6.0950    2.7540   20.8270 C   0  0  0  0  0  0  0  0  0  0  0  0
    5.3900    2.2000   19.7890 C   0  0  0  0  0  0  0  0  0  0  0  0
    5.5990    1.1670   18.8840 N   0  0  0  0  0  0  0  0  0  0  0  0
    4.7400    0.1210   18.9570 C   0  0  0  0  0  0  0  0  0  0  0  0
    5.4790   -0.7010   19.7900 C   0  0  0  0  0  0  0  0  0  0  0  0
    6.8220   -0.5190   19.4780 C   0  0  2  0  0  0  0  0  0  0  0  0
    7.8310   -0.8570   20.3890 N   0  0  0  0  0  0  0  0  0  0  0  0
    8.5450    0.0320   21.3290 C   0  0  0  0  0  0  0  0  0  0  0  0
    8.6950    1.2510   21.1950 O   0  0  0  0  0  0  0  0  0  0  0  0
    9.0880   -0.6980   22.3360 N   0  0  0  0  0  0  0  0  0  0  0  0
   10.4140   -0.4560   22.5130 C   0  0  0  0  0  0  0  0  0  0  0  0
   11.4490   -1.3820   22.3570 C   0  0  0  0  0  0  0  0  0  0  0  0
   12.7630   -0.9710   22.5620 C   0  0  0  0  0  0  0  0  0  0  0  0
   13.0060    0.3420   22.9120 C   0  0  0  0  0  0  0  0  0  0  0  0
   12.0440    1.2520   23.0690 N   0  0  0  0  0  0  0  0  0  0  0  0
   10.7770    0.8320   22.8710 C   0  0  0  0  0  0  0  0  0  0  0  0
    6.9620    0.7710   18.9520 C   0  0  0  0  0  0  0  0  0  0  0  0
    4.2980    2.9340   19.8170 N   0  0  0  0  0  0  0  0  0  0  0  0
    3.1080    2.9640   19.0680 C   0  0  0  0  0  0  0  0  0  0  0  0
    4.2960    3.8860   20.7810 N   0  0  0  0  0  0  0  0  0  0  0  0
  1  2  1  0
  2  3  1  0
  3  4  2  0
  4  5  1  0
  5  6  1  0
  6  7  1  0
  7  8  1  0
  8  9  1  1
  9 10  1  0
 10 11  2  0
 10 12  1  0
 12 13  1  0
 13 14  2  0
 14 15  1  0
 15 16  2  0
 16 17  1  0
 13 18  1  0
 17 18  2  0
  5 19  1  0
  8 19  1  0
  4 20  1  0
 20 21  1  0
  2 22  2  0
 20 22  1  0
M  END
