pyridine_urea_1083
     RDKit          3D

 21 22  0  0  0  0  0  0  0  0999 V2000
    4.9300   -1.2520   21.8200 C   0  0  0  0  0  0  0  0  0  0  0  0
    5.6040   -1.7740   20.5760 C   0  0  0  0  0  0  0  0  0  0  0  0
    5.5950   -1.0200   19.3770 C   0  0  0  0  0  0  0  0  0  0  0  0
    5.9480    0.3620   19.2890 C   0  0  0  0  0  0  0  0  0  0  0  0
    5.2960    1.0300   18.2400 C   0  0  0  0  0  0  0  0  0  0  0  0
    6.3260    0.4780   17.6160 N   0  0  0  0  0  0  0  0  0  0  0  0
    6.9610   -0.0510   18.6770 C   0  0  0  0  0  0  0  0  0  0  0  0
    6.3310    0.1520   20.1030 C   0  0  0  0  0  0  0  0  0  0  0  0
    7.1680   -0.4630   21.1410 N   0  0  0  0  0  0  0  0  0  0  0  0
    8.3720    0.1240   21.4650 C   0  0  0  0  0  0  0  0  0  0  0  0
    8.7830    1.2310   21.0820 O   0  0  0  0  0  0  0  0  0  0  0  0
    9.1520   -0.6590   22.2880 N   0  0  0  0  0  0  0  0  0  0  0  0
   10.4870   -0.3170   22.4980 C   0  0  0  0  0  0  0  0  0  0  0  0
   11.4940   -1.2730   22.3820 C   0  0  0  0  0  0  0  0  0  0  0  0
   12.8180   -0.8890   22.5790 C   0  0  0  0  0  0  0  0  0  0  0  0
   13.0730    0.4320   22.8790 C   0  0  0  0  0  0  0  0  0  0  0  0
   12.1330    1.3700   22.9960 N   0  0  0  0  0  0  0  0  0  0  0  0
   10.8580    0.9710   22.8090 C   0  0  0  0  0  0  0  0  0  0  0  0
    5.0730    0.8440   20.4950 C   0  0  0  0  0  0  0  0  0  0  0  0
    3.8730    1.5380   20.6070 C   0  0  0  0  0  0  0  0  0  0  0  0
    4.6320    1.2830   19.2780 N   0  0  0  0  0  0  0  0  0  0  0  0
  1  2  1  0
  2  3  1  0
  3  4  1  0
  4  5  1  0
  5  6  2  0
  6  7  1  0
  7  8  2  0
  8  9  1  0
  9 10  1  0
 10 11  2  0
 10 12  1  0
 12 13  1  0
 13 14  2  0
 14 15  1  0
 15 16  2  0
 16 17  1  0
 13 18  1  0
 17 18  2  0
  8 19  1  0
 19 20  1  0
  5 21  1  0
 19 21  2  0
M  END
