pyridine_urea_7727
     RDKit          3D

 18 19  0  0  0  0  0  0  0  0999 V2000
    8.0890   -2.2050   24.3520 C   0  0  0  0  0  0  0  0  0  0  0  0
    9.2900   -2.4480   23.4500 C   0  0  0  0  0  0  0  0  0  0  0  0
    8.8730   -3.2540   22.4500 F   0  0  0  0  0  0  0  0  0  0  0  0
   10.2670   -3.1230   24.1090 F   0  0  0  0  0  0  0  0  0  0  0  0
    9.8420   -1.2740   22.9430 C   0  0  0  0  0  0  0  0  0  0  0  0
    9.0520   -0.2130   22.7300 N   0  0  0  0  0  0  0  0  0  0  0  0
    8.4780    0.2720   21.5810 C   0  0  0  0  0  0  0  0  0  0  0  0
    8.8670    1.3320   21.0850 O   0  0  0  0  0  0  0  0  0  0  0  0
    7.3870   -0.5990   21.1040 N   0  0  0  0  0  0  0  0  0  0  0  0
    6.6280    0.0560   20.0960 C   0  0  0  0  0  0  0  0  0  0  0  0
    5.4990    0.7910   20.4780 C   0  0  0  0  0  0  0  0  0  0  0  0
    4.7860    1.4250   19.4790 C   0  0  0  0  0  0  0  0  0  0  0  0
    5.2320    1.3100   18.0480 C   0  0  0  0  0  0  0  0  0  0  0  0
    6.3090    0.5960   17.7100 N   0  0  0  0  0  0  0  0  0  0  0  0
    6.9810   -0.0130   18.7360 C   0  0  0  0  0  0  0  0  0  0  0  0
   10.6890   -1.5000   21.8320 C   0  0  0  0  0  0  0  0  0  0  0  0
   11.7380   -1.3040   22.5340 C   0  0  0  0  0  0  0  0  0  0  0  0
   11.0820   -0.9130   23.7430 C   0  0  0  0  0  0  0  0  0  0  0  0
  1  2  1  0
  2  3  1  0
  2  4  1  0
  2  5  1  0
  5  6  1  0
  6  7  1  0
  7  8  2  0
  7  9  1  0
  9 10  1  0
 10 11  2  0
 11 12  1  0
 12 13  2  0
 13 14  1  0
 10 15  1  0
 14 15  2  0
  5 16  1  0
 16 17  1  0
  5 18  1  0
 17 18  1  0
M  END
