pyridine_urea_12279
     RDKit          3D

 22 24  0  0  0  0  0  0  0  0999 V2000
   11.7100   -2.3440   21.6690 C   0  0  0  0  0  0  0  0  0  0  0  0
   10.4760   -2.4810   22.2980 N   0  0  0  0  0  0  0  0  0  0  0  0
   10.5560   -2.2890   23.6630 C   0  0  0  0  0  0  0  0  0  0  0  0
   10.9960   -0.8000   23.4540 C   0  0  0  0  0  0  0  0  0  0  0  0
   12.1350   -0.4360   23.5010 C   0  0  0  0  0  0  0  0  0  0  0  0
   13.2650   -1.1710   23.7160 C   0  0  0  0  0  0  0  0  0  0  0  0
   13.1000    0.2060   23.4720 C   0  0  0  0  0  0  0  0  0  0  0  0
   11.7240    0.9910   23.2310 C   0  0  0  0  0  0  0  0  0  0  0  0
   10.2140    0.4610   23.1340 C   0  0  0  0  0  0  0  0  0  0  0  0
    9.2930   -0.6950   23.1500 C   0  0  1  0  0  0  0  0  0  0  0  0
    8.0270   -0.2850   22.9320 N   0  0  0  0  0  0  0  0  0  0  0  0
    7.8240    0.2940   21.7120 C   0  0  0  0  0  0  0  0  0  0  0  0
    8.5810    1.4140   21.1800 O   0  0  0  0  0  0  0  0  0  0  0  0
    6.8210   -0.3650   21.0560 N   0  0  0  0  0  0  0  0  0  0  0  0
    6.2790    0.2090   19.9390 C   0  0  0  0  0  0  0  0  0  0  0  0
    4.9930    0.9860   20.0930 C   0  0  0  0  0  0  0  0  0  0  0  0
    4.4730    1.5810   18.9630 C   0  0  0  0  0  0  0  0  0  0  0  0
    5.1720    1.4190   17.7740 C   0  0  0  0  0  0  0  0  0  0  0  0
    6.3090    0.7300   17.5960 N   0  0  0  0  0  0  0  0  0  0  0  0
    6.8180    0.1500   18.6860 C   0  0  0  0  0  0  0  0  0  0  0  0
    9.5330   -1.5160   22.0070 C   0  0  0  0  0  0  0  0  0  0  0  0
    8.9460   -1.3560   20.9480 O   0  0  0  0  0  0  0  0  0  0  0  0
  1  2  1  0
  2  3  1  0
  3  4  1  0
  4  5  1  0
  5  6  2  0
  6  7  1  0
  7  8  2  0
  4  9  2  0
  8  9  1  0
  9 10  1  0
 10 11  1  6
 11 12  1  0
 12 13  2  0
 12 14  1  0
 14 15  1  0
 15 16  2  0
 16 17  1  0
 17 18  2  0
 18 19  1  0
 15 20  1  0
 19 20  2  0
  2 21  1  0
 10 21  1  0
 21 22  2  0
M  END
