pyridine_urea_5935
     RDKit          3D

 27 29  0  0  0  0  0  0  0  0999 V2000
    8.4650    0.7230   21.1180 O   0  0  0  0  0  0  0  0  0  0  0  0
    8.1450   -0.3930   21.4960 C   0  0  0  0  0  0  0  0  0  0  0  0
    6.8950   -0.9530   21.0430 N   0  0  0  0  0  0  0  0  0  0  0  0
    6.3060   -0.1930   20.0390 C   0  0  0  0  0  0  0  0  0  0  0  0
    5.1210    0.5120   20.2710 C   0  0  0  0  0  0  0  0  0  0  0  0
    4.5710    1.2650   19.2280 C   0  0  0  0  0  0  0  0  0  0  0  0
    5.2260    1.2930   17.9910 C   0  0  0  0  0  0  0  0  0  0  0  0
    6.3660    0.6200   17.7620 N   0  0  0  0  0  0  0  0  0  0  0  0
    6.8810   -0.1090   18.7850 C   0  0  0  0  0  0  0  0  0  0  0  0
    8.8990   -1.1740   22.3380 N   0  0  0  0  0  0  0  0  0  0  0  0
   10.1410   -0.4910   22.5420 C   0  0  0  0  0  0  0  0  0  0  0  0
   11.4240   -1.2890   22.4220 C   0  0  0  0  0  0  0  0  0  0  0  0
   12.5920   -0.5860   22.5810 C   0  0  0  0  0  0  0  0  0  0  0  0
   12.5390    0.7870   22.8340 C   0  0  0  0  0  0  0  0  0  0  0  0
   13.6730    1.3930   22.9390 F   0  0  0  0  0  0  0  0  0  0  0  0
   11.3630    1.5320   22.9620 C   0  0  0  0  0  0  0  0  0  0  0  0
   11.4050    2.9450   23.2210 N   0  0  0  0  0  0  0  0  0  0  0  0
   10.4130    3.7720   23.8450 C   0  0  0  0  0  0  0  0  0  0  0  0
   10.2100    3.8210   25.0490 O   0  0  0  0  0  0  0  0  0  0  0  0
    9.5650    4.6340   23.1660 C   0  0  0  0  0  0  0  0  0  0  0  0
    8.4050    4.1980   22.5300 C   0  0  0  0  0  0  0  0  0  0  0  0
    7.5550    5.0900   21.8660 C   0  0  0  0  0  0  0  0  0  0  0  0
    7.8820    6.4520   21.8400 C   0  0  0  0  0  0  0  0  0  0  0  0
    9.0470    6.9080   22.4740 C   0  0  0  0  0  0  0  0  0  0  0  0
    9.8920    6.0020   23.1410 C   0  0  0  0  0  0  0  0  0  0  0  0
   11.6000    6.7670   24.0710 I   0  0  0  0  0  0  0  0  0  0  0  0
   10.1730    0.8630   22.8150 C   0  0  0  0  0  0  0  0  0  0  0  0
  1  2  2  0
  2  3  1  0
  3  4  1  0
  4  5  2  0
  5  6  1  0
  6  7  2  0
  7  8  1  0
  4  9  1  0
  8  9  2  0
  2 10  1  0
 10 11  1  0
 11 12  2  0
 12 13  1  0
 13 14  2  0
 14 15  1  0
 14 16  1  0
 16 17  1  0
 17 18  1  0
 18 19  2  0
 18 20  1  0
 20 21  2  0
 21 22  1  0
 22 23  2  0
 23 24  1  0
 20 25  1  0
 24 25  2  0
 25 26  1  0
 11 27  1  0
 16 27  2  0
M  END
