pyridine_urea_551
     RDKit          3D

 24 26  0  0  0  0  0  0  0  0999 V2000
   12.5760   -0.0910   24.5810 C   0  0  0  0  0  0  0  0  0  0  0  0
   11.1930   -0.5650   24.9300 C   0  0  0  0  0  0  0  0  0  0  0  0
   10.3550   -0.3950   23.9090 C   0  0  0  0  0  0  0  0  0  0  0  0
    9.6600   -0.5460   22.7760 C   0  0  0  0  0  0  0  0  0  0  0  0
    8.7460    0.4920   22.5210 N   0  0  0  0  0  0  0  0  0  0  0  0
    8.1430    0.6000   21.3260 C   0  0  0  0  0  0  0  0  0  0  0  0
    8.4380    1.5470   20.6250 O   0  0  0  0  0  0  0  0  0  0  0  0
    7.2340   -0.3350   21.0090 N   0  0  0  0  0  0  0  0  0  0  0  0
    6.5410    0.1780   20.0000 C   0  0  0  0  0  0  0  0  0  0  0  0
    5.2620    1.0080   20.2560 C   0  0  0  0  0  0  0  0  0  0  0  0
    4.6130    1.5470   19.1570 C   0  0  0  0  0  0  0  0  0  0  0  0
    5.1200    1.3280   17.8900 C   0  0  0  0  0  0  0  0  0  0  0  0
    6.2320    0.5850   17.6570 N   0  0  0  0  0  0  0  0  0  0  0  0
    6.9470    0.0070   18.7000 C   0  0  0  0  0  0  0  0  0  0  0  0
    9.7890   -1.6670   21.8630 C   0  0  0  0  0  0  0  0  0  0  0  0
   10.6490   -2.4190   22.4130 N   0  0  0  0  0  0  0  0  0  0  0  0
   10.9310   -1.6920   23.5550 N   0  0  0  0  0  0  0  0  0  0  0  0
   11.8010   -2.3230   24.3740 C   0  0  0  0  0  0  0  0  0  0  0  0
   13.1570   -2.0330   24.4770 C   0  0  0  0  0  0  0  0  0  0  0  0
   13.9200   -2.7340   25.3780 C   0  0  0  0  0  0  0  0  0  0  0  0
   13.3530   -3.7150   26.1520 C   0  0  0  0  0  0  0  0  0  0  0  0
   12.0050   -4.0010   26.0380 C   0  0  0  0  0  0  0  0  0  0  0  0
   11.2230   -3.3160   25.1620 C   0  0  0  0  0  0  0  0  0  0  0  0
    9.5520   -3.7170   25.0900 Cl  0  0  0  0  0  0  0  0  0  0  0  0
  1  2  1  0
  2  3  1  0
  3  4  2  0
  4  5  1  0
  5  6  1  0
  6  7  2  0
  6  8  1  0
  8  9  1  0
  9 10  2  0
 10 11  1  0
 11 12  2  0
 12 13  1  0
  9 14  1  0
 13 14  2  0
  4 15  1  0
 15 16  2  0
  3 17  1  0
 16 17  1  0
 17 18  1  0
 18 19  2  0
 19 20  1  0
 20 21  2  0
 21 22  1  0
 18 23  1  0
 22 23  2  0
 23 24  1  0
M  END
