pyridine_urea_13764
     RDKit          3D

 25 27  0  0  0  0  0  0  0  0999 V2000
   11.6230    6.3870   25.8800 C   0  0  0  0  0  0  0  0  0  0  0  0
   11.7510    6.5890   24.7020 C   0  0  0  0  0  0  0  0  0  0  0  0
   12.2430    7.9240   24.4230 O   0  0  0  0  0  0  0  0  0  0  0  0
   11.3880    5.5340   23.7440 N   0  0  0  0  0  0  0  0  0  0  0  0
   10.2410    4.7070   24.0910 C   0  0  0  0  0  0  0  0  0  0  0  0
   10.3740    3.4120   23.3590 C   0  0  0  0  0  0  0  0  0  0  0  0
   11.6610    2.9250   23.2430 N   0  0  0  0  0  0  0  0  0  0  0  0
   11.5340    1.6250   22.9950 C   0  0  0  0  0  0  0  0  0  0  0  0
   12.8140    0.8310   22.9420 C   0  0  0  0  0  0  0  0  0  0  0  0
   12.7660   -0.6180   22.6680 C   0  0  0  0  0  0  0  0  0  0  0  0
   11.5950   -1.3040   22.4490 C   0  0  0  0  0  0  0  0  0  0  0  0
   10.3500   -0.3940   22.5280 C   0  0  0  0  0  0  0  0  0  0  0  0
    9.0930   -0.8490   22.3310 N   0  0  0  0  0  0  0  0  0  0  0  0
    8.3750   -0.0910   21.4400 C   0  0  0  0  0  0  0  0  0  0  0  0
    8.7850    1.2350   21.0770 O   0  0  0  0  0  0  0  0  0  0  0  0
    7.2700   -0.7310   20.9860 N   0  0  0  0  0  0  0  0  0  0  0  0
    6.5440   -0.0650   20.0480 C   0  0  0  0  0  0  0  0  0  0  0  0
    5.3840    0.6480   20.3050 C   0  0  0  0  0  0  0  0  0  0  0  0
    4.4560    1.4580   19.3750 C   0  0  0  0  0  0  0  0  0  0  0  0
    5.2340    1.2240   18.0780 C   0  0  0  0  0  0  0  0  0  0  0  0
    6.3550    0.5370   17.8120 N   0  0  0  0  0  0  0  0  0  0  0  0
    6.9820   -0.0920   18.7800 C   0  0  0  0  0  0  0  0  0  0  0  0
   10.3480    0.9730   22.7920 C   0  0  0  0  0  0  0  0  0  0  0  0
   12.5610    3.7730   22.5620 C   0  0  0  0  0  0  0  0  0  0  0  0
   12.5050    5.0530   23.0940 C   0  0  0  0  0  0  0  0  0  0  0  0
  1  2  1  0
  2  3  2  0
  2  4  1  0
  4  5  1  0
  5  6  1  0
  6  7  1  0
  7  8  1  0
  8  9  2  0
  9 10  1  0
 10 11  2  0
 11 12  1  0
 12 13  1  0
 13 14  1  0
 14 15  2  0
 14 16  1  0
 16 17  1  0
 17 18  2  0
 18 19  1  0
 19 20  2  0
 20 21  1  0
 17 22  1  0
 21 22  2  0
  8 23  1  0
 12 23  2  0
  7 24  1  0
  4 25  1  0
 24 25  1  0
M  END
