pyridine_urea_7797
     RDKit          3D

 27 29  0  0  0  0  0  0  0  0999 V2000
   12.9190   -2.8860   25.1120 C   0  0  0  0  0  0  0  0  0  0  0  0
   13.0100   -1.1080   25.3880 S   0  0  0  0  0  0  0  0  0  0  0  0
   11.2920   -0.5330   25.1710 C   0  0  0  0  0  0  0  0  0  0  0  0
   10.2840   -0.2200   26.1130 C   0  0  0  0  0  0  0  0  0  0  0  0
    8.9960    0.2220   25.7950 C   0  0  0  0  0  0  0  0  0  0  0  0
    8.7490    0.3320   24.4390 C   0  0  0  0  0  0  0  0  0  0  0  0
    9.7640    0.0080   23.5490 C   0  0  0  0  0  0  0  0  0  0  0  0
    9.7430   -0.0080   22.2230 C   0  0  2  0  0  0  0  0  0  0  0  0
    8.4960   -0.5620   21.9000 N   0  0  0  0  0  0  0  0  0  0  0  0
    7.7820    0.2930   21.2520 C   0  0  0  0  0  0  0  0  0  0  0  0
    8.2300    1.3970   20.9060 O   0  0  0  0  0  0  0  0  0  0  0  0
    6.5660   -0.2210   21.0250 N   0  0  0  0  0  0  0  0  0  0  0  0
    6.0480    0.3400   19.9270 C   0  0  0  0  0  0  0  0  0  0  0  0
    4.8830    1.0660   19.9410 C   0  0  0  0  0  0  0  0  0  0  0  0
    4.3680    1.6830   18.8370 C   0  0  0  0  0  0  0  0  0  0  0  0
    5.0710    1.5570   17.6540 C   0  0  0  0  0  0  0  0  0  0  0  0
    6.2080    0.8610   17.5040 N   0  0  0  0  0  0  0  0  0  0  0  0
    6.7080    0.2630   18.5780 C   0  0  0  0  0  0  0  0  0  0  0  0
   10.7720   -1.0670   22.0640 C   0  0  0  0  0  0  0  0  0  0  0  0
   10.9950   -2.2530   21.4880 C   0  0  0  0  0  0  0  0  0  0  0  0
   12.3180   -2.7480   21.9170 C   0  0  0  0  0  0  0  0  0  0  0  0
   13.2280   -2.0210   22.8410 C   0  0  0  0  0  0  0  0  0  0  0  0
   14.2910   -2.5830   23.2290 F   0  0  0  0  0  0  0  0  0  0  0  0
   12.7810   -0.7770   23.2040 C   0  0  0  0  0  0  0  0  0  0  0  0
   13.0820    0.3020   23.9220 F   0  0  0  0  0  0  0  0  0  0  0  0
   11.8780   -1.2120   22.5180 C   0  0  0  0  0  0  0  0  0  0  0  0
   10.9780   -0.3960   23.9180 C   0  0  0  0  0  0  0  0  0  0  0  0
  1  2  1  0
  2  3  1  0
  3  4  2  0
  4  5  1  0
  5  6  2  0
  6  7  1  0
  7  8  1  0
  8  9  1  1
  9 10  1  0
 10 11  2  0
 10 12  1  0
 12 13  1  0
 13 14  2  0
 14 15  1  0
 15 16  2  0
 16 17  1  0
 13 18  1  0
 17 18  2  0
  8 19  1  0
 19 20  2  0
 20 21  1  0
 21 22  2  0
 22 23  1  0
 22 24  1  0
 24 25  1  0
 19 26  1  0
 24 26  2  0
  3 27  1  0
  7 27  2  0
M  END
