pyridine_urea_7053
     RDKit          3D

 20 21  0  0  0  0  0  0  0  0999 V2000
   10.0300    1.0140   24.3320 C   0  0  0  0  0  0  0  0  0  0  0  0
   10.1050   -0.1790   23.4140 C   0  0  2  0  0  0  0  0  0  0  0  0
   11.0740   -0.1370   22.4440 C   0  0  0  0  0  0  0  0  0  0  0  0
   12.0430   -1.0460   22.6660 C   0  0  0  0  0  0  0  0  0  0  0  0
   12.9090   -1.9080   22.1160 C   0  0  0  0  0  0  0  0  0  0  0  0
   13.5790   -2.5220   23.3390 C   0  0  0  0  0  0  0  0  0  0  0  0
   13.2000   -2.0800   24.9070 C   0  0  0  0  0  0  0  0  0  0  0  0
   12.2410   -1.1330   24.7790 C   0  0  0  0  0  0  0  0  0  0  0  0
   12.6220   -1.5700   23.6290 C   0  0  0  0  0  0  0  0  0  0  0  0
   13.4590   -2.3220   25.1430 Br  0  0  0  0  0  0  0  0  0  0  0  0
    8.8260   -0.4380   22.7700 N   0  0  0  0  0  0  0  0  0  0  0  0
    8.3870    0.2560   21.5600 C   0  0  0  0  0  0  0  0  0  0  0  0
    8.9120    1.2980   21.1530 O   0  0  0  0  0  0  0  0  0  0  0  0
    7.3190   -0.4100   20.9890 N   0  0  0  0  0  0  0  0  0  0  0  0
    6.5100    0.1900   20.0280 C   0  0  0  0  0  0  0  0  0  0  0  0
    5.2580    0.9440   20.2990 C   0  0  0  0  0  0  0  0  0  0  0  0
    4.5940    1.4990   19.2070 C   0  0  0  0  0  0  0  0  0  0  0  0
    5.1340    1.3150   17.9430 C   0  0  0  0  0  0  0  0  0  0  0  0
    6.2540    0.6300   17.6760 N   0  0  0  0  0  0  0  0  0  0  0  0
    6.9090    0.0870   18.7140 C   0  0  0  0  0  0  0  0  0  0  0  0
  2  1  1  6
  2  3  1  0
  3  4  1  0
  4  5  2  0
  5  6  1  0
  6  7  2  0
  7  8  1  0
  4  9  1  0
  8  9  2  0
  9 10  1  0
  2 11  1  0
 11 12  1  0
 12 13  2  0
 12 14  1  0
 14 15  1  0
 15 16  2  0
 16 17  1  0
 17 18  2  0
 18 19  1  0
 15 20  1  0
 19 20  2  0
M  END
