pyridine_urea_11090
     RDKit          3D

 19 20  0  0  0  0  0  0  0  0999 V2000
   10.0000   -0.4610   25.6900 C   0  0  0  0  0  0  0  0  0  0  0  0
   11.0440   -0.6060   25.1120 C   0  0  0  0  0  0  0  0  0  0  0  0
   12.2580   -1.4120   25.4240 N   0  0  0  0  0  0  0  0  0  0  0  0
   13.1860   -1.2190   24.4370 N   0  0  0  0  0  0  0  0  0  0  0  0
   12.6760   -0.3690   23.4990 C   0  0  0  0  0  0  0  0  0  0  0  0
   13.3590    0.0550   22.3340 C   0  0  0  0  0  0  0  0  0  0  0  0
   11.3120    0.0140   23.9030 C   0  0  0  0  0  0  0  0  0  0  0  0
   10.6230    0.8690   22.9430 C   0  0  0  0  0  0  0  0  0  0  0  0
   10.0990   -0.2700   22.1600 C   0  0  0  0  0  0  0  0  0  0  0  0
    8.7790   -0.4440   22.2920 N   0  0  0  0  0  0  0  0  0  0  0  0
    7.9770    0.2040   21.3920 C   0  0  0  0  0  0  0  0  0  0  0  0
    8.3460    1.4900   20.8980 O   0  0  0  0  0  0  0  0  0  0  0  0
    6.8930   -0.5130   21.0570 N   0  0  0  0  0  0  0  0  0  0  0  0
    6.2940    0.0940   20.0370 C   0  0  0  0  0  0  0  0  0  0  0  0
    5.0990    0.7930   20.1930 C   0  0  0  0  0  0  0  0  0  0  0  0
    4.5700    1.4100   19.0710 C   0  0  0  0  0  0  0  0  0  0  0  0
    5.1860    1.3430   17.8570 C   0  0  0  0  0  0  0  0  0  0  0  0
    6.3260    0.6750   17.6780 N   0  0  0  0  0  0  0  0  0  0  0  0
    6.8510    0.0670   18.7630 C   0  0  0  0  0  0  0  0  0  0  0  0
  1  2  1  0
  2  3  2  0
  3  4  1  0
  4  5  1  0
  5  6  1  0
  2  7  1  0
  5  7  2  0
  7  8  1  0
  8  9  1  0
  9 10  1  0
 10 11  1  0
 11 12  2  0
 11 13  1  0
 13 14  1  0
 14 15  2  0
 15 16  1  0
 16 17  2  0
 17 18  1  0
 14 19  1  0
 18 19  2  0
M  END
