pyridine_urea_3700
     RDKit          3D

 21 22  0  0  0  0  0  0  0  0999 V2000
    9.0580    0.8040   21.3910 O   0  0  0  0  0  0  0  0  0  0  0  0
    8.5710   -0.2860   21.6300 C   0  0  0  0  0  0  0  0  0  0  0  0
    9.1700   -1.2350   22.4590 N   0  0  0  0  0  0  0  0  0  0  0  0
   10.6120   -1.1920   22.7500 C   0  0  0  0  0  0  0  0  0  0  0  0
   11.1350    0.2310   22.9810 C   0  0  0  0  0  0  0  0  0  0  0  0
   12.3880   -0.5710   22.6630 C   0  0  0  0  0  0  0  0  0  0  0  0
   12.6340    0.7030   22.9040 C   0  0  0  0  0  0  0  0  0  0  0  0
   11.0430    0.9670   23.1820 C   0  0  0  0  0  0  0  0  0  0  0  0
   11.0480    2.1300   23.4170 N   0  0  0  0  0  0  0  0  0  0  0  0
   12.2500    1.5930   23.1110 C   0  0  0  0  0  0  0  0  0  0  0  0
   12.5940    2.7640   23.3050 O   0  0  0  0  0  0  0  0  0  0  0  0
   11.9180    3.7680   22.5460 C   0  0  0  0  0  0  0  0  0  0  0  0
   11.1850    4.5000   23.4360 F   0  0  0  0  0  0  0  0  0  0  0  0
   12.8410    4.6360   22.0500 F   0  0  0  0  0  0  0  0  0  0  0  0
    7.3370   -0.6830   21.1080 N   0  0  0  0  0  0  0  0  0  0  0  0
    6.6580   -0.0740   20.0890 C   0  0  0  0  0  0  0  0  0  0  0  0
    5.5480    0.6980   20.4250 C   0  0  0  0  0  0  0  0  0  0  0  0
    4.8010    1.3610   19.4720 C   0  0  0  0  0  0  0  0  0  0  0  0
    5.1720    1.2500   18.1560 C   0  0  0  0  0  0  0  0  0  0  0  0
    6.2460    0.5040   17.7600 N   0  0  0  0  0  0  0  0  0  0  0  0
    7.0540   -0.2120   18.7550 C   0  0  0  0  0  0  0  0  0  0  0  0
  1  2  2  0
  2  3  1  0
  3  4  1  0
  4  5  1  0
  5  6  2  0
  6  7  1  0
  7  8  2  0
  8  9  1  0
  5 10  1  0
  9 10  2  0
 10 11  1  0
 11 12  1  0
 12 13  1  0
 12 14  1  0
  2 15  1  0
 15 16  1  0
 16 17  2  0
 17 18  1  0
 18 19  2  0
 19 20  1  0
 16 21  1  0
 20 21  2  0
M  END
