pyridine_urea_7163
     RDKit          3D

 19 19  0  0  0  0  0  0  0  0999 V2000
   12.8930    0.5780   22.9100 C   0  0  0  0  0  0  0  0  0  0  0  0
   12.5990   -0.8010   22.3250 C   0  0  0  0  0  0  0  0  0  0  0  0
   11.2680   -1.1080   21.9850 C   0  0  0  0  0  0  0  0  0  0  0  0
   10.4010   -1.5670   22.9260 C   0  0  1  0  0  0  0  0  0  0  0  0
   10.7710   -1.0610   24.1220 C   0  0  0  0  0  0  0  0  0  0  0  0
   12.0490   -1.4280   24.5610 C   0  0  0  0  0  0  0  0  0  0  0  0
   12.9520   -0.6200   24.4790 O   0  0  0  0  0  0  0  0  0  0  0  0
   12.2280   -2.5570   25.0070 O   0  0  0  0  0  0  0  0  0  0  0  0
   13.5520   -2.8610   25.2170 C   0  0  0  0  0  0  0  0  0  0  0  0
    9.0070   -1.4320   22.4400 N   0  0  0  0  0  0  0  0  0  0  0  0
    8.4670   -0.3920   21.6670 C   0  0  0  0  0  0  0  0  0  0  0  0
    9.0280    0.6430   21.3360 O   0  0  0  0  0  0  0  0  0  0  0  0
    7.0780   -0.7380   21.3270 N   0  0  0  0  0  0  0  0  0  0  0  0
    6.4770   -0.0400   20.1570 C   0  0  0  0  0  0  0  0  0  0  0  0
    5.3290    0.7110   20.3590 C   0  0  0  0  0  0  0  0  0  0  0  0
    4.6810    1.4040   19.3480 C   0  0  0  0  0  0  0  0  0  0  0  0
    5.2960    1.2990   18.0070 C   0  0  0  0  0  0  0  0  0  0  0  0
    6.4160    0.5640   17.8020 N   0  0  0  0  0  0  0  0  0  0  0  0
    6.9810   -0.0890   18.8610 C   0  0  0  0  0  0  0  0  0  0  0  0
  1  2  1  0
  2  3  1  0
  4  3  1  6
  4  5  1  0
  5  6  1  0
  6  7  2  0
  6  8  1  0
  8  9  1  0
  4 10  1  0
 10 11  1  0
 11 12  2  0
 11 13  1  0
 13 14  1  0
 14 15  2  0
 15 16  1  0
 16 17  2  0
 17 18  1  0
 14 19  1  0
 18 19  2  0
M  END
