pyridine_urea_2522
     RDKit          3D

 24 25  0  0  0  0  0  0  0  0999 V2000
   17.6360   -4.3690   20.2850 N   0  0  0  0  0  0  0  0  0  0  0  0
   17.2700   -4.6080   21.4410 C   0  0  0  0  0  0  0  0  0  0  0  0
   18.0200   -4.2730   22.3180 O   0  0  0  0  0  0  0  0  0  0  0  0
   15.9700   -5.2340   21.4610 C   0  0  0  0  0  0  0  0  0  0  0  0
   14.7960   -4.5570   21.2460 C   0  0  0  0  0  0  0  0  0  0  0  0
   14.0950   -3.4790   22.2480 N   0  0  0  0  0  0  0  0  0  0  0  0
   12.8600   -2.5760   21.9620 C   0  0  0  0  0  0  0  0  0  0  0  0
   12.2340   -2.8010   20.9560 O   0  0  0  0  0  0  0  0  0  0  0  0
   12.2840   -1.4220   22.4460 C   0  0  0  0  0  0  0  0  0  0  0  0
   12.8400   -0.2500   22.9140 C   0  0  0  0  0  0  0  0  0  0  0  0
   12.0330    0.8000   23.2740 C   0  0  0  0  0  0  0  0  0  0  0  0
   10.5330    0.6070   23.1390 C   0  0  0  0  0  0  0  0  0  0  0  0
   10.0450   -0.5820   22.6830 C   0  0  0  0  0  0  0  0  0  0  0  0
    8.7540   -0.8430   22.5290 N   0  0  0  0  0  0  0  0  0  0  0  0
    8.1940   -0.0770   21.5820 C   0  0  0  0  0  0  0  0  0  0  0  0
    8.5960    1.0350   21.2650 O   0  0  0  0  0  0  0  0  0  0  0  0
    7.0530   -0.7300   20.9860 N   0  0  0  0  0  0  0  0  0  0  0  0
    6.3530   -0.0320   20.0430 C   0  0  0  0  0  0  0  0  0  0  0  0
    5.2510    0.7680   20.2730 C   0  0  0  0  0  0  0  0  0  0  0  0
    4.5920    1.4630   19.2720 C   0  0  0  0  0  0  0  0  0  0  0  0
    5.0900    1.3270   17.9900 C   0  0  0  0  0  0  0  0  0  0  0  0
    6.1560    0.5560   17.7010 N   0  0  0  0  0  0  0  0  0  0  0  0
    6.7560   -0.1000   18.7200 C   0  0  0  0  0  0  0  0  0  0  0  0
   10.9200   -1.5730   22.3430 C   0  0  0  0  0  0  0  0  0  0  0  0
  1  2  1  0
  2  3  2  0
  2  4  1  0
  4  5  1  0
  5  6  1  0
  6  7  1  0
  7  8  2  0
  7  9  1  0
  9 10  2  0
 10 11  1  0
 11 12  2  0
 12 13  1  0
 13 14  1  0
 14 15  1  0
 15 16  2  0
 15 17  1  0
 17 18  1  0
 18 19  2  0
 19 20  1  0
 20 21  2  0
 21 22  1  0
 18 23  1  0
 22 23  2  0
  9 24  1  0
 13 24  2  0
M  END
