pyridine_urea_2755
     RDKit          3D

 23 25  0  0  0  0  0  0  0  0999 V2000
    2.1650    4.6160   22.9300 C   0  0  0  0  0  0  0  0  0  0  0  0
    2.1450    4.7570   21.5170 O   0  0  0  0  0  0  0  0  0  0  0  0
    3.1550    3.9450   20.9100 C   0  0  0  0  0  0  0  0  0  0  0  0
    2.5930    3.0020   19.8000 C   0  0  0  0  0  0  0  0  0  0  0  0
    3.4400    2.1600   19.1280 C   0  0  0  0  0  0  0  0  0  0  0  0
    4.9160    2.1320   19.4430 C   0  0  0  0  0  0  0  0  0  0  0  0
    5.6340    1.2320   18.6900 N   0  0  0  0  0  0  0  0  0  0  0  0
    5.0080    0.0290   18.3980 C   0  0  0  0  0  0  0  0  0  0  0  0
    5.2730   -0.7920   19.6460 C   0  0  0  0  0  0  0  0  0  0  0  0
    6.4110   -0.0450   20.2680 C   0  0  1  0  0  0  0  0  0  0  0  0
    7.3070   -0.9300   20.9580 N   0  0  0  0  0  0  0  0  0  0  0  0
    8.3700   -0.2610   21.4940 C   0  0  0  0  0  0  0  0  0  0  0  0
    8.5820    0.9230   21.2820 O   0  0  0  0  0  0  0  0  0  0  0  0
    9.1880   -1.0070   22.2820 N   0  0  0  0  0  0  0  0  0  0  0  0
   10.4820   -0.5560   22.4890 C   0  0  0  0  0  0  0  0  0  0  0  0
   10.7480    0.8710   22.9200 C   0  0  0  0  0  0  0  0  0  0  0  0
   12.2130    1.2000   23.0680 C   0  0  0  0  0  0  0  0  0  0  0  0
   13.1430    0.2280   22.8240 C   0  0  0  0  0  0  0  0  0  0  0  0
   12.8640   -1.0380   22.4500 N   0  0  0  0  0  0  0  0  0  0  0  0
   11.5700   -1.3960   22.2900 C   0  0  0  0  0  0  0  0  0  0  0  0
    6.9010    0.7880   19.2720 C   0  0  0  0  0  0  0  0  0  0  0  0
    5.3890    2.9920   20.4550 C   0  0  0  0  0  0  0  0  0  0  0  0
    4.5370    3.8830   21.1760 C   0  0  0  0  0  0  0  0  0  0  0  0
  1  2  1  0
  2  3  1  0
  3  4  2  0
  4  5  1  0
  5  6  2  0
  6  7  1  0
  7  8  1  0
  8  9  1  0
  9 10  1  0
 10 11  1  6
 11 12  1  0
 12 13  2  0
 12 14  1  0
 14 15  1  0
 15 16  2  0
 16 17  1  0
 17 18  2  0
 18 19  1  0
 15 20  1  0
 19 20  2  0
  7 21  1  0
 10 21  1  0
  6 22  1  0
  3 23  1  0
 22 23  2  0
M  END
