pyridine_urea_10690
     RDKit          3D

 21 22  0  0  0  0  0  0  0  0999 V2000
   12.7520    4.8140   21.7440 C   0  0  0  0  0  0  0  0  0  0  0  0
   11.6010    5.2880   22.4460 O   0  0  0  0  0  0  0  0  0  0  0  0
   11.1640    4.4710   23.4620 C   0  0  0  0  0  0  0  0  0  0  0  0
   10.8980    3.0080   23.0110 C   0  0  0  0  0  0  0  0  0  0  0  0
   12.1980    2.1650   22.9690 C   0  0  0  0  0  0  0  0  0  0  0  0
   12.1500    0.8160   23.5630 N   0  0  0  0  0  0  0  0  0  0  0  0
   12.4420   -0.2890   22.8030 C   0  0  0  0  0  0  0  0  0  0  0  0
   11.3320   -1.0630   22.4450 C   0  0  0  0  0  0  0  0  0  0  0  0
   10.0930   -0.3970   22.6000 C   0  0  0  0  0  0  0  0  0  0  0  0
    8.9550   -1.1240   22.3440 N   0  0  0  0  0  0  0  0  0  0  0  0
    8.1180   -0.8760   21.2430 C   0  0  0  0  0  0  0  0  0  0  0  0
    8.3400   -1.0350   20.1070 O   0  0  0  0  0  0  0  0  0  0  0  0
    6.9020   -0.3940   21.5050 N   0  0  0  0  0  0  0  0  0  0  0  0
    6.2870    0.1790   20.4150 C   0  0  0  0  0  0  0  0  0  0  0  0
    5.1080    0.9240   20.4000 C   0  0  0  0  0  0  0  0  0  0  0  0
    4.5660    1.4800   19.2260 C   0  0  0  0  0  0  0  0  0  0  0  0
    5.2010    1.3070   17.9840 C   0  0  0  0  0  0  0  0  0  0  0  0
    6.3280    0.6140   17.8520 N   0  0  0  0  0  0  0  0  0  0  0  0
    6.8450    0.0780   18.9760 C   0  0  0  0  0  0  0  0  0  0  0  0
    9.8700    0.2370   23.8030 C   0  0  0  0  0  0  0  0  0  0  0  0
   11.0390    0.7120   24.3180 C   0  0  0  0  0  0  0  0  0  0  0  0
  1  2  1  0
  2  3  1  0
  3  4  1  0
  4  5  1  0
  5  6  1  0
  6  7  1  0
  7  8  1  0
  8  9  1  0
  9 10  1  0
 10 11  1  0
 11 12  2  0
 11 13  1  0
 13 14  1  0
 14 15  2  0
 15 16  1  0
 16 17  2  0
 17 18  1  0
 14 19  1  0
 18 19  2  0
  9 20  1  0
  6 21  1  0
 20 21  1  0
M  END
