pyridine_urea_8740
     RDKit          3D

 21 22  0  0  0  0  0  0  0  0999 V2000
    9.4730   -0.1770   25.1640 C   0  0  0  0  0  0  0  0  0  0  0  0
    9.5510    0.5310   23.8320 C   0  0  2  0  0  0  0  0  0  0  0  0
    9.2240   -0.4260   22.7690 N   0  0  0  0  0  0  0  0  0  0  0  0
    8.5590    0.2440   21.6160 C   0  0  0  0  0  0  0  0  0  0  0  0
    9.0040    1.3440   21.2070 O   0  0  0  0  0  0  0  0  0  0  0  0
    7.4680   -0.4300   21.1120 N   0  0  0  0  0  0  0  0  0  0  0  0
    6.6800    0.1190   20.0940 C   0  0  0  0  0  0  0  0  0  0  0  0
    5.5420    0.8300   20.4220 C   0  0  0  0  0  0  0  0  0  0  0  0
    4.7050    1.4440   19.3160 C   0  0  0  0  0  0  0  0  0  0  0  0
    5.1370    1.2570   18.0170 C   0  0  0  0  0  0  0  0  0  0  0  0
    6.2440    0.5500   17.7340 N   0  0  0  0  0  0  0  0  0  0  0  0
    6.9750    0.0060   18.7470 C   0  0  0  0  0  0  0  0  0  0  0  0
   10.9580    1.1920   23.5920 C   0  0  0  0  0  0  0  0  0  0  0  0
   11.8720    0.3990   23.4280 O   0  0  0  0  0  0  0  0  0  0  0  0
   10.9890    2.5460   23.5980 N   0  0  0  0  0  0  0  0  0  0  0  0
   11.9930    3.1310   22.8890 C   0  0  0  0  0  0  0  0  0  0  0  0
   12.1920    4.4960   23.0530 C   0  0  0  0  0  0  0  0  0  0  0  0
   13.0250    5.3500   22.3430 C   0  0  0  0  0  0  0  0  0  0  0  0
   12.9020    6.6240   22.8490 C   0  0  0  0  0  0  0  0  0  0  0  0
   11.9920    6.5990   23.8900 C   0  0  0  0  0  0  0  0  0  0  0  0
   11.4930    5.2660   24.0790 O   0  0  0  0  0  0  0  0  0  0  0  0
  2  1  1  1
  2  3  1  0
  3  4  1  0
  4  5  2  0
  4  6  1  0
  6  7  1  0
  7  8  2  0
  8  9  1  0
  9 10  2  0
 10 11  1  0
  7 12  1  0
 11 12  2  0
  2 13  1  0
 13 14  2  0
 13 15  1  0
 15 16  1  0
 16 17  1  0
 17 18  2  0
 18 19  1  0
 19 20  2  0
 17 21  1  0
 20 21  1  0
M  END
