pyridine_urea_13314
     RDKit          3D

 23 25  0  0  0  0  0  0  0  0999 V2000
    7.8180   -4.8680   24.2650 C   0  0  0  0  0  0  0  0  0  0  0  0
    8.8100   -4.1380   23.5500 O   0  0  0  0  0  0  0  0  0  0  0  0
    8.5150   -2.8740   23.1330 C   0  0  0  0  0  0  0  0  0  0  0  0
    7.4040   -2.4180   23.3830 O   0  0  0  0  0  0  0  0  0  0  0  0
    9.4470   -2.1040   22.4220 C   0  0  0  0  0  0  0  0  0  0  0  0
   10.4520   -1.2380   22.8690 C   0  0  0  0  0  0  0  0  0  0  0  0
   11.8130   -1.5560   23.0280 C   0  0  0  0  0  0  0  0  0  0  0  0
   12.7760   -0.4630   23.5020 C   0  0  0  0  0  0  0  0  0  0  0  0
   12.2190    0.7780   23.7370 C   0  0  0  0  0  0  0  0  0  0  0  0
   10.7460    1.0530   23.5450 C   0  0  0  0  0  0  0  0  0  0  0  0
    9.9870    0.0120   23.1240 C   0  0  0  0  0  0  0  0  0  0  0  0
    8.5940    0.2550   22.9110 N   0  0  0  0  0  0  0  0  0  0  0  0
    8.1420    0.6940   21.7010 C   0  0  0  0  0  0  0  0  0  0  0  0
    8.8360    1.7020   21.1000 O   0  0  0  0  0  0  0  0  0  0  0  0
    7.0270    0.0320   21.2380 N   0  0  0  0  0  0  0  0  0  0  0  0
    6.4020    0.4370   20.0730 C   0  0  0  0  0  0  0  0  0  0  0  0
    5.2550    1.2060   20.2100 C   0  0  0  0  0  0  0  0  0  0  0  0
    4.5980    1.6660   19.0770 C   0  0  0  0  0  0  0  0  0  0  0  0
    5.1430    1.3210   17.8570 C   0  0  0  0  0  0  0  0  0  0  0  0
    6.2400    0.5710   17.6880 N   0  0  0  0  0  0  0  0  0  0  0  0
    6.8550    0.1380   18.7990 C   0  0  0  0  0  0  0  0  0  0  0  0
    8.8470   -1.5290   21.1030 C   0  0  0  0  0  0  0  0  0  0  0  0
    9.7280   -2.5640   21.3360 C   0  0  0  0  0  0  0  0  0  0  0  0
  1  2  1  0
  2  3  1  0
  3  4  2  0
  5  3  1  0
  5  6  1  0
  6  7  2  0
  7  8  1  0
  8  9  2  0
  9 10  1  0
  6 11  1  0
 10 11  2  0
 11 12  1  0
 12 13  1  0
 13 14  2  0
 13 15  1  0
 15 16  1  0
 16 17  2  0
 17 18  1  0
 18 19  2  0
 19 20  1  0
 16 21  1  0
 20 21  2  0
  5 22  1  0
  5 23  1  0
 22 23  1  0
M  END
