pyridine_urea_8997
     RDKit          3D

 19 20  0  0  0  0  0  0  0  0999 V2000
   12.4300   -0.7770   25.3860 C   0  0  0  0  0  0  0  0  0  0  0  0
   11.7740   -0.9350   24.1310 C   0  0  0  0  0  0  0  0  0  0  0  0
   10.4690   -0.2620   24.0400 C   0  0  0  0  0  0  0  0  0  0  0  0
    9.8040   -0.3940   22.9030 C   0  0  0  0  0  0  0  0  0  0  0  0
    8.5290    0.1620   22.7040 N   0  0  0  0  0  0  0  0  0  0  0  0
    8.2380    0.5720   21.4730 C   0  0  0  0  0  0  0  0  0  0  0  0
    8.8140    1.5300   20.9760 O   0  0  0  0  0  0  0  0  0  0  0  0
    7.2520   -0.2020   20.9410 N   0  0  0  0  0  0  0  0  0  0  0  0
    6.4610    0.3410   19.9640 C   0  0  0  0  0  0  0  0  0  0  0  0
    5.2840    1.0440   20.1590 C   0  0  0  0  0  0  0  0  0  0  0  0
    4.6310    1.5580   19.0790 C   0  0  0  0  0  0  0  0  0  0  0  0
    5.1360    1.3760   17.8330 C   0  0  0  0  0  0  0  0  0  0  0  0
    6.2540    0.6940   17.5780 N   0  0  0  0  0  0  0  0  0  0  0  0
    6.8900    0.1910   18.6550 C   0  0  0  0  0  0  0  0  0  0  0  0
   10.3270   -1.1080   21.8180 C   0  0  0  0  0  0  0  0  0  0  0  0
   11.6680   -1.7990   21.8780 C   0  0  0  0  0  0  0  0  0  0  0  0
   12.4300   -2.5540   21.0220 C   0  0  0  0  0  0  0  0  0  0  0  0
   12.3100   -1.6440   23.1670 C   0  0  0  0  0  0  0  0  0  0  0  0
   13.7520   -2.4240   23.4400 Cl  0  0  0  0  0  0  0  0  0  0  0  0
  1  2  1  0
  2  3  2  0
  3  4  1  0
  4  5  1  0
  5  6  1  0
  6  7  2  0
  6  8  1  0
  8  9  1  0
  9 10  2  0
 10 11  1  0
 11 12  2  0
 12 13  1  0
  9 14  1  0
 13 14  2  0
  4 15  2  0
 15 16  1  0
 16 17  1  0
  2 18  1  0
 16 18  2  0
 18 19  1  0
M  END
