pyridine_urea_6154
     RDKit          3D

 24 26  0  0  0  0  0  0  0  0999 V2000
   10.7750    2.7000   23.7270 C   0  0  0  0  0  0  0  0  0  0  0  0
   10.5840    1.6270   23.3380 C   0  0  0  0  0  0  0  0  0  0  0  0
    9.7660    0.4720   22.9720 C   0  0  0  0  0  0  0  0  0  0  0  0
   10.1770   -0.8060   22.4390 C   0  0  0  0  0  0  0  0  0  0  0  0
    9.0170   -1.5980   22.1490 N   0  0  0  0  0  0  0  0  0  0  0  0
    8.1760   -0.7210   21.4370 C   0  0  0  0  0  0  0  0  0  0  0  0
    8.5980    0.6450   21.1510 O   0  0  0  0  0  0  0  0  0  0  0  0
    6.9830   -1.1820   21.0310 N   0  0  0  0  0  0  0  0  0  0  0  0
    6.4270   -0.3970   20.0460 C   0  0  0  0  0  0  0  0  0  0  0  0
    5.1760    0.3620   20.3240 C   0  0  0  0  0  0  0  0  0  0  0  0
    4.5210    1.1800   19.4490 C   0  0  0  0  0  0  0  0  0  0  0  0
    5.2960    1.1790   18.1510 C   0  0  0  0  0  0  0  0  0  0  0  0
    6.4220    0.5210   17.8460 N   0  0  0  0  0  0  0  0  0  0  0  0
    6.9660   -0.2570   18.7950 C   0  0  0  0  0  0  0  0  0  0  0  0
   11.6430   -1.1920   22.1980 C   0  0  0  0  0  0  0  0  0  0  0  0
   12.4600   -0.1030   22.5260 C   0  0  0  0  0  0  0  0  0  0  0  0
   11.9930    1.2540   23.0480 C   0  0  0  0  0  0  0  0  0  0  0  0
   13.0150    2.2360   23.2420 O   0  0  0  0  0  0  0  0  0  0  0  0
   12.6180    3.6180   22.9460 C   0  0  0  0  0  0  0  0  0  0  0  0
   11.3440    4.1480   23.5430 C   0  0  0  0  0  0  0  0  0  0  0  0
   10.8860    5.4500   23.3450 C   0  0  0  0  0  0  0  0  0  0  0  0
   11.5590    6.3300   22.5970 N   0  0  0  0  0  0  0  0  0  0  0  0
   12.7950    5.7870   22.0130 C   0  0  0  0  0  0  0  0  0  0  0  0
   13.3250    4.5080   22.1550 C   0  0  0  0  0  0  0  0  0  0  0  0
  1  2  1  0
  2  3  2  0
  3  4  1  0
  4  5  1  0
  5  6  1  0
  6  7  2  0
  6  8  1  0
  8  9  1  0
  9 10  2  0
 10 11  1  0
 11 12  2  0
 12 13  1  0
  9 14  1  0
 13 14  2  0
  4 15  2  0
 15 16  1  0
  2 17  1  0
 16 17  2  0
 17 18  1  0
 18 19  1  0
 19 20  2  0
 20 21  1  0
 21 22  2  0
 22 23  1  0
 19 24  1  0
 23 24  2  0
M  END
