pyridine_urea_10282
     RDKit          3D

 22 23  0  0  0  0  0  0  0  0999 V2000
   13.3120   -2.5130   24.6190 C   0  0  0  0  0  0  0  0  0  0  0  0
   13.8830   -2.4510   23.5280 O   0  0  0  0  0  0  0  0  0  0  0  0
   13.4590   -1.4840   22.6550 C   0  0  0  0  0  0  0  0  0  0  0  0
   12.1730   -1.1760   22.8210 C   0  0  0  0  0  0  0  0  0  0  0  0
   11.3220   -1.6710   21.8720 C   0  0  0  0  0  0  0  0  0  0  0  0
   10.0940   -1.3540   22.0910 C   0  0  0  0  0  0  0  0  0  0  0  0
    8.9770   -1.6630   21.3840 N   0  0  0  0  0  0  0  0  0  0  0  0
    8.1810   -0.4470   21.2280 C   0  0  0  0  0  0  0  0  0  0  0  0
    8.7120    0.6640   21.2920 O   0  0  0  0  0  0  0  0  0  0  0  0
    6.8570   -0.6130   20.9960 N   0  0  0  0  0  0  0  0  0  0  0  0
    6.2280    0.0770   20.0230 C   0  0  0  0  0  0  0  0  0  0  0  0
    5.0360    0.7890   20.1330 C   0  0  0  0  0  0  0  0  0  0  0  0
    4.5310    1.4630   19.0310 C   0  0  0  0  0  0  0  0  0  0  0  0
    5.1870    1.4430   17.8250 C   0  0  0  0  0  0  0  0  0  0  0  0
    6.3350    0.7830   17.6120 N   0  0  0  0  0  0  0  0  0  0  0  0
    6.8310    0.0910   18.7770 C   0  0  0  0  0  0  0  0  0  0  0  0
    9.8750   -0.4170   23.4670 S   0  0  0  0  0  0  0  0  0  0  0  0
   11.6100   -0.3780   23.9350 C   0  0  0  0  0  0  0  0  0  0  0  0
   10.8210    0.3070   24.8240 C   0  0  0  0  0  0  0  0  0  0  0  0
    9.7230    0.4940   25.7320 O   0  0  0  0  0  0  0  0  0  0  0  0
   10.2270   -0.7640   24.7840 O   0  0  0  0  0  0  0  0  0  0  0  0
    8.8510   -0.7560   25.2040 C   0  0  0  0  0  0  0  0  0  0  0  0
  1  2  1  0
  2  3  1  0
  3  4  1  0
  4  5  1  0
  5  6  2  0
  6  7  1  0
  7  8  1  0
  8  9  2  0
  8 10  1  0
 10 11  1  0
 11 12  2  0
 12 13  1  0
 13 14  2  0
 14 15  1  0
 11 16  1  0
 15 16  2  0
  6 17  1  0
  4 18  2  0
 17 18  1  0
 18 19  1  0
 19 20  2  0
 19 21  1  0
 21 22  1  0
M  END
