pyridine_urea_13143
     RDKit          3D

 18 18  0  0  0  0  0  0  0  0999 V2000
   13.0460    0.8680   22.7570 C   0  0  0  0  0  0  0  0  0  0  0  0
   12.6660   -0.5600   22.5510 C   0  0  0  0  0  0  0  0  0  0  0  0
   13.2610   -1.4070   21.6300 C   0  0  0  0  0  0  0  0  0  0  0  0
   11.1710   -0.6880   22.2090 C   0  0  0  0  0  0  0  0  0  0  0  0
   12.8150   -1.1570   23.9060 C   0  0  0  0  0  0  0  0  0  0  0  0
   11.6540   -1.8390   24.5610 C   0  0  0  0  0  0  0  0  0  0  0  0
   10.3570   -1.5400   24.1610 C   0  0  0  0  0  0  0  0  0  0  0  0
   10.0730   -0.3350   23.2640 C   0  0  0  0  0  0  0  0  0  0  0  0
    8.8280   -0.6420   22.4810 N   0  0  0  0  0  0  0  0  0  0  0  0
    8.3280    0.1540   21.5030 C   0  0  0  0  0  0  0  0  0  0  0  0
    8.8470    1.2320   21.1630 O   0  0  0  0  0  0  0  0  0  0  0  0
    7.1930   -0.4130   21.0020 N   0  0  0  0  0  0  0  0  0  0  0  0
    6.4870    0.1730   19.9700 C   0  0  0  0  0  0  0  0  0  0  0  0
    5.3240    0.8820   20.2580 C   0  0  0  0  0  0  0  0  0  0  0  0
    4.6340    1.4900   19.2090 C   0  0  0  0  0  0  0  0  0  0  0  0
    5.1310    1.3650   17.9210 C   0  0  0  0  0  0  0  0  0  0  0  0
    6.2420    0.6760   17.6360 N   0  0  0  0  0  0  0  0  0  0  0  0
    6.8920    0.0980   18.6610 C   0  0  0  0  0  0  0  0  0  0  0  0
  2  1  1  0
  2  3  1  0
  2  4  1  0
  2  5  1  0
  5  6  1  0
  6  7  1  0
  7  8  1  0
  8  9  1  0
  9 10  1  0
 10 11  2  0
 10 12  1  0
 12 13  1  0
 13 14  2  0
 14 15  1  0
 15 16  2  0
 16 17  1  0
 13 18  1  0
 17 18  2  0
M  END
