pyridine_urea_11234
     RDKit          3D

 17 17  0  0  0  0  0  0  0  0999 V2000
   13.3630   -0.1820   22.7290 C   0  0  0  0  0  0  0  0  0  0  0  0
   12.5980   -1.0560   22.8960 C   0  0  0  0  0  0  0  0  0  0  0  0
   11.3180   -1.7790   23.2670 C   0  0  1  0  0  0  0  0  0  0  0  0
   11.3360   -2.2300   24.6720 C   0  0  0  0  0  0  0  0  0  0  0  0
   10.0180   -0.9860   22.9050 C   0  0  0  0  0  0  0  0  0  0  0  0
    8.8980   -1.4830   22.1680 N   0  0  0  0  0  0  0  0  0  0  0  0
    8.2590   -0.4920   21.4420 C   0  0  0  0  0  0  0  0  0  0  0  0
    8.7590    0.6210   21.3120 O   0  0  0  0  0  0  0  0  0  0  0  0
    7.0440   -0.8760   20.9260 N   0  0  0  0  0  0  0  0  0  0  0  0
    6.2950   -0.0960   20.0290 C   0  0  0  0  0  0  0  0  0  0  0  0
    5.1210    0.5070   20.3990 C   0  0  0  0  0  0  0  0  0  0  0  0
    4.6190    1.2640   19.1810 C   0  0  0  0  0  0  0  0  0  0  0  0
    5.2520    1.3070   17.9640 C   0  0  0  0  0  0  0  0  0  0  0  0
    6.3830    0.6800   17.7180 N   0  0  0  0  0  0  0  0  0  0  0  0
    6.8650   -0.0010   18.7570 C   0  0  0  0  0  0  0  0  0  0  0  0
   11.3120   -2.7570   22.6330 O   0  0  0  0  0  0  0  0  0  0  0  0
   11.1300   -2.3770   21.3700 C   0  0  0  0  0  0  0  0  0  0  0  0
  1  2  1  0
  2  3  1  0
  3  4  1  1
  3  5  1  0
  5  6  1  0
  6  7  1  0
  7  8  2  0
  7  9  1  0
  9 10  1  0
 10 11  2  0
 11 12  1  0
 12 13  2  0
 13 14  1  0
 10 15  1  0
 14 15  2  0
  3 16  1  0
 16 17  1  0
M  END
