pyridine_urea_12812
     RDKit          3D

 20 22  0  0  0  0  0  0  0  0999 V2000
    8.2940    1.1950   21.3840 O   0  0  0  0  0  0  0  0  0  0  0  0
    8.4060   -0.0190   21.3680 C   0  0  0  0  0  0  0  0  0  0  0  0
    7.3360   -0.7880   21.0160 N   0  0  0  0  0  0  0  0  0  0  0  0
    6.6200   -0.1420   19.9490 C   0  0  0  0  0  0  0  0  0  0  0  0
    5.3480    0.6420   20.3270 C   0  0  0  0  0  0  0  0  0  0  0  0
    4.6230    1.3180   19.3480 C   0  0  0  0  0  0  0  0  0  0  0  0
    5.0940    1.2520   18.0400 C   0  0  0  0  0  0  0  0  0  0  0  0
    6.2260    0.5330   17.7470 N   0  0  0  0  0  0  0  0  0  0  0  0
    6.9970   -0.1670   18.6760 C   0  0  0  0  0  0  0  0  0  0  0  0
    9.5910   -0.6320   21.6380 N   0  0  0  0  0  0  0  0  0  0  0  0
   10.8800   -0.9530   21.8710 C   0  0  2  0  0  0  0  0  0  0  0  0
   11.6610   -1.9640   21.2400 C   0  0  0  0  0  0  0  0  0  0  0  0
   12.8710   -1.9890   21.7850 C   0  0  0  0  0  0  0  0  0  0  0  0
   12.4630   -1.8520   23.0000 C   0  0  0  0  0  0  0  0  0  0  0  0
   13.1440   -2.2870   23.9800 C   0  0  0  0  0  0  0  0  0  0  0  0
   14.2600   -2.8880   23.8280 F   0  0  0  0  0  0  0  0  0  0  0  0
   12.5350   -2.0530   25.1810 C   0  0  0  0  0  0  0  0  0  0  0  0
   11.3190   -1.4340   25.2180 C   0  0  0  0  0  0  0  0  0  0  0  0
   10.6230   -1.0080   24.1510 C   0  0  0  0  0  0  0  0  0  0  0  0
   11.2690   -1.2530   23.1170 C   0  0  0  0  0  0  0  0  0  0  0  0
  1  2  2  0
  2  3  1  0
  3  4  1  0
  4  5  2  0
  5  6  1  0
  6  7  2  0
  7  8  1  0
  4  9  1  0
  8  9  2  0
  2 10  1  0
 11 10  1  1
 11 12  1  0
 12 13  1  0
 13 14  1  0
 14 15  1  0
 15 16  1  0
 15 17  2  0
 17 18  1  0
 18 19  2  0
 11 20  1  0
 14 20  2  0
 19 20  1  0
M  END
