pyridine_urea_9170
     RDKit          3D

 18 18  0  0  0  0  0  0  0  0999 V2000
    8.5380    2.0040   24.4030 C   0  0  0  0  0  0  0  0  0  0  0  0
    8.6120    0.7430   23.5230 C   0  0  0  0  0  0  0  0  0  0  0  0
    8.0590   -0.4570   24.3270 C   0  0  0  0  0  0  0  0  0  0  0  0
   10.0680    0.4920   23.0180 C   0  0  0  0  0  0  0  0  0  0  0  0
   10.2470   -0.8010   22.5500 C   0  0  0  0  0  0  0  0  0  0  0  0
    9.0780   -1.3080   21.8810 N   0  0  0  0  0  0  0  0  0  0  0  0
    8.2980   -0.3390   21.3130 C   0  0  0  0  0  0  0  0  0  0  0  0
    8.7470    0.9410   21.1200 O   0  0  0  0  0  0  0  0  0  0  0  0
    7.0590   -0.7870   20.9630 N   0  0  0  0  0  0  0  0  0  0  0  0
    6.3450   -0.0670   20.0140 C   0  0  0  0  0  0  0  0  0  0  0  0
    5.1440    0.6350   20.2110 C   0  0  0  0  0  0  0  0  0  0  0  0
    4.5440    1.3380   19.1770 C   0  0  0  0  0  0  0  0  0  0  0  0
    5.1170    1.3670   17.9130 C   0  0  0  0  0  0  0  0  0  0  0  0
    6.2840    0.6790   17.7110 N   0  0  0  0  0  0  0  0  0  0  0  0
    6.8850   -0.0270   18.7420 C   0  0  0  0  0  0  0  0  0  0  0  0
   11.0550    0.7210   24.1480 C   0  0  0  0  0  0  0  0  0  0  0  0
   10.5220   -0.0480   25.1640 C   0  0  0  0  0  0  0  0  0  0  0  0
   12.4750    0.3840   23.7550 C   0  0  0  0  0  0  0  0  0  0  0  0
  1  2  1  0
  2  3  1  0
  2  4  1  0
  4  5  1  0
  5  6  1  0
  6  7  1  0
  7  8  2  0
  7  9  1  0
  9 10  1  0
 10 11  2  0
 11 12  1  0
 12 13  2  0
 13 14  1  0
 10 15  1  0
 14 15  2  0
  4 16  1  0
 16 17  1  0
 16 18  1  0
M  END
