pyridine_urea_732
     RDKit          3D

 23 26  0  0  0  0  0  0  0  0999 V2000
    8.9620    1.9080   21.5240 O   0  0  0  0  0  0  0  0  0  0  0  0
    8.2070    1.1340   22.1280 C   0  0  0  0  0  0  0  0  0  0  0  0
    6.9440    0.7560   21.6520 N   0  0  0  0  0  0  0  0  0  0  0  0
    6.3420    1.0380   20.3850 C   0  0  0  0  0  0  0  0  0  0  0  0
    5.1650    1.7630   20.2610 C   0  0  0  0  0  0  0  0  0  0  0  0
    4.6250    2.0110   19.0010 C   0  0  0  0  0  0  0  0  0  0  0  0
    5.2720    1.5330   17.8880 C   0  0  0  0  0  0  0  0  0  0  0  0
    6.4100    0.8210   17.9360 N   0  0  0  0  0  0  0  0  0  0  0  0
    6.9090    0.5880   19.1820 C   0  0  0  0  0  0  0  0  0  0  0  0
    8.5290    0.4450   23.3370 N   0  0  0  0  0  0  0  0  0  0  0  0
    9.0430   -0.7140   22.9090 C   0  0  0  0  0  0  0  0  0  0  0  0
   10.2440   -1.4270   22.8850 C   0  0  0  0  0  0  0  0  0  0  0  0
   10.3290   -2.4200   21.9480 C   0  0  0  0  0  0  0  0  0  0  0  0
    9.2210   -2.6300   21.1260 C   0  0  0  0  0  0  0  0  0  0  0  0
    9.0840   -3.4830   20.0480 N   0  0  0  0  0  0  0  0  0  0  0  0
    7.8150   -3.2570   19.5650 N   0  0  0  0  0  0  0  0  0  0  0  0
    7.2140   -2.3820   20.3510 C   0  0  0  0  0  0  0  0  0  0  0  0
    5.8300   -1.9920   20.1570 C   0  0  0  0  0  0  0  0  0  0  0  0
    5.5620   -0.6980   19.8100 C   0  0  0  0  0  0  0  0  0  0  0  0
    5.3610   -0.9700   18.5330 C   0  0  0  0  0  0  0  0  0  0  0  0
    5.4600   -2.3480   18.7130 C   0  0  0  0  0  0  0  0  0  0  0  0
    8.0800   -2.0220   21.1920 N   0  0  0  0  0  0  0  0  0  0  0  0
    7.9360   -1.0990   22.0500 C   0  0  0  0  0  0  0  0  0  0  0  0
  1  2  2  0
  2  3  1  0
  3  4  1  0
  4  5  2  0
  5  6  1  0
  6  7  2  0
  7  8  1  0
  4  9  1  0
  8  9  2  0
  2 10  1  0
 10 11  1  0
 11 12  1  0
 12 13  2  0
 13 14  1  0
 14 15  2  0
 15 16  1  0
 16 17  2  0
 17 18  1  0
 18 19  1  0
 19 20  1  0
 18 21  1  0
 20 21  1  0
 14 22  1  0
 17 22  1  0
 11 23  2  0
 22 23  1  0
M  END
