pyridine_urea_5783
     RDKit          3D

 20 22  0  0  0  0  0  0  0  0999 V2000
    8.7660    1.1570   21.1420 O   0  0  0  0  0  0  0  0  0  0  0  0
    8.0870    0.2410   21.6390 C   0  0  0  0  0  0  0  0  0  0  0  0
    7.1580   -0.5810   20.8960 N   0  0  0  0  0  0  0  0  0  0  0  0
    6.4500    0.0810   19.9310 C   0  0  0  0  0  0  0  0  0  0  0  0
    5.2700    0.7620   20.2410 C   0  0  0  0  0  0  0  0  0  0  0  0
    4.6120    1.4260   19.2110 C   0  0  0  0  0  0  0  0  0  0  0  0
    5.1550    1.3830   17.9240 C   0  0  0  0  0  0  0  0  0  0  0  0
    6.2830    0.7200   17.6310 N   0  0  0  0  0  0  0  0  0  0  0  0
    6.9010    0.0850   18.6440 C   0  0  0  0  0  0  0  0  0  0  0  0
    8.0410   -0.1550   22.9470 N   0  0  0  0  0  0  0  0  0  0  0  0
    9.1910   -0.7240   23.5710 C   0  0  0  0  0  0  0  0  0  0  0  0
   10.0770    0.3920   24.0200 C   0  0  0  0  0  0  0  0  0  0  0  0
   11.3270   -0.0470   23.7080 C   0  0  2  0  0  0  0  0  0  0  0  0
   12.2720    0.8490   23.4160 C   0  0  0  0  0  0  0  0  0  0  0  0
   13.3030    0.0470   23.0240 C   0  0  0  0  0  0  0  0  0  0  0  0
   13.2980   -1.1010   23.8640 C   0  0  0  0  0  0  0  0  0  0  0  0
   12.9370   -2.1660   23.1150 C   0  0  0  0  0  0  0  0  0  0  0  0
   12.2120   -1.6420   22.1110 C   0  0  0  0  0  0  0  0  0  0  0  0
   11.1730   -0.8550   22.5410 C   0  0  1  0  0  0  0  0  0  0  0  0
   10.0230   -1.5220   22.8530 C   0  0  0  0  0  0  0  0  0  0  0  0
  1  2  2  0
  2  3  1  0
  3  4  1  0
  4  5  2  0
  5  6  1  0
  6  7  2  0
  7  8  1  0
  4  9  1  0
  8  9  2  0
  2 10  1  0
 10 11  1  0
 11 12  1  0
 13 12  1  6
 13 14  1  0
 14 15  1  0
 15 16  1  0
 16 17  1  0
 17 18  1  0
 13 19  1  0
 19 18  1  1
 11 20  1  0
 19 20  1  0
M  END
