pyridine_urea_11034
     RDKit          3D

 19 20  0  0  0  0  0  0  0  0999 V2000
    8.8750    0.8200   21.3480 O   0  0  0  0  0  0  0  0  0  0  0  0
    8.3380   -0.2470   21.6050 C   0  0  0  0  0  0  0  0  0  0  0  0
    8.8890   -1.2090   22.5460 N   0  0  0  0  0  0  0  0  0  0  0  0
   10.2090   -1.0360   22.9430 C   0  0  0  0  0  0  0  0  0  0  0  0
   10.4180   -0.4730   24.2040 C   0  0  0  0  0  0  0  0  0  0  0  0
    9.4770   -0.7020   24.9470 O   0  0  0  0  0  0  0  0  0  0  0  0
   11.7040   -0.7270   24.7040 C   0  0  0  0  0  0  0  0  0  0  0  0
   12.6150   -1.1010   23.7300 C   0  0  0  0  0  0  0  0  0  0  0  0
   12.6290   -0.2660   22.5230 C   0  0  0  0  0  0  0  0  0  0  0  0
   12.3580    1.1490   23.0000 C   0  0  0  0  0  0  0  0  0  0  0  0
   10.9020    1.6340   23.0190 C   0  0  0  0  0  0  0  0  0  0  0  0
   10.1380    1.0430   23.9910 C   0  0  0  0  0  0  0  0  0  0  0  0
    7.1420   -0.6810   21.0630 N   0  0  0  0  0  0  0  0  0  0  0  0
    6.4760   -0.0240   20.0260 C   0  0  0  0  0  0  0  0  0  0  0  0
    5.3060    0.6900   20.2920 C   0  0  0  0  0  0  0  0  0  0  0  0
    4.6390    1.3620   19.2800 C   0  0  0  0  0  0  0  0  0  0  0  0
    5.1710    1.2980   18.0090 C   0  0  0  0  0  0  0  0  0  0  0  0
    6.2880    0.6150   17.7200 N   0  0  0  0  0  0  0  0  0  0  0  0
    6.9130   -0.0280   18.7250 C   0  0  0  0  0  0  0  0  0  0  0  0
  1  2  2  0
  2  3  1  0
  3  4  1  0
  4  5  1  0
  5  6  1  0
  5  7  1  0
  7  8  1  0
  8  9  1  0
  9 10  1  0
 10 11  1  0
  5 12  1  0
 11 12  1  0
  2 13  1  0
 13 14  1  0
 14 15  2  0
 15 16  1  0
 16 17  2  0
 17 18  1  0
 14 19  1  0
 18 19  2  0
M  END
