pyridine_urea_1314
     RDKit          3D

 20 21  0  0  0  0  0  0  0  0999 V2000
    9.5230   -5.2320   27.3160 C   0  0  0  0  0  0  0  0  0  0  0  0
    9.7820   -4.3550   26.0600 C   0  0  0  0  0  0  0  0  0  0  0  0
    8.4720   -4.0620   25.2750 C   0  0  0  0  0  0  0  0  0  0  0  0
    8.5450   -3.2450   24.0620 N   0  0  0  0  0  0  0  0  0  0  0  0
    9.7560   -2.7190   23.6680 C   0  0  0  0  0  0  0  0  0  0  0  0
    9.7810   -1.9070   22.5310 C   0  0  0  0  0  0  0  0  0  0  0  0
    8.9710   -0.8020   22.6490 N   0  0  0  0  0  0  0  0  0  0  0  0
    8.4450    0.0150   21.6210 C   0  0  0  0  0  0  0  0  0  0  0  0
    9.0280    1.2170   21.2510 O   0  0  0  0  0  0  0  0  0  0  0  0
    7.3270   -0.4730   21.0750 N   0  0  0  0  0  0  0  0  0  0  0  0
    6.6150    0.0920   20.0730 C   0  0  0  0  0  0  0  0  0  0  0  0
    5.4770    0.8180   20.4180 C   0  0  0  0  0  0  0  0  0  0  0  0
    4.7610    1.4070   19.3950 C   0  0  0  0  0  0  0  0  0  0  0  0
    5.1470    1.2870   18.0660 C   0  0  0  0  0  0  0  0  0  0  0  0
    6.2210    0.5980   17.6580 N   0  0  0  0  0  0  0  0  0  0  0  0
    6.9360    0.0050   18.7390 C   0  0  0  0  0  0  0  0  0  0  0  0
   11.0670   -2.9950   24.4330 C   0  0  0  0  0  0  0  0  0  0  0  0
   12.2610   -2.4440   23.9940 C   0  0  0  0  0  0  0  0  0  0  0  0
   11.0340   -3.8660   25.6460 C   0  0  0  0  0  0  0  0  0  0  0  0
   12.2410   -4.1840   26.3470 O   0  0  0  0  0  0  0  0  0  0  0  0
  1  2  1  0
  2  3  2  0
  3  4  1  0
  4  5  1  0
  5  6  1  0
  6  7  1  0
  7  8  1  0
  8  9  2  0
  8 10  1  0
 10 11  1  0
 11 12  2  0
 12 13  1  0
 13 14  2  0
 14 15  1  0
 11 16  1  0
 15 16  2  0
  5 17  2  0
 17 18  1  0
  2 19  1  0
 17 19  1  0
 19 20  2  0
M  END
