pyridine_urea_5972
     RDKit          3D

 26 28  0  0  0  0  0  0  0  0999 V2000
   13.9580   -2.4140   25.3740 C   0  0  0  0  0  0  0  0  0  0  0  0
   13.6050   -1.2160   24.6860 O   0  0  0  0  0  0  0  0  0  0  0  0
   12.3880   -1.3420   24.1820 C   0  0  0  0  0  0  0  0  0  0  0  0
   11.2330   -1.0500   24.9020 C   0  0  0  0  0  0  0  0  0  0  0  0
    9.9520   -1.2140   24.3670 C   0  0  0  0  0  0  0  0  0  0  0  0
    9.7490   -1.6740   23.0540 C   0  0  0  0  0  0  0  0  0  0  0  0
    8.5130   -1.8710   22.3820 N   0  0  0  0  0  0  0  0  0  0  0  0
    7.8190   -0.7890   21.8670 C   0  0  0  0  0  0  0  0  0  0  0  0
    7.8290    0.3350   22.2910 O   0  0  0  0  0  0  0  0  0  0  0  0
    7.0460   -1.1270   20.7970 N   0  0  0  0  0  0  0  0  0  0  0  0
    6.3890   -0.2540   19.9210 C   0  0  0  0  0  0  0  0  0  0  0  0
    5.1140    0.5290   20.1740 C   0  0  0  0  0  0  0  0  0  0  0  0
    4.5800    1.3480   19.2070 C   0  0  0  0  0  0  0  0  0  0  0  0
    5.2540    1.4290   17.9890 C   0  0  0  0  0  0  0  0  0  0  0  0
    6.3980    0.7440   17.7230 N   0  0  0  0  0  0  0  0  0  0  0  0
    6.9280   -0.0630   18.6720 C   0  0  0  0  0  0  0  0  0  0  0  0
   10.9550   -2.0040   22.2140 C   0  0  0  0  0  0  0  0  0  0  0  0
   12.1970   -1.8460   22.7380 C   0  0  0  0  0  0  0  0  0  0  0  0
   13.2400   -2.1320   21.9630 O   0  0  0  0  0  0  0  0  0  0  0  0
   13.7320   -0.9470   21.3360 C   0  0  0  0  0  0  0  0  0  0  0  0
   13.8660    0.2590   22.0850 C   0  0  0  0  0  0  0  0  0  0  0  0
   14.3990    1.4380   21.4780 C   0  0  0  0  0  0  0  0  0  0  0  0
   14.7760    1.3910   20.1030 C   0  0  0  0  0  0  0  0  0  0  0  0
   15.2850    2.4760   19.3420 C   0  0  0  0  0  0  0  0  0  0  0  0
   14.6320    0.2270   19.4300 N   0  0  0  0  0  0  0  0  0  0  0  0
   14.1220   -0.9060   20.0350 N   0  0  0  0  0  0  0  0  0  0  0  0
  1  2  1  0
  2  3  1  0
  3  4  2  0
  4  5  1  0
  5  6  2  0
  6  7  1  0
  7  8  1  0
  8  9  2  0
  8 10  1  0
 10 11  1  0
 11 12  2  0
 12 13  1  0
 13 14  2  0
 14 15  1  0
 11 16  1  0
 15 16  2  0
  6 17  1  0
  3 18  1  0
 17 18  2  0
 18 19  1  0
 19 20  1  0
 20 21  2  0
 21 22  1  0
 22 23  2  0
 23 24  1  0
 23 25  1  0
 20 26  1  0
 25 26  2  0
M  END
