pyridine_urea_11459
     RDKit          3D

 25 26  0  0  0  0  0  0  0  0999 V2000
   13.0630   -2.0860   21.6170 C   0  0  0  0  0  0  0  0  0  0  0  0
   13.2540   -1.4860   22.9030 O   0  0  0  0  0  0  0  0  0  0  0  0
   13.4780   -0.0900   22.7820 C   0  0  0  0  0  0  0  0  0  0  0  0
   12.7320    1.0710   22.8180 C   0  0  0  0  0  0  0  0  0  0  0  0
   11.3360    0.8470   23.0470 C   0  0  0  0  0  0  0  0  0  0  0  0
   10.4970   -0.2300   23.2850 C   0  0  0  0  0  0  0  0  0  0  0  0
   10.1570   -1.4580   22.4270 C   0  0  0  0  0  0  0  0  0  0  0  0
    8.7170   -1.4900   22.1880 N   0  0  0  0  0  0  0  0  0  0  0  0
    8.1530   -0.4260   21.5480 C   0  0  0  0  0  0  0  0  0  0  0  0
    8.8520    0.8000   21.3030 O   0  0  0  0  0  0  0  0  0  0  0  0
    6.7980   -0.7120   21.1650 N   0  0  0  0  0  0  0  0  0  0  0  0
    6.3210   -0.0190   19.9860 C   0  0  0  0  0  0  0  0  0  0  0  0
    5.0740    0.7840   20.1550 C   0  0  0  0  0  0  0  0  0  0  0  0
    4.5480    1.4930   19.0970 C   0  0  0  0  0  0  0  0  0  0  0  0
    5.1520    1.4860   17.8480 C   0  0  0  0  0  0  0  0  0  0  0  0
    6.3670    0.6980   17.6720 N   0  0  0  0  0  0  0  0  0  0  0  0
    6.8800   -0.0040   18.7310 C   0  0  0  0  0  0  0  0  0  0  0  0
   10.4470    1.9630   23.0560 C   0  0  0  0  0  0  0  0  0  0  0  0
   12.0180    1.7990   22.8500 C   0  0  0  0  0  0  0  0  0  0  0  0
   11.7700    3.1510   22.7640 N   0  0  0  0  0  0  0  0  0  0  0  0
   10.6810    3.5700   23.1830 O   0  0  0  0  0  0  0  0  0  0  0  0
   12.6390    3.8650   22.2470 O   0  0  0  0  0  0  0  0  0  0  0  0
   11.8860    0.1690   23.0200 C   0  0  0  0  0  0  0  0  0  0  0  0
   12.1340   -1.2030   23.1080 O   0  0  0  0  0  0  0  0  0  0  0  0
   12.5440   -1.6720   24.4170 C   0  0  0  0  0  0  0  0  0  0  0  0
  1  2  1  0
  2  3  1  0
  3  4  2  0
  4  5  1  0
  5  6  1  0
  6  7  1  0
  7  8  1  0
  8  9  1  0
  9 10  2  0
  9 11  1  0
 11 12  1  0
 12 13  2  0
 13 14  1  0
 14 15  2  0
 15 16  1  0
 12 17  1  0
 16 17  2  0
  5 18  2  0
 18 19  1  0
 19 20  1  0
 20 21  2  0
 20 22  1  0
  3 23  1  0
 19 23  2  0
 23 24  1  0
 24 25  1  0
M  CHG  2  20   1  22  -1
M  END
