pyridine_urea_14636
     RDKit          3D

 21 23  0  0  0  0  0  0  0  0999 V2000
   12.8630    2.2940   22.7850 C   0  0  0  0  0  0  0  0  0  0  0  0
   12.6220    0.8080   22.7010 C   0  0  0  0  0  0  0  0  0  0  0  0
   11.5740    0.2340   23.0670 C   0  0  0  0  0  0  0  0  0  0  0  0
   12.1850   -1.0980   22.5650 C   0  0  0  0  0  0  0  0  0  0  0  0
   13.3400   -1.5300   21.9790 C   0  0  0  0  0  0  0  0  0  0  0  0
   11.1360   -1.7510   22.8800 C   0  0  0  0  0  0  0  0  0  0  0  0
   11.7690   -0.3920   22.8930 C   0  0  0  0  0  0  0  0  0  0  0  0
   13.1770   -0.2530   22.3180 C   0  0  0  0  0  0  0  0  0  0  0  0
   10.9450    0.6790   23.4900 C   0  0  0  0  0  0  0  0  0  0  0  0
    9.9530   -0.1030   24.0750 C   0  0  0  0  0  0  0  0  0  0  0  0
    9.8950   -1.3890   23.4660 C   0  0  1  0  0  0  0  0  0  0  0  0
    8.9060   -1.4650   22.4590 N   0  0  0  0  0  0  0  0  0  0  0  0
    8.4200   -0.4350   21.6580 C   0  0  0  0  0  0  0  0  0  0  0  0
    9.0080    0.6200   21.4600 O   0  0  0  0  0  0  0  0  0  0  0  0
    7.1780   -0.7610   21.1340 N   0  0  0  0  0  0  0  0  0  0  0  0
    6.5050   -0.0620   20.0440 C   0  0  0  0  0  0  0  0  0  0  0  0
    5.3360    0.6610   20.2820 C   0  0  0  0  0  0  0  0  0  0  0  0
    4.6520    1.3580   19.2920 C   0  0  0  0  0  0  0  0  0  0  0  0
    5.1920    1.3100   18.0160 C   0  0  0  0  0  0  0  0  0  0  0  0
    6.3140    0.6230   17.7310 N   0  0  0  0  0  0  0  0  0  0  0  0
    6.9390   -0.0420   18.7350 C   0  0  0  0  0  0  0  0  0  0  0  0
  1  2  1  0
  2  3  2  0
  3  4  1  0
  4  5  1  0
  4  6  2  0
  6  7  1  0
  2  8  1  0
  7  8  2  0
  7  9  1  0
  9 10  1  0
  6 11  1  0
 10 11  1  0
 11 12  1  6
 12 13  1  0
 13 14  2  0
 13 15  1  0
 15 16  1  0
 16 17  2  0
 17 18  1  0
 18 19  2  0
 19 20  1  0
 16 21  1  0
 20 21  2  0
M  END
