pyridine_urea_14273
     RDKit          3D

 22 24  0  0  0  0  0  0  0  0999 V2000
   11.9930    6.7900   23.9790 C   0  0  0  0  0  0  0  0  0  0  0  0
   12.3840    5.4180   23.5240 C   0  0  0  0  0  0  0  0  0  0  0  0
   13.6340    5.1190   22.9620 C   0  0  0  0  0  0  0  0  0  0  0  0
   13.6040    3.7030   22.6680 N   0  0  0  0  0  0  0  0  0  0  0  0
   12.4580    3.2030   23.0040 C   0  0  0  0  0  0  0  0  0  0  0  0
   11.8960    1.9330   22.8960 C   0  0  0  0  0  0  0  0  0  0  0  0
   10.4410    2.1860   22.9400 C   0  0  0  0  0  0  0  0  0  0  0  0
    9.6410    0.9840   22.7560 C   0  0  0  0  0  0  0  0  0  0  0  0
   10.2590   -0.3350   22.5470 C   0  0  0  0  0  0  0  0  0  0  0  0
    9.1700   -1.2440   22.3080 N   0  0  0  0  0  0  0  0  0  0  0  0
    8.2380   -0.6100   21.4670 C   0  0  0  0  0  0  0  0  0  0  0  0
    8.4440    0.5090   21.0120 O   0  0  0  0  0  0  0  0  0  0  0  0
    7.1250   -1.2490   21.1990 N   0  0  0  0  0  0  0  0  0  0  0  0
    6.5260   -0.4340   20.1710 C   0  0  0  0  0  0  0  0  0  0  0  0
    5.3580    0.2950   20.4710 C   0  0  0  0  0  0  0  0  0  0  0  0
    4.7800    1.0840   19.4770 C   0  0  0  0  0  0  0  0  0  0  0  0
    5.3500    1.1430   18.2310 C   0  0  0  0  0  0  0  0  0  0  0  0
    6.4560    0.4710   17.8970 N   0  0  0  0  0  0  0  0  0  0  0  0
    7.0210   -0.3050   18.8690 C   0  0  0  0  0  0  0  0  0  0  0  0
   11.6550   -0.5240   22.5630 C   0  0  0  0  0  0  0  0  0  0  0  0
   12.4930    0.6340   22.7420 C   0  0  0  0  0  0  0  0  0  0  0  0
   11.6310    4.1950   23.5530 N   0  0  0  0  0  0  0  0  0  0  0  0
  1  2  1  0
  2  3  2  0
  3  4  1  0
  4  5  1  0
  5  6  1  0
  6  7  2  0
  7  8  1  0
  8  9  2  0
  9 10  1  0
 10 11  1  0
 11 12  2  0
 11 13  1  0
 13 14  1  0
 14 15  2  0
 15 16  1  0
 16 17  2  0
 17 18  1  0
 14 19  1  0
 18 19  2  0
  9 20  1  0
  6 21  1  0
 20 21  2  0
  2 22  1  0
  5 22  2  0
M  END
