pyridine_urea_4611
     RDKit          3D

 22 23  0  0  0  0  0  0  0  0999 V2000
   13.4010   -2.3890   24.8390 C   0  0  0  0  0  0  0  0  0  0  0  0
   13.3590   -1.9250   23.4940 O   0  0  0  0  0  0  0  0  0  0  0  0
   12.4910   -0.9030   23.2760 C   0  0  0  0  0  0  0  0  0  0  0  0
   12.9710    0.5250   23.1630 C   0  0  0  0  0  0  0  0  0  0  0  0
   12.1150    1.5720   22.9630 C   0  0  0  0  0  0  0  0  0  0  0  0
   10.7400    1.4260   22.8240 C   0  0  0  0  0  0  0  0  0  0  0  0
   10.2600    0.1200   22.9050 C   0  0  0  0  0  0  0  0  0  0  0  0
    8.8400   -0.1980   22.7360 N   0  0  0  0  0  0  0  0  0  0  0  0
    8.3220    0.3680   21.5980 C   0  0  0  0  0  0  0  0  0  0  0  0
    8.7810    1.4010   21.1080 O   0  0  0  0  0  0  0  0  0  0  0  0
    7.2610   -0.3120   21.0810 N   0  0  0  0  0  0  0  0  0  0  0  0
    6.4940    0.2060   20.0940 C   0  0  0  0  0  0  0  0  0  0  0  0
    5.3120    0.8900   20.2620 C   0  0  0  0  0  0  0  0  0  0  0  0
    4.5860    1.4220   19.2110 C   0  0  0  0  0  0  0  0  0  0  0  0
    5.1200    1.2270   17.9360 C   0  0  0  0  0  0  0  0  0  0  0  0
    6.2640    0.5560   17.7170 N   0  0  0  0  0  0  0  0  0  0  0  0
    6.9170    0.0640   18.7860 C   0  0  0  0  0  0  0  0  0  0  0  0
   11.1350   -1.1050   23.1540 C   0  0  0  0  0  0  0  0  0  0  0  0
   10.5220   -2.3530   23.2530 C   0  0  0  0  0  0  0  0  0  0  0  0
   11.2560   -3.2660   23.8740 F   0  0  0  0  0  0  0  0  0  0  0  0
   10.1460   -2.8390   22.0720 F   0  0  0  0  0  0  0  0  0  0  0  0
    9.3850   -2.3560   23.9700 F   0  0  0  0  0  0  0  0  0  0  0  0
  1  2  1  0
  2  3  1  0
  3  4  2  0
  4  5  1  0
  5  6  2  0
  6  7  1  0
  7  8  1  0
  8  9  1  0
  9 10  2  0
  9 11  1  0
 11 12  1  0
 12 13  2  0
 13 14  1  0
 14 15  2  0
 15 16  1  0
 12 17  1  0
 16 17  2  0
  3 18  1  0
  7 18  2  0
 18 19  1  0
 19 20  1  0
 19 21  1  0
 19 22  1  0
M  END
