pyridine_urea_5463
     RDKit          3D

 18 20  0  0  0  0  0  0  0  0999 V2000
    8.6210    0.6710   21.1730 O   0  0  0  0  0  0  0  0  0  0  0  0
    8.2610   -0.4440   21.5160 C   0  0  0  0  0  0  0  0  0  0  0  0
    9.0680   -1.2260   22.3170 N   0  0  0  0  0  0  0  0  0  0  0  0
   10.4340   -0.7740   22.4750 C   0  0  0  0  0  0  0  0  0  0  0  0
   10.6730    0.7070   22.8860 C   0  0  0  0  0  0  0  0  0  0  0  0
   11.9940    1.1130   23.0180 C   0  0  0  0  0  0  0  0  0  0  0  0
   13.0740    0.0740   22.7590 C   0  0  0  0  0  0  0  0  0  0  0  0
   12.8260   -1.2130   22.4050 N   0  0  0  0  0  0  0  0  0  0  0  0
   11.5330   -1.5970   22.2730 C   0  0  0  0  0  0  0  0  0  0  0  0
    7.0650   -1.0980   21.2150 N   0  0  0  0  0  0  0  0  0  0  0  0
    6.1210   -0.7460   20.1150 C   0  0  2  0  0  0  0  0  0  0  0  0
    6.8250   -0.2510   18.8840 C   0  0  0  0  0  0  0  0  0  0  0  0
    6.7370    1.0920   18.7650 N   0  0  0  0  0  0  0  0  0  0  0  0
    5.4300    1.4920   18.4430 C   0  0  0  0  0  0  0  0  0  0  0  0
    4.3850    0.7020   19.1780 C   0  0  0  0  0  0  0  0  0  0  0  0
    5.1210    0.1760   20.4070 C   0  0  0  0  0  0  0  0  0  0  0  0
    5.8800    1.4010   20.8360 C   0  0  0  0  0  0  0  0  0  0  0  0
    7.0170    1.5070   20.0420 C   0  0  0  0  0  0  0  0  0  0  0  0
  1  2  2  0
  2  3  1  0
  3  4  1  0
  4  5  2  0
  5  6  1  0
  6  7  2  0
  7  8  1  0
  4  9  1  0
  8  9  2  0
  2 10  1  0
 11 10  1  1
 11 12  1  0
 12 13  1  0
 13 14  1  0
 14 15  1  0
 11 16  1  0
 15 16  1  0
 16 17  1  0
 13 18  1  0
 17 18  1  0
M  END
