pyridine_urea_4283
     RDKit          3D

 24 26  0  0  0  0  0  0  0  0999 V2000
    8.5470    1.1900   20.9590 O   0  0  0  0  0  0  0  0  0  0  0  0
    7.9840    0.2900   21.5970 C   0  0  0  0  0  0  0  0  0  0  0  0
    7.0470   -0.5590   21.0740 N   0  0  0  0  0  0  0  0  0  0  0  0
    6.3920    0.0780   19.9900 C   0  0  0  0  0  0  0  0  0  0  0  0
    5.1010    0.8170   20.2990 C   0  0  0  0  0  0  0  0  0  0  0  0
    4.4200    1.5310   19.1410 C   0  0  0  0  0  0  0  0  0  0  0  0
    5.1330    1.4140   17.7950 C   0  0  0  0  0  0  0  0  0  0  0  0
    6.3190    0.6810   17.6830 N   0  0  0  0  0  0  0  0  0  0  0  0
    6.9120    0.0460   18.7250 C   0  0  0  0  0  0  0  0  0  0  0  0
    8.2570    0.0860   22.9180 N   0  0  0  0  0  0  0  0  0  0  0  0
    9.5050    0.6090   23.2010 C   0  0  1  0  0  0  0  0  0  0  0  0
   10.1100    0.5950   24.4390 C   0  0  0  0  0  0  0  0  0  0  0  0
   10.9350   -0.4940   24.5110 C   0  0  0  0  0  0  0  0  0  0  0  0
   12.2730   -0.4550   24.7950 C   0  0  0  0  0  0  0  0  0  0  0  0
   13.0100   -1.6230   24.8340 C   0  0  0  0  0  0  0  0  0  0  0  0
   12.4250   -2.8200   24.5880 C   0  0  0  0  0  0  0  0  0  0  0  0
   10.9810   -2.8730   24.2750 C   0  0  0  0  0  0  0  0  0  0  0  0
   10.2760   -1.6920   24.2500 C   0  0  0  0  0  0  0  0  0  0  0  0
   10.4110   -0.2780   22.3790 C   0  0  0  0  0  0  0  0  0  0  0  0
   11.6880    0.0520   22.6520 C   0  0  0  0  0  0  0  0  0  0  0  0
   13.1130    0.2170   22.8510 C   0  0  0  0  0  0  0  0  0  0  0  0
   13.4920   -1.3100   22.0850 S   0  0  0  0  0  0  0  0  0  0  0  0
   12.1920   -2.0400   21.5970 C   0  0  0  0  0  0  0  0  0  0  0  0
   11.4540   -1.1260   22.0210 N   0  0  0  0  0  0  0  0  0  0  0  0
  1  2  2  0
  2  3  1  0
  3  4  1  0
  4  5  2  0
  5  6  1  0
  6  7  2  0
  7  8  1  0
  4  9  1  0
  8  9  2  0
  2 10  1  0
 10 11  1  0
 11 12  1  1
 12 13  1  0
 13 14  2  0
 14 15  1  0
 15 16  2  0
 16 17  1  0
 13 18  1  0
 17 18  2  0
 11 19  1  0
 19 20  1  0
 20 21  2  0
 21 22  1  0
 22 23  1  0
 20 24  1  0
 23 24  2  0
M  END
