pyridine_urea_8379
     RDKit          3D

 22 24  0  0  0  0  0  0  0  0999 V2000
    8.7030    1.2400   21.1320 O   0  0  0  0  0  0  0  0  0  0  0  0
    8.2130    0.1870   21.5610 C   0  0  0  0  0  0  0  0  0  0  0  0
    8.7540   -0.4160   22.6500 N   0  0  0  0  0  0  0  0  0  0  0  0
   10.1810   -0.4160   22.6110 C   0  0  0  0  0  0  0  0  0  0  0  0
   10.8920    0.9800   22.6460 C   0  0  0  0  0  0  0  0  0  0  0  0
   10.4240    2.2580   22.5880 C   0  0  0  0  0  0  0  0  0  0  0  0
   11.6220    3.0930   22.6610 N   0  0  0  0  0  0  0  0  0  0  0  0
   12.6880    2.1710   22.7640 N   0  0  0  0  0  0  0  0  0  0  0  0
   12.1780    0.9350   22.7480 N   0  0  0  0  0  0  0  0  0  0  0  0
   12.6500   -0.3730   22.8520 C   0  0  0  0  0  0  0  0  0  0  0  0
   12.7570   -1.4600   22.0030 C   0  0  0  0  0  0  0  0  0  0  0  0
   13.2820   -2.7340   22.5440 C   0  0  0  0  0  0  0  0  0  0  0  0
   13.6980   -2.9330   23.9710 C   0  0  0  0  0  0  0  0  0  0  0  0
   13.5680   -1.7430   24.8170 C   0  0  0  0  0  0  0  0  0  0  0  0
   13.0390   -0.5190   24.1190 C   0  0  0  0  0  0  0  0  0  0  0  0
    7.1400   -0.4470   21.0360 N   0  0  0  0  0  0  0  0  0  0  0  0
    6.4770    0.1550   19.9590 C   0  0  0  0  0  0  0  0  0  0  0  0
    5.1980    0.9250   20.2010 C   0  0  0  0  0  0  0  0  0  0  0  0
    4.5630    1.5460   19.1340 C   0  0  0  0  0  0  0  0  0  0  0  0
    5.1020    1.4630   17.8470 C   0  0  0  0  0  0  0  0  0  0  0  0
    6.3300    0.6990   17.6550 N   0  0  0  0  0  0  0  0  0  0  0  0
    6.9360    0.1010   18.6810 C   0  0  0  0  0  0  0  0  0  0  0  0
  1  2  2  0
  2  3  1  0
  3  4  1  0
  4  5  1  0
  5  6  2  0
  6  7  1  0
  7  8  2  0
  5  9  1  0
  8  9  1  0
  9 10  1  0
 10 11  2  0
 11 12  1  0
 12 13  2  0
 13 14  1  0
 10 15  1  0
 14 15  2  0
  2 16  1  0
 16 17  1  0
 17 18  2  0
 18 19  1  0
 19 20  2  0
 20 21  1  0
 17 22  1  0
 21 22  2  0
M  END
