pyridine_urea_1925
     RDKit          3D

 21 22  0  0  0  0  0  0  0  0999 V2000
   11.1420    3.9450   23.2460 C   0  0  0  0  0  0  0  0  0  0  0  0
   11.3610    2.6570   23.8210 O   0  0  0  0  0  0  0  0  0  0  0  0
   12.4360    2.0230   23.2750 C   0  0  0  0  0  0  0  0  0  0  0  0
   13.3520    2.6520   22.7750 O   0  0  0  0  0  0  0  0  0  0  0  0
   12.3140    0.5110   23.3210 C   0  0  0  0  0  0  0  0  0  0  0  0
   12.9600   -0.4330   22.3380 N   0  0  0  0  0  0  0  0  0  0  0  0
   12.2990   -1.6170   22.7500 O   0  0  0  0  0  0  0  0  0  0  0  0
   11.0230   -1.0210   23.1500 C   0  0  1  0  0  0  0  0  0  0  0  0
   10.6450    0.0450   22.2340 C   0  0  0  0  0  0  0  0  0  0  0  0
    9.7960   -1.9140   23.2510 C   0  0  0  0  0  0  0  0  0  0  0  0
    8.9200   -1.7870   22.0610 N   0  0  0  0  0  0  0  0  0  0  0  0
    8.2670   -0.6300   21.5850 C   0  0  0  0  0  0  0  0  0  0  0  0
    8.7560    0.4920   21.5560 O   0  0  0  0  0  0  0  0  0  0  0  0
    6.9310   -0.9350   21.1160 N   0  0  0  0  0  0  0  0  0  0  0  0
    6.3940   -0.1900   20.0810 C   0  0  0  0  0  0  0  0  0  0  0  0
    5.2220    0.5420   20.3160 C   0  0  0  0  0  0  0  0  0  0  0  0
    4.6870    1.2850   19.2740 C   0  0  0  0  0  0  0  0  0  0  0  0
    5.3020    1.3040   18.0290 C   0  0  0  0  0  0  0  0  0  0  0  0
    6.4180    0.6150   17.7740 N   0  0  0  0  0  0  0  0  0  0  0  0
    6.9380   -0.1150   18.8000 C   0  0  0  0  0  0  0  0  0  0  0  0
   11.4280   -0.2430   24.3370 C   0  0  0  0  0  0  0  0  0  0  0  0
  1  2  1  0
  2  3  1  0
  3  4  2  0
  3  5  1  0
  5  6  2  0
  6  7  1  0
  7  8  1  0
  8  9  1  6
  8 10  1  0
 10 11  1  0
 11 12  1  0
 12 13  2  0
 12 14  1  0
 14 15  1  0
 15 16  2  0
 16 17  1  0
 17 18  2  0
 18 19  1  0
 15 20  1  0
 19 20  2  0
  5 21  1  0
  8 21  1  0
M  END
