pyridine_urea_3308
     RDKit          3D

 20 21  0  0  0  0  0  0  0  0999 V2000
    8.9260   -2.1620   24.9830 C   0  0  0  0  0  0  0  0  0  0  0  0
    9.7100   -1.0430   25.1550 N   0  0  0  0  0  0  0  0  0  0  0  0
    9.4840   -0.0650   26.1270 C   0  0  0  0  0  0  0  0  0  0  0  0
    9.9430   -0.4140   23.8320 C   0  0  2  0  0  0  0  0  0  0  0  0
   10.0010   -1.3280   22.7900 C   0  0  0  0  0  0  0  0  0  0  0  0
    8.7290   -1.4710   22.1260 N   0  0  0  0  0  0  0  0  0  0  0  0
    8.2160   -0.3830   21.4870 C   0  0  0  0  0  0  0  0  0  0  0  0
    8.8270    0.6690   21.3470 O   0  0  0  0  0  0  0  0  0  0  0  0
    6.9540   -0.6530   21.0500 N   0  0  0  0  0  0  0  0  0  0  0  0
    6.3480    0.0280   20.0030 C   0  0  0  0  0  0  0  0  0  0  0  0
    5.1670    0.7250   20.2440 C   0  0  0  0  0  0  0  0  0  0  0  0
    4.5310    1.4780   19.0780 C   0  0  0  0  0  0  0  0  0  0  0  0
    5.1820    1.4110   17.8570 C   0  0  0  0  0  0  0  0  0  0  0  0
    6.3200    0.7140   17.6820 N   0  0  0  0  0  0  0  0  0  0  0  0
    6.8630    0.0550   18.7260 C   0  0  0  0  0  0  0  0  0  0  0  0
   11.1450    0.5100   23.8240 C   0  0  0  0  0  0  0  0  0  0  0  0
   12.4670    0.8490   23.4480 C   0  0  0  0  0  0  0  0  0  0  0  0
   13.3680    0.1670   22.7140 C   0  0  0  0  0  0  0  0  0  0  0  0
   12.9350   -1.3090   22.1490 S   0  0  0  0  0  0  0  0  0  0  0  0
   11.5150   -0.8330   22.9800 C   0  0  0  0  0  0  0  0  0  0  0  0
  1  2  1  0
  2  3  1  0
  2  4  1  0
  4  5  1  6
  5  6  1  0
  6  7  1  0
  7  8  2  0
  7  9  1  0
  9 10  1  0
 10 11  2  0
 11 12  1  0
 12 13  2  0
 13 14  1  0
 10 15  1  0
 14 15  2  0
  4 16  1  0
 16 17  1  0
 17 18  2  0
 18 19  1  0
 16 20  2  0
 19 20  1  0
M  END
