pyridine_urea_8310
     RDKit          3D

 22 23  0  0  0  0  0  0  0  0999 V2000
    8.6450    0.6840   21.2630 O   0  0  0  0  0  0  0  0  0  0  0  0
    8.1270   -0.3330   21.6740 C   0  0  0  0  0  0  0  0  0  0  0  0
    8.6180   -1.0650   22.7690 N   0  0  0  0  0  0  0  0  0  0  0  0
    9.7460   -0.5150   23.5600 C   0  0  0  0  0  0  0  0  0  0  0  0
   11.0190   -0.1230   22.7250 C   0  0  0  0  0  0  0  0  0  0  0  0
   11.2430   -1.1760   21.8530 F   0  0  0  0  0  0  0  0  0  0  0  0
   10.4410    0.8370   22.0040 F   0  0  0  0  0  0  0  0  0  0  0  0
   12.2700    0.3670   23.1640 C   0  0  0  0  0  0  0  0  0  0  0  0
   13.1160   -0.7090   23.5550 C   0  0  0  0  0  0  0  0  0  0  0  0
   12.1190   -1.4770   23.2820 C   0  0  0  0  0  0  0  0  0  0  0  0
   10.9090   -0.5590   22.8230 C   0  0  0  0  0  0  0  0  0  0  0  0
    9.4840   -1.4620   22.4250 Cl  0  0  0  0  0  0  0  0  0  0  0  0
   10.9910    1.1020   22.7350 C   0  0  0  0  0  0  0  0  0  0  0  0
    9.7580    2.2710   22.3150 Cl  0  0  0  0  0  0  0  0  0  0  0  0
   12.4030    1.6430   23.1110 C   0  0  0  0  0  0  0  0  0  0  0  0
    6.9970   -0.8620   21.1040 N   0  0  0  0  0  0  0  0  0  0  0  0
    6.4000   -0.1720   20.0680 C   0  0  0  0  0  0  0  0  0  0  0  0
    5.0910    0.5890   20.3400 C   0  0  0  0  0  0  0  0  0  0  0  0
    4.5140    1.3450   19.1400 C   0  0  0  0  0  0  0  0  0  0  0  0
    5.1700    1.3100   17.9210 C   0  0  0  0  0  0  0  0  0  0  0  0
    6.3230    0.6020   17.7670 N   0  0  0  0  0  0  0  0  0  0  0  0
    6.9240   -0.1160   18.7890 C   0  0  0  0  0  0  0  0  0  0  0  0
  1  2  2  0
  2  3  1  0
  3  4  1  0
  4  5  1  0
  5  6  1  0
  5  7  1  0
  5  8  1  0
  8  9  2  0
  9 10  1  0
 10 11  2  0
 11 12  1  0
 11 13  1  0
 13 14  1  0
  8 15  1  0
 13 15  2  0
  2 16  1  0
 16 17  1  0
 17 18  2  0
 18 19  1  0
 19 20  2  0
 20 21  1  0
 17 22  1  0
 21 22  2  0
M  END
