pyridine_urea_11577
     RDKit          3D

 18 19  0  0  0  0  0  0  0  0999 V2000
   11.9600   -1.5880   24.7040 C   0  0  0  0  0  0  0  0  0  0  0  0
   11.7270   -0.8020   23.4530 C   0  0  0  0  0  0  0  0  0  0  0  0
   12.0760    0.5170   23.1680 C   0  0  0  0  0  0  0  0  0  0  0  0
   10.3690   -1.2540   22.8450 C   0  0  1  0  0  0  0  0  0  0  0  0
    9.2950   -0.3100   22.7480 N   0  0  0  0  0  0  0  0  0  0  0  0
    8.6380    0.2530   21.6270 C   0  0  0  0  0  0  0  0  0  0  0  0
    8.9790    1.3490   21.1720 O   0  0  0  0  0  0  0  0  0  0  0  0
    7.6110   -0.5200   21.1480 N   0  0  0  0  0  0  0  0  0  0  0  0
    6.8220    0.0350   20.1660 C   0  0  0  0  0  0  0  0  0  0  0  0
    5.7060    0.7920   20.5410 C   0  0  0  0  0  0  0  0  0  0  0  0
    4.8330    1.4200   19.4300 C   0  0  0  0  0  0  0  0  0  0  0  0
    5.2150    1.1910   18.1320 C   0  0  0  0  0  0  0  0  0  0  0  0
    6.2890    0.4550   17.8110 N   0  0  0  0  0  0  0  0  0  0  0  0
    7.0460   -0.0950   18.8000 C   0  0  0  0  0  0  0  0  0  0  0  0
   10.9180   -1.6740   21.6530 C   0  0  0  0  0  0  0  0  0  0  0  0
   12.5920   -1.7450   22.2010 S   0  0  0  0  0  0  0  0  0  0  0  0
   13.4820   -0.9350   21.4140 O   0  0  0  0  0  0  0  0  0  0  0  0
   12.9850   -3.0080   22.7560 O   0  0  0  0  0  0  0  0  0  0  0  0
  2  1  1  0
  2  3  1  0
  2  4  1  0
  4  5  1  6
  5  6  1  0
  6  7  2  0
  6  8  1  0
  8  9  1  0
  9 10  2  0
 10 11  1  0
 11 12  2  0
 12 13  1  0
  9 14  1  0
 13 14  2  0
  4 15  1  0
  2 16  1  0
 16 15  1  0
 16 17  2  0
 16 18  2  0
M  END
