pyridine_urea_10986
     RDKit          3D

 19 20  0  0  0  0  0  0  0  0999 V2000
    8.8860    1.2010   21.1790 O   0  0  0  0  0  0  0  0  0  0  0  0
    8.3630    0.1320   21.5240 C   0  0  0  0  0  0  0  0  0  0  0  0
    8.8700   -0.6470   22.6330 N   0  0  0  0  0  0  0  0  0  0  0  0
   10.1400   -0.3360   23.0850 C   0  0  0  0  0  0  0  0  0  0  0  0
   10.4090    1.0060   23.3940 C   0  0  0  0  0  0  0  0  0  0  0  0
   11.7830    1.1590   23.4630 C   0  0  0  0  0  0  0  0  0  0  0  0
   12.3570   -0.0650   23.6980 C   0  0  0  0  0  0  0  0  0  0  0  0
   12.4030   -0.7940   24.9920 C   0  0  0  0  0  0  0  0  0  0  0  0
   12.9940   -2.0110   25.0540 N   0  0  0  0  0  0  0  0  0  0  0  0
   13.5690   -2.6560   23.9810 C   0  0  0  0  0  0  0  0  0  0  0  0
   13.5750   -2.0850   22.7640 N   0  0  0  0  0  0  0  0  0  0  0  0
   13.0200   -0.8660   22.6050 C   0  0  0  0  0  0  0  0  0  0  0  0
    7.2630   -0.4700   20.9710 N   0  0  0  0  0  0  0  0  0  0  0  0
    6.4790    0.1540   20.0100 C   0  0  0  0  0  0  0  0  0  0  0  0
    5.2960    0.8520   20.2350 C   0  0  0  0  0  0  0  0  0  0  0  0
    4.6090    1.4530   19.1910 C   0  0  0  0  0  0  0  0  0  0  0  0
    5.1470    1.3300   17.9300 C   0  0  0  0  0  0  0  0  0  0  0  0
    6.2800    0.6550   17.6780 N   0  0  0  0  0  0  0  0  0  0  0  0
    6.9140    0.0870   18.7130 C   0  0  0  0  0  0  0  0  0  0  0  0
  1  2  2  0
  2  3  1  0
  3  4  1  0
  4  5  1  0
  5  6  1  0
  6  7  1  0
  7  8  2  0
  8  9  1  0
  9 10  2  0
 10 11  1  0
  7 12  1  0
 11 12  2  0
  2 13  1  0
 13 14  1  0
 14 15  2  0
 15 16  1  0
 16 17  2  0
 17 18  1  0
 14 19  1  0
 18 19  2  0
M  END
