pyridine_urea_1916
     RDKit          3D

 23 25  0  0  0  0  0  0  0  0999 V2000
    6.4070   -6.7380   22.5970 C   0  0  0  0  0  0  0  0  0  0  0  0
    5.5830   -6.3820   23.7110 O   0  0  0  0  0  0  0  0  0  0  0  0
    4.4200   -5.7310   23.3940 C   0  0  0  0  0  0  0  0  0  0  0  0
    3.3590   -6.3110   23.1520 O   0  0  0  0  0  0  0  0  0  0  0  0
    4.6010   -4.2040   23.3710 C   0  0  1  0  0  0  0  0  0  0  0  0
    4.7050   -3.6070   24.7680 C   0  0  0  0  0  0  0  0  0  0  0  0
    5.9540   -2.8040   24.8350 C   0  0  0  0  0  0  0  0  0  0  0  0
    6.6990   -1.9270   25.7150 N   0  0  0  0  0  0  0  0  0  0  0  0
    7.8180   -1.5940   24.9530 N   0  0  0  0  0  0  0  0  0  0  0  0
    7.7550   -2.2130   23.7350 C   0  0  0  0  0  0  0  0  0  0  0  0
    8.6880   -2.1280   22.6990 C   0  0  0  0  0  0  0  0  0  0  0  0
    9.0660   -0.7360   22.5970 N   0  0  0  0  0  0  0  0  0  0  0  0
    8.5320    0.0580   21.6040 C   0  0  0  0  0  0  0  0  0  0  0  0
    9.0480    1.1390   21.2780 O   0  0  0  0  0  0  0  0  0  0  0  0
    7.3880   -0.4950   21.0850 N   0  0  0  0  0  0  0  0  0  0  0  0
    6.5730    0.1280   20.1440 C   0  0  0  0  0  0  0  0  0  0  0  0
    5.4030    0.8590   20.3150 C   0  0  0  0  0  0  0  0  0  0  0  0
    4.6650    1.4630   19.2910 C   0  0  0  0  0  0  0  0  0  0  0  0
    5.1360    1.3270   17.9750 C   0  0  0  0  0  0  0  0  0  0  0  0
    6.2400    0.6420   17.6690 N   0  0  0  0  0  0  0  0  0  0  0  0
    6.9230    0.0730   18.6740 C   0  0  0  0  0  0  0  0  0  0  0  0
    6.6180   -2.9430   23.6720 N   0  0  0  0  0  0  0  0  0  0  0  0
    5.9510   -3.8080   22.7040 C   0  0  0  0  0  0  0  0  0  0  0  0
  1  2  1  0
  2  3  1  0
  3  4  2  0
  5  3  1  1
  5  6  1  0
  6  7  1  0
  7  8  2  0
  8  9  1  0
  9 10  2  0
 10 11  1  0
 11 12  1  0
 12 13  1  0
 13 14  2  0
 13 15  1  0
 15 16  1  0
 16 17  2  0
 17 18  1  0
 18 19  2  0
 19 20  1  0
 16 21  1  0
 20 21  2  0
  7 22  1  0
 10 22  1  0
  5 23  1  0
 22 23  1  0
M  END
