pyridine_urea_6168
     RDKit          3D

 24 26  0  0  0  0  0  0  0  0999 V2000
   12.3880   -0.2930   24.7600 C   0  0  0  0  0  0  0  0  0  0  0  0
   12.6250    1.1190   24.6500 O   0  0  0  0  0  0  0  0  0  0  0  0
   11.9510    1.8280   23.6510 C   0  0  0  0  0  0  0  0  0  0  0  0
   11.7720    3.0060   23.3770 O   0  0  0  0  0  0  0  0  0  0  0  0
   11.5960    0.6640   23.0350 C   0  0  0  0  0  0  0  0  0  0  0  0
   10.2420    0.1900   22.9280 C   0  0  0  0  0  0  0  0  0  0  0  0
    9.8930   -0.9850   22.3080 C   0  0  0  0  0  0  0  0  0  0  0  0
    8.5430   -1.3500   22.2190 N   0  0  0  0  0  0  0  0  0  0  0  0
    7.9200   -0.4060   21.4620 C   0  0  0  0  0  0  0  0  0  0  0  0
    8.4020    0.7110   21.3090 O   0  0  0  0  0  0  0  0  0  0  0  0
    6.7610   -0.8370   20.9090 N   0  0  0  0  0  0  0  0  0  0  0  0
    6.0930   -0.0490   19.9760 C   0  0  0  0  0  0  0  0  0  0  0  0
    4.9290    0.5870   20.2610 C   0  0  0  0  0  0  0  0  0  0  0  0
    4.5220    1.3500   19.0190 C   0  0  0  0  0  0  0  0  0  0  0  0
    5.2130    1.3820   17.8280 C   0  0  0  0  0  0  0  0  0  0  0  0
    6.3400    0.7140   17.6650 N   0  0  0  0  0  0  0  0  0  0  0  0
    6.7150    0.0400   18.7420 C   0  0  0  0  0  0  0  0  0  0  0  0
   11.1950   -1.6640   21.7710 C   0  0  0  0  0  0  0  0  0  0  0  0
   10.8950   -2.8200   21.1180 N   0  0  0  0  0  0  0  0  0  0  0  0
   11.9250   -3.5390   20.5200 C   0  0  0  0  0  0  0  0  0  0  0  0
   13.2330   -3.0490   20.6790 C   0  0  0  0  0  0  0  0  0  0  0  0
   13.3460   -1.8080   21.4180 C   0  0  0  0  0  0  0  0  0  0  0  0
   12.4110   -1.0740   21.9680 C   0  0  0  0  0  0  0  0  0  0  0  0
   12.6380    0.0260   22.5700 C   0  0  0  0  0  0  0  0  0  0  0  0
  1  2  1  0
  2  3  1  0
  3  4  2  0
  3  5  1  0
  5  6  2  0
  6  7  1  0
  7  8  1  0
  8  9  1  0
  9 10  2  0
  9 11  1  0
 11 12  1  0
 12 13  2  0
 13 14  1  0
 14 15  2  0
 15 16  1  0
 12 17  1  0
 16 17  2  0
  7 18  2  0
 18 19  1  0
 19 20  2  0
 20 21  1  0
 21 22  2  0
 18 23  1  0
 22 23  1  0
  5 24  1  0
 23 24  2  0
M  END
