pyridine_urea_14425
     RDKit          3D

 21 22  0  0  0  0  0  0  0  0999 V2000
   11.7280    2.2800   22.9670 N   0  0  0  0  0  0  0  0  0  0  0  0
   11.0430    1.0990   23.0570 C   0  0  0  0  0  0  0  0  0  0  0  0
   11.8180   -0.1450   22.7090 C   0  0  0  0  0  0  0  0  0  0  0  0
   12.7970    0.8210   22.9350 C   0  0  0  0  0  0  0  0  0  0  0  0
   12.9890   -0.3800   22.6010 C   0  0  0  0  0  0  0  0  0  0  0  0
   11.7420   -1.0850   22.4730 C   0  0  0  0  0  0  0  0  0  0  0  0
   10.2940   -0.6880   22.6700 C   0  0  2  0  0  0  0  0  0  0  0  0
    9.8290   -1.3850   23.9210 C   0  0  0  0  0  0  0  0  0  0  0  0
    9.5520   -2.7140   23.7990 F   0  0  0  0  0  0  0  0  0  0  0  0
    9.5090   -1.0530   21.5920 N   0  0  0  0  0  0  0  0  0  0  0  0
    8.5990   -0.0400   21.3890 C   0  0  0  0  0  0  0  0  0  0  0  0
    8.8570    1.1550   21.4160 O   0  0  0  0  0  0  0  0  0  0  0  0
    7.3190   -0.4570   21.1030 N   0  0  0  0  0  0  0  0  0  0  0  0
    6.5620    0.1020   20.0650 C   0  0  0  0  0  0  0  0  0  0  0  0
    5.3850    0.8010   20.3740 C   0  0  0  0  0  0  0  0  0  0  0  0
    4.6660    1.3680   19.3290 C   0  0  0  0  0  0  0  0  0  0  0  0
    5.1360    1.2180   18.0510 C   0  0  0  0  0  0  0  0  0  0  0  0
    6.2380    0.5560   17.7080 N   0  0  0  0  0  0  0  0  0  0  0  0
    6.9270    0.0090   18.7320 C   0  0  0  0  0  0  0  0  0  0  0  0
   12.1500   -2.2090   22.1480 C   0  0  0  0  0  0  0  0  0  0  0  0
   13.0250   -1.0930   22.4180 C   0  0  0  0  0  0  0  0  0  0  0  0
  1  2  3  0
  2  3  1  0
  3  4  2  0
  4  5  1  0
  5  6  2  0
  6  7  1  0
  7  8  1  1
  8  9  1  0
  7 10  1  0
 10 11  1  0
 11 12  2  0
 11 13  1  0
 13 14  1  0
 14 15  2  0
 15 16  1  0
 16 17  2  0
 17 18  1  0
 14 19  1  0
 18 19  2  0
  6 20  1  0
  3 21  1  0
 20 21  2  0
M  END
