pyridine_urea_35
     RDKit          3D

 24 25  0  0  0  0  0  0  0  0999 V2000
    7.2710   -5.8320   28.6220 C   0  0  0  0  0  0  0  0  0  0  0  0
    7.9730   -5.7080   27.6580 C   0  0  0  0  0  0  0  0  0  0  0  0
    9.1430   -5.9200   26.6710 C   0  0  0  0  0  0  0  0  0  0  0  0
    9.0910   -5.0870   25.4850 N   0  0  0  0  0  0  0  0  0  0  0  0
    7.8740   -4.3930   25.8000 C   0  0  0  0  0  0  0  0  0  0  0  0
    7.3980   -3.4520   24.9120 C   0  0  2  0  0  0  0  0  0  0  0  0
    6.3390   -4.1920   24.2410 O   0  0  0  0  0  0  0  0  0  0  0  0
    8.2090   -2.7580   23.7780 C   0  0  0  0  0  0  0  0  0  0  0  0
    7.9250   -1.3200   23.5880 C   0  0  0  0  0  0  0  0  0  0  0  0
    8.8790   -0.7470   22.6460 N   0  0  0  0  0  0  0  0  0  0  0  0
    8.3700    0.0710   21.5290 C   0  0  0  0  0  0  0  0  0  0  0  0
    8.8850    1.1450   21.1870 O   0  0  0  0  0  0  0  0  0  0  0  0
    7.2810   -0.5430   21.0130 N   0  0  0  0  0  0  0  0  0  0  0  0
    6.6230    0.0670   20.0070 C   0  0  0  0  0  0  0  0  0  0  0  0
    5.4890    0.8510   20.2670 C   0  0  0  0  0  0  0  0  0  0  0  0
    4.7630    1.5170   19.2800 C   0  0  0  0  0  0  0  0  0  0  0  0
    5.1830    1.3980   17.9820 C   0  0  0  0  0  0  0  0  0  0  0  0
    6.2740    0.6430   17.6790 N   0  0  0  0  0  0  0  0  0  0  0  0
    6.9890   -0.0180   18.6790 C   0  0  0  0  0  0  0  0  0  0  0  0
    6.7100   -2.4270   25.8480 C   0  0  0  0  0  0  0  0  0  0  0  0
    6.2180   -1.3750   25.1870 F   0  0  0  0  0  0  0  0  0  0  0  0
    5.6370   -2.9840   26.4650 F   0  0  0  0  0  0  0  0  0  0  0  0
    7.5200   -1.9710   26.8260 F   0  0  0  0  0  0  0  0  0  0  0  0
    7.2550   -4.7180   26.9790 O   0  0  0  0  0  0  0  0  0  0  0  0
  1  2  1  0
  2  3  2  0
  3  4  1  0
  4  5  2  0
  5  6  1  0
  6  7  1  6
  6  8  1  0
  8  9  1  0
  9 10  1  0
 10 11  1  0
 11 12  2  0
 11 13  1  0
 13 14  1  0
 14 15  2  0
 15 16  1  0
 16 17  2  0
 17 18  1  0
 14 19  1  0
 18 19  2  0
  6 20  1  0
 20 21  1  0
 20 22  1  0
 20 23  1  0
  2 24  1  0
  5 24  1  0
M  END
