pyridine_urea_13624
     RDKit          3D

 27 30  0  0  0  0  0  0  0  0999 V2000
    9.0510    1.2300   21.2470 O   0  0  0  0  0  0  0  0  0  0  0  0
    8.7500    0.0440   21.4360 C   0  0  0  0  0  0  0  0  0  0  0  0
    7.5560   -0.5370   21.0250 N   0  0  0  0  0  0  0  0  0  0  0  0
    6.6610    0.0790   20.1310 C   0  0  0  0  0  0  0  0  0  0  0  0
    5.3710    0.8150   20.5380 C   0  0  0  0  0  0  0  0  0  0  0  0
    4.5940    1.4170   19.3660 C   0  0  0  0  0  0  0  0  0  0  0  0
    5.1590    1.2260   17.9990 C   0  0  0  0  0  0  0  0  0  0  0  0
    6.2900    0.5550   17.7520 N   0  0  0  0  0  0  0  0  0  0  0  0
    6.9820    0.0190   18.7800 C   0  0  0  0  0  0  0  0  0  0  0  0
    9.6150   -0.8490   22.0600 N   0  0  0  0  0  0  0  0  0  0  0  0
   10.4510   -0.4290   23.1860 C   0  0  2  0  0  0  0  0  0  0  0  0
   11.7480   -1.1180   23.2450 C   0  0  0  0  0  0  0  0  0  0  0  0
   12.6310   -0.6520   22.2670 C   0  0  0  0  0  0  0  0  0  0  0  0
   12.7280    0.1680   23.2860 C   0  0  0  0  0  0  0  0  0  0  0  0
   12.0390   -0.0300   24.5010 C   0  0  0  0  0  0  0  0  0  0  0  0
   11.2800   -1.3320   24.2150 C   0  0  0  0  0  0  0  0  0  0  0  0
   11.2760   -2.2070   22.8730 C   0  0  0  0  0  0  0  0  0  0  0  0
   12.0050   -1.8680   21.7840 C   0  0  0  0  0  0  0  0  0  0  0  0
    9.6260   -0.4990   24.3430 C   0  0  0  0  0  0  0  0  0  0  0  0
    9.9620   -0.0700   25.5650 N   0  0  0  0  0  0  0  0  0  0  0  0
    8.8780   -0.2690   26.5350 C   0  0  0  0  0  0  0  0  0  0  0  0
    9.0760    0.1310   27.8370 C   0  0  0  0  0  0  0  0  0  0  0  0
    7.8960   -0.1220   28.7810 C   0  0  0  0  0  0  0  0  0  0  0  0
    6.6550   -0.7820   28.1570 C   0  0  0  0  0  0  0  0  0  0  0  0
    6.6340   -1.1220   26.8000 C   0  0  0  0  0  0  0  0  0  0  0  0
    7.7370   -0.8700   25.9840 C   0  0  0  0  0  0  0  0  0  0  0  0
    7.9770   -1.1880   24.2940 S   0  0  0  0  0  0  0  0  0  0  0  0
  1  2  2  0
  2  3  1  0
  3  4  1  0
  4  5  2  0
  5  6  1  0
  6  7  2  0
  7  8  1  0
  4  9  1  0
  8  9  2  0
  2 10  1  0
 10 11  1  0
 11 12  1  1
 12 13  1  0
 13 14  2  0
 14 15  1  0
 15 16  2  0
 16 17  1  0
 13 18  1  0
 17 18  2  0
 11 19  1  0
 19 20  2  0
 20 21  1  0
 21 22  2  0
 22 23  1  0
 23 24  2  0
 24 25  1  0
 21 26  1  0
 25 26  2  0
 19 27  1  0
 26 27  1  0
M  END
