pyridine_urea_4441
     RDKit          3D

 23 24  0  0  0  0  0  0  0  0999 V2000
   13.6050    5.6430   22.6120 C   0  0  0  0  0  0  0  0  0  0  0  0
   11.8690    5.2290   22.7160 S   0  0  0  0  0  0  0  0  0  0  0  0
   11.9160    3.9650   21.4520 C   0  0  0  0  0  0  0  0  0  0  0  0
   11.0670    6.3680   22.2940 O   0  0  0  0  0  0  0  0  0  0  0  0
   11.6240    4.3440   23.9090 N   0  0  0  0  0  0  0  0  0  0  0  0
   10.6870    3.3230   23.7870 C   0  0  0  0  0  0  0  0  0  0  0  0
    9.4070    3.7150   24.0860 O   0  0  0  0  0  0  0  0  0  0  0  0
   11.0750    1.8950   23.3590 C   0  0  0  0  0  0  0  0  0  0  0  0
   12.4840    1.3110   23.2730 C   0  0  0  0  0  0  0  0  0  0  0  0
   12.7730   -0.1340   22.8200 C   0  0  0  0  0  0  0  0  0  0  0  0
   11.5800   -1.0230   22.4240 C   0  0  0  0  0  0  0  0  0  0  0  0
   10.3140   -0.4360   22.5130 C   0  0  0  0  0  0  0  0  0  0  0  0
    9.1640   -1.0810   22.1630 N   0  0  0  0  0  0  0  0  0  0  0  0
    8.2580   -0.3190   21.3860 C   0  0  0  0  0  0  0  0  0  0  0  0
    8.4840    0.8420   21.0710 O   0  0  0  0  0  0  0  0  0  0  0  0
    7.1280   -0.9390   21.0040 N   0  0  0  0  0  0  0  0  0  0  0  0
    6.4210   -0.2050   20.1010 C   0  0  0  0  0  0  0  0  0  0  0  0
    5.2270    0.4820   20.3640 C   0  0  0  0  0  0  0  0  0  0  0  0
    4.6000    1.2150   19.3520 C   0  0  0  0  0  0  0  0  0  0  0  0
    5.2500    1.2300   18.0220 C   0  0  0  0  0  0  0  0  0  0  0  0
    6.3890    0.5680   17.7850 N   0  0  0  0  0  0  0  0  0  0  0  0
    6.9370   -0.1250   18.8100 C   0  0  0  0  0  0  0  0  0  0  0  0
   10.0330    0.8550   22.9310 C   0  0  0  0  0  0  0  0  0  0  0  0
  2  1  1  0
  2  3  1  0
  2  4  2  0
  2  5  2  0
  5  6  1  0
  6  7  2  0
  6  8  1  0
  8  9  2  0
  9 10  1  0
 10 11  2  0
 11 12  1  0
 12 13  1  0
 13 14  1  0
 14 15  2  0
 14 16  1  0
 16 17  1  0
 17 18  2  0
 18 19  1  0
 19 20  2  0
 20 21  1  0
 17 22  1  0
 21 22  2  0
  8 23  1  0
 12 23  2  0
M  END
