pyridine_urea_3282
     RDKit          3D

 20 21  0  0  0  0  0  0  0  0999 V2000
    9.0460    0.9050   21.7290 O   0  0  0  0  0  0  0  0  0  0  0  0
    8.7250   -0.2470   21.4930 C   0  0  0  0  0  0  0  0  0  0  0  0
    9.5830   -1.3330   21.5430 N   0  0  0  0  0  0  0  0  0  0  0  0
   10.5180   -1.6570   22.5720 C   0  0  0  0  0  0  0  0  0  0  0  0
   11.9200   -1.6860   22.2920 C   0  0  0  0  0  0  0  0  0  0  0  0
   12.6260   -0.8350   23.1430 C   0  0  0  0  0  0  0  0  0  0  0  0
   11.6160   -0.1740   23.7520 C   0  0  0  0  0  0  0  0  0  0  0  0
   10.5440    0.7550   24.3510 C   0  0  0  0  0  0  0  0  0  0  0  0
   10.3210    2.1000   24.2340 C   0  0  0  0  0  0  0  0  0  0  0  0
   11.2510    2.9170   23.4160 C   0  0  0  0  0  0  0  0  0  0  0  0
   12.2300    2.1680   22.8830 C   0  0  0  0  0  0  0  0  0  0  0  0
   12.3870    0.7970   23.0310 C   0  0  0  0  0  0  0  0  0  0  0  0
   13.4390    0.2770   22.3980 F   0  0  0  0  0  0  0  0  0  0  0  0
    7.4420   -0.6100   21.1040 N   0  0  0  0  0  0  0  0  0  0  0  0
    6.6670   -0.0060   20.0850 C   0  0  0  0  0  0  0  0  0  0  0  0
    5.5160    0.7220   20.4360 C   0  0  0  0  0  0  0  0  0  0  0  0
    4.7490    1.3360   19.4370 C   0  0  0  0  0  0  0  0  0  0  0  0
    5.1610    1.2020   18.1250 C   0  0  0  0  0  0  0  0  0  0  0  0
    6.2530    0.5080   17.7590 N   0  0  0  0  0  0  0  0  0  0  0  0
    6.9790   -0.0810   18.7360 C   0  0  0  0  0  0  0  0  0  0  0  0
  1  2  2  0
  2  3  1  0
  3  4  1  0
  4  5  1  0
  5  6  1  0
  6  7  1  0
  7  8  2  0
  8  9  1  0
  9 10  2  0
 10 11  1  0
  7 12  1  0
 11 12  2  0
 12 13  1  0
  2 14  1  0
 14 15  1  0
 15 16  2  0
 16 17  1  0
 17 18  2  0
 18 19  1  0
 15 20  1  0
 19 20  2  0
M  END
