pyridine_urea_10698
     RDKit          3D

 20 22  0  0  0  0  0  0  0  0999 V2000
    8.8390    1.3970   21.2660 O   0  0  0  0  0  0  0  0  0  0  0  0
    8.4320    0.2340   21.2250 C   0  0  0  0  0  0  0  0  0  0  0  0
    7.1450   -0.1910   21.0950 N   0  0  0  0  0  0  0  0  0  0  0  0
    6.3550    0.3460   20.1060 C   0  0  0  0  0  0  0  0  0  0  0  0
    5.0190    1.0440   20.3540 C   0  0  0  0  0  0  0  0  0  0  0  0
    4.3810    1.5820   19.0820 C   0  0  0  0  0  0  0  0  0  0  0  0
    5.1150    1.3680   17.8010 C   0  0  0  0  0  0  0  0  0  0  0  0
    6.2830    0.7230   17.7030 N   0  0  0  0  0  0  0  0  0  0  0  0
    6.8500    0.2450   18.8170 C   0  0  0  0  0  0  0  0  0  0  0  0
    9.2560   -0.8280   21.2470 N   0  0  0  0  0  0  0  0  0  0  0  0
   10.2460   -0.9890   22.2230 C   0  0  0  0  0  0  0  0  0  0  0  0
   11.4990   -1.5150   22.0000 C   0  0  0  0  0  0  0  0  0  0  0  0
   12.3880   -1.6800   23.0080 C   0  0  0  0  0  0  0  0  0  0  0  0
   12.0900   -1.3380   24.3160 C   0  0  0  0  0  0  0  0  0  0  0  0
   13.3710   -1.7580   25.3310 Cl  0  0  0  0  0  0  0  0  0  0  0  0
   10.8660   -0.7510   24.7590 C   0  0  0  0  0  0  0  0  0  0  0  0
   10.1410   -0.2680   25.8200 C   0  0  0  0  0  0  0  0  0  0  0  0
    8.9200    0.1510   25.3960 N   0  0  0  0  0  0  0  0  0  0  0  0
    8.7460   -0.0320   24.0210 N   0  0  0  0  0  0  0  0  0  0  0  0
    9.9410   -0.5890   23.6220 C   0  0  0  0  0  0  0  0  0  0  0  0
  1  2  2  0
  2  3  1  0
  3  4  1  0
  4  5  2  0
  5  6  1  0
  6  7  2  0
  7  8  1  0
  4  9  1  0
  8  9  2  0
  2 10  1  0
 10 11  1  0
 11 12  2  0
 12 13  1  0
 13 14  2  0
 14 15  1  0
 14 16  1  0
 16 17  2  0
 17 18  1  0
 18 19  1  0
 11 20  1  0
 16 20  1  0
 19 20  2  0
M  END
