pyridine_urea_10833
     RDKit          3D

 20 21  0  0  0  0  0  0  0  0999 V2000
    9.1100    1.0920   20.8130 O   0  0  0  0  0  0  0  0  0  0  0  0
    8.2300    0.3060   21.2270 C   0  0  0  0  0  0  0  0  0  0  0  0
    6.8190    0.3060   21.1760 N   0  0  0  0  0  0  0  0  0  0  0  0
    6.2790    0.4390   20.0420 C   0  0  0  0  0  0  0  0  0  0  0  0
    4.9020    0.8580   19.9340 C   0  0  0  0  0  0  0  0  0  0  0  0
    4.3080    1.0340   18.6790 C   0  0  0  0  0  0  0  0  0  0  0  0
    5.1440    0.7380   17.5020 C   0  0  0  0  0  0  0  0  0  0  0  0
    6.4310    0.2590   17.6130 N   0  0  0  0  0  0  0  0  0  0  0  0
    6.9980    0.1420   18.8740 C   0  0  0  0  0  0  0  0  0  0  0  0
    8.5100   -0.8070   21.9920 N   0  0  0  0  0  0  0  0  0  0  0  0
    9.4760   -0.8720   22.9250 C   0  0  2  0  0  0  0  0  0  0  0  0
    9.3990    0.2220   23.9020 C   0  0  0  0  0  0  0  0  0  0  0  0
    9.9270   -0.1950   25.0070 O   0  0  0  0  0  0  0  0  0  0  0  0
   11.0040   -0.7560   22.5150 C   0  0  0  0  0  0  0  0  0  0  0  0
   11.6550   -0.9750   21.8690 C   0  0  0  0  0  0  0  0  0  0  0  0
   12.3660   -0.1670   22.8980 C   0  0  0  0  0  0  0  0  0  0  0  0
   11.6200   -1.0050   21.8350 C   0  0  0  0  0  0  0  0  0  0  0  0
   12.3650   -0.1690   22.8960 C   0  0  0  0  0  0  0  0  0  0  0  0
   13.9920    0.5410   23.1590 Br  0  0  0  0  0  0  0  0  0  0  0  0
   12.4880   -0.5930   22.2200 C   0  0  0  0  0  0  0  0  0  0  0  0
  1  2  2  0
  2  3  1  0
  3  4  1  0
  4  5  2  0
  5  6  1  0
  6  7  2  0
  7  8  1  0
  4  9  1  0
  8  9  2  0
  2 10  1  0
 10 11  1  0
 11 12  1  1
 12 13  1  0
 11 14  1  0
 14 15  2  0
 15 16  1  0
 16 17  2  0
 17 18  1  0
 18 19  1  0
 14 20  1  0
 18 20  2  0
M  END
