pyridine_urea_8620
     RDKit          3D

 21 22  0  0  0  0  0  0  0  0999 V2000
   13.9490   -3.4250   20.3210 C   0  0  0  0  0  0  0  0  0  0  0  0
   13.2040   -2.3270   20.9260 C   0  0  0  0  0  0  0  0  0  0  0  0
   13.7860   -1.1930   20.5370 C   0  0  0  0  0  0  0  0  0  0  0  0
   13.1560   -2.2410   22.4580 C   0  0  0  0  0  0  0  0  0  0  0  0
   13.7450   -3.0690   23.1200 O   0  0  0  0  0  0  0  0  0  0  0  0
   12.3980   -1.1910   22.8480 C   0  0  0  0  0  0  0  0  0  0  0  0
   12.8060    0.0920   23.5110 C   0  0  0  0  0  0  0  0  0  0  0  0
   11.8320    1.0310   23.8140 C   0  0  0  0  0  0  0  0  0  0  0  0
   10.3820    0.7120   23.4550 C   0  0  0  0  0  0  0  0  0  0  0  0
   10.1120   -0.5010   22.8340 C   0  0  0  0  0  0  0  0  0  0  0  0
    8.7440   -0.7220   22.5000 N   0  0  0  0  0  0  0  0  0  0  0  0
    8.1850    0.0480   21.5270 C   0  0  0  0  0  0  0  0  0  0  0  0
    8.7240    1.2620   21.1230 O   0  0  0  0  0  0  0  0  0  0  0  0
    7.0420   -0.5180   21.0240 N   0  0  0  0  0  0  0  0  0  0  0  0
    6.3880    0.0970   19.9730 C   0  0  0  0  0  0  0  0  0  0  0  0
    5.2030    0.7940   20.2240 C   0  0  0  0  0  0  0  0  0  0  0  0
    4.5600    1.4340   19.1670 C   0  0  0  0  0  0  0  0  0  0  0  0
    5.1380    1.3440   17.9120 C   0  0  0  0  0  0  0  0  0  0  0  0
    6.2690    0.6690   17.6570 N   0  0  0  0  0  0  0  0  0  0  0  0
    6.8720    0.0600   18.6860 C   0  0  0  0  0  0  0  0  0  0  0  0
   11.0950   -1.4120   22.5470 C   0  0  0  0  0  0  0  0  0  0  0  0
  1  2  1  0
  2  3  1  0
  2  4  1  0
  4  5  2  0
  4  6  1  0
  6  7  2  0
  7  8  1  0
  8  9  2  0
  9 10  1  0
 10 11  1  0
 11 12  1  0
 12 13  2  0
 12 14  1  0
 14 15  1  0
 15 16  2  0
 16 17  1  0
 17 18  2  0
 18 19  1  0
 15 20  1  0
 19 20  2  0
  6 21  1  0
 10 21  2  0
M  END
