pyridine_urea_11843
     RDKit          3D

 25 27  0  0  0  0  0  0  0  0999 V2000
    8.2980    0.9260   21.0160 O   0  0  0  0  0  0  0  0  0  0  0  0
    8.0340   -0.2670   21.1150 C   0  0  0  0  0  0  0  0  0  0  0  0
    6.8360   -0.7970   20.8050 N   0  0  0  0  0  0  0  0  0  0  0  0
    6.1990   -0.0620   19.8400 C   0  0  0  0  0  0  0  0  0  0  0  0
    4.9620    0.5340   20.0730 C   0  0  0  0  0  0  0  0  0  0  0  0
    4.3850    1.2950   19.0650 C   0  0  0  0  0  0  0  0  0  0  0  0
    5.0730    1.4250   17.8700 C   0  0  0  0  0  0  0  0  0  0  0  0
    6.2590    0.8480   17.6330 N   0  0  0  0  0  0  0  0  0  0  0  0
    6.7840    0.1240   18.6200 C   0  0  0  0  0  0  0  0  0  0  0  0
    8.9720   -1.1240   21.5240 N   0  0  0  0  0  0  0  0  0  0  0  0
    9.8270   -0.3750   22.3770 C   0  0  1  0  0  0  0  0  0  0  0  0
    9.5960   -0.5790   23.8240 C   0  0  0  0  0  0  0  0  0  0  0  0
   10.5530   -1.4630   24.1790 C   0  0  0  0  0  0  0  0  0  0  0  0
   10.3360   -2.7560   24.5090 C   0  0  0  0  0  0  0  0  0  0  0  0
   11.3850   -3.5440   24.8380 C   0  0  0  0  0  0  0  0  0  0  0  0
   12.7020   -3.0860   24.8520 C   0  0  0  0  0  0  0  0  0  0  0  0
   13.0490   -1.8060   24.5280 C   0  0  0  0  0  0  0  0  0  0  0  0
   11.9270   -0.8970   24.1590 C   0  0  0  0  0  0  0  0  0  0  0  0
   11.2710   -0.6060   22.3660 C   0  0  0  0  0  0  0  0  0  0  0  0
   12.6780   -0.4720   22.4330 C   0  0  0  0  0  0  0  0  0  0  0  0
   13.6580    0.5150   22.6650 C   0  0  0  0  0  0  0  0  0  0  0  0
   12.9180    1.6720   22.8790 C   0  0  0  0  0  0  0  0  0  0  0  0
   11.6240    1.7900   22.8660 C   0  0  0  0  0  0  0  0  0  0  0  0
   10.8920    0.7230   22.6300 C   0  0  0  0  0  0  0  0  0  0  0  0
    9.5700    1.0690   22.6670 F   0  0  0  0  0  0  0  0  0  0  0  0
  1  2  2  0
  2  3  1  0
  3  4  1  0
  4  5  2  0
  5  6  1  0
  6  7  2  0
  7  8  1  0
  4  9  1  0
  8  9  2  0
  2 10  1  0
 10 11  1  0
 11 12  1  1
 12 13  1  0
 13 14  2  0
 14 15  1  0
 15 16  2  0
 16 17  1  0
 13 18  1  0
 17 18  2  0
 11 19  1  0
 19 20  2  0
 20 21  1  0
 21 22  2  0
 22 23  1  0
 19 24  1  0
 23 24  2  0
 24 25  1  0
M  END
