pyridine_urea_12208
     RDKit          3D

 22 24  0  0  0  0  0  0  0  0999 V2000
   11.7050    5.2160   24.0370 C   0  0  0  0  0  0  0  0  0  0  0  0
   11.6650    4.0600   23.2910 N   0  0  0  0  0  0  0  0  0  0  0  0
   10.5830    3.2190   23.1470 C   0  0  0  0  0  0  0  0  0  0  0  0
   10.8960    1.8690   22.9230 C   0  0  0  0  0  0  0  0  0  0  0  0
    9.9430    0.9200   22.7360 C   0  0  0  0  0  0  0  0  0  0  0  0
   10.1320   -0.3960   22.4920 C   0  0  0  0  0  0  0  0  0  0  0  0
    9.1050   -1.2210   22.2750 N   0  0  0  0  0  0  0  0  0  0  0  0
    8.2100   -0.5500   21.4700 C   0  0  0  0  0  0  0  0  0  0  0  0
    8.4750    0.5780   21.0650 O   0  0  0  0  0  0  0  0  0  0  0  0
    7.0370   -1.2020   21.1630 N   0  0  0  0  0  0  0  0  0  0  0  0
    6.4560   -0.3520   20.0890 C   0  0  0  0  0  0  0  0  0  0  0  0
    5.2060    0.4720   20.3540 C   0  0  0  0  0  0  0  0  0  0  0  0
    4.6380    1.2850   19.3540 C   0  0  0  0  0  0  0  0  0  0  0  0
    5.2320    1.3430   18.0820 C   0  0  0  0  0  0  0  0  0  0  0  0
    6.4350    0.5510   17.8220 N   0  0  0  0  0  0  0  0  0  0  0  0
    6.9730   -0.2410   18.8180 C   0  0  0  0  0  0  0  0  0  0  0  0
   11.5720   -0.8890   22.4500 C   0  0  0  0  0  0  0  0  0  0  0  0
   12.6350    0.0150   22.6360 C   0  0  0  0  0  0  0  0  0  0  0  0
   12.3750    1.3870   22.8580 C   0  0  0  0  0  0  0  0  0  0  0  0
   13.2310    2.4190   23.0220 N   0  0  0  0  0  0  0  0  0  0  0  0
   12.8320    3.6850   22.7050 C   0  0  0  0  0  0  0  0  0  0  0  0
   13.5400    4.5080   21.8710 O   0  0  0  0  0  0  0  0  0  0  0  0
  1  2  1  0
  2  3  1  0
  3  4  1  0
  4  5  1  0
  5  6  2  0
  6  7  1  0
  7  8  1  0
  8  9  2  0
  8 10  1  0
 10 11  1  0
 11 12  2  0
 12 13  1  0
 13 14  2  0
 14 15  1  0
 11 16  1  0
 15 16  2  0
  6 17  1  0
 17 18  2  0
  4 19  2  0
 18 19  1  0
 19 20  1  0
  2 21  1  0
 20 21  1  0
 21 22  2  0
M  END
