pyridine_urea_14440
     RDKit          3D

 21 22  0  0  0  0  0  0  0  0999 V2000
    8.6750    1.1660   21.0120 O   0  0  0  0  0  0  0  0  0  0  0  0
    7.9590    0.2210   21.3760 C   0  0  0  0  0  0  0  0  0  0  0  0
    8.0000   -0.3460   22.6590 N   0  0  0  0  0  0  0  0  0  0  0  0
    9.2370   -0.4760   23.1080 C   0  0  0  0  0  0  0  0  0  0  0  0
   10.1970   -0.8670   22.1340 C   0  0  0  0  0  0  0  0  0  0  0  0
   11.5140   -1.0480   22.4640 C   0  0  0  0  0  0  0  0  0  0  0  0
   11.8280   -0.8330   23.7640 C   0  0  0  0  0  0  0  0  0  0  0  0
   13.2980   -1.0310   24.2670 S   0  0  0  0  0  0  0  0  0  0  0  0
   13.9150   -0.3450   23.1700 O   0  0  0  0  0  0  0  0  0  0  0  0
   13.2180   -0.5690   25.6310 O   0  0  0  0  0  0  0  0  0  0  0  0
   13.3400   -2.7940   24.2090 C   0  0  0  0  0  0  0  0  0  0  0  0
   12.1020   -3.2870   24.3320 F   0  0  0  0  0  0  0  0  0  0  0  0
   10.8790   -0.4210   24.8100 C   0  0  0  0  0  0  0  0  0  0  0  0
    9.4950   -0.2320   24.4380 C   0  0  0  0  0  0  0  0  0  0  0  0
    7.0050   -0.4600   20.6900 N   0  0  0  0  0  0  0  0  0  0  0  0
    6.3100    0.1890   19.7820 C   0  0  0  0  0  0  0  0  0  0  0  0
    5.0840    0.7850   20.0330 C   0  0  0  0  0  0  0  0  0  0  0  0
    4.4610    1.4670   18.9970 C   0  0  0  0  0  0  0  0  0  0  0  0
    5.1010    1.5130   17.7760 C   0  0  0  0  0  0  0  0  0  0  0  0
    6.2800    0.9350   17.5100 N   0  0  0  0  0  0  0  0  0  0  0  0
    6.8640    0.2670   18.5600 C   0  0  0  0  0  0  0  0  0  0  0  0
  1  2  2  0
  2  3  1  0
  3  4  1  0
  4  5  2  0
  5  6  1  0
  6  7  2  0
  7  8  1  0
  8  9  2  0
  8 10  2  0
  8 11  1  0
 11 12  1  0
  7 13  1  0
  4 14  1  0
 13 14  2  0
  2 15  1  0
 15 16  1  0
 16 17  2  0
 17 18  1  0
 18 19  2  0
 19 20  1  0
 16 21  1  0
 20 21  2  0
M  END
