pyridine_urea_908
     RDKit          3D

 22 23  0  0  0  0  0  0  0  0999 V2000
   13.1100    0.9590   22.8900 C   0  0  0  0  0  0  0  0  0  0  0  0
   13.7920   -0.2410   22.5320 O   0  0  0  0  0  0  0  0  0  0  0  0
   13.2610   -1.2460   23.2470 C   0  0  0  0  0  0  0  0  0  0  0  0
   11.9670   -1.5150   23.0940 C   0  0  0  0  0  0  0  0  0  0  0  0
   11.3690   -2.5010   23.8180 C   0  0  0  0  0  0  0  0  0  0  0  0
   10.1190   -2.6780   23.6730 N   0  0  0  0  0  0  0  0  0  0  0  0
    9.9510   -1.4300   24.2080 C   0  0  0  0  0  0  0  0  0  0  0  0
   10.2490   -0.2070   23.4260 C   0  0  0  0  0  0  0  0  0  0  0  0
   10.1570   -0.6710   22.0210 C   0  0  0  0  0  0  0  0  0  0  0  0
    8.8480   -1.1820   21.8200 N   0  0  0  0  0  0  0  0  0  0  0  0
    8.0660   -0.1880   21.3530 C   0  0  0  0  0  0  0  0  0  0  0  0
    8.4410    0.9770   21.2500 O   0  0  0  0  0  0  0  0  0  0  0  0
    6.8380   -0.6190   20.9810 N   0  0  0  0  0  0  0  0  0  0  0  0
    6.2540    0.0470   19.9300 C   0  0  0  0  0  0  0  0  0  0  0  0
    5.0620    0.7310   20.1130 C   0  0  0  0  0  0  0  0  0  0  0  0
    4.4780    1.4280   19.0680 C   0  0  0  0  0  0  0  0  0  0  0  0
    5.1310    1.4090   17.8530 C   0  0  0  0  0  0  0  0  0  0  0  0
    6.2810    0.7470   17.6470 N   0  0  0  0  0  0  0  0  0  0  0  0
    6.8190    0.0810   18.6800 C   0  0  0  0  0  0  0  0  0  0  0  0
   11.9900   -3.3180   24.7320 N   0  0  0  0  0  0  0  0  0  0  0  0
   13.2930   -3.0090   24.8430 C   0  0  0  0  0  0  0  0  0  0  0  0
   13.8600   -2.0470   24.1520 N   0  0  0  0  0  0  0  0  0  0  0  0
  1  2  1  0
  2  3  1  0
  3  4  2  0
  4  5  1  0
  5  6  1  0
  6  7  1  0
  7  8  1  0
  8  9  1  0
  9 10  1  0
 10 11  1  0
 11 12  2  0
 11 13  1  0
 13 14  1  0
 14 15  2  0
 15 16  1  0
 16 17  2  0
 17 18  1  0
 14 19  1  0
 18 19  2  0
  5 20  2  0
 20 21  1  0
  3 22  1  0
 21 22  2  0
M  END
