pyridine_urea_8523
     RDKit          3D

 22 23  0  0  0  0  0  0  0  0999 V2000
    9.1880    1.4290   23.0660 C   0  0  0  0  0  0  0  0  0  0  0  0
   10.4680    0.6810   22.8430 C   0  0  0  0  0  0  0  0  0  0  0  0
   11.6870    1.1990   23.0320 C   0  0  0  0  0  0  0  0  0  0  0  0
   11.6390    2.4830   23.4170 C   0  0  0  0  0  0  0  0  0  0  0  0
   12.6630    3.0330   23.1000 O   0  0  0  0  0  0  0  0  0  0  0  0
   12.3170    4.3330   22.6180 C   0  0  0  0  0  0  0  0  0  0  0  0
   12.4770    5.4680   23.6160 C   0  0  0  0  0  0  0  0  0  0  0  0
   13.1410    4.4580   21.5060 C   0  0  0  0  0  0  0  0  0  0  0  0
   12.8450    0.4560   22.8220 C   0  0  0  0  0  0  0  0  0  0  0  0
   12.8120   -0.8740   22.3860 C   0  0  0  0  0  0  0  0  0  0  0  0
   11.5720   -1.4940   22.1390 C   0  0  0  0  0  0  0  0  0  0  0  0
   10.4110   -0.7420   22.3560 C   0  0  0  0  0  0  0  0  0  0  0  0
    9.1110   -1.3080   22.0850 N   0  0  0  0  0  0  0  0  0  0  0  0
    8.2350   -0.5310   21.3910 C   0  0  0  0  0  0  0  0  0  0  0  0
    8.6030    0.7590   21.1040 O   0  0  0  0  0  0  0  0  0  0  0  0
    7.0410   -0.9900   20.9730 N   0  0  0  0  0  0  0  0  0  0  0  0
    6.3250   -0.2180   20.0390 C   0  0  0  0  0  0  0  0  0  0  0  0
    5.1230    0.4430   20.2580 C   0  0  0  0  0  0  0  0  0  0  0  0
    4.5480    1.1860   19.2260 C   0  0  0  0  0  0  0  0  0  0  0  0
    5.1990    1.2470   17.9990 C   0  0  0  0  0  0  0  0  0  0  0  0
    6.3580    0.6140   17.7630 N   0  0  0  0  0  0  0  0  0  0  0  0
    6.8860   -0.0950   18.7780 C   0  0  0  0  0  0  0  0  0  0  0  0
  1  2  1  0
  2  3  2  0
  3  4  1  0
  4  5  1  0
  5  6  1  0
  6  7  1  0
  6  8  1  0
  3  9  1  0
  9 10  2  0
 10 11  1  0
  2 12  1  0
 11 12  2  0
 12 13  1  0
 13 14  1  0
 14 15  2  0
 14 16  1  0
 16 17  1  0
 17 18  2  0
 18 19  1  0
 19 20  2  0
 20 21  1  0
 17 22  1  0
 21 22  2  0
M  END
