pyridine_urea_4455
     RDKit          3D

 23 24  0  0  0  0  0  0  0  0999 V2000
   11.8550   -1.4140   24.6090 C   0  0  0  0  0  0  0  0  0  0  0  0
   11.5020   -1.2340   23.1210 C   0  0  0  0  0  0  0  0  0  0  0  0
   12.8170   -0.9790   22.3870 C   0  0  0  0  0  0  0  0  0  0  0  0
   10.5790   -0.0100   23.0010 C   0  0  0  0  0  0  0  0  0  0  0  0
    9.1930   -0.2940   22.5650 N   0  0  0  0  0  0  0  0  0  0  0  0
    8.5830    0.4020   21.5370 C   0  0  0  0  0  0  0  0  0  0  0  0
    8.9890    1.5000   21.1610 O   0  0  0  0  0  0  0  0  0  0  0  0
    7.4580   -0.2870   21.0200 N   0  0  0  0  0  0  0  0  0  0  0  0
    6.6260    0.2500   20.0670 C   0  0  0  0  0  0  0  0  0  0  0  0
    5.3660    1.0610   20.3800 C   0  0  0  0  0  0  0  0  0  0  0  0
    4.6800    1.5330   19.2650 C   0  0  0  0  0  0  0  0  0  0  0  0
    5.1430    1.2590   17.9860 C   0  0  0  0  0  0  0  0  0  0  0  0
    6.2380    0.5410   17.7130 N   0  0  0  0  0  0  0  0  0  0  0  0
    6.9450    0.0560   18.7430 C   0  0  0  0  0  0  0  0  0  0  0  0
   10.8620   -2.1570   22.6150 O   0  0  0  0  0  0  0  0  0  0  0  0
    9.4860   -2.3680   23.0020 C   0  0  0  0  0  0  0  0  0  0  0  0
    8.6040   -2.3160   21.9100 C   0  0  0  0  0  0  0  0  0  0  0  0
    7.1280   -2.5180   22.1120 C   0  0  0  0  0  0  0  0  0  0  0  0
    6.2440   -2.4840   21.0940 F   0  0  0  0  0  0  0  0  0  0  0  0
    6.7180   -2.7420   23.4080 C   0  0  0  0  0  0  0  0  0  0  0  0
    7.6700   -2.7870   24.5390 C   0  0  0  0  0  0  0  0  0  0  0  0
    7.1660   -3.0110   25.7690 F   0  0  0  0  0  0  0  0  0  0  0  0
    9.0500   -2.6000   24.3270 C   0  0  0  0  0  0  0  0  0  0  0  0
  1  2  1  0
  2  3  1  0
  2  4  1  0
  4  5  1  0
  5  6  1  0
  6  7  2  0
  6  8  1  0
  8  9  1  0
  9 10  2  0
 10 11  1  0
 11 12  2  0
 12 13  1  0
  9 14  1  0
 13 14  2  0
  2 15  1  0
 15 16  1  0
 16 17  2  0
 17 18  1  0
 18 19  1  0
 18 20  2  0
 20 21  1  0
 21 22  1  0
 16 23  1  0
 21 23  2  0
M  END
