pyridine_urea_3603
     RDKit          3D

 17 18  0  0  0  0  0  0  0  0999 V2000
    9.5660   -1.1180   24.1920 C   0  0  0  0  0  0  0  0  0  0  0  0
   10.1060   -1.6130   22.8690 C   0  0  1  0  0  0  0  0  0  0  0  0
    9.1180   -1.6010   21.7850 N   0  0  0  0  0  0  0  0  0  0  0  0
    8.4080   -0.4490   21.5040 C   0  0  0  0  0  0  0  0  0  0  0  0
    8.8800    0.6740   21.5670 O   0  0  0  0  0  0  0  0  0  0  0  0
    7.1220   -0.7320   21.1170 N   0  0  0  0  0  0  0  0  0  0  0  0
    6.4650   -0.0570   20.0780 C   0  0  0  0  0  0  0  0  0  0  0  0
    5.1750    0.6890   20.3860 C   0  0  0  0  0  0  0  0  0  0  0  0
    4.4730    1.4330   19.2620 C   0  0  0  0  0  0  0  0  0  0  0  0
    5.1970    1.3200   17.9260 C   0  0  0  0  0  0  0  0  0  0  0  0
    6.3360    0.6310   17.7470 N   0  0  0  0  0  0  0  0  0  0  0  0
    6.9260   -0.0220   18.7780 C   0  0  0  0  0  0  0  0  0  0  0  0
   11.1840   -0.7050   22.4110 C   0  0  0  0  0  0  0  0  0  0  0  0
   12.4870   -1.0670   22.6850 C   0  0  0  0  0  0  0  0  0  0  0  0
   13.1270    0.0550   23.1100 C   0  0  0  0  0  0  0  0  0  0  0  0
   12.2970    1.1350   23.0360 C   0  0  0  0  0  0  0  0  0  0  0  0
   10.9080    0.6100   22.8510 C   0  0  0  0  0  0  0  0  0  0  0  0
  2  1  1  1
  2  3  1  0
  3  4  1  0
  4  5  2  0
  4  6  1  0
  6  7  1  0
  7  8  2  0
  8  9  1  0
  9 10  2  0
 10 11  1  0
  7 12  1  0
 11 12  2  0
  2 13  1  0
 13 14  1  0
 14 15  1  0
 15 16  1  0
 13 17  1  0
 16 17  1  0
M  END
