pyridine_urea_5021
     RDKit          3D

 20 21  0  0  0  0  0  0  0  0999 V2000
   11.0640    0.7770   22.7480 C   0  0  0  0  0  0  0  0  0  0  0  0
   10.4050   -0.4720   23.1890 C   0  0  1  0  0  0  0  0  0  0  0  0
    9.0320   -0.6630   22.6650 N   0  0  0  0  0  0  0  0  0  0  0  0
    8.5150    0.1790   21.5580 C   0  0  0  0  0  0  0  0  0  0  0  0
    9.0510    1.2620   21.2220 O   0  0  0  0  0  0  0  0  0  0  0  0
    7.3880   -0.3930   21.0220 N   0  0  0  0  0  0  0  0  0  0  0  0
    6.6280    0.1810   20.0140 C   0  0  0  0  0  0  0  0  0  0  0  0
    5.5050    0.9040   20.3460 C   0  0  0  0  0  0  0  0  0  0  0  0
    4.6970    1.5480   19.2430 C   0  0  0  0  0  0  0  0  0  0  0  0
    5.1400    1.3690   17.9510 C   0  0  0  0  0  0  0  0  0  0  0  0
    6.2370    0.6460   17.6670 N   0  0  0  0  0  0  0  0  0  0  0  0
    6.9410    0.0790   18.6800 C   0  0  0  0  0  0  0  0  0  0  0  0
   11.1780   -1.7470   22.8100 C   0  0  0  0  0  0  0  0  0  0  0  0
   12.0280   -0.7480   22.6760 C   0  0  0  0  0  0  0  0  0  0  0  0
   11.4070    0.4620   23.0050 C   0  0  0  0  0  0  0  0  0  0  0  0
   12.4080    2.2870   22.8820 I   0  0  0  0  0  0  0  0  0  0  0  0
   10.0190    0.6670   23.4570 C   0  0  0  0  0  0  0  0  0  0  0  0
    9.3860   -0.6740   23.4900 C   0  0  0  0  0  0  0  0  0  0  0  0
    9.9200   -1.9120   23.1690 C   0  0  0  0  0  0  0  0  0  0  0  0
    8.7320   -3.3830   23.3350 Br  0  0  0  0  0  0  0  0  0  0  0  0
  2  1  1  6
  2  3  1  0
  3  4  1  0
  4  5  2  0
  4  6  1  0
  6  7  1  0
  7  8  2  0
  8  9  1  0
  9 10  2  0
 10 11  1  0
  7 12  1  0
 11 12  2  0
  2 13  1  0
 13 14  2  0
 14 15  1  0
 15 16  1  0
 15 17  2  0
 17 18  1  0
 13 19  1  0
 18 19  2  0
 19 20  1  0
M  END
