pyridine_urea_3613
     RDKit          3D

 16 16  0  0  0  0  0  0  0  0999 V2000
   12.4740    1.3630   23.0830 C   0  0  0  0  0  0  0  0  0  0  0  0
   12.8670   -0.0320   23.5570 C   0  0  0  0  0  0  0  0  0  0  0  0
   12.0500   -0.4000   24.7720 C   0  0  0  0  0  0  0  0  0  0  0  0
   12.7400   -1.0860   22.4780 C   0  0  0  0  0  0  0  0  0  0  0  0
   11.3020   -1.5040   22.2630 C   0  0  0  0  0  0  0  0  0  0  0  0
   10.2320   -0.6620   22.9500 C   0  0  0  0  0  0  0  0  0  0  0  0
    8.9340   -0.9210   22.3410 N   0  0  0  0  0  0  0  0  0  0  0  0
    8.3640   -0.0230   21.4650 C   0  0  0  0  0  0  0  0  0  0  0  0
    8.8550    1.0790   21.1760 O   0  0  0  0  0  0  0  0  0  0  0  0
    7.1110   -0.5960   20.9840 N   0  0  0  0  0  0  0  0  0  0  0  0
    6.3940    0.0930   20.0050 C   0  0  0  0  0  0  0  0  0  0  0  0
    5.2140    0.8050   20.2300 C   0  0  0  0  0  0  0  0  0  0  0  0
    4.6180    1.4490   19.1590 C   0  0  0  0  0  0  0  0  0  0  0  0
    5.2000    1.3740   17.9070 C   0  0  0  0  0  0  0  0  0  0  0  0
    6.3300    0.6880   17.6760 N   0  0  0  0  0  0  0  0  0  0  0  0
    6.8920    0.0680   18.7250 C   0  0  0  0  0  0  0  0  0  0  0  0
  1  2  1  0
  2  3  1  0
  2  4  1  0
  4  5  1  0
  5  6  1  0
  6  7  1  0
  7  8  1  0
  8  9  2  0
  8 10  1  0
 10 11  1  0
 11 12  2  0
 12 13  1  0
 13 14  2  0
 14 15  1  0
 11 16  1  0
 15 16  2  0
M  END
