pyridine_urea_6219
     RDKit          3D

 18 19  0  0  0  0  0  0  0  0999 V2000
   12.2270   -0.4790   24.7780 C   0  0  0  0  0  0  0  0  0  0  0  0
   12.5410   -0.5410   23.6610 C   0  0  0  0  0  0  0  0  0  0  0  0
   13.1600   -0.0140   22.3960 C   0  0  0  0  0  0  0  0  0  0  0  0
   13.5070   -2.0740   23.8300 S   0  0  0  0  0  0  0  0  0  0  0  0
   13.0630   -2.3460   22.2490 C   0  0  0  0  0  0  0  0  0  0  0  0
   11.7990   -1.9500   22.1280 C   0  0  0  0  0  0  0  0  0  0  0  0
   11.2600   -1.0220   23.2410 C   0  0  2  0  0  0  0  0  0  0  0  0
   10.2470   -0.0340   22.9030 C   0  0  0  0  0  0  0  0  0  0  0  0
    9.0800   -0.6750   22.3500 N   0  0  0  0  0  0  0  0  0  0  0  0
    8.3760    0.0690   21.4500 C   0  0  0  0  0  0  0  0  0  0  0  0
    8.8750    1.3680   21.1180 O   0  0  0  0  0  0  0  0  0  0  0  0
    7.2410   -0.5350   20.9820 N   0  0  0  0  0  0  0  0  0  0  0  0
    6.4610    0.0990   20.0200 C   0  0  0  0  0  0  0  0  0  0  0  0
    5.2800    0.7860   20.2230 C   0  0  0  0  0  0  0  0  0  0  0  0
    4.6000    1.4040   19.1900 C   0  0  0  0  0  0  0  0  0  0  0  0
    5.1350    1.3170   17.9260 C   0  0  0  0  0  0  0  0  0  0  0  0
    6.2770    0.6490   17.6760 N   0  0  0  0  0  0  0  0  0  0  0  0
    6.9030    0.0610   18.7150 C   0  0  0  0  0  0  0  0  0  0  0  0
  2  1  1  0
  2  3  1  0
  2  4  1  0
  4  5  1  0
  5  6  1  0
  2  7  1  0
  6  7  1  0
  7  8  1  6
  8  9  1  0
  9 10  1  0
 10 11  2  0
 10 12  1  0
 12 13  1  0
 13 14  2  0
 14 15  1  0
 15 16  2  0
 16 17  1  0
 13 18  1  0
 17 18  2  0
M  END
