pyridine_urea_12278
     RDKit          3D

 22 23  0  0  0  0  0  0  0  0999 V2000
    9.3650   -0.0830   25.7640 C   0  0  0  0  0  0  0  0  0  0  0  0
   10.4890   -0.0830   24.7260 C   0  0  0  0  0  0  0  0  0  0  0  0
   11.1280   -1.3320   24.2170 C   0  0  0  0  0  0  0  0  0  0  0  0
   12.1110   -1.2130   23.2780 C   0  0  0  0  0  0  0  0  0  0  0  0
   12.7690    0.0290   22.5750 C   0  0  0  0  0  0  0  0  0  0  0  0
   13.2410   -1.1500   22.1580 C   0  0  0  0  0  0  0  0  0  0  0  0
   11.9400   -1.8610   21.7510 C   0  0  1  0  0  0  0  0  0  0  0  0
   12.1640   -3.0090   22.0190 O   0  0  0  0  0  0  0  0  0  0  0  0
   10.6700   -1.3050   22.4750 C   0  0  0  0  0  0  0  0  0  0  0  0
    9.4650   -1.4850   21.6540 N   0  0  0  0  0  0  0  0  0  0  0  0
    8.6470   -0.3900   21.4090 C   0  0  0  0  0  0  0  0  0  0  0  0
    9.0410    0.7640   21.4770 O   0  0  0  0  0  0  0  0  0  0  0  0
    7.3230   -0.7410   21.0500 N   0  0  0  0  0  0  0  0  0  0  0  0
    6.6070   -0.0900   20.0620 C   0  0  0  0  0  0  0  0  0  0  0  0
    5.3280    0.6840   20.4100 C   0  0  0  0  0  0  0  0  0  0  0  0
    4.6060    1.3980   19.2630 C   0  0  0  0  0  0  0  0  0  0  0  0
    5.1420    1.3090   17.9890 C   0  0  0  0  0  0  0  0  0  0  0  0
    6.2790    0.5970   17.7540 N   0  0  0  0  0  0  0  0  0  0  0  0
    6.9920   -0.0830   18.7370 C   0  0  0  0  0  0  0  0  0  0  0  0
   12.0480    1.0510   23.2200 C   0  0  0  0  0  0  0  0  0  0  0  0
   12.3360    2.3660   22.8980 C   0  0  0  0  0  0  0  0  0  0  0  0
   11.0410    0.9940   24.1500 C   0  0  0  0  0  0  0  0  0  0  0  0
  1  2  1  0
  2  3  2  0
  3  4  1  0
  4  5  2  0
  5  6  1  0
  6  7  1  0
  7  8  1  1
  7  9  1  0
  9 10  1  0
 10 11  1  0
 11 12  2  0
 11 13  1  0
 13 14  1  0
 14 15  2  0
 15 16  1  0
 16 17  2  0
 17 18  1  0
 14 19  1  0
 18 19  2  0
  5 20  1  0
 20 21  1  0
  2 22  1  0
 20 22  2  0
M  END
