pyridine_urea_10823
     RDKit          3D

 20 22  0  0  0  0  0  0  0  0999 V2000
    8.6510    1.1790   21.1720 O   0  0  0  0  0  0  0  0  0  0  0  0
    8.5730   -0.0470   21.3540 C   0  0  0  0  0  0  0  0  0  0  0  0
    9.1550   -0.6980   22.5070 N   0  0  0  0  0  0  0  0  0  0  0  0
   10.4880   -0.3900   22.6200 C   0  0  0  0  0  0  0  0  0  0  0  0
   10.8020    0.9210   22.9120 C   0  0  0  0  0  0  0  0  0  0  0  0
   12.1390    1.2750   23.0190 C   0  0  0  0  0  0  0  0  0  0  0  0
   13.1050    0.3060   22.8340 C   0  0  0  0  0  0  0  0  0  0  0  0
   12.8330   -0.9760   22.5510 N   0  0  0  0  0  0  0  0  0  0  0  0
   11.5180   -1.3050   22.4470 C   0  0  0  0  0  0  0  0  0  0  0  0
    8.0070   -0.9800   20.5360 N   0  0  0  0  0  0  0  0  0  0  0  0
    6.6820   -0.7730   19.9900 C   0  0  0  0  0  0  0  0  0  0  0  0
    6.6880   -0.2430   18.5980 C   0  0  0  0  0  0  0  0  0  0  0  0
    6.0160    0.8780   19.1670 N   0  0  0  0  0  0  0  0  0  0  0  0
    5.0240    1.7390   18.7320 C   0  0  0  0  0  0  0  0  0  0  0  0
    3.9150    2.5540   18.5110 C   0  0  0  0  0  0  0  0  0  0  0  0
    2.7840    2.8360   19.2730 C   0  0  0  0  0  0  0  0  0  0  0  0
    2.5290    2.3380   20.4510 N   0  0  0  0  0  0  0  0  0  0  0  0
    3.5710    1.4990   20.7860 C   0  0  0  0  0  0  0  0  0  0  0  0
    4.6480    1.2810   19.9720 N   0  0  0  0  0  0  0  0  0  0  0  0
    5.9850    0.2720   20.4120 C   0  0  0  0  0  0  0  0  0  0  0  0
  1  2  2  0
  2  3  1  0
  3  4  1  0
  4  5  2  0
  5  6  1  0
  6  7  2  0
  7  8  1  0
  4  9  1  0
  8  9  2  0
  2 10  1  0
 10 11  1  0
 11 12  1  0
 12 13  1  0
 13 14  1  0
 14 15  2  0
 15 16  1  0
 16 17  2  0
 17 18  1  0
 14 19  1  0
 18 19  2  0
 11 20  1  0
 13 20  1  0
M  END
