pyridine_urea_11784
     RDKit          3D

 25 27  0  0  0  0  0  0  0  0999 V2000
    8.6320    0.6000   21.0440 O   0  0  0  0  0  0  0  0  0  0  0  0
    8.1310   -0.2950   21.6700 C   0  0  0  0  0  0  0  0  0  0  0  0
    6.9560   -0.8430   21.2340 N   0  0  0  0  0  0  0  0  0  0  0  0
    6.3430   -0.1840   20.1380 C   0  0  0  0  0  0  0  0  0  0  0  0
    5.1310    0.4950   20.3230 C   0  0  0  0  0  0  0  0  0  0  0  0
    4.5340    1.1680   19.2510 C   0  0  0  0  0  0  0  0  0  0  0  0
    5.1690    1.1450   18.0260 C   0  0  0  0  0  0  0  0  0  0  0  0
    6.3270    0.5010   17.8160 N   0  0  0  0  0  0  0  0  0  0  0  0
    6.8860   -0.1470   18.8630 C   0  0  0  0  0  0  0  0  0  0  0  0
    8.7240   -0.7470   22.8450 N   0  0  0  0  0  0  0  0  0  0  0  0
    9.9710   -0.0330   23.1920 C   0  0  0  0  0  0  0  0  0  0  0  0
    9.5420    1.4540   22.8500 C   0  0  2  0  0  0  0  0  0  0  0  0
    9.4110    1.5450   21.4330 O   0  0  0  0  0  0  0  0  0  0  0  0
   10.2970    2.5970   23.0800 C   0  0  0  0  0  0  0  0  0  0  0  0
    9.7590    3.7780   23.5700 C   0  0  0  0  0  0  0  0  0  0  0  0
   10.5030    4.9190   23.7540 C   0  0  0  0  0  0  0  0  0  0  0  0
   11.8490    4.9390   23.4500 C   0  0  0  0  0  0  0  0  0  0  0  0
   12.5110    6.0830   23.6410 F   0  0  0  0  0  0  0  0  0  0  0  0
   12.4940    3.8070   22.9610 C   0  0  0  0  0  0  0  0  0  0  0  0
   11.7600    2.5010   22.7310 C   0  0  0  0  0  0  0  0  0  0  0  0
   10.9800   -0.6480   22.2480 C   0  0  0  0  0  0  0  0  0  0  0  0
   12.3340   -0.4160   22.4520 C   0  0  0  0  0  0  0  0  0  0  0  0
   12.6890   -0.7640   23.7160 C   0  0  0  0  0  0  0  0  0  0  0  0
   11.9050   -0.0360   24.5910 C   0  0  0  0  0  0  0  0  0  0  0  0
   10.5180   -0.2760   24.4600 C   0  0  0  0  0  0  0  0  0  0  0  0
  1  2  2  0
  2  3  1  0
  3  4  1  0
  4  5  2  0
  5  6  1  0
  6  7  2  0
  7  8  1  0
  4  9  1  0
  8  9  2  0
  2 10  1  0
 11 10  1  0
 11 12  1  0
 12 13  1  6
 12 14  1  0
 14 15  2  0
 15 16  1  0
 16 17  2  0
 17 18  1  0
 17 19  1  0
 14 20  1  0
 19 20  2  0
 11 21  1  0
 21 22  1  0
 22 23  1  0
 23 24  1  0
 11 25  1  0
 24 25  1  0
M  END
