pyridine_urea_5274
     RDKit          3D

 19 20  0  0  0  0  0  0  0  0999 V2000
   12.6400   -2.4360   21.8650 C   0  0  0  0  0  0  0  0  0  0  0  0
   13.1330   -1.0700   22.1300 C   0  0  0  0  0  0  0  0  0  0  0  0
   12.0380   -0.7080   22.7950 C   0  0  0  0  0  0  0  0  0  0  0  0
   12.8790    0.5560   22.8430 C   0  0  0  0  0  0  0  0  0  0  0  0
   12.2910    1.6600   23.5200 C   0  0  0  0  0  0  0  0  0  0  0  0
   11.7350    0.4100   23.3630 C   0  0  0  0  0  0  0  0  0  0  0  0
   10.4960   -0.0780   23.8120 C   0  0  0  0  0  0  0  0  0  0  0  0
    9.9360   -1.4280   23.3240 C   0  0  0  0  0  0  0  0  0  0  0  0
    9.2310   -1.2720   21.9890 N   0  0  0  0  0  0  0  0  0  0  0  0
    8.4960   -0.1980   21.5350 C   0  0  0  0  0  0  0  0  0  0  0  0
    8.9220    0.9510   21.5050 O   0  0  0  0  0  0  0  0  0  0  0  0
    7.2390   -0.5810   21.1170 N   0  0  0  0  0  0  0  0  0  0  0  0
    6.5370    0.0360   20.0700 C   0  0  0  0  0  0  0  0  0  0  0  0
    5.3770    0.7620   20.3630 C   0  0  0  0  0  0  0  0  0  0  0  0
    4.6820    1.3940   19.3230 C   0  0  0  0  0  0  0  0  0  0  0  0
    5.1670    1.2800   18.0310 C   0  0  0  0  0  0  0  0  0  0  0  0
    6.2680    0.5840   17.7280 N   0  0  0  0  0  0  0  0  0  0  0  0
    6.9290   -0.0220   18.7410 C   0  0  0  0  0  0  0  0  0  0  0  0
   12.8930    0.0990   22.6730 N   0  0  0  0  0  0  0  0  0  0  0  0
  1  2  1  0
  2  3  2  0
  3  4  1  0
  4  5  2  0
  5  6  1  0
  6  7  1  0
  7  8  1  0
  8  9  1  0
  9 10  1  0
 10 11  2  0
 10 12  1  0
 12 13  1  0
 13 14  2  0
 14 15  1  0
 15 16  2  0
 16 17  1  0
 13 18  1  0
 17 18  2  0
  2 19  1  0
  6 19  2  0
M  END
