pyridine_urea_4145
     RDKit          3D

 25 27  0  0  0  0  0  0  0  0999 V2000
    8.9250    1.2290   21.2050 O   0  0  0  0  0  0  0  0  0  0  0  0
    8.3860    0.1840   21.6040 C   0  0  0  0  0  0  0  0  0  0  0  0
    8.7380   -0.5220   22.7340 N   0  0  0  0  0  0  0  0  0  0  0  0
    9.1270    0.0090   23.9910 C   0  0  0  0  0  0  0  0  0  0  0  0
   10.2990    0.7580   24.0180 C   0  0  0  0  0  0  0  0  0  0  0  0
   11.6380    1.2470   23.8470 C   0  0  0  0  0  0  0  0  0  0  0  0
   12.7360    0.7530   23.2200 C   0  0  0  0  0  0  0  0  0  0  0  0
   12.7740   -0.3880   22.5860 C   0  0  0  0  0  0  0  0  0  0  0  0
   11.5810   -0.9930   22.6340 C   0  0  0  0  0  0  0  0  0  0  0  0
   11.1720   -2.2440   22.0190 C   0  0  0  0  0  0  0  0  0  0  0  0
   11.4800   -1.6870   20.7950 O   0  0  0  0  0  0  0  0  0  0  0  0
   12.7970   -1.9090   20.8490 C   0  0  0  0  0  0  0  0  0  0  0  0
   12.7200   -3.0880   20.6890 C   0  0  0  0  0  0  0  0  0  0  0  0
   13.7610   -3.7050   20.2600 C   0  0  0  0  0  0  0  0  0  0  0  0
   14.2520   -4.2580   21.2310 C   0  0  0  0  0  0  0  0  0  0  0  0
   13.7240   -3.3430   22.4640 C   0  0  0  0  0  0  0  0  0  0  0  0
   13.3830   -1.8780   22.1690 C   0  0  0  0  0  0  0  0  0  0  0  0
   10.4510   -0.3990   23.3320 C   0  0  0  0  0  0  0  0  0  0  0  0
    7.3270   -0.4460   20.9890 N   0  0  0  0  0  0  0  0  0  0  0  0
    6.5300    0.1590   20.0620 C   0  0  0  0  0  0  0  0  0  0  0  0
    5.3560    0.8670   20.3250 C   0  0  0  0  0  0  0  0  0  0  0  0
    4.6590    1.4470   19.2660 C   0  0  0  0  0  0  0  0  0  0  0  0
    5.1540    1.3010   17.9760 C   0  0  0  0  0  0  0  0  0  0  0  0
    6.2700    0.6190   17.6900 N   0  0  0  0  0  0  0  0  0  0  0  0
    6.8980    0.0840   18.7410 C   0  0  0  0  0  0  0  0  0  0  0  0
  1  2  2  0
  2  3  1  0
  3  4  1  0
  4  5  1  0
  5  6  2  0
  6  7  1  0
  7  8  2  0
  8  9  1  0
  9 10  1  0
 10 11  1  0
 11 12  1  0
 12 13  1  0
 13 14  1  0
 14 15  1  0
 15 16  1  0
 12 17  1  0
 16 17  1  0
  5 18  1  0
  9 18  2  0
  2 19  1  0
 19 20  1  0
 20 21  2  0
 21 22  1  0
 22 23  2  0
 23 24  1  0
 20 25  1  0
 24 25  2  0
M  END
