pyridine_urea_1351
     RDKit          3D

 20 21  0  0  0  0  0  0  0  0999 V2000
    8.9240    0.7310   21.3350 O   0  0  0  0  0  0  0  0  0  0  0  0
    8.2660   -0.2540   21.6420 C   0  0  0  0  0  0  0  0  0  0  0  0
    8.6100   -1.0740   22.6810 N   0  0  0  0  0  0  0  0  0  0  0  0
    9.9890   -1.1710   23.0730 C   0  0  0  0  0  0  0  0  0  0  0  0
   10.3500   -0.1570   24.1830 C   0  0  2  0  0  0  0  0  0  0  0  0
    9.4620    0.8640   24.5220 C   0  0  0  0  0  0  0  0  0  0  0  0
    8.5960    0.5330   25.3300 O   0  0  0  0  0  0  0  0  0  0  0  0
   11.5950    0.5260   23.6730 C   0  0  0  0  0  0  0  0  0  0  0  0
   12.5120    1.3900   23.3740 C   0  0  0  0  0  0  0  0  0  0  0  0
   13.2790   -0.0990   22.6430 C   0  0  0  0  0  0  0  0  0  0  0  0
   12.1600   -0.8380   23.0580 C   0  0  0  0  0  0  0  0  0  0  0  0
   13.2160   -0.0880   22.6780 C   0  0  0  0  0  0  0  0  0  0  0  0
   12.6670    0.6040   23.1220 C   0  0  0  0  0  0  0  0  0  0  0  0
    7.1140   -0.6850   21.0450 N   0  0  0  0  0  0  0  0  0  0  0  0
    6.4850   -0.0240   19.9910 C   0  0  0  0  0  0  0  0  0  0  0  0
    5.2310    0.7540   20.2170 C   0  0  0  0  0  0  0  0  0  0  0  0
    4.5570    1.4450   19.2340 C   0  0  0  0  0  0  0  0  0  0  0  0
    5.1830    1.3460   17.9540 C   0  0  0  0  0  0  0  0  0  0  0  0
    6.3150    0.6480   17.7000 N   0  0  0  0  0  0  0  0  0  0  0  0
    6.9340   -0.0150   18.7010 C   0  0  0  0  0  0  0  0  0  0  0  0
  1  2  2  0
  2  3  1  0
  3  4  1  0
  5  4  1  6
  5  6  1  0
  6  7  1  0
  5  8  1  0
  8  9  2  0
  9 10  1  0
 10 11  2  0
 11 12  1  0
  8 13  1  0
 12 13  2  0
  2 14  1  0
 14 15  1  0
 15 16  2  0
 16 17  1  0
 17 18  2  0
 18 19  1  0
 15 20  1  0
 19 20  2  0
M  END
