pyridine_urea_7810
     RDKit          3D

 29 31  0  0  0  0  0  0  0  0999 V2000
    9.2250   -6.0630   23.5330 C   0  0  0  0  0  0  0  0  0  0  0  0
    8.0850   -6.2720   23.9500 O   0  0  0  0  0  0  0  0  0  0  0  0
    7.2160   -5.2700   23.7530 C   0  0  0  0  0  0  0  0  0  0  0  0
    6.2170   -5.0910   24.6890 C   0  0  0  0  0  0  0  0  0  0  0  0
    5.2880   -4.0840   24.5660 C   0  0  0  0  0  0  0  0  0  0  0  0
    5.4030   -3.2710   23.4580 C   0  0  0  0  0  0  0  0  0  0  0  0
    6.3880   -3.4100   22.4810 C   0  0  0  0  0  0  0  0  0  0  0  0
    7.2990   -4.4300   22.6540 C   0  0  0  0  0  0  0  0  0  0  0  0
    8.3080   -4.6030   21.6930 O   0  0  0  0  0  0  0  0  0  0  0  0
    8.5410   -5.9170   21.5550 C   0  0  0  0  0  0  0  0  0  0  0  0
    4.4850   -2.2740   23.3440 C   0  0  0  0  0  0  0  0  0  0  0  0
    4.4350   -1.6570   24.6420 N   0  0  0  0  0  0  0  0  0  0  0  0
    5.4310   -0.7880   25.0350 C   0  0  0  0  0  0  0  0  0  0  0  0
    5.5050   -0.1350   26.0690 O   0  0  0  0  0  0  0  0  0  0  0  0
    6.5180   -0.5930   24.1710 C   0  0  0  0  0  0  0  0  0  0  0  0
    7.5000   -1.5850   24.2920 C   0  0  0  0  0  0  0  0  0  0  0  0
    8.5360   -1.6430   23.3370 C   0  0  0  0  0  0  0  0  0  0  0  0
    8.9970   -0.4820   22.7160 N   0  0  0  0  0  0  0  0  0  0  0  0
    8.4290    0.1670   21.5910 C   0  0  0  0  0  0  0  0  0  0  0  0
    8.9050    1.3820   21.1370 O   0  0  0  0  0  0  0  0  0  0  0  0
    7.3990   -0.5490   21.0820 N   0  0  0  0  0  0  0  0  0  0  0  0
    6.5940    0.1020   20.1250 C   0  0  0  0  0  0  0  0  0  0  0  0
    5.4510    0.8610   20.4020 C   0  0  0  0  0  0  0  0  0  0  0  0
    4.7420    1.4670   19.3630 C   0  0  0  0  0  0  0  0  0  0  0  0
    5.1730    1.3140   18.0490 C   0  0  0  0  0  0  0  0  0  0  0  0
    6.2500    0.5980   17.7050 N   0  0  0  0  0  0  0  0  0  0  0  0
    6.9500   -0.0080   18.7990 C   0  0  0  0  0  0  0  0  0  0  0  0
    3.8160   -2.5010   25.6810 C   0  0  0  0  0  0  0  0  0  0  0  0
    4.1900   -3.8560   25.5810 C   0  0  0  0  0  0  0  0  0  0  0  0
  1  2  1  0
  2  3  1  0
  3  4  2  0
  4  5  1  0
  5  6  2  0
  6  7  1  0
  3  8  1  0
  7  8  2  0
  8  9  1  0
  9 10  1  0
  6 11  1  0
 11 12  1  0
 12 13  1  0
 13 14  2  0
 13 15  1  0
 15 16  1  0
 16 17  1  0
 17 18  1  0
 18 19  1  0
 19 20  2  0
 19 21  1  0
 21 22  1  0
 22 23  2  0
 23 24  1  0
 24 25  2  0
 25 26  1  0
 22 27  1  0
 26 27  2  0
 12 28  1  0
  5 29  1  0
 28 29  1  0
M  END
