pyridine_urea_13815
     RDKit          3D

 24 26  0  0  0  0  0  0  0  0999 V2000
   12.5910   -0.5940   25.1710 C   0  0  0  0  0  0  0  0  0  0  0  0
   12.2090   -0.9570   24.1540 C   0  0  0  0  0  0  0  0  0  0  0  0
   12.3270   -1.7320   22.8760 C   0  0  0  0  0  0  0  0  0  0  0  0
   11.2960   -1.8210   21.8670 C   0  0  0  0  0  0  0  0  0  0  0  0
   10.0810   -1.2090   21.9290 C   0  0  0  0  0  0  0  0  0  0  0  0
    9.0700   -1.3070   20.9820 N   0  0  0  0  0  0  0  0  0  0  0  0
    8.1890   -0.2820   21.0420 C   0  0  0  0  0  0  0  0  0  0  0  0
    8.5540    0.8650   21.2550 O   0  0  0  0  0  0  0  0  0  0  0  0
    6.9120   -0.6850   20.8180 N   0  0  0  0  0  0  0  0  0  0  0  0
    6.1550    0.0560   19.9320 C   0  0  0  0  0  0  0  0  0  0  0  0
    4.9680    0.6270   20.2540 C   0  0  0  0  0  0  0  0  0  0  0  0
    4.4890    1.3580   19.0280 C   0  0  0  0  0  0  0  0  0  0  0  0
    5.1500    1.4170   17.8290 C   0  0  0  0  0  0  0  0  0  0  0  0
    6.3040    0.8110   17.6300 N   0  0  0  0  0  0  0  0  0  0  0  0
    6.7630    0.1530   18.6860 C   0  0  0  0  0  0  0  0  0  0  0  0
    9.8030   -0.3420   23.1230 C   0  0  0  0  0  0  0  0  0  0  0  0
   10.8350   -0.2520   24.1370 C   0  0  0  0  0  0  0  0  0  0  0  0
   10.3800    0.5670   25.0560 N   0  0  0  0  0  0  0  0  0  0  0  0
   10.2520    1.7650   24.4330 C   0  0  0  0  0  0  0  0  0  0  0  0
   11.0450    2.4990   23.8550 O   0  0  0  0  0  0  0  0  0  0  0  0
    8.8550    2.2140   24.4650 C   0  0  0  0  0  0  0  0  0  0  0  0
    8.2220    1.2800   25.1550 N   0  0  0  0  0  0  0  0  0  0  0  0
    9.1060    0.3390   25.6140 C   0  0  0  0  0  0  0  0  0  0  0  0
    8.7130   -0.5100   26.4040 O   0  0  0  0  0  0  0  0  0  0  0  0
  1  2  1  0
  2  3  2  0
  3  4  1  0
  4  5  2  0
  5  6  1  0
  6  7  1  0
  7  8  2  0
  7  9  1  0
  9 10  1  0
 10 11  2  0
 11 12  1  0
 12 13  2  0
 13 14  1  0
 10 15  1  0
 14 15  2  0
  5 16  1  0
  2 17  1  0
 16 17  2  0
 17 18  1  0
 18 19  1  0
 19 20  2  0
 19 21  1  0
 21 22  1  0
 18 23  1  0
 22 23  1  0
 23 24  2  0
M  END
