pyridine_urea_10378
     RDKit          3D

 22 23  0  0  0  0  0  0  0  0999 V2000
   11.4140   -3.2340   24.5450 C   0  0  0  0  0  0  0  0  0  0  0  0
   11.5990   -1.7350   24.6340 C   0  0  0  0  0  0  0  0  0  0  0  0
   13.0560   -1.5280   25.0710 C   0  0  0  0  0  0  0  0  0  0  0  0
   11.3000   -1.1870   23.2050 C   0  0  1  0  0  0  0  0  0  0  0  0
   10.0880   -0.3420   22.9210 C   0  0  0  0  0  0  0  0  0  0  0  0
    8.8220   -0.7260   22.3420 N   0  0  0  0  0  0  0  0  0  0  0  0
    8.2390    0.1130   21.4420 C   0  0  0  0  0  0  0  0  0  0  0  0
    8.7410    1.1920   21.0940 O   0  0  0  0  0  0  0  0  0  0  0  0
    6.9860   -0.4580   21.0090 N   0  0  0  0  0  0  0  0  0  0  0  0
    6.3910    0.1410   19.9590 C   0  0  0  0  0  0  0  0  0  0  0  0
    5.2170    0.8700   20.1570 C   0  0  0  0  0  0  0  0  0  0  0  0
    4.6060    1.5070   19.1020 C   0  0  0  0  0  0  0  0  0  0  0  0
    5.1790    1.4020   17.8590 C   0  0  0  0  0  0  0  0  0  0  0  0
    6.3000    0.7040   17.6200 N   0  0  0  0  0  0  0  0  0  0  0  0
    6.8850    0.0880   18.6710 C   0  0  0  0  0  0  0  0  0  0  0  0
   12.5300   -0.6670   22.6410 C   0  0  0  0  0  0  0  0  0  0  0  0
   13.5360    0.2530   22.4130 C   0  0  0  0  0  0  0  0  0  0  0  0
   12.6680    0.8920   23.3030 C   0  0  0  0  0  0  0  0  0  0  0  0
   11.6940   -0.2280   23.4670 C   0  0  0  0  0  0  0  0  0  0  0  0
   10.2590   -0.9230   24.1580 Cl  0  0  0  0  0  0  0  0  0  0  0  0
   11.3370    0.8240   24.1980 C   0  0  0  0  0  0  0  0  0  0  0  0
   12.4190    0.7490   23.4080 C   0  0  0  0  0  0  0  0  0  0  0  0
  1  2  1  0
  2  3  1  0
  2  4  1  0
  4  5  1  1
  5  6  1  0
  6  7  1  0
  7  8  2  0
  7  9  1  0
  9 10  1  0
 10 11  2  0
 11 12  1  0
 12 13  2  0
 13 14  1  0
 10 15  1  0
 14 15  2  0
  4 16  1  0
 16 17  2  0
 17 18  1  0
 18 19  2  0
 19 20  1  0
 19 21  1  0
 16 22  1  0
 21 22  2  0
M  END
