pyridine_urea_14444
     RDKit          3D

 21 23  0  0  0  0  0  0  0  0999 V2000
    8.9670    1.6430   21.3800 O   0  0  0  0  0  0  0  0  0  0  0  0
    8.8900    0.4180   21.4190 C   0  0  0  0  0  0  0  0  0  0  0  0
   10.0450   -0.4300   21.7620 N   0  0  0  0  0  0  0  0  0  0  0  0
   11.1690    0.1280   22.4770 C   0  0  0  0  0  0  0  0  0  0  0  0
   12.5220   -0.4060   22.3270 C   0  0  1  0  0  0  0  0  0  0  0  0
   12.9120   -0.8740   23.4960 C   0  0  0  0  0  0  0  0  0  0  0  0
   11.6980   -1.1270   24.0690 C   0  0  0  0  0  0  0  0  0  0  0  0
   10.3060   -1.4860   24.5140 C   0  0  0  0  0  0  0  0  0  0  0  0
    9.1040   -2.1420   23.8490 C   0  0  0  0  0  0  0  0  0  0  0  0
    7.4060   -2.4430   24.6380 Br  0  0  0  0  0  0  0  0  0  0  0  0
    9.3380   -2.5620   22.4800 C   0  0  0  0  0  0  0  0  0  0  0  0
   10.5210   -2.3180   21.9650 C   0  0  0  0  0  0  0  0  0  0  0  0
   11.5020   -1.6800   22.7070 C   0  0  0  0  0  0  0  0  0  0  0  0
   12.5950   -1.4980   21.8860 O   0  0  0  0  0  0  0  0  0  0  0  0
    7.7180   -0.2840   21.0790 N   0  0  0  0  0  0  0  0  0  0  0  0
    6.7970    0.2070   20.1580 C   0  0  0  0  0  0  0  0  0  0  0  0
    5.6620    0.9430   20.4610 C   0  0  0  0  0  0  0  0  0  0  0  0
    4.8490    1.3850   19.4400 C   0  0  0  0  0  0  0  0  0  0  0  0
    5.1450    1.1090   18.1260 C   0  0  0  0  0  0  0  0  0  0  0  0
    6.2250    0.3940   17.7890 N   0  0  0  0  0  0  0  0  0  0  0  0
    7.0180   -0.0390   18.8050 C   0  0  0  0  0  0  0  0  0  0  0  0
  1  2  2  0
  2  3  1  0
  3  4  1  0
  5  4  1  1
  5  6  1  0
  6  7  1  0
  7  8  1  0
  8  9  2  0
  9 10  1  0
  9 11  1  0
 11 12  2  0
  7 13  2  0
 12 13  1  0
  5 14  1  0
 13 14  1  0
  2 15  1  0
 15 16  1  0
 16 17  2  0
 17 18  1  0
 18 19  2  0
 19 20  1  0
 16 21  1  0
 20 21  2  0
M  END
