pyridine_urea_1068
     RDKit          3D

 22 23  0  0  0  0  0  0  0  0999 V2000
   13.5450   -3.2140   24.9940 C   0  0  0  0  0  0  0  0  0  0  0  0
   12.5560   -2.2820   24.4980 C   0  0  0  0  0  0  0  0  0  0  0  0
   13.1380   -1.1430   24.1840 C   0  0  0  0  0  0  0  0  0  0  0  0
   12.4600   -0.1030   23.7260 C   0  0  0  0  0  0  0  0  0  0  0  0
   11.1010   -0.2100   23.5710 C   0  0  0  0  0  0  0  0  0  0  0  0
   10.8020    0.8590   23.1680 O   0  0  0  0  0  0  0  0  0  0  0  0
   12.1720    1.1050   22.8910 C   0  0  0  0  0  0  0  0  0  0  0  0
   12.8410   -0.2390   22.4650 C   0  0  0  0  0  0  0  0  0  0  0  0
   11.7050   -1.2620   22.1380 C   0  0  0  0  0  0  0  0  0  0  0  0
   10.4510   -0.7240   22.4510 C   0  0  0  0  0  0  0  0  0  0  0  0
    9.3310   -1.0760   21.6760 N   0  0  0  0  0  0  0  0  0  0  0  0
    8.4350   -0.1070   21.2620 C   0  0  0  0  0  0  0  0  0  0  0  0
    8.8050    1.2790   21.1360 O   0  0  0  0  0  0  0  0  0  0  0  0
    7.1850   -0.6120   20.9640 N   0  0  0  0  0  0  0  0  0  0  0  0
    6.4150    0.0420   20.0450 C   0  0  0  0  0  0  0  0  0  0  0  0
    5.2340    0.7240   20.3070 C   0  0  0  0  0  0  0  0  0  0  0  0
    4.6140    1.3450   19.2430 C   0  0  0  0  0  0  0  0  0  0  0  0
    5.1620    1.2760   17.9810 C   0  0  0  0  0  0  0  0  0  0  0  0
    6.2880    0.6200   17.6980 N   0  0  0  0  0  0  0  0  0  0  0  0
    6.8870    0.0170   18.7420 C   0  0  0  0  0  0  0  0  0  0  0  0
   10.4170   -1.3930   23.8660 C   0  0  0  0  0  0  0  0  0  0  0  0
   11.1880   -2.4680   24.3380 C   0  0  0  0  0  0  0  0  0  0  0  0
  1  2  1  0
  2  3  2  0
  3  4  1  0
  4  5  2  0
  5  6  1  0
  6  7  1  0
  7  8  1  0
  8  9  1  0
  9 10  1  0
 10 11  1  0
 11 12  1  0
 12 13  2  0
 12 14  1  0
 14 15  1  0
 15 16  2  0
 16 17  1  0
 17 18  2  0
 18 19  1  0
 15 20  1  0
 19 20  2  0
  5 21  1  0
  2 22  1  0
 21 22  2  0
M  END
