pyridine_urea_9039
     RDKit          3D

 19 20  0  0  0  0  0  0  0  0999 V2000
   13.9910   -2.8870   25.6520 C   0  0  0  0  0  0  0  0  0  0  0  0
   13.4170   -2.0870   24.4980 C   0  0  0  0  0  0  0  0  0  0  0  0
   12.8190   -0.7680   24.8910 C   0  0  0  0  0  0  0  0  0  0  0  0
   12.3890   -0.2420   23.6560 N   0  0  0  0  0  0  0  0  0  0  0  0
   11.7690    0.9400   23.3910 C   0  0  0  0  0  0  0  0  0  0  0  0
   10.4160    0.7140   23.5020 C   0  0  0  0  0  0  0  0  0  0  0  0
   10.1090   -0.5500   23.0010 C   0  0  0  0  0  0  0  0  0  0  0  0
    8.8500   -0.7200   22.5080 N   0  0  0  0  0  0  0  0  0  0  0  0
    8.2450    0.0300   21.4870 C   0  0  0  0  0  0  0  0  0  0  0  0
    8.7170    1.1190   21.1210 O   0  0  0  0  0  0  0  0  0  0  0  0
    7.1330   -0.5610   21.0060 N   0  0  0  0  0  0  0  0  0  0  0  0
    6.4890    0.0660   20.0070 C   0  0  0  0  0  0  0  0  0  0  0  0
    5.3430    0.7930   20.2910 C   0  0  0  0  0  0  0  0  0  0  0  0
    4.6720    1.4540   19.2640 C   0  0  0  0  0  0  0  0  0  0  0  0
    5.1850    1.3570   17.9660 C   0  0  0  0  0  0  0  0  0  0  0  0
    6.2870    0.6520   17.6820 N   0  0  0  0  0  0  0  0  0  0  0  0
    6.9070    0.0280   18.6960 C   0  0  0  0  0  0  0  0  0  0  0  0
   12.7540   -1.2830   22.6400 C   0  0  0  0  0  0  0  0  0  0  0  0
   13.3670   -2.3770   23.1850 N   0  0  0  0  0  0  0  0  0  0  0  0
  1  2  1  0
  2  3  2  0
  3  4  1  0
  4  5  1  0
  5  6  1  0
  6  7  1  0
  7  8  1  0
  8  9  1  0
  9 10  2  0
  9 11  1  0
 11 12  1  0
 12 13  2  0
 13 14  1  0
 14 15  2  0
 15 16  1  0
 12 17  1  0
 16 17  2  0
  4 18  1  0
  2 19  1  0
 18 19  2  0
M  END
