pyridine_urea_5967
     RDKit          3D

 27 31  0  0  0  0  0  0  0  0999 V2000
    8.7210    0.6800   21.1460 O   0  0  0  0  0  0  0  0  0  0  0  0
    8.3780   -0.4890   21.2810 C   0  0  0  0  0  0  0  0  0  0  0  0
    7.0370   -0.9280   20.9440 N   0  0  0  0  0  0  0  0  0  0  0  0
    6.3900   -0.1640   19.9870 C   0  0  0  0  0  0  0  0  0  0  0  0
    5.2010    0.5160   20.2720 C   0  0  0  0  0  0  0  0  0  0  0  0
    4.6060    1.2770   19.2570 C   0  0  0  0  0  0  0  0  0  0  0  0
    5.2170    1.3310   18.0000 C   0  0  0  0  0  0  0  0  0  0  0  0
    6.3560    0.6760   17.7260 N   0  0  0  0  0  0  0  0  0  0  0  0
    6.9140   -0.0550   18.7190 C   0  0  0  0  0  0  0  0  0  0  0  0
    9.1640   -1.5100   21.7550 N   0  0  0  0  0  0  0  0  0  0  0  0
   10.2540   -1.0710   22.5790 C   0  0  0  0  0  0  0  0  0  0  0  0
   11.6750   -1.2020   22.0780 C   0  0  0  0  0  0  0  0  0  0  0  0
   12.6700   -0.7470   22.9020 C   0  0  0  0  0  0  0  0  0  0  0  0
   12.3290   -0.2060   24.1480 C   0  0  0  0  0  0  0  0  0  0  0  0
   10.9860   -0.1150   24.5880 C   0  0  0  0  0  0  0  0  0  0  0  0
    9.9570   -0.5420   23.8060 C   0  0  0  0  0  0  0  0  0  0  0  0
    8.6330   -0.5080   24.1370 N   0  0  0  0  0  0  0  0  0  0  0  0
    8.0030    0.5790   24.6810 C   0  0  2  0  0  0  0  0  0  0  0  0
    8.4470    1.1780   25.8240 C   0  0  0  0  0  0  0  0  0  0  0  0
    7.4210    2.0450   26.1110 C   0  0  1  0  0  0  0  0  0  0  0  0
    7.5520    3.2100   25.3380 C   0  0  0  0  0  0  0  0  0  0  0  0
    7.3830    2.8620   23.9910 C   0  0  2  0  0  0  0  0  0  0  0  0
    6.0550    2.5650   23.7490 C   0  0  0  0  0  0  0  0  0  0  0  0
    5.6920    1.4840   24.5460 C   0  0  2  0  0  0  0  0  0  0  0  0
    6.1800    1.4080   25.8630 C   0  0  0  0  0  0  0  0  0  0  0  0
    6.6110    0.2770   24.7440 C   0  0  0  0  0  0  0  0  0  0  0  0
    8.1550    1.7410   23.6240 C   0  0  0  0  0  0  0  0  0  0  0  0
  1  2  2  0
  2  3  1  0
  3  4  1  0
  4  5  2  0
  5  6  1  0
  6  7  2  0
  7  8  1  0
  4  9  1  0
  8  9  2  0
  2 10  1  0
 10 11  1  0
 11 12  2  0
 12 13  1  0
 13 14  2  0
 14 15  1  0
 11 16  1  0
 15 16  2  0
 16 17  1  0
 18 17  1  6
 18 19  1  0
 20 19  1  6
 20 21  1  0
 22 21  1  1
 22 23  1  0
 24 23  1  6
 20 25  1  0
 24 25  1  0
 18 26  1  0
 24 26  1  0
 18 27  1  0
 22 27  1  0
M  END
