pyridine_urea_11762
     RDKit          3D

 26 28  0  0  0  0  0  0  0  0999 V2000
    8.7780    1.2330   21.1270 O   0  0  0  0  0  0  0  0  0  0  0  0
    8.1780    0.3110   21.7010 C   0  0  0  0  0  0  0  0  0  0  0  0
    7.1500   -0.4130   21.1650 N   0  0  0  0  0  0  0  0  0  0  0  0
    6.4720    0.1200   20.0670 C   0  0  0  0  0  0  0  0  0  0  0  0
    5.3000    0.8390   20.2990 C   0  0  0  0  0  0  0  0  0  0  0  0
    4.6140    1.4090   19.2290 C   0  0  0  0  0  0  0  0  0  0  0  0
    5.1350    1.2340   17.9670 C   0  0  0  0  0  0  0  0  0  0  0  0
    6.2500    0.5410   17.7150 N   0  0  0  0  0  0  0  0  0  0  0  0
    6.8950   -0.0030   18.7650 C   0  0  0  0  0  0  0  0  0  0  0  0
    8.5540   -0.0150   22.9830 N   0  0  0  0  0  0  0  0  0  0  0  0
    9.8590    0.5620   23.2040 C   0  0  0  0  0  0  0  0  0  0  0  0
    9.9640    2.0460   23.2130 C   0  0  0  0  0  0  0  0  0  0  0  0
   11.2130    2.5520   23.3700 C   0  0  0  0  0  0  0  0  0  0  0  0
   11.3840    4.2730   23.4180 Cl  0  0  0  0  0  0  0  0  0  0  0  0
   12.3250    1.7130   23.4840 C   0  0  0  0  0  0  0  0  0  0  0  0
   12.2100    0.3420   23.5020 C   0  0  0  0  0  0  0  0  0  0  0  0
   10.9500   -0.1820   23.3780 C   0  0  0  0  0  0  0  0  0  0  0  0
   10.6900   -1.4350   23.4230 O   0  0  0  0  0  0  0  0  0  0  0  0
   11.6030   -2.0950   22.7270 C   0  0  0  0  0  0  0  0  0  0  0  0
   11.3360   -2.4120   21.3630 C   0  0  0  0  0  0  0  0  0  0  0  0
   12.3480   -3.2240   20.6310 C   0  0  0  0  0  0  0  0  0  0  0  0
   13.4460   -3.6030   21.3570 C   0  0  0  0  0  0  0  0  0  0  0  0
   14.6160   -4.7150   20.6470 Cl  0  0  0  0  0  0  0  0  0  0  0  0
   13.6340   -3.1750   22.7030 C   0  0  0  0  0  0  0  0  0  0  0  0
   12.7340   -2.4390   23.3790 C   0  0  0  0  0  0  0  0  0  0  0  0
   13.0550   -2.0240   25.0070 Cl  0  0  0  0  0  0  0  0  0  0  0  0
  1  2  2  0
  2  3  1  0
  3  4  1  0
  4  5  2  0
  5  6  1  0
  6  7  2  0
  7  8  1  0
  4  9  1  0
  8  9  2  0
  2 10  1  0
 10 11  1  0
 11 12  2  0
 12 13  1  0
 13 14  1  0
 13 15  2  0
 15 16  1  0
 11 17  1  0
 16 17  2  0
 17 18  1  0
 18 19  1  0
 19 20  2  0
 20 21  1  0
 21 22  2  0
 22 23  1  0
 22 24  1  0
 19 25  1  0
 24 25  2  0
 25 26  1  0
M  END
