pyridine_urea_10784
     RDKit          3D

 20 22  0  0  0  0  0  0  0  0999 V2000
    9.0580    1.1770   21.3470 O   0  0  0  0  0  0  0  0  0  0  0  0
    8.2830    0.2880   21.7220 C   0  0  0  0  0  0  0  0  0  0  0  0
    8.1270   -0.1350   23.1140 N   0  0  0  0  0  0  0  0  0  0  0  0
    9.1650   -0.3190   24.0340 C   0  0  0  0  0  0  0  0  0  0  0  0
   10.2800    0.5020   24.0130 C   0  0  0  0  0  0  0  0  0  0  0  0
   11.5790    1.1090   23.7990 C   0  0  0  0  0  0  0  0  0  0  0  0
   12.7130    0.6830   23.0880 C   0  0  0  0  0  0  0  0  0  0  0  0
   12.6930   -0.5820   22.3960 C   0  0  0  0  0  0  0  0  0  0  0  0
   13.6550   -1.1540   21.6670 N   0  0  0  0  0  0  0  0  0  0  0  0
   12.9440   -2.6090   21.1500 S   0  0  0  0  0  0  0  0  0  0  0  0
   11.4210   -2.5570   21.8340 N   0  0  0  0  0  0  0  0  0  0  0  0
   11.5120   -1.3110   22.4900 C   0  0  0  0  0  0  0  0  0  0  0  0
   10.3940   -0.7300   23.2870 C   0  0  0  0  0  0  0  0  0  0  0  0
    7.4070   -0.4310   20.9440 N   0  0  0  0  0  0  0  0  0  0  0  0
    6.5700    0.1730   20.0060 C   0  0  0  0  0  0  0  0  0  0  0  0
    5.3950    0.8710   20.3090 C   0  0  0  0  0  0  0  0  0  0  0  0
    4.6750    1.4360   19.2620 C   0  0  0  0  0  0  0  0  0  0  0  0
    5.1570    1.2750   17.9950 C   0  0  0  0  0  0  0  0  0  0  0  0
    6.2590    0.6110   17.6630 N   0  0  0  0  0  0  0  0  0  0  0  0
    6.9450    0.0700   18.6830 C   0  0  0  0  0  0  0  0  0  0  0  0
  1  2  2  0
  2  3  1  0
  3  4  1  0
  4  5  1  0
  5  6  1  0
  6  7  2  0
  7  8  1  0
  8  9  2  0
  9 10  1  0
 10 11  1  0
  8 12  1  0
 11 12  2  0
  5 13  2  0
 12 13  1  0
  2 14  1  0
 14 15  1  0
 15 16  2  0
 16 17  1  0
 17 18  2  0
 18 19  1  0
 15 20  1  0
 19 20  2  0
M  END
