pyridine_urea_11293
     RDKit          3D

 17 18  0  0  0  0  0  0  0  0999 V2000
    9.7790    0.0250   24.2180 C   0  0  0  0  0  0  0  0  0  0  0  0
   11.0190    0.0320   23.5990 N   0  0  0  0  0  0  0  0  0  0  0  0
   11.9000    1.1350   23.7790 C   0  0  0  0  0  0  0  0  0  0  0  0
   13.0310    0.7490   23.0100 C   0  0  0  0  0  0  0  0  0  0  0  0
   12.6430   -0.5420   22.4790 C   0  0  0  0  0  0  0  0  0  0  0  0
   11.3580   -1.1340   22.7700 C   0  0  0  0  0  0  0  0  0  0  0  0
    9.9510   -1.5970   23.1920 C   0  0  0  0  0  0  0  0  0  0  0  0
    9.2200   -1.4950   22.0240 N   0  0  0  0  0  0  0  0  0  0  0  0
    8.5030   -0.3750   21.5480 C   0  0  0  0  0  0  0  0  0  0  0  0
    9.0340    0.9470   21.5060 O   0  0  0  0  0  0  0  0  0  0  0  0
    7.2380   -0.7130   21.1190 N   0  0  0  0  0  0  0  0  0  0  0  0
    6.5690   -0.0460   20.0870 C   0  0  0  0  0  0  0  0  0  0  0  0
    5.3340    0.7580   20.3420 C   0  0  0  0  0  0  0  0  0  0  0  0
    4.6840    1.4320   19.3240 C   0  0  0  0  0  0  0  0  0  0  0  0
    5.1240    1.4130   18.0050 C   0  0  0  0  0  0  0  0  0  0  0  0
    6.3380    0.6220   17.7070 N   0  0  0  0  0  0  0  0  0  0  0  0
    6.9500   -0.0350   18.7640 C   0  0  0  0  0  0  0  0  0  0  0  0
  1  2  1  0
  2  3  1  0
  3  4  2  0
  4  5  1  0
  2  6  1  0
  5  6  2  0
  6  7  1  0
  7  8  1  0
  8  9  1  0
  9 10  2  0
  9 11  1  0
 11 12  1  0
 12 13  2  0
 13 14  1  0
 14 15  2  0
 15 16  1  0
 12 17  1  0
 16 17  2  0
M  END
