pyridine_urea_2345
     RDKit          3D

 25 26  0  0  0  0  0  0  0  0999 V2000
   21.0810   -2.0100   24.9410 C   0  0  0  0  0  0  0  0  0  0  0  0
   20.3210   -1.8190   26.2480 C   0  0  0  0  0  0  0  0  0  0  0  0
   19.1720   -1.0530   26.0790 C   0  0  0  0  0  0  0  0  0  0  0  0
   17.9500   -1.7790   25.7620 C   0  0  0  0  0  0  0  0  0  0  0  0
   16.3870   -1.7840   26.2920 C   0  0  0  0  0  0  0  0  0  0  0  0
   15.0270   -2.3710   26.1270 C   0  0  0  0  0  0  0  0  0  0  0  0
   14.0360   -1.8090   25.6130 O   0  0  0  0  0  0  0  0  0  0  0  0
   13.6220   -2.1310   24.3590 C   0  0  0  0  0  0  0  0  0  0  0  0
   14.1360   -3.2330   23.6760 O   0  0  0  0  0  0  0  0  0  0  0  0
   12.5870   -1.3360   23.6040 C   0  0  0  0  0  0  0  0  0  0  0  0
   12.4490    0.0290   23.3610 C   0  0  0  0  0  0  0  0  0  0  0  0
   11.3570    0.4580   22.6070 C   0  0  0  0  0  0  0  0  0  0  0  0
   10.4480   -0.4760   22.1240 C   0  0  0  0  0  0  0  0  0  0  0  0
    9.3450   -0.0710   21.3340 N   0  0  0  0  0  0  0  0  0  0  0  0
    8.1170    0.1550   21.8310 C   0  0  0  0  0  0  0  0  0  0  0  0
    7.9650    0.9120   22.7540 O   0  0  0  0  0  0  0  0  0  0  0  0
    7.1620   -0.5380   21.1310 N   0  0  0  0  0  0  0  0  0  0  0  0
    6.4680    0.0450   20.0610 C   0  0  0  0  0  0  0  0  0  0  0  0
    5.4080    0.9040   20.3660 C   0  0  0  0  0  0  0  0  0  0  0  0
    4.7260    1.5030   19.3220 C   0  0  0  0  0  0  0  0  0  0  0  0
    5.1070    1.2400   18.0310 C   0  0  0  0  0  0  0  0  0  0  0  0
    6.1020    0.4240   17.6940 N   0  0  0  0  0  0  0  0  0  0  0  0
    6.7670   -0.1640   18.7170 C   0  0  0  0  0  0  0  0  0  0  0  0
   10.6110   -1.7730   22.3750 C   0  0  0  0  0  0  0  0  0  0  0  0
   11.6680   -2.1780   23.0980 C   0  0  0  0  0  0  0  0  0  0  0  0
  1  2  1  0
  2  3  1  0
  3  4  1  0
  4  5  1  0
  5  6  1  0
  6  7  1  0
  7  8  1  0
  8  9  2  0
  8 10  1  0
 10 11  2  0
 11 12  1  0
 12 13  2  0
 13 14  1  0
 14 15  1  0
 15 16  2  0
 15 17  1  0
 17 18  1  0
 18 19  2  0
 19 20  1  0
 20 21  2  0
 21 22  1  0
 18 23  1  0
 22 23  2  0
 13 24  1  0
 10 25  1  0
 24 25  2  0
M  END
