pyridine_urea_613
     RDKit          3D

 24 26  0  0  0  0  0  0  0  0999 V2000
   10.9580    6.7030   22.8620 C   0  0  0  0  0  0  0  0  0  0  0  0
   11.6710    5.3780   22.8660 C   0  0  0  0  0  0  0  0  0  0  0  0
   10.9070    4.2430   22.7960 C   0  0  0  0  0  0  0  0  0  0  0  0
   11.5110    3.0050   22.8190 C   0  0  0  0  0  0  0  0  0  0  0  0
   12.8860    2.9240   22.9120 C   0  0  0  0  0  0  0  0  0  0  0  0
   13.4310    1.7990   22.9600 O   0  0  0  0  0  0  0  0  0  0  0  0
   12.5070    0.8540   22.8050 C   0  0  0  0  0  0  0  0  0  0  0  0
   11.1060    1.2950   23.0130 C   0  0  0  0  0  0  0  0  0  0  0  0
   10.0440    0.5270   22.8570 C   0  0  0  0  0  0  0  0  0  0  0  0
   10.2590   -0.7680   22.4650 C   0  0  0  0  0  0  0  0  0  0  0  0
    9.0890   -1.4720   22.2440 N   0  0  0  0  0  0  0  0  0  0  0  0
    8.1930   -0.5830   21.4570 C   0  0  0  0  0  0  0  0  0  0  0  0
    8.5310    0.5740   21.2360 O   0  0  0  0  0  0  0  0  0  0  0  0
    7.0090   -1.0810   20.9830 N   0  0  0  0  0  0  0  0  0  0  0  0
    6.3070   -0.2830   20.0460 C   0  0  0  0  0  0  0  0  0  0  0  0
    5.0290    0.4420   20.2700 C   0  0  0  0  0  0  0  0  0  0  0  0
    4.5330    1.1870   19.1940 C   0  0  0  0  0  0  0  0  0  0  0  0
    5.2020    1.2450   17.9800 C   0  0  0  0  0  0  0  0  0  0  0  0
    6.3560    0.5890   17.7680 N   0  0  0  0  0  0  0  0  0  0  0  0
    6.8700   -0.1440   18.7840 C   0  0  0  0  0  0  0  0  0  0  0  0
   11.5770   -1.2850   22.2750 C   0  0  0  0  0  0  0  0  0  0  0  0
   12.7250   -0.4740   22.4500 C   0  0  0  0  0  0  0  0  0  0  0  0
   13.6270    4.0920   22.9640 N   0  0  0  0  0  0  0  0  0  0  0  0
   13.0120    5.3160   22.9400 N   0  0  0  0  0  0  0  0  0  0  0  0
  1  2  1  0
  2  3  2  0
  3  4  1  0
  4  5  2  0
  5  6  1  0
  6  7  1  0
  7  8  2  0
  8  9  1  0
  9 10  2  0
 10 11  1  0
 11 12  1  0
 12 13  2  0
 12 14  1  0
 14 15  1  0
 15 16  2  0
 16 17  1  0
 17 18  2  0
 18 19  1  0
 15 20  1  0
 19 20  2  0
 10 21  1  0
  7 22  1  0
 21 22  2  0
  5 23  1  0
  2 24  1  0
 23 24  2  0
M  END
