pyridine_urea_12660
     RDKit          3D

 20 21  0  0  0  0  0  0  0  0999 V2000
   13.6830   -2.3170   24.6940 C   0  0  0  0  0  0  0  0  0  0  0  0
   13.7860   -1.1080   23.9260 O   0  0  0  0  0  0  0  0  0  0  0  0
   12.5860   -0.6830   23.5670 C   0  0  0  0  0  0  0  0  0  0  0  0
   11.6000   -1.7960   23.5500 C   0  0  0  0  0  0  0  0  0  0  0  0
   10.3140   -1.5800   23.2370 C   0  0  0  0  0  0  0  0  0  0  0  0
    8.9930   -2.9240   23.2220 Br  0  0  0  0  0  0  0  0  0  0  0  0
    9.9530   -0.3100   22.9320 C   0  0  0  0  0  0  0  0  0  0  0  0
    8.5650   -0.2500   22.6340 N   0  0  0  0  0  0  0  0  0  0  0  0
    8.2180    0.3570   21.4840 C   0  0  0  0  0  0  0  0  0  0  0  0
    8.7890    1.3700   21.0710 O   0  0  0  0  0  0  0  0  0  0  0  0
    7.1780   -0.3190   20.9250 N   0  0  0  0  0  0  0  0  0  0  0  0
    6.4270    0.2700   19.9430 C   0  0  0  0  0  0  0  0  0  0  0  0
    5.2390    0.9840   20.1590 C   0  0  0  0  0  0  0  0  0  0  0  0
    4.5780    1.5670   19.0820 C   0  0  0  0  0  0  0  0  0  0  0  0
    5.1150    1.4260   17.8130 C   0  0  0  0  0  0  0  0  0  0  0  0
    6.2590    0.7200   17.6060 N   0  0  0  0  0  0  0  0  0  0  0  0
    6.9090    0.1450   18.6690 C   0  0  0  0  0  0  0  0  0  0  0  0
   10.8420    0.7700   22.9210 C   0  0  0  0  0  0  0  0  0  0  0  0
   12.1750    0.6010   23.2360 C   0  0  0  0  0  0  0  0  0  0  0  0
   12.9910    1.6400   23.2130 F   0  0  0  0  0  0  0  0  0  0  0  0
  1  2  1  0
  2  3  1  0
  3  4  2  0
  4  5  1  0
  5  6  1  0
  5  7  2  0
  7  8  1  0
  8  9  1  0
  9 10  2  0
  9 11  1  0
 11 12  1  0
 12 13  2  0
 13 14  1  0
 14 15  2  0
 15 16  1  0
 12 17  1  0
 16 17  2  0
  7 18  1  0
  3 19  1  0
 18 19  2  0
 19 20  1  0
M  END
