pyridine_urea_2687
     RDKit          3D

 23 25  0  0  0  0  0  0  0  0999 V2000
    9.4640    0.3500   21.6780 O   0  0  0  0  0  0  0  0  0  0  0  0
    8.3840   -0.1690   21.4510 C   0  0  0  0  0  0  0  0  0  0  0  0
    8.1790   -1.4930   21.2470 N   0  0  0  0  0  0  0  0  0  0  0  0
    6.7480   -1.8960   21.1830 C   0  0  0  0  0  0  0  0  0  0  0  0
    6.4150   -3.0430   22.1870 C   0  0  0  0  0  0  0  0  0  0  0  0
    7.2810   -3.2710   23.3150 N   0  0  0  0  0  0  0  0  0  0  0  0
    6.6380   -4.3680   23.9640 C   0  0  0  0  0  0  0  0  0  0  0  0
    7.4100   -4.7820   25.2250 C   0  0  0  0  0  0  0  0  0  0  0  0
    6.8410   -5.3550   26.3570 C   0  0  0  0  0  0  0  0  0  0  0  0
    7.7050   -5.7110   27.5740 C   0  0  0  0  0  0  0  0  0  0  0  0
    9.2150   -5.4590   27.6110 C   0  0  0  0  0  0  0  0  0  0  0  0
    9.7370   -4.8330   26.3220 C   0  0  0  0  0  0  0  0  0  0  0  0
   11.0680   -4.5640   26.2460 F   0  0  0  0  0  0  0  0  0  0  0  0
    8.7820   -4.5250   25.1810 C   0  0  0  0  0  0  0  0  0  0  0  0
    5.4880   -4.7950   23.3150 N   0  0  0  0  0  0  0  0  0  0  0  0
    5.2910   -3.9560   22.1400 O   0  0  0  0  0  0  0  0  0  0  0  0
    7.1830    0.4280   21.3380 N   0  0  0  0  0  0  0  0  0  0  0  0
    6.5280    0.6790   20.1380 C   0  0  0  0  0  0  0  0  0  0  0  0
    5.2880    1.5320   20.1990 C   0  0  0  0  0  0  0  0  0  0  0  0
    4.6320    1.8110   19.0240 C   0  0  0  0  0  0  0  0  0  0  0  0
    5.1560    1.2890   17.8530 C   0  0  0  0  0  0  0  0  0  0  0  0
    6.2480    0.5180   17.7590 N   0  0  0  0  0  0  0  0  0  0  0  0
    6.9130    0.2200   18.8900 C   0  0  0  0  0  0  0  0  0  0  0  0
  1  2  2  0
  2  3  1  0
  3  4  1  0
  4  5  1  0
  5  6  2  0
  6  7  1  0
  7  8  1  0
  8  9  2  0
  9 10  1  0
 10 11  2  0
 11 12  1  0
 12 13  1  0
  8 14  1  0
 12 14  2  0
  7 15  2  0
  5 16  1  0
 15 16  1  0
  2 17  1  0
 17 18  1  0
 18 19  2  0
 19 20  1  0
 20 21  2  0
 21 22  1  0
 18 23  1  0
 22 23  2  0
M  END
