pyridine_urea_4234
     RDKit          3D

 24 25  0  0  0  0  0  0  0  0999 V2000
   15.5880    1.5680   19.0050 C   0  0  0  0  0  0  0  0  0  0  0  0
   15.0070    0.8200   20.1060 O   0  0  0  0  0  0  0  0  0  0  0  0
   14.4200   -0.4340   19.7440 C   0  0  0  0  0  0  0  0  0  0  0  0
   14.4150   -0.5050   18.6050 O   0  0  0  0  0  0  0  0  0  0  0  0
   13.6490   -1.4470   20.6780 C   0  0  0  0  0  0  0  0  0  0  0  0
   13.6590   -1.1780   22.0930 O   0  0  0  0  0  0  0  0  0  0  0  0
   12.4020   -1.0910   22.6510 C   0  0  0  0  0  0  0  0  0  0  0  0
   11.0420   -1.2200   22.0230 C   0  0  0  0  0  0  0  0  0  0  0  0
    9.7500   -1.0680   22.7640 C   0  0  0  0  0  0  0  0  0  0  0  0
    8.5560   -1.2170   22.0100 N   0  0  0  0  0  0  0  0  0  0  0  0
    8.0720   -0.1420   21.3570 C   0  0  0  0  0  0  0  0  0  0  0  0
    8.7420    1.1220   21.0090 O   0  0  0  0  0  0  0  0  0  0  0  0
    6.7000   -0.4190   21.0280 N   0  0  0  0  0  0  0  0  0  0  0  0
    6.1510    0.2420   19.9600 C   0  0  0  0  0  0  0  0  0  0  0  0
    4.9890    0.9770   20.0100 C   0  0  0  0  0  0  0  0  0  0  0  0
    4.5020    1.6250   18.9140 C   0  0  0  0  0  0  0  0  0  0  0  0
    5.2200    1.5160   17.7390 C   0  0  0  0  0  0  0  0  0  0  0  0
    6.3610    0.8000   17.6340 N   0  0  0  0  0  0  0  0  0  0  0  0
    6.7960    0.1810   18.7440 C   0  0  0  0  0  0  0  0  0  0  0  0
    9.7240   -0.7720   24.2290 C   0  0  0  0  0  0  0  0  0  0  0  0
    8.2230   -0.5910   25.0710 Cl  0  0  0  0  0  0  0  0  0  0  0  0
   10.9070   -0.6720   24.8580 C   0  0  0  0  0  0  0  0  0  0  0  0
   12.1920   -0.8250   24.1670 C   0  0  0  0  0  0  0  0  0  0  0  0
   13.2540   -0.7420   24.8680 C   0  0  0  0  0  0  0  0  0  0  0  0
  1  2  1  0
  2  3  1  0
  3  4  2  0
  3  5  1  0
  5  6  1  0
  6  7  1  0
  7  8  2  0
  8  9  1  0
  9 10  1  0
 10 11  1  0
 11 12  2  0
 11 13  1  0
 13 14  1  0
 14 15  2  0
 15 16  1  0
 16 17  2  0
 17 18  1  0
 14 19  1  0
 18 19  2  0
  9 20  2  0
 20 21  1  0
 20 22  1  0
  7 23  1  0
 22 23  2  0
 23 24  1  0
M  END
