pyridine_urea_7269
     RDKit          3D

 19 20  0  0  0  0  0  0  0  0999 V2000
   13.2780   -1.5350   25.2370 C   0  0  0  0  0  0  0  0  0  0  0  0
   12.1560   -1.2550   24.3210 C   0  0  0  0  0  0  0  0  0  0  0  0
   12.4340   -1.6040   23.0060 C   0  0  0  0  0  0  0  0  0  0  0  0
   11.5520   -1.5020   21.9560 C   0  0  0  0  0  0  0  0  0  0  0  0
   10.3210   -1.0070   22.3230 C   0  0  0  0  0  0  0  0  0  0  0  0
    9.2980   -0.8810   21.3430 N   0  0  0  0  0  0  0  0  0  0  0  0
    8.4060    0.1110   21.2210 C   0  0  0  0  0  0  0  0  0  0  0  0
    8.7920    1.2900   21.2190 O   0  0  0  0  0  0  0  0  0  0  0  0
    7.0500   -0.3920   21.0580 N   0  0  0  0  0  0  0  0  0  0  0  0
    6.3470    0.2020   20.0620 C   0  0  0  0  0  0  0  0  0  0  0  0
    5.0470    0.9630   20.1830 C   0  0  0  0  0  0  0  0  0  0  0  0
    4.5080    1.5210   19.0450 C   0  0  0  0  0  0  0  0  0  0  0  0
    5.1570    1.3740   17.8390 C   0  0  0  0  0  0  0  0  0  0  0  0
    6.3080    0.6960   17.6740 N   0  0  0  0  0  0  0  0  0  0  0  0
    6.8680    0.1300   18.7740 C   0  0  0  0  0  0  0  0  0  0  0  0
   10.0050   -0.6030   23.7250 C   0  0  0  0  0  0  0  0  0  0  0  0
    8.7870   -0.1020   24.1860 C   0  0  0  0  0  0  0  0  0  0  0  0
   10.9220   -0.7270   24.6840 C   0  0  0  0  0  0  0  0  0  0  0  0
   10.5610   -0.3490   25.9230 O   0  0  0  0  0  0  0  0  0  0  0  0
  1  2  1  0
  2  3  2  0
  3  4  1  0
  4  5  2  0
  5  6  1  0
  6  7  1  0
  7  8  2  0
  7  9  1  0
  9 10  1  0
 10 11  2  0
 11 12  1  0
 12 13  2  0
 13 14  1  0
 10 15  1  0
 14 15  2  0
  5 16  1  0
 16 17  1  0
  2 18  1  0
 16 18  2  0
 18 19  1  0
M  END
