pyridine_urea_11639
     RDKit          3D

 21 23  0  0  0  0  0  0  0  0999 V2000
   11.5370    1.8640   23.8220 C   0  0  0  0  0  0  0  0  0  0  0  0
   11.4990    0.3860   24.0080 C   0  0  0  0  0  0  0  0  0  0  0  0
   10.4120   -0.2430   24.6050 C   0  0  0  0  0  0  0  0  0  0  0  0
   12.8430   -0.3700   24.3810 C   0  0  1  0  0  0  0  0  0  0  0  0
   12.7890   -1.7430   24.6040 C   0  0  0  0  0  0  0  0  0  0  0  0
   11.9340   -2.3070   23.7270 C   0  0  0  0  0  0  0  0  0  0  0  0
   11.5060   -1.4660   22.7590 C   0  0  0  0  0  0  0  0  0  0  0  0
   10.5080   -1.8570   21.7610 C   0  0  0  0  0  0  0  0  0  0  0  0
    9.4930   -2.2360   22.5840 C   0  0  0  0  0  0  0  0  0  0  0  0
    8.2590   -1.7530   22.0550 N   0  0  0  0  0  0  0  0  0  0  0  0
    8.1000   -0.5000   21.5200 C   0  0  0  0  0  0  0  0  0  0  0  0
    8.9680    0.3600   21.4260 O   0  0  0  0  0  0  0  0  0  0  0  0
    6.7910   -0.4380   21.1560 N   0  0  0  0  0  0  0  0  0  0  0  0
    6.2240    0.2090   20.0670 C   0  0  0  0  0  0  0  0  0  0  0  0
    5.0620    0.9590   20.1520 C   0  0  0  0  0  0  0  0  0  0  0  0
    4.5040    1.6020   19.0820 C   0  0  0  0  0  0  0  0  0  0  0  0
    5.2650    1.4180   17.8190 C   0  0  0  0  0  0  0  0  0  0  0  0
    6.3890    0.6990   17.6950 N   0  0  0  0  0  0  0  0  0  0  0  0
    6.8400    0.1090   18.8210 C   0  0  0  0  0  0  0  0  0  0  0  0
   12.0530   -0.0670   22.8060 C   0  0  2  0  0  0  0  0  0  0  0  0
   13.3840   -0.1100   23.0490 C   0  0  0  0  0  0  0  0  0  0  0  0
  2  1  1  0
  2  3  1  0
  2  4  1  0
  4  5  1  6
  5  6  1  0
  6  7  2  0
  7  8  1  0
  8  9  1  0
  9 10  1  0
 10 11  1  0
 11 12  2  0
 11 13  1  0
 13 14  1  0
 14 15  2  0
 15 16  1  0
 16 17  2  0
 17 18  1  0
 14 19  1  0
 18 19  2  0
  2 20  1  0
  7 20  1  0
  4 21  1  0
 20 21  1  1
M  END
