pyridine_urea_8126
     RDKit          3D

 24 26  0  0  0  0  0  0  0  0999 V2000
    8.7200    0.6600   21.1860 O   0  0  0  0  0  0  0  0  0  0  0  0
    8.3070   -0.4700   21.3970 C   0  0  0  0  0  0  0  0  0  0  0  0
    7.0270   -0.8510   21.0670 N   0  0  0  0  0  0  0  0  0  0  0  0
    6.3810   -0.0910   20.0290 C   0  0  0  0  0  0  0  0  0  0  0  0
    5.0700    0.6980   20.3380 C   0  0  0  0  0  0  0  0  0  0  0  0
    4.5040    1.4140   19.2910 C   0  0  0  0  0  0  0  0  0  0  0  0
    5.2240    1.3580   17.9380 C   0  0  0  0  0  0  0  0  0  0  0  0
    6.3540    0.6530   17.7300 N   0  0  0  0  0  0  0  0  0  0  0  0
    6.8960   -0.0410   18.7550 C   0  0  0  0  0  0  0  0  0  0  0  0
    8.9890   -1.5000   21.9820 N   0  0  0  0  0  0  0  0  0  0  0  0
   10.1360   -1.1270   22.7760 C   0  0  0  0  0  0  0  0  0  0  0  0
   11.4610   -1.2150   22.0460 C   0  0  0  0  0  0  0  0  0  0  0  0
   12.7120   -0.8230   22.8100 C   0  0  0  0  0  0  0  0  0  0  0  0
   12.5440   -0.3860   24.2640 C   0  0  0  0  0  0  0  0  0  0  0  0
   11.1570   -0.3530   24.9010 C   0  0  0  0  0  0  0  0  0  0  0  0
    9.9710   -0.7320   24.0950 C   0  0  0  0  0  0  0  0  0  0  0  0
    8.8120   -0.7380   24.5320 O   0  0  0  0  0  0  0  0  0  0  0  0
    8.2070    0.5360   24.9000 C   0  0  0  0  0  0  0  0  0  0  0  0
    7.7360    1.3070   23.8320 C   0  0  0  0  0  0  0  0  0  0  0  0
    7.1260    2.5510   24.0590 C   0  0  0  0  0  0  0  0  0  0  0  0
    6.9840    3.0240   25.3510 C   0  0  0  0  0  0  0  0  0  0  0  0
    7.4610    2.2420   26.4090 C   0  0  0  0  0  0  0  0  0  0  0  0
    8.0750    1.0050   26.2390 C   0  0  0  0  0  0  0  0  0  0  0  0
    8.6150    0.1460   27.6330 Cl  0  0  0  0  0  0  0  0  0  0  0  0
  1  2  2  0
  2  3  1  0
  3  4  1  0
  4  5  2  0
  5  6  1  0
  6  7  2  0
  7  8  1  0
  4  9  1  0
  8  9  2  0
  2 10  1  0
 10 11  1  0
 11 12  2  0
 12 13  1  0
 13 14  2  0
 14 15  1  0
 11 16  1  0
 15 16  2  0
 16 17  1  0
 17 18  1  0
 18 19  2  0
 19 20  1  0
 20 21  2  0
 21 22  1  0
 18 23  1  0
 22 23  2  0
 23 24  1  0
M  END
