pyridine_urea_5309
     RDKit          3D

 19 21  0  0  0  0  0  0  0  0999 V2000
    8.9470    1.6330   21.0300 O   0  0  0  0  0  0  0  0  0  0  0  0
    8.4000    0.7160   21.6170 C   0  0  0  0  0  0  0  0  0  0  0  0
    7.4090   -0.1070   21.1360 N   0  0  0  0  0  0  0  0  0  0  0  0
    6.6360    0.3020   20.0560 C   0  0  0  0  0  0  0  0  0  0  0  0
    5.4780    1.0390   20.3150 C   0  0  0  0  0  0  0  0  0  0  0  0
    4.6970    1.4870   19.2560 C   0  0  0  0  0  0  0  0  0  0  0  0
    5.1120    1.1780   17.9840 C   0  0  0  0  0  0  0  0  0  0  0  0
    6.2080    0.4650   17.7100 N   0  0  0  0  0  0  0  0  0  0  0  0
    6.9460    0.0390   18.7470 C   0  0  0  0  0  0  0  0  0  0  0  0
    8.7600    0.4350   22.8960 N   0  0  0  0  0  0  0  0  0  0  0  0
    9.9970   -0.2510   23.0440 C   0  0  0  0  0  0  0  0  0  0  0  0
   10.6780   -1.0460   21.9180 C   0  0  0  0  0  0  0  0  0  0  0  0
   11.8730   -1.7440   22.0730 C   0  0  0  0  0  0  0  0  0  0  0  0
   12.4660   -1.7350   23.2900 C   0  0  0  0  0  0  0  0  0  0  0  0
   13.5900   -2.3560   23.7410 C   0  0  0  0  0  0  0  0  0  0  0  0
   13.6990   -2.0050   25.0270 C   0  0  0  0  0  0  0  0  0  0  0  0
   12.7160   -1.1920   25.3800 N   0  0  0  0  0  0  0  0  0  0  0  0
   11.8970   -1.0110   24.3200 C   0  0  0  0  0  0  0  0  0  0  0  0
   10.7630   -0.2930   24.2830 C   0  0  0  0  0  0  0  0  0  0  0  0
  1  2  2  0
  2  3  1  0
  3  4  1  0
  4  5  2  0
  5  6  1  0
  6  7  2  0
  7  8  1  0
  4  9  1  0
  8  9  2  0
  2 10  1  0
 10 11  1  0
 11 12  2  0
 12 13  1  0
 13 14  2  0
 14 15  1  0
 15 16  2  0
 16 17  1  0
 14 18  1  0
 17 18  1  0
 11 19  1  0
 18 19  2  0
M  END
