pyridine_urea_10967
     RDKit          3D

 19 20  0  0  0  0  0  0  0  0999 V2000
    8.3810    0.6950   21.1750 O   0  0  0  0  0  0  0  0  0  0  0  0
    7.9100   -0.3920   21.4910 C   0  0  0  0  0  0  0  0  0  0  0  0
    6.6640   -0.8720   20.9650 N   0  0  0  0  0  0  0  0  0  0  0  0
    6.1570   -0.1040   19.9430 C   0  0  0  0  0  0  0  0  0  0  0  0
    4.9830    0.6160   20.1310 C   0  0  0  0  0  0  0  0  0  0  0  0
    4.5090    1.3850   19.0700 C   0  0  0  0  0  0  0  0  0  0  0  0
    5.2210    1.4030   17.8730 C   0  0  0  0  0  0  0  0  0  0  0  0
    6.3540    0.7050   17.6880 N   0  0  0  0  0  0  0  0  0  0  0  0
    6.8000   -0.0360   18.7280 C   0  0  0  0  0  0  0  0  0  0  0  0
    8.4650   -1.2890   22.3420 N   0  0  0  0  0  0  0  0  0  0  0  0
    9.8610   -1.0910   22.4300 C   0  0  0  0  0  0  0  0  0  0  0  0
   10.7910   -1.9830   21.7370 C   0  0  0  0  0  0  0  0  0  0  0  0
   12.1170   -1.7250   21.8390 C   0  0  0  0  0  0  0  0  0  0  0  0
   12.7360   -0.6880   22.5410 C   0  0  0  0  0  0  0  0  0  0  0  0
   12.9600    0.3550   23.2760 C   0  0  0  0  0  0  0  0  0  0  0  0
   13.2710   -0.1120   24.4530 F   0  0  0  0  0  0  0  0  0  0  0  0
   13.9260    1.1060   22.7880 F   0  0  0  0  0  0  0  0  0  0  0  0
   11.7170    0.0770   23.1540 N   0  0  0  0  0  0  0  0  0  0  0  0
   10.3590   -0.0950   23.1160 C   0  0  0  0  0  0  0  0  0  0  0  0
  1  2  2  0
  2  3  1  0
  3  4  1  0
  4  5  2  0
  5  6  1  0
  6  7  2  0
  7  8  1  0
  4  9  1  0
  8  9  2  0
  2 10  1  0
 10 11  1  0
 11 12  2  0
 12 13  1  0
 13 14  2  0
 14 15  1  0
 15 16  1  0
 15 17  1  0
 14 18  1  0
 11 19  1  0
 18 19  2  0
M  END
