pyridine_urea_14907
     RDKit          3D

 20 21  0  0  0  0  0  0  0  0999 V2000
    7.9200   -3.7540   24.3180 O   0  0  0  0  0  0  0  0  0  0  0  0
    8.3990   -2.8970   23.5830 C   0  0  0  0  0  0  0  0  0  0  0  0
    7.8700   -1.4700   23.4660 C   0  0  0  0  0  0  0  0  0  0  0  0
    8.7920   -0.6440   22.6750 N   0  0  0  0  0  0  0  0  0  0  0  0
    8.3300    0.0650   21.5890 C   0  0  0  0  0  0  0  0  0  0  0  0
    8.9900    1.2280   21.2310 O   0  0  0  0  0  0  0  0  0  0  0  0
    7.2220   -0.5300   21.0320 N   0  0  0  0  0  0  0  0  0  0  0  0
    6.5220    0.0970   20.0100 C   0  0  0  0  0  0  0  0  0  0  0  0
    5.2480    0.8590   20.3610 C   0  0  0  0  0  0  0  0  0  0  0  0
    4.4960    1.5570   19.2450 C   0  0  0  0  0  0  0  0  0  0  0  0
    5.1720    1.3710   17.8980 C   0  0  0  0  0  0  0  0  0  0  0  0
    6.2950    0.6750   17.6700 N   0  0  0  0  0  0  0  0  0  0  0  0
    6.9310    0.0670   18.6940 C   0  0  0  0  0  0  0  0  0  0  0  0
    9.4620   -3.0200   22.7350 N   0  0  0  0  0  0  0  0  0  0  0  0
   10.7150   -2.6100   23.1190 C   0  0  0  0  0  0  0  0  0  0  0  0
   11.2360   -3.0930   24.2920 C   0  0  0  0  0  0  0  0  0  0  0  0
   12.4950   -2.6830   24.6830 C   0  0  0  0  0  0  0  0  0  0  0  0
   13.1990   -1.7970   23.8870 C   0  0  0  0  0  0  0  0  0  0  0  0
   12.7130   -1.3040   22.7230 N   0  0  0  0  0  0  0  0  0  0  0  0
   11.4760   -1.7270   22.3650 C   0  0  0  0  0  0  0  0  0  0  0  0
  1  2  2  0
  2  3  1  0
  3  4  1  0
  4  5  1  0
  5  6  2  0
  5  7  1  0
  7  8  1  0
  8  9  2  0
  9 10  1  0
 10 11  2  0
 11 12  1  0
  8 13  1  0
 12 13  2  0
  2 14  1  0
 14 15  1  0
 15 16  2  0
 16 17  1  0
 17 18  2  0
 18 19  1  0
 15 20  1  0
 19 20  2  0
M  END
