pyridine_urea_6378
     RDKit          3D

 23 24  0  0  0  0  0  0  0  0999 V2000
    8.8090    0.7760   21.3330 O   0  0  0  0  0  0  0  0  0  0  0  0
    8.4100   -0.3700   21.4940 C   0  0  0  0  0  0  0  0  0  0  0  0
    7.1240   -0.7570   21.1630 N   0  0  0  0  0  0  0  0  0  0  0  0
    6.4860   -0.0690   20.0580 C   0  0  0  0  0  0  0  0  0  0  0  0
    5.2030    0.6960   20.3800 C   0  0  0  0  0  0  0  0  0  0  0  0
    4.5880    1.3990   19.2170 C   0  0  0  0  0  0  0  0  0  0  0  0
    5.2050    1.3050   17.9850 C   0  0  0  0  0  0  0  0  0  0  0  0
    6.3350    0.6110   17.7540 N   0  0  0  0  0  0  0  0  0  0  0  0
    6.9380   -0.0480   18.7630 C   0  0  0  0  0  0  0  0  0  0  0  0
    9.1690   -1.4050   22.0130 N   0  0  0  0  0  0  0  0  0  0  0  0
   10.1560   -1.2150   23.1070 C   0  0  2  0  0  0  0  0  0  0  0  0
    9.9830    0.0190   23.6140 C   0  0  0  0  0  0  0  0  0  0  0  0
   11.3130   -0.1040   24.2820 C   0  0  0  0  0  0  0  0  0  0  0  0
   12.2500    0.6680   23.6390 C   0  0  0  0  0  0  0  0  0  0  0  0
   12.9460    1.6840   23.0140 C   0  0  0  0  0  0  0  0  0  0  0  0
   12.6980    3.0200   22.6750 C   0  0  0  0  0  0  0  0  0  0  0  0
   11.5400    3.9660   22.8320 C   0  0  0  0  0  0  0  0  0  0  0  0
   10.7570    2.9040   23.5070 C   0  0  0  0  0  0  0  0  0  0  0  0
   11.1200    1.4850   23.8330 C   0  0  0  0  0  0  0  0  0  0  0  0
   11.5960   -1.5380   22.5490 C   0  0  0  0  0  0  0  0  0  0  0  0
   12.3540   -0.4390   22.3730 F   0  0  0  0  0  0  0  0  0  0  0  0
   11.5450   -2.1970   21.3920 F   0  0  0  0  0  0  0  0  0  0  0  0
   12.2920   -2.3460   23.3950 F   0  0  0  0  0  0  0  0  0  0  0  0
  1  2  2  0
  2  3  1  0
  3  4  1  0
  4  5  2  0
  5  6  1  0
  6  7  2  0
  7  8  1  0
  4  9  1  0
  8  9  2  0
  2 10  1  0
 10 11  1  0
 11 12  1  6
 12 13  1  0
 13 14  1  0
 14 15  2  0
 15 16  1  0
 16 17  2  0
 17 18  1  0
 14 19  1  0
 18 19  2  0
 11 20  1  0
 20 21  1  0
 20 22  1  0
 20 23  1  0
M  END
