pyridine_urea_3639
     RDKit          3D

 17 17  0  0  0  0  0  0  0  0999 V2000
    8.9820    1.1100   21.2340 O   0  0  0  0  0  0  0  0  0  0  0  0
    8.4800    0.0130   21.5190 C   0  0  0  0  0  0  0  0  0  0  0  0
    8.9920   -0.8150   22.5040 N   0  0  0  0  0  0  0  0  0  0  0  0
   10.3800   -0.6790   22.9020 C   0  0  0  0  0  0  0  0  0  0  0  0
   10.5750    0.3490   24.0070 C   0  0  0  0  0  0  0  0  0  0  0  0
   10.0470    1.5950   23.7780 O   0  0  0  0  0  0  0  0  0  0  0  0
   11.1870    2.3080   23.2730 C   0  0  0  0  0  0  0  0  0  0  0  0
   10.8640    3.7900   23.0260 C   0  0  0  0  0  0  0  0  0  0  0  0
    9.8730    4.2140   23.8480 F   0  0  0  0  0  0  0  0  0  0  0  0
   11.9480    4.5710   23.2850 F   0  0  0  0  0  0  0  0  0  0  0  0
    7.3530   -0.5480   20.9490 N   0  0  0  0  0  0  0  0  0  0  0  0
    6.5440    0.0890   20.0330 C   0  0  0  0  0  0  0  0  0  0  0  0
    5.2570    0.8520   20.3640 C   0  0  0  0  0  0  0  0  0  0  0  0
    4.6220    1.4300   19.2570 C   0  0  0  0  0  0  0  0  0  0  0  0
    5.1590    1.2900   17.9880 C   0  0  0  0  0  0  0  0  0  0  0  0
    6.2800    0.6120   17.7030 N   0  0  0  0  0  0  0  0  0  0  0  0
    6.9370    0.0350   18.7170 C   0  0  0  0  0  0  0  0  0  0  0  0
  1  2  2  0
  2  3  1  0
  3  4  1  0
  4  5  1  0
  5  6  1  0
  6  7  1  0
  7  8  1  0
  8  9  1  0
  8 10  1  0
  2 11  1  0
 11 12  1  0
 12 13  2  0
 13 14  1  0
 14 15  2  0
 15 16  1  0
 12 17  1  0
 16 17  2  0
M  END
