pyridine_urea_14641
     RDKit          3D

 20 21  0  0  0  0  0  0  0  0999 V2000
   12.2850    1.3770   22.7630 C   0  0  0  0  0  0  0  0  0  0  0  0
   13.1300    0.1170   22.8720 C   0  0  0  0  0  0  0  0  0  0  0  0
   13.2930   -0.8610   21.8840 C   0  0  0  0  0  0  0  0  0  0  0  0
   12.4790   -0.6910   23.9380 C   0  0  2  0  0  0  0  0  0  0  0  0
   13.2890   -1.0140   24.8170 O   0  0  0  0  0  0  0  0  0  0  0  0
   12.1040   -1.8770   23.3750 C   0  0  0  0  0  0  0  0  0  0  0  0
   10.9760   -1.8210   22.5790 C   0  0  0  0  0  0  0  0  0  0  0  0
    9.8000   -1.1580   23.2750 C   0  0  2  0  0  0  0  0  0  0  0  0
    8.6250   -1.2150   22.5260 N   0  0  0  0  0  0  0  0  0  0  0  0
    8.1600   -0.3370   21.5660 C   0  0  0  0  0  0  0  0  0  0  0  0
    8.7150    0.7160   21.2500 O   0  0  0  0  0  0  0  0  0  0  0  0
    6.9150   -0.8930   21.0540 N   0  0  0  0  0  0  0  0  0  0  0  0
    6.3320   -0.0820   19.9720 C   0  0  0  0  0  0  0  0  0  0  0  0
    5.1710    0.6320   20.2100 C   0  0  0  0  0  0  0  0  0  0  0  0
    4.5630    1.4160   19.2450 C   0  0  0  0  0  0  0  0  0  0  0  0
    5.2430    1.4370   17.9280 C   0  0  0  0  0  0  0  0  0  0  0  0
    6.3810    0.7330   17.7010 N   0  0  0  0  0  0  0  0  0  0  0  0
    6.8980   -0.0060   18.7150 C   0  0  0  0  0  0  0  0  0  0  0  0
   10.1740    0.0060   23.9220 C   0  0  0  0  0  0  0  0  0  0  0  0
   11.4360    0.0420   24.5080 C   0  0  0  0  0  0  0  0  0  0  0  0
  1  2  1  0
  2  3  1  0
  2  4  1  0
  4  5  1  1
  4  6  1  0
  6  7  1  0
  7  8  1  0
  8  9  1  6
  9 10  1  0
 10 11  2  0
 10 12  1  0
 12 13  1  0
 13 14  2  0
 14 15  1  0
 15 16  2  0
 16 17  1  0
 13 18  1  0
 17 18  2  0
  8 19  1  0
  4 20  1  0
 19 20  1  0
M  END
