pyridine_urea_8524
     RDKit          3D

 22 23  0  0  0  0  0  0  0  0999 V2000
    9.6640    4.5580   25.4800 C   0  0  0  0  0  0  0  0  0  0  0  0
   10.7140    4.3410   24.5480 O   0  0  0  0  0  0  0  0  0  0  0  0
   10.4600    3.4690   23.5270 C   0  0  0  0  0  0  0  0  0  0  0  0
    9.3360    3.2860   23.0790 O   0  0  0  0  0  0  0  0  0  0  0  0
   11.6620    2.8010   23.0450 N   0  0  0  0  0  0  0  0  0  0  0  0
   11.5990    1.3110   22.8990 C   0  0  0  0  0  0  0  0  0  0  0  0
   10.3360    0.7650   22.8390 C   0  0  0  0  0  0  0  0  0  0  0  0
   10.1510   -0.5880   22.6660 C   0  0  0  0  0  0  0  0  0  0  0  0
    8.8870   -1.0130   22.5830 N   0  0  0  0  0  0  0  0  0  0  0  0
    8.2480   -0.2880   21.6260 C   0  0  0  0  0  0  0  0  0  0  0  0
    8.6610    0.7820   21.1990 O   0  0  0  0  0  0  0  0  0  0  0  0
    7.0120   -0.8860   21.1470 N   0  0  0  0  0  0  0  0  0  0  0  0
    6.4310   -0.1710   20.0290 C   0  0  0  0  0  0  0  0  0  0  0  0
    5.1350    0.6090   20.2680 C   0  0  0  0  0  0  0  0  0  0  0  0
    4.5530    1.3230   19.2230 C   0  0  0  0  0  0  0  0  0  0  0  0
    5.2020    1.2790   18.0060 C   0  0  0  0  0  0  0  0  0  0  0  0
    6.3420    0.6030   17.7530 N   0  0  0  0  0  0  0  0  0  0  0  0
    6.9300   -0.1050   18.7480 C   0  0  0  0  0  0  0  0  0  0  0  0
   11.2770   -1.3850   22.5770 C   0  0  0  0  0  0  0  0  0  0  0  0
   12.5500   -0.8540   22.6450 C   0  0  0  0  0  0  0  0  0  0  0  0
   12.7320    0.5090   22.8010 C   0  0  0  0  0  0  0  0  0  0  0  0
   13.9690    0.9550   22.8260 F   0  0  0  0  0  0  0  0  0  0  0  0
  1  2  1  0
  2  3  1  0
  3  4  2  0
  3  5  1  0
  5  6  1  0
  6  7  2  0
  7  8  1  0
  8  9  1  0
  9 10  1  0
 10 11  2  0
 10 12  1  0
 12 13  1  0
 13 14  2  0
 14 15  1  0
 15 16  2  0
 16 17  1  0
 13 18  1  0
 17 18  2  0
  8 19  2  0
 19 20  1  0
  6 21  1  0
 20 21  2  0
 21 22  1  0
M  END
