pyridine_urea_6923
     RDKit          3D

 20 21  0  0  0  0  0  0  0  0999 V2000
    9.5210    2.0040   23.5570 C   0  0  0  0  0  0  0  0  0  0  0  0
   10.1360    0.6170   23.4130 C   0  0  0  0  0  0  0  0  0  0  0  0
    9.4330   -0.3440   24.0830 C   0  0  0  0  0  0  0  0  0  0  0  0
    8.2100   -0.7560   23.3400 N   0  0  0  0  0  0  0  0  0  0  0  0
    7.9810   -0.2690   21.9470 C   0  0  0  0  0  0  0  0  0  0  0  0
    8.6550    0.7190   21.6050 O   0  0  0  0  0  0  0  0  0  0  0  0
    7.0480   -0.9080   21.1440 N   0  0  0  0  0  0  0  0  0  0  0  0
    6.4340   -0.1430   20.0680 C   0  0  0  0  0  0  0  0  0  0  0  0
    5.2730    0.6070   20.2700 C   0  0  0  0  0  0  0  0  0  0  0  0
    4.6330    1.4160   19.1360 C   0  0  0  0  0  0  0  0  0  0  0  0
    5.1960    1.4210   17.8800 C   0  0  0  0  0  0  0  0  0  0  0  0
    6.3280    0.6610   17.7570 N   0  0  0  0  0  0  0  0  0  0  0  0
    6.9590   -0.1030   18.7580 C   0  0  0  0  0  0  0  0  0  0  0  0
   11.5150    0.7210   24.0910 C   0  0  0  0  0  0  0  0  0  0  0  0
   12.5380    0.6160   23.1560 C   0  0  0  0  0  0  0  0  0  0  0  0
   13.0870   -0.7330   22.8580 C   0  0  0  0  0  0  0  0  0  0  0  0
   12.1660   -1.7540   23.0520 C   0  0  0  0  0  0  0  0  0  0  0  0
   11.3270   -2.0150   21.9890 C   0  0  0  0  0  0  0  0  0  0  0  0
   10.1930   -1.2450   21.9290 C   0  0  0  0  0  0  0  0  0  0  0  0
   10.4310    0.0980   22.1890 C   0  0  0  0  0  0  0  0  0  0  0  0
  2  1  1  0
  2  3  1  0
  3  4  1  0
  4  5  1  0
  5  6  2  0
  5  7  1  0
  7  8  1  0
  8  9  2  0
  9 10  1  0
 10 11  2  0
 11 12  1  0
  8 13  1  0
 12 13  2  0
  2 14  1  0
 14 15  1  0
 15 16  1  0
 16 17  1  0
 17 18  1  0
 18 19  1  0
  2 20  1  0
 19 20  1  0
M  END
