pyridine_urea_842
     RDKit          3D

 23 25  0  0  0  0  0  0  0  0999 V2000
    8.4320    0.9460   21.0450 O   0  0  0  0  0  0  0  0  0  0  0  0
    8.0460   -0.1040   21.5430 C   0  0  0  0  0  0  0  0  0  0  0  0
    6.8930   -0.7980   21.0240 N   0  0  0  0  0  0  0  0  0  0  0  0
    6.2890   -0.0900   20.0070 C   0  0  0  0  0  0  0  0  0  0  0  0
    5.0890    0.5870   20.2240 C   0  0  0  0  0  0  0  0  0  0  0  0
    4.5330    1.3020   19.1630 C   0  0  0  0  0  0  0  0  0  0  0  0
    5.1920    1.3150   17.9290 C   0  0  0  0  0  0  0  0  0  0  0  0
    6.3430    0.6590   17.7160 N   0  0  0  0  0  0  0  0  0  0  0  0
    6.8660   -0.0300   18.7560 C   0  0  0  0  0  0  0  0  0  0  0  0
    8.6230   -0.7190   22.6080 N   0  0  0  0  0  0  0  0  0  0  0  0
    9.9030   -0.1440   22.8810 C   0  0  0  0  0  0  0  0  0  0  0  0
    9.8850    1.2250   23.5230 C   0  0  0  0  0  0  0  0  0  0  0  0
   11.0880    1.8400   23.7820 C   0  0  0  0  0  0  0  0  0  0  0  0
   12.2700    1.2030   23.4640 C   0  0  0  0  0  0  0  0  0  0  0  0
   12.2540   -0.0410   22.8980 C   0  0  0  0  0  0  0  0  0  0  0  0
   13.3920   -0.6720   22.6170 N   0  0  0  0  0  0  0  0  0  0  0  0
   13.4850   -1.4110   21.4530 C   0  0  0  0  0  0  0  0  0  0  0  0
   13.9390   -1.1000   20.3700 O   0  0  0  0  0  0  0  0  0  0  0  0
   13.0260   -2.6440   21.6060 C   0  0  0  0  0  0  0  0  0  0  0  0
   13.2080   -2.8380   22.9730 C   0  0  0  0  0  0  0  0  0  0  0  0
   13.4100   -1.6270   23.5720 C   0  0  0  0  0  0  0  0  0  0  0  0
   13.5430   -1.5640   24.7840 O   0  0  0  0  0  0  0  0  0  0  0  0
   11.0860   -0.7130   22.6030 C   0  0  0  0  0  0  0  0  0  0  0  0
  1  2  2  0
  2  3  1  0
  3  4  1  0
  4  5  2  0
  5  6  1  0
  6  7  2  0
  7  8  1  0
  4  9  1  0
  8  9  2  0
  2 10  1  0
 10 11  1  0
 11 12  2  0
 12 13  1  0
 13 14  2  0
 14 15  1  0
 15 16  1  0
 16 17  1  0
 17 18  2  0
 17 19  1  0
 19 20  1  0
 16 21  1  0
 20 21  1  0
 21 22  2  0
 11 23  1  0
 15 23  2  0
M  END
