pyridine_urea_14352
     RDKit          3D

 22 23  0  0  0  0  0  0  0  0999 V2000
    6.0240   -6.7550   29.1780 C   0  0  0  0  0  0  0  0  0  0  0  0
    6.3760   -5.5360   28.3720 C   0  0  2  0  0  0  0  0  0  0  0  0
    7.5570   -5.5430   27.6170 C   0  0  0  0  0  0  0  0  0  0  0  0
    7.5190   -4.3250   26.7650 N   0  0  0  0  0  0  0  0  0  0  0  0
    7.7330   -4.3660   25.4220 C   0  0  0  0  0  0  0  0  0  0  0  0
    8.7990   -3.6080   24.9080 C   0  0  0  0  0  0  0  0  0  0  0  0
    8.7780   -3.1510   23.4660 C   0  0  0  0  0  0  0  0  0  0  0  0
    8.2310   -1.7310   23.3010 C   0  0  0  0  0  0  0  0  0  0  0  0
    9.0880   -0.8790   22.4830 N   0  0  0  0  0  0  0  0  0  0  0  0
    8.5240    0.0130   21.5820 C   0  0  0  0  0  0  0  0  0  0  0  0
    8.9840    1.1200   21.2550 O   0  0  0  0  0  0  0  0  0  0  0  0
    7.3320   -0.4630   21.0790 N   0  0  0  0  0  0  0  0  0  0  0  0
    6.6060    0.1210   20.0350 C   0  0  0  0  0  0  0  0  0  0  0  0
    5.4580    0.8570   20.3170 C   0  0  0  0  0  0  0  0  0  0  0  0
    4.7280    1.4610   19.3040 C   0  0  0  0  0  0  0  0  0  0  0  0
    5.1650    1.3140   18.0090 C   0  0  0  0  0  0  0  0  0  0  0  0
    6.2610    0.6030   17.6950 N   0  0  0  0  0  0  0  0  0  0  0  0
    6.9530    0.0240   18.7060 C   0  0  0  0  0  0  0  0  0  0  0  0
    7.0170   -3.2100   27.4270 C   0  0  0  0  0  0  0  0  0  0  0  0
    6.2650   -3.3110   28.6000 C   0  0  1  0  0  0  0  0  0  0  0  0
    4.8790   -3.2030   28.4450 C   0  0  0  0  0  0  0  0  0  0  0  0
    6.5120   -4.6090   29.1650 O   0  0  0  0  0  0  0  0  0  0  0  0
  2  1  1  1
  2  3  1  0
  3  4  1  0
  4  5  1  0
  5  6  1  0
  6  7  1  0
  7  8  1  0
  8  9  1  0
  9 10  1  0
 10 11  2  0
 10 12  1  0
 12 13  1  0
 13 14  2  0
 14 15  1  0
 15 16  2  0
 16 17  1  0
 13 18  1  0
 17 18  2  0
  4 19  1  0
 19 20  1  0
 20 21  1  6
  2 22  1  0
 20 22  1  0
M  END
