pyridine_urea_8130
     RDKit          3D

 24 26  0  0  0  0  0  0  0  0999 V2000
    8.2070    0.8620   20.9570 O   0  0  0  0  0  0  0  0  0  0  0  0
    7.9970   -0.2470   21.4330 C   0  0  0  0  0  0  0  0  0  0  0  0
    6.9130   -0.9550   21.0230 N   0  0  0  0  0  0  0  0  0  0  0  0
    6.2750   -0.1880   19.9790 C   0  0  0  0  0  0  0  0  0  0  0  0
    4.9310    0.5470   20.2590 C   0  0  0  0  0  0  0  0  0  0  0  0
    4.3890    1.2840   19.2150 C   0  0  0  0  0  0  0  0  0  0  0  0
    5.1710    1.3000   17.8960 C   0  0  0  0  0  0  0  0  0  0  0  0
    6.3310    0.6390   17.7100 N   0  0  0  0  0  0  0  0  0  0  0  0
    6.8480   -0.0770   18.7330 C   0  0  0  0  0  0  0  0  0  0  0  0
    8.8010   -0.8160   22.3590 N   0  0  0  0  0  0  0  0  0  0  0  0
    9.8400    0.1670   22.4520 C   0  0  1  0  0  0  0  0  0  0  0  0
    9.4240    1.3620   23.2420 C   0  0  0  0  0  0  0  0  0  0  0  0
   10.6970    2.1720   22.9880 C   0  0  0  0  0  0  0  0  0  0  0  0
   11.7110    1.1360   22.7060 N   0  0  0  0  0  0  0  0  0  0  0  0
   12.8120    1.1320   23.4670 C   0  0  0  0  0  0  0  0  0  0  0  0
   13.0840   -0.2640   23.6410 C   0  0  0  0  0  0  0  0  0  0  0  0
   13.2150   -0.5170   22.2310 C   0  0  0  0  0  0  0  0  0  0  0  0
   13.4540   -1.6940   21.8310 C   0  0  0  0  0  0  0  0  0  0  0  0
   13.5770   -2.5800   22.8260 C   0  0  0  0  0  0  0  0  0  0  0  0
   13.8420   -3.6290   22.2720 F   0  0  0  0  0  0  0  0  0  0  0  0
   13.4710   -2.4280   24.1780 C   0  0  0  0  0  0  0  0  0  0  0  0
   13.2090   -1.2240   24.6560 C   0  0  0  0  0  0  0  0  0  0  0  0
   11.1190   -0.1120   22.7260 C   0  0  0  0  0  0  0  0  0  0  0  0
   11.3670   -1.2990   22.9070 O   0  0  0  0  0  0  0  0  0  0  0  0
  1  2  2  0
  2  3  1  0
  3  4  1  0
  4  5  2  0
  5  6  1  0
  6  7  2  0
  7  8  1  0
  4  9  1  0
  8  9  2  0
  2 10  1  0
 11 10  1  1
 11 12  1  0
 12 13  1  0
 13 14  1  0
 14 15  1  0
 15 16  1  0
 16 17  2  0
 17 18  1  0
 18 19  2  0
 19 20  1  0
 19 21  1  0
 16 22  1  0
 21 22  2  0
 11 23  1  0
 14 23  1  0
 23 24  2  0
M  END
