pyridine_urea_761
     RDKit          3D

 23 24  0  0  0  0  0  0  0  0999 V2000
    8.6880    0.9370   21.2800 O   0  0  0  0  0  0  0  0  0  0  0  0
    8.1870   -0.1690   21.4240 C   0  0  0  0  0  0  0  0  0  0  0  0
    8.8490   -1.2480   21.9020 N   0  0  0  0  0  0  0  0  0  0  0  0
    9.9160   -1.0800   22.7540 C   0  0  0  0  0  0  0  0  0  0  0  0
    9.7760   -0.2470   23.8340 C   0  0  2  0  0  0  0  0  0  0  0  0
   10.0570    1.1250   23.7170 C   0  0  0  0  0  0  0  0  0  0  0  0
    9.1560    1.8970   24.0710 O   0  0  0  0  0  0  0  0  0  0  0  0
   10.9820    0.2920   24.5090 C   0  0  0  0  0  0  0  0  0  0  0  0
   12.1320    0.4340   23.7360 C   0  0  0  0  0  0  0  0  0  0  0  0
   13.1740    0.0110   22.7540 C   0  0  0  0  0  0  0  0  0  0  0  0
   14.0740    0.9560   22.5790 F   0  0  0  0  0  0  0  0  0  0  0  0
   13.1470   -1.2580   22.1190 C   0  0  0  0  0  0  0  0  0  0  0  0
   12.1120   -2.1880   22.4160 C   0  0  0  0  0  0  0  0  0  0  0  0
   11.1440   -1.8010   23.3450 C   0  0  0  0  0  0  0  0  0  0  0  0
   12.0430   -0.8230   23.1690 C   0  0  0  0  0  0  0  0  0  0  0  0
   13.2410   -1.2990   22.0390 Cl  0  0  0  0  0  0  0  0  0  0  0  0
    6.9080   -0.4770   21.1090 N   0  0  0  0  0  0  0  0  0  0  0  0
    6.3670    0.1050   19.9140 C   0  0  0  0  0  0  0  0  0  0  0  0
    5.2200    0.8520   20.2060 C   0  0  0  0  0  0  0  0  0  0  0  0
    4.5750    1.5230   19.1590 C   0  0  0  0  0  0  0  0  0  0  0  0
    5.1000    1.4170   17.8770 C   0  0  0  0  0  0  0  0  0  0  0  0
    6.2090    0.6700   17.6260 N   0  0  0  0  0  0  0  0  0  0  0  0
    6.8550    0.0060   18.6460 C   0  0  0  0  0  0  0  0  0  0  0  0
  1  2  2  0
  2  3  1  0
  3  4  1  0
  5  4  1  6
  5  6  1  0
  6  7  1  0
  5  8  1  0
  8  9  1  0
  9 10  2  0
 10 11  1  0
 10 12  1  0
 12 13  2  0
 13 14  1  0
  9 15  1  0
 14 15  2  0
 15 16  1  0
  2 17  1  0
 17 18  1  0
 18 19  2  0
 19 20  1  0
 20 21  2  0
 21 22  1  0
 18 23  1  0
 22 23  2  0
M  END
