pyridine_urea_7291
     RDKit          3D

 18 18  0  0  0  0  0  0  0  0999 V2000
   13.2420   -1.2170   23.7530 N   0  0  0  0  0  0  0  0  0  0  0  0
   12.8290   -0.8930   22.4960 C   0  0  0  0  0  0  0  0  0  0  0  0
   11.7090   -1.7820   21.9560 C   0  0  0  0  0  0  0  0  0  0  0  0
   10.4400   -1.4370   22.4270 C   0  0  2  0  0  0  0  0  0  0  0  0
    9.4560   -1.3220   21.4800 N   0  0  0  0  0  0  0  0  0  0  0  0
    8.5410   -0.2010   21.3580 C   0  0  0  0  0  0  0  0  0  0  0  0
    8.8850    0.9690   21.4550 O   0  0  0  0  0  0  0  0  0  0  0  0
    7.2430   -0.5960   21.0750 N   0  0  0  0  0  0  0  0  0  0  0  0
    6.4750    0.0610   20.1060 C   0  0  0  0  0  0  0  0  0  0  0  0
    5.2900    0.7660   20.3500 C   0  0  0  0  0  0  0  0  0  0  0  0
    4.6380    1.3990   19.3030 C   0  0  0  0  0  0  0  0  0  0  0  0
    5.1580    1.3610   17.8880 C   0  0  0  0  0  0  0  0  0  0  0  0
    6.3000    0.6650   17.6590 N   0  0  0  0  0  0  0  0  0  0  0  0
    6.9230    0.0330   18.7830 C   0  0  0  0  0  0  0  0  0  0  0  0
   10.6310   -0.3700   23.4140 C   0  0  0  0  0  0  0  0  0  0  0  0
   11.6670    0.4450   23.1640 F   0  0  0  0  0  0  0  0  0  0  0  0
   10.8530   -1.0090   24.5880 F   0  0  0  0  0  0  0  0  0  0  0  0
    9.5260    0.4140   23.5050 F   0  0  0  0  0  0  0  0  0  0  0  0
  1  2  3  0
  2  3  1  0
  4  3  1  6
  4  5  1  0
  5  6  1  0
  6  7  2  0
  6  8  1  0
  8  9  1  0
  9 10  2  0
 10 11  1  0
 11 12  2  0
 12 13  1  0
  9 14  1  0
 13 14  2  0
  4 15  1  0
 15 16  1  0
 15 17  1  0
 15 18  1  0
M  END
