pyridine_urea_1883
     RDKit          3D

 15 15  0  0  0  0  0  0  0  0999 V2000
   13.2540   -2.3280   24.7270 C   0  0  0  0  0  0  0  0  0  0  0  0
   13.1360   -1.0000   24.0270 C   0  0  0  0  0  0  0  0  0  0  0  0
   12.6950   -0.8680   22.7110 C   0  0  0  0  0  0  0  0  0  0  0  0
   11.4160   -1.3260   22.4090 C   0  0  0  0  0  0  0  0  0  0  0  0
   10.4820   -0.4840   22.9860 C   0  0  0  0  0  0  0  0  0  0  0  0
    9.1570   -0.7940   22.4560 N   0  0  0  0  0  0  0  0  0  0  0  0
    8.5810    0.0830   21.5650 C   0  0  0  0  0  0  0  0  0  0  0  0
    9.0720    1.1910   21.2940 O   0  0  0  0  0  0  0  0  0  0  0  0
    7.3360   -0.4530   21.0200 N   0  0  0  0  0  0  0  0  0  0  0  0
    6.6110    0.0990   20.0220 C   0  0  0  0  0  0  0  0  0  0  0  0
    5.3310    0.8830   20.3520 C   0  0  0  0  0  0  0  0  0  0  0  0
    4.6440    1.4420   19.2910 C   0  0  0  0  0  0  0  0  0  0  0  0
    5.1310    1.2740   17.9990 C   0  0  0  0  0  0  0  0  0  0  0  0
    6.2410    0.5820   17.6950 N   0  0  0  0  0  0  0  0  0  0  0  0
    6.9500    0.0140   18.6920 C   0  0  0  0  0  0  0  0  0  0  0  0
  1  2  1  0
  2  3  3  0
  3  4  1  0
  4  5  1  0
  5  6  1  0
  6  7  1  0
  7  8  2  0
  7  9  1  0
  9 10  1  0
 10 11  2  0
 11 12  1  0
 12 13  2  0
 13 14  1  0
 10 15  1  0
 14 15  2  0
M  END
