pyridine_urea_10205
     RDKit          3D

 23 25  0  0  0  0  0  0  0  0999 V2000
   16.4740    4.5450   24.4380 C   0  0  0  0  0  0  0  0  0  0  0  0
   14.6280    4.6250   23.6870 C   0  0  2  0  0  0  0  0  0  0  0  0
   14.0300    3.7640   22.7040 C   0  0  0  0  0  0  0  0  0  0  0  0
   12.7400    3.4810   23.1840 N   0  0  0  0  0  0  0  0  0  0  0  0
   12.1280    2.1260   22.9980 C   0  0  0  0  0  0  0  0  0  0  0  0
   10.7750    2.2580   23.0300 C   0  0  0  0  0  0  0  0  0  0  0  0
    9.9620    1.1950   22.8650 C   0  0  0  0  0  0  0  0  0  0  0  0
   10.4670   -0.2000   22.6280 C   0  0  0  0  0  0  0  0  0  0  0  0
    9.3860   -1.1880   22.4190 N   0  0  0  0  0  0  0  0  0  0  0  0
    8.4990   -0.4050   21.5330 C   0  0  0  0  0  0  0  0  0  0  0  0
    8.8150    0.7240   21.1690 O   0  0  0  0  0  0  0  0  0  0  0  0
    7.3030   -0.8830   21.0790 N   0  0  0  0  0  0  0  0  0  0  0  0
    6.5190   -0.1850   20.1340 C   0  0  0  0  0  0  0  0  0  0  0  0
    5.2900    0.4610   20.3490 C   0  0  0  0  0  0  0  0  0  0  0  0
    4.5690    1.1590   19.3660 C   0  0  0  0  0  0  0  0  0  0  0  0
    5.1600    1.2110   18.0110 C   0  0  0  0  0  0  0  0  0  0  0  0
    6.3810    0.5560   17.8140 N   0  0  0  0  0  0  0  0  0  0  0  0
    7.0100   -0.1040   18.8370 C   0  0  0  0  0  0  0  0  0  0  0  0
   11.8640   -0.3720   22.6160 C   0  0  0  0  0  0  0  0  0  0  0  0
   12.6940    0.7960   22.8020 C   0  0  0  0  0  0  0  0  0  0  0  0
   12.1240    4.7190   23.2310 C   0  0  0  0  0  0  0  0  0  0  0  0
   13.0340    5.7690   22.8580 C   0  0  0  0  0  0  0  0  0  0  0  0
   14.2750    5.6640   23.1280 O   0  0  0  0  0  0  0  0  0  0  0  0
  2  1  1  6
  2  3  1  0
  3  4  1  0
  4  5  1  0
  5  6  2  0
  6  7  1  0
  7  8  2  0
  8  9  1  0
  9 10  1  0
 10 11  2  0
 10 12  1  0
 12 13  1  0
 13 14  2  0
 14 15  1  0
 15 16  2  0
 16 17  1  0
 13 18  1  0
 17 18  2  0
  8 19  1  0
  5 20  1  0
 19 20  2  0
  4 21  1  0
 21 22  1  0
  2 23  1  0
 22 23  1  0
M  END
