pyridine_urea_1111
     RDKit          3D

 21 22  0  0  0  0  0  0  0  0999 V2000
   10.3420   -0.7780   24.3310 C   0  0  0  0  0  0  0  0  0  0  0  0
   10.4650   -0.7270   22.8320 C   0  0  2  0  0  0  0  0  0  0  0  0
    9.2330   -1.1780   22.1840 N   0  0  0  0  0  0  0  0  0  0  0  0
    8.4680   -0.2360   21.5210 C   0  0  0  0  0  0  0  0  0  0  0  0
    8.8640    0.8950   21.3040 O   0  0  0  0  0  0  0  0  0  0  0  0
    7.2380   -0.7040   21.1290 N   0  0  0  0  0  0  0  0  0  0  0  0
    6.4910   -0.0190   20.0480 C   0  0  0  0  0  0  0  0  0  0  0  0
    5.3230    0.6600   20.3840 C   0  0  0  0  0  0  0  0  0  0  0  0
    4.5500    1.3860   19.3440 C   0  0  0  0  0  0  0  0  0  0  0  0
    5.1610    1.2910   17.9620 C   0  0  0  0  0  0  0  0  0  0  0  0
    6.2920    0.6070   17.6940 N   0  0  0  0  0  0  0  0  0  0  0  0
    6.9170   -0.0210   18.7250 C   0  0  0  0  0  0  0  0  0  0  0  0
   11.6380   -1.5610   22.3420 C   0  0  0  0  0  0  0  0  0  0  0  0
   12.6400   -0.9160   22.4090 C   0  0  0  0  0  0  0  0  0  0  0  0
   12.3840    0.2300   22.8550 C   0  0  0  0  0  0  0  0  0  0  0  0
   11.5140    1.1600   23.3260 C   0  0  0  0  0  0  0  0  0  0  0  0
   10.4150    1.4410   22.6210 F   0  0  0  0  0  0  0  0  0  0  0  0
   11.1030    0.7480   24.5270 F   0  0  0  0  0  0  0  0  0  0  0  0
   12.1560    2.3390   23.4440 F   0  0  0  0  0  0  0  0  0  0  0  0
   13.5940   -0.1260   22.5290 N   0  0  0  0  0  0  0  0  0  0  0  0
   13.1070   -1.5590   22.1020 N   0  0  0  0  0  0  0  0  0  0  0  0
  2  1  1  1
  2  3  1  0
  3  4  1  0
  4  5  2  0
  4  6  1  0
  6  7  1  0
  7  8  2  0
  8  9  1  0
  9 10  2  0
 10 11  1  0
  7 12  1  0
 11 12  2  0
  2 13  1  0
 13 14  1  0
 14 15  2  0
 15 16  1  0
 16 17  1  0
 16 18  1  0
 16 19  1  0
 15 20  1  0
 13 21  2  0
 20 21  1  0
M  END
