pyridine_urea_3569
     RDKit          3D

 16 16  0  0  0  0  0  0  0  0999 V2000
   11.9720   -1.8570   21.7820 C   0  0  0  0  0  0  0  0  0  0  0  0
   10.6270   -1.4490   22.3930 C   0  0  2  0  0  0  0  0  0  0  0  0
    9.5050   -1.3210   21.4410 N   0  0  0  0  0  0  0  0  0  0  0  0
    8.6150   -0.2630   21.3630 C   0  0  0  0  0  0  0  0  0  0  0  0
    8.9400    0.9050   21.4810 O   0  0  0  0  0  0  0  0  0  0  0  0
    7.3330   -0.6800   21.0760 N   0  0  0  0  0  0  0  0  0  0  0  0
    6.5890   -0.0390   20.0730 C   0  0  0  0  0  0  0  0  0  0  0  0
    5.3060    0.6940   20.4440 C   0  0  0  0  0  0  0  0  0  0  0  0
    4.5190    1.4060   19.3550 C   0  0  0  0  0  0  0  0  0  0  0  0
    5.1580    1.2800   17.9770 C   0  0  0  0  0  0  0  0  0  0  0  0
    6.2940    0.6000   17.7400 N   0  0  0  0  0  0  0  0  0  0  0  0
    6.9600   -0.0230   18.7460 C   0  0  0  0  0  0  0  0  0  0  0  0
   10.8430   -0.2630   23.2810 C   0  0  0  0  0  0  0  0  0  0  0  0
   10.1940    0.9110   22.9650 C   0  0  0  0  0  0  0  0  0  0  0  0
   12.3380    0.1280   23.3360 C   0  0  0  0  0  0  0  0  0  0  0  0
   10.5750   -0.5890   24.4080 O   0  0  0  0  0  0  0  0  0  0  0  0
  2  1  1  6
  2  3  1  0
  3  4  1  0
  4  5  2  0
  4  6  1  0
  6  7  1  0
  7  8  2  0
  8  9  1  0
  9 10  2  0
 10 11  1  0
  7 12  1  0
 11 12  2  0
  2 13  1  0
 13 14  1  0
 13 15  1  0
 13 16  1  0
M  END
