pyridine_urea_10436
     RDKit          3D

 22 24  0  0  0  0  0  0  0  0999 V2000
    8.6380    0.8260   21.1930 O   0  0  0  0  0  0  0  0  0  0  0  0
    8.1450   -0.2540   21.4940 C   0  0  0  0  0  0  0  0  0  0  0  0
    8.6900   -1.1500   22.3610 N   0  0  0  0  0  0  0  0  0  0  0  0
    9.8070   -0.8460   23.1260 C   0  0  0  0  0  0  0  0  0  0  0  0
   10.2300    0.6280   23.2280 C   0  0  0  0  0  0  0  0  0  0  0  0
   11.7280    0.7110   23.4670 C   0  0  2  0  0  0  0  0  0  0  0  0
   12.3670    0.4240   22.3390 C   0  0  0  0  0  0  0  0  0  0  0  0
   13.3050   -0.5940   22.4370 C   0  0  0  0  0  0  0  0  0  0  0  0
   12.8930   -1.5940   23.0940 O   0  0  0  0  0  0  0  0  0  0  0  0
   12.8850   -1.3960   24.5120 C   0  0  0  0  0  0  0  0  0  0  0  0
   13.4560   -2.5660   24.2280 C   0  0  0  0  0  0  0  0  0  0  0  0
   13.4390   -2.7660   22.8360 C   0  0  0  0  0  0  0  0  0  0  0  0
   12.8700   -1.8170   21.9510 C   0  0  0  0  0  0  0  0  0  0  0  0
   12.3090   -0.6230   22.4830 C   0  0  0  0  0  0  0  0  0  0  0  0
   12.3590   -0.4720   23.8440 C   0  0  0  0  0  0  0  0  0  0  0  0
    6.9640   -0.7110   21.0020 N   0  0  0  0  0  0  0  0  0  0  0  0
    6.3630   -0.0370   19.9820 C   0  0  0  0  0  0  0  0  0  0  0  0
    5.1850    0.6480   20.1960 C   0  0  0  0  0  0  0  0  0  0  0  0
    4.5720    1.3550   19.1700 C   0  0  0  0  0  0  0  0  0  0  0  0
    5.1700    1.3610   17.9240 C   0  0  0  0  0  0  0  0  0  0  0  0
    6.3140    0.6970   17.6880 N   0  0  0  0  0  0  0  0  0  0  0  0
    6.8810    0.0160   18.7100 C   0  0  0  0  0  0  0  0  0  0  0  0
  1  2  2  0
  2  3  1  0
  3  4  1  0
  4  5  1  0
  6  5  1  6
  6  7  1  0
  7  8  1  0
  8  9  1  0
  9 10  1  0
 10 11  2  0
 11 12  1  0
 12 13  2  0
 13 14  1  0
  6 15  1  0
 10 15  1  0
 14 15  2  0
  2 16  1  0
 16 17  1  0
 17 18  2  0
 18 19  1  0
 19 20  2  0
 20 21  1  0
 17 22  1  0
 21 22  2  0
M  END
