pyridine_urea_11934
     RDKit          3D

 24 26  0  0  0  0  0  0  0  0999 V2000
   11.5330   -1.6220   22.5020 C   0  0  0  0  0  0  0  0  0  0  0  0
   10.0170   -1.8440   22.5100 C   0  0  2  0  0  0  0  0  0  0  0  0
    9.4220   -1.2340   21.3560 N   0  0  0  0  0  0  0  0  0  0  0  0
    8.7000   -0.0740   21.4140 C   0  0  0  0  0  0  0  0  0  0  0  0
    9.2180    1.0120   21.6720 O   0  0  0  0  0  0  0  0  0  0  0  0
    7.3730   -0.3380   21.1370 N   0  0  0  0  0  0  0  0  0  0  0  0
    6.6250    0.2200   20.0330 C   0  0  0  0  0  0  0  0  0  0  0  0
    5.5160    1.0030   20.2850 C   0  0  0  0  0  0  0  0  0  0  0  0
    4.7390    1.5990   19.2850 C   0  0  0  0  0  0  0  0  0  0  0  0
    5.1390    1.3700   17.9670 C   0  0  0  0  0  0  0  0  0  0  0  0
    6.2270    0.5900   17.6970 N   0  0  0  0  0  0  0  0  0  0  0  0
    6.9730    0.0100   18.7200 C   0  0  0  0  0  0  0  0  0  0  0  0
    9.1500   -1.3690   23.6570 C   0  0  0  0  0  0  0  0  0  0  0  0
    7.8060   -1.1710   23.4700 C   0  0  0  0  0  0  0  0  0  0  0  0
    7.1490   -0.7330   24.6620 N   0  0  0  0  0  0  0  0  0  0  0  0
    8.2210   -0.7080   25.5290 N   0  0  0  0  0  0  0  0  0  0  0  0
    7.8360   -0.3130   26.7950 C   0  0  0  0  0  0  0  0  0  0  0  0
    6.9650   -1.1910   27.4270 C   0  0  0  0  0  0  0  0  0  0  0  0
    6.7300   -1.0360   28.7950 C   0  0  0  0  0  0  0  0  0  0  0  0
    5.8690   -1.8960   29.4620 C   0  0  0  0  0  0  0  0  0  0  0  0
    5.2380   -2.9210   28.7620 C   0  0  0  0  0  0  0  0  0  0  0  0
    5.4640   -3.0870   27.3990 C   0  0  0  0  0  0  0  0  0  0  0  0
    6.3240   -2.2270   26.7270 C   0  0  0  0  0  0  0  0  0  0  0  0
    9.4440   -1.0820   24.9650 C   0  0  0  0  0  0  0  0  0  0  0  0
  2  1  1  1
  2  3  1  0
  3  4  1  0
  4  5  2  0
  4  6  1  0
  6  7  1  0
  7  8  2  0
  8  9  1  0
  9 10  2  0
 10 11  1  0
  7 12  1  0
 11 12  2  0
  2 13  1  0
 13 14  1  0
 14 15  2  0
 15 16  1  0
 16 17  1  0
 17 18  1  0
 18 19  2  0
 19 20  1  0
 20 21  2  0
 21 22  1  0
 18 23  1  0
 22 23  2  0
 13 24  2  0
 16 24  1  0
M  END
