pyridine_urea_10842
     RDKit          3D

 20 21  0  0  0  0  0  0  0  0999 V2000
    8.2890    0.9910   20.9340 O   0  0  0  0  0  0  0  0  0  0  0  0
    7.9210   -0.0240   21.5140 C   0  0  0  0  0  0  0  0  0  0  0  0
    6.8060   -0.7840   21.0230 N   0  0  0  0  0  0  0  0  0  0  0  0
    6.2210   -0.0860   19.9940 C   0  0  0  0  0  0  0  0  0  0  0  0
    5.0230    0.5930   20.1910 C   0  0  0  0  0  0  0  0  0  0  0  0
    4.4880    1.3090   19.1160 C   0  0  0  0  0  0  0  0  0  0  0  0
    5.1720    1.3140   17.8960 C   0  0  0  0  0  0  0  0  0  0  0  0
    6.3240    0.6540   17.7050 N   0  0  0  0  0  0  0  0  0  0  0  0
    6.8220   -0.0330   18.7550 C   0  0  0  0  0  0  0  0  0  0  0  0
    8.4970   -0.5150   22.6300 N   0  0  0  0  0  0  0  0  0  0  0  0
    9.7860    0.0700   22.7290 C   0  0  0  0  0  0  0  0  0  0  0  0
    9.8850    1.5760   22.8790 C   0  0  0  0  0  0  0  0  0  0  0  0
   11.1480    2.1630   22.9500 C   0  0  0  0  0  0  0  0  0  0  0  0
   12.2960    1.3790   22.8900 C   0  0  0  0  0  0  0  0  0  0  0  0
   12.1670    0.0210   22.7560 C   0  0  0  0  0  0  0  0  0  0  0  0
   13.5400   -0.8010   22.6870 S   0  0  0  0  0  0  0  0  0  0  0  0
   12.9570   -2.3850   22.3250 C   0  0  0  0  0  0  0  0  0  0  0  0
   13.5870   -3.1930   23.1550 F   0  0  0  0  0  0  0  0  0  0  0  0
   13.2230   -2.6560   21.0300 F   0  0  0  0  0  0  0  0  0  0  0  0
   10.8880   -0.6770   22.6700 C   0  0  0  0  0  0  0  0  0  0  0  0
  1  2  2  0
  2  3  1  0
  3  4  1  0
  4  5  2  0
  5  6  1  0
  6  7  2  0
  7  8  1  0
  4  9  1  0
  8  9  2  0
  2 10  1  0
 10 11  1  0
 11 12  2  0
 12 13  1  0
 13 14  2  0
 14 15  1  0
 15 16  1  0
 16 17  1  0
 17 18  1  0
 17 19  1  0
 11 20  1  0
 15 20  2  0
M  END
