pyridine_urea_1869
     RDKit          3D

 16 17  0  0  0  0  0  0  0  0999 V2000
    8.9080    1.2310   21.2050 O   0  0  0  0  0  0  0  0  0  0  0  0
    8.4120    0.1820   21.6450 C   0  0  0  0  0  0  0  0  0  0  0  0
    8.8160   -0.5090   22.7560 N   0  0  0  0  0  0  0  0  0  0  0  0
   10.0410   -1.1560   22.9220 C   0  0  0  0  0  0  0  0  0  0  0  0
   11.1530   -0.3560   23.1150 C   0  0  0  0  0  0  0  0  0  0  0  0
   12.4330    0.1600   23.4600 C   0  0  0  0  0  0  0  0  0  0  0  0
   13.4640   -0.5560   24.0850 O   0  0  0  0  0  0  0  0  0  0  0  0
   12.7440   -1.6940   24.1480 C   0  0  0  0  0  0  0  0  0  0  0  0
   11.5060   -1.6510   23.6500 N   0  0  0  0  0  0  0  0  0  0  0  0
    7.3370   -0.4330   21.0600 N   0  0  0  0  0  0  0  0  0  0  0  0
    6.5890    0.1460   20.0370 C   0  0  0  0  0  0  0  0  0  0  0  0
    5.4450    0.8620   20.3620 C   0  0  0  0  0  0  0  0  0  0  0  0
    4.6550    1.5110   19.2310 C   0  0  0  0  0  0  0  0  0  0  0  0
    5.1320    1.3420   17.9640 C   0  0  0  0  0  0  0  0  0  0  0  0
    6.2520    0.6210   17.6840 N   0  0  0  0  0  0  0  0  0  0  0  0
    6.9340    0.0540   18.7020 C   0  0  0  0  0  0  0  0  0  0  0  0
  1  2  2  0
  2  3  1  0
  3  4  1  0
  4  5  1  0
  5  6  2  0
  6  7  1  0
  7  8  1  0
  5  9  1  0
  8  9  2  0
  2 10  1  0
 10 11  1  0
 11 12  2  0
 12 13  1  0
 13 14  2  0
 14 15  1  0
 11 16  1  0
 15 16  2  0
M  END
