pyridine_urea_15132
     RDKit          3D

 18 19  0  0  0  0  0  0  0  0999 V2000
   11.6450   -1.0170   22.4270 C   0  0  0  0  0  0  0  0  0  0  0  0
   10.2240   -0.6630   22.9050 C   0  0  1  0  0  0  0  0  0  0  0  0
   10.0220    0.8500   22.9790 C   0  0  0  0  0  0  0  0  0  0  0  0
   11.1820    1.8170   22.8730 C   0  0  0  0  0  0  0  0  0  0  0  0
   12.5890    1.6030   23.0230 N   0  0  0  0  0  0  0  0  0  0  0  0
   13.2870    2.7860   22.8510 N   0  0  0  0  0  0  0  0  0  0  0  0
   12.3220    3.7490   22.5860 N   0  0  0  0  0  0  0  0  0  0  0  0
   11.1150    3.1490   22.6080 N   0  0  0  0  0  0  0  0  0  0  0  0
    9.1590   -1.2290   22.2110 N   0  0  0  0  0  0  0  0  0  0  0  0
    8.3870   -0.3340   21.4320 C   0  0  0  0  0  0  0  0  0  0  0  0
    8.7610    0.7970   21.1750 O   0  0  0  0  0  0  0  0  0  0  0  0
    7.2560   -0.8130   21.0170 N   0  0  0  0  0  0  0  0  0  0  0  0
    6.4810   -0.1080   20.0750 C   0  0  0  0  0  0  0  0  0  0  0  0
    5.1720    0.6310   20.3760 C   0  0  0  0  0  0  0  0  0  0  0  0
    4.5950    1.2760   19.2720 C   0  0  0  0  0  0  0  0  0  0  0  0
    5.1970    1.2240   18.0190 C   0  0  0  0  0  0  0  0  0  0  0  0
    6.3400    0.5680   17.7680 N   0  0  0  0  0  0  0  0  0  0  0  0
    6.9440   -0.0730   18.7810 C   0  0  0  0  0  0  0  0  0  0  0  0
  2  1  1  6
  2  3  1  0
  3  4  1  0
  4  5  2  0
  5  6  1  0
  6  7  2  0
  4  8  1  0
  7  8  1  0
  2  9  1  0
  9 10  1  0
 10 11  2  0
 10 12  1  0
 12 13  1  0
 13 14  2  0
 14 15  1  0
 15 16  2  0
 16 17  1  0
 13 18  1  0
 17 18  2  0
M  END
