pyridine_urea_10850
     RDKit          3D

 20 21  0  0  0  0  0  0  0  0999 V2000
    9.7140    1.6510   24.1670 C   0  0  0  0  0  0  0  0  0  0  0  0
    9.2220    0.2600   23.9790 C   0  0  1  0  0  0  0  0  0  0  0  0
    8.0680    0.1300   23.1290 N   0  0  0  0  0  0  0  0  0  0  0  0
    8.1660    0.3950   21.7800 C   0  0  0  0  0  0  0  0  0  0  0  0
    8.9330    1.2440   21.2990 O   0  0  0  0  0  0  0  0  0  0  0  0
    7.2760   -0.3820   21.1000 N   0  0  0  0  0  0  0  0  0  0  0  0
    6.5210    0.2010   19.9960 C   0  0  0  0  0  0  0  0  0  0  0  0
    5.3640    0.8990   20.3220 C   0  0  0  0  0  0  0  0  0  0  0  0
    4.5620    1.5460   19.2610 C   0  0  0  0  0  0  0  0  0  0  0  0
    5.1400    1.3510   17.8820 C   0  0  0  0  0  0  0  0  0  0  0  0
    6.2600    0.6490   17.6250 N   0  0  0  0  0  0  0  0  0  0  0  0
    6.9140    0.0980   18.6750 C   0  0  0  0  0  0  0  0  0  0  0  0
   10.2430   -0.4870   23.2810 C   0  0  0  0  0  0  0  0  0  0  0  0
   10.0170   -1.6390   22.6120 C   0  0  0  0  0  0  0  0  0  0  0  0
   11.1360   -2.1170   22.0570 N   0  0  0  0  0  0  0  0  0  0  0  0
   12.0020   -1.1240   22.4820 N   0  0  0  0  0  0  0  0  0  0  0  0
   13.2430   -1.3230   22.0920 C   0  0  0  0  0  0  0  0  0  0  0  0
   13.3520   -2.1930   21.0570 C   0  0  0  0  0  0  0  0  0  0  0  0
   13.4770   -2.7080   22.6000 C   0  0  0  0  0  0  0  0  0  0  0  0
   11.5390   -0.1340   23.2030 C   0  0  0  0  0  0  0  0  0  0  0  0
  2  1  1  6
  2  3  1  0
  3  4  1  0
  4  5  2  0
  4  6  1  0
  6  7  1  0
  7  8  2  0
  8  9  1  0
  9 10  2  0
 10 11  1  0
  7 12  1  0
 11 12  2  0
  2 13  1  0
 13 14  1  0
 14 15  2  0
 15 16  1  0
 16 17  1  0
 17 18  1  0
 17 19  1  0
 13 20  2  0
 16 20  1  0
M  END
