pyridine_urea_14446
     RDKit          3D

 21 22  0  0  0  0  0  0  0  0999 V2000
    9.7830   -2.9560   22.7930 C   0  0  0  0  0  0  0  0  0  0  0  0
   11.0690   -2.5740   23.2930 O   0  0  0  0  0  0  0  0  0  0  0  0
   11.6700   -1.5100   22.6690 C   0  0  1  0  0  0  0  0  0  0  0  0
   12.5420   -1.8550   21.6400 C   0  0  0  0  0  0  0  0  0  0  0  0
   10.5250   -0.6400   22.0530 C   0  0  0  0  0  0  0  0  0  0  0  0
    9.2680   -0.7410   22.4800 N   0  0  0  0  0  0  0  0  0  0  0  0
    8.5360    0.0130   21.5590 C   0  0  0  0  0  0  0  0  0  0  0  0
    8.8770    1.1440   21.1750 O   0  0  0  0  0  0  0  0  0  0  0  0
    7.4010   -0.6150   21.1390 N   0  0  0  0  0  0  0  0  0  0  0  0
    6.6980   -0.0130   20.1290 C   0  0  0  0  0  0  0  0  0  0  0  0
    5.4820    0.7920   20.5160 C   0  0  0  0  0  0  0  0  0  0  0  0
    4.7460    1.4450   19.3760 C   0  0  0  0  0  0  0  0  0  0  0  0
    5.2220    1.2680   18.1000 C   0  0  0  0  0  0  0  0  0  0  0  0
    6.2760    0.5690   17.6990 N   0  0  0  0  0  0  0  0  0  0  0  0
    6.9840   -0.0580   18.7710 C   0  0  0  0  0  0  0  0  0  0  0  0
   12.3430   -0.7280   23.5900 C   0  0  0  0  0  0  0  0  0  0  0  0
   11.9750   -0.9010   24.8940 C   0  0  0  0  0  0  0  0  0  0  0  0
   10.6460   -0.5470   25.0530 C   0  0  0  0  0  0  0  0  0  0  0  0
   10.3020    0.6630   24.4480 C   0  0  0  0  0  0  0  0  0  0  0  0
   11.2470    1.3390   23.6720 C   0  0  0  0  0  0  0  0  0  0  0  0
   12.3360    0.6080   23.2100 C   0  0  0  0  0  0  0  0  0  0  0  0
  1  2  1  0
  3  2  1  0
  3  4  1  6
  3  5  1  0
  5  6  1  0
  6  7  1  0
  7  8  2  0
  7  9  1  0
  9 10  1  0
 10 11  2  0
 11 12  1  0
 12 13  2  0
 13 14  1  0
 10 15  1  0
 14 15  2  0
  3 16  1  0
 16 17  1  0
 17 18  1  0
 18 19  1  0
 19 20  1  0
 16 21  1  0
 20 21  1  0
M  END
