pyridine_urea_10643
     RDKit          3D

 21 22  0  0  0  0  0  0  0  0999 V2000
   13.1830   -1.5840   21.5280 C   0  0  0  0  0  0  0  0  0  0  0  0
   13.1650   -2.7770   22.4890 C   0  0  0  0  0  0  0  0  0  0  0  0
   13.6650   -2.5270   23.8990 C   0  0  2  0  0  0  0  0  0  0  0  0
   13.1300   -1.7420   25.0820 C   0  0  0  0  0  0  0  0  0  0  0  0
   13.7500   -1.4240   23.4140 O   0  0  0  0  0  0  0  0  0  0  0  0
   12.6420   -0.7230   23.2100 C   0  0  0  0  0  0  0  0  0  0  0  0
   12.8570    0.6020   23.1810 C   0  0  0  0  0  0  0  0  0  0  0  0
   11.8380    1.4650   23.0020 C   0  0  0  0  0  0  0  0  0  0  0  0
   10.5210    1.0470   22.8270 C   0  0  0  0  0  0  0  0  0  0  0  0
   10.0770   -0.2900   22.8040 C   0  0  0  0  0  0  0  0  0  0  0  0
    8.7070   -0.6300   22.5930 N   0  0  0  0  0  0  0  0  0  0  0  0
    8.1850    0.0420   21.5220 C   0  0  0  0  0  0  0  0  0  0  0  0
    8.7880    1.2660   21.1210 O   0  0  0  0  0  0  0  0  0  0  0  0
    7.1010   -0.5760   20.9680 N   0  0  0  0  0  0  0  0  0  0  0  0
    6.3330    0.0940   20.0240 C   0  0  0  0  0  0  0  0  0  0  0  0
    5.0970    0.7530   20.3010 C   0  0  0  0  0  0  0  0  0  0  0  0
    4.5410    1.4120   19.0420 C   0  0  0  0  0  0  0  0  0  0  0  0
    5.1890    1.3390   17.8450 C   0  0  0  0  0  0  0  0  0  0  0  0
    6.3390    0.6970   17.6480 N   0  0  0  0  0  0  0  0  0  0  0  0
    6.8420    0.1150   18.7380 C   0  0  0  0  0  0  0  0  0  0  0  0
   11.2740   -1.2500   23.0230 C   0  0  0  0  0  0  0  0  0  0  0  0
  1  2  1  0
  2  3  1  0
  3  4  1  1
  3  5  1  0
  5  6  1  0
  6  7  2  0
  7  8  1  0
  8  9  2  0
  9 10  1  0
 10 11  1  0
 11 12  1  0
 12 13  2  0
 12 14  1  0
 14 15  1  0
 15 16  2  0
 16 17  1  0
 17 18  2  0
 18 19  1  0
 15 20  1  0
 19 20  2  0
  6 21  1  0
 10 21  2  0
M  END
