pyridine_urea_2247
     RDKit          3D

 27 29  0  0  0  0  0  0  0  0999 V2000
   13.1570    3.1650   22.7490 C   0  0  0  0  0  0  0  0  0  0  0  0
   12.2430    1.9270   22.7920 C   0  0  0  0  0  0  0  0  0  0  0  0
   12.7790    0.4650   22.6890 C   0  0  0  0  0  0  0  0  0  0  0  0
   11.7780   -0.6830   22.6440 C   0  0  0  0  0  0  0  0  0  0  0  0
   10.3260   -0.3580   22.7030 C   0  0  0  0  0  0  0  0  0  0  0  0
    9.0450   -1.0440   22.6270 N   0  0  0  0  0  0  0  0  0  0  0  0
    8.2940   -0.3870   21.6260 C   0  0  0  0  0  0  0  0  0  0  0  0
    8.6950    0.6650   21.1530 O   0  0  0  0  0  0  0  0  0  0  0  0
    7.0500   -0.9800   21.1710 N   0  0  0  0  0  0  0  0  0  0  0  0
    6.4410   -0.2690   20.1390 C   0  0  0  0  0  0  0  0  0  0  0  0
    5.2480    0.4350   20.3780 C   0  0  0  0  0  0  0  0  0  0  0  0
    4.6610    1.1510   19.3400 C   0  0  0  0  0  0  0  0  0  0  0  0
    5.2280    1.1850   18.0850 C   0  0  0  0  0  0  0  0  0  0  0  0
    6.3680    0.5190   17.8270 N   0  0  0  0  0  0  0  0  0  0  0  0
    6.9410   -0.1870   18.8430 C   0  0  0  0  0  0  0  0  0  0  0  0
    9.8280    0.9790   22.8480 C   0  0  0  0  0  0  0  0  0  0  0  0
   10.7590    2.1840   22.8980 C   0  0  0  0  0  0  0  0  0  0  0  0
   10.3550    3.4750   23.0050 N   0  0  0  0  0  0  0  0  0  0  0  0
    9.6630    3.8550   24.1090 C   0  0  0  0  0  0  0  0  0  0  0  0
    8.3800    3.3740   24.5310 O   0  0  0  0  0  0  0  0  0  0  0  0
   10.1930    4.8110   24.9970 C   0  0  0  0  0  0  0  0  0  0  0  0
    9.6770    4.8460   26.2990 C   0  0  0  0  0  0  0  0  0  0  0  0
   10.1010    5.7230   27.2860 C   0  0  0  0  0  0  0  0  0  0  0  0
   11.2040    6.7190   26.9290 C   0  0  0  0  0  0  0  0  0  0  0  0
   11.7290    6.6480   25.5060 C   0  0  0  0  0  0  0  0  0  0  0  0
   11.2150    5.7170   24.6120 C   0  0  0  0  0  0  0  0  0  0  0  0
   12.0770    5.8010   22.7080 I   0  0  0  0  0  0  0  0  0  0  0  0
  1  2  1  0
  2  3  2  0
  3  4  1  0
  4  5  2  0
  5  6  1  0
  6  7  1  0
  7  8  2  0
  7  9  1  0
  9 10  1  0
 10 11  2  0
 11 12  1  0
 12 13  2  0
 13 14  1  0
 10 15  1  0
 14 15  2  0
  5 16  1  0
  2 17  1  0
 16 17  2  0
 17 18  1  0
 18 19  1  0
 19 20  2  0
 19 21  1  0
 21 22  2  0
 22 23  1  0
 23 24  2  0
 24 25  1  0
 21 26  1  0
 25 26  2  0
 26 27  1  0
M  END
