pyridine_urea_5365
     RDKit          3D

 18 19  0  0  0  0  0  0  0  0999 V2000
    9.4740    3.9560   22.7680 C   0  0  0  0  0  0  0  0  0  0  0  0
    9.3300    2.4710   23.0940 C   0  0  0  0  0  0  0  0  0  0  0  0
   10.5960    1.5430   23.1760 C   0  0  0  0  0  0  0  0  0  0  0  0
   10.4240    0.1560   23.1360 C   0  0  1  0  0  0  0  0  0  0  0  0
    9.3150   -0.4100   22.4600 N   0  0  0  0  0  0  0  0  0  0  0  0
    8.5150    0.1330   21.4810 C   0  0  0  0  0  0  0  0  0  0  0  0
    8.8060    1.2740   21.1040 O   0  0  0  0  0  0  0  0  0  0  0  0
    7.4760   -0.6150   21.0260 N   0  0  0  0  0  0  0  0  0  0  0  0
    6.6820    0.0170   20.1220 C   0  0  0  0  0  0  0  0  0  0  0  0
    5.4100    0.8280   20.4600 C   0  0  0  0  0  0  0  0  0  0  0  0
    4.6140    1.5070   19.3440 C   0  0  0  0  0  0  0  0  0  0  0  0
    5.2030    1.2920   17.9720 C   0  0  0  0  0  0  0  0  0  0  0  0
    6.3230    0.5590   17.7620 N   0  0  0  0  0  0  0  0  0  0  0  0
    7.0420   -0.0630   18.7860 C   0  0  0  0  0  0  0  0  0  0  0  0
   11.7840   -0.2980   22.6130 C   0  0  0  0  0  0  0  0  0  0  0  0
   12.5550   -0.6830   23.8200 C   0  0  0  0  0  0  0  0  0  0  0  0
   11.9140   -0.3930   24.8080 O   0  0  0  0  0  0  0  0  0  0  0  0
   10.5050   -0.3820   24.4660 C   0  0  0  0  0  0  0  0  0  0  0  0
  1  2  2  3
  2  3  1  0
  4  3  1  1
  4  5  1  0
  5  6  1  0
  6  7  2  0
  6  8  1  0
  8  9  1  0
  9 10  2  0
 10 11  1  0
 11 12  2  0
 12 13  1  0
  9 14  1  0
 13 14  2  0
  4 15  1  0
 15 16  1  0
 16 17  1  0
  4 18  1  0
 17 18  1  0
M  END
