pyridine_urea_5442
     RDKit          3D

 18 18  0  0  0  0  0  0  0  0999 V2000
   11.3110   -1.3410   24.5760 C   0  0  0  0  0  0  0  0  0  0  0  0
   10.0140   -1.0170   23.9100 C   0  0  0  0  0  0  0  0  0  0  0  0
   10.2930   -1.6750   22.5710 C   0  0  2  0  0  0  0  0  0  0  0  0
   11.3960   -1.1610   21.9520 C   0  0  0  0  0  0  0  0  0  0  0  0
   12.6850   -1.0550   22.7980 C   0  0  0  0  0  0  0  0  0  0  0  0
   13.1360    0.0630   22.9880 O   0  0  0  0  0  0  0  0  0  0  0  0
   13.3150   -2.1560   23.3120 O   0  0  0  0  0  0  0  0  0  0  0  0
   13.3980   -2.3650   24.7370 C   0  0  0  0  0  0  0  0  0  0  0  0
    9.1200   -1.6150   21.7090 N   0  0  0  0  0  0  0  0  0  0  0  0
    8.4060   -0.3660   21.4460 C   0  0  0  0  0  0  0  0  0  0  0  0
    8.9470    0.7310   21.3740 O   0  0  0  0  0  0  0  0  0  0  0  0
    7.0080   -0.6340   21.2820 N   0  0  0  0  0  0  0  0  0  0  0  0
    6.4440   -0.0010   20.1770 C   0  0  0  0  0  0  0  0  0  0  0  0
    5.1760    0.8040   20.4150 C   0  0  0  0  0  0  0  0  0  0  0  0
    4.5630    1.4960   19.2220 C   0  0  0  0  0  0  0  0  0  0  0  0
    5.2910    1.3060   17.9170 C   0  0  0  0  0  0  0  0  0  0  0  0
    6.4070    0.5780   17.7720 N   0  0  0  0  0  0  0  0  0  0  0  0
    6.9440   -0.0450   18.8670 C   0  0  0  0  0  0  0  0  0  0  0  0
  1  2  1  0
  3  2  1  1
  3  4  1  0
  4  5  1  0
  5  6  2  0
  5  7  1  0
  7  8  1  0
  3  9  1  0
  9 10  1  0
 10 11  2  0
 10 12  1  0
 12 13  1  0
 13 14  2  0
 14 15  1  0
 15 16  2  0
 16 17  1  0
 13 18  1  0
 17 18  2  0
M  END
