pyridine_urea_1806
     RDKit          3D

 17 18  0  0  0  0  0  0  0  0999 V2000
    8.9950    1.1360   21.2050 O   0  0  0  0  0  0  0  0  0  0  0  0
    8.5590    0.0020   21.4420 C   0  0  0  0  0  0  0  0  0  0  0  0
    9.2360   -0.9950   22.1060 N   0  0  0  0  0  0  0  0  0  0  0  0
   10.0520   -0.8260   23.2410 C   0  0  0  0  0  0  0  0  0  0  0  0
   11.4350   -0.9650   23.0950 C   0  0  0  0  0  0  0  0  0  0  0  0
   12.7820   -0.5620   22.9410 C   0  0  0  0  0  0  0  0  0  0  0  0
   13.0120    0.7280   22.8810 C   0  0  0  0  0  0  0  0  0  0  0  0
   11.9090    1.4390   22.9680 C   0  0  0  0  0  0  0  0  0  0  0  0
   11.6290    3.3260   22.9180 Br  0  0  0  0  0  0  0  0  0  0  0  0
   11.0890    0.5160   23.0860 O   0  0  0  0  0  0  0  0  0  0  0  0
    7.3110   -0.4410   21.0640 N   0  0  0  0  0  0  0  0  0  0  0  0
    6.5960    0.1000   20.0490 C   0  0  0  0  0  0  0  0  0  0  0  0
    5.3150    0.8860   20.3650 C   0  0  0  0  0  0  0  0  0  0  0  0
    4.6270    1.4380   19.3000 C   0  0  0  0  0  0  0  0  0  0  0  0
    5.1260    1.2540   18.0140 C   0  0  0  0  0  0  0  0  0  0  0  0
    6.2390    0.5630   17.7170 N   0  0  0  0  0  0  0  0  0  0  0  0
    6.9470    0.0030   18.7200 C   0  0  0  0  0  0  0  0  0  0  0  0
  1  2  2  0
  2  3  1  0
  3  4  1  0
  4  5  1  0
  5  6  2  0
  6  7  1  0
  7  8  2  0
  8  9  1  0
  5 10  1  0
  8 10  1  0
  2 11  1  0
 11 12  1  0
 12 13  2  0
 13 14  1  0
 14 15  2  0
 15 16  1  0
 12 17  1  0
 16 17  2  0
M  END
