pyridine_urea_6038
     RDKit          3D

 25 26  0  0  0  0  0  0  0  0999 V2000
   12.3510    4.6950   21.1980 C   0  0  0  0  0  0  0  0  0  0  0  0
   12.0040    3.9300   22.3940 C   0  0  0  0  0  0  0  0  0  0  0  0
   13.1220    3.4980   22.9860 C   0  0  0  0  0  0  0  0  0  0  0  0
   11.3150    4.9020   23.3640 C   0  0  0  0  0  0  0  0  0  0  0  0
   11.1820    3.0180   22.1960 O   0  0  0  0  0  0  0  0  0  0  0  0
   10.5280    2.4830   23.2860 C   0  0  0  0  0  0  0  0  0  0  0  0
   10.0680    3.1080   24.2330 O   0  0  0  0  0  0  0  0  0  0  0  0
   10.2570    1.0080   23.4870 C   0  0  0  0  0  0  0  0  0  0  0  0
    9.6960    0.2570   22.3650 C   0  0  2  0  0  0  0  0  0  0  0  0
    8.4560   -0.3360   22.4880 N   0  0  0  0  0  0  0  0  0  0  0  0
    7.8990   -0.7440   21.3350 C   0  0  0  0  0  0  0  0  0  0  0  0
    8.4970   -1.2300   20.4460 O   0  0  0  0  0  0  0  0  0  0  0  0
    6.5030   -0.5180   21.1810 N   0  0  0  0  0  0  0  0  0  0  0  0
    6.0340    0.1330   20.0930 C   0  0  0  0  0  0  0  0  0  0  0  0
    4.8730    0.8910   20.1430 C   0  0  0  0  0  0  0  0  0  0  0  0
    4.4450    1.5490   18.9970 C   0  0  0  0  0  0  0  0  0  0  0  0
    5.1890    1.4290   17.8410 C   0  0  0  0  0  0  0  0  0  0  0  0
    6.3160    0.7040   17.7340 N   0  0  0  0  0  0  0  0  0  0  0  0
    6.7270    0.0510   18.8960 C   0  0  0  0  0  0  0  0  0  0  0  0
   10.7160   -0.6270   22.1880 C   0  0  0  0  0  0  0  0  0  0  0  0
   10.9590   -1.8380   21.7180 C   0  0  0  0  0  0  0  0  0  0  0  0
   12.3830   -2.0300   21.8980 C   0  0  0  0  0  0  0  0  0  0  0  0
   13.2750   -0.9990   22.5150 C   0  0  0  0  0  0  0  0  0  0  0  0
   12.8090    0.2850   22.9860 C   0  0  0  0  0  0  0  0  0  0  0  0
   11.9880   -0.5510   22.4680 C   0  0  0  0  0  0  0  0  0  0  0  0
  1  2  1  0
  2  3  1  0
  2  4  1  0
  2  5  1  0
  5  6  1  0
  6  7  2  0
  6  8  1  0
  9  8  1  1
  9 10  1  0
 10 11  1  0
 11 12  2  0
 11 13  1  0
 13 14  1  0
 14 15  2  0
 15 16  1  0
 16 17  2  0
 17 18  1  0
 14 19  1  0
 18 19  2  0
  9 20  1  0
 20 21  2  0
 21 22  1  0
 22 23  2  0
 23 24  1  0
 20 25  1  0
 24 25  2  0
M  END
