pyridine_urea_1828
     RDKit          3D

 17 18  0  0  0  0  0  0  0  0999 V2000
   12.1430    1.0510   23.0250 C   0  0  0  0  0  0  0  0  0  0  0  0
   10.7720    0.4050   23.0010 C   0  0  0  0  0  0  0  0  0  0  0  0
   10.5330   -0.8000   22.3670 C   0  0  2  0  0  0  0  0  0  0  0  0
    9.1530   -1.0480   22.2310 N   0  0  0  0  0  0  0  0  0  0  0  0
    8.3480   -0.1610   21.5390 C   0  0  0  0  0  0  0  0  0  0  0  0
    8.6510    1.0040   21.3300 O   0  0  0  0  0  0  0  0  0  0  0  0
    7.1570   -0.7020   21.0790 N   0  0  0  0  0  0  0  0  0  0  0  0
    6.4500   -0.0440   20.0590 C   0  0  0  0  0  0  0  0  0  0  0  0
    5.2630    0.6390   20.3840 C   0  0  0  0  0  0  0  0  0  0  0  0
    4.5670    1.3100   19.3800 C   0  0  0  0  0  0  0  0  0  0  0  0
    5.1570    1.2550   17.9720 C   0  0  0  0  0  0  0  0  0  0  0  0
    6.2820    0.5860   17.7140 N   0  0  0  0  0  0  0  0  0  0  0  0
    6.8900   -0.0370   18.7440 C   0  0  0  0  0  0  0  0  0  0  0  0
   11.4090   -1.7950   22.7850 C   0  0  0  0  0  0  0  0  0  0  0  0
   11.7850   -1.8850   24.1160 C   0  0  0  0  0  0  0  0  0  0  0  0
   12.9980   -1.2690   23.8750 C   0  0  0  0  0  0  0  0  0  0  0  0
   12.8050   -1.1780   22.5100 C   0  0  0  0  0  0  0  0  0  0  0  0
  1  2  1  0
  3  2  1  1
  3  4  1  0
  4  5  1  0
  5  6  2  0
  5  7  1  0
  7  8  1  0
  8  9  2  0
  9 10  1  0
 10 11  2  0
 11 12  1  0
  8 13  1  0
 12 13  2  0
  3 14  1  0
 14 15  1  0
 15 16  1  0
 14 17  1  0
 16 17  1  0
M  END
