pyridine_urea_14528
     RDKit          3D

 21 22  0  0  0  0  0  0  0  0999 V2000
    9.4230   -1.3760   24.0230 C   0  0  0  0  0  0  0  0  0  0  0  0
   10.1800   -0.6440   22.9160 C   0  0  2  0  0  0  0  0  0  0  0  0
   10.3900    0.7190   23.1000 C   0  0  0  0  0  0  0  0  0  0  0  0
    9.1610    1.4390   23.2390 O   0  0  0  0  0  0  0  0  0  0  0  0
    9.5100   -0.9540   21.6580 N   0  0  0  0  0  0  0  0  0  0  0  0
    8.4020   -0.0700   21.3890 C   0  0  0  0  0  0  0  0  0  0  0  0
    8.5910    1.1440   21.3070 O   0  0  0  0  0  0  0  0  0  0  0  0
    7.1410   -0.5920   21.1780 N   0  0  0  0  0  0  0  0  0  0  0  0
    6.4540    0.0650   20.0850 C   0  0  0  0  0  0  0  0  0  0  0  0
    5.2870    0.8030   20.2930 C   0  0  0  0  0  0  0  0  0  0  0  0
    4.6300    1.4970   19.0940 C   0  0  0  0  0  0  0  0  0  0  0  0
    5.1540    1.4170   17.8190 C   0  0  0  0  0  0  0  0  0  0  0  0
    6.2850    0.6640   17.7330 N   0  0  0  0  0  0  0  0  0  0  0  0
    6.9440   -0.0030   18.7700 C   0  0  0  0  0  0  0  0  0  0  0  0
   11.5590   -1.2900   22.7150 C   0  0  0  0  0  0  0  0  0  0  0  0
   12.1890   -1.7400   21.8140 C   0  0  0  0  0  0  0  0  0  0  0  0
   13.0830   -1.9670   22.9450 C   0  0  0  0  0  0  0  0  0  0  0  0
   11.8470   -1.2060   23.6670 C   0  0  0  0  0  0  0  0  0  0  0  0
   12.6120   -1.4300   24.7700 C   0  0  0  0  0  0  0  0  0  0  0  0
   13.7550   -1.9650   25.2670 N   0  0  0  0  0  0  0  0  0  0  0  0
   12.7270   -1.6850   23.5470 C   0  0  0  0  0  0  0  0  0  0  0  0
  2  1  1  1
  2  3  1  0
  3  4  1  0
  2  5  1  0
  5  6  1  0
  6  7  2  0
  6  8  1  0
  8  9  1  0
  9 10  2  0
 10 11  1  0
 11 12  2  0
 12 13  1  0
  9 14  1  0
 13 14  2  0
  2 15  1  0
 15 16  2  0
 16 17  1  0
 17 18  2  0
 18 19  1  0
 19 20  1  0
 15 21  1  0
 19 21  2  0
M  END
