pyridine_urea_7015
     RDKit          3D

 20 21  0  0  0  0  0  0  0  0999 V2000
   13.6250   -2.5420   23.8410 C   0  0  0  0  0  0  0  0  0  0  0  0
   13.5580   -1.5690   23.1050 O   0  0  0  0  0  0  0  0  0  0  0  0
   12.3640   -0.9620   23.1700 C   0  0  0  0  0  0  0  0  0  0  0  0
   12.0150   -0.0460   24.1460 C   0  0  0  0  0  0  0  0  0  0  0  0
   10.6970    0.3500   23.9150 C   0  0  0  0  0  0  0  0  0  0  0  0
    9.5980    0.1530   23.0420 C   0  0  0  0  0  0  0  0  0  0  0  0
    9.8790   -0.7770   21.9970 C   0  0  0  0  0  0  0  0  0  0  0  0
   11.3020   -1.1790   22.2820 C   0  0  0  0  0  0  0  0  0  0  0  0
   10.6730   -0.2660   23.1340 C   0  0  1  0  0  0  0  0  0  0  0  0
   10.9670    1.1230   23.0550 C   0  0  0  0  0  0  0  0  0  0  0  0
    9.1690   -0.4590   22.8420 N   0  0  0  0  0  0  0  0  0  0  0  0
    8.6210    0.2830   21.6430 C   0  0  0  0  0  0  0  0  0  0  0  0
    9.0770    1.3550   21.2250 O   0  0  0  0  0  0  0  0  0  0  0  0
    7.5190   -0.3810   21.0900 N   0  0  0  0  0  0  0  0  0  0  0  0
    6.6600    0.1780   20.1220 C   0  0  0  0  0  0  0  0  0  0  0  0
    5.4240    0.9610   20.4150 C   0  0  0  0  0  0  0  0  0  0  0  0
    4.7160    1.4530   19.3190 C   0  0  0  0  0  0  0  0  0  0  0  0
    5.1700    1.2030   18.0410 C   0  0  0  0  0  0  0  0  0  0  0  0
    6.2640    0.4970   17.7400 N   0  0  0  0  0  0  0  0  0  0  0  0
    6.9780    0.0020   18.7800 C   0  0  0  0  0  0  0  0  0  0  0  0
  1  2  1  0
  2  3  1  0
  3  4  2  0
  4  5  1  0
  5  6  2  0
  6  7  1  0
  3  8  1  0
  7  8  2  0
  8  9  1  0
  9 10  1  6
  9 11  1  0
 11 12  1  0
 12 13  2  0
 12 14  1  0
 14 15  1  0
 15 16  2  0
 16 17  1  0
 17 18  2  0
 18 19  1  0
 15 20  1  0
 19 20  2  0
M  END
