pyridine_urea_12022
     RDKit          3D

 24 26  0  0  0  0  0  0  0  0999 V2000
   11.5750    1.3800   23.7080 C   0  0  0  0  0  0  0  0  0  0  0  0
   10.0950    1.0810   23.4640 C   0  0  0  0  0  0  0  0  0  0  0  0
    9.3510    2.2320   23.2030 C   0  0  0  0  0  0  0  0  0  0  0  0
   10.0040    0.1400   22.2570 C   0  0  2  0  0  0  0  0  0  0  0  0
    8.7690   -0.6020   22.2530 N   0  0  0  0  0  0  0  0  0  0  0  0
    7.9380   -0.0780   21.3610 C   0  0  0  0  0  0  0  0  0  0  0  0
    8.1660    1.0600   20.9640 O   0  0  0  0  0  0  0  0  0  0  0  0
    6.9100   -0.8040   20.9400 N   0  0  0  0  0  0  0  0  0  0  0  0
    6.2400   -0.0840   20.0260 C   0  0  0  0  0  0  0  0  0  0  0  0
    5.0390    0.5840   20.2250 C   0  0  0  0  0  0  0  0  0  0  0  0
    4.4700    1.3660   19.0460 C   0  0  0  0  0  0  0  0  0  0  0  0
    5.1880    1.3620   17.8490 C   0  0  0  0  0  0  0  0  0  0  0  0
    6.3430    0.6970   17.6960 N   0  0  0  0  0  0  0  0  0  0  0  0
    6.8050    0.0190   18.7660 C   0  0  0  0  0  0  0  0  0  0  0  0
   11.1020   -0.8070   22.3380 C   0  0  0  0  0  0  0  0  0  0  0  0
   11.8440   -1.6540   21.5140 C   0  0  0  0  0  0  0  0  0  0  0  0
   12.8630   -2.4180   22.0600 C   0  0  0  0  0  0  0  0  0  0  0  0
   13.1730   -2.4010   23.3950 C   0  0  0  0  0  0  0  0  0  0  0  0
   12.4260   -1.5510   24.1740 C   0  0  0  0  0  0  0  0  0  0  0  0
   11.5810   -0.9590   23.4920 C   0  0  0  0  0  0  0  0  0  0  0  0
   12.5570   -1.3910   25.4590 O   0  0  0  0  0  0  0  0  0  0  0  0
   13.2330   -2.4940   25.6370 C   0  0  0  0  0  0  0  0  0  0  0  0
   14.1720   -2.4620   24.8600 C   0  0  0  0  0  0  0  0  0  0  0  0
   14.1190   -3.1440   23.8970 O   0  0  0  0  0  0  0  0  0  0  0  0
  1  2  1  0
  2  3  1  0
  2  4  1  0
  4  5  1  1
  5  6  1  0
  6  7  2  0
  6  8  1  0
  8  9  1  0
  9 10  2  0
 10 11  1  0
 11 12  2  0
 12 13  1  0
  9 14  1  0
 13 14  2  0
  4 15  1  0
 15 16  2  0
 16 17  1  0
 17 18  2  0
 18 19  1  0
 15 20  1  0
 19 20  2  0
 19 21  1  0
 21 22  1  0
 22 23  1  0
 18 24  1  0
 23 24  1  0
M  END
