pyridine_urea_14112
     RDKit          3D

 23 24  0  0  0  0  0  0  0  0999 V2000
   11.6670   -1.8830   21.9300 C   0  0  0  0  0  0  0  0  0  0  0  0
   10.9570   -0.9220   22.1490 C   0  0  1  0  0  0  0  0  0  0  0  0
    9.4930   -1.1990   22.0510 N   0  0  0  0  0  0  0  0  0  0  0  0
    8.7600   -0.1870   21.3470 C   0  0  0  0  0  0  0  0  0  0  0  0
    9.2480    1.1130   21.0410 O   0  0  0  0  0  0  0  0  0  0  0  0
    7.4020   -0.6390   21.0440 N   0  0  0  0  0  0  0  0  0  0  0  0
    6.6200   -0.0370   20.0480 C   0  0  0  0  0  0  0  0  0  0  0  0
    5.3460    0.3970   20.3290 C   0  0  0  0  0  0  0  0  0  0  0  0
    4.4740    1.0730   19.2770 C   0  0  0  0  0  0  0  0  0  0  0  0
    5.0430    1.2150   17.9170 C   0  0  0  0  0  0  0  0  0  0  0  0
    6.3190    0.7120   17.7270 N   0  0  0  0  0  0  0  0  0  0  0  0
    7.0640    0.1300   18.7540 C   0  0  0  0  0  0  0  0  0  0  0  0
   11.1480   -0.3700   23.5850 C   0  0  0  0  0  0  0  0  0  0  0  0
    9.9710   -0.3040   24.1860 C   0  0  0  0  0  0  0  0  0  0  0  0
   10.5790    0.0960   25.0920 C   0  0  0  0  0  0  0  0  0  0  0  0
   11.9350    0.1340   24.6370 C   0  0  0  0  0  0  0  0  0  0  0  0
   13.4180    0.1750   24.1360 C   0  0  0  0  0  0  0  0  0  0  0  0
   13.7360   -0.2040   22.9210 N   0  0  0  0  0  0  0  0  0  0  0  0
   13.3560    0.8130   21.7230 S   0  0  0  0  0  0  0  0  0  0  0  0
   13.5270    2.4390   22.3690 C   0  0  0  0  0  0  0  0  0  0  0  0
   11.9600    0.4720   21.7390 O   0  0  0  0  0  0  0  0  0  0  0  0
   14.1870    0.6150   20.5620 O   0  0  0  0  0  0  0  0  0  0  0  0
   12.1400    0.2460   24.8540 C   0  0  0  0  0  0  0  0  0  0  0  0
  2  1  1  1
  2  3  1  0
  3  4  1  0
  4  5  2  0
  4  6  1  0
  6  7  1  0
  7  8  2  0
  8  9  1  0
  9 10  2  0
 10 11  1  0
  7 12  1  0
 11 12  2  0
  2 13  1  0
 13 14  2  0
 14 15  1  0
 15 16  2  0
 16 17  1  0
 17 18  1  0
 19 18  1  0
 19 20  1  0
 19 21  2  0
 19 22  2  0
 13 23  1  0
 17 23  2  0
M  END
