pyridine_urea_3375
     RDKit          3D

 19 20  0  0  0  0  0  0  0  0999 V2000
    8.8640    1.1570   21.1880 O   0  0  0  0  0  0  0  0  0  0  0  0
    8.3410    0.0830   21.5260 C   0  0  0  0  0  0  0  0  0  0  0  0
    8.7500   -0.7240   22.5510 N   0  0  0  0  0  0  0  0  0  0  0  0
   10.0630   -0.8600   23.0060 C   0  0  0  0  0  0  0  0  0  0  0  0
   10.4990    0.0620   23.9580 C   0  0  1  0  0  0  0  0  0  0  0  0
    9.5920    0.3300   24.9880 C   0  0  0  0  0  0  0  0  0  0  0  0
    9.2180    1.4920   24.9080 O   0  0  0  0  0  0  0  0  0  0  0  0
   11.7050   -0.6450   24.5430 C   0  0  0  0  0  0  0  0  0  0  0  0
   12.9160   -0.8520   23.6710 C   0  0  0  0  0  0  0  0  0  0  0  0
   13.0760    0.1750   22.7450 C   0  0  0  0  0  0  0  0  0  0  0  0
   12.0060    0.6530   22.3810 O   0  0  0  0  0  0  0  0  0  0  0  0
   11.1620    1.1540   23.4220 C   0  0  0  0  0  0  0  0  0  0  0  0
    7.2410   -0.4900   20.9490 N   0  0  0  0  0  0  0  0  0  0  0  0
    6.4600    0.1550   19.9980 C   0  0  0  0  0  0  0  0  0  0  0  0
    5.2980    0.8580   20.2430 C   0  0  0  0  0  0  0  0  0  0  0  0
    4.6150    1.4770   19.2030 C   0  0  0  0  0  0  0  0  0  0  0  0
    5.1490    1.3560   17.9230 C   0  0  0  0  0  0  0  0  0  0  0  0
    6.2700    0.6700   17.6560 N   0  0  0  0  0  0  0  0  0  0  0  0
    6.8900    0.0920   18.6950 C   0  0  0  0  0  0  0  0  0  0  0  0
  1  2  2  0
  2  3  1  0
  3  4  1  0
  5  4  1  6
  5  6  1  0
  6  7  1  0
  5  8  1  0
  8  9  1  0
  9 10  1  0
 10 11  1  0
  5 12  1  0
 11 12  1  0
  2 13  1  0
 13 14  1  0
 14 15  2  0
 15 16  1  0
 16 17  2  0
 17 18  1  0
 14 19  1  0
 18 19  2  0
M  END
