pyridine_urea_10435
     RDKit          3D

 22 24  0  0  0  0  0  0  0  0999 V2000
    8.7620    0.8750   21.2600 O   0  0  0  0  0  0  0  0  0  0  0  0
    8.3330   -0.2380   21.5340 C   0  0  0  0  0  0  0  0  0  0  0  0
    7.2040   -0.7920   20.9960 N   0  0  0  0  0  0  0  0  0  0  0  0
    6.4240   -0.0770   20.0750 C   0  0  0  0  0  0  0  0  0  0  0  0
    5.1020    0.6360   20.4020 C   0  0  0  0  0  0  0  0  0  0  0  0
    4.4720    1.3590   19.2110 C   0  0  0  0  0  0  0  0  0  0  0  0
    5.1930    1.2940   17.9050 C   0  0  0  0  0  0  0  0  0  0  0  0
    6.3450    0.6320   17.7350 N   0  0  0  0  0  0  0  0  0  0  0  0
    6.9070   -0.0120   18.7800 C   0  0  0  0  0  0  0  0  0  0  0  0
    8.9900   -1.0310   22.4400 N   0  0  0  0  0  0  0  0  0  0  0  0
   10.3460   -0.6490   22.6920 C   0  0  0  0  0  0  0  0  0  0  0  0
   11.4190   -1.3550   22.1620 C   0  0  0  0  0  0  0  0  0  0  0  0
   12.7160   -0.9240   22.4150 C   0  0  0  0  0  0  0  0  0  0  0  0
   12.9490    0.2090   23.1960 C   0  0  0  0  0  0  0  0  0  0  0  0
   11.8780    0.9320   23.7500 C   0  0  0  0  0  0  0  0  0  0  0  0
   10.5920    0.4690   23.4740 C   0  0  0  0  0  0  0  0  0  0  0  0
    9.4170    1.2570   24.0670 C   0  0  0  0  0  0  0  0  0  0  0  0
    9.4490    2.6080   23.9600 N   0  0  0  0  0  0  0  0  0  0  0  0
   10.4840    3.2730   23.3530 C   0  0  0  0  0  0  0  0  0  0  0  0
   10.2600    4.5850   23.3900 N   0  0  0  0  0  0  0  0  0  0  0  0
    9.0890    4.5970   24.0240 C   0  0  0  0  0  0  0  0  0  0  0  0
    8.5040    3.4530   24.4180 N   0  0  0  0  0  0  0  0  0  0  0  0
  1  2  2  0
  2  3  1  0
  3  4  1  0
  4  5  2  0
  5  6  1  0
  6  7  2  0
  7  8  1  0
  4  9  1  0
  8  9  2  0
  2 10  1  0
 10 11  1  0
 11 12  2  0
 12 13  1  0
 13 14  2  0
 14 15  1  0
 11 16  1  0
 15 16  2  0
 16 17  1  0
 17 18  1  0
 18 19  1  0
 19 20  2  0
 20 21  1  0
 18 22  1  0
 21 22  2  0
M  END
