pyridine_urea_5085
     RDKit          3D

 20 21  0  0  0  0  0  0  0  0999 V2000
    6.9150   -5.4250   26.3630 C   0  0  0  0  0  0  0  0  0  0  0  0
    6.7860   -4.3700   25.2990 C   0  0  0  0  0  0  0  0  0  0  0  0
    6.8870   -3.0050   25.7520 N   0  0  0  0  0  0  0  0  0  0  0  0
    6.7520   -2.3050   24.6200 N   0  0  0  0  0  0  0  0  0  0  0  0
    6.8370   -0.9140   24.8400 C   0  0  0  0  0  0  0  0  0  0  0  0
    7.4450   -0.0360   23.9340 C   0  0  0  0  0  0  0  0  0  0  0  0
    8.2430   -0.6100   22.9460 N   0  0  0  0  0  0  0  0  0  0  0  0
    8.3350   -0.1590   21.7180 C   0  0  0  0  0  0  0  0  0  0  0  0
    9.1550    0.6740   21.3760 O   0  0  0  0  0  0  0  0  0  0  0  0
    7.3690   -0.7620   20.9290 N   0  0  0  0  0  0  0  0  0  0  0  0
    6.5730   -0.0190   20.0490 C   0  0  0  0  0  0  0  0  0  0  0  0
    5.4390    0.7290   20.3980 C   0  0  0  0  0  0  0  0  0  0  0  0
    4.6990    1.4800   19.2810 C   0  0  0  0  0  0  0  0  0  0  0  0
    5.2050    1.3650   18.0030 C   0  0  0  0  0  0  0  0  0  0  0  0
    6.2870    0.6410   17.6770 N   0  0  0  0  0  0  0  0  0  0  0  0
    6.9390   -0.0310   18.7190 C   0  0  0  0  0  0  0  0  0  0  0  0
    6.5610   -3.1190   23.4870 C   0  0  0  0  0  0  0  0  0  0  0  0
    6.3860   -2.6570   22.1840 C   0  0  0  0  0  0  0  0  0  0  0  0
    6.5820   -4.4630   23.9090 C   0  0  0  0  0  0  0  0  0  0  0  0
    6.3640   -6.1220   22.7160 I   0  0  0  0  0  0  0  0  0  0  0  0
  1  2  1  0
  2  3  2  0
  3  4  1  0
  4  5  1  0
  5  6  1  0
  6  7  1  0
  7  8  1  0
  8  9  2  0
  8 10  1  0
 10 11  1  0
 11 12  2  0
 12 13  1  0
 13 14  2  0
 14 15  1  0
 11 16  1  0
 15 16  2  0
  4 17  1  0
 17 18  1  0
  2 19  1  0
 17 19  2  0
 19 20  1  0
M  END
