pyridine_urea_2942
     RDKit          3D

 22 24  0  0  0  0  0  0  0  0999 V2000
   12.3340    6.5570   23.5150 C   0  0  0  0  0  0  0  0  0  0  0  0
   12.6180    5.0850   23.2090 C   0  0  0  0  0  0  0  0  0  0  0  0
   13.9540    4.7180   22.7350 N   0  0  0  0  0  0  0  0  0  0  0  0
   13.8570    3.3420   22.5480 O   0  0  0  0  0  0  0  0  0  0  0  0
   12.6020    3.0550   22.8990 C   0  0  0  0  0  0  0  0  0  0  0  0
   12.0260    1.7870   22.8370 C   0  0  0  0  0  0  0  0  0  0  0  0
   10.5350    1.9430   22.9130 C   0  0  0  0  0  0  0  0  0  0  0  0
    9.7640    0.8530   22.8010 C   0  0  0  0  0  0  0  0  0  0  0  0
   10.3690   -0.4940   22.5980 C   0  0  0  0  0  0  0  0  0  0  0  0
    9.2070   -1.3170   22.4550 N   0  0  0  0  0  0  0  0  0  0  0  0
    8.3750   -0.5690   21.5610 C   0  0  0  0  0  0  0  0  0  0  0  0
    8.6850    0.7560   21.1160 O   0  0  0  0  0  0  0  0  0  0  0  0
    7.2200   -1.1000   21.0860 N   0  0  0  0  0  0  0  0  0  0  0  0
    6.5120   -0.3170   20.1960 C   0  0  0  0  0  0  0  0  0  0  0  0
    5.2300    0.4600   20.5480 C   0  0  0  0  0  0  0  0  0  0  0  0
    4.6140    1.2650   19.4080 C   0  0  0  0  0  0  0  0  0  0  0  0
    5.3280    1.2060   18.0810 C   0  0  0  0  0  0  0  0  0  0  0  0
    6.4430    0.5000   17.8610 N   0  0  0  0  0  0  0  0  0  0  0  0
    6.9820   -0.2160   18.8780 C   0  0  0  0  0  0  0  0  0  0  0  0
   11.7740   -0.6860   22.5670 C   0  0  0  0  0  0  0  0  0  0  0  0
   12.6010    0.4830   22.6920 C   0  0  0  0  0  0  0  0  0  0  0  0
   11.7640    4.0670   23.3240 N   0  0  0  0  0  0  0  0  0  0  0  0
  1  2  1  0
  2  3  2  0
  3  4  1  0
  4  5  1  0
  5  6  1  0
  6  7  2  0
  7  8  1  0
  8  9  2  0
  9 10  1  0
 10 11  1  0
 11 12  2  0
 11 13  1  0
 13 14  1  0
 14 15  2  0
 15 16  1  0
 16 17  2  0
 17 18  1  0
 14 19  1  0
 18 19  2  0
  9 20  1  0
  6 21  1  0
 20 21  2  0
  2 22  1  0
  5 22  2  0
M  END
