pyridine_urea_169
     RDKit          3D

 19 21  0  0  0  0  0  0  0  0999 V2000
   10.5750   -1.3490   22.0560 C   0  0  0  0  0  0  0  0  0  0  0  0
   10.0200   -1.0590   23.0850 C   0  0  2  0  0  0  0  0  0  0  0  0
    8.6150   -0.7640   22.8380 N   0  0  0  0  0  0  0  0  0  0  0  0
    8.2810    0.0330   21.6710 C   0  0  0  0  0  0  0  0  0  0  0  0
    9.0000    1.2120   21.2550 O   0  0  0  0  0  0  0  0  0  0  0  0
    7.1280   -0.5240   21.0280 N   0  0  0  0  0  0  0  0  0  0  0  0
    6.5390    0.0600   19.9780 C   0  0  0  0  0  0  0  0  0  0  0  0
    5.4100    0.7730   20.2760 C   0  0  0  0  0  0  0  0  0  0  0  0
    4.6090    1.5310   19.2170 C   0  0  0  0  0  0  0  0  0  0  0  0
    5.1270    1.4560   17.8420 C   0  0  0  0  0  0  0  0  0  0  0  0
    6.2700    0.6980   17.6710 N   0  0  0  0  0  0  0  0  0  0  0  0
    6.9670    0.0110   18.6790 C   0  0  0  0  0  0  0  0  0  0  0  0
   10.5490    0.2080   23.8280 C   0  0  0  0  0  0  0  0  0  0  0  0
   11.2990   -0.6090   24.6020 C   0  0  0  0  0  0  0  0  0  0  0  0
   12.5050   -0.2740   24.1450 C   0  0  0  0  0  0  0  0  0  0  0  0
   13.0060   -1.3010   23.5560 C   0  0  0  0  0  0  0  0  0  0  0  0
   13.0310   -0.9340   22.1180 C   0  0  0  0  0  0  0  0  0  0  0  0
   12.7610    0.4590   22.8540 C   0  0  0  0  0  0  0  0  0  0  0  0
   11.9780    0.8820   23.5290 C   0  0  0  0  0  0  0  0  0  0  0  0
  2  1  1  6
  2  3  1  0
  3  4  1  0
  4  5  2  0
  4  6  1  0
  6  7  1  0
  7  8  2  0
  8  9  1  0
  9 10  2  0
 10 11  1  0
  7 12  1  0
 11 12  2  0
  2 13  1  0
 13 14  1  0
 15 14  1  0
 15 16  1  0
 16 17  1  0
 15 18  1  0
 17 18  1  0
 13 19  1  0
 15 19  1  0
M  END
