pyridine_urea_762
     RDKit          3D

 23 24  0  0  0  0  0  0  0  0999 V2000
    9.6270   -1.3770   24.4000 C   0  0  0  0  0  0  0  0  0  0  0  0
    9.3310   -1.1710   22.9230 C   0  0  1  0  0  0  0  0  0  0  0  0
    9.0990   -2.3000   22.2170 C   0  0  0  0  0  0  0  0  0  0  0  0
    9.6720   -3.3540   22.9110 O   0  0  0  0  0  0  0  0  0  0  0  0
   10.9710   -2.9250   23.3180 C   0  0  0  0  0  0  0  0  0  0  0  0
   11.7040   -2.2660   22.3520 C   0  0  0  0  0  0  0  0  0  0  0  0
   12.9670   -1.7920   22.6210 C   0  0  0  0  0  0  0  0  0  0  0  0
   13.4990   -2.0380   24.0310 C   0  0  0  0  0  0  0  0  0  0  0  0
   12.7350   -2.7040   24.9300 C   0  0  0  0  0  0  0  0  0  0  0  0
   11.4810   -3.1460   24.5800 C   0  0  0  0  0  0  0  0  0  0  0  0
    8.1100   -0.4380   22.8850 N   0  0  0  0  0  0  0  0  0  0  0  0
    7.7200    0.2220   21.6580 C   0  0  0  0  0  0  0  0  0  0  0  0
    8.1670    1.3060   21.2850 O   0  0  0  0  0  0  0  0  0  0  0  0
    6.7980   -0.5180   20.9770 N   0  0  0  0  0  0  0  0  0  0  0  0
    6.1650    0.1310   19.9480 C   0  0  0  0  0  0  0  0  0  0  0  0
    4.8780    0.8530   20.0680 C   0  0  0  0  0  0  0  0  0  0  0  0
    4.4040    1.4850   18.9280 C   0  0  0  0  0  0  0  0  0  0  0  0
    5.1500    1.4000   17.7630 C   0  0  0  0  0  0  0  0  0  0  0  0
    6.3120    0.7360   17.6360 N   0  0  0  0  0  0  0  0  0  0  0  0
    6.7900    0.1210   18.7230 C   0  0  0  0  0  0  0  0  0  0  0  0
   10.0430   -0.3380   22.1280 C   0  0  0  0  0  0  0  0  0  0  0  0
    9.3600    0.5790   21.4620 N   0  0  0  0  0  0  0  0  0  0  0  0
   11.3950   -0.4110   22.0670 O   0  0  0  0  0  0  0  0  0  0  0  0
  2  1  1  1
  2  3  1  0
  3  4  1  0
  4  5  1  0
  5  6  2  0
  6  7  1  0
  7  8  2  0
  8  9  1  0
  5 10  1  0
  9 10  2  0
  2 11  1  0
 11 12  1  0
 12 13  2  0
 12 14  1  0
 14 15  1  0
 15 16  2  0
 16 17  1  0
 17 18  2  0
 18 19  1  0
 15 20  1  0
 19 20  2  0
  2 21  1  0
 21 22  1  0
 21 23  2  0
M  END
