pyridine_urea_10141
     RDKit          3D

 23 25  0  0  0  0  0  0  0  0999 V2000
    9.8680    0.3610   24.6590 C   0  0  0  0  0  0  0  0  0  0  0  0
   10.1200   -0.6430   23.7400 N   0  0  0  0  0  0  0  0  0  0  0  0
    9.3980   -1.7390   23.2440 C   0  0  0  0  0  0  0  0  0  0  0  0
    8.1580   -2.0080   23.6260 C   0  0  0  0  0  0  0  0  0  0  0  0
    7.7520   -3.3210   23.8900 C   0  0  0  0  0  0  0  0  0  0  0  0
    7.8770   -2.3270   25.0810 C   0  0  0  0  0  0  0  0  0  0  0  0
    7.3760   -1.0040   23.1220 N   0  0  0  0  0  0  0  0  0  0  0  0
    7.6480   -0.4360   21.9070 C   0  0  0  0  0  0  0  0  0  0  0  0
    8.5220    0.4080   21.6860 O   0  0  0  0  0  0  0  0  0  0  0  0
    6.7270   -1.0050   20.9450 N   0  0  0  0  0  0  0  0  0  0  0  0
    6.2510   -0.1920   19.9170 C   0  0  0  0  0  0  0  0  0  0  0  0
    5.0850    0.5620   20.1390 C   0  0  0  0  0  0  0  0  0  0  0  0
    4.5640    1.3940   19.1340 C   0  0  0  0  0  0  0  0  0  0  0  0
    5.2160    1.4640   17.9160 C   0  0  0  0  0  0  0  0  0  0  0  0
    6.3630    0.7150   17.7080 N   0  0  0  0  0  0  0  0  0  0  0  0
    6.8570   -0.0850   18.6880 C   0  0  0  0  0  0  0  0  0  0  0  0
   10.1030   -2.4540   22.3280 N   0  0  0  0  0  0  0  0  0  0  0  0
   11.2750   -1.7520   22.2620 C   0  0  0  0  0  0  0  0  0  0  0  0
   12.3420   -2.0380   21.4660 C   0  0  0  0  0  0  0  0  0  0  0  0
   13.4100   -1.1900   21.5520 C   0  0  0  0  0  0  0  0  0  0  0  0
   13.4540   -0.0710   22.4130 C   0  0  0  0  0  0  0  0  0  0  0  0
   12.3960    0.2180   23.2160 C   0  0  0  0  0  0  0  0  0  0  0  0
   11.3690   -0.6530   23.0760 C   0  0  0  0  0  0  0  0  0  0  0  0
  1  2  1  0
  2  3  1  0
  3  4  1  0
  4  5  1  0
  4  6  1  0
  4  7  1  0
  7  8  1  0
  8  9  2  0
  8 10  1  0
 10 11  1  0
 11 12  2  0
 12 13  1  0
 13 14  2  0
 14 15  1  0
 11 16  1  0
 15 16  2  0
  3 17  2  0
 17 18  1  0
 18 19  1  0
 19 20  2  0
 20 21  1  0
 21 22  2  0
  2 23  1  0
 18 23  2  0
 22 23  1  0
M  END
