pyridine_urea_5013
     RDKit          3D

 21 22  0  0  0  0  0  0  0  0999 V2000
    8.8020   -0.7510   27.0110 C   0  0  0  0  0  0  0  0  0  0  0  0
    9.3790   -0.4750   25.6600 C   0  0  0  0  0  0  0  0  0  0  0  0
    8.7330    0.4620   24.8490 C   0  0  0  0  0  0  0  0  0  0  0  0
    9.4970    1.3480   24.4040 O   0  0  0  0  0  0  0  0  0  0  0  0
   10.5970    0.7830   23.7830 C   0  0  0  0  0  0  0  0  0  0  0  0
   11.7560    1.4200   23.7430 C   0  0  0  0  0  0  0  0  0  0  0  0
   12.8740    0.7390   23.0650 C   0  0  0  0  0  0  0  0  0  0  0  0
   12.6610   -0.5020   22.5090 C   0  0  0  0  0  0  0  0  0  0  0  0
   11.3410   -1.3510   22.4730 C   0  0  0  0  0  0  0  0  0  0  0  0
   10.0680   -1.8730   22.5880 C   0  0  0  0  0  0  0  0  0  0  0  0
    9.2380   -1.4440   21.4710 N   0  0  0  0  0  0  0  0  0  0  0  0
    8.4870   -0.2970   21.3690 C   0  0  0  0  0  0  0  0  0  0  0  0
    8.9830    0.9760   21.4900 O   0  0  0  0  0  0  0  0  0  0  0  0
    7.1680   -0.5890   21.0800 N   0  0  0  0  0  0  0  0  0  0  0  0
    6.4910    0.0360   20.0310 C   0  0  0  0  0  0  0  0  0  0  0  0
    5.3280    0.7590   20.2760 C   0  0  0  0  0  0  0  0  0  0  0  0
    4.6160    1.4160   19.2800 C   0  0  0  0  0  0  0  0  0  0  0  0
    5.1380    1.3110   18.0050 C   0  0  0  0  0  0  0  0  0  0  0  0
    6.2560    0.6170   17.7070 N   0  0  0  0  0  0  0  0  0  0  0  0
    6.9140   -0.0080   18.7130 C   0  0  0  0  0  0  0  0  0  0  0  0
   10.4480   -0.4720   23.1930 C   0  0  0  0  0  0  0  0  0  0  0  0
  1  2  1  0
  2  3  1  0
  3  4  1  0
  4  5  1  0
  5  6  2  0
  6  7  1  0
  7  8  2  0
  8  9  1  0
  9 10  1  0
 10 11  1  0
 11 12  1  0
 12 13  2  0
 12 14  1  0
 14 15  1  0
 15 16  2  0
 16 17  1  0
 17 18  2  0
 18 19  1  0
 15 20  1  0
 19 20  2  0
  5 21  1  0
  9 21  2  0
M  END
