pyridine_urea_3017
     RDKit          3D

 21 22  0  0  0  0  0  0  0  0999 V2000
    6.8740    0.1580   26.9210 C   0  0  0  0  0  0  0  0  0  0  0  0
    7.6040    0.9100   25.8070 C   0  0  0  0  0  0  0  0  0  0  0  0
    9.0440    0.4600   25.3600 C   0  0  0  0  0  0  0  0  0  0  0  0
    9.5070    1.3150   24.6010 O   0  0  0  0  0  0  0  0  0  0  0  0
   10.4100    0.5800   23.8770 C   0  0  0  0  0  0  0  0  0  0  0  0
   11.9200    0.7280   23.9800 C   0  0  0  0  0  0  0  0  0  0  0  0
   12.7960   -0.0400   23.2450 C   0  0  0  0  0  0  0  0  0  0  0  0
   12.1970   -1.0670   22.3010 C   0  0  0  0  0  0  0  0  0  0  0  0
   13.1590   -2.2010   21.2310 Br  0  0  0  0  0  0  0  0  0  0  0  0
   10.7360   -1.2520   22.1440 C   0  0  0  0  0  0  0  0  0  0  0  0
    9.9290   -0.3520   22.9970 C   0  0  0  0  0  0  0  0  0  0  0  0
    8.5380   -0.5700   22.7630 N   0  0  0  0  0  0  0  0  0  0  0  0
    8.1150    0.0770   21.6310 C   0  0  0  0  0  0  0  0  0  0  0  0
    8.7220    1.2250   21.1400 O   0  0  0  0  0  0  0  0  0  0  0  0
    7.0180   -0.5500   21.0430 N   0  0  0  0  0  0  0  0  0  0  0  0
    6.3910    0.0630   19.9780 C   0  0  0  0  0  0  0  0  0  0  0  0
    5.0950    0.8120   20.2050 C   0  0  0  0  0  0  0  0  0  0  0  0
    4.5070    1.4370   19.1170 C   0  0  0  0  0  0  0  0  0  0  0  0
    5.1450    1.3390   17.8800 C   0  0  0  0  0  0  0  0  0  0  0  0
    6.2920    0.6660   17.6730 N   0  0  0  0  0  0  0  0  0  0  0  0
    6.8840    0.0480   18.7060 C   0  0  0  0  0  0  0  0  0  0  0  0
  1  2  2  3
  2  3  1  0
  3  4  1  0
  4  5  1  0
  5  6  2  0
  6  7  1  0
  7  8  2  0
  8  9  1  0
  8 10  1  0
  5 11  1  0
 10 11  2  0
 11 12  1  0
 12 13  1  0
 13 14  2  0
 13 15  1  0
 15 16  1  0
 16 17  2  0
 17 18  1  0
 18 19  2  0
 19 20  1  0
 16 21  1  0
 20 21  2  0
M  END
