pyridine_urea_11029
     RDKit          3D

 19 20  0  0  0  0  0  0  0  0999 V2000
    8.8690    0.6200   21.3820 O   0  0  0  0  0  0  0  0  0  0  0  0
    8.3210   -0.4740   21.4230 C   0  0  0  0  0  0  0  0  0  0  0  0
    8.9710   -1.7060   21.8520 N   0  0  0  0  0  0  0  0  0  0  0  0
    9.7200   -1.8100   23.0230 C   0  0  0  0  0  0  0  0  0  0  0  0
   11.0570   -1.4750   22.9140 C   0  0  0  0  0  0  0  0  0  0  0  0
   10.1930   -0.3450   23.0110 C   0  0  0  0  0  0  0  0  0  0  0  0
   10.6170    0.9170   22.9920 C   0  0  0  0  0  0  0  0  0  0  0  0
   11.7860    1.6950   22.9020 C   0  0  0  0  0  0  0  0  0  0  0  0
   11.9740    2.9030   22.9030 O   0  0  0  0  0  0  0  0  0  0  0  0
   12.8250    0.6740   22.8000 C   0  0  0  0  0  0  0  0  0  0  0  0
   14.0820    0.9960   22.6940 F   0  0  0  0  0  0  0  0  0  0  0  0
   12.3660   -0.8140   22.8130 C   0  0  0  0  0  0  0  0  0  0  0  0
    7.0060   -0.7050   21.0500 N   0  0  0  0  0  0  0  0  0  0  0  0
    6.3750   -0.0220   20.0540 C   0  0  0  0  0  0  0  0  0  0  0  0
    5.1950    0.6990   20.2600 C   0  0  0  0  0  0  0  0  0  0  0  0
    4.6080    1.3890   19.1940 C   0  0  0  0  0  0  0  0  0  0  0  0
    5.2160    1.3370   17.9570 C   0  0  0  0  0  0  0  0  0  0  0  0
    6.3470    0.6500   17.7150 N   0  0  0  0  0  0  0  0  0  0  0  0
    6.9120   -0.0320   18.7890 C   0  0  0  0  0  0  0  0  0  0  0  0
  1  2  2  0
  2  3  1  0
  3  4  1  0
  4  5  1  0
  5  6  2  0
  6  7  1  0
  7  8  2  0
  8  9  1  0
  8 10  1  0
 10 11  1  0
  5 12  1  0
 10 12  2  0
  2 13  1  0
 13 14  1  0
 14 15  2  0
 15 16  1  0
 16 17  2  0
 17 18  1  0
 14 19  1  0
 18 19  2  0
M  END
