pyridine_urea_12880
     RDKit          3D

 19 20  0  0  0  0  0  0  0  0999 V2000
   10.0730    2.7210   23.3060 C   0  0  0  0  0  0  0  0  0  0  0  0
   10.9340    1.4330   23.2040 C   0  0  0  0  0  0  0  0  0  0  0  0
   12.3390    1.9210   22.9400 C   0  0  0  0  0  0  0  0  0  0  0  0
   12.8340    3.7630   22.7440 Br  0  0  0  0  0  0  0  0  0  0  0  0
   13.0640    0.8640   22.8640 C   0  0  0  0  0  0  0  0  0  0  0  0
   12.8380   -0.4680   22.9610 N   0  0  0  0  0  0  0  0  0  0  0  0
   11.4840   -0.7430   23.1890 C   0  0  0  0  0  0  0  0  0  0  0  0
   10.3020    0.1800   23.3470 C   0  0  0  0  0  0  0  0  0  0  0  0
    9.8280   -1.1030   23.4620 C   0  0  0  0  0  0  0  0  0  0  0  0
    8.9210   -1.3830   22.4660 N   0  0  0  0  0  0  0  0  0  0  0  0
    8.3040   -0.4960   21.5980 C   0  0  0  0  0  0  0  0  0  0  0  0
    8.8710    0.5680   21.3510 O   0  0  0  0  0  0  0  0  0  0  0  0
    7.0980   -0.8800   21.1070 N   0  0  0  0  0  0  0  0  0  0  0  0
    6.5080   -0.1590   20.1010 C   0  0  0  0  0  0  0  0  0  0  0  0
    5.3440    0.5710   20.4030 C   0  0  0  0  0  0  0  0  0  0  0  0
    4.7090    1.3230   19.3940 C   0  0  0  0  0  0  0  0  0  0  0  0
    5.3090    1.3110   18.0300 C   0  0  0  0  0  0  0  0  0  0  0  0
    6.4180    0.6030   17.7770 N   0  0  0  0  0  0  0  0  0  0  0  0
    6.9790   -0.1030   18.7960 C   0  0  0  0  0  0  0  0  0  0  0  0
  1  2  1  0
  2  3  2  0
  3  4  1  0
  3  5  1  0
  5  6  2  0
  6  7  1  0
  2  8  1  0
  7  8  2  0
  8  9  1  0
  9 10  1  0
 10 11  1  0
 11 12  2  0
 11 13  1  0
 13 14  1  0
 14 15  2  0
 15 16  1  0
 16 17  2  0
 17 18  1  0
 14 19  1  0
 18 19  2  0
M  END
