pyridine_urea_837
     RDKit          3D

 23 25  0  0  0  0  0  0  0  0999 V2000
    8.8860    1.4780   21.0080 O   0  0  0  0  0  0  0  0  0  0  0  0
    8.3100    0.5330   21.5390 C   0  0  0  0  0  0  0  0  0  0  0  0
    8.6470    0.1730   22.8750 N   0  0  0  0  0  0  0  0  0  0  0  0
    9.9280    0.5010   23.2520 C   0  0  0  0  0  0  0  0  0  0  0  0
   10.7960   -0.4700   22.9000 C   0  0  0  0  0  0  0  0  0  0  0  0
   10.1440   -1.6110   22.5580 C   0  0  0  0  0  0  0  0  0  0  0  0
   11.1300   -2.4860   22.2270 N   0  0  0  0  0  0  0  0  0  0  0  0
   12.2840   -1.7730   22.4070 N   0  0  0  0  0  0  0  0  0  0  0  0
   13.1490   -2.5950   22.0720 C   0  0  0  0  0  0  0  0  0  0  0  0
   13.0740   -2.6310   20.7610 C   0  0  0  0  0  0  0  0  0  0  0  0
   13.9810   -3.6250   20.2080 C   0  0  0  0  0  0  0  0  0  0  0  0
   14.9760   -4.6240   20.6220 C   0  0  0  0  0  0  0  0  0  0  0  0
   15.9090   -5.6950   19.9370 Cl  0  0  0  0  0  0  0  0  0  0  0  0
   15.0170   -4.5340   21.8050 C   0  0  0  0  0  0  0  0  0  0  0  0
   14.0960   -3.4820   22.5970 C   0  0  0  0  0  0  0  0  0  0  0  0
   12.1740   -0.4780   22.8370 C   0  0  0  0  0  0  0  0  0  0  0  0
    7.3170   -0.2500   21.0130 N   0  0  0  0  0  0  0  0  0  0  0  0
    6.4970    0.2800   20.0340 C   0  0  0  0  0  0  0  0  0  0  0  0
    5.3260    0.9800   20.2710 C   0  0  0  0  0  0  0  0  0  0  0  0
    4.6160    1.4900   19.1990 C   0  0  0  0  0  0  0  0  0  0  0  0
    5.1350    1.2620   17.9390 C   0  0  0  0  0  0  0  0  0  0  0  0
    6.2470    0.5810   17.6670 N   0  0  0  0  0  0  0  0  0  0  0  0
    6.9010    0.1040   18.7300 C   0  0  0  0  0  0  0  0  0  0  0  0
  1  2  2  0
  2  3  1  0
  3  4  1  0
  4  5  1  0
  5  6  1  0
  6  7  2  0
  7  8  1  0
  8  9  1  0
  9 10  2  0
 10 11  1  0
 11 12  2  0
 12 13  1  0
 12 14  1  0
  9 15  1  0
 14 15  2  0
  5 16  2  0
  8 16  1  0
  2 17  1  0
 17 18  1  0
 18 19  2  0
 19 20  1  0
 20 21  2  0
 21 22  1  0
 18 23  1  0
 22 23  2  0
M  END
