pyridine_urea_12376
     RDKit          3D

 22 24  0  0  0  0  0  0  0  0999 V2000
    8.6220    0.8330   21.1650 O   0  0  0  0  0  0  0  0  0  0  0  0
    8.2890   -0.3460   21.2080 C   0  0  0  0  0  0  0  0  0  0  0  0
    7.0060   -0.7630   20.9780 N   0  0  0  0  0  0  0  0  0  0  0  0
    6.3350   -0.0210   19.9540 C   0  0  0  0  0  0  0  0  0  0  0  0
    5.0040    0.7290   20.2650 C   0  0  0  0  0  0  0  0  0  0  0  0
    4.4320    1.4330   19.2150 C   0  0  0  0  0  0  0  0  0  0  0  0
    5.1690    1.3980   17.8720 C   0  0  0  0  0  0  0  0  0  0  0  0
    6.3200    0.7230   17.6690 N   0  0  0  0  0  0  0  0  0  0  0  0
    6.8630    0.0420   18.6920 C   0  0  0  0  0  0  0  0  0  0  0  0
    9.1000   -1.3940   21.4770 N   0  0  0  0  0  0  0  0  0  0  0  0
   10.0660   -1.0650   22.4670 C   0  0  0  0  0  0  0  0  0  0  0  0
   11.5430   -1.2830   22.3030 C   0  0  0  0  0  0  0  0  0  0  0  0
   12.3930   -0.8680   23.4720 C   0  0  0  0  0  0  0  0  0  0  0  0
   13.6990   -1.0790   23.2980 F   0  0  0  0  0  0  0  0  0  0  0  0
   11.7890   -0.2650   24.7460 C   0  0  0  0  0  0  0  0  0  0  0  0
   10.2430   -0.0740   24.8170 C   0  0  0  0  0  0  0  0  0  0  0  0
    9.3900    0.4400   25.7990 N   0  0  0  0  0  0  0  0  0  0  0  0
    9.4390    0.1760   27.1180 C   0  0  0  0  0  0  0  0  0  0  0  0
    8.1690    0.0480   27.6340 C   0  0  0  0  0  0  0  0  0  0  0  0
    7.3090    0.3670   26.5890 C   0  0  0  0  0  0  0  0  0  0  0  0
    8.0670    0.5540   25.4160 C   0  0  0  0  0  0  0  0  0  0  0  0
    9.5220   -0.4630   23.7310 C   0  0  0  0  0  0  0  0  0  0  0  0
  1  2  2  0
  2  3  1  0
  3  4  1  0
  4  5  2  0
  5  6  1  0
  6  7  2  0
  7  8  1  0
  4  9  1  0
  8  9  2  0
  2 10  1  0
 10 11  1  0
 11 12  2  0
 12 13  1  0
 13 14  1  0
 13 15  2  0
 15 16  1  0
 16 17  1  0
 17 18  1  0
 18 19  1  0
 19 20  1  0
 17 21  1  0
 20 21  1  0
 11 22  1  0
 16 22  2  0
M  END
