pyridine_urea_4908
     RDKit          3D

 21 23  0  0  0  0  0  0  0  0999 V2000
   10.3840   -1.7500   21.8700 C   0  0  0  0  0  0  0  0  0  0  0  0
    9.8150   -0.7360   22.9010 C   0  0  2  0  0  0  0  0  0  0  0  0
    8.4150   -0.5200   22.6510 N   0  0  0  0  0  0  0  0  0  0  0  0
    8.0160    0.0180   21.4590 C   0  0  0  0  0  0  0  0  0  0  0  0
    8.5480    1.2540   20.9450 O   0  0  0  0  0  0  0  0  0  0  0  0
    7.0750   -0.8080   20.9200 N   0  0  0  0  0  0  0  0  0  0  0  0
    6.4020   -0.0570   20.0050 C   0  0  0  0  0  0  0  0  0  0  0  0
    5.2290    0.6780   20.1910 C   0  0  0  0  0  0  0  0  0  0  0  0
    4.6300    1.4110   19.1660 C   0  0  0  0  0  0  0  0  0  0  0  0
    5.2380    1.3970   17.9270 C   0  0  0  0  0  0  0  0  0  0  0  0
    6.3630    0.7040   17.7020 N   0  0  0  0  0  0  0  0  0  0  0  0
    6.9050    0.0080   18.7220 C   0  0  0  0  0  0  0  0  0  0  0  0
   10.5360    0.6010   22.9440 C   0  0  0  0  0  0  0  0  0  0  0  0
    9.9790    1.7320   23.0060 C   0  0  0  0  0  0  0  0  0  0  0  0
   11.3960    1.5240   22.9670 C   0  0  0  0  0  0  0  0  0  0  0  0
   11.1340   -0.1090   22.8540 C   0  0  0  0  0  0  0  0  0  0  0  0
   12.3110   -0.3740   22.8500 C   0  0  0  0  0  0  0  0  0  0  0  0
   11.9390    0.8290   22.9380 C   0  0  0  0  0  0  0  0  0  0  0  0
   13.5990   -0.1160   22.8770 C   0  0  0  0  0  0  0  0  0  0  0  0
   13.0240   -1.3160   22.2560 C   0  0  0  0  0  0  0  0  0  0  0  0
   11.7300   -1.3440   22.7380 O   0  0  0  0  0  0  0  0  0  0  0  0
  2  1  1  6
  2  3  1  0
  3  4  1  0
  4  5  2  0
  4  6  1  0
  6  7  1  0
  7  8  2  0
  8  9  1  0
  9 10  2  0
 10 11  1  0
  7 12  1  0
 11 12  2  0
  2 13  1  0
 13 14  2  0
 14 15  1  0
 15 16  2  0
 16 17  1  0
 13 18  1  0
 17 18  2  0
 17 19  1  0
 19 20  1  0
 16 21  1  0
 20 21  1  0
M  END
