pyridine_urea_10626
     RDKit          3D

 21 22  0  0  0  0  0  0  0  0999 V2000
    9.4600   -2.9780   24.0410 C   0  0  0  0  0  0  0  0  0  0  0  0
   10.6810   -2.2290   23.4530 C   0  0  0  0  0  0  0  0  0  0  0  0
   11.5130   -1.3400   24.4220 C   0  0  0  0  0  0  0  0  0  0  0  0
   12.7070   -0.6310   23.7850 C   0  0  0  0  0  0  0  0  0  0  0  0
   12.7710   -1.0030   22.3780 C   0  0  0  0  0  0  0  0  0  0  0  0
   11.6410   -1.6200   22.8470 C   0  0  0  0  0  0  0  0  0  0  0  0
   10.5150   -0.7490   22.6820 C   0  0  0  0  0  0  0  0  0  0  0  0
    9.7230   -0.5240   23.7560 C   0  0  0  0  0  0  0  0  0  0  0  0
   10.7110    0.8190   22.6070 C   0  0  0  0  0  0  0  0  0  0  0  0
    9.5250   -1.0980   21.6790 N   0  0  0  0  0  0  0  0  0  0  0  0
    8.5420   -0.1870   21.3280 C   0  0  0  0  0  0  0  0  0  0  0  0
    8.7500    1.0170   21.3390 O   0  0  0  0  0  0  0  0  0  0  0  0
    7.3430   -0.7420   20.9430 N   0  0  0  0  0  0  0  0  0  0  0  0
    6.4930   -0.0450   20.0710 C   0  0  0  0  0  0  0  0  0  0  0  0
    5.2840    0.6220   20.4460 C   0  0  0  0  0  0  0  0  0  0  0  0
    4.6130    1.3100   19.2560 C   0  0  0  0  0  0  0  0  0  0  0  0
    5.1680    1.2460   18.0100 C   0  0  0  0  0  0  0  0  0  0  0  0
    6.2910    0.6010   17.7200 N   0  0  0  0  0  0  0  0  0  0  0  0
    6.9100   -0.0160   18.7420 C   0  0  0  0  0  0  0  0  0  0  0  0
   12.0940   -1.8000   21.3600 C   0  0  0  0  0  0  0  0  0  0  0  0
   10.9770   -2.4360   21.9140 C   0  0  0  0  0  0  0  0  0  0  0  0
  1  2  1  0
  2  3  2  0
  3  4  1  0
  4  5  2  0
  5  6  1  0
  6  7  1  0
  7  8  1  0
  7  9  1  0
  7 10  1  0
 10 11  1  0
 11 12  2  0
 11 13  1  0
 13 14  1  0
 14 15  2  0
 15 16  1  0
 16 17  2  0
 17 18  1  0
 14 19  1  0
 18 19  2  0
  5 20  1  0
  2 21  1  0
 20 21  2  0
M  END
