pyridine_urea_4553
     RDKit          3D

 21 23  0  0  0  0  0  0  0  0999 V2000
    8.5690    0.7580   21.0420 O   0  0  0  0  0  0  0  0  0  0  0  0
    8.1170   -0.3280   21.3710 C   0  0  0  0  0  0  0  0  0  0  0  0
    8.6800   -1.1260   22.3130 N   0  0  0  0  0  0  0  0  0  0  0  0
    9.1390   -0.3900   23.4410 C   0  0  0  0  0  0  0  0  0  0  0  0
    9.8340    0.8770   22.9780 C   0  0  0  0  0  0  0  0  0  0  0  0
   11.2740    0.6310   23.0160 C   0  0  0  0  0  0  0  0  0  0  0  0
   12.2050    1.5740   22.5030 N   0  0  0  0  0  0  0  0  0  0  0  0
   13.6840    0.7280   22.7740 S   0  0  0  0  0  0  0  0  0  0  0  0
   12.9200   -0.6180   23.5050 C   0  0  0  0  0  0  0  0  0  0  0  0
   13.1760   -2.0110   24.1710 C   0  0  0  0  0  0  0  0  0  0  0  0
   11.8250   -2.8170   24.6790 C   0  0  0  0  0  0  0  0  0  0  0  0
   10.4950   -2.2140   24.4940 C   0  0  0  0  0  0  0  0  0  0  0  0
   11.4620   -1.5610   24.0920 C   0  0  0  0  0  0  0  0  0  0  0  0
   11.7420   -0.4920   23.5380 C   0  0  0  0  0  0  0  0  0  0  0  0
    6.9650   -0.8290   20.8390 N   0  0  0  0  0  0  0  0  0  0  0  0
    6.2730   -0.0930   19.9630 C   0  0  0  0  0  0  0  0  0  0  0  0
    5.0640    0.5590   20.2090 C   0  0  0  0  0  0  0  0  0  0  0  0
    4.4790    1.3420   19.0930 C   0  0  0  0  0  0  0  0  0  0  0  0
    5.1600    1.3800   17.8870 C   0  0  0  0  0  0  0  0  0  0  0  0
    6.3200    0.7400   17.6730 N   0  0  0  0  0  0  0  0  0  0  0  0
    6.8290    0.0350   18.7010 C   0  0  0  0  0  0  0  0  0  0  0  0
  1  2  2  0
  2  3  1  0
  3  4  1  0
  4  5  1  0
  5  6  1  0
  6  7  2  0
  7  8  1  0
  8  9  1  0
  9 10  1  0
 10 11  2  0
 11 12  1  0
 12 13  2  0
  6 14  1  0
  9 14  2  0
 13 14  1  0
  2 15  1  0
 15 16  1  0
 16 17  2  0
 17 18  1  0
 18 19  2  0
 19 20  1  0
 16 21  1  0
 20 21  2  0
M  END
