pyridine_urea_7995
     RDKit          3D

 25 26  0  0  0  0  0  0  0  0999 V2000
   12.8230   -1.9940   21.5850 C   0  0  0  0  0  0  0  0  0  0  0  0
   11.9980   -1.4560   22.7540 C   0  0  0  0  0  0  0  0  0  0  0  0
   12.0970   -0.0570   22.8890 C   0  0  0  0  0  0  0  0  0  0  0  0
   13.3780   -0.3850   22.5990 C   0  0  0  0  0  0  0  0  0  0  0  0
   12.9390    0.7470   22.8140 C   0  0  0  0  0  0  0  0  0  0  0  0
   11.5920    0.9530   23.1260 C   0  0  0  0  0  0  0  0  0  0  0  0
   10.4680    0.1540   23.3110 C   0  0  1  0  0  0  0  0  0  0  0  0
   10.2560   -0.9100   22.2440 C   0  0  0  0  0  0  0  0  0  0  0  0
    8.8520   -1.1700   22.1390 N   0  0  0  0  0  0  0  0  0  0  0  0
    8.1600   -0.2470   21.4300 C   0  0  0  0  0  0  0  0  0  0  0  0
    8.6580    0.8570   21.2520 O   0  0  0  0  0  0  0  0  0  0  0  0
    6.9500   -0.6860   20.9840 N   0  0  0  0  0  0  0  0  0  0  0  0
    6.2640    0.0230   20.0040 C   0  0  0  0  0  0  0  0  0  0  0  0
    5.0630    0.7000   20.1740 C   0  0  0  0  0  0  0  0  0  0  0  0
    4.5390    1.3690   19.0830 C   0  0  0  0  0  0  0  0  0  0  0  0
    5.1660    1.3850   17.8500 C   0  0  0  0  0  0  0  0  0  0  0  0
    6.3210    0.7360   17.6500 N   0  0  0  0  0  0  0  0  0  0  0  0
    6.8480    0.0580   18.7510 C   0  0  0  0  0  0  0  0  0  0  0  0
   10.4360   -0.4050   24.5080 N   0  0  0  0  0  0  0  0  0  0  0  0
   11.1300   -1.6430   24.5220 C   0  0  0  0  0  0  0  0  0  0  0  0
   10.3920   -2.6980   23.9430 C   0  0  0  0  0  0  0  0  0  0  0  0
    9.1790   -0.4180   25.1500 C   0  0  0  0  0  0  0  0  0  0  0  0
    9.0880    0.0550   26.4580 C   0  0  0  0  0  0  0  0  0  0  0  0
   11.6910    2.1540   23.2010 C   0  0  0  0  0  0  0  0  0  0  0  0
   12.8350    1.3070   22.8900 C   0  0  0  0  0  0  0  0  0  0  0  0
  1  2  1  0
  2  3  1  0
  3  4  2  0
  4  5  1  0
  5  6  2  0
  6  7  1  0
  7  8  1  6
  8  9  1  0
  9 10  1  0
 10 11  2  0
 10 12  1  0
 12 13  1  0
 13 14  2  0
 14 15  1  0
 15 16  2  0
 16 17  1  0
 13 18  1  0
 17 18  2  0
  7 19  1  0
 19 20  1  0
 20 21  1  0
 19 22  1  0
 22 23  1  0
  6 24  1  0
  3 25  1  0
 24 25  2  0
M  END
