pyridine_urea_2173
     RDKit          3D

 28 30  0  0  0  0  0  0  0  0999 V2000
    8.9410    1.6920   20.9660 O   0  0  0  0  0  0  0  0  0  0  0  0
    8.4650    0.7020   21.5000 C   0  0  0  0  0  0  0  0  0  0  0  0
    7.5060   -0.1420   20.9930 N   0  0  0  0  0  0  0  0  0  0  0  0
    6.6060    0.3390   20.0640 C   0  0  0  0  0  0  0  0  0  0  0  0
    5.3020    1.0590   20.4330 C   0  0  0  0  0  0  0  0  0  0  0  0
    4.5140    1.5330   19.2240 C   0  0  0  0  0  0  0  0  0  0  0  0
    5.0930    1.2420   17.8840 C   0  0  0  0  0  0  0  0  0  0  0  0
    6.2360    0.5880   17.6770 N   0  0  0  0  0  0  0  0  0  0  0  0
    6.9360    0.1660   18.7360 C   0  0  0  0  0  0  0  0  0  0  0  0
    8.8590    0.3470   22.7470 N   0  0  0  0  0  0  0  0  0  0  0  0
    9.9790   -0.5240   22.9650 C   0  0  2  0  0  0  0  0  0  0  0  0
   11.0440    0.0190   23.6410 C   0  0  0  0  0  0  0  0  0  0  0  0
   12.1660    0.0770   24.4650 C   0  0  0  0  0  0  0  0  0  0  0  0
   12.8110   -0.9080   25.1690 C   0  0  0  0  0  0  0  0  0  0  0  0
   12.4490   -2.1980   25.1840 C   0  0  0  0  0  0  0  0  0  0  0  0
   11.3490   -2.5100   24.4780 C   0  0  0  0  0  0  0  0  0  0  0  0
   10.5610   -3.9620   24.3050 Cl  0  0  0  0  0  0  0  0  0  0  0  0
   10.7740   -1.3570   23.7780 C   0  0  0  0  0  0  0  0  0  0  0  0
   10.6230   -1.0720   21.9060 C   0  0  0  0  0  0  0  0  0  0  0  0
   11.5770   -0.2350   22.4950 C   0  0  0  0  0  0  0  0  0  0  0  0
   11.2840    0.5190   23.6910 C   0  0  0  0  0  0  0  0  0  0  0  0
    9.9370   -0.0400   23.7440 C   0  0  0  0  0  0  0  0  0  0  0  0
    8.7360    0.1350   24.7400 C   0  0  0  0  0  0  0  0  0  0  0  0
    7.7480   -0.8030   24.6250 F   0  0  0  0  0  0  0  0  0  0  0  0
    9.1200    0.0560   26.0440 F   0  0  0  0  0  0  0  0  0  0  0  0
    8.1080    1.3420   24.6170 F   0  0  0  0  0  0  0  0  0  0  0  0
    8.9710   -1.0040   22.9950 C   0  0  0  0  0  0  0  0  0  0  0  0
    9.4200   -1.6000   21.8850 N   0  0  0  0  0  0  0  0  0  0  0  0
  1  2  2  0
  2  3  1  0
  3  4  1  0
  4  5  2  0
  5  6  1  0
  6  7  2  0
  7  8  1  0
  4  9  1  0
  8  9  2  0
  2 10  1  0
 11 10  1  6
 11 12  1  0
 12 13  2  0
 13 14  1  0
 14 15  2  0
 15 16  1  0
 16 17  1  0
 12 18  1  0
 16 18  2  0
 11 19  1  0
 19 20  2  0
 20 21  1  0
 21 22  2  0
 22 23  1  0
 23 24  1  0
 23 25  1  0
 23 26  1  0
 22 27  1  0
 19 28  1  0
 27 28  2  0
M  END
