pyridine_urea_45
     RDKit          3D

 17 18  0  0  0  0  0  0  0  0999 V2000
    8.9430    0.8830   21.3960 O   0  0  0  0  0  0  0  0  0  0  0  0
    8.3250   -0.1230   21.7250 C   0  0  0  0  0  0  0  0  0  0  0  0
    8.7410   -0.9630   22.7330 N   0  0  0  0  0  0  0  0  0  0  0  0
    9.5660   -2.1040   22.4100 C   0  0  0  0  0  0  0  0  0  0  0  0
   10.8550   -1.7160   21.7260 C   0  0  0  0  0  0  0  0  0  0  0  0
   11.8610   -1.5610   22.7450 C   0  0  1  0  0  0  0  0  0  0  0  0
   12.8910   -0.6870   22.6620 C   0  0  0  0  0  0  0  0  0  0  0  0
   12.6590   -0.0310   23.8850 C   0  0  2  0  0  0  0  0  0  0  0  0
   13.3280   -0.7620   24.8000 F   0  0  0  0  0  0  0  0  0  0  0  0
   11.3110   -0.5910   23.9120 C   0  0  0  0  0  0  0  0  0  0  0  0
    7.1510   -0.5670   21.1720 N   0  0  0  0  0  0  0  0  0  0  0  0
    6.5200    0.0530   20.0130 C   0  0  0  0  0  0  0  0  0  0  0  0
    5.2820    0.8540   20.3190 C   0  0  0  0  0  0  0  0  0  0  0  0
    4.6210    1.5030   19.2760 C   0  0  0  0  0  0  0  0  0  0  0  0
    5.1320    1.3880   17.9880 C   0  0  0  0  0  0  0  0  0  0  0  0
    6.3130    0.6110   17.6980 N   0  0  0  0  0  0  0  0  0  0  0  0
    6.9570   -0.0260   18.7150 C   0  0  0  0  0  0  0  0  0  0  0  0
  1  2  2  0
  2  3  1  0
  3  4  1  0
  4  5  1  0
  6  5  1  6
  6  7  1  0
  7  8  1  0
  8  9  1  1
  6 10  1  0
  8 10  1  0
  2 11  1  0
 11 12  1  0
 12 13  2  0
 13 14  1  0
 14 15  2  0
 15 16  1  0
 12 17  1  0
 16 17  2  0
M  END
