pyridine_urea_14318
     RDKit          3D

 22 24  0  0  0  0  0  0  0  0999 V2000
    8.6710    0.5660   21.1470 O   0  0  0  0  0  0  0  0  0  0  0  0
    8.2990   -0.5780   21.3870 C   0  0  0  0  0  0  0  0  0  0  0  0
    6.9740   -1.0140   20.9700 N   0  0  0  0  0  0  0  0  0  0  0  0
    6.3640   -0.2270   19.9990 C   0  0  0  0  0  0  0  0  0  0  0  0
    5.1760    0.4650   20.2680 C   0  0  0  0  0  0  0  0  0  0  0  0
    4.6100    1.2480   19.2560 C   0  0  0  0  0  0  0  0  0  0  0  0
    5.2450    1.3160   18.0110 C   0  0  0  0  0  0  0  0  0  0  0  0
    6.3830    0.6530   17.7460 N   0  0  0  0  0  0  0  0  0  0  0  0
    6.9140   -0.1020   18.7410 C   0  0  0  0  0  0  0  0  0  0  0  0
    9.0280   -1.5420   22.0590 N   0  0  0  0  0  0  0  0  0  0  0  0
   10.2860   -1.0360   22.5560 C   0  0  0  0  0  0  0  0  0  0  0  0
   11.5730   -1.4500   21.8680 C   0  0  0  0  0  0  0  0  0  0  0  0
   12.7430   -0.9140   22.3480 C   0  0  0  0  0  0  0  0  0  0  0  0
   12.6980   -0.0340   23.4180 C   0  0  0  0  0  0  0  0  0  0  0  0
   11.5010    0.3230   24.0460 C   0  0  0  0  0  0  0  0  0  0  0  0
   10.2790   -0.1810   23.6320 C   0  0  0  0  0  0  0  0  0  0  0  0
    9.0480    0.0730   24.1830 N   0  0  0  0  0  0  0  0  0  0  0  0
    8.0980    0.9160   23.7040 C   0  0  0  0  0  0  0  0  0  0  0  0
    7.2320    1.3940   24.7330 C   0  0  0  0  0  0  0  0  0  0  0  0
    7.7640    0.8050   25.9480 O   0  0  0  0  0  0  0  0  0  0  0  0
    8.9380    0.1390   25.5090 C   0  0  0  0  0  0  0  0  0  0  0  0
    9.7160   -0.2740   26.3530 O   0  0  0  0  0  0  0  0  0  0  0  0
  1  2  2  0
  2  3  1  0
  3  4  1  0
  4  5  2  0
  5  6  1  0
  6  7  2  0
  7  8  1  0
  4  9  1  0
  8  9  2  0
  2 10  1  0
 10 11  1  0
 11 12  2  0
 12 13  1  0
 13 14  2  0
 14 15  1  0
 11 16  1  0
 15 16  2  0
 16 17  1  0
 17 18  1  0
 18 19  1  0
 19 20  1  0
 17 21  1  0
 20 21  1  0
 21 22  2  0
M  END
