pyridine_urea_1870
     RDKit          3D

 16 17  0  0  0  0  0  0  0  0999 V2000
    8.9140    1.2220   21.2010 O   0  0  0  0  0  0  0  0  0  0  0  0
    8.4250    0.1340   21.5430 C   0  0  0  0  0  0  0  0  0  0  0  0
    8.9230   -0.6870   22.5120 N   0  0  0  0  0  0  0  0  0  0  0  0
   10.2320   -1.1810   22.5680 C   0  0  0  0  0  0  0  0  0  0  0  0
   11.0940   -0.5200   23.4200 C   0  0  2  0  0  0  0  0  0  0  0  0
   11.9640    0.4340   22.9190 C   0  0  0  0  0  0  0  0  0  0  0  0
   13.1390   -0.1910   22.7340 C   0  0  0  0  0  0  0  0  0  0  0  0
   13.1370   -1.4170   23.3890 C   0  0  0  0  0  0  0  0  0  0  0  0
   12.0340   -1.4770   23.9330 O   0  0  0  0  0  0  0  0  0  0  0  0
    7.2890   -0.4300   21.0180 N   0  0  0  0  0  0  0  0  0  0  0  0
    6.5850    0.1230   20.0110 C   0  0  0  0  0  0  0  0  0  0  0  0
    5.3060    0.9070   20.3270 C   0  0  0  0  0  0  0  0  0  0  0  0
    4.6330    1.4710   19.2630 C   0  0  0  0  0  0  0  0  0  0  0  0
    5.1430    1.3020   17.9790 C   0  0  0  0  0  0  0  0  0  0  0  0
    6.2530    0.6120   17.6820 N   0  0  0  0  0  0  0  0  0  0  0  0
    6.9490    0.0390   18.6850 C   0  0  0  0  0  0  0  0  0  0  0  0
  1  2  2  0
  2  3  1  0
  3  4  1  0
  5  4  1  6
  5  6  1  0
  6  7  1  0
  7  8  1  0
  5  9  1  0
  8  9  1  0
  2 10  1  0
 10 11  1  0
 11 12  2  0
 12 13  1  0
 13 14  2  0
 14 15  1  0
 11 16  1  0
 15 16  2  0
M  END
