pyridine_urea_13969
     RDKit          3D

 24 26  0  0  0  0  0  0  0  0999 V2000
    8.8550    0.7460   21.4480 O   0  0  0  0  0  0  0  0  0  0  0  0
    8.4170   -0.3900   21.3590 C   0  0  0  0  0  0  0  0  0  0  0  0
    9.1840   -1.5220   21.5200 N   0  0  0  0  0  0  0  0  0  0  0  0
    9.9140   -1.8140   22.7480 C   0  0  0  0  0  0  0  0  0  0  0  0
   11.3940   -1.4560   22.6810 C   0  0  0  0  0  0  0  0  0  0  0  0
   10.4560   -0.2990   22.8900 C   0  0  0  0  0  0  0  0  0  0  0  0
   10.8400    0.9280   23.0040 C   0  0  0  0  0  0  0  0  0  0  0  0
   11.9860    1.7950   23.0210 C   0  0  0  0  0  0  0  0  0  0  0  0
   11.8020    3.1590   23.1890 N   0  0  0  0  0  0  0  0  0  0  0  0
   12.6540    4.2470   22.8870 C   0  0  0  0  0  0  0  0  0  0  0  0
   12.3830    5.0750   21.8620 C   0  0  0  0  0  0  0  0  0  0  0  0
   11.2370    5.7830   22.5940 C   0  0  0  0  0  0  0  0  0  0  0  0
   11.7490    6.3620   23.5390 O   0  0  0  0  0  0  0  0  0  0  0  0
   10.2530    4.9690   23.1560 C   0  0  0  0  0  0  0  0  0  0  0  0
   10.4860    3.6050   23.1760 C   0  0  0  0  0  0  0  0  0  0  0  0
   13.0450    0.9590   22.8510 C   0  0  0  0  0  0  0  0  0  0  0  0
   12.7890   -0.5700   22.6850 C   0  0  0  0  0  0  0  0  0  0  0  0
    7.1030   -0.6650   21.0500 N   0  0  0  0  0  0  0  0  0  0  0  0
    6.4180   -0.0030   20.0900 C   0  0  0  0  0  0  0  0  0  0  0  0
    5.1470    0.7680   20.2720 C   0  0  0  0  0  0  0  0  0  0  0  0
    4.5630    1.4150   19.1820 C   0  0  0  0  0  0  0  0  0  0  0  0
    5.2070    1.3070   17.9580 C   0  0  0  0  0  0  0  0  0  0  0  0
    6.3460    0.6190   17.7470 N   0  0  0  0  0  0  0  0  0  0  0  0
    6.9150   -0.0120   18.7990 C   0  0  0  0  0  0  0  0  0  0  0  0
  1  2  2  0
  2  3  1  0
  3  4  1  0
  4  5  1  0
  5  6  2  0
  6  7  1  0
  7  8  2  0
  8  9  1  0
  9 10  1  0
 10 11  1  0
 11 12  1  0
 12 13  1  0
 12 14  1  0
  9 15  1  0
 14 15  1  0
  8 16  1  0
  5 17  1  0
 16 17  2  0
  2 18  1  0
 18 19  1  0
 19 20  2  0
 20 21  1  0
 21 22  2  0
 22 23  1  0
 19 24  1  0
 23 24  2  0
M  END
