pyridine_urea_935
     RDKit          3D

 22 23  0  0  0  0  0  0  0  0999 V2000
   13.1460   -1.2410   21.9190 C   0  0  0  0  0  0  0  0  0  0  0  0
   12.4840   -2.5110   22.3560 C   0  0  0  0  0  0  0  0  0  0  0  0
   11.9690   -2.6050   23.6570 C   0  0  0  0  0  0  0  0  0  0  0  0
   12.7480   -2.0440   24.6300 C   0  0  1  0  0  0  0  0  0  0  0  0
   13.7600   -2.8470   25.0910 C   0  0  0  0  0  0  0  0  0  0  0  0
   13.2720   -1.0100   24.3000 O   0  0  0  0  0  0  0  0  0  0  0  0
   12.3090   -0.1690   23.7560 C   0  0  0  0  0  0  0  0  0  0  0  0
   12.3880    1.2920   23.5600 C   0  0  0  0  0  0  0  0  0  0  0  0
   11.2330    2.0270   23.0040 C   0  0  0  0  0  0  0  0  0  0  0  0
   10.1000    1.3370   22.6530 C   0  0  0  0  0  0  0  0  0  0  0  0
    9.9360   -0.0490   22.7710 C   0  0  0  0  0  0  0  0  0  0  0  0
    8.8510   -0.7260   22.4070 N   0  0  0  0  0  0  0  0  0  0  0  0
    8.1200   -0.1340   21.4350 C   0  0  0  0  0  0  0  0  0  0  0  0
    8.4640    0.9430   20.9780 O   0  0  0  0  0  0  0  0  0  0  0  0
    7.0080   -0.7800   21.0120 N   0  0  0  0  0  0  0  0  0  0  0  0
    6.2940   -0.0870   20.0410 C   0  0  0  0  0  0  0  0  0  0  0  0
    5.0900    0.5600   20.2100 C   0  0  0  0  0  0  0  0  0  0  0  0
    4.5300    1.2320   19.1440 C   0  0  0  0  0  0  0  0  0  0  0  0
    5.1520    1.2720   17.9090 C   0  0  0  0  0  0  0  0  0  0  0  0
    6.3230    0.6400   17.7150 N   0  0  0  0  0  0  0  0  0  0  0  0
    6.8540   -0.0140   18.7720 C   0  0  0  0  0  0  0  0  0  0  0  0
   11.1250   -0.7680   23.3590 C   0  0  0  0  0  0  0  0  0  0  0  0
  1  2  1  0
  2  3  1  0
  3  4  1  0
  4  5  1  6
  4  6  1  0
  6  7  1  0
  7  8  2  0
  8  9  1  0
  9 10  2  0
 10 11  1  0
 11 12  1  0
 12 13  1  0
 13 14  2  0
 13 15  1  0
 15 16  1  0
 16 17  2  0
 17 18  1  0
 18 19  2  0
 19 20  1  0
 16 21  1  0
 20 21  2  0
  7 22  1  0
 11 22  2  0
M  END
