pyridine_urea_14543
     RDKit          3D

 21 22  0  0  0  0  0  0  0  0999 V2000
    8.8100    0.9190   21.3470 O   0  0  0  0  0  0  0  0  0  0  0  0
    8.4350   -0.2310   21.4830 C   0  0  0  0  0  0  0  0  0  0  0  0
    9.1750   -1.2020   22.1240 N   0  0  0  0  0  0  0  0  0  0  0  0
   10.5060   -1.0370   22.5520 C   0  0  0  0  0  0  0  0  0  0  0  0
   10.8730    0.0300   23.3570 C   0  0  0  0  0  0  0  0  0  0  0  0
   12.1420    0.6080   23.1840 C   0  0  0  0  0  0  0  0  0  0  0  0
   12.3290    1.8120   23.4480 O   0  0  0  0  0  0  0  0  0  0  0  0
   11.4620    2.8030   22.8510 C   0  0  0  0  0  0  0  0  0  0  0  0
   11.0610    3.9710   23.5230 C   0  0  0  0  0  0  0  0  0  0  0  0
   11.9820    5.1950   23.3730 C   0  0  0  0  0  0  0  0  0  0  0  0
   11.2870    6.3670   23.0970 C   0  0  0  0  0  0  0  0  0  0  0  0
   10.2660    6.6100   23.7440 O   0  0  0  0  0  0  0  0  0  0  0  0
    9.3380    5.5350   23.9880 C   0  0  0  0  0  0  0  0  0  0  0  0
    9.7380    4.3540   23.3640 C   0  0  0  0  0  0  0  0  0  0  0  0
    7.2390   -0.7120   21.0130 N   0  0  0  0  0  0  0  0  0  0  0  0
    6.4650   -0.0210   20.0600 C   0  0  0  0  0  0  0  0  0  0  0  0
    5.1960    0.7150   20.3150 C   0  0  0  0  0  0  0  0  0  0  0  0
    4.5800    1.3560   19.2330 C   0  0  0  0  0  0  0  0  0  0  0  0
    5.1740    1.2790   17.9780 C   0  0  0  0  0  0  0  0  0  0  0  0
    6.3160    0.6090   17.7390 N   0  0  0  0  0  0  0  0  0  0  0  0
    6.9240   -0.0160   18.7600 C   0  0  0  0  0  0  0  0  0  0  0  0
  1  2  2  0
  2  3  1  0
  3  4  1  0
  4  5  1  0
  5  6  1  0
  6  7  1  0
  7  8  1  0
  8  9  1  0
  9 10  1  0
 10 11  1  0
 11 12  1  0
 12 13  1  0
  9 14  1  0
 13 14  1  0
  2 15  1  0
 15 16  1  0
 16 17  2  0
 17 18  1  0
 18 19  2  0
 19 20  1  0
 16 21  1  0
 20 21  2  0
M  END
