pyridine_urea_5294
     RDKit          3D

 19 19  0  0  0  0  0  0  0  0999 V2000
   12.3480   -1.2340   24.3240 C   0  0  0  0  0  0  0  0  0  0  0  0
   10.8680   -1.4310   24.0840 C   0  0  0  0  0  0  0  0  0  0  0  0
   10.3790   -1.0140   22.8500 C   0  0  1  0  0  0  0  0  0  0  0  0
    8.9160   -0.8610   22.7580 N   0  0  0  0  0  0  0  0  0  0  0  0
    8.3520   -0.1180   21.7110 C   0  0  0  0  0  0  0  0  0  0  0  0
    8.7850    0.9620   21.3410 O   0  0  0  0  0  0  0  0  0  0  0  0
    7.1760   -0.7760   21.1150 N   0  0  0  0  0  0  0  0  0  0  0  0
    6.5010   -0.1070   20.1100 C   0  0  0  0  0  0  0  0  0  0  0  0
    5.2050    0.6280   20.4450 C   0  0  0  0  0  0  0  0  0  0  0  0
    4.5690    1.2960   19.4030 C   0  0  0  0  0  0  0  0  0  0  0  0
    5.2220    1.2390   18.0150 C   0  0  0  0  0  0  0  0  0  0  0  0
    6.3650    0.5690   17.7780 N   0  0  0  0  0  0  0  0  0  0  0  0
    6.9640   -0.0780   18.8060 C   0  0  0  0  0  0  0  0  0  0  0  0
   10.9470    0.1270   22.3640 C   0  0  1  0  0  0  0  0  0  0  0  0
   11.5620    1.1410   23.0390 O   0  0  0  0  0  0  0  0  0  0  0  0
   11.5760   -1.1050   22.2020 C   0  0  0  0  0  0  0  0  0  0  0  0
   10.7280   -2.2890   22.2880 O   0  0  0  0  0  0  0  0  0  0  0  0
   12.9520   -1.0820   21.9620 O   0  0  0  0  0  0  0  0  0  0  0  0
   13.2600   -2.1040   21.0570 C   0  0  0  0  0  0  0  0  0  0  0  0
  1  2  1  0
  3  2  1  1
  3  4  1  0
  4  5  1  0
  5  6  2  0
  5  7  1  0
  7  8  1  0
  8  9  2  0
  9 10  1  0
 10 11  2  0
 11 12  1  0
  8 13  1  0
 12 13  2  0
  3 14  1  0
 14 15  1  1
 14 16  1  0
 16 17  2  0
 16 18  1  0
 18 19  1  0
M  END
