pyridine_urea_9618
     RDKit          3D

 20 22  0  0  0  0  0  0  0  0999 V2000
    8.6390    1.2360   21.0530 O   0  0  0  0  0  0  0  0  0  0  0  0
    8.3810    0.0600   21.3340 C   0  0  0  0  0  0  0  0  0  0  0  0
    7.1730   -0.5420   21.0770 N   0  0  0  0  0  0  0  0  0  0  0  0
    6.4700    0.0990   20.0160 C   0  0  0  0  0  0  0  0  0  0  0  0
    5.1850    0.8400   20.3560 C   0  0  0  0  0  0  0  0  0  0  0  0
    4.4690    1.5430   19.2070 C   0  0  0  0  0  0  0  0  0  0  0  0
    5.1420    1.4140   17.8410 C   0  0  0  0  0  0  0  0  0  0  0  0
    6.3220    0.6820   17.7020 N   0  0  0  0  0  0  0  0  0  0  0  0
    6.9460    0.0590   18.7330 C   0  0  0  0  0  0  0  0  0  0  0  0
    9.2630   -0.7960   21.9260 N   0  0  0  0  0  0  0  0  0  0  0  0
   10.2480   -0.2520   22.7540 C   0  0  1  0  0  0  0  0  0  0  0  0
   10.3370   -0.6630   24.0290 C   0  0  0  0  0  0  0  0  0  0  0  0
   11.4880   -1.2710   23.6890 C   0  0  2  0  0  0  0  0  0  0  0  0
   11.6510   -0.8530   22.3690 C   0  0  0  0  0  0  0  0  0  0  0  0
   11.8680   -2.4770   24.1800 N   0  0  0  0  0  0  0  0  0  0  0  0
   12.9420   -2.4310   24.9960 C   0  0  0  0  0  0  0  0  0  0  0  0
   13.4840   -3.4100   25.4890 O   0  0  0  0  0  0  0  0  0  0  0  0
   13.2530   -1.1490   25.1290 N   0  0  0  0  0  0  0  0  0  0  0  0
   12.6870   -0.4400   24.1390 C   0  0  0  0  0  0  0  0  0  0  0  0
   12.9180    0.7440   23.5180 O   0  0  0  0  0  0  0  0  0  0  0  0
  1  2  2  0
  2  3  1  0
  3  4  1  0
  4  5  2  0
  5  6  1  0
  6  7  2  0
  7  8  1  0
  4  9  1  0
  8  9  2  0
  2 10  1  0
 11 10  1  6
 11 12  1  0
 13 12  1  1
 11 14  1  0
 13 14  1  0
 13 15  1  0
 15 16  1  0
 16 17  2  0
 16 18  1  0
 13 19  1  0
 18 19  1  0
 19 20  2  0
M  END
