pyridine_urea_5541
     RDKit          3D

 17 17  0  0  0  0  0  0  0  0999 V2000
   12.0290    2.0700   22.9720 C   0  0  0  0  0  0  0  0  0  0  0  0
   13.0340    0.9210   22.8640 C   0  0  0  0  0  0  0  0  0  0  0  0
   12.6520   -0.5940   22.8220 C   0  0  0  0  0  0  0  0  0  0  0  0
   11.3820   -0.9720   23.2290 C   0  0  2  0  0  0  0  0  0  0  0  0
   11.1420   -2.4680   23.0910 C   0  0  0  0  0  0  0  0  0  0  0  0
   10.6090   -3.0610   24.0140 O   0  0  0  0  0  0  0  0  0  0  0  0
   10.3400   -0.1260   22.7900 C   0  0  0  0  0  0  0  0  0  0  0  0
    9.1580   -0.8720   22.3220 N   0  0  0  0  0  0  0  0  0  0  0  0
    8.3450   -0.0270   21.4490 C   0  0  0  0  0  0  0  0  0  0  0  0
    8.7560    1.2420   21.0580 O   0  0  0  0  0  0  0  0  0  0  0  0
    7.1300   -0.6960   21.1060 N   0  0  0  0  0  0  0  0  0  0  0  0
    6.4890   -0.0260   20.0800 C   0  0  0  0  0  0  0  0  0  0  0  0
    5.2130    0.7450   20.4020 C   0  0  0  0  0  0  0  0  0  0  0  0
    4.5540    1.4700   19.2510 C   0  0  0  0  0  0  0  0  0  0  0  0
    5.2420    1.3440   17.9190 C   0  0  0  0  0  0  0  0  0  0  0  0
    6.3670    0.6420   17.7100 N   0  0  0  0  0  0  0  0  0  0  0  0
    6.9420   -0.0080   18.7630 C   0  0  0  0  0  0  0  0  0  0  0  0
  1  2  2  3
  2  3  1  0
  4  3  1  6
  4  5  1  0
  5  6  1  0
  4  7  1  0
  7  8  1  0
  8  9  1  0
  9 10  2  0
  9 11  1  0
 11 12  1  0
 12 13  2  0
 13 14  1  0
 14 15  2  0
 15 16  1  0
 12 17  1  0
 16 17  2  0
M  END
