pyridine_urea_8105
     RDKit          3D

 24 26  0  0  0  0  0  0  0  0999 V2000
    8.5860    1.3660   21.0200 O   0  0  0  0  0  0  0  0  0  0  0  0
    8.0160    0.4170   21.5720 C   0  0  0  0  0  0  0  0  0  0  0  0
    8.4080    0.0090   22.7890 N   0  0  0  0  0  0  0  0  0  0  0  0
    9.8090    0.1420   22.8180 C   0  0  0  0  0  0  0  0  0  0  0  0
   10.5180   -1.1610   22.4980 C   0  0  0  0  0  0  0  0  0  0  0  0
   11.8510   -1.1520   22.4870 C   0  0  0  0  0  0  0  0  0  0  0  0
   12.5810    0.1210   22.7860 C   0  0  0  0  0  0  0  0  0  0  0  0
   13.8060   -0.1640   22.7020 O   0  0  0  0  0  0  0  0  0  0  0  0
   13.6350   -1.5230   22.2750 C   0  0  0  0  0  0  0  0  0  0  0  0
   12.2820   -2.0500   22.6780 C   0  0  0  0  0  0  0  0  0  0  0  0
   10.9860   -1.8360   21.8810 C   0  0  0  0  0  0  0  0  0  0  0  0
    9.7100   -2.4730   22.4730 C   0  0  0  0  0  0  0  0  0  0  0  0
    9.7900   -3.2620   23.7740 C   0  0  0  0  0  0  0  0  0  0  0  0
   11.1500   -3.3900   24.4360 C   0  0  0  0  0  0  0  0  0  0  0  0
   12.3430   -2.7640   23.8480 C   0  0  0  0  0  0  0  0  0  0  0  0
   11.9090    1.2840   23.0670 C   0  0  0  0  0  0  0  0  0  0  0  0
   10.5150    1.3150   23.0850 C   0  0  0  0  0  0  0  0  0  0  0  0
    6.9850   -0.3100   21.0890 N   0  0  0  0  0  0  0  0  0  0  0  0
    6.3230    0.2560   19.9420 C   0  0  0  0  0  0  0  0  0  0  0  0
    5.1440    0.9340   20.1480 C   0  0  0  0  0  0  0  0  0  0  0  0
    4.5460    1.5080   19.0350 C   0  0  0  0  0  0  0  0  0  0  0  0
    5.1250    1.3920   17.7840 C   0  0  0  0  0  0  0  0  0  0  0  0
    6.2610    0.7190   17.5910 N   0  0  0  0  0  0  0  0  0  0  0  0
    6.8330    0.1660   18.6730 C   0  0  0  0  0  0  0  0  0  0  0  0
  1  2  2  0
  2  3  1  0
  3  4  1  0
  4  5  2  0
  5  6  1  0
  6  7  2  0
  7  8  1  0
  8  9  1  0
  9 10  1  0
 10 11  2  0
 11 12  1  0
 12 13  2  0
 13 14  1  0
 10 15  1  0
 14 15  2  0
  7 16  1  0
  4 17  1  0
 16 17  2  0
  2 18  1  0
 18 19  1  0
 19 20  2  0
 20 21  1  0
 21 22  2  0
 22 23  1  0
 19 24  1  0
 23 24  2  0
M  END
