pyridine_urea_3564
     RDKit          3D

 17 17  0  0  0  0  0  0  0  0999 V2000
   12.3650   -2.3180   24.6160 C   0  0  0  0  0  0  0  0  0  0  0  0
   12.0590   -0.8760   24.1790 C   0  0  0  0  0  0  0  0  0  0  0  0
   10.5930   -0.7620   23.7850 C   0  0  0  0  0  0  0  0  0  0  0  0
   10.5990   -0.7020   22.3130 C   0  0  0  0  0  0  0  0  0  0  0  0
   11.7290   -1.6470   21.9330 C   0  0  0  0  0  0  0  0  0  0  0  0
   13.0780   -0.9860   22.2210 C   0  0  0  0  0  0  0  0  0  0  0  0
   12.8980    0.3850   22.8790 C   0  0  0  0  0  0  0  0  0  0  0  0
    9.2890   -1.2190   21.8820 N   0  0  0  0  0  0  0  0  0  0  0  0
    8.4260   -0.2480   21.4140 C   0  0  0  0  0  0  0  0  0  0  0  0
    8.7700    0.9250   21.3480 O   0  0  0  0  0  0  0  0  0  0  0  0
    7.1970   -0.7220   21.0260 N   0  0  0  0  0  0  0  0  0  0  0  0
    6.4350   -0.0330   20.0680 C   0  0  0  0  0  0  0  0  0  0  0  0
    5.2480    0.6460   20.3060 C   0  0  0  0  0  0  0  0  0  0  0  0
    4.6080    1.3040   19.2570 C   0  0  0  0  0  0  0  0  0  0  0  0
    5.1830    1.2600   17.9950 C   0  0  0  0  0  0  0  0  0  0  0  0
    6.3220    0.6080   17.7380 N   0  0  0  0  0  0  0  0  0  0  0  0
    6.9110   -0.0180   18.7710 C   0  0  0  0  0  0  0  0  0  0  0  0
  1  2  3  0
  2  3  1  0
  3  4  1  0
  4  5  1  0
  5  6  1  0
  6  7  3  0
  4  8  1  0
  8  9  1  0
  9 10  2  0
  9 11  1  0
 11 12  1  0
 12 13  2  0
 13 14  1  0
 14 15  2  0
 15 16  1  0
 12 17  1  0
 16 17  2  0
M  END
