pyridine_urea_13598
     RDKit          3D

 27 29  0  0  0  0  0  0  0  0999 V2000
   13.2500   -1.5790   21.4910 C   0  0  0  0  0  0  0  0  0  0  0  0
   13.2120   -3.0220   21.9570 C   0  0  0  0  0  0  0  0  0  0  0  0
   14.0550   -3.3950   23.0930 O   0  0  0  0  0  0  0  0  0  0  0  0
   13.5220   -3.0810   24.2730 C   0  0  0  0  0  0  0  0  0  0  0  0
   13.5280   -3.5950   25.3890 O   0  0  0  0  0  0  0  0  0  0  0  0
   12.9620   -1.8990   23.7960 C   0  0  0  0  0  0  0  0  0  0  0  0
   13.6280   -1.1060   22.8980 C   0  0  0  0  0  0  0  0  0  0  0  0
   13.3280    0.1010   22.3280 N   0  0  0  0  0  0  0  0  0  0  0  0
   12.1700   -0.0100   23.0170 N   0  0  0  0  0  0  0  0  0  0  0  0
   11.3870    0.8200   22.9260 C   0  0  0  0  0  0  0  0  0  0  0  0
   11.5320    2.1530   22.9270 C   0  0  0  0  0  0  0  0  0  0  0  0
   10.3380    2.7970   22.8740 C   0  0  0  0  0  0  0  0  0  0  0  0
    9.1340    2.0820   22.8130 C   0  0  0  0  0  0  0  0  0  0  0  0
    8.9630    0.7040   22.7880 C   0  0  0  0  0  0  0  0  0  0  0  0
    7.8650   -0.0120   22.7050 N   0  0  0  0  0  0  0  0  0  0  0  0
    7.6470    0.0300   21.4100 C   0  0  0  0  0  0  0  0  0  0  0  0
    8.3080    0.8100   20.7530 O   0  0  0  0  0  0  0  0  0  0  0  0
    6.6860   -0.7570   20.9630 N   0  0  0  0  0  0  0  0  0  0  0  0
    6.1420   -0.0680   19.9620 C   0  0  0  0  0  0  0  0  0  0  0  0
    4.8310    0.6850   20.1250 C   0  0  0  0  0  0  0  0  0  0  0  0
    4.4310    1.3660   19.0030 C   0  0  0  0  0  0  0  0  0  0  0  0
    5.1870    1.3410   17.8390 C   0  0  0  0  0  0  0  0  0  0  0  0
    6.3430    0.6790   17.6680 N   0  0  0  0  0  0  0  0  0  0  0  0
    6.7780   -0.0050   18.7440 C   0  0  0  0  0  0  0  0  0  0  0  0
   10.2720    0.1050   22.8530 C   0  0  0  0  0  0  0  0  0  0  0  0
   11.8220   -1.1550   23.8870 C   0  0  0  0  0  0  0  0  0  0  0  0
   10.5720   -1.4170   24.6330 C   0  0  0  0  0  0  0  0  0  0  0  0
  1  2  1  0
  2  3  1  0
  3  4  1  0
  4  5  2  0
  4  6  1  0
  6  7  1  0
  7  8  2  0
  8  9  1  0
  9 10  1  0
 10 11  2  0
 11 12  1  0
 12 13  2  0
 13 14  1  0
 14 15  1  0
 15 16  1  0
 16 17  2  0
 16 18  1  0
 18 19  1  0
 19 20  2  0
 20 21  1  0
 21 22  2  0
 22 23  1  0
 19 24  1  0
 23 24  2  0
 10 25  1  0
 14 25  2  0
  6 26  2  0
  9 26  1  0
 26 27  1  0
M  END
