pyridine_urea_14790
     RDKit          3D

 20 21  0  0  0  0  0  0  0  0999 V2000
    8.9890    1.1490   21.2380 O   0  0  0  0  0  0  0  0  0  0  0  0
    8.5760    0.0130   21.5010 C   0  0  0  0  0  0  0  0  0  0  0  0
    9.2370   -0.8940   22.3150 N   0  0  0  0  0  0  0  0  0  0  0  0
    8.8130   -1.3900   23.5650 C   0  0  0  0  0  0  0  0  0  0  0  0
    9.0050   -0.6720   24.7460 C   0  0  0  0  0  0  0  0  0  0  0  0
    8.5790   -1.2950   25.9030 N   0  0  0  0  0  0  0  0  0  0  0  0
    7.5870   -2.3800   25.9320 C   0  0  0  0  0  0  0  0  0  0  0  0
    6.3890   -2.3660   25.6080 O   0  0  0  0  0  0  0  0  0  0  0  0
    8.0230   -3.6060   26.3930 C   0  0  0  0  0  0  0  0  0  0  0  0
    8.7680   -4.4890   25.6040 C   0  0  0  0  0  0  0  0  0  0  0  0
    9.1380   -5.7630   26.3430 C   0  0  0  0  0  0  0  0  0  0  0  0
    8.6200   -5.7020   27.6220 C   0  0  0  0  0  0  0  0  0  0  0  0
    7.6980   -4.2190   28.0640 S   0  0  0  0  0  0  0  0  0  0  0  0
    7.3830   -0.5180   21.0290 N   0  0  0  0  0  0  0  0  0  0  0  0
    6.5740    0.1160   20.0760 C   0  0  0  0  0  0  0  0  0  0  0  0
    5.3900    0.8270   20.3120 C   0  0  0  0  0  0  0  0  0  0  0  0
    4.6330    1.4600   19.3190 C   0  0  0  0  0  0  0  0  0  0  0  0
    5.1380    1.3560   17.9320 C   0  0  0  0  0  0  0  0  0  0  0  0
    6.3140    0.6320   17.7230 N   0  0  0  0  0  0  0  0  0  0  0  0
    6.9800    0.0470   18.7570 C   0  0  0  0  0  0  0  0  0  0  0  0
  1  2  2  0
  2  3  1  0
  3  4  1  0
  4  5  1  0
  5  6  1  0
  6  7  1  0
  7  8  2  0
  7  9  1  0
  9 10  2  0
 10 11  1  0
 11 12  2  0
  9 13  1  0
 12 13  1  0
  2 14  1  0
 14 15  1  0
 15 16  2  0
 16 17  1  0
 17 18  2  0
 18 19  1  0
 15 20  1  0
 19 20  2  0
M  END
