pyridine_urea_3094
     RDKit          3D

 21 22  0  0  0  0  0  0  0  0999 V2000
   14.4840   -2.7370   26.1570 C   0  0  0  0  0  0  0  0  0  0  0  0
   13.7960   -2.6540   24.9050 C   0  0  0  0  0  0  0  0  0  0  0  0
   13.5000   -1.2880   24.8040 O   0  0  0  0  0  0  0  0  0  0  0  0
   12.5190   -1.3810   24.0200 C   0  0  0  0  0  0  0  0  0  0  0  0
   12.6310   -1.3170   22.6860 C   0  0  0  0  0  0  0  0  0  0  0  0
   11.4160   -1.5030   22.0690 C   0  0  0  0  0  0  0  0  0  0  0  0
   10.0600   -1.7430   22.8390 C   0  0  0  0  0  0  0  0  0  0  0  0
    8.9990   -1.8960   22.0480 C   0  0  0  0  0  0  0  0  0  0  0  0
    9.1830   -0.8430   21.1690 N   0  0  0  0  0  0  0  0  0  0  0  0
    8.3280    0.1920   21.1790 C   0  0  0  0  0  0  0  0  0  0  0  0
    8.7800    1.5760   21.2400 O   0  0  0  0  0  0  0  0  0  0  0  0
    7.0470   -0.2520   21.0550 N   0  0  0  0  0  0  0  0  0  0  0  0
    6.3030    0.3090   20.0440 C   0  0  0  0  0  0  0  0  0  0  0  0
    5.1080    0.9740   20.1800 C   0  0  0  0  0  0  0  0  0  0  0  0
    4.4930    1.5180   19.0650 C   0  0  0  0  0  0  0  0  0  0  0  0
    5.1230    1.3640   17.8310 C   0  0  0  0  0  0  0  0  0  0  0  0
    6.2780    0.7070   17.6690 N   0  0  0  0  0  0  0  0  0  0  0  0
    6.8310    0.2000   18.7730 C   0  0  0  0  0  0  0  0  0  0  0  0
   10.0250   -1.7770   24.1890 C   0  0  0  0  0  0  0  0  0  0  0  0
   11.2860   -1.5880   24.4760 C   0  0  0  0  0  0  0  0  0  0  0  0
   11.1340   -1.5930   22.7630 Cl  0  0  0  0  0  0  0  0  0  0  0  0
  1  2  1  0
  2  3  1  0
  3  4  1  0
  4  5  2  0
  5  6  1  0
  6  7  2  0
  7  8  1  0
  8  9  1  0
  9 10  1  0
 10 11  2  0
 10 12  1  0
 12 13  1  0
 13 14  2  0
 14 15  1  0
 15 16  2  0
 16 17  1  0
 13 18  1  0
 17 18  2  0
  7 19  1  0
  4 20  1  0
 19 20  2  0
 20 21  1  0
M  END
