pyridine_urea_5289
     RDKit          3D

 19 19  0  0  0  0  0  0  0  0999 V2000
   13.0720   -2.3780   24.6520 C   0  0  0  0  0  0  0  0  0  0  0  0
   12.9450   -2.1950   23.2470 O   0  0  0  0  0  0  0  0  0  0  0  0
   12.5760   -0.9560   22.7980 C   0  0  0  0  0  0  0  0  0  0  0  0
   13.4000   -0.0520   22.7980 O   0  0  0  0  0  0  0  0  0  0  0  0
   11.2800   -0.6980   22.3310 C   0  0  0  0  0  0  0  0  0  0  0  0
   10.2400   -0.9070   23.2080 C   0  0  2  0  0  0  0  0  0  0  0  0
    8.9420   -0.9450   22.7640 N   0  0  0  0  0  0  0  0  0  0  0  0
    8.5100   -0.2030   21.6930 C   0  0  0  0  0  0  0  0  0  0  0  0
    9.0380    0.8450   21.3600 O   0  0  0  0  0  0  0  0  0  0  0  0
    7.4250   -0.7940   21.1050 N   0  0  0  0  0  0  0  0  0  0  0  0
    6.6800   -0.0920   20.1850 C   0  0  0  0  0  0  0  0  0  0  0  0
    5.5360    0.6940   20.4870 C   0  0  0  0  0  0  0  0  0  0  0  0
    4.7780    1.4410   19.3510 C   0  0  0  0  0  0  0  0  0  0  0  0
    5.2860    1.2890   18.0730 C   0  0  0  0  0  0  0  0  0  0  0  0
    6.3710    0.5320   17.8390 N   0  0  0  0  0  0  0  0  0  0  0  0
    7.0600   -0.1510   18.8450 C   0  0  0  0  0  0  0  0  0  0  0  0
   10.2600    0.2150   24.2500 C   0  0  0  0  0  0  0  0  0  0  0  0
    9.0830    0.9680   24.3540 C   0  0  0  0  0  0  0  0  0  0  0  0
   11.4150    0.9960   23.9780 C   0  0  0  0  0  0  0  0  0  0  0  0
  1  2  1  0
  2  3  1  0
  3  4  2  0
  3  5  1  0
  6  5  1  6
  6  7  1  0
  7  8  1  0
  8  9  2  0
  8 10  1  0
 10 11  1  0
 11 12  2  0
 12 13  1  0
 13 14  2  0
 14 15  1  0
 11 16  1  0
 15 16  2  0
  6 17  1  0
 17 18  1  0
 17 19  1  0
M  END
