pyridine_urea_10770
     RDKit          3D

 20 20  0  0  0  0  0  0  0  0999 V2000
   12.9100   -0.7230   22.9470 C   0  0  0  0  0  0  0  0  0  0  0  0
   11.4940   -0.6250   22.4510 C   0  0  0  0  0  0  0  0  0  0  0  0
   10.4360   -0.7740   23.3340 C   0  0  2  0  0  0  0  0  0  0  0  0
   10.5200   -1.7890   24.2900 C   0  0  0  0  0  0  0  0  0  0  0  0
   10.3320   -2.9670   24.0030 O   0  0  0  0  0  0  0  0  0  0  0  0
    9.0380   -3.3150   23.7490 C   0  0  0  0  0  0  0  0  0  0  0  0
    9.1840   -1.0540   22.5470 N   0  0  0  0  0  0  0  0  0  0  0  0
    8.5840   -0.1790   21.6410 C   0  0  0  0  0  0  0  0  0  0  0  0
    8.9920    0.9390   21.3700 O   0  0  0  0  0  0  0  0  0  0  0  0
    7.4260   -0.6790   21.0530 N   0  0  0  0  0  0  0  0  0  0  0  0
    6.6150   -0.0100   20.1070 C   0  0  0  0  0  0  0  0  0  0  0  0
    5.3410    0.7760   20.4060 C   0  0  0  0  0  0  0  0  0  0  0  0
    4.6820    1.3800   19.3470 C   0  0  0  0  0  0  0  0  0  0  0  0
    5.2010    1.2490   18.0610 C   0  0  0  0  0  0  0  0  0  0  0  0
    6.3190    0.5560   17.7710 N   0  0  0  0  0  0  0  0  0  0  0  0
    6.9850   -0.0470   18.7780 C   0  0  0  0  0  0  0  0  0  0  0  0
   10.2300    0.5500   24.1160 C   0  0  0  0  0  0  0  0  0  0  0  0
   11.0550    1.4530   24.1270 O   0  0  0  0  0  0  0  0  0  0  0  0
    8.9840    0.6160   24.8140 O   0  0  0  0  0  0  0  0  0  0  0  0
    8.9840   -0.0060   26.1010 C   0  0  0  0  0  0  0  0  0  0  0  0
  1  2  1  0
  3  2  1  6
  3  4  1  0
  4  5  1  0
  5  6  1  0
  3  7  1  0
  7  8  1  0
  8  9  2  0
  8 10  1  0
 10 11  1  0
 11 12  2  0
 12 13  1  0
 13 14  2  0
 14 15  1  0
 11 16  1  0
 15 16  2  0
  3 17  1  0
 17 18  2  0
 17 19  1  0
 19 20  1  0
M  END
