pyridine_urea_3989
     RDKit          3D

 27 29  0  0  0  0  0  0  0  0999 V2000
   13.0200   -2.6900   21.2420 C   0  0  0  0  0  0  0  0  0  0  0  0
   13.2230   -1.3880   21.7370 O   0  0  0  0  0  0  0  0  0  0  0  0
   12.2140   -1.0150   22.5880 C   0  0  0  0  0  0  0  0  0  0  0  0
   10.9280   -0.8380   22.1620 C   0  0  0  0  0  0  0  0  0  0  0  0
    9.8960   -0.4590   22.9900 C   0  0  0  0  0  0  0  0  0  0  0  0
    8.5880   -0.2900   22.5910 N   0  0  0  0  0  0  0  0  0  0  0  0
    8.1780    0.2750   21.4330 C   0  0  0  0  0  0  0  0  0  0  0  0
    8.6520    1.3110   20.9580 O   0  0  0  0  0  0  0  0  0  0  0  0
    7.1810   -0.4740   20.9290 N   0  0  0  0  0  0  0  0  0  0  0  0
    6.5100    0.1320   19.9560 C   0  0  0  0  0  0  0  0  0  0  0  0
    5.3440    0.8190   20.2570 C   0  0  0  0  0  0  0  0  0  0  0  0
    4.6090    1.5210   19.1180 C   0  0  0  0  0  0  0  0  0  0  0  0
    5.1580    1.4220   17.8670 C   0  0  0  0  0  0  0  0  0  0  0  0
    6.2900    0.7340   17.6270 N   0  0  0  0  0  0  0  0  0  0  0  0
    6.9240    0.1200   18.6500 C   0  0  0  0  0  0  0  0  0  0  0  0
   10.1590   -0.2330   24.3290 C   0  0  0  0  0  0  0  0  0  0  0  0
    9.1070    0.1690   25.1550 C   0  0  0  0  0  0  0  0  0  0  0  0
    8.4870    1.2770   24.6710 O   0  0  0  0  0  0  0  0  0  0  0  0
    8.7230   -0.4370   26.2900 N   0  0  0  0  0  0  0  0  0  0  0  0
    7.4180   -0.8290   26.3520 C   0  0  0  0  0  0  0  0  0  0  0  0
    6.8250   -0.6100   27.6890 C   0  0  0  0  0  0  0  0  0  0  0  0
    7.9410    0.1470   28.3660 C   0  0  0  0  0  0  0  0  0  0  0  0
    8.9440    0.3670   27.3980 C   0  0  0  0  0  0  0  0  0  0  0  0
   11.4470   -0.4230   24.8080 C   0  0  0  0  0  0  0  0  0  0  0  0
   12.4310   -0.8150   23.9320 C   0  0  0  0  0  0  0  0  0  0  0  0
   13.6560   -1.0270   24.4980 O   0  0  0  0  0  0  0  0  0  0  0  0
   13.6910   -2.3800   24.9690 C   0  0  0  0  0  0  0  0  0  0  0  0
  1  2  1  0
  2  3  1  0
  3  4  2  0
  4  5  1  0
  5  6  1  0
  6  7  1  0
  7  8  2  0
  7  9  1  0
  9 10  1  0
 10 11  2  0
 11 12  1  0
 12 13  2  0
 13 14  1  0
 10 15  1  0
 14 15  2  0
  5 16  2  0
 16 17  1  0
 17 18  2  0
 17 19  1  0
 19 20  1  0
 20 21  1  0
 21 22  1  0
 19 23  1  0
 22 23  1  0
 16 24  1  0
  3 25  1  0
 24 25  2  0
 25 26  1  0
 26 27  1  0
M  END
