pyridine_urea_2536
     RDKit          3D

 24 26  0  0  0  0  0  0  0  0999 V2000
   12.3700    4.8370   21.7920 C   0  0  0  0  0  0  0  0  0  0  0  0
   11.0910    4.6750   22.6150 C   0  0  0  0  0  0  0  0  0  0  0  0
   10.5150    3.4110   22.4350 C   0  0  0  0  0  0  0  0  0  0  0  0
   10.8050    2.3310   23.0450 N   0  0  0  0  0  0  0  0  0  0  0  0
   10.0120    1.4170   22.5310 C   0  0  0  0  0  0  0  0  0  0  0  0
   10.0650    0.1050   22.9560 C   0  0  1  0  0  0  0  0  0  0  0  0
    9.4960   -0.7880   22.0870 N   0  0  0  0  0  0  0  0  0  0  0  0
    8.4270   -0.2800   21.3690 C   0  0  0  0  0  0  0  0  0  0  0  0
    8.4560    0.8620   20.9480 O   0  0  0  0  0  0  0  0  0  0  0  0
    7.3300   -1.1000   21.1460 N   0  0  0  0  0  0  0  0  0  0  0  0
    6.6140   -0.3110   20.0970 C   0  0  0  0  0  0  0  0  0  0  0  0
    5.3460    0.4660   20.4180 C   0  0  0  0  0  0  0  0  0  0  0  0
    4.6740    1.2180   19.4350 C   0  0  0  0  0  0  0  0  0  0  0  0
    5.1780    1.2610   18.1230 C   0  0  0  0  0  0  0  0  0  0  0  0
    6.3930    0.5120   17.8110 N   0  0  0  0  0  0  0  0  0  0  0  0
    7.0290   -0.2200   18.7890 C   0  0  0  0  0  0  0  0  0  0  0  0
   11.6060   -0.0510   23.1220 C   0  0  0  0  0  0  0  0  0  0  0  0
   12.4640    0.8370   22.6240 C   0  0  0  0  0  0  0  0  0  0  0  0
   13.3480    0.1010   23.1020 C   0  0  0  0  0  0  0  0  0  0  0  0
   11.8750   -0.2020   23.2210 C   0  0  0  0  0  0  0  0  0  0  0  0
   11.2600   -1.2970   23.8810 C   0  0  0  0  0  0  0  0  0  0  0  0
   12.4570   -1.1030   23.8220 C   0  0  0  0  0  0  0  0  0  0  0  0
    9.1450    1.9200   21.5310 N   0  0  0  0  0  0  0  0  0  0  0  0
    9.4530    3.1460   21.4660 O   0  0  0  0  0  0  0  0  0  0  0  0
  1  2  1  0
  2  3  1  0
  3  4  2  0
  4  5  1  0
  5  6  1  0
  6  7  1  6
  7  8  1  0
  8  9  2  0
  8 10  1  0
 10 11  1  0
 11 12  2  0
 12 13  1  0
 13 14  2  0
 14 15  1  0
 11 16  1  0
 15 16  2  0
  6 17  1  0
 17 18  2  0
 18 19  1  0
 19 20  2  0
 20 21  1  0
 17 22  1  0
 21 22  2  0
  5 23  2  0
  3 24  1  0
 23 24  1  0
M  END
