pyridine_urea_7780
     RDKit          3D

 27 29  0  0  0  0  0  0  0  0999 V2000
   13.5570   -0.8520   21.8400 C   0  0  0  0  0  0  0  0  0  0  0  0
   13.8770    0.2080   22.3600 O   0  0  0  0  0  0  0  0  0  0  0  0
   12.7700    0.6590   22.8820 C   0  0  0  0  0  0  0  0  0  0  0  0
   11.9300   -0.3060   23.0420 C   0  0  0  0  0  0  0  0  0  0  0  0
   10.6870   -0.2020   23.5470 C   0  0  0  0  0  0  0  0  0  0  0  0
   10.0450    0.9540   24.0000 C   0  0  0  0  0  0  0  0  0  0  0  0
    9.4150   -0.2640   24.0330 C   0  0  0  0  0  0  0  0  0  0  0  0
    8.4330   -0.5050   22.9950 N   0  0  0  0  0  0  0  0  0  0  0  0
    8.3800    0.2490   21.8690 C   0  0  0  0  0  0  0  0  0  0  0  0
    9.2900    1.2900   21.4920 O   0  0  0  0  0  0  0  0  0  0  0  0
    7.3770   -0.0050   21.0880 N   0  0  0  0  0  0  0  0  0  0  0  0
    6.6020    0.3440   20.0500 C   0  0  0  0  0  0  0  0  0  0  0  0
    5.4230    1.0520   20.2560 C   0  0  0  0  0  0  0  0  0  0  0  0
    4.6580    1.4480   19.1920 C   0  0  0  0  0  0  0  0  0  0  0  0
    5.0560    1.1450   17.9140 C   0  0  0  0  0  0  0  0  0  0  0  0
    6.1740    0.4490   17.6630 N   0  0  0  0  0  0  0  0  0  0  0  0
    6.8940    0.0780   18.7320 C   0  0  0  0  0  0  0  0  0  0  0  0
   10.6090   -1.1240   23.6090 C   0  0  0  0  0  0  0  0  0  0  0  0
   10.4610   -1.6920   22.3630 C   0  0  0  0  0  0  0  0  0  0  0  0
   11.4860   -2.4480   21.8920 C   0  0  0  0  0  0  0  0  0  0  0  0
   12.6470   -2.6590   22.6340 C   0  0  0  0  0  0  0  0  0  0  0  0
   13.4630   -3.3220   22.1020 O   0  0  0  0  0  0  0  0  0  0  0  0
   13.3960   -3.0330   20.7340 C   0  0  0  0  0  0  0  0  0  0  0  0
   12.7910   -2.0970   23.8960 C   0  0  0  0  0  0  0  0  0  0  0  0
   11.7630   -1.3150   24.3930 C   0  0  0  0  0  0  0  0  0  0  0  0
   11.0680    1.9590   23.7780 C   0  0  0  0  0  0  0  0  0  0  0  0
   12.3640    1.8520   23.2520 C   0  0  0  0  0  0  0  0  0  0  0  0
  1  2  1  0
  2  3  1  0
  3  4  2  0
  4  5  1  0
  5  6  2  0
  6  7  1  0
  7  8  1  0
  8  9  1  0
  9 10  2  0
  9 11  1  0
 11 12  1  0
 12 13  2  0
 13 14  1  0
 14 15  2  0
 15 16  1  0
 12 17  1  0
 16 17  2  0
  7 18  1  0
 18 19  2  0
 19 20  1  0
 20 21  2  0
 21 22  1  0
 22 23  1  0
 21 24  1  0
 18 25  1  0
 24 25  2  0
  6 26  1  0
  3 27  1  0
 26 27  2  0
M  END
