pyridine_urea_12606
     RDKit          3D

 21 22  0  0  0  0  0  0  0  0999 V2000
   12.9330   -1.2230   21.9230 C   0  0  0  0  0  0  0  0  0  0  0  0
   11.6420   -1.9560   21.5290 C   0  0  0  0  0  0  0  0  0  0  0  0
   10.4010   -1.0200   21.7990 C   0  0  1  0  0  0  0  0  0  0  0  0
    9.0810   -1.4260   21.4600 N   0  0  0  0  0  0  0  0  0  0  0  0
    8.2160   -0.4060   21.2430 C   0  0  0  0  0  0  0  0  0  0  0  0
    8.5830    0.7630   21.2770 O   0  0  0  0  0  0  0  0  0  0  0  0
    6.8860   -0.8480   20.9580 N   0  0  0  0  0  0  0  0  0  0  0  0
    6.2630   -0.1050   20.0080 C   0  0  0  0  0  0  0  0  0  0  0  0
    5.0730    0.5630   20.2900 C   0  0  0  0  0  0  0  0  0  0  0  0
    4.4670    1.3800   19.1730 C   0  0  0  0  0  0  0  0  0  0  0  0
    5.1900    1.4060   17.8560 C   0  0  0  0  0  0  0  0  0  0  0  0
    6.3330    0.7170   17.6840 N   0  0  0  0  0  0  0  0  0  0  0  0
    6.8240    0.0010   18.7340 C   0  0  0  0  0  0  0  0  0  0  0  0
   10.4140   -0.7540   23.1740 C   0  0  0  0  0  0  0  0  0  0  0  0
    9.4420   -0.5090   24.2460 C   0  0  0  0  0  0  0  0  0  0  0  0
   10.3950   -0.3090   25.5080 C   0  0  0  0  0  0  0  0  0  0  0  0
    9.7600   -0.0240   26.7450 C   0  0  0  0  0  0  0  0  0  0  0  0
   12.0900   -0.4090   25.4030 C   0  0  0  0  0  0  0  0  0  0  0  0
   12.5370   -0.6470   24.1800 C   0  0  0  0  0  0  0  0  0  0  0  0
   11.3170   -0.6400   23.9690 C   0  0  0  0  0  0  0  0  0  0  0  0
   10.7000   -0.4060   25.1690 C   0  0  0  0  0  0  0  0  0  0  0  0
  1  2  1  0
  3  2  1  1
  3  4  1  0
  4  5  1  0
  5  6  2  0
  5  7  1  0
  7  8  1  0
  8  9  2  0
  9 10  1  0
 10 11  2  0
 11 12  1  0
  8 13  1  0
 12 13  2  0
  3 14  1  0
 14 15  2  0
 15 16  1  0
 16 17  1  0
 16 18  2  0
 18 19  1  0
 14 20  1  0
 19 20  2  0
 20 21  1  0
M  END
