pyridine_urea_13357
     RDKit          3D

 20 20  0  0  0  0  0  0  0  0999 V2000
   12.6020    1.9010   23.0530 C   0  0  0  0  0  0  0  0  0  0  0  0
   11.8130    0.9350   23.8780 C   0  0  0  0  0  0  0  0  0  0  0  0
   12.4480   -0.2010   24.3760 C   0  0  0  0  0  0  0  0  0  0  0  0
   10.6000    0.5350   23.0140 C   0  0  0  0  0  0  0  0  0  0  0  0
   10.2050   -0.7770   23.0390 C   0  0  2  0  0  0  0  0  0  0  0  0
   11.0280   -1.8640   22.2970 C   0  0  0  0  0  0  0  0  0  0  0  0
   12.7290   -1.5650   22.1430 S   0  0  0  0  0  0  0  0  0  0  0  0
   13.1780   -2.5030   23.6710 C   0  0  0  0  0  0  0  0  0  0  0  0
   13.1960   -2.3120   20.9940 O   0  0  0  0  0  0  0  0  0  0  0  0
   13.0140   -0.1530   22.2530 O   0  0  0  0  0  0  0  0  0  0  0  0
    8.8570   -0.9890   22.6580 N   0  0  0  0  0  0  0  0  0  0  0  0
    8.4260   -0.1260   21.6440 C   0  0  0  0  0  0  0  0  0  0  0  0
    9.0510    1.1300   21.3020 O   0  0  0  0  0  0  0  0  0  0  0  0
    7.3010   -0.6340   21.0310 N   0  0  0  0  0  0  0  0  0  0  0  0
    6.5230    0.0360   20.0710 C   0  0  0  0  0  0  0  0  0  0  0  0
    5.3610    0.7490   20.3210 C   0  0  0  0  0  0  0  0  0  0  0  0
    4.6710    1.3920   19.2930 C   0  0  0  0  0  0  0  0  0  0  0  0
    5.1890    1.2940   18.0060 C   0  0  0  0  0  0  0  0  0  0  0  0
    6.3080    0.6060   17.7270 N   0  0  0  0  0  0  0  0  0  0  0  0
    6.9400   -0.0010   18.7550 C   0  0  0  0  0  0  0  0  0  0  0  0
  1  2  1  0
  2  3  1  0
  2  4  1  0
  5  4  1  6
  5  6  1  0
  7  6  1  0
  7  8  1  0
  7  9  2  0
  7 10  2  0
  5 11  1  0
 11 12  1  0
 12 13  2  0
 12 14  1  0
 14 15  1  0
 15 16  2  0
 16 17  1  0
 17 18  2  0
 18 19  1  0
 15 20  1  0
 19 20  2  0
M  END
