pyridine_urea_2285
     RDKit          3D

 26 28  0  0  0  0  0  0  0  0999 V2000
    9.7890    0.0250   24.7940 C   0  0  0  0  0  0  0  0  0  0  0  0
   10.4910   -0.2940   23.4510 C   0  0  1  0  0  0  0  0  0  0  0  0
    9.5080   -0.7160   22.3880 N   0  0  0  0  0  0  0  0  0  0  0  0
    8.7590    0.1240   21.5570 C   0  0  0  0  0  0  0  0  0  0  0  0
    9.1120    1.2660   21.2630 O   0  0  0  0  0  0  0  0  0  0  0  0
    7.5820   -0.4680   21.1050 N   0  0  0  0  0  0  0  0  0  0  0  0
    6.7870    0.0760   20.0810 C   0  0  0  0  0  0  0  0  0  0  0  0
    5.5780    0.9010   20.4090 C   0  0  0  0  0  0  0  0  0  0  0  0
    4.7950    1.4680   19.4190 C   0  0  0  0  0  0  0  0  0  0  0  0
    5.1000    1.2950   18.0670 C   0  0  0  0  0  0  0  0  0  0  0  0
    6.2580    0.4870   17.7710 N   0  0  0  0  0  0  0  0  0  0  0  0
    7.0290   -0.0740   18.7460 C   0  0  0  0  0  0  0  0  0  0  0  0
   11.6800    0.7360   23.0880 C   0  0  0  0  0  0  0  0  0  0  0  0
   11.3770    2.0660   22.9860 C   0  0  0  0  0  0  0  0  0  0  0  0
   12.5390    1.5560   22.8340 C   0  0  0  0  0  0  0  0  0  0  0  0
   11.5470    0.4060   23.1710 C   0  0  0  0  0  0  0  0  0  0  0  0
   10.1500    0.7750   23.3970 O   0  0  0  0  0  0  0  0  0  0  0  0
    9.8810    2.2210   23.2210 C   0  0  0  0  0  0  0  0  0  0  0  0
    8.5110    2.3850   23.4440 C   0  0  0  0  0  0  0  0  0  0  0  0
    7.5900    1.3470   23.5790 C   0  0  0  0  0  0  0  0  0  0  0  0
    6.2520    1.5960   23.7950 C   0  0  0  0  0  0  0  0  0  0  0  0
    5.8180    2.8910   23.8810 C   0  0  0  0  0  0  0  0  0  0  0  0
    6.6250    3.9640   23.7650 N   0  0  0  0  0  0  0  0  0  0  0  0
    7.9600    3.6860   23.5470 C   0  0  0  0  0  0  0  0  0  0  0  0
   12.2820   -0.8100   23.1810 C   0  0  0  0  0  0  0  0  0  0  0  0
   13.0160    0.1010   22.9100 C   0  0  0  0  0  0  0  0  0  0  0  0
  2  1  1  1
  2  3  1  0
  3  4  1  0
  4  5  2  0
  4  6  1  0
  6  7  1  0
  7  8  2  0
  8  9  1  0
  9 10  2  0
 10 11  1  0
  7 12  1  0
 11 12  2  0
  2 13  1  0
 13 14  2  0
 14 15  1  0
 15 16  2  0
 16 17  1  0
 17 18  1  0
 18 19  1  0
 19 20  2  0
 20 21  1  0
 21 22  2  0
 22 23  1  0
 19 24  1  0
 23 24  2  0
 16 25  1  0
 13 26  1  0
 25 26  2  0
M  END
