pyridine_urea_3726
     RDKit          3D

 22 23  0  0  0  0  0  0  0  0999 V2000
   13.8750   -2.3660   25.6240 C   0  0  0  0  0  0  0  0  0  0  0  0
   13.0520   -2.6500   24.0570 S   0  0  0  0  0  0  0  0  0  0  0  0
   13.9790   -3.0110   23.0370 O   0  0  0  0  0  0  0  0  0  0  0  0
   11.9550   -3.5020   24.4210 O   0  0  0  0  0  0  0  0  0  0  0  0
   12.1670   -1.1540   23.5390 C   0  0  0  0  0  0  0  0  0  0  0  0
   12.7540    0.2400   23.4440 C   0  0  0  0  0  0  0  0  0  0  0  0
   11.8070    1.3420   23.0270 C   0  0  0  0  0  0  0  0  0  0  0  0
   12.0950    2.8430   22.8610 C   0  0  0  0  0  0  0  0  0  0  0  0
   13.4720    3.2400   22.7610 N   0  0  0  0  0  0  0  0  0  0  0  0
   10.3750    0.9600   22.7280 C   0  0  0  0  0  0  0  0  0  0  0  0
    9.8200   -0.4510   22.8100 C   0  0  0  0  0  0  0  0  0  0  0  0
    8.4680   -0.7950   22.5090 N   0  0  0  0  0  0  0  0  0  0  0  0
    7.9160   -0.0780   21.4620 C   0  0  0  0  0  0  0  0  0  0  0  0
    8.3900    0.9640   21.0270 O   0  0  0  0  0  0  0  0  0  0  0  0
    6.8110   -0.6710   21.0090 N   0  0  0  0  0  0  0  0  0  0  0  0
    6.3050   -0.0200   19.9540 C   0  0  0  0  0  0  0  0  0  0  0  0
    5.1400    0.7050   20.1600 C   0  0  0  0  0  0  0  0  0  0  0  0
    4.5550    1.4180   19.1400 C   0  0  0  0  0  0  0  0  0  0  0  0
    5.1660    1.3880   17.9110 C   0  0  0  0  0  0  0  0  0  0  0  0
    6.3070    0.6870   17.6520 N   0  0  0  0  0  0  0  0  0  0  0  0
    6.9400   -0.0770   18.7220 C   0  0  0  0  0  0  0  0  0  0  0  0
   10.8680   -1.4420   23.2460 C   0  0  0  0  0  0  0  0  0  0  0  0
  2  1  1  0
  2  3  2  0
  2  4  2  0
  2  5  1  0
  5  6  2  0
  6  7  1  0
  7  8  1  0
  8  9  3  0
  7 10  2  0
 10 11  1  0
 11 12  1  0
 12 13  1  0
 13 14  2  0
 13 15  1  0
 15 16  1  0
 16 17  2  0
 17 18  1  0
 18 19  2  0
 19 20  1  0
 16 21  1  0
 20 21  2  0
  5 22  1  0
 11 22  2  0
M  END
