pyridine_urea_9771
     RDKit          3D

 26 28  0  0  0  0  0  0  0  0999 V2000
    8.8250    1.2720   25.0900 N   0  0  0  0  0  0  0  0  0  0  0  0
   10.0250    1.7850   24.7080 C   0  0  0  0  0  0  0  0  0  0  0  0
   11.1630    0.8210   24.3090 C   0  0  0  0  0  0  0  0  0  0  0  0
   11.0370   -0.6220   24.7140 C   0  0  0  0  0  0  0  0  0  0  0  0
   12.1240   -1.5860   24.2900 C   0  0  0  0  0  0  0  0  0  0  0  0
   12.0300   -3.1980   24.6800 Cl  0  0  0  0  0  0  0  0  0  0  0  0
   13.3170   -1.1260   23.4880 C   0  0  0  0  0  0  0  0  0  0  0  0
   13.4650    0.3150   23.0820 C   0  0  0  0  0  0  0  0  0  0  0  0
   12.4120    1.2800   23.4910 C   0  0  0  0  0  0  0  0  0  0  0  0
   12.6300    2.8400   22.9560 S   0  0  0  0  0  0  0  0  0  0  0  0
   11.5650    1.5970   22.7320 C   0  0  0  0  0  0  0  0  0  0  0  0
   10.2380    1.8110   22.8130 C   0  0  0  0  0  0  0  0  0  0  0  0
    9.3880    0.7750   22.6300 C   0  0  0  0  0  0  0  0  0  0  0  0
    9.7910   -0.5170   22.3540 C   0  0  0  0  0  0  0  0  0  0  0  0
    8.7060   -1.3930   22.1560 N   0  0  0  0  0  0  0  0  0  0  0  0
    7.8520   -0.6420   21.2630 C   0  0  0  0  0  0  0  0  0  0  0  0
    8.2260    0.4590   20.8780 O   0  0  0  0  0  0  0  0  0  0  0  0
    6.6850   -1.1360   20.8890 N   0  0  0  0  0  0  0  0  0  0  0  0
    6.1250   -0.3050   19.9890 C   0  0  0  0  0  0  0  0  0  0  0  0
    4.9770    0.4580   20.1650 C   0  0  0  0  0  0  0  0  0  0  0  0
    4.4660    1.3470   19.0920 C   0  0  0  0  0  0  0  0  0  0  0  0
    5.1970    1.3710   17.9170 C   0  0  0  0  0  0  0  0  0  0  0  0
    6.3140    0.6290   17.7410 N   0  0  0  0  0  0  0  0  0  0  0  0
    6.7440   -0.1710   18.7530 C   0  0  0  0  0  0  0  0  0  0  0  0
   11.2870   -0.7770   22.2780 C   0  0  0  0  0  0  0  0  0  0  0  0
   12.1150    0.3110   22.4770 C   0  0  0  0  0  0  0  0  0  0  0  0
  1  2  3  0
  2  3  1  0
  3  4  2  0
  4  5  1  0
  5  6  1  0
  5  7  2  0
  7  8  1  0
  3  9  1  0
  8  9  2  0
  9 10  1  0
 10 11  1  0
 11 12  2  0
 12 13  1  0
 13 14  2  0
 14 15  1  0
 15 16  1  0
 16 17  2  0
 16 18  1  0
 18 19  1  0
 19 20  2  0
 20 21  1  0
 21 22  2  0
 22 23  1  0
 19 24  1  0
 23 24  2  0
 14 25  1  0
 11 26  1  0
 25 26  2  0
M  END
