pyridine_urea_1243
     RDKit          3D

 21 22  0  0  0  0  0  0  0  0999 V2000
   11.7780    6.5860   24.4530 C   0  0  0  0  0  0  0  0  0  0  0  0
   11.2910    5.2030   23.9450 C   0  0  0  0  0  0  0  0  0  0  0  0
   12.3360    4.3700   23.2030 C   0  0  0  0  0  0  0  0  0  0  0  0
   12.0310    3.1150   22.7040 C   0  0  0  0  0  0  0  0  0  0  0  0
   10.7740    2.5310   22.8330 C   0  0  0  0  0  0  0  0  0  0  0  0
   10.5660    1.4100   22.3610 O   0  0  0  0  0  0  0  0  0  0  0  0
   10.7320    0.2230   23.1450 C   0  0  0  0  0  0  0  0  0  0  0  0
   10.4070   -0.9760   22.5560 C   0  0  0  0  0  0  0  0  0  0  0  0
    9.0720   -1.0880   22.1420 N   0  0  0  0  0  0  0  0  0  0  0  0
    8.3940   -0.1100   21.4370 C   0  0  0  0  0  0  0  0  0  0  0  0
    8.9110    1.2030   21.1270 O   0  0  0  0  0  0  0  0  0  0  0  0
    7.1420   -0.5470   21.0540 N   0  0  0  0  0  0  0  0  0  0  0  0
    6.4550    0.0740   20.0340 C   0  0  0  0  0  0  0  0  0  0  0  0
    5.2790    0.7650   20.3360 C   0  0  0  0  0  0  0  0  0  0  0  0
    4.5860    1.4180   19.3070 C   0  0  0  0  0  0  0  0  0  0  0  0
    5.1620    1.3260   17.9310 C   0  0  0  0  0  0  0  0  0  0  0  0
    6.2830    0.6470   17.6820 N   0  0  0  0  0  0  0  0  0  0  0  0
    6.8920    0.0460   18.7220 C   0  0  0  0  0  0  0  0  0  0  0  0
    9.7540    3.2380   23.5040 C   0  0  0  0  0  0  0  0  0  0  0  0
    8.4720    2.7870   23.7050 C   0  0  0  0  0  0  0  0  0  0  0  0
   10.0200    4.6360   24.0900 C   0  0  0  0  0  0  0  0  0  0  0  0
  1  2  1  0
  2  3  2  0
  3  4  1  0
  4  5  2  0
  5  6  1  0
  6  7  1  0
  7  8  1  0
  8  9  1  0
  9 10  1  0
 10 11  2  0
 10 12  1  0
 12 13  1  0
 13 14  2  0
 14 15  1  0
 15 16  2  0
 16 17  1  0
 13 18  1  0
 17 18  2  0
  5 19  1  0
 19 20  1  0
  2 21  1  0
 19 21  2  0
M  END
