pyridine_urea_6191
     RDKit          3D

 24 26  0  0  0  0  0  0  0  0999 V2000
   -1.5850    1.3890   24.2950 N   0  0  0  0  0  0  0  0  0  0  0  0
   -0.5020    1.2780   23.8930 C   0  0  0  0  0  0  0  0  0  0  0  0
    0.6150    1.1570   23.4730 C   0  0  0  0  0  0  0  0  0  0  0  0
    1.8670    1.3010   22.5660 C   0  0  0  0  0  0  0  0  0  0  0  0
    3.1880    0.6610   22.8390 C   0  0  0  0  0  0  0  0  0  0  0  0
    3.4610   -0.1310   23.9190 C   0  0  0  0  0  0  0  0  0  0  0  0
    4.7870   -0.8350   24.2910 C   0  0  0  0  0  0  0  0  0  0  0  0
    5.8850   -0.2220   23.7780 N   0  0  0  0  0  0  0  0  0  0  0  0
    7.0950   -0.8340   24.0910 C   0  0  0  0  0  0  0  0  0  0  0  0
    8.3360   -0.4690   23.7350 C   0  0  0  0  0  0  0  0  0  0  0  0
    8.8420   -0.7470   22.5120 N   0  0  0  0  0  0  0  0  0  0  0  0
    8.3550   -0.0180   21.4690 C   0  0  0  0  0  0  0  0  0  0  0  0
    8.8830    1.0680   21.1650 O   0  0  0  0  0  0  0  0  0  0  0  0
    7.2880   -0.6430   20.9110 N   0  0  0  0  0  0  0  0  0  0  0  0
    6.5490    0.0480   20.0150 C   0  0  0  0  0  0  0  0  0  0  0  0
    5.3980    0.7710   20.3380 C   0  0  0  0  0  0  0  0  0  0  0  0
    4.7080    1.4570   19.3430 C   0  0  0  0  0  0  0  0  0  0  0  0
    5.1860    1.4370   17.9160 C   0  0  0  0  0  0  0  0  0  0  0  0
    6.3700    0.6700   17.6700 N   0  0  0  0  0  0  0  0  0  0  0  0
    7.0350   -0.0020   18.6450 C   0  0  0  0  0  0  0  0  0  0  0  0
    6.8040   -2.1000   24.9840 C   0  0  0  0  0  0  0  0  0  0  0  0
    5.1090   -2.2990   25.2680 S   0  0  0  0  0  0  0  0  0  0  0  0
    2.3920   -0.3140   24.7880 C   0  0  0  0  0  0  0  0  0  0  0  0
    1.1240    0.2390   24.6200 C   0  0  0  0  0  0  0  0  0  0  0  0
  1  2  3  0
  2  3  1  0
  3  4  2  0
  4  5  1  0
  5  6  2  0
  6  7  1  0
  7  8  2  0
  8  9  1  0
  9 10  1  0
 10 11  1  0
 11 12  1  0
 12 13  2  0
 12 14  1  0
 14 15  1  0
 15 16  2  0
 16 17  1  0
 17 18  2  0
 18 19  1  0
 15 20  1  0
 19 20  2  0
  9 21  2  0
  7 22  1  0
 21 22  1  0
  6 23  1  0
  3 24  1  0
 23 24  2  0
M  END
