pyridine_urea_7932
     RDKit          3D

 25 26  0  0  0  0  0  0  0  0999 V2000
    8.6430    1.0690   20.9840 O   0  0  0  0  0  0  0  0  0  0  0  0
    8.1610   -0.0270   21.2960 C   0  0  0  0  0  0  0  0  0  0  0  0
    8.6610   -0.8310   22.2410 N   0  0  0  0  0  0  0  0  0  0  0  0
    9.1660   -0.2470   23.3740 C   0  0  0  0  0  0  0  0  0  0  0  0
   10.1440    0.7040   23.1480 C   0  0  0  0  0  0  0  0  0  0  0  0
   10.5290   -0.6430   23.2460 C   0  0  0  0  0  0  0  0  0  0  0  0
   11.7120   -1.2660   23.1740 C   0  0  0  0  0  0  0  0  0  0  0  0
   12.8960   -0.6870   22.9860 C   0  0  0  0  0  0  0  0  0  0  0  0
   13.8370   -1.4050   22.9690 O   0  0  0  0  0  0  0  0  0  0  0  0
   13.6430   -2.5250   23.7520 C   0  0  0  0  0  0  0  0  0  0  0  0
   12.4130   -2.9990   23.5030 F   0  0  0  0  0  0  0  0  0  0  0  0
   13.6900   -2.2250   25.0650 F   0  0  0  0  0  0  0  0  0  0  0  0
   12.7360    0.7930   22.8460 C   0  0  0  0  0  0  0  0  0  0  0  0
   11.4350    1.3090   22.9280 C   0  0  0  0  0  0  0  0  0  0  0  0
   11.3310    2.7610   22.7710 O   0  0  0  0  0  0  0  0  0  0  0  0
   12.4920    3.5790   22.6560 C   0  0  0  0  0  0  0  0  0  0  0  0
   12.4970    4.1870   21.4400 F   0  0  0  0  0  0  0  0  0  0  0  0
   12.3290    4.5940   23.5420 F   0  0  0  0  0  0  0  0  0  0  0  0
    7.0390   -0.5930   20.7910 N   0  0  0  0  0  0  0  0  0  0  0  0
    6.3150    0.0900   19.8880 C   0  0  0  0  0  0  0  0  0  0  0  0
    5.1010    0.7240   20.1140 C   0  0  0  0  0  0  0  0  0  0  0  0
    4.5050    1.4140   19.0590 C   0  0  0  0  0  0  0  0  0  0  0  0
    5.1330    1.4490   17.8210 C   0  0  0  0  0  0  0  0  0  0  0  0
    6.3000    0.8360   17.5770 N   0  0  0  0  0  0  0  0  0  0  0  0
    6.8680    0.1580   18.6420 C   0  0  0  0  0  0  0  0  0  0  0  0
  1  2  2  0
  2  3  1  0
  3  4  1  0
  4  5  1  0
  5  6  2  0
  6  7  1  0
  7  8  2  0
  8  9  1  0
  9 10  1  0
 10 11  1  0
 10 12  1  0
  8 13  1  0
  5 14  1  0
 13 14  2  0
 14 15  1  0
 15 16  1  0
 16 17  1  0
 16 18  1  0
  2 19  1  0
 19 20  1  0
 20 21  2  0
 21 22  1  0
 22 23  2  0
 23 24  1  0
 20 25  1  0
 24 25  2  0
M  END
