pyridine_urea_10124
     RDKit          3D

 23 25  0  0  0  0  0  0  0  0999 V2000
   11.8860   -0.8180   22.4520 C   0  0  0  0  0  0  0  0  0  0  0  0
   10.4640   -0.5190   22.9100 C   0  0  2  0  0  0  0  0  0  0  0  0
    9.4480   -1.0870   22.0240 N   0  0  0  0  0  0  0  0  0  0  0  0
    8.5030   -0.1540   21.4150 C   0  0  0  0  0  0  0  0  0  0  0  0
    8.9670    1.1940   21.1690 O   0  0  0  0  0  0  0  0  0  0  0  0
    7.2410   -0.6230   21.0970 N   0  0  0  0  0  0  0  0  0  0  0  0
    6.4980    0.0490   20.0450 C   0  0  0  0  0  0  0  0  0  0  0  0
    5.3420    0.7650   20.3640 C   0  0  0  0  0  0  0  0  0  0  0  0
    4.6490    1.4260   19.3530 C   0  0  0  0  0  0  0  0  0  0  0  0
    5.1580    1.3620   17.9220 C   0  0  0  0  0  0  0  0  0  0  0  0
    6.2840    0.6420   17.6690 N   0  0  0  0  0  0  0  0  0  0  0  0
    6.9410   -0.0070   18.7220 C   0  0  0  0  0  0  0  0  0  0  0  0
   10.1490    0.9210   23.1710 C   0  0  0  0  0  0  0  0  0  0  0  0
    8.9280    1.4870   23.7030 N   0  0  0  0  0  0  0  0  0  0  0  0
    8.8090    2.8440   23.9230 N   0  0  0  0  0  0  0  0  0  0  0  0
    9.9950    3.4200   23.5520 C   0  0  0  0  0  0  0  0  0  0  0  0
   10.0600    4.8010   23.7600 C   0  0  0  0  0  0  0  0  0  0  0  0
    9.3330    5.7890   22.9170 C   0  0  0  0  0  0  0  0  0  0  0  0
    9.4530    7.1490   23.2240 C   0  0  0  0  0  0  0  0  0  0  0  0
   10.2420    7.5670   24.3060 C   0  0  0  0  0  0  0  0  0  0  0  0
   10.9260    6.6400   25.0910 C   0  0  0  0  0  0  0  0  0  0  0  0
   10.8320    5.2840   24.8190 C   0  0  0  0  0  0  0  0  0  0  0  0
   11.2350    2.3100   22.9020 S   0  0  0  0  0  0  0  0  0  0  0  0
  2  1  1  6
  2  3  1  0
  3  4  1  0
  4  5  2  0
  4  6  1  0
  6  7  1  0
  7  8  2  0
  8  9  1  0
  9 10  2  0
 10 11  1  0
  7 12  1  0
 11 12  2  0
  2 13  1  0
 13 14  2  0
 14 15  1  0
 15 16  2  0
 16 17  1  0
 17 18  2  0
 18 19  1  0
 19 20  2  0
 20 21  1  0
 17 22  1  0
 21 22  2  0
 13 23  1  0
 16 23  1  0
M  END
