pyridine_urea_245
     RDKit          3D

 29 31  0  0  0  0  0  0  0  0999 V2000
   11.7530   -2.2460   21.5570 C   0  0  0  0  0  0  0  0  0  0  0  0
   11.6380   -2.6640   22.8940 O   0  0  0  0  0  0  0  0  0  0  0  0
   10.3460   -2.3240   23.3190 C   0  0  0  0  0  0  0  0  0  0  0  0
    9.5510   -3.1030   23.8310 O   0  0  0  0  0  0  0  0  0  0  0  0
   10.0900   -0.8580   23.0440 C   0  0  2  0  0  0  0  0  0  0  0  0
   10.2210   -0.1110   24.3080 C   0  0  0  0  0  0  0  0  0  0  0  0
   10.5070    1.1820   24.0220 C   0  0  0  0  0  0  0  0  0  0  0  0
   10.1920    2.6480   24.1090 C   0  0  0  0  0  0  0  0  0  0  0  0
   11.2380    3.5820   23.3550 C   0  0  0  0  0  0  0  0  0  0  0  0
   12.4380    3.2080   22.5870 C   0  0  0  0  0  0  0  0  0  0  0  0
   12.4250    1.6990   22.6790 C   0  0  0  0  0  0  0  0  0  0  0  0
   13.0780    0.7930   22.2700 O   0  0  0  0  0  0  0  0  0  0  0  0
   13.1680   -0.3210   22.9690 C   0  0  0  0  0  0  0  0  0  0  0  0
   12.9810   -0.3700   24.2830 C   0  0  0  0  0  0  0  0  0  0  0  0
   13.1180   -1.5260   24.9900 C   0  0  0  0  0  0  0  0  0  0  0  0
   13.4560   -2.9450   24.5960 C   0  0  0  0  0  0  0  0  0  0  0  0
   13.6070   -2.6990   23.1170 C   0  0  0  0  0  0  0  0  0  0  0  0
   13.4750   -1.4550   22.3340 C   0  0  0  0  0  0  0  0  0  0  0  0
   11.4220    1.7410   23.3630 C   0  0  0  0  0  0  0  0  0  0  0  0
    8.6960   -0.8170   22.5870 N   0  0  0  0  0  0  0  0  0  0  0  0
    8.3350   -0.0020   21.5520 C   0  0  0  0  0  0  0  0  0  0  0  0
    8.9270    1.0480   21.2450 O   0  0  0  0  0  0  0  0  0  0  0  0
    7.2230   -0.5330   20.9540 N   0  0  0  0  0  0  0  0  0  0  0  0
    6.4510    0.1240   20.0010 C   0  0  0  0  0  0  0  0  0  0  0  0
    5.2800    0.8310   20.2510 C   0  0  0  0  0  0  0  0  0  0  0  0
    4.6130    1.4600   19.1970 C   0  0  0  0  0  0  0  0  0  0  0  0
    5.1570    1.3490   17.9340 C   0  0  0  0  0  0  0  0  0  0  0  0
    6.2810    0.6640   17.6700 N   0  0  0  0  0  0  0  0  0  0  0  0
    6.8950    0.0710   18.7040 C   0  0  0  0  0  0  0  0  0  0  0  0
  1  2  1  0
  2  3  1  0
  3  4  2  0
  3  5  1  0
  5  6  1  1
  6  7  1  0
  7  8  2  0
  8  9  1  0
  9 10  2  0
 10 11  1  0
 11 12  1  0
 12 13  1  0
 13 14  2  0
 14 15  1  0
 15 16  2  0
 16 17  1  0
 13 18  1  0
 17 18  2  0
  7 19  1  0
 11 19  2  0
  5 20  1  0
 20 21  1  0
 21 22  2  0
 21 23  1  0
 23 24  1  0
 24 25  2  0
 25 26  1  0
 26 27  2  0
 27 28  1  0
 24 29  1  0
 28 29  2  0
M  END
