pyridine_urea_7803
     RDKit          3D

 29 31  0  0  0  0  0  0  0  0999 V2000
    8.9750    4.1760   22.5820 C   0  0  0  0  0  0  0  0  0  0  0  0
   10.4680    4.3940   22.7760 C   0  0  0  0  0  0  0  0  0  0  0  0
   11.2580    3.2680   22.7820 C   0  0  0  0  0  0  0  0  0  0  0  0
   12.6250    3.2680   22.9480 C   0  0  0  0  0  0  0  0  0  0  0  0
   13.2250    2.1720   22.9590 O   0  0  0  0  0  0  0  0  0  0  0  0
   12.3220    1.1970   22.8410 C   0  0  0  0  0  0  0  0  0  0  0  0
   12.6900   -0.1230   22.5190 C   0  0  0  0  0  0  0  0  0  0  0  0
   11.6570   -1.0560   22.3560 C   0  0  0  0  0  0  0  0  0  0  0  0
   10.1730   -0.7140   22.5190 C   0  0  0  0  0  0  0  0  0  0  0  0
    8.9980   -1.5140   22.3270 N   0  0  0  0  0  0  0  0  0  0  0  0
    8.2530   -0.7210   21.4670 C   0  0  0  0  0  0  0  0  0  0  0  0
    8.7670    0.4780   21.0830 O   0  0  0  0  0  0  0  0  0  0  0  0
    7.0260   -1.1260   21.0190 N   0  0  0  0  0  0  0  0  0  0  0  0
    6.3300   -0.3360   20.0670 C   0  0  0  0  0  0  0  0  0  0  0  0
    5.1300    0.3450   20.2380 C   0  0  0  0  0  0  0  0  0  0  0  0
    4.5240    1.1180   19.2490 C   0  0  0  0  0  0  0  0  0  0  0  0
    5.1740    1.2050   18.0200 C   0  0  0  0  0  0  0  0  0  0  0  0
    6.3390    0.5710   17.7720 N   0  0  0  0  0  0  0  0  0  0  0  0
    6.8970   -0.1950   18.8120 C   0  0  0  0  0  0  0  0  0  0  0  0
    9.9180    0.6920   22.9030 C   0  0  0  0  0  0  0  0  0  0  0  0
    8.6510    1.2730   23.1460 C   0  0  0  0  0  0  0  0  0  0  0  0
    8.1820    2.0300   22.1160 F   0  0  0  0  0  0  0  0  0  0  0  0
    7.6700    0.3660   23.4150 F   0  0  0  0  0  0  0  0  0  0  0  0
    8.6480    2.1020   24.2260 F   0  0  0  0  0  0  0  0  0  0  0  0
   11.0510    1.6780   23.0540 C   0  0  0  0  0  0  0  0  0  0  0  0
   13.2180    4.5360   23.1070 C   0  0  0  0  0  0  0  0  0  0  0  0
   12.4170    5.7140   23.1010 C   0  0  0  0  0  0  0  0  0  0  0  0
   11.0320    5.6450   22.9410 C   0  0  0  0  0  0  0  0  0  0  0  0
   10.0440    7.0540   22.9530 Cl  0  0  0  0  0  0  0  0  0  0  0  0
  1  2  1  0
  2  3  2  0
  3  4  1  0
  4  5  1  0
  5  6  1  0
  6  7  2  0
  7  8  1  0
  8  9  2  0
  9 10  1  0
 10 11  1  0
 11 12  2  0
 11 13  1  0
 13 14  1  0
 14 15  2  0
 15 16  1  0
 16 17  2  0
 17 18  1  0
 14 19  1  0
 18 19  2  0
  9 20  1  0
 20 21  1  0
 21 22  1  0
 21 23  1  0
 21 24  1  0
  6 25  1  0
 20 25  2  0
  4 26  2  0
 26 27  1  0
  2 28  1  0
 27 28  2  0
 28 29  1  0
M  END
