pyridine_urea_10496
     RDKit          3D

 22 24  0  0  0  0  0  0  0  0999 V2000
    8.1750    1.3710   23.0250 C   0  0  0  0  0  0  0  0  0  0  0  0
    9.6660    0.9730   22.8880 C   0  0  0  0  0  0  0  0  0  0  0  0
   10.6580    2.0540   23.0140 C   0  0  0  0  0  0  0  0  0  0  0  0
   12.1180    1.7580   22.8810 C   0  0  0  0  0  0  0  0  0  0  0  0
   12.7500    3.0510   22.9780 N   0  0  0  0  0  0  0  0  0  0  0  0
   13.8750    3.6090   22.4720 C   0  0  0  0  0  0  0  0  0  0  0  0
   13.9740    4.8950   22.8470 C   0  0  0  0  0  0  0  0  0  0  0  0
   12.8710    5.1590   23.6210 C   0  0  0  0  0  0  0  0  0  0  0  0
   12.0460    4.0330   23.7430 N   0  0  0  0  0  0  0  0  0  0  0  0
   12.5400    0.4190   22.6760 C   0  0  0  0  0  0  0  0  0  0  0  0
   11.5900   -0.6410   22.5380 C   0  0  0  0  0  0  0  0  0  0  0  0
   10.1930   -0.4350   22.6040 C   0  0  0  0  0  0  0  0  0  0  0  0
    9.1680   -1.2810   22.4270 N   0  0  0  0  0  0  0  0  0  0  0  0
    8.3770   -0.5900   21.5070 C   0  0  0  0  0  0  0  0  0  0  0  0
    8.7640    0.4740   21.0590 O   0  0  0  0  0  0  0  0  0  0  0  0
    7.1890   -1.1160   21.1470 N   0  0  0  0  0  0  0  0  0  0  0  0
    6.5370   -0.3580   20.1900 C   0  0  0  0  0  0  0  0  0  0  0  0
    5.2160    0.3740   20.4640 C   0  0  0  0  0  0  0  0  0  0  0  0
    4.6990    1.0960   19.4000 C   0  0  0  0  0  0  0  0  0  0  0  0
    5.3470    1.1420   18.1730 C   0  0  0  0  0  0  0  0  0  0  0  0
    6.5020    0.5150   17.8880 N   0  0  0  0  0  0  0  0  0  0  0  0
    7.0520   -0.2090   18.9040 C   0  0  0  0  0  0  0  0  0  0  0  0
  1  2  1  0
  2  3  2  0
  3  4  1  0
  4  5  1  0
  5  6  1  0
  6  7  2  0
  7  8  1  0
  5  9  1  0
  8  9  2  0
  4 10  2  0
 10 11  1  0
  2 12  1  0
 11 12  2  0
 12 13  1  0
 13 14  1  0
 14 15  2  0
 14 16  1  0
 16 17  1  0
 17 18  2  0
 18 19  1  0
 19 20  2  0
 20 21  1  0
 17 22  1  0
 21 22  2  0
M  END
