pyridine_urea_3680
     RDKit          3D

 15 15  0  0  0  0  0  0  0  0999 V2000
   12.7650   -1.2590   24.8430 C   0  0  0  0  0  0  0  0  0  0  0  0
   11.3450   -1.2230   24.8690 O   0  0  0  0  0  0  0  0  0  0  0  0
   10.7950   -0.0840   24.2050 C   0  0  0  0  0  0  0  0  0  0  0  0
   10.5340   -0.3820   22.7370 C   0  0  1  0  0  0  0  0  0  0  0  0
   11.5080   -1.4220   22.2010 C   0  0  0  0  0  0  0  0  0  0  0  0
    9.2590   -0.7200   22.4120 N   0  0  0  0  0  0  0  0  0  0  0  0
    8.5890    0.1010   21.5100 C   0  0  0  0  0  0  0  0  0  0  0  0
    8.9920    1.2410   21.2400 O   0  0  0  0  0  0  0  0  0  0  0  0
    7.4240   -0.5140   20.9870 N   0  0  0  0  0  0  0  0  0  0  0  0
    6.5950    0.0980   20.0650 C   0  0  0  0  0  0  0  0  0  0  0  0
    5.3090    0.8660   20.3980 C   0  0  0  0  0  0  0  0  0  0  0  0
    4.6440    1.4150   19.2990 C   0  0  0  0  0  0  0  0  0  0  0  0
    5.1490    1.2500   18.0190 C   0  0  0  0  0  0  0  0  0  0  0  0
    6.2650    0.5700   17.7280 N   0  0  0  0  0  0  0  0  0  0  0  0
    6.9510    0.0180   18.7400 C   0  0  0  0  0  0  0  0  0  0  0  0
  1  2  1  0
  2  3  1  0
  3  4  1  0
  4  5  1  1
  4  6  1  0
  6  7  1  0
  7  8  2  0
  7  9  1  0
  9 10  1  0
 10 11  2  0
 11 12  1  0
 12 13  2  0
 13 14  1  0
 10 15  1  0
 14 15  2  0
M  END
