pyridine_urea_10447
     RDKit          3D

 22 23  0  0  0  0  0  0  0  0999 V2000
   12.0350   -2.3460   24.3280 C   0  0  0  0  0  0  0  0  0  0  0  0
   12.7340   -1.2700   23.7160 O   0  0  0  0  0  0  0  0  0  0  0  0
   12.0470   -0.5520   22.7730 C   0  0  2  0  0  0  0  0  0  0  0  0
   12.7410    0.8590   22.6710 C   0  0  0  0  0  0  0  0  0  0  0  0
   11.4950    1.3720   22.9370 C   0  0  0  0  0  0  0  0  0  0  0  0
   10.1640    0.9880   23.2060 C   0  0  0  0  0  0  0  0  0  0  0  0
    9.7360    2.2140   23.3030 C   0  0  0  0  0  0  0  0  0  0  0  0
   10.9340    2.9810   23.0720 C   0  0  0  0  0  0  0  0  0  0  0  0
   12.3410    2.4880   22.7840 C   0  0  0  0  0  0  0  0  0  0  0  0
   13.4340    3.8090   22.5880 Cl  0  0  0  0  0  0  0  0  0  0  0  0
   10.4620   -0.6030   23.0110 C   0  0  1  0  0  0  0  0  0  0  0  0
    9.9020    0.6500   23.0190 C   0  0  0  0  0  0  0  0  0  0  0  0
    9.6530   -1.1450   21.9220 N   0  0  0  0  0  0  0  0  0  0  0  0
    8.6490   -0.2070   21.3310 C   0  0  0  0  0  0  0  0  0  0  0  0
    8.9500    1.1720   21.0750 O   0  0  0  0  0  0  0  0  0  0  0  0
    7.4240   -0.7490   21.0320 N   0  0  0  0  0  0  0  0  0  0  0  0
    6.6510   -0.1080   20.0570 C   0  0  0  0  0  0  0  0  0  0  0  0
    5.3550    0.6180   20.3980 C   0  0  0  0  0  0  0  0  0  0  0  0
    4.6570    1.2440   19.3980 C   0  0  0  0  0  0  0  0  0  0  0  0
    5.1480    1.1980   18.1040 C   0  0  0  0  0  0  0  0  0  0  0  0
    6.2800    0.5640   17.7450 N   0  0  0  0  0  0  0  0  0  0  0  0
    6.9950   -0.0650   18.7200 C   0  0  0  0  0  0  0  0  0  0  0  0
  1  2  1  0
  3  2  1  1
  3  4  1  0
  4  5  2  0
  5  6  1  0
  6  7  2  0
  7  8  1  0
  4  9  1  0
  8  9  2  0
  9 10  1  0
  3 11  1  0
 11 12  1  6
 11 13  1  0
 13 14  1  0
 14 15  2  0
 14 16  1  0
 16 17  1  0
 17 18  2  0
 18 19  1  0
 19 20  2  0
 20 21  1  0
 17 22  1  0
 21 22  2  0
M  END
