pyridine_urea_270
     RDKit          3D

 27 28  0  0  0  0  0  0  0  0999 V2000
   10.5490    1.4320   23.3450 C   0  0  0  0  0  0  0  0  0  0  0  0
    9.6670    0.4950   23.8630 N   0  0  0  0  0  0  0  0  0  0  0  0
    8.7940    0.7800   25.0080 C   0  0  0  0  0  0  0  0  0  0  0  0
    7.6760    1.7890   24.6940 C   0  0  0  0  0  0  0  0  0  0  0  0
    6.9920    2.2220   25.9560 C   0  0  0  0  0  0  0  0  0  0  0  0
    5.7900    1.5960   26.0730 F   0  0  0  0  0  0  0  0  0  0  0  0
    7.7180    1.8440   27.0430 F   0  0  0  0  0  0  0  0  0  0  0  0
    6.8200    3.5550   26.0500 F   0  0  0  0  0  0  0  0  0  0  0  0
   10.2350   -0.7580   23.8950 C   0  0  1  0  0  0  0  0  0  0  0  0
    9.8670   -1.7520   22.7780 C   0  0  0  0  0  0  0  0  0  0  0  0
    8.5670   -1.3990   22.4960 N   0  0  0  0  0  0  0  0  0  0  0  0
    8.1510   -0.4080   21.5920 C   0  0  0  0  0  0  0  0  0  0  0  0
    8.8750    0.7950   21.3240 O   0  0  0  0  0  0  0  0  0  0  0  0
    6.9580   -0.7560   21.0140 N   0  0  0  0  0  0  0  0  0  0  0  0
    6.3850   -0.0430   19.9700 C   0  0  0  0  0  0  0  0  0  0  0  0
    5.1210    0.7360   20.2100 C   0  0  0  0  0  0  0  0  0  0  0  0
    4.5540    1.4640   19.1720 C   0  0  0  0  0  0  0  0  0  0  0  0
    5.1500    1.4740   17.9120 C   0  0  0  0  0  0  0  0  0  0  0  0
    6.3840    0.7080   17.6660 N   0  0  0  0  0  0  0  0  0  0  0  0
    6.9130    0.0010   18.7160 C   0  0  0  0  0  0  0  0  0  0  0  0
   11.6940   -0.6830   24.1430 C   0  0  0  0  0  0  0  0  0  0  0  0
   12.1220   -0.4440   25.3210 C   0  0  0  0  0  0  0  0  0  0  0  0
   12.8570   -0.7020   23.9990 C   0  0  0  0  0  0  0  0  0  0  0  0
   11.5020   -0.9060   23.1690 C   0  0  0  0  0  0  0  0  0  0  0  0
   10.5920   -1.2280   21.7640 Cl  0  0  0  0  0  0  0  0  0  0  0  0
   12.5030   -1.0630   22.3140 C   0  0  0  0  0  0  0  0  0  0  0  0
   12.9790   -0.8200   23.3740 C   0  0  0  0  0  0  0  0  0  0  0  0
  1  2  1  0
  2  3  1  0
  3  4  1  0
  4  5  1  0
  5  6  1  0
  5  7  1  0
  5  8  1  0
  2  9  1  0
  9 10  1  6
 10 11  1  0
 11 12  1  0
 12 13  2  0
 12 14  1  0
 14 15  1  0
 15 16  2  0
 16 17  1  0
 17 18  2  0
 18 19  1  0
 15 20  1  0
 19 20  2  0
  9 21  1  0
 21 22  2  0
 22 23  1  0
 23 24  2  0
 24 25  1  0
 24 26  1  0
 21 27  1  0
 26 27  2  0
M  END
