pyridine_urea_6985
     RDKit          3D

 20 21  0  0  0  0  0  0  0  0999 V2000
    8.7900    1.3380   21.0940 O   0  0  0  0  0  0  0  0  0  0  0  0
    8.5090    0.1920   21.4660 C   0  0  0  0  0  0  0  0  0  0  0  0
    9.2950   -0.4750   22.3790 N   0  0  0  0  0  0  0  0  0  0  0  0
   10.4510    0.1720   22.8810 C   0  0  0  0  0  0  0  0  0  0  0  0
   11.4630   -0.3820   23.6830 C   0  0  0  0  0  0  0  0  0  0  0  0
   12.5060   -0.9700   23.0010 C   0  0  0  0  0  0  0  0  0  0  0  0
   12.8740    0.3440   23.0760 C   0  0  0  0  0  0  0  0  0  0  0  0
   11.9910    1.1280   23.7300 C   0  0  0  0  0  0  0  0  0  0  0  0
   10.7950    0.3070   24.2290 C   0  0  0  0  0  0  0  0  0  0  0  0
    9.8280    0.9870   24.9160 F   0  0  0  0  0  0  0  0  0  0  0  0
   10.7290   -1.0990   23.9670 C   0  0  0  0  0  0  0  0  0  0  0  0
   11.6110   -2.0240   23.2730 C   0  0  0  0  0  0  0  0  0  0  0  0
   10.2780   -2.9540   23.8110 Cl  0  0  0  0  0  0  0  0  0  0  0  0
    7.4100   -0.5110   21.0330 N   0  0  0  0  0  0  0  0  0  0  0  0
    6.6190    0.0710   20.0490 C   0  0  0  0  0  0  0  0  0  0  0  0
    5.4350    0.7740   20.3330 C   0  0  0  0  0  0  0  0  0  0  0  0
    4.6410    1.4120   19.2450 C   0  0  0  0  0  0  0  0  0  0  0  0
    5.0990    1.2980   17.9370 C   0  0  0  0  0  0  0  0  0  0  0  0
    6.2740    0.5780   17.7320 N   0  0  0  0  0  0  0  0  0  0  0  0
    6.9820    0.0010   18.7200 C   0  0  0  0  0  0  0  0  0  0  0  0
  1  2  2  0
  2  3  1  0
  3  4  1  0
  4  5  1  0
  5  6  1  0
  6  7  2  0
  7  8  1  0
  8  9  2  0
  9 10  1  0
  9 11  1  0
  6 12  1  0
 11 12  2  0
 12 13  1  0
  2 14  1  0
 14 15  1  0
 15 16  2  0
 16 17  1  0
 17 18  2  0
 18 19  1  0
 15 20  1  0
 19 20  2  0
M  END
