pyridine_urea_4962
     RDKit          3D

 21 22  0  0  0  0  0  0  0  0999 V2000
   13.4230   -0.7210   22.1780 C   0  0  0  0  0  0  0  0  0  0  0  0
   13.6430    0.7100   22.7110 C   0  0  0  0  0  0  0  0  0  0  0  0
   14.8560    1.2970   22.4820 O   0  0  0  0  0  0  0  0  0  0  0  0
   12.5770    1.2690   23.3270 N   0  0  0  0  0  0  0  0  0  0  0  0
   11.6030    0.4900   23.0040 C   0  0  0  0  0  0  0  0  0  0  0  0
   10.4110    1.0530   23.2210 C   0  0  0  0  0  0  0  0  0  0  0  0
    9.2520    0.4590   22.9800 C   0  0  0  0  0  0  0  0  0  0  0  0
    9.3270   -0.8120   22.4540 C   0  0  0  0  0  0  0  0  0  0  0  0
    8.2220   -1.4370   22.1520 N   0  0  0  0  0  0  0  0  0  0  0  0
    7.5400   -0.6360   21.2730 C   0  0  0  0  0  0  0  0  0  0  0  0
    8.0350    0.4260   20.8950 O   0  0  0  0  0  0  0  0  0  0  0  0
    6.3570   -1.0300   20.8640 N   0  0  0  0  0  0  0  0  0  0  0  0
    5.9760   -0.2220   19.8680 C   0  0  0  0  0  0  0  0  0  0  0  0
    4.8540    0.5540   20.0070 C   0  0  0  0  0  0  0  0  0  0  0  0
    4.4050    1.4190   19.0250 C   0  0  0  0  0  0  0  0  0  0  0  0
    5.1620    1.4720   17.8500 C   0  0  0  0  0  0  0  0  0  0  0  0
    6.2690    0.7240   17.6730 N   0  0  0  0  0  0  0  0  0  0  0  0
    6.6580   -0.1010   18.6700 C   0  0  0  0  0  0  0  0  0  0  0  0
   10.6580   -1.4910   22.1770 C   0  0  0  0  0  0  0  0  0  0  0  0
   11.7970   -0.7890   22.4740 C   0  0  0  0  0  0  0  0  0  0  0  0
   13.2300   -1.6600   22.0960 Cl  0  0  0  0  0  0  0  0  0  0  0  0
  1  2  1  0
  2  3  2  0
  2  4  1  0
  4  5  1  0
  5  6  2  0
  6  7  1  0
  7  8  2  0
  8  9  1  0
  9 10  1  0
 10 11  2  0
 10 12  1  0
 12 13  1  0
 13 14  2  0
 14 15  1  0
 15 16  2  0
 16 17  1  0
 13 18  1  0
 17 18  2  0
  8 19  1  0
  5 20  1  0
 19 20  2  0
 20 21  1  0
M  END
