pyridine_urea_13303
     RDKit          3D

 20 21  0  0  0  0  0  0  0  0999 V2000
    9.2890    0.6850   23.2700 C   0  0  0  0  0  0  0  0  0  0  0  0
   10.5630    0.8680   22.7950 N   0  0  0  0  0  0  0  0  0  0  0  0
   11.5220   -0.1930   22.5980 C   0  0  0  0  0  0  0  0  0  0  0  0
   11.1080   -1.4770   22.3590 C   0  0  0  0  0  0  0  0  0  0  0  0
    9.7580   -1.6140   22.5450 C   0  0  0  0  0  0  0  0  0  0  0  0
    9.0900   -1.3490   21.3050 N   0  0  0  0  0  0  0  0  0  0  0  0
    8.3010   -0.2530   21.1920 C   0  0  0  0  0  0  0  0  0  0  0  0
    8.7350    0.8920   21.2250 O   0  0  0  0  0  0  0  0  0  0  0  0
    6.9980   -0.5950   21.0060 N   0  0  0  0  0  0  0  0  0  0  0  0
    6.3350    0.0650   19.9920 C   0  0  0  0  0  0  0  0  0  0  0  0
    5.1410    0.7400   20.2520 C   0  0  0  0  0  0  0  0  0  0  0  0
    4.4900    1.4700   19.0770 C   0  0  0  0  0  0  0  0  0  0  0  0
    5.1510    1.3880   17.8640 C   0  0  0  0  0  0  0  0  0  0  0  0
    6.2920    0.7190   17.6580 N   0  0  0  0  0  0  0  0  0  0  0  0
    6.8430    0.0860   18.7080 C   0  0  0  0  0  0  0  0  0  0  0  0
   12.8050    0.0920   22.6180 N   0  0  0  0  0  0  0  0  0  0  0  0
   13.3090    1.2690   22.7720 C   0  0  0  0  0  0  0  0  0  0  0  0
   12.4650    2.3570   22.8710 C   0  0  0  0  0  0  0  0  0  0  0  0
   11.1000    2.2480   22.8310 C   0  0  0  0  0  0  0  0  0  0  0  0
   10.4440    3.5130   22.8460 O   0  0  0  0  0  0  0  0  0  0  0  0
  1  2  1  0
  2  3  1  0
  3  4  1  0
  4  5  1  0
  5  6  1  0
  6  7  1  0
  7  8  2  0
  7  9  1  0
  9 10  1  0
 10 11  2  0
 11 12  1  0
 12 13  2  0
 13 14  1  0
 10 15  1  0
 14 15  2  0
  3 16  2  0
 16 17  1  0
 17 18  2  0
  2 19  1  0
 18 19  1  0
 19 20  2  0
M  END
