pyridine_urea_8411
     RDKit          3D

 22 23  0  0  0  0  0  0  0  0999 V2000
   13.4370   -2.1940   24.1770 C   0  0  0  0  0  0  0  0  0  0  0  0
   12.5640   -1.1740   23.4850 C   0  0  0  0  0  0  0  0  0  0  0  0
   11.2960   -0.6440   23.9190 C   0  0  0  0  0  0  0  0  0  0  0  0
   10.8240   -1.0930   25.0690 C   0  0  0  0  0  0  0  0  0  0  0  0
   11.9920   -1.5150   24.5890 C   0  0  0  0  0  0  0  0  0  0  0  0
   11.5660   -0.5210   23.3710 C   0  0  0  0  0  0  0  0  0  0  0  0
   10.3570    0.2100   23.2740 C   0  0  2  0  0  0  0  0  0  0  0  0
    9.5360   -0.4730   22.2540 N   0  0  0  0  0  0  0  0  0  0  0  0
    8.6580    0.2330   21.4430 C   0  0  0  0  0  0  0  0  0  0  0  0
    8.9230    1.3920   21.1330 O   0  0  0  0  0  0  0  0  0  0  0  0
    7.5260   -0.4530   21.0370 N   0  0  0  0  0  0  0  0  0  0  0  0
    6.6360    0.1200   20.1030 C   0  0  0  0  0  0  0  0  0  0  0  0
    5.4670    0.8040   20.4080 C   0  0  0  0  0  0  0  0  0  0  0  0
    4.6990    1.3440   19.3720 C   0  0  0  0  0  0  0  0  0  0  0  0
    5.1360    1.1750   18.0590 C   0  0  0  0  0  0  0  0  0  0  0  0
    6.2500    0.5100   17.7440 N   0  0  0  0  0  0  0  0  0  0  0  0
    6.9640    0.0020   18.7630 C   0  0  0  0  0  0  0  0  0  0  0  0
   10.5270    1.6810   23.3200 C   0  0  0  0  0  0  0  0  0  0  0  0
   11.8450    2.0200   23.4450 F   0  0  0  0  0  0  0  0  0  0  0  0
    9.9020    2.2080   24.4030 F   0  0  0  0  0  0  0  0  0  0  0  0
   10.0360    2.3470   22.2580 F   0  0  0  0  0  0  0  0  0  0  0  0
   12.7240   -0.5340   22.3460 C   0  0  0  0  0  0  0  0  0  0  0  0
  1  2  1  0
  2  3  2  0
  3  4  1  0
  4  5  2  0
  5  6  1  0
  6  7  1  0
  7  8  1  6
  8  9  1  0
  9 10  2  0
  9 11  1  0
 11 12  1  0
 12 13  2  0
 13 14  1  0
 14 15  2  0
 15 16  1  0
 12 17  1  0
 16 17  2  0
  7 18  1  0
 18 19  1  0
 18 20  1  0
 18 21  1  0
  2 22  1  0
  6 22  2  0
M  END
