pyridine_urea_15041
     RDKit          3D

 18 19  0  0  0  0  0  0  0  0999 V2000
   11.7540    3.3090   22.6410 C   0  0  0  0  0  0  0  0  0  0  0  0
   12.0620    1.9590   22.9530 O   0  0  0  0  0  0  0  0  0  0  0  0
   10.9440    1.0620   22.8570 C   0  0  0  0  0  0  0  0  0  0  0  0
   11.3960   -0.3800   22.9440 C   0  0  0  0  0  0  0  0  0  0  0  0
   10.2660   -1.3120   22.5420 C   0  0  0  0  0  0  0  0  0  0  0  0
    8.9670   -0.6030   22.6170 N   0  0  0  0  0  0  0  0  0  0  0  0
    8.4510    0.1240   21.5520 C   0  0  0  0  0  0  0  0  0  0  0  0
    8.9120    1.2180   21.1950 O   0  0  0  0  0  0  0  0  0  0  0  0
    7.3430   -0.5360   20.9750 N   0  0  0  0  0  0  0  0  0  0  0  0
    6.5380    0.0870   20.0470 C   0  0  0  0  0  0  0  0  0  0  0  0
    5.2460    0.8420   20.3730 C   0  0  0  0  0  0  0  0  0  0  0  0
    4.6130    1.4100   19.2660 C   0  0  0  0  0  0  0  0  0  0  0  0
    5.1510    1.2700   17.9960 C   0  0  0  0  0  0  0  0  0  0  0  0
    6.2760    0.5990   17.7140 N   0  0  0  0  0  0  0  0  0  0  0  0
    6.9360    0.0270   18.7320 C   0  0  0  0  0  0  0  0  0  0  0  0
   12.0860   -0.6760   24.0590 C   0  0  0  0  0  0  0  0  0  0  0  0
   12.9570   -1.3730   23.4900 C   0  0  0  0  0  0  0  0  0  0  0  0
   12.7860   -0.7490   22.1630 C   0  0  0  0  0  0  0  0  0  0  0  0
  1  2  1  0
  2  3  1  0
  4  3  1  0
  4  5  1  0
  5  6  1  0
  6  7  1  0
  7  8  2  0
  7  9  1  0
  9 10  1  0
 10 11  2  0
 11 12  1  0
 12 13  2  0
 13 14  1  0
 10 15  1  0
 14 15  2  0
  4 16  1  0
 16 17  1  0
  4 18  1  0
 17 18  1  0
M  END
