pyridine_urea_10284
     RDKit          3D

 23 24  0  0  0  0  0  0  0  0999 V2000
    8.8600    1.1960   21.1770 O   0  0  0  0  0  0  0  0  0  0  0  0
    8.3610    0.1130   21.5260 C   0  0  0  0  0  0  0  0  0  0  0  0
    8.8200   -0.6530   22.5670 N   0  0  0  0  0  0  0  0  0  0  0  0
   10.0130   -0.4330   23.2660 C   0  0  0  0  0  0  0  0  0  0  0  0
   10.5860    0.8390   23.3370 C   0  0  0  0  0  0  0  0  0  0  0  0
   11.5290    0.9730   24.1120 O   0  0  0  0  0  0  0  0  0  0  0  0
   12.2330   -0.2340   24.0300 C   0  0  0  0  0  0  0  0  0  0  0  0
   12.7500   -0.8140   25.1440 C   0  0  0  0  0  0  0  0  0  0  0  0
   13.4400   -2.0050   25.1240 C   0  0  0  0  0  0  0  0  0  0  0  0
   13.6390   -2.7110   23.7820 C   0  0  0  0  0  0  0  0  0  0  0  0
   13.1170   -2.1390   22.6370 C   0  0  0  0  0  0  0  0  0  0  0  0
   13.1230   -2.5210   21.3170 C   0  0  0  0  0  0  0  0  0  0  0  0
   13.6820   -3.6540   20.8960 F   0  0  0  0  0  0  0  0  0  0  0  0
   13.7030   -1.5390   20.5870 F   0  0  0  0  0  0  0  0  0  0  0  0
   11.8580   -2.6060   20.8810 F   0  0  0  0  0  0  0  0  0  0  0  0
   12.3830   -0.8330   22.7900 C   0  0  0  0  0  0  0  0  0  0  0  0
    7.2700   -0.4960   20.9640 N   0  0  0  0  0  0  0  0  0  0  0  0
    6.4820    0.1350   20.0100 C   0  0  0  0  0  0  0  0  0  0  0  0
    5.2300    0.8860   20.2770 C   0  0  0  0  0  0  0  0  0  0  0  0
    4.5840    1.4750   19.1940 C   0  0  0  0  0  0  0  0  0  0  0  0
    5.1340    1.3330   17.9250 C   0  0  0  0  0  0  0  0  0  0  0  0
    6.2590    0.6440   17.6740 N   0  0  0  0  0  0  0  0  0  0  0  0
    6.8970    0.0700   18.7010 C   0  0  0  0  0  0  0  0  0  0  0  0
  1  2  2  0
  2  3  1  0
  3  4  1  0
  4  5  1  0
  5  6  1  0
  6  7  1  0
  7  8  2  0
  8  9  1  0
  9 10  2  0
 10 11  1  0
 11 12  1  0
 12 13  1  0
 12 14  1  0
 12 15  1  0
  7 16  1  0
 11 16  2  0
  2 17  1  0
 17 18  1  0
 18 19  2  0
 19 20  1  0
 20 21  2  0
 21 22  1  0
 18 23  1  0
 22 23  2  0
M  END
