pyridine_urea_11125
     RDKit          3D

 18 18  0  0  0  0  0  0  0  0999 V2000
   12.8670   -2.0500   25.0190 C   0  0  0  0  0  0  0  0  0  0  0  0
   12.6000   -0.8690   25.0130 C   0  0  0  0  0  0  0  0  0  0  0  0
   11.1500   -0.7170   24.9470 O   0  0  0  0  0  0  0  0  0  0  0  0
   10.6180   -0.1080   23.8320 C   0  0  0  0  0  0  0  0  0  0  0  0
   10.3720   -1.1710   22.8170 C   0  0  1  0  0  0  0  0  0  0  0  0
    9.7200   -0.7550   21.5590 N   0  0  0  0  0  0  0  0  0  0  0  0
    8.6780    0.1560   21.3570 C   0  0  0  0  0  0  0  0  0  0  0  0
    8.8790    1.3710   21.3090 O   0  0  0  0  0  0  0  0  0  0  0  0
    7.4700   -0.4470   21.1520 N   0  0  0  0  0  0  0  0  0  0  0  0
    6.7230    0.0600   20.1170 C   0  0  0  0  0  0  0  0  0  0  0  0
    5.5010    0.8510   20.4260 C   0  0  0  0  0  0  0  0  0  0  0  0
    4.6460    1.4380   19.5420 C   0  0  0  0  0  0  0  0  0  0  0  0
    5.1960    1.1210   18.1680 C   0  0  0  0  0  0  0  0  0  0  0  0
    6.2770    0.4170   17.8190 N   0  0  0  0  0  0  0  0  0  0  0  0
    7.0260   -0.1090   18.7940 C   0  0  0  0  0  0  0  0  0  0  0  0
   11.7730   -1.8140   22.6130 C   0  0  0  0  0  0  0  0  0  0  0  0
   12.7270   -0.8080   22.4160 C   0  0  0  0  0  0  0  0  0  0  0  0
   12.6570   -1.9470   21.4080 C   0  0  0  0  0  0  0  0  0  0  0  0
  1  2  1  0
  2  3  1  0
  3  4  1  0
  5  4  1  1
  5  6  1  0
  6  7  1  0
  7  8  2  0
  7  9  1  0
  9 10  1  0
 10 11  2  0
 11 12  1  0
 12 13  2  0
 13 14  1  0
 10 15  1  0
 14 15  2  0
  5 16  1  0
 16 17  1  0
 16 18  1  0
M  END
