pyridine_urea_3709
     RDKit          3D

 18 19  0  0  0  0  0  0  0  0999 V2000
   10.7080   -0.1700   25.0390 C   0  0  0  0  0  0  0  0  0  0  0  0
   11.2780    0.8540   24.0610 C   0  0  1  0  0  0  0  0  0  0  0  0
   12.6320    0.3330   23.6260 C   0  0  0  0  0  0  0  0  0  0  0  0
   12.4830   -0.7970   22.6540 C   0  0  0  0  0  0  0  0  0  0  0  0
   11.0160   -0.9190   22.1970 C   0  0  1  0  0  0  0  0  0  0  0  0
   10.0080   -1.5800   23.1020 C   0  0  0  0  0  0  0  0  0  0  0  0
    8.6900   -1.5190   22.4530 N   0  0  0  0  0  0  0  0  0  0  0  0
    8.2700   -0.5130   21.5900 C   0  0  0  0  0  0  0  0  0  0  0  0
    8.8960    0.5150   21.3580 O   0  0  0  0  0  0  0  0  0  0  0  0
    6.9700   -0.8640   21.0260 N   0  0  0  0  0  0  0  0  0  0  0  0
    6.3310   -0.0930   20.0390 C   0  0  0  0  0  0  0  0  0  0  0  0
    5.1540    0.6340   20.2410 C   0  0  0  0  0  0  0  0  0  0  0  0
    4.6270    1.3550   19.1830 C   0  0  0  0  0  0  0  0  0  0  0  0
    5.2700    1.3440   17.9600 C   0  0  0  0  0  0  0  0  0  0  0  0
    6.3990    0.6530   17.7440 N   0  0  0  0  0  0  0  0  0  0  0  0
    6.8970   -0.0460   18.7810 C   0  0  0  0  0  0  0  0  0  0  0  0
   10.6330    0.1930   21.8570 O   0  0  0  0  0  0  0  0  0  0  0  0
   10.4330    1.2090   22.8650 C   0  0  0  0  0  0  0  0  0  0  0  0
  2  1  1  6
  2  3  1  0
  3  4  1  0
  4  5  1  0
  5  6  1  1
  6  7  1  0
  7  8  1  0
  8  9  2  0
  8 10  1  0
 10 11  1  0
 11 12  2  0
 12 13  1  0
 13 14  2  0
 14 15  1  0
 11 16  1  0
 15 16  2  0
  5 17  1  0
  2 18  1  0
 17 18  1  0
M  END
