pyridine_urea_14017
     RDKit          3D

 23 24  0  0  0  0  0  0  0  0999 V2000
    8.2980    1.3000   25.8830 C   0  0  0  0  0  0  0  0  0  0  0  0
    7.9560    0.2030   25.5100 C   0  0  0  0  0  0  0  0  0  0  0  0
    9.1190   -0.4070   24.8840 O   0  0  0  0  0  0  0  0  0  0  0  0
   10.2030   -0.5110   25.6900 C   0  0  0  0  0  0  0  0  0  0  0  0
   10.1920   -0.0440   26.8280 O   0  0  0  0  0  0  0  0  0  0  0  0
   11.3820   -1.2260   25.1170 N   0  0  0  0  0  0  0  0  0  0  0  0
   12.3770   -0.1960   24.8340 C   0  0  0  0  0  0  0  0  0  0  0  0
   13.0290   -0.4070   23.6630 C   0  0  0  0  0  0  0  0  0  0  0  0
   12.2630   -0.7290   22.4190 C   0  0  0  0  0  0  0  0  0  0  0  0
   11.0810   -1.5430   22.7170 C   0  0  2  0  0  0  0  0  0  0  0  0
    9.9280   -0.8800   22.6990 C   0  0  1  0  0  0  0  0  0  0  0  0
   10.6230    0.4350   22.9870 C   0  0  0  0  0  0  0  0  0  0  0  0
    9.3510   -0.8590   21.4750 N   0  0  0  0  0  0  0  0  0  0  0  0
    8.2990    0.1080   21.1770 C   0  0  0  0  0  0  0  0  0  0  0  0
    8.6260    1.3510   21.0590 O   0  0  0  0  0  0  0  0  0  0  0  0
    7.0700   -0.4150   21.0270 N   0  0  0  0  0  0  0  0  0  0  0  0
    6.4510    0.1410   19.9850 C   0  0  0  0  0  0  0  0  0  0  0  0
    5.2990    0.8690   20.2230 C   0  0  0  0  0  0  0  0  0  0  0  0
    4.3890    1.6310   19.2310 C   0  0  0  0  0  0  0  0  0  0  0  0
    5.1420    1.3380   17.9320 C   0  0  0  0  0  0  0  0  0  0  0  0
    6.2470    0.6350   17.6630 N   0  0  0  0  0  0  0  0  0  0  0  0
    6.8840    0.0400   18.7300 C   0  0  0  0  0  0  0  0  0  0  0  0
   11.1760   -2.1950   24.1220 C   0  0  0  0  0  0  0  0  0  0  0  0
  1  2  1  0
  2  3  1  0
  3  4  1  0
  4  5  2  0
  4  6  1  0
  6  7  1  0
  7  8  1  0
  8  9  1  0
 10  9  1  1
 10 11  1  0
 11 12  1  6
 11 13  1  0
 13 14  1  0
 14 15  2  0
 14 16  1  0
 16 17  1  0
 17 18  2  0
 18 19  1  0
 19 20  2  0
 20 21  1  0
 17 22  1  0
 21 22  2  0
  6 23  1  0
 10 23  1  0
M  END
