pyridine_urea_11261
     RDKit          3D

 16 17  0  0  0  0  0  0  0  0999 V2000
   12.1470    2.2540   22.8460 N   0  0  0  0  0  0  0  0  0  0  0  0
   11.7940    1.1480   22.8320 C   0  0  0  0  0  0  0  0  0  0  0  0
   11.4310    0.0050   22.8560 C   0  0  0  0  0  0  0  0  0  0  0  0
   10.4000   -1.1300   22.9550 C   0  0  0  0  0  0  0  0  0  0  0  0
    9.4490   -1.0860   21.8600 N   0  0  0  0  0  0  0  0  0  0  0  0
    8.6340   -0.0800   21.4160 C   0  0  0  0  0  0  0  0  0  0  0  0
    9.0560    1.2870   21.2880 O   0  0  0  0  0  0  0  0  0  0  0  0
    7.3800   -0.5430   21.0800 N   0  0  0  0  0  0  0  0  0  0  0  0
    6.5660    0.0690   20.1120 C   0  0  0  0  0  0  0  0  0  0  0  0
    5.2600    0.8360   20.3810 C   0  0  0  0  0  0  0  0  0  0  0  0
    4.5820    1.4190   19.2070 C   0  0  0  0  0  0  0  0  0  0  0  0
    5.1400    1.2420   18.0050 C   0  0  0  0  0  0  0  0  0  0  0  0
    6.2840    0.5600   17.7670 N   0  0  0  0  0  0  0  0  0  0  0  0
    6.9530    0.0010   18.7920 C   0  0  0  0  0  0  0  0  0  0  0  0
   12.6650   -0.6040   23.6920 C   0  0  0  0  0  0  0  0  0  0  0  0
   12.7600   -0.7140   22.4400 C   0  0  0  0  0  0  0  0  0  0  0  0
  1  2  3  0
  3  2  1  0
  3  4  1  0
  4  5  1  0
  5  6  1  0
  6  7  2  0
  6  8  1  0
  8  9  1  0
  9 10  2  0
 10 11  1  0
 11 12  2  0
 12 13  1  0
  9 14  1  0
 13 14  2  0
  3 15  1  0
  3 16  1  0
 15 16  1  0
M  END
