pyridine_urea_2171
     RDKit          3D

 30 33  0  0  0  0  0  0  0  0999 V2000
   12.0050    7.7990   26.8250 C   0  0  0  0  0  0  0  0  0  0  0  0
   11.1200    8.5400   25.9800 O   0  0  0  0  0  0  0  0  0  0  0  0
   10.3100    7.7520   25.2050 C   0  0  0  0  0  0  0  0  0  0  0  0
    9.2630    8.4400   24.3170 C   0  0  0  0  0  0  0  0  0  0  0  0
    8.4120    7.5030   23.4860 C   0  0  0  0  0  0  0  0  0  0  0  0
    8.6600    6.0330   23.6120 C   0  0  0  0  0  0  0  0  0  0  0  0
    9.6330    5.4920   24.4550 C   0  0  0  0  0  0  0  0  0  0  0  0
    9.8170    4.1150   24.5460 C   0  0  0  0  0  0  0  0  0  0  0  0
    9.8250    3.4660   23.3060 C   0  0  0  0  0  0  0  0  0  0  0  0
    8.8590    3.6790   22.5880 O   0  0  0  0  0  0  0  0  0  0  0  0
   10.9640    2.6130   23.0490 N   0  0  0  0  0  0  0  0  0  0  0  0
   12.2500    3.0200   22.7450 C   0  0  0  0  0  0  0  0  0  0  0  0
   12.9420    1.8300   23.0280 C   0  0  0  0  0  0  0  0  0  0  0  0
   12.2460    0.7060   22.8060 C   0  0  0  0  0  0  0  0  0  0  0  0
   12.6750   -0.6280   22.6030 C   0  0  0  0  0  0  0  0  0  0  0  0
   11.3960   -1.4640   22.3820 C   0  0  0  0  0  0  0  0  0  0  0  0
   10.1140   -0.8950   22.4120 C   0  0  0  0  0  0  0  0  0  0  0  0
    8.8840   -1.4780   22.2010 N   0  0  0  0  0  0  0  0  0  0  0  0
    8.0150   -0.6240   21.3790 C   0  0  0  0  0  0  0  0  0  0  0  0
    8.3400    0.4990   21.0190 O   0  0  0  0  0  0  0  0  0  0  0  0
    6.8390   -1.1490   21.0420 N   0  0  0  0  0  0  0  0  0  0  0  0
    6.2200   -0.3410   20.1550 C   0  0  0  0  0  0  0  0  0  0  0  0
    5.0590    0.3880   20.3350 C   0  0  0  0  0  0  0  0  0  0  0  0
    4.4690    1.2810   19.2440 C   0  0  0  0  0  0  0  0  0  0  0  0
    5.2130    1.3460   17.9270 C   0  0  0  0  0  0  0  0  0  0  0  0
    6.3420    0.6510   17.7130 N   0  0  0  0  0  0  0  0  0  0  0  0
    6.8410   -0.1560   18.7510 C   0  0  0  0  0  0  0  0  0  0  0  0
    9.9170    0.4470   22.6510 C   0  0  0  0  0  0  0  0  0  0  0  0
   11.0030    1.1710   22.8270 C   0  0  0  0  0  0  0  0  0  0  0  0
   10.4490    6.3510   25.2390 C   0  0  0  0  0  0  0  0  0  0  0  0
  1  2  1  0
  2  3  1  0
  3  4  2  0
  4  5  1  0
  5  6  2  0
  6  7  1  0
  7  8  1  0
  8  9  1  0
  9 10  2  0
  9 11  1  0
 11 12  1  0
 12 13  1  0
 13 14  1  0
 14 15  1  0
 15 16  2  0
 16 17  1  0
 17 18  1  0
 18 19  1  0
 19 20  2  0
 19 21  1  0
 21 22  1  0
 22 23  2  0
 23 24  1  0
 24 25  2  0
 25 26  1  0
 22 27  1  0
 26 27  2  0
 17 28  2  0
 11 29  1  0
 14 29  2  0
 28 29  1  0
  3 30  1  0
  7 30  2  0
M  END
