pyridine_urea_6195
     RDKit          3D

 24 26  0  0  0  0  0  0  0  0999 V2000
    8.7920    1.0800   21.1720 O   0  0  0  0  0  0  0  0  0  0  0  0
    8.1890    0.0410   21.4950 C   0  0  0  0  0  0  0  0  0  0  0  0
    8.5530   -0.7500   22.5450 N   0  0  0  0  0  0  0  0  0  0  0  0
    9.9480   -0.8650   22.8410 C   0  0  0  0  0  0  0  0  0  0  0  0
   10.3450    0.0540   23.9990 C   0  0  0  0  0  0  0  0  0  0  0  0
   11.2400    1.1870   23.5970 C   0  0  0  0  0  0  0  0  0  0  0  0
   11.3810    2.3750   23.5300 C   0  0  0  0  0  0  0  0  0  0  0  0
   12.7300    2.0540   22.9290 C   0  0  0  0  0  0  0  0  0  0  0  0
   11.8660    0.6790   23.3030 C   0  0  0  0  0  0  0  0  0  0  0  0
   11.5740   -0.6150   23.4230 C   0  0  0  0  0  0  0  0  0  0  0  0
   12.2940   -0.6420   24.7560 C   0  0  0  0  0  0  0  0  0  0  0  0
   12.8420   -1.8690   25.0750 C   0  0  0  0  0  0  0  0  0  0  0  0
   13.4460   -2.5390   24.0570 C   0  0  0  0  0  0  0  0  0  0  0  0
   12.5980   -2.7460   23.0240 C   0  0  0  0  0  0  0  0  0  0  0  0
   12.0750   -1.5030   22.4520 C   0  0  0  0  0  0  0  0  0  0  0  0
   13.0490   -0.2200   22.7840 C   0  0  0  0  0  0  0  0  0  0  0  0
   12.6930    1.0940   22.9520 C   0  0  0  0  0  0  0  0  0  0  0  0
    7.0820   -0.5110   20.9190 N   0  0  0  0  0  0  0  0  0  0  0  0
    6.3520    0.1510   19.9570 C   0  0  0  0  0  0  0  0  0  0  0  0
    5.1550    0.8330   20.1700 C   0  0  0  0  0  0  0  0  0  0  0  0
    4.5520    1.4670   19.0950 C   0  0  0  0  0  0  0  0  0  0  0  0
    5.1580    1.4020   17.8510 C   0  0  0  0  0  0  0  0  0  0  0  0
    6.3060    0.7380   17.6370 N   0  0  0  0  0  0  0  0  0  0  0  0
    6.8670    0.1350   18.6880 C   0  0  0  0  0  0  0  0  0  0  0  0
  1  2  2  0
  2  3  1  0
  3  4  1  0
  4  5  1  0
  5  6  1  0
  6  7  2  0
  7  8  1  0
  8  9  2  0
  9 10  1  0
 10 11  1  0
 11 12  1  0
 12 13  1  0
 13 14  1  0
 10 15  1  0
 14 15  1  0
  9 16  1  0
  6 17  1  0
 16 17  2  0
  2 18  1  0
 18 19  1  0
 19 20  2  0
 20 21  1  0
 21 22  2  0
 22 23  1  0
 19 24  1  0
 23 24  2  0
M  END
