pyridine_urea_7
     RDKit          3D

 19 21  0  0  0  0  0  0  0  0999 V2000
    8.7780    0.7370   21.3010 O   0  0  0  0  0  0  0  0  0  0  0  0
    8.2890   -0.3320   21.6510 C   0  0  0  0  0  0  0  0  0  0  0  0
    7.1090   -0.8270   21.1320 N   0  0  0  0  0  0  0  0  0  0  0  0
    6.4820   -0.1070   20.0340 C   0  0  0  0  0  0  0  0  0  0  0  0
    5.2010    0.6580   20.3650 C   0  0  0  0  0  0  0  0  0  0  0  0
    4.5970    1.3900   19.2120 C   0  0  0  0  0  0  0  0  0  0  0  0
    5.2220    1.3230   17.9830 C   0  0  0  0  0  0  0  0  0  0  0  0
    6.3520    0.6290   17.7430 N   0  0  0  0  0  0  0  0  0  0  0  0
    6.9450   -0.0570   18.7430 C   0  0  0  0  0  0  0  0  0  0  0  0
    8.8530   -1.1620   22.6100 N   0  0  0  0  0  0  0  0  0  0  0  0
   10.1800   -0.8110   23.1790 C   0  0  2  0  0  0  0  0  0  0  0  0
   10.4060    0.5030   23.1010 C   0  0  0  0  0  0  0  0  0  0  0  0
   11.3320    0.5330   24.2780 C   0  0  0  0  0  0  0  0  0  0  0  0
   12.5860   -0.1080   24.2350 C   0  0  0  0  0  0  0  0  0  0  0  0
   12.7440   -1.4240   23.8310 C   0  0  0  0  0  0  0  0  0  0  0  0
   12.5810   -1.5930   22.5190 C   0  0  0  0  0  0  0  0  0  0  0  0
   11.3200   -0.9220   22.1380 C   0  0  0  0  0  0  0  0  0  0  0  0
   13.5310   -2.4000   24.6600 C   0  0  0  0  0  0  0  0  0  0  0  0
   12.0490   -2.3630   24.6030 C   0  0  0  0  0  0  0  0  0  0  0  0
  1  2  2  0
  2  3  1  0
  3  4  1  0
  4  5  2  0
  5  6  1  0
  6  7  2  0
  7  8  1  0
  4  9  1  0
  8  9  2  0
  2 10  1  0
 11 10  1  6
 11 12  1  0
 12 13  1  0
 13 14  1  0
 15 14  1  0
 15 16  1  0
 11 17  1  0
 16 17  1  0
 15 18  1  0
 15 19  1  0
 18 19  1  0
M  END
