pyridine_urea_12581
     RDKit          3D

 21 22  0  0  0  0  0  0  0  0999 V2000
    8.8060    1.2610   21.0980 O   0  0  0  0  0  0  0  0  0  0  0  0
    8.2550    0.2260   21.4960 C   0  0  0  0  0  0  0  0  0  0  0  0
    8.6400   -0.4300   22.6090 N   0  0  0  0  0  0  0  0  0  0  0  0
    9.5470    0.2420   23.4910 C   0  0  0  0  0  0  0  0  0  0  0  0
   10.4390   -0.8000   24.1680 C   0  0  1  0  0  0  0  0  0  0  0  0
   10.7110   -1.9090   23.3660 C   0  0  0  0  0  0  0  0  0  0  0  0
   11.5540   -1.5810   22.1210 C   0  0  0  0  0  0  0  0  0  0  0  0
   12.6670   -0.8080   22.4300 C   0  0  0  0  0  0  0  0  0  0  0  0
   12.9160   -0.8560   23.9200 C   0  0  2  0  0  0  0  0  0  0  0  0
   13.2490   -2.2650   24.4010 C   0  0  0  0  0  0  0  0  0  0  0  0
   12.1550   -3.0170   24.6730 F   0  0  0  0  0  0  0  0  0  0  0  0
   13.9750   -2.3270   25.5430 F   0  0  0  0  0  0  0  0  0  0  0  0
   13.9180   -2.9590   23.4590 F   0  0  0  0  0  0  0  0  0  0  0  0
   11.7530   -0.2070   24.5510 C   0  0  0  0  0  0  0  0  0  0  0  0
    7.1940   -0.4280   20.9460 N   0  0  0  0  0  0  0  0  0  0  0  0
    6.5110    0.1540   19.9420 C   0  0  0  0  0  0  0  0  0  0  0  0
    5.2310    0.9270   20.2810 C   0  0  0  0  0  0  0  0  0  0  0  0
    4.5450    1.5790   19.0850 C   0  0  0  0  0  0  0  0  0  0  0  0
    5.1070    1.4290   17.8350 C   0  0  0  0  0  0  0  0  0  0  0  0
    6.2400    0.7110   17.6330 N   0  0  0  0  0  0  0  0  0  0  0  0
    6.9280    0.0880   18.6470 C   0  0  0  0  0  0  0  0  0  0  0  0
  1  2  2  0
  2  3  1  0
  3  4  1  0
  5  4  1  6
  5  6  1  0
  6  7  1  0
  7  8  1  0
  8  9  1  0
  9 10  1  1
 10 11  1  0
 10 12  1  0
 10 13  1  0
  5 14  1  0
  9 14  1  0
  2 15  1  0
 15 16  1  0
 16 17  2  0
 17 18  1  0
 18 19  2  0
 19 20  1  0
 16 21  1  0
 20 21  2  0
M  END
