pyridine_urea_9675
     RDKit          3D

 26 28  0  0  0  0  0  0  0  0999 V2000
    8.4360   -1.0630   20.2510 O   0  0  0  0  0  0  0  0  0  0  0  0
    8.0040   -0.7640   21.2970 C   0  0  0  0  0  0  0  0  0  0  0  0
    8.7620   -0.9350   22.4240 N   0  0  0  0  0  0  0  0  0  0  0  0
   10.1160   -1.2420   21.9980 C   0  0  0  0  0  0  0  0  0  0  0  0
   11.2540   -1.0620   22.9760 C   0  0  0  0  0  0  0  0  0  0  0  0
   11.9050    0.3250   22.9540 C   0  0  0  0  0  0  0  0  0  0  0  0
   13.2640    0.3020   22.9180 C   0  0  0  0  0  0  0  0  0  0  0  0
   12.3990    1.5660   22.9300 C   0  0  0  0  0  0  0  0  0  0  0  0
   10.7230    1.5820   22.9870 C   0  0  0  0  0  0  0  0  0  0  0  0
    9.6260    0.6340   23.0570 N   0  0  0  0  0  0  0  0  0  0  0  0
    8.4040    1.1650   22.7000 O   0  0  0  0  0  0  0  0  0  0  0  0
    9.7170   -0.1990   23.9520 O   0  0  0  0  0  0  0  0  0  0  0  0
   10.6770    2.8680   22.9590 C   0  0  0  0  0  0  0  0  0  0  0  0
   11.5730    1.7820   22.9460 C   0  0  0  0  0  0  0  0  0  0  0  0
   12.3600   -1.9720   22.4450 C   0  0  0  0  0  0  0  0  0  0  0  0
   13.3520   -1.9770   23.4390 C   0  0  0  0  0  0  0  0  0  0  0  0
   12.9260   -2.6000   24.5880 C   0  0  0  0  0  0  0  0  0  0  0  0
   11.5320   -2.9450   24.3070 C   0  0  0  0  0  0  0  0  0  0  0  0
   10.8450   -1.7570   24.2930 C   0  0  0  0  0  0  0  0  0  0  0  0
    6.7420   -0.2510   21.3520 N   0  0  0  0  0  0  0  0  0  0  0  0
    6.2140    0.2710   20.2140 C   0  0  0  0  0  0  0  0  0  0  0  0
    5.0280    0.9930   20.2930 C   0  0  0  0  0  0  0  0  0  0  0  0
    4.4890    1.5420   19.1470 C   0  0  0  0  0  0  0  0  0  0  0  0
    5.1500    1.3560   17.9410 C   0  0  0  0  0  0  0  0  0  0  0  0
    6.2890    0.6640   17.8080 N   0  0  0  0  0  0  0  0  0  0  0  0
    6.7920    0.1360   18.9440 C   0  0  0  0  0  0  0  0  0  0  0  0
  1  2  2  0
  2  3  1  0
  3  4  1  0
  5  4  1  0
  5  6  1  0
  6  7  2  0
  7  8  1  0
  8  9  2  0
  9 10  1  0
 10 11  2  0
 10 12  1  0
  9 13  1  0
  6 14  1  0
 13 14  2  0
  5 15  1  0
 15 16  1  0
 16 17  1  0
 17 18  1  0
  5 19  1  0
 18 19  1  0
  2 20  1  0
 20 21  1  0
 21 22  2  0
 22 23  1  0
 23 24  2  0
 24 25  1  0
 21 26  1  0
 25 26  2  0
M  CHG  2  10   1  12  -1
M  END
