pyridine_urea_11366
     RDKit          3D

 17 18  0  0  0  0  0  0  0  0999 V2000
   12.6740   -2.2290   21.2260 C   0  0  0  0  0  0  0  0  0  0  0  0
   11.6520   -1.9250   21.7700 C   0  0  0  0  0  0  0  0  0  0  0  0
   10.3790   -1.5240   22.4970 C   0  0  2  0  0  0  0  0  0  0  0  0
    9.4370   -1.2130   21.3720 N   0  0  0  0  0  0  0  0  0  0  0  0
    8.4660   -0.0930   21.4730 C   0  0  0  0  0  0  0  0  0  0  0  0
    8.8600    1.2650   21.6260 O   0  0  0  0  0  0  0  0  0  0  0  0
    7.1620   -0.5510   21.3480 N   0  0  0  0  0  0  0  0  0  0  0  0
    6.6540   -0.0530   20.2170 C   0  0  0  0  0  0  0  0  0  0  0  0
    5.4040    0.7930   20.5080 C   0  0  0  0  0  0  0  0  0  0  0  0
    4.7440    1.4110   19.3340 C   0  0  0  0  0  0  0  0  0  0  0  0
    5.2650    1.2030   18.1110 C   0  0  0  0  0  0  0  0  0  0  0  0
    6.3700    0.4520   17.8720 N   0  0  0  0  0  0  0  0  0  0  0  0
    7.0340   -0.1590   18.8940 C   0  0  0  0  0  0  0  0  0  0  0  0
   10.8590   -0.4530   23.4810 C   0  0  0  0  0  0  0  0  0  0  0  0
   12.2760   -0.5490   23.5790 C   0  0  0  0  0  0  0  0  0  0  0  0
   12.4610    0.6820   23.0300 C   0  0  0  0  0  0  0  0  0  0  0  0
   10.9880    0.9280   22.8300 C   0  0  0  0  0  0  0  0  0  0  0  0
  1  2  3  0
  3  2  1  6
  3  4  1  0
  4  5  1  0
  5  6  2  0
  5  7  1  0
  7  8  1  0
  8  9  2  0
  9 10  1  0
 10 11  2  0
 11 12  1  0
  8 13  1  0
 12 13  2  0
  3 14  1  0
 14 15  1  0
 15 16  1  0
 14 17  1  0
 16 17  1  0
M  END
