pyridine_urea_8630
     RDKit          3D

 21 23  0  0  0  0  0  0  0  0999 V2000
    9.3280    0.9300   21.5220 O   0  0  0  0  0  0  0  0  0  0  0  0
    8.6770   -0.0820   21.6990 C   0  0  0  0  0  0  0  0  0  0  0  0
    9.0000   -1.0910   22.5530 N   0  0  0  0  0  0  0  0  0  0  0  0
    9.8970   -0.8630   23.6160 C   0  0  0  0  0  0  0  0  0  0  0  0
   10.1600    0.4910   23.8660 C   0  0  0  0  0  0  0  0  0  0  0  0
   10.5560    1.8750   24.0780 N   0  0  0  0  0  0  0  0  0  0  0  0
   11.6860    2.2120   23.7900 O   0  0  0  0  0  0  0  0  0  0  0  0
   11.9870    1.0670   23.3960 C   0  0  0  0  0  0  0  0  0  0  0  0
   12.9600    0.4380   22.9040 C   0  0  0  0  0  0  0  0  0  0  0  0
   12.2160   -1.0150   22.7640 C   0  0  0  0  0  0  0  0  0  0  0  0
   13.3620   -1.0880   22.3610 C   0  0  0  0  0  0  0  0  0  0  0  0
   13.0280   -2.3740   22.1300 F   0  0  0  0  0  0  0  0  0  0  0  0
   12.9130    0.3060   22.8870 C   0  0  0  0  0  0  0  0  0  0  0  0
   11.4400   -0.0230   23.3020 C   0  0  0  0  0  0  0  0  0  0  0  0
    7.5220   -0.2080   20.9920 N   0  0  0  0  0  0  0  0  0  0  0  0
    6.5990    0.2420   20.0660 C   0  0  0  0  0  0  0  0  0  0  0  0
    5.4020    0.9000   20.3490 C   0  0  0  0  0  0  0  0  0  0  0  0
    4.6150    1.3300   19.2840 C   0  0  0  0  0  0  0  0  0  0  0  0
    5.0410    1.0930   17.9900 C   0  0  0  0  0  0  0  0  0  0  0  0
    6.1670    0.4540   17.6960 N   0  0  0  0  0  0  0  0  0  0  0  0
    6.9350    0.0320   18.7410 C   0  0  0  0  0  0  0  0  0  0  0  0
  1  2  2  0
  2  3  1  0
  3  4  1  0
  4  5  1  0
  5  6  2  0
  6  7  1  0
  7  8  1  0
  8  9  1  0
  9 10  2  0
 10 11  1  0
 11 12  1  0
 11 13  2  0
  5 14  1  0
  8 14  2  0
 13 14  1  0
  2 15  1  0
 15 16  1  0
 16 17  2  0
 17 18  1  0
 18 19  2  0
 19 20  1  0
 16 21  1  0
 20 21  2  0
M  END
