pyridine_urea_10825
     RDKit          3D

 20 21  0  0  0  0  0  0  0  0999 V2000
    8.5620   -3.7080   23.2620 C   0  0  0  0  0  0  0  0  0  0  0  0
    7.8870   -2.4610   22.8200 C   0  0  2  0  0  0  0  0  0  0  0  0
    8.2390   -1.3370   23.5620 C   0  0  0  0  0  0  0  0  0  0  0  0
    9.0210   -0.4480   22.6650 N   0  0  0  0  0  0  0  0  0  0  0  0
    8.4550    0.1460   21.5910 C   0  0  0  0  0  0  0  0  0  0  0  0
    8.9570    1.2160   21.1970 O   0  0  0  0  0  0  0  0  0  0  0  0
    7.2920   -0.5400   21.0410 N   0  0  0  0  0  0  0  0  0  0  0  0
    6.6000    0.0780   20.0420 C   0  0  0  0  0  0  0  0  0  0  0  0
    5.3440    0.8400   20.4030 C   0  0  0  0  0  0  0  0  0  0  0  0
    4.5780    1.5480   19.2870 C   0  0  0  0  0  0  0  0  0  0  0  0
    5.1600    1.4160   17.8960 C   0  0  0  0  0  0  0  0  0  0  0  0
    6.2950    0.6930   17.7040 N   0  0  0  0  0  0  0  0  0  0  0  0
    6.9860    0.0480   18.7210 C   0  0  0  0  0  0  0  0  0  0  0  0
    6.5170   -2.6070   22.6560 N   0  0  0  0  0  0  0  0  0  0  0  0
    6.0830   -3.8410   23.0110 C   0  0  0  0  0  0  0  0  0  0  0  0
    5.7240   -4.6720   21.9450 C   0  0  0  0  0  0  0  0  0  0  0  0
    5.2820   -5.9500   22.2180 C   0  0  0  0  0  0  0  0  0  0  0  0
    5.2050   -6.3660   23.5330 C   0  0  0  0  0  0  0  0  0  0  0  0
    5.5550   -5.5520   24.6080 C   0  0  0  0  0  0  0  0  0  0  0  0
    6.0070   -4.2600   24.3570 C   0  0  0  0  0  0  0  0  0  0  0  0
  2  1  1  1
  2  3  1  0
  3  4  1  0
  4  5  1  0
  5  6  2  0
  5  7  1  0
  7  8  1  0
  8  9  2  0
  9 10  1  0
 10 11  2  0
 11 12  1  0
  8 13  1  0
 12 13  2  0
  2 14  1  0
 14 15  1  0
 15 16  2  0
 16 17  1  0
 17 18  2  0
 18 19  1  0
 15 20  1  0
 19 20  2  0
M  END
