pyridine_urea_5465
     RDKit          3D

 18 18  0  0  0  0  0  0  0  0999 V2000
   11.7650   -0.3600   24.7410 C   0  0  0  0  0  0  0  0  0  0  0  0
   10.4480    0.1170   24.1330 C   0  0  0  0  0  0  0  0  0  0  0  0
   10.4100   -0.4370   22.6680 C   0  0  1  0  0  0  0  0  0  0  0  0
   11.4260   -1.3260   22.3030 C   0  0  0  0  0  0  0  0  0  0  0  0
   12.8030   -0.6740   22.5200 C   0  0  0  0  0  0  0  0  0  0  0  0
   13.7280    0.0880   22.6720 O   0  0  0  0  0  0  0  0  0  0  0  0
   12.0730    0.4810   22.4280 O   0  0  0  0  0  0  0  0  0  0  0  0
   12.5150    1.7430   22.9570 C   0  0  0  0  0  0  0  0  0  0  0  0
    9.1010   -0.9980   22.3720 N   0  0  0  0  0  0  0  0  0  0  0  0
    8.2680   -0.1710   21.4970 C   0  0  0  0  0  0  0  0  0  0  0  0
    8.5840    0.9620   21.1570 O   0  0  0  0  0  0  0  0  0  0  0  0
    7.0720   -0.8470   21.1110 N   0  0  0  0  0  0  0  0  0  0  0  0
    6.4590   -0.1300   20.0900 C   0  0  0  0  0  0  0  0  0  0  0  0
    5.1830    0.6430   20.4100 C   0  0  0  0  0  0  0  0  0  0  0  0
    4.5530    1.4140   19.2720 C   0  0  0  0  0  0  0  0  0  0  0  0
    5.2650    1.3270   17.9490 C   0  0  0  0  0  0  0  0  0  0  0  0
    6.3860    0.6220   17.7400 N   0  0  0  0  0  0  0  0  0  0  0  0
    6.9390   -0.0690   18.7810 C   0  0  0  0  0  0  0  0  0  0  0  0
  1  2  1  0
  3  2  1  1
  3  4  1  0
  4  5  1  0
  5  6  2  0
  5  7  1  0
  7  8  1  0
  3  9  1  0
  9 10  1  0
 10 11  2  0
 10 12  1  0
 12 13  1  0
 13 14  2  0
 14 15  1  0
 15 16  2  0
 16 17  1  0
 13 18  1  0
 17 18  2  0
M  END
