pyridine_urea_8239
     RDKit          3D

 23 24  0  0  0  0  0  0  0  0999 V2000
   13.8120    1.0150   22.2550 C   0  0  0  0  0  0  0  0  0  0  0  0
   12.5480    1.7900   23.1890 S   0  0  0  0  0  0  0  0  0  0  0  0
   12.4740    3.2330   23.3050 O   0  0  0  0  0  0  0  0  0  0  0  0
   12.8430    0.9440   24.2390 O   0  0  0  0  0  0  0  0  0  0  0  0
   11.0260    1.1370   22.8100 C   0  0  0  0  0  0  0  0  0  0  0  0
   11.3800   -0.2600   23.2520 C   0  0  0  0  0  0  0  0  0  0  0  0
   12.5990   -0.4640   23.9410 C   0  0  0  0  0  0  0  0  0  0  0  0
   12.9390   -1.7890   24.4240 C   0  0  0  0  0  0  0  0  0  0  0  0
   11.9240   -2.5240   24.0420 C   0  0  0  0  0  0  0  0  0  0  0  0
   11.7630   -1.2350   23.6650 F   0  0  0  0  0  0  0  0  0  0  0  0
   10.6360   -2.4800   23.3320 C   0  0  0  0  0  0  0  0  0  0  0  0
   10.1590   -1.1170   22.7760 C   0  0  0  0  0  0  0  0  0  0  0  0
    9.3150   -2.2860   22.5610 C   0  0  0  0  0  0  0  0  0  0  0  0
    8.6690   -1.8270   21.3690 N   0  0  0  0  0  0  0  0  0  0  0  0
    8.1740   -0.5530   21.3150 C   0  0  0  0  0  0  0  0  0  0  0  0
    8.9690    0.6270   21.4520 O   0  0  0  0  0  0  0  0  0  0  0  0
    6.8060   -0.5930   21.0800 N   0  0  0  0  0  0  0  0  0  0  0  0
    6.2600    0.0720   19.9970 C   0  0  0  0  0  0  0  0  0  0  0  0
    4.9790    0.8670   20.1610 C   0  0  0  0  0  0  0  0  0  0  0  0
    4.4850    1.5270   19.0440 C   0  0  0  0  0  0  0  0  0  0  0  0
    5.1980    1.4160   17.8530 C   0  0  0  0  0  0  0  0  0  0  0  0
    6.3300    0.7170   17.6760 N   0  0  0  0  0  0  0  0  0  0  0  0
    6.8180    0.0720   18.7430 C   0  0  0  0  0  0  0  0  0  0  0  0
  2  1  1  0
  2  3  2  0
  2  4  2  0
  2  5  1  0
  5  6  1  0
  6  7  2  0
  7  8  1  0
  8  9  2  0
  9 10  1  0
  9 11  1  0
  6 12  1  0
 11 12  2  0
 12 13  1  0
 13 14  1  0
 14 15  1  0
 15 16  2  0
 15 17  1  0
 17 18  1  0
 18 19  2  0
 19 20  1  0
 20 21  2  0
 21 22  1  0
 18 23  1  0
 22 23  2  0
M  END
