pyridine_urea_13730
     RDKit          3D

 25 26  0  0  0  0  0  0  0  0999 V2000
   10.3120    3.2620   23.4490 C   0  0  0  0  0  0  0  0  0  0  0  0
   10.2540    1.9270   23.7680 N   0  0  0  0  0  0  0  0  0  0  0  0
   11.1890    0.9590   23.3660 C   0  0  0  0  0  0  0  0  0  0  0  0
   12.4640    1.2750   22.7930 O   0  0  0  0  0  0  0  0  0  0  0  0
   10.9760   -0.5740   23.5210 C   0  0  1  0  0  0  0  0  0  0  0  0
    9.6140   -1.0280   22.9930 C   0  0  0  0  0  0  0  0  0  0  0  0
    8.6630   -0.0880   22.8570 N   0  0  0  0  0  0  0  0  0  0  0  0
    8.2680    0.4210   21.6310 C   0  0  0  0  0  0  0  0  0  0  0  0
    8.8910    1.5760   21.0650 O   0  0  0  0  0  0  0  0  0  0  0  0
    7.1800   -0.3480   21.0690 N   0  0  0  0  0  0  0  0  0  0  0  0
    6.4150    0.2200   20.0690 C   0  0  0  0  0  0  0  0  0  0  0  0
    5.2260    0.9400   20.2800 C   0  0  0  0  0  0  0  0  0  0  0  0
    4.5540    1.5010   19.1700 C   0  0  0  0  0  0  0  0  0  0  0  0
    5.1120    1.3070   17.9180 C   0  0  0  0  0  0  0  0  0  0  0  0
    6.2290    0.6250   17.6320 N   0  0  0  0  0  0  0  0  0  0  0  0
    6.9050    0.0660   18.6850 C   0  0  0  0  0  0  0  0  0  0  0  0
   12.1150   -1.4550   22.8370 C   0  0  0  0  0  0  0  0  0  0  0  0
   13.2820   -0.7450   23.0220 C   0  0  0  0  0  0  0  0  0  0  0  0
   13.1190   -1.2600   21.6680 C   0  0  0  0  0  0  0  0  0  0  0  0
   12.0740   -2.0520   21.1760 C   0  0  0  0  0  0  0  0  0  0  0  0
   11.2630   -2.1970   22.3740 C   0  0  0  0  0  0  0  0  0  0  0  0
   10.1570   -2.9260   22.1980 F   0  0  0  0  0  0  0  0  0  0  0  0
   11.3740   -1.7330   23.7060 C   0  0  0  0  0  0  0  0  0  0  0  0
   12.4030   -0.9670   24.1010 C   0  0  0  0  0  0  0  0  0  0  0  0
   12.5250   -0.4840   25.4140 C   0  0  0  0  0  0  0  0  0  0  0  0
  1  2  1  0
  2  3  1  0
  3  4  2  0
  3  5  1  0
  5  6  1  6
  6  7  1  0
  7  8  1  0
  8  9  2  0
  8 10  1  0
 10 11  1  0
 11 12  2  0
 12 13  1  0
 13 14  2  0
 14 15  1  0
 11 16  1  0
 15 16  2  0
  5 17  1  0
 17 18  1  0
 18 19  2  0
 19 20  1  0
 20 21  2  0
 21 22  1  0
 21 23  1  0
 18 24  1  0
 23 24  2  0
 24 25  1  0
M  END
