pyridine_urea_7104
     RDKit          3D

 19 20  0  0  0  0  0  0  0  0999 V2000
   10.8300   -3.7470   25.2800 C   0  0  0  0  0  0  0  0  0  0  0  0
   10.2240   -2.7800   24.4940 N   0  0  0  0  0  0  0  0  0  0  0  0
    9.1140   -1.9760   24.8410 C   0  0  0  0  0  0  0  0  0  0  0  0
   11.0010   -2.3650   23.3210 C   0  0  0  0  0  0  0  0  0  0  0  0
   11.1910   -0.9830   23.2700 C   0  0  0  0  0  0  0  0  0  0  0  0
   10.1430   -0.2730   22.7460 C   0  0  0  0  0  0  0  0  0  0  0  0
    9.1190   -0.8530   22.1190 N   0  0  0  0  0  0  0  0  0  0  0  0
    8.3760    0.0190   21.4140 C   0  0  0  0  0  0  0  0  0  0  0  0
    8.7890    1.1500   21.1120 O   0  0  0  0  0  0  0  0  0  0  0  0
    7.0760   -0.5580   21.0810 N   0  0  0  0  0  0  0  0  0  0  0  0
    6.4460    0.0760   20.0120 C   0  0  0  0  0  0  0  0  0  0  0  0
    5.2610    0.7920   20.2280 C   0  0  0  0  0  0  0  0  0  0  0  0
    4.6370    1.4470   19.1570 C   0  0  0  0  0  0  0  0  0  0  0  0
    5.1600    1.4120   17.8790 C   0  0  0  0  0  0  0  0  0  0  0  0
    6.3240    0.6900   17.6980 N   0  0  0  0  0  0  0  0  0  0  0  0
    6.9320    0.0510   18.7260 C   0  0  0  0  0  0  0  0  0  0  0  0
   12.3990   -0.3290   22.7370 C   0  0  0  0  0  0  0  0  0  0  0  0
   12.7820    0.1490   23.9110 C   0  0  0  0  0  0  0  0  0  0  0  0
   11.6960   -0.3730   24.4610 C   0  0  0  0  0  0  0  0  0  0  0  0
  1  2  1  0
  2  3  1  0
  2  4  1  0
  5  4  1  0
  5  6  1  0
  6  7  1  0
  7  8  1  0
  8  9  2  0
  8 10  1  0
 10 11  1  0
 11 12  2  0
 12 13  1  0
 13 14  2  0
 14 15  1  0
 11 16  1  0
 15 16  2  0
  5 17  1  0
 17 18  1  0
  5 19  1  0
 18 19  1  0
M  END
