pyridine_urea_11691
     RDKit          3D

 26 28  0  0  0  0  0  0  0  0999 V2000
    8.7110    1.4720   21.1000 O   0  0  0  0  0  0  0  0  0  0  0  0
    8.6060    0.2490   21.1530 C   0  0  0  0  0  0  0  0  0  0  0  0
    7.4350   -0.4320   20.9710 N   0  0  0  0  0  0  0  0  0  0  0  0
    6.6020    0.1050   20.0010 C   0  0  0  0  0  0  0  0  0  0  0  0
    5.4160    0.7550   20.3520 C   0  0  0  0  0  0  0  0  0  0  0  0
    4.6250    1.3140   19.3510 C   0  0  0  0  0  0  0  0  0  0  0  0
    5.0580    1.1920   18.0490 C   0  0  0  0  0  0  0  0  0  0  0  0
    6.1810    0.5630   17.6930 N   0  0  0  0  0  0  0  0  0  0  0  0
    6.9220    0.0350   18.6750 C   0  0  0  0  0  0  0  0  0  0  0  0
    9.7250   -0.5090   21.3680 N   0  0  0  0  0  0  0  0  0  0  0  0
   10.1170   -0.4960   22.7020 C   0  0  0  0  0  0  0  0  0  0  0  0
    9.1080   -0.1590   23.5820 C   0  0  0  0  0  0  0  0  0  0  0  0
    9.5060   -0.1740   24.7780 N   0  0  0  0  0  0  0  0  0  0  0  0
   10.8220   -0.5030   25.0280 N   0  0  0  0  0  0  0  0  0  0  0  0
    9.9160   -0.2310   26.0380 C   0  0  0  0  0  0  0  0  0  0  0  0
    8.5990   -0.3320   25.5510 C   0  0  0  0  0  0  0  0  0  0  0  0
    7.4650   -0.1270   26.3130 C   0  0  0  0  0  0  0  0  0  0  0  0
    7.5480    0.1960   27.6360 C   0  0  0  0  0  0  0  0  0  0  0  0
    8.7250    0.3430   28.3170 C   0  0  0  0  0  0  0  0  0  0  0  0
    8.7810    0.7480   29.9880 Cl  0  0  0  0  0  0  0  0  0  0  0  0
    9.9970    0.1300   27.5270 C   0  0  0  0  0  0  0  0  0  0  0  0
   11.2900   -0.7100   23.6060 C   0  0  0  0  0  0  0  0  0  0  0  0
   12.5950   -1.0540   23.2700 C   0  0  0  0  0  0  0  0  0  0  0  0
   13.2670   -1.6000   24.3210 F   0  0  0  0  0  0  0  0  0  0  0  0
   13.3460    0.0030   22.8480 F   0  0  0  0  0  0  0  0  0  0  0  0
   12.6680   -1.9710   22.2680 F   0  0  0  0  0  0  0  0  0  0  0  0
  1  2  2  0
  2  3  1  0
  3  4  1  0
  4  5  2  0
  5  6  1  0
  6  7  2  0
  7  8  1  0
  4  9  1  0
  8  9  2  0
  2 10  1  0
 10 11  1  0
 11 12  1  0
 12 13  2  0
 13 14  1  0
 14 15  1  0
 15 16  2  0
 16 17  1  0
 17 18  2  0
 18 19  1  0
 19 20  1  0
 15 21  1  0
 19 21  2  0
 11 22  2  0
 14 22  1  0
 22 23  1  0
 23 24  1  0
 23 25  1  0
 23 26  1  0
M  END
