pyridine_urea_9731
     RDKit          3D

 27 30  0  0  0  0  0  0  0  0999 V2000
    8.8570    1.4280   21.2550 O   0  0  0  0  0  0  0  0  0  0  0  0
    8.1760    0.5180   21.7480 C   0  0  0  0  0  0  0  0  0  0  0  0
    8.2430    0.0710   23.0600 N   0  0  0  0  0  0  0  0  0  0  0  0
    9.2310    0.5770   23.9980 C   0  0  0  0  0  0  0  0  0  0  0  0
   10.2490   -0.5020   24.2870 C   0  0  2  0  0  0  0  0  0  0  0  0
   11.7320   -0.1890   24.1500 C   0  0  0  0  0  0  0  0  0  0  0  0
   12.5760   -1.0710   24.7060 C   0  0  0  0  0  0  0  0  0  0  0  0
   12.6690    0.2510   23.8690 C   0  0  0  0  0  0  0  0  0  0  0  0
   10.9380    0.3550   23.8390 C   0  0  0  0  0  0  0  0  0  0  0  0
   11.4560    1.4160   23.1740 C   0  0  0  0  0  0  0  0  0  0  0  0
   12.4550    0.8990   23.4840 C   0  0  0  0  0  0  0  0  0  0  0  0
   10.3170   -1.2310   23.0580 C   0  0  0  0  0  0  0  0  0  0  0  0
    9.2210   -1.1990   22.2510 C   0  0  0  0  0  0  0  0  0  0  0  0
    9.6870   -1.9310   21.1340 N   0  0  0  0  0  0  0  0  0  0  0  0
   11.0590   -2.3570   21.3730 C   0  0  0  0  0  0  0  0  0  0  0  0
   12.0720   -3.0940   20.6240 C   0  0  0  0  0  0  0  0  0  0  0  0
   13.2520   -3.2850   21.3000 C   0  0  0  0  0  0  0  0  0  0  0  0
   13.4690   -2.7620   22.6970 C   0  0  0  0  0  0  0  0  0  0  0  0
   12.4940   -2.0670   23.2990 C   0  0  0  0  0  0  0  0  0  0  0  0
   11.3570   -1.9090   22.5980 C   0  0  0  0  0  0  0  0  0  0  0  0
    7.2180   -0.1760   21.0360 N   0  0  0  0  0  0  0  0  0  0  0  0
    6.5270    0.2870   19.9930 C   0  0  0  0  0  0  0  0  0  0  0  0
    5.4120    1.0700   20.2490 C   0  0  0  0  0  0  0  0  0  0  0  0
    4.6900    1.5870   19.1930 C   0  0  0  0  0  0  0  0  0  0  0  0
    5.1130    1.3020   17.9120 C   0  0  0  0  0  0  0  0  0  0  0  0
    6.1750    0.5420   17.6380 N   0  0  0  0  0  0  0  0  0  0  0  0
    6.8570    0.0490   18.6820 C   0  0  0  0  0  0  0  0  0  0  0  0
  1  2  2  0
  2  3  1  0
  3  4  1  0
  5  4  1  6
  5  6  1  0
  6  7  2  0
  7  8  1  0
  8  9  2  0
  9 10  1  0
  6 11  1  0
 10 11  2  0
  5 12  1  0
 12 13  2  0
 13 14  1  0
 14 15  1  0
 15 16  1  0
 16 17  2  0
 17 18  1  0
 18 19  2  0
 12 20  1  0
 15 20  2  0
 19 20  1  0
  2 21  1  0
 21 22  1  0
 22 23  2  0
 23 24  1  0
 24 25  2  0
 25 26  1  0
 22 27  1  0
 26 27  2  0
M  END
