pyridine_urea_6027
     RDKit          3D

 25 27  0  0  0  0  0  0  0  0999 V2000
   12.7380    0.6930   23.1320 C   0  0  0  0  0  0  0  0  0  0  0  0
   13.4190   -0.5770   22.8950 N   0  0  0  0  0  0  0  0  0  0  0  0
   13.3330   -1.1470   21.6340 C   0  0  0  0  0  0  0  0  0  0  0  0
   12.2150   -1.9070   21.3510 C   0  0  0  0  0  0  0  0  0  0  0  0
   11.6910   -2.4950   22.3750 N   0  0  0  0  0  0  0  0  0  0  0  0
   10.8390   -1.7180   23.2040 C   0  0  0  0  0  0  0  0  0  0  0  0
   11.5780   -1.3250   24.2500 C   0  0  0  0  0  0  0  0  0  0  0  0
   11.0700   -0.5760   25.3580 C   0  0  0  0  0  0  0  0  0  0  0  0
    9.5910   -0.2320   25.3570 C   0  0  0  0  0  0  0  0  0  0  0  0
    8.6420    0.6140   26.7680 Br  0  0  0  0  0  0  0  0  0  0  0  0
    8.8420   -0.6570   24.1070 C   0  0  0  0  0  0  0  0  0  0  0  0
    9.4880   -1.3550   23.1180 C   0  0  0  0  0  0  0  0  0  0  0  0
    8.9490   -1.7820   22.0190 N   0  0  0  0  0  0  0  0  0  0  0  0
    8.3630   -0.6020   21.5010 C   0  0  0  0  0  0  0  0  0  0  0  0
    9.0030    0.4390   21.3590 O   0  0  0  0  0  0  0  0  0  0  0  0
    7.0260   -0.7430   21.1880 N   0  0  0  0  0  0  0  0  0  0  0  0
    6.4700   -0.0650   20.0250 C   0  0  0  0  0  0  0  0  0  0  0  0
    5.3190    0.6390   20.3600 C   0  0  0  0  0  0  0  0  0  0  0  0
    4.6840    1.3380   19.3380 C   0  0  0  0  0  0  0  0  0  0  0  0
    5.2300    1.2900   18.0640 C   0  0  0  0  0  0  0  0  0  0  0  0
    6.3370    0.6150   17.7230 N   0  0  0  0  0  0  0  0  0  0  0  0
    6.9280   -0.0520   18.7330 C   0  0  0  0  0  0  0  0  0  0  0  0
   12.7400   -2.7710   23.2460 C   0  0  0  0  0  0  0  0  0  0  0  0
   13.2820   -1.6370   23.8120 C   0  0  0  0  0  0  0  0  0  0  0  0
   13.5730   -1.7230   25.0000 O   0  0  0  0  0  0  0  0  0  0  0  0
  1  2  1  0
  2  3  1  0
  3  4  1  0
  4  5  1  0
  5  6  1  0
  6  7  2  0
  7  8  1  0
  8  9  2  0
  9 10  1  0
  9 11  1  0
  6 12  1  0
 11 12  2  0
 12 13  1  0
 13 14  1  0
 14 15  2  0
 14 16  1  0
 16 17  1  0
 17 18  2  0
 18 19  1  0
 19 20  2  0
 20 21  1  0
 17 22  1  0
 21 22  2  0
  5 23  1  0
  2 24  1  0
 23 24  1  0
 24 25  2  0
M  END
