pyridine_urea_2829
     RDKit          3D

 22 23  0  0  0  0  0  0  0  0999 V2000
    8.7140    1.3350   21.0700 O   0  0  0  0  0  0  0  0  0  0  0  0
    8.3140    0.2350   21.4590 C   0  0  0  0  0  0  0  0  0  0  0  0
    8.9480   -0.4530   22.4400 N   0  0  0  0  0  0  0  0  0  0  0  0
   10.2980   -0.0160   22.7710 C   0  0  0  0  0  0  0  0  0  0  0  0
   10.5300    1.5490   22.8130 C   0  0  0  0  0  0  0  0  0  0  0  0
   11.8590    2.0100   22.9210 C   0  0  2  0  0  0  0  0  0  0  0  0
   12.2800    2.9330   22.0090 O   0  0  0  0  0  0  0  0  0  0  0  0
   12.7350    0.8540   23.3920 C   0  0  0  0  0  0  0  0  0  0  0  0
   11.5010    0.3950   23.1980 C   0  0  0  0  0  0  0  0  0  0  0  0
   10.4460   -0.6350   23.2010 C   0  0  0  0  0  0  0  0  0  0  0  0
   10.7930   -1.9560   23.6670 C   0  0  0  0  0  0  0  0  0  0  0  0
    9.6560   -3.2130   23.7530 Cl  0  0  0  0  0  0  0  0  0  0  0  0
   12.2800   -1.8130   23.9980 C   0  0  0  0  0  0  0  0  0  0  0  0
   13.2910   -3.0230   24.6200 Cl  0  0  0  0  0  0  0  0  0  0  0  0
   13.0460   -0.4760   23.8040 C   0  0  0  0  0  0  0  0  0  0  0  0
    7.2110   -0.4280   21.0050 N   0  0  0  0  0  0  0  0  0  0  0  0
    6.5030    0.1370   19.9690 C   0  0  0  0  0  0  0  0  0  0  0  0
    5.2210    0.8870   20.2570 C   0  0  0  0  0  0  0  0  0  0  0  0
    4.5610    1.4630   19.1870 C   0  0  0  0  0  0  0  0  0  0  0  0
    5.1110    1.3190   17.9190 C   0  0  0  0  0  0  0  0  0  0  0  0
    6.2420    0.6450   17.6520 N   0  0  0  0  0  0  0  0  0  0  0  0
    6.9060    0.0750   18.6680 C   0  0  0  0  0  0  0  0  0  0  0  0
  1  2  2  0
  2  3  1  0
  3  4  1  0
  4  5  1  0
  5  6  1  0
  6  7  1  6
  6  8  1  0
  8  9  2  0
  9 10  1  0
 10 11  2  0
 11 12  1  0
 11 13  1  0
 13 14  1  0
  8 15  1  0
 13 15  2  0
  2 16  1  0
 16 17  1  0
 17 18  2  0
 18 19  1  0
 19 20  2  0
 20 21  1  0
 17 22  1  0
 21 22  2  0
M  END
