pyridine_urea_2460
     RDKit          3D

 24 26  0  0  0  0  0  0  0  0999 V2000
   13.1760    0.9880   22.8440 C   0  0  0  0  0  0  0  0  0  0  0  0
   12.4220    0.1180   23.5220 N   0  0  0  0  0  0  0  0  0  0  0  0
   12.6560   -0.9150   24.3610 C   0  0  0  0  0  0  0  0  0  0  0  0
   11.4530   -1.3750   24.7300 C   0  0  0  0  0  0  0  0  0  0  0  0
   10.3310   -0.7370   24.1720 C   0  0  0  0  0  0  0  0  0  0  0  0
    9.7390    0.1780   23.3580 C   0  0  2  0  0  0  0  0  0  0  0  0
    8.4380    0.4200   23.1900 N   0  0  0  0  0  0  0  0  0  0  0  0
    8.1270    0.4890   21.8400 C   0  0  0  0  0  0  0  0  0  0  0  0
    8.6370    1.3750   21.1270 O   0  0  0  0  0  0  0  0  0  0  0  0
    7.2370   -0.4960   21.4030 N   0  0  0  0  0  0  0  0  0  0  0  0
    6.5790    0.0960   20.2140 C   0  0  0  0  0  0  0  0  0  0  0  0
    5.3390    0.9500   20.3910 C   0  0  0  0  0  0  0  0  0  0  0  0
    4.6930    1.5340   19.2910 C   0  0  0  0  0  0  0  0  0  0  0  0
    5.2050    1.3280   18.0000 C   0  0  0  0  0  0  0  0  0  0  0  0
    6.3960    0.5040   17.8220 N   0  0  0  0  0  0  0  0  0  0  0  0
    7.0090   -0.0660   18.9140 C   0  0  0  0  0  0  0  0  0  0  0  0
    9.6780   -0.8970   22.4380 C   0  0  0  0  0  0  0  0  0  0  0  0
   11.0740   -0.7860   22.6460 C   0  0  0  0  0  0  0  0  0  0  0  0
   12.3840   -1.1250   22.4660 C   0  0  0  0  0  0  0  0  0  0  0  0
   12.2930   -2.1260   21.6120 C   0  0  0  0  0  0  0  0  0  0  0  0
   13.4280   -3.0610   20.8880 Cl  0  0  0  0  0  0  0  0  0  0  0  0
   11.0870   -2.4650   21.2350 C   0  0  0  0  0  0  0  0  0  0  0  0
    9.8960   -1.9230   21.5880 C   0  0  0  0  0  0  0  0  0  0  0  0
   11.0840    0.2230   23.3900 N   0  0  0  0  0  0  0  0  0  0  0  0
  1  2  1  0
  2  3  1  0
  3  4  2  0
  4  5  1  0
  5  6  1  0
  6  7  1  1
  7  8  1  0
  8  9  2  0
  8 10  1  0
 10 11  1  0
 11 12  2  0
 12 13  1  0
 13 14  2  0
 14 15  1  0
 11 16  1  0
 15 16  2  0
  6 17  1  0
 17 18  2  0
 18 19  1  0
 19 20  2  0
 20 21  1  0
 20 22  1  0
 17 23  1  0
 22 23  2  0
  2 24  1  0
  5 24  2  0
M  END
