pyridine_urea_10830
     RDKit          3D

 20 21  0  0  0  0  0  0  0  0999 V2000
   11.4930   -1.6170   22.4530 C   0  0  0  0  0  0  0  0  0  0  0  0
   10.0150   -1.8460   22.6500 C   0  0  2  0  0  0  0  0  0  0  0  0
    9.2760   -1.4020   21.4830 N   0  0  0  0  0  0  0  0  0  0  0  0
    8.5730   -0.2250   21.4330 C   0  0  0  0  0  0  0  0  0  0  0  0
    9.0970    0.8700   21.5720 O   0  0  0  0  0  0  0  0  0  0  0  0
    7.2460   -0.4700   21.1670 N   0  0  0  0  0  0  0  0  0  0  0  0
    6.5060    0.1600   20.0510 C   0  0  0  0  0  0  0  0  0  0  0  0
    5.3510    0.8680   20.3650 C   0  0  0  0  0  0  0  0  0  0  0  0
    4.5730    1.5400   19.2930 C   0  0  0  0  0  0  0  0  0  0  0  0
    5.1670    1.3650   17.9160 C   0  0  0  0  0  0  0  0  0  0  0  0
    6.2880    0.6570   17.6720 N   0  0  0  0  0  0  0  0  0  0  0  0
    6.9180    0.0790   18.7310 C   0  0  0  0  0  0  0  0  0  0  0  0
    9.4330   -1.1630   23.8810 C   0  0  0  0  0  0  0  0  0  0  0  0
    8.8350   -1.0210   24.9350 O   0  0  0  0  0  0  0  0  0  0  0  0
    9.0980   -2.3540   23.9800 O   0  0  0  0  0  0  0  0  0  0  0  0
    7.7410   -2.7030   23.6030 C   0  0  0  0  0  0  0  0  0  0  0  0
    6.8840   -2.3900   24.6760 C   0  0  0  0  0  0  0  0  0  0  0  0
    6.0840   -3.5140   24.9190 C   0  0  0  0  0  0  0  0  0  0  0  0
    6.5430   -4.5240   24.0890 C   0  0  0  0  0  0  0  0  0  0  0  0
    7.6580   -4.0710   23.4080 C   0  0  0  0  0  0  0  0  0  0  0  0
  2  1  1  6
  2  3  1  0
  3  4  1  0
  4  5  2  0
  4  6  1  0
  6  7  1  0
  7  8  2  0
  8  9  1  0
  9 10  2  0
 10 11  1  0
  7 12  1  0
 11 12  2  0
  2 13  1  0
 13 14  2  0
 13 15  1  0
 15 16  1  0
 16 17  1  0
 17 18  1  0
 18 19  1  0
 16 20  1  0
 19 20  1  0
M  END
