pyridine_urea_8825
     RDKit          3D

 20 21  0  0  0  0  0  0  0  0999 V2000
   13.6390    0.4290   22.6470 C   0  0  0  0  0  0  0  0  0  0  0  0
   12.3740    1.0590   23.1310 C   0  0  0  0  0  0  0  0  0  0  0  0
   11.9700   -0.3410   22.7680 C   0  0  0  0  0  0  0  0  0  0  0  0
   10.7720   -1.1820   22.8080 C   0  0  0  0  0  0  0  0  0  0  0  0
    9.4470   -1.2290   23.1790 C   0  0  1  0  0  0  0  0  0  0  0  0
    9.3920   -0.9430   24.5470 C   0  0  0  0  0  0  0  0  0  0  0  0
    8.6060   -0.1280   22.7880 N   0  0  0  0  0  0  0  0  0  0  0  0
    8.4030    0.3510   21.5300 C   0  0  0  0  0  0  0  0  0  0  0  0
    9.0270    1.3140   21.0920 O   0  0  0  0  0  0  0  0  0  0  0  0
    7.4100   -0.3350   20.9050 N   0  0  0  0  0  0  0  0  0  0  0  0
    6.5710    0.2060   20.0010 C   0  0  0  0  0  0  0  0  0  0  0  0
    5.3990    0.8800   20.2820 C   0  0  0  0  0  0  0  0  0  0  0  0
    4.6260    1.4230   19.2680 C   0  0  0  0  0  0  0  0  0  0  0  0
    5.0920    1.2540   17.9640 C   0  0  0  0  0  0  0  0  0  0  0  0
    6.2150    0.5960   17.6590 N   0  0  0  0  0  0  0  0  0  0  0  0
    6.9260    0.0880   18.6770 C   0  0  0  0  0  0  0  0  0  0  0  0
   11.7660   -1.9770   22.2670 C   0  0  0  0  0  0  0  0  0  0  0  0
   12.0040   -0.6040   22.6620 C   0  0  0  0  0  0  0  0  0  0  0  0
   11.1050    0.4840   23.2310 C   0  0  0  0  0  0  0  0  0  0  0  0
   10.5920    2.1640   23.8860 Br  0  0  0  0  0  0  0  0  0  0  0  0
  1  2  1  0
  2  3  2  0
  3  4  1  0
  4  5  1  0
  5  6  1  1
  5  7  1  0
  7  8  1  0
  8  9  2  0
  8 10  1  0
 10 11  1  0
 11 12  2  0
 12 13  1  0
 13 14  2  0
 14 15  1  0
 11 16  1  0
 15 16  2  0
  4 17  2  0
 17 18  1  0
  2 19  1  0
 18 19  2  0
 19 20  1  0
M  END
