pyridine_urea_10752
     RDKit          3D

 20 22  0  0  0  0  0  0  0  0999 V2000
    8.5590    0.6040   21.1260 O   0  0  0  0  0  0  0  0  0  0  0  0
    8.2820   -0.4990   21.5690 C   0  0  0  0  0  0  0  0  0  0  0  0
    7.0410   -1.0960   21.1150 N   0  0  0  0  0  0  0  0  0  0  0  0
    6.4080   -0.3220   20.1190 C   0  0  0  0  0  0  0  0  0  0  0  0
    5.2240    0.3800   20.3800 C   0  0  0  0  0  0  0  0  0  0  0  0
    4.6450    1.1430   19.3530 C   0  0  0  0  0  0  0  0  0  0  0  0
    5.2630    1.1860   18.0990 C   0  0  0  0  0  0  0  0  0  0  0  0
    6.3940    0.5170   17.8360 N   0  0  0  0  0  0  0  0  0  0  0  0
    6.9430   -0.2230   18.8420 C   0  0  0  0  0  0  0  0  0  0  0  0
    9.0910   -1.1960   22.4780 N   0  0  0  0  0  0  0  0  0  0  0  0
   10.2530   -0.3530   22.6190 C   0  0  0  0  0  0  0  0  0  0  0  0
   11.7440   -0.6870   22.5450 C   0  0  0  0  0  0  0  0  0  0  0  0
   12.6320    0.3980   22.6440 C   0  0  0  0  0  0  0  0  0  0  0  0
   12.1330    1.7250   22.8050 C   0  0  0  0  0  0  0  0  0  0  0  0
   12.9750    2.8400   22.8250 C   0  0  0  0  0  0  0  0  0  0  0  0
   12.6290    4.0590   23.1300 C   0  0  0  0  0  0  0  0  0  0  0  0
   12.4070    4.0790   21.8710 C   0  0  0  0  0  0  0  0  0  0  0  0
   10.7880    2.0380   22.9210 C   0  0  0  0  0  0  0  0  0  0  0  0
   10.1810    3.6320   23.1490 Cl  0  0  0  0  0  0  0  0  0  0  0  0
    9.8690    1.0470   22.8340 C   0  0  0  0  0  0  0  0  0  0  0  0
  1  2  2  0
  2  3  1  0
  3  4  1  0
  4  5  2  0
  5  6  1  0
  6  7  2  0
  7  8  1  0
  4  9  1  0
  8  9  2  0
  2 10  1  0
 10 11  1  0
 11 12  2  0
 12 13  1  0
 13 14  2  0
 14 15  1  0
 15 16  1  0
 15 17  1  0
 16 17  1  0
 14 18  1  0
 18 19  1  0
 11 20  1  0
 18 20  2  0
M  END
