pyridine_urea_5792
     RDKit          3D

 18 19  0  0  0  0  0  0  0  0999 V2000
   10.6100    2.7130   22.8440 C   0  0  0  0  0  0  0  0  0  0  0  0
   10.1100    1.4060   23.1730 O   0  0  0  0  0  0  0  0  0  0  0  0
   10.6660    0.4220   22.4120 C   0  0  0  0  0  0  0  0  0  0  0  0
   10.5190   -0.9050   22.7570 C   0  0  0  0  0  0  0  0  0  0  0  0
    9.0510   -1.1130   22.6290 N   0  0  0  0  0  0  0  0  0  0  0  0
    8.3250   -0.3680   21.7340 C   0  0  0  0  0  0  0  0  0  0  0  0
    8.6980    0.9710   21.3470 O   0  0  0  0  0  0  0  0  0  0  0  0
    7.1140   -0.8990   21.1300 N   0  0  0  0  0  0  0  0  0  0  0  0
    6.5060   -0.2000   20.1050 C   0  0  0  0  0  0  0  0  0  0  0  0
    5.2300    0.5590   20.3990 C   0  0  0  0  0  0  0  0  0  0  0  0
    4.5350    1.3520   19.2950 C   0  0  0  0  0  0  0  0  0  0  0  0
    5.2220    1.3060   17.9450 C   0  0  0  0  0  0  0  0  0  0  0  0
    6.3690    0.5880   17.7850 N   0  0  0  0  0  0  0  0  0  0  0  0
    6.9890   -0.1380   18.8090 C   0  0  0  0  0  0  0  0  0  0  0  0
   11.5610   -1.5320   22.0540 C   0  0  0  0  0  0  0  0  0  0  0  0
   12.7030   -1.0720   22.6210 C   0  0  0  0  0  0  0  0  0  0  0  0
   12.3320   -0.8560   23.8930 C   0  0  0  0  0  0  0  0  0  0  0  0
   10.9760   -1.2070   24.0650 C   0  0  0  0  0  0  0  0  0  0  0  0
  1  2  1  0
  2  3  1  0
  3  4  1  0
  4  5  1  0
  5  6  1  0
  6  7  2  0
  6  8  1  0
  8  9  1  0
  9 10  2  0
 10 11  1  0
 11 12  2  0
 12 13  1  0
  9 14  1  0
 13 14  2  0
  4 15  1  0
 15 16  1  0
 16 17  2  0
  4 18  1  0
 17 18  1  0
M  END
