pyridine_urea_10815
     RDKit          3D

 20 21  0  0  0  0  0  0  0  0999 V2000
   10.3780   -1.4920   21.7160 C   0  0  0  0  0  0  0  0  0  0  0  0
   10.0180   -0.8230   22.9880 C   0  0  2  0  0  0  0  0  0  0  0  0
    8.7700   -0.1160   22.8820 N   0  0  0  0  0  0  0  0  0  0  0  0
    8.4050    0.3930   21.6680 C   0  0  0  0  0  0  0  0  0  0  0  0
    8.9600    1.3760   21.1730 O   0  0  0  0  0  0  0  0  0  0  0  0
    7.3640   -0.3210   21.1290 N   0  0  0  0  0  0  0  0  0  0  0  0
    6.5790    0.2350   20.0220 C   0  0  0  0  0  0  0  0  0  0  0  0
    5.4380    0.9570   20.3540 C   0  0  0  0  0  0  0  0  0  0  0  0
    4.6120    1.5780   19.2920 C   0  0  0  0  0  0  0  0  0  0  0  0
    5.1470    1.3340   17.9030 C   0  0  0  0  0  0  0  0  0  0  0  0
    6.2510    0.6120   17.6410 N   0  0  0  0  0  0  0  0  0  0  0  0
    6.9320    0.0860   18.6900 C   0  0  0  0  0  0  0  0  0  0  0  0
   11.1620    0.0800   23.3850 C   0  0  0  0  0  0  0  0  0  0  0  0
   11.4620    1.2390   23.3110 C   0  0  0  0  0  0  0  0  0  0  0  0
   12.4360    0.5670   23.9100 C   0  0  0  0  0  0  0  0  0  0  0  0
   11.2970   -0.5070   23.5390 C   0  0  0  0  0  0  0  0  0  0  0  0
   12.0550   -1.5160   24.1190 C   0  0  0  0  0  0  0  0  0  0  0  0
   13.2610   -1.3140   24.7020 C   0  0  0  0  0  0  0  0  0  0  0  0
   13.8330   -2.3250   25.3920 N   0  0  0  0  0  0  0  0  0  0  0  0
   12.3980   -0.3740   24.0840 C   0  0  0  0  0  0  0  0  0  0  0  0
  2  1  1  6
  2  3  1  0
  3  4  1  0
  4  5  2  0
  4  6  1  0
  6  7  1  0
  7  8  2  0
  8  9  1  0
  9 10  2  0
 10 11  1  0
  7 12  1  0
 11 12  2  0
  2 13  1  0
 13 14  2  0
 14 15  1  0
 15 16  2  0
 16 17  1  0
 17 18  1  0
 18 19  3  0
 13 20  1  0
 17 20  2  0
M  END
