pyridine_urea_5874
     RDKit          3D

 17 17  0  0  0  0  0  0  0  0999 V2000
   12.2960    0.9220   23.0960 C   0  0  0  0  0  0  0  0  0  0  0  0
   10.8580    0.4950   22.8840 C   0  0  0  0  0  0  0  0  0  0  0  0
   10.6010   -0.7740   22.3900 C   0  0  2  0  0  0  0  0  0  0  0  0
    9.1330   -0.9390   22.4570 N   0  0  0  0  0  0  0  0  0  0  0  0
    8.3440   -0.2390   21.6020 C   0  0  0  0  0  0  0  0  0  0  0  0
    8.7400    0.8890   21.3070 O   0  0  0  0  0  0  0  0  0  0  0  0
    7.1160   -0.8280   21.0930 N   0  0  0  0  0  0  0  0  0  0  0  0
    6.4940   -0.1350   20.0710 C   0  0  0  0  0  0  0  0  0  0  0  0
    5.2200    0.6220   20.3870 C   0  0  0  0  0  0  0  0  0  0  0  0
    4.5340    1.4040   19.2650 C   0  0  0  0  0  0  0  0  0  0  0  0
    5.2040    1.3520   17.9090 C   0  0  0  0  0  0  0  0  0  0  0  0
    6.3470    0.6320   17.7490 N   0  0  0  0  0  0  0  0  0  0  0  0
    6.9710   -0.0860   18.7730 C   0  0  0  0  0  0  0  0  0  0  0  0
   11.6490   -1.5180   22.9310 C   0  0  0  0  0  0  0  0  0  0  0  0
   12.9340   -1.4270   22.3860 C   0  0  0  0  0  0  0  0  0  0  0  0
   11.2890   -2.7990   22.8910 F   0  0  0  0  0  0  0  0  0  0  0  0
   11.7520   -1.2360   24.2350 F   0  0  0  0  0  0  0  0  0  0  0  0
  1  2  1  0
  3  2  1  1
  3  4  1  0
  4  5  1  0
  5  6  2  0
  5  7  1  0
  7  8  1  0
  8  9  2  0
  9 10  1  0
 10 11  2  0
 11 12  1  0
  8 13  1  0
 12 13  2  0
  3 14  1  0
 14 15  1  0
 14 16  1  0
 14 17  1  0
M  END
