pyridine_urea_13416
     RDKit          3D

 21 23  0  0  0  0  0  0  0  0999 V2000
    8.8250    0.7030   21.3230 O   0  0  0  0  0  0  0  0  0  0  0  0
    8.1270   -0.2330   21.6890 C   0  0  0  0  0  0  0  0  0  0  0  0
    7.0830   -0.7620   20.9840 N   0  0  0  0  0  0  0  0  0  0  0  0
    6.3590   -0.0310   20.0440 C   0  0  0  0  0  0  0  0  0  0  0  0
    5.0480    0.7050   20.3480 C   0  0  0  0  0  0  0  0  0  0  0  0
    4.4650    1.4480   19.1510 C   0  0  0  0  0  0  0  0  0  0  0  0
    5.2160    1.3720   17.8630 C   0  0  0  0  0  0  0  0  0  0  0  0
    6.3580    0.6840   17.7130 N   0  0  0  0  0  0  0  0  0  0  0  0
    6.8800    0.0260   18.7640 C   0  0  0  0  0  0  0  0  0  0  0  0
    8.2860   -0.8790   22.8930 N   0  0  0  0  0  0  0  0  0  0  0  0
    9.5940   -1.1920   23.3760 C   0  0  0  0  0  0  0  0  0  0  0  0
   10.0490   -2.4840   23.1080 C   0  0  0  0  0  0  0  0  0  0  0  0
    9.1310   -3.2600   23.3580 O   0  0  0  0  0  0  0  0  0  0  0  0
   10.7560   -0.4470   22.5690 C   0  0  0  0  0  0  0  0  0  0  0  0
   11.1410    0.2400   23.6800 C   0  0  0  0  0  0  0  0  0  0  0  0
   11.0190    1.6340   23.6460 C   0  0  0  0  0  0  0  0  0  0  0  0
   12.0560    2.1600   22.8740 C   0  0  0  0  0  0  0  0  0  0  0  0
   12.5700    1.0600   22.1580 O   0  0  0  0  0  0  0  0  0  0  0  0
   13.1520    0.0410   22.9370 C   0  0  0  0  0  0  0  0  0  0  0  0
   12.3880   -0.1560   24.0560 C   0  0  0  0  0  0  0  0  0  0  0  0
   10.1910   -0.4060   24.4030 C   0  0  0  0  0  0  0  0  0  0  0  0
  1  2  2  0
  2  3  1  0
  3  4  1  0
  4  5  2  0
  5  6  1  0
  6  7  2  0
  7  8  1  0
  4  9  1  0
  8  9  2  0
  2 10  1  0
 11 10  1  0
 11 12  1  0
 12 13  1  0
 11 14  1  0
 15 14  1  0
 15 16  1  0
 16 17  1  0
 17 18  1  0
 18 19  1  0
 15 20  1  0
 19 20  1  0
 11 21  1  0
 15 21  1  0
M  END
