pyridine_urea_3073
     RDKit          3D

 21 22  0  0  0  0  0  0  0  0999 V2000
   10.9450   -1.4050   22.0510 C   0  0  0  0  0  0  0  0  0  0  0  0
   10.3690   -0.0450   22.4150 C   0  0  2  0  0  0  0  0  0  0  0  0
   11.1640    0.7660   23.2330 C   0  0  0  0  0  0  0  0  0  0  0  0
   12.3970    0.1800   23.5250 C   0  0  0  0  0  0  0  0  0  0  0  0
   12.1040   -1.0160   24.0780 C   0  0  0  0  0  0  0  0  0  0  0  0
   10.6730   -1.3920   23.7940 C   0  0  0  0  0  0  0  0  0  0  0  0
   10.1200   -2.5550   24.3170 C   0  0  0  0  0  0  0  0  0  0  0  0
   11.0020   -3.4340   25.1850 C   0  0  0  0  0  0  0  0  0  0  0  0
   10.2140   -4.9530   25.9740 Br  0  0  0  0  0  0  0  0  0  0  0  0
   12.3360   -3.0530   25.3670 C   0  0  0  0  0  0  0  0  0  0  0  0
   12.8990   -1.8880   24.8440 C   0  0  0  0  0  0  0  0  0  0  0  0
    8.9520   -0.1860   22.7350 N   0  0  0  0  0  0  0  0  0  0  0  0
    8.2450   -0.4960   21.5930 C   0  0  0  0  0  0  0  0  0  0  0  0
    8.8060   -1.0680   20.7260 O   0  0  0  0  0  0  0  0  0  0  0  0
    6.9380   -0.1060   21.5170 N   0  0  0  0  0  0  0  0  0  0  0  0
    6.3630    0.3350   20.3030 C   0  0  0  0  0  0  0  0  0  0  0  0
    5.1830    1.0830   20.3600 C   0  0  0  0  0  0  0  0  0  0  0  0
    4.6180    1.5320   19.1800 C   0  0  0  0  0  0  0  0  0  0  0  0
    5.2200    1.2400   17.9670 C   0  0  0  0  0  0  0  0  0  0  0  0
    6.3480    0.5200   17.8770 N   0  0  0  0  0  0  0  0  0  0  0  0
    6.8910    0.0800   19.0350 C   0  0  0  0  0  0  0  0  0  0  0  0
  2  1  1  1
  2  3  1  0
  3  4  1  0
  4  5  1  0
  5  6  2  0
  6  7  1  0
  7  8  2  0
  8  9  1  0
  8 10  1  0
  5 11  1  0
 10 11  2  0
  2 12  1  0
 12 13  1  0
 13 14  2  0
 13 15  1  0
 15 16  1  0
 16 17  2  0
 17 18  1  0
 18 19  2  0
 19 20  1  0
 16 21  1  0
 20 21  2  0
M  END
