pyridine_urea_14996
     RDKit          3D

 19 20  0  0  0  0  0  0  0  0999 V2000
   11.9290   -0.7390   25.1620 C   0  0  0  0  0  0  0  0  0  0  0  0
   11.4770   -0.9350   23.9080 N   0  0  0  0  0  0  0  0  0  0  0  0
   10.0490   -0.6520   23.7710 C   0  0  0  0  0  0  0  0  0  0  0  0
   10.3010   -1.0530   22.3800 C   0  0  0  0  0  0  0  0  0  0  0  0
    9.1920   -1.0200   21.6190 N   0  0  0  0  0  0  0  0  0  0  0  0
    8.4030    0.0750   21.3230 C   0  0  0  0  0  0  0  0  0  0  0  0
    8.8040    1.2400   21.1890 O   0  0  0  0  0  0  0  0  0  0  0  0
    7.0340   -0.3850   21.1870 N   0  0  0  0  0  0  0  0  0  0  0  0
    6.3400    0.2120   20.1950 C   0  0  0  0  0  0  0  0  0  0  0  0
    5.0430    0.9900   20.2600 C   0  0  0  0  0  0  0  0  0  0  0  0
    4.4590    1.6000   18.9980 C   0  0  0  0  0  0  0  0  0  0  0  0
    5.1660    1.4040   17.8160 C   0  0  0  0  0  0  0  0  0  0  0  0
    6.2900    0.7350   17.6590 N   0  0  0  0  0  0  0  0  0  0  0  0
    6.8500    0.1690   18.7650 C   0  0  0  0  0  0  0  0  0  0  0  0
   11.6540   -1.4350   21.9850 C   0  0  0  0  0  0  0  0  0  0  0  0
   12.5970   -1.4080   22.9720 C   0  0  0  0  0  0  0  0  0  0  0  0
   13.1580   -1.2470   24.2110 C   0  0  0  0  0  0  0  0  0  0  0  0
   13.3530   -2.5620   23.9650 N   0  0  0  0  0  0  0  0  0  0  0  0
   13.7080   -1.7130   25.2030 O   0  0  0  0  0  0  0  0  0  0  0  0
  1  2  1  0
  2  3  1  0
  3  4  2  0
  4  5  1  0
  5  6  1  0
  6  7  2  0
  6  8  1  0
  8  9  1  0
  9 10  2  0
 10 11  1  0
 11 12  2  0
 12 13  1  0
  9 14  1  0
 13 14  2  0
  4 15  1  0
  2 16  1  0
 15 16  2  0
 16 17  1  0
 17 18  1  0
 17 19  2  0
M  END
