pyridine_urea_10500
     RDKit          3D

 22 24  0  0  0  0  0  0  0  0999 V2000
    8.8270    0.9350   21.3450 O   0  0  0  0  0  0  0  0  0  0  0  0
    8.4900   -0.2360   21.4030 C   0  0  0  0  0  0  0  0  0  0  0  0
    7.2640   -0.7170   21.0040 N   0  0  0  0  0  0  0  0  0  0  0  0
    6.4620   -0.0230   20.0860 C   0  0  0  0  0  0  0  0  0  0  0  0
    5.1490    0.6980   20.4270 C   0  0  0  0  0  0  0  0  0  0  0  0
    4.4940    1.3980   19.2320 C   0  0  0  0  0  0  0  0  0  0  0  0
    5.1860    1.3010   17.9130 C   0  0  0  0  0  0  0  0  0  0  0  0
    6.3330    0.6320   17.7320 N   0  0  0  0  0  0  0  0  0  0  0  0
    6.9160    0.0110   18.7780 C   0  0  0  0  0  0  0  0  0  0  0  0
    9.3230   -1.2230   21.8650 N   0  0  0  0  0  0  0  0  0  0  0  0
   10.2450   -1.0270   22.9660 C   0  0  0  0  0  0  0  0  0  0  0  0
   11.5800   -0.8620   22.5190 C   0  0  0  0  0  0  0  0  0  0  0  0
   12.2180    0.3650   22.8160 C   0  0  0  0  0  0  0  0  0  0  0  0
   11.6070    1.4340   23.4280 N   0  0  0  0  0  0  0  0  0  0  0  0
   10.8330    2.4700   22.8420 C   0  0  0  0  0  0  0  0  0  0  0  0
   11.3970    3.7210   22.4640 C   0  0  2  0  0  0  0  0  0  0  0  0
   12.7760    4.0340   22.5640 C   0  0  0  0  0  0  0  0  0  0  0  0
   12.6740    5.5620   22.5250 C   0  0  0  0  0  0  0  0  0  0  0  0
   11.4490    5.9640   23.0160 C   0  0  0  0  0  0  0  0  0  0  0  0
   10.7970    4.7190   23.2880 O   0  0  0  0  0  0  0  0  0  0  0  0
   10.8610    0.7010   24.3930 C   0  0  0  0  0  0  0  0  0  0  0  0
    9.8250    0.0060   23.8090 C   0  0  0  0  0  0  0  0  0  0  0  0
  1  2  2  0
  2  3  1  0
  3  4  1  0
  4  5  2  0
  5  6  1  0
  6  7  2  0
  7  8  1  0
  4  9  1  0
  8  9  2  0
  2 10  1  0
 10 11  1  0
 11 12  1  0
 12 13  1  0
 13 14  1  0
 14 15  1  0
 16 15  1  1
 16 17  1  0
 17 18  1  0
 18 19  1  0
 16 20  1  0
 19 20  1  0
 14 21  1  0
 11 22  1  0
 21 22  1  0
M  END
