pyridine_urea_14953
     RDKit          3D

 18 18  0  0  0  0  0  0  0  0999 V2000
   10.5740    0.9260   23.0370 C   0  0  0  0  0  0  0  0  0  0  0  0
   10.0590   -0.4930   23.2270 C   0  0  2  0  0  0  0  0  0  0  0  0
   11.0890   -1.4320   22.6780 C   0  0  0  0  0  0  0  0  0  0  0  0
   12.1020   -0.9870   22.2180 O   0  0  0  0  0  0  0  0  0  0  0  0
   12.8790   -2.0240   21.6260 C   0  0  0  0  0  0  0  0  0  0  0  0
   12.1130   -2.8960   20.9820 F   0  0  0  0  0  0  0  0  0  0  0  0
   13.5050   -2.6570   22.6350 F   0  0  0  0  0  0  0  0  0  0  0  0
   13.7440   -1.4910   20.7600 F   0  0  0  0  0  0  0  0  0  0  0  0
    8.7810   -0.6930   22.5770 N   0  0  0  0  0  0  0  0  0  0  0  0
    8.3410    0.0880   21.5290 C   0  0  0  0  0  0  0  0  0  0  0  0
    8.8710    1.1670   21.2070 O   0  0  0  0  0  0  0  0  0  0  0  0
    7.2270   -0.5230   20.9330 N   0  0  0  0  0  0  0  0  0  0  0  0
    6.4590    0.1150   20.0020 C   0  0  0  0  0  0  0  0  0  0  0  0
    5.1690    0.8770   20.2980 C   0  0  0  0  0  0  0  0  0  0  0  0
    4.5680    1.4640   19.1870 C   0  0  0  0  0  0  0  0  0  0  0  0
    5.1440    1.3310   17.9300 C   0  0  0  0  0  0  0  0  0  0  0  0
    6.2720    0.6510   17.6760 N   0  0  0  0  0  0  0  0  0  0  0  0
    6.8960    0.0650   18.7020 C   0  0  0  0  0  0  0  0  0  0  0  0
  2  1  1  6
  2  3  1  0
  3  4  1  0
  4  5  1  0
  5  6  1  0
  5  7  1  0
  5  8  1  0
  2  9  1  0
  9 10  1  0
 10 11  2  0
 10 12  1  0
 12 13  1  0
 13 14  2  0
 14 15  1  0
 15 16  2  0
 16 17  1  0
 13 18  1  0
 17 18  2  0
M  END
