pyridine_urea_8658
     RDKit          3D

 21 23  0  0  0  0  0  0  0  0999 V2000
    8.8510    1.4770   21.1070 O   0  0  0  0  0  0  0  0  0  0  0  0
    8.5250    0.3430   21.4510 C   0  0  0  0  0  0  0  0  0  0  0  0
    7.3960   -0.3320   21.0590 N   0  0  0  0  0  0  0  0  0  0  0  0
    6.6120    0.1840   20.0290 C   0  0  0  0  0  0  0  0  0  0  0  0
    5.4450    0.8880   20.3430 C   0  0  0  0  0  0  0  0  0  0  0  0
    4.6750    1.4280   19.3180 C   0  0  0  0  0  0  0  0  0  0  0  0
    5.1070    1.2410   18.0240 C   0  0  0  0  0  0  0  0  0  0  0  0
    6.2140    0.5620   17.7000 N   0  0  0  0  0  0  0  0  0  0  0  0
    6.9370    0.0490   18.7060 C   0  0  0  0  0  0  0  0  0  0  0  0
    9.3340   -0.3760   22.2780 N   0  0  0  0  0  0  0  0  0  0  0  0
   10.4710    0.3370   22.8370 C   0  0  1  0  0  0  0  0  0  0  0  0
   10.1210    0.7560   24.2440 C   0  0  0  0  0  0  0  0  0  0  0  0
   10.2880   -0.3420   25.0660 C   0  0  0  0  0  0  0  0  0  0  0  0
   10.3630   -1.4730   24.6010 O   0  0  0  0  0  0  0  0  0  0  0  0
   11.5190   -1.4890   23.8900 C   0  0  0  0  0  0  0  0  0  0  0  0
   12.5870   -2.4670   24.1240 C   0  0  0  0  0  0  0  0  0  0  0  0
   12.3400   -3.3570   25.0700 F   0  0  0  0  0  0  0  0  0  0  0  0
   13.8000   -2.4670   23.3920 C   0  0  0  0  0  0  0  0  0  0  0  0
   12.9190   -1.5730   23.1290 C   0  0  0  0  0  0  0  0  0  0  0  0
   12.7940   -0.5820   22.3220 C   0  0  0  0  0  0  0  0  0  0  0  0
   11.6040   -0.4440   22.8860 C   0  0  0  0  0  0  0  0  0  0  0  0
  1  2  2  0
  2  3  1  0
  3  4  1  0
  4  5  2  0
  5  6  1  0
  6  7  2  0
  7  8  1  0
  4  9  1  0
  8  9  2  0
  2 10  1  0
 11 10  1  1
 11 12  1  0
 12 13  1  0
 13 14  1  0
 14 15  1  0
 15 16  2  0
 16 17  1  0
 16 18  1  0
 18 19  2  0
 19 20  1  0
 11 21  1  0
 15 21  1  0
 20 21  2  0
M  END
