pyridine_urea_877
     RDKit          3D

 22 23  0  0  0  0  0  0  0  0999 V2000
    5.5710    0.8310   17.5500 C   0  0  0  0  0  0  0  0  0  0  0  0
    6.4410    0.6350   18.6680 N   0  0  0  0  0  0  0  0  0  0  0  0
    6.2230    1.6880   19.6550 C   0  0  0  0  0  0  0  0  0  0  0  0
    5.2190    1.7310   20.6230 C   0  0  0  0  0  0  0  0  0  0  0  0
    4.4250    2.1580   21.6970 C   0  0  0  0  0  0  0  0  0  0  0  0
    4.5680    1.3870   22.8090 F   0  0  0  0  0  0  0  0  0  0  0  0
    3.1030    2.2070   21.3950 F   0  0  0  0  0  0  0  0  0  0  0  0
    4.7650    3.4140   22.0850 F   0  0  0  0  0  0  0  0  0  0  0  0
    4.6360    0.5220   20.1620 C   0  0  0  0  0  0  0  0  0  0  0  0
    6.1540    0.4530   20.5860 C   0  0  0  0  0  0  0  0  0  0  0  0
    7.3750   -0.2240   20.6060 N   0  0  0  0  0  0  0  0  0  0  0  0
    8.5330    0.2380   21.3030 C   0  0  0  0  0  0  0  0  0  0  0  0
    8.9350    1.3930   21.1570 O   0  0  0  0  0  0  0  0  0  0  0  0
    9.1620   -0.6800   22.1040 N   0  0  0  0  0  0  0  0  0  0  0  0
   10.4620   -0.3470   22.4010 C   0  0  0  0  0  0  0  0  0  0  0  0
   11.5080   -1.3490   22.2980 C   0  0  0  0  0  0  0  0  0  0  0  0
   12.8270   -1.0470   22.5760 C   0  0  0  0  0  0  0  0  0  0  0  0
   12.8140    0.2120   22.8930 C   0  0  0  0  0  0  0  0  0  0  0  0
   11.9400    1.2190   23.0180 N   0  0  0  0  0  0  0  0  0  0  0  0
   10.5380    1.0800   22.7850 C   0  0  0  0  0  0  0  0  0  0  0  0
    6.1200   -0.4730   19.4880 C   0  0  0  0  0  0  0  0  0  0  0  0
    5.8740   -1.8000   19.3020 O   0  0  0  0  0  0  0  0  0  0  0  0
  1  2  1  0
  2  3  1  0
  3  4  2  0
  4  5  1  0
  5  6  1  0
  5  7  1  0
  5  8  1  0
  4  9  1  0
  9 10  2  0
 10 11  1  0
 11 12  1  0
 12 13  2  0
 12 14  1  0
 14 15  1  0
 15 16  2  0
 16 17  1  0
 17 18  2  0
 18 19  1  0
 15 20  1  0
 19 20  2  0
  2 21  1  0
 10 21  1  0
 21 22  2  0
M  END
