pyridine_urea_2884
     RDKit          3D

 22 24  0  0  0  0  0  0  0  0999 V2000
    8.9520    1.1380   21.3660 O   0  0  0  0  0  0  0  0  0  0  0  0
    8.6590   -0.0640   21.4740 C   0  0  0  0  0  0  0  0  0  0  0  0
    8.9260   -0.8640   22.5950 N   0  0  0  0  0  0  0  0  0  0  0  0
   10.2990   -1.0980   23.0520 C   0  0  0  0  0  0  0  0  0  0  0  0
   11.3060   -1.2080   21.9060 C   0  0  0  0  0  0  0  0  0  0  0  0
   12.6250   -1.3800   22.1450 C   0  0  0  0  0  0  0  0  0  0  0  0
   12.8930   -1.4600   23.5980 C   0  0  0  0  0  0  0  0  0  0  0  0
   11.9280   -1.3810   24.5200 N   0  0  0  0  0  0  0  0  0  0  0  0
   10.5420   -1.1920   24.4330 C   0  0  0  0  0  0  0  0  0  0  0  0
    8.0530   -0.8300   20.5160 N   0  0  0  0  0  0  0  0  0  0  0  0
    6.8630   -0.4090   19.7670 C   0  0  1  0  0  0  0  0  0  0  0  0
    5.7000   -0.0020   20.6310 C   0  0  0  0  0  0  0  0  0  0  0  0
    4.6220   -0.5010   19.7140 C   0  0  0  0  0  0  0  0  0  0  0  0
    5.0740   -0.2290   18.2970 C   0  0  0  0  0  0  0  0  0  0  0  0
    5.6790    0.9520   18.1880 N   0  0  0  0  0  0  0  0  0  0  0  0
    4.9400    2.1270   18.1440 C   0  0  0  0  0  0  0  0  0  0  0  0
    4.7670    2.6790   17.0930 O   0  0  0  0  0  0  0  0  0  0  0  0
    4.2950    2.7530   19.3940 C   0  0  0  0  0  0  0  0  0  0  0  0
    3.4960    1.9160   20.1340 C   0  0  0  0  0  0  0  0  0  0  0  0
    2.4170    2.7310   19.9650 C   0  0  0  0  0  0  0  0  0  0  0  0
    3.0450    3.6510   19.1080 C   0  0  0  0  0  0  0  0  0  0  0  0
    6.9870    0.8480   18.8820 C   0  0  0  0  0  0  0  0  0  0  0  0
  1  2  2  0
  2  3  1  0
  3  4  1  0
  4  5  2  0
  5  6  1  0
  6  7  2  0
  7  8  1  0
  4  9  1  0
  8  9  2  0
  2 10  1  0
 11 10  1  1
 11 12  1  0
 12 13  1  0
 13 14  1  0
 14 15  1  0
 15 16  1  0
 16 17  2  0
 16 18  1  0
 18 19  1  0
 19 20  1  0
 18 21  1  0
 20 21  1  0
 11 22  1  0
 15 22  1  0
M  END
