pyridine_urea_4524
     RDKit          3D

 23 25  0  0  0  0  0  0  0  0999 V2000
    8.7270    0.5720   21.1320 O   0  0  0  0  0  0  0  0  0  0  0  0
    8.1920   -0.4810   21.4220 C   0  0  0  0  0  0  0  0  0  0  0  0
    8.7760   -1.4300   22.2120 N   0  0  0  0  0  0  0  0  0  0  0  0
    9.0670   -1.0560   23.5680 C   0  0  0  0  0  0  0  0  0  0  0  0
    8.8560    0.4490   23.7860 C   0  0  0  0  0  0  0  0  0  0  0  0
    9.6760    1.3050   22.8190 C   0  0  0  0  0  0  0  0  0  0  0  0
   11.0140    1.5720   23.4550 C   0  0  0  0  0  0  0  0  0  0  0  0
   11.2740    0.5230   24.3230 N   0  0  0  0  0  0  0  0  0  0  0  0
   12.0110   -0.5790   23.9510 C   0  0  0  0  0  0  0  0  0  0  0  0
   11.9310   -1.1750   22.5490 C   0  0  0  0  0  0  0  0  0  0  0  0
   12.7340   -2.2740   22.3410 C   0  0  0  0  0  0  0  0  0  0  0  0
   13.5280   -2.8080   23.2730 N   0  0  0  0  0  0  0  0  0  0  0  0
   13.5750   -2.2630   24.5130 C   0  0  0  0  0  0  0  0  0  0  0  0
   12.8440   -1.1520   24.8990 C   0  0  0  0  0  0  0  0  0  0  0  0
   10.0360    0.0560   24.8510 C   0  0  0  0  0  0  0  0  0  0  0  0
    9.0180    0.9550   25.2090 C   0  0  0  0  0  0  0  0  0  0  0  0
    6.9490   -0.8480   21.0010 N   0  0  0  0  0  0  0  0  0  0  0  0
    6.3340   -0.0940   19.9410 C   0  0  0  0  0  0  0  0  0  0  0  0
    5.1400    0.5710   20.1880 C   0  0  0  0  0  0  0  0  0  0  0  0
    4.4930    1.3720   19.1200 C   0  0  0  0  0  0  0  0  0  0  0  0
    5.1470    1.4100   17.8910 C   0  0  0  0  0  0  0  0  0  0  0  0
    6.3070    0.7540   17.6610 N   0  0  0  0  0  0  0  0  0  0  0  0
    6.8460    0.0410   18.6710 C   0  0  0  0  0  0  0  0  0  0  0  0
  1  2  2  0
  2  3  1  0
  3  4  1  0
  4  5  1  0
  5  6  1  0
  6  7  1  0
  7  8  1  0
  8  9  1  0
  9 10  2  0
 10 11  1  0
 11 12  2  0
 12 13  1  0
  9 14  1  0
 13 14  2  0
  8 15  1  0
  5 16  1  0
 15 16  1  0
  2 17  1  0
 17 18  1  0
 18 19  2  0
 19 20  1  0
 20 21  2  0
 21 22  1  0
 18 23  1  0
 22 23  2  0
M  END
