pyridine_urea_13353
     RDKit          3D

 19 21  0  0  0  0  0  0  0  0999 V2000
    8.9740    0.4420   21.4870 O   0  0  0  0  0  0  0  0  0  0  0  0
    8.2340   -0.5210   21.6440 C   0  0  0  0  0  0  0  0  0  0  0  0
    6.9750   -0.6950   21.1220 N   0  0  0  0  0  0  0  0  0  0  0  0
    6.4050   -0.0120   20.0390 C   0  0  0  0  0  0  0  0  0  0  0  0
    5.2350    0.7240   20.2540 C   0  0  0  0  0  0  0  0  0  0  0  0
    4.6420    1.4200   19.1980 C   0  0  0  0  0  0  0  0  0  0  0  0
    5.2440    1.3540   17.9590 C   0  0  0  0  0  0  0  0  0  0  0  0
    6.3650    0.6510   17.7320 N   0  0  0  0  0  0  0  0  0  0  0  0
    6.9180   -0.0140   18.7640 C   0  0  0  0  0  0  0  0  0  0  0  0
    8.5540   -1.6300   22.4070 N   0  0  0  0  0  0  0  0  0  0  0  0
    9.7300   -1.6950   23.2510 C   0  0  0  0  0  0  0  0  0  0  0  0
   10.0100   -0.4090   24.0090 C   0  0  0  0  0  0  0  0  0  0  0  0
   11.3360   -0.0660   23.7350 C   0  0  2  0  0  0  0  0  0  0  0  0
   11.6150    1.2370   23.6110 C   0  0  0  0  0  0  0  0  0  0  0  0
   12.6890    1.4340   22.8690 C   0  0  0  0  0  0  0  0  0  0  0  0
   13.4830    0.3070   22.9060 C   0  0  0  0  0  0  0  0  0  0  0  0
   12.9920   -0.8210   22.3370 C   0  0  0  0  0  0  0  0  0  0  0  0
   11.6710   -0.7730   22.5880 C   0  0  1  0  0  0  0  0  0  0  0  0
   10.9100   -1.8920   22.5940 C   0  0  0  0  0  0  0  0  0  0  0  0
  1  2  2  0
  2  3  1  0
  3  4  1  0
  4  5  2  0
  5  6  1  0
  6  7  2  0
  7  8  1  0
  4  9  1  0
  8  9  2  0
  2 10  1  0
 10 11  1  0
 11 12  1  0
 13 12  1  6
 13 14  1  0
 14 15  1  0
 15 16  1  0
 16 17  1  0
 13 18  1  0
 18 17  1  1
 11 19  1  0
 18 19  1  0
M  END
