pyridine_urea_14113
     RDKit          3D

 23 25  0  0  0  0  0  0  0  0999 V2000
    9.3080    2.2440   22.6390 C   0  0  0  0  0  0  0  0  0  0  0  0
   10.4260    1.8340   22.7900 C   0  0  0  0  0  0  0  0  0  0  0  0
   11.9560    1.8230   22.9650 C   0  0  0  0  0  0  0  0  0  0  0  0
   12.7520    0.6120   23.1380 C   0  0  0  0  0  0  0  0  0  0  0  0
   12.1440   -0.5860   23.1490 C   0  0  0  0  0  0  0  0  0  0  0  0
   12.9330   -1.6730   23.3340 N   0  0  0  0  0  0  0  0  0  0  0  0
   12.9130   -1.7780   24.7270 C   0  0  0  0  0  0  0  0  0  0  0  0
   13.7250   -2.8900   25.2050 C   0  0  0  0  0  0  0  0  0  0  0  0
   14.2960   -3.3530   24.0220 O   0  0  0  0  0  0  0  0  0  0  0  0
   13.5870   -2.7460   22.9850 C   0  0  0  0  0  0  0  0  0  0  0  0
   13.5290   -3.1240   21.8410 O   0  0  0  0  0  0  0  0  0  0  0  0
   10.8330   -0.7230   22.9900 C   0  0  0  0  0  0  0  0  0  0  0  0
   10.0020    0.3140   22.8220 C   0  0  0  0  0  0  0  0  0  0  0  0
    8.6950    0.0010   22.6590 N   0  0  0  0  0  0  0  0  0  0  0  0
    8.1000    0.3630   21.4690 C   0  0  0  0  0  0  0  0  0  0  0  0
    8.5100    1.5210   20.7620 O   0  0  0  0  0  0  0  0  0  0  0  0
    7.0350   -0.5070   21.0150 N   0  0  0  0  0  0  0  0  0  0  0  0
    6.3160    0.1020   20.0310 C   0  0  0  0  0  0  0  0  0  0  0  0
    5.0050    0.7350   20.5540 C   0  0  0  0  0  0  0  0  0  0  0  0
    4.5550    1.3120   19.2210 C   0  0  0  0  0  0  0  0  0  0  0  0
    5.2030    1.2490   17.8890 C   0  0  0  0  0  0  0  0  0  0  0  0
    6.3250    0.6380   17.6690 N   0  0  0  0  0  0  0  0  0  0  0  0
    6.8420    0.0880   18.7480 C   0  0  0  0  0  0  0  0  0  0  0  0
  1  2  1  0
  2  3  2  0
  3  4  1  0
  4  5  2  0
  5  6  1  0
  6  7  1  0
  7  8  1  0
  8  9  1  0
  6 10  1  0
  9 10  1  0
 10 11  2  0
  5 12  1  0
  2 13  1  0
 12 13  2  0
 13 14  1  0
 14 15  1  0
 15 16  2  0
 15 17  1  0
 17 18  1  0
 18 19  2  0
 19 20  1  0
 20 21  2  0
 21 22  1  0
 18 23  1  0
 22 23  2  0
M  END
