pyridine_urea_5025
     RDKit          3D

 20 21  0  0  0  0  0  0  0  0999 V2000
   12.8270   -2.5840   21.3220 C   0  0  0  0  0  0  0  0  0  0  0  0
   12.5170   -1.4740   22.0620 N   0  0  0  0  0  0  0  0  0  0  0  0
   13.4720   -0.2930   22.3570 N   0  0  0  0  0  0  0  0  0  0  0  0
   12.8560    0.7800   23.1800 C   0  0  0  0  0  0  0  0  0  0  0  0
   11.5980    0.9750   23.7560 C   0  0  0  0  0  0  0  0  0  0  0  0
   10.5350    0.9300   22.9430 F   0  0  0  0  0  0  0  0  0  0  0  0
   11.3550   -0.0020   24.6860 F   0  0  0  0  0  0  0  0  0  0  0  0
   12.4460   -0.3930   22.6900 C   0  0  0  0  0  0  0  0  0  0  0  0
   11.4430   -1.0810   22.6890 C   0  0  0  0  0  0  0  0  0  0  0  0
    9.9950   -1.3180   23.1100 C   0  0  0  0  0  0  0  0  0  0  0  0
    9.1420   -1.4550   21.9390 N   0  0  0  0  0  0  0  0  0  0  0  0
    8.4200   -0.2970   21.4640 C   0  0  0  0  0  0  0  0  0  0  0  0
    8.9190    0.8190   21.4000 O   0  0  0  0  0  0  0  0  0  0  0  0
    7.1390   -0.6120   21.0930 N   0  0  0  0  0  0  0  0  0  0  0  0
    6.4710    0.0160   20.0360 C   0  0  0  0  0  0  0  0  0  0  0  0
    5.3210    0.7600   20.2830 C   0  0  0  0  0  0  0  0  0  0  0  0
    4.6460    1.4100   19.2800 C   0  0  0  0  0  0  0  0  0  0  0  0
    5.1360    1.3120   17.9910 C   0  0  0  0  0  0  0  0  0  0  0  0
    6.2370    0.5980   17.7000 N   0  0  0  0  0  0  0  0  0  0  0  0
    6.8790   -0.0320   18.7190 C   0  0  0  0  0  0  0  0  0  0  0  0
  1  2  1  0
  2  3  1  0
  3  4  2  0
  4  5  1  0
  5  6  1  0
  5  7  1  0
  4  8  1  0
  2  9  1  0
  8  9  2  0
  9 10  1  0
 10 11  1  0
 11 12  1  0
 12 13  2  0
 12 14  1  0
 14 15  1  0
 15 16  2  0
 16 17  1  0
 17 18  2  0
 18 19  1  0
 15 20  1  0
 19 20  2  0
M  END
