pyridine_urea_10283
     RDKit          3D

 22 23  0  0  0  0  0  0  0  0999 V2000
    7.6260    0.8750   26.4020 C   0  0  0  0  0  0  0  0  0  0  0  0
    8.6550    0.8820   25.4790 N   0  0  0  0  0  0  0  0  0  0  0  0
    9.8070    0.0930   25.6080 C   0  0  0  0  0  0  0  0  0  0  0  0
   10.2870   -0.2360   26.8820 O   0  0  0  0  0  0  0  0  0  0  0  0
   10.4760   -0.4300   24.4910 C   0  0  0  0  0  0  0  0  0  0  0  0
    9.6570   -0.5840   23.4280 C   0  0  0  0  0  0  0  0  0  0  0  0
   10.1150   -1.1000   22.2560 C   0  0  0  0  0  0  0  0  0  0  0  0
    9.2560   -1.2300   21.2710 N   0  0  0  0  0  0  0  0  0  0  0  0
    8.4030   -0.2030   21.2450 C   0  0  0  0  0  0  0  0  0  0  0  0
    8.7910    0.9630   21.3380 O   0  0  0  0  0  0  0  0  0  0  0  0
    7.0130   -0.5950   21.0810 N   0  0  0  0  0  0  0  0  0  0  0  0
    6.4130    0.0380   20.0040 C   0  0  0  0  0  0  0  0  0  0  0  0
    5.2440    0.7740   20.1760 C   0  0  0  0  0  0  0  0  0  0  0  0
    4.5900    1.4630   19.1450 C   0  0  0  0  0  0  0  0  0  0  0  0
    5.1440    1.4090   17.8740 C   0  0  0  0  0  0  0  0  0  0  0  0
    6.3080    0.6650   17.7050 N   0  0  0  0  0  0  0  0  0  0  0  0
    6.9130    0.0050   18.7280 C   0  0  0  0  0  0  0  0  0  0  0  0
   11.4550   -1.4820   22.1080 C   0  0  0  0  0  0  0  0  0  0  0  0
   11.9620   -2.0110   20.9720 F   0  0  0  0  0  0  0  0  0  0  0  0
   12.3060   -1.3280   23.1480 C   0  0  0  0  0  0  0  0  0  0  0  0
   11.8290   -0.8160   24.3300 C   0  0  0  0  0  0  0  0  0  0  0  0
   12.7810   -0.7560   25.2370 C   0  0  0  0  0  0  0  0  0  0  0  0
  1  2  1  0
  2  3  1  0
  3  4  2  0
  3  5  1  0
  5  6  2  0
  6  7  1  0
  7  8  1  0
  8  9  1  0
  9 10  2  0
  9 11  1  0
 11 12  1  0
 12 13  2  0
 13 14  1  0
 14 15  2  0
 15 16  1  0
 12 17  1  0
 16 17  2  0
  7 18  2  0
 18 19  1  0
 18 20  1  0
  5 21  1  0
 20 21  2  0
 21 22  1  0
M  END
