pyridine_urea_1971
     RDKit          3D

 18 19  0  0  0  0  0  0  0  0999 V2000
    8.9460    1.1800   21.1620 O   0  0  0  0  0  0  0  0  0  0  0  0
    8.4650    0.1020   21.5410 C   0  0  0  0  0  0  0  0  0  0  0  0
    9.0670   -0.7820   22.3910 N   0  0  0  0  0  0  0  0  0  0  0  0
    9.2550   -0.5970   23.7640 C   0  0  0  0  0  0  0  0  0  0  0  0
   10.2800    0.3950   24.3190 C   0  0  0  0  0  0  0  0  0  0  0  0
   11.6620   -0.2300   24.2130 C   0  0  1  0  0  0  0  0  0  0  0  0
   11.6180   -1.6470   23.7140 C   0  0  0  0  0  0  0  0  0  0  0  0
   12.2530   -1.6680   22.5100 C   0  0  0  0  0  0  0  0  0  0  0  0
   13.0450   -0.5390   22.5800 C   0  0  0  0  0  0  0  0  0  0  0  0
   12.4680    0.4960   23.3390 C   0  0  1  0  0  0  0  0  0  0  0  0
   11.8750    1.3070   22.6550 O   0  0  0  0  0  0  0  0  0  0  0  0
    7.2330   -0.3810   21.1800 N   0  0  0  0  0  0  0  0  0  0  0  0
    6.5220    0.1720   20.1280 C   0  0  0  0  0  0  0  0  0  0  0  0
    5.3420    0.8910   20.3140 C   0  0  0  0  0  0  0  0  0  0  0  0
    4.6410    1.4710   19.2440 C   0  0  0  0  0  0  0  0  0  0  0  0
    5.1360    1.3280   17.9350 C   0  0  0  0  0  0  0  0  0  0  0  0
    6.2410    0.6530   17.6480 N   0  0  0  0  0  0  0  0  0  0  0  0
    6.9090    0.0990   18.6680 C   0  0  0  0  0  0  0  0  0  0  0  0
  1  2  2  0
  2  3  1  0
  3  4  1  0
  4  5  1  0
  6  5  1  6
  6  7  1  0
  7  8  1  0
  8  9  1  0
  6 10  1  0
  9 10  1  0
 10 11  1  6
  2 12  1  0
 12 13  1  0
 13 14  2  0
 14 15  1  0
 15 16  2  0
 16 17  1  0
 13 18  1  0
 17 18  2  0
M  END
