pyridine_urea_10058
     RDKit          3D

 23 26  0  0  0  0  0  0  0  0999 V2000
    8.7860    1.1240   21.1690 O   0  0  0  0  0  0  0  0  0  0  0  0
    8.2930    0.0430   21.5390 C   0  0  0  0  0  0  0  0  0  0  0  0
    7.1850   -0.5590   20.9810 N   0  0  0  0  0  0  0  0  0  0  0  0
    6.4130    0.0920   20.0200 C   0  0  0  0  0  0  0  0  0  0  0  0
    5.2170    0.7660   20.2420 C   0  0  0  0  0  0  0  0  0  0  0  0
    4.5740    1.3880   19.1730 C   0  0  0  0  0  0  0  0  0  0  0  0
    5.1580    1.3070   17.9240 C   0  0  0  0  0  0  0  0  0  0  0  0
    6.3030    0.6560   17.6900 N   0  0  0  0  0  0  0  0  0  0  0  0
    6.8950    0.0690   18.7320 C   0  0  0  0  0  0  0  0  0  0  0  0
    8.8010   -0.7090   22.5770 N   0  0  0  0  0  0  0  0  0  0  0  0
    9.9690   -0.3120   23.2220 C   0  0  2  0  0  0  0  0  0  0  0  0
   10.9460   -0.0570   22.3570 C   0  0  0  0  0  0  0  0  0  0  0  0
   12.0620   -0.8150   22.7960 C   0  0  0  0  0  0  0  0  0  0  0  0
   13.2980   -0.9190   22.1920 C   0  0  0  0  0  0  0  0  0  0  0  0
   13.0020   -1.9020   21.3720 C   0  0  0  0  0  0  0  0  0  0  0  0
   11.6010   -1.9640   21.7930 C   0  0  0  0  0  0  0  0  0  0  0  0
   12.0140   -1.3640   24.1620 O   0  0  0  0  0  0  0  0  0  0  0  0
   11.0260   -2.3350   24.3850 C   0  0  0  0  0  0  0  0  0  0  0  0
   12.2090   -2.6400   24.7770 C   0  0  0  0  0  0  0  0  0  0  0  0
   12.1960   -1.4240   24.2390 C   0  0  0  0  0  0  0  0  0  0  0  0
   13.3560   -0.9940   24.3030 C   0  0  0  0  0  0  0  0  0  0  0  0
   12.2130   -0.2890   23.7370 C   0  0  0  0  0  0  0  0  0  0  0  0
   10.8980   -1.0640   23.7920 C   0  0  0  0  0  0  0  0  0  0  0  0
  1  2  2  0
  2  3  1  0
  3  4  1  0
  4  5  2  0
  5  6  1  0
  6  7  2  0
  7  8  1  0
  4  9  1  0
  8  9  2  0
  2 10  1  0
 11 10  1  6
 11 12  1  0
 12 13  1  0
 13 14  1  0
 14 15  1  0
 13 16  1  0
 15 16  1  0
 13 17  1  0
 17 18  1  0
 18 19  2  0
 19 20  1  0
 20 21  2  0
 21 22  1  0
 11 23  1  0
 18 23  1  0
 22 23  2  0
M  END
