pyridine_urea_14371
     RDKit          3D

 20 21  0  0  0  0  0  0  0  0999 V2000
    8.8690    1.1050   21.2290 O   0  0  0  0  0  0  0  0  0  0  0  0
    8.2830    0.0580   21.5570 C   0  0  0  0  0  0  0  0  0  0  0  0
    8.7150   -0.7860   22.6540 N   0  0  0  0  0  0  0  0  0  0  0  0
    9.9700   -0.5560   23.1780 C   0  0  0  0  0  0  0  0  0  0  0  0
   10.1920    0.7030   23.7370 C   0  0  1  0  0  0  0  0  0  0  0  0
    9.7360    0.7590   24.8690 O   0  0  0  0  0  0  0  0  0  0  0  0
   11.5300    1.0290   23.5530 C   0  0  0  0  0  0  0  0  0  0  0  0
   12.3020   -0.1880   23.4900 N   0  0  0  0  0  0  0  0  0  0  0  0
   12.3420   -0.8930   22.3240 C   0  0  0  0  0  0  0  0  0  0  0  0
   12.4310   -2.3850   22.4240 C   0  0  0  0  0  0  0  0  0  0  0  0
   12.4890   -2.9160   23.8580 C   0  0  0  0  0  0  0  0  0  0  0  0
   12.4100   -1.8870   24.9290 C   0  0  0  0  0  0  0  0  0  0  0  0
   12.8790   -0.6960   24.5650 C   0  0  0  0  0  0  0  0  0  0  0  0
    7.1560   -0.4730   20.9960 N   0  0  0  0  0  0  0  0  0  0  0  0
    6.4670    0.1360   19.9600 C   0  0  0  0  0  0  0  0  0  0  0  0
    5.3010    0.8460   20.2450 C   0  0  0  0  0  0  0  0  0  0  0  0
    4.6260    1.4690   19.2090 C   0  0  0  0  0  0  0  0  0  0  0  0
    5.1410    1.3580   17.9350 C   0  0  0  0  0  0  0  0  0  0  0  0
    6.2520    0.6720   17.6450 N   0  0  0  0  0  0  0  0  0  0  0  0
    6.8890    0.0770   18.6630 C   0  0  0  0  0  0  0  0  0  0  0  0
  1  2  2  0
  2  3  1  0
  3  4  1  0
  4  5  1  0
  5  6  1  1
  5  7  1  0
  7  8  1  0
  8  9  1  0
  9 10  1  0
 10 11  1  0
 11 12  1  0
  8 13  1  0
 12 13  1  0
  2 14  1  0
 14 15  1  0
 15 16  2  0
 16 17  1  0
 17 18  2  0
 18 19  1  0
 15 20  1  0
 19 20  2  0
M  END
