pyridine_urea_8047
     RDKit          3D

 24 26  0  0  0  0  0  0  0  0999 V2000
    9.9220   -3.6330   25.0070 C   0  0  0  0  0  0  0  0  0  0  0  0
   11.3910   -3.2280   25.0620 C   0  0  0  0  0  0  0  0  0  0  0  0
   12.2900   -3.9650   26.0650 C   0  0  0  0  0  0  0  0  0  0  0  0
   13.6080   -3.6440   26.1490 C   0  0  0  0  0  0  0  0  0  0  0  0
   14.1070   -2.6590   25.3510 N   0  0  0  0  0  0  0  0  0  0  0  0
   13.3740   -1.9670   24.4480 C   0  0  0  0  0  0  0  0  0  0  0  0
   13.8460   -1.0860   23.7630 O   0  0  0  0  0  0  0  0  0  0  0  0
   12.6300   -0.8560   23.4070 C   0  0  0  0  0  0  0  0  0  0  0  0
   11.8710   -0.2370   24.5320 C   0  0  0  0  0  0  0  0  0  0  0  0
   10.4250    0.0550   24.4230 C   0  0  0  0  0  0  0  0  0  0  0  0
    9.9210   -0.3660   23.0610 C   0  0  0  0  0  0  0  0  0  0  0  0
    8.6040   -0.2290   22.7060 N   0  0  0  0  0  0  0  0  0  0  0  0
    8.2180    0.3520   21.5590 C   0  0  0  0  0  0  0  0  0  0  0  0
    8.7970    1.4790   21.0310 O   0  0  0  0  0  0  0  0  0  0  0  0
    7.1670   -0.3420   21.0160 N   0  0  0  0  0  0  0  0  0  0  0  0
    6.4860    0.2030   19.9600 C   0  0  0  0  0  0  0  0  0  0  0  0
    5.2110    0.9760   20.1970 C   0  0  0  0  0  0  0  0  0  0  0  0
    4.5690    1.5340   19.1340 C   0  0  0  0  0  0  0  0  0  0  0  0
    5.1000    1.3780   17.8660 C   0  0  0  0  0  0  0  0  0  0  0  0
    6.2260    0.6830   17.6130 N   0  0  0  0  0  0  0  0  0  0  0  0
    6.8880    0.1160   18.6500 C   0  0  0  0  0  0  0  0  0  0  0  0
   10.7260   -0.9300   22.0470 C   0  0  0  0  0  0  0  0  0  0  0  0
   12.0830   -1.1740   22.2170 C   0  0  0  0  0  0  0  0  0  0  0  0
   12.0050   -2.2920   24.3320 N   0  0  0  0  0  0  0  0  0  0  0  0
  1  2  1  0
  2  3  2  0
  3  4  1  0
  4  5  2  0
  5  6  1  0
  6  7  1  0
  7  8  1  0
  8  9  2  0
  9 10  1  0
 10 11  2  0
 11 12  1  0
 12 13  1  0
 13 14  2  0
 13 15  1  0
 15 16  1  0
 16 17  2  0
 17 18  1  0
 18 19  2  0
 19 20  1  0
 16 21  1  0
 20 21  2  0
 11 22  1  0
  8 23  1  0
 22 23  2  0
  2 24  1  0
  6 24  2  0
M  END
