pyridine_urea_1958
     RDKit          3D

 20 20  0  0  0  0  0  0  0  0999 V2000
    9.9210   -0.1270   25.4950 C   0  0  0  0  0  0  0  0  0  0  0  0
   11.2750   -0.3200   25.0700 O   0  0  0  0  0  0  0  0  0  0  0  0
   11.7160    0.5470   24.0920 C   0  0  0  0  0  0  0  0  0  0  0  0
   11.1850    1.6210   23.8340 O   0  0  0  0  0  0  0  0  0  0  0  0
   12.9400    0.0080   23.3650 C   0  0  0  0  0  0  0  0  0  0  0  0
   12.6250   -1.2790   22.6120 C   0  0  0  0  0  0  0  0  0  0  0  0
   13.3540   -1.3140   21.4650 F   0  0  0  0  0  0  0  0  0  0  0  0
   13.0700   -2.3280   23.3450 F   0  0  0  0  0  0  0  0  0  0  0  0
   11.1930   -1.5560   22.2510 C   0  0  0  0  0  0  0  0  0  0  0  0
   10.2830   -0.5520   22.5480 C   0  0  0  0  0  0  0  0  0  0  0  0
    9.1110   -1.0650   22.0920 N   0  0  0  0  0  0  0  0  0  0  0  0
    8.4290   -0.0840   21.4230 C   0  0  0  0  0  0  0  0  0  0  0  0
    8.9530    1.1680   21.1670 O   0  0  0  0  0  0  0  0  0  0  0  0
    7.1810   -0.5160   21.0520 N   0  0  0  0  0  0  0  0  0  0  0  0
    6.4790    0.0970   20.0180 C   0  0  0  0  0  0  0  0  0  0  0  0
    5.3170    0.8110   20.3020 C   0  0  0  0  0  0  0  0  0  0  0  0
    4.6410    1.4340   19.2660 C   0  0  0  0  0  0  0  0  0  0  0  0
    5.1420    1.3290   17.9680 C   0  0  0  0  0  0  0  0  0  0  0  0
    6.2510    0.6360   17.6820 N   0  0  0  0  0  0  0  0  0  0  0  0
    6.8910    0.0390   18.7080 C   0  0  0  0  0  0  0  0  0  0  0  0
  1  2  1  0
  2  3  1  0
  3  4  2  0
  3  5  1  0
  5  6  1  0
  6  7  1  0
  6  8  1  0
  6  9  1  0
  9 10  1  0
 10 11  1  0
 11 12  1  0
 12 13  2  0
 12 14  1  0
 14 15  1  0
 15 16  2  0
 16 17  1  0
 17 18  2  0
 18 19  1  0
 15 20  1  0
 19 20  2  0
M  END
