pyridine_urea_12496
     RDKit          3D

 22 23  0  0  0  0  0  0  0  0999 V2000
   12.9260    2.9480   22.7660 C   0  0  0  0  0  0  0  0  0  0  0  0
   12.0240    4.1340   22.8970 C   0  0  0  0  0  0  0  0  0  0  0  0
   12.4310    5.0970   21.7320 C   0  0  0  0  0  0  0  0  0  0  0  0
   10.6660    3.5230   22.6110 C   0  0  0  0  0  0  0  0  0  0  0  0
   10.2940    2.3920   23.5900 C   0  0  0  0  0  0  0  0  0  0  0  0
    9.1880    2.3970   24.1150 O   0  0  0  0  0  0  0  0  0  0  0  0
   11.2620    1.3900   23.8580 N   0  0  0  0  0  0  0  0  0  0  0  0
   12.0810    0.5520   23.0080 C   0  0  0  0  0  0  0  0  0  0  0  0
   11.2900   -0.6640   22.5080 C   0  0  0  0  0  0  0  0  0  0  0  0
    9.8450   -0.3860   22.8020 C   0  0  0  0  0  0  0  0  0  0  0  0
    9.0090   -1.1850   21.9920 N   0  0  0  0  0  0  0  0  0  0  0  0
    8.2030   -0.3650   21.2650 C   0  0  0  0  0  0  0  0  0  0  0  0
    8.4950    0.7940   21.0040 O   0  0  0  0  0  0  0  0  0  0  0  0
    7.0310   -0.9050   20.8560 N   0  0  0  0  0  0  0  0  0  0  0  0
    6.2830   -0.1390   19.9670 C   0  0  0  0  0  0  0  0  0  0  0  0
    4.9570    0.5550   20.2590 C   0  0  0  0  0  0  0  0  0  0  0  0
    4.4180    1.3380   19.0740 C   0  0  0  0  0  0  0  0  0  0  0  0
    5.1420    1.3500   17.8920 C   0  0  0  0  0  0  0  0  0  0  0  0
    6.3060    0.7090   17.6920 N   0  0  0  0  0  0  0  0  0  0  0  0
    6.8270    0.0030   18.7060 C   0  0  0  0  0  0  0  0  0  0  0  0
    9.6160   -0.2890   24.1370 C   0  0  0  0  0  0  0  0  0  0  0  0
   10.5400    0.5130   24.7140 C   0  0  0  0  0  0  0  0  0  0  0  0
  1  2  1  0
  2  3  1  0
  2  4  1  0
  4  5  1  0
  5  6  2  0
  5  7  1  0
  7  8  1  0
  8  9  1  0
  9 10  1  0
 10 11  1  0
 11 12  1  0
 12 13  2  0
 12 14  1  0
 14 15  1  0
 15 16  2  0
 16 17  1  0
 17 18  2  0
 18 19  1  0
 15 20  1  0
 19 20  2  0
 10 21  1  0
  7 22  1  0
 21 22  1  0
M  END
