pyridine_urea_13578
     RDKit          3D

 28 30  0  0  0  0  0  0  0  0999 V2000
   12.0460    8.1970   26.7170 C   0  0  0  0  0  0  0  0  0  0  0  0
   12.2450    7.8400   25.4110 N   0  0  0  0  0  0  0  0  0  0  0  0
   11.2900    7.3170   24.5420 C   0  0  0  0  0  0  0  0  0  0  0  0
    9.9520    7.8080   24.3460 O   0  0  0  0  0  0  0  0  0  0  0  0
   11.6050    6.1070   23.6680 C   0  0  0  0  0  0  0  0  0  0  0  0
   10.8140    4.8460   23.9290 C   0  0  0  0  0  0  0  0  0  0  0  0
   11.1250    3.6720   23.0860 C   0  0  0  0  0  0  0  0  0  0  0  0
   10.3580    2.4990   23.3660 O   0  0  0  0  0  0  0  0  0  0  0  0
   10.8050    1.1860   22.9690 C   0  0  0  0  0  0  0  0  0  0  0  0
    9.7880    0.3740   22.7320 C   0  0  0  0  0  0  0  0  0  0  0  0
    9.9560   -0.9300   22.3310 C   0  0  0  0  0  0  0  0  0  0  0  0
    8.7830   -1.5260   22.0990 N   0  0  0  0  0  0  0  0  0  0  0  0
    7.9640   -0.6550   21.3590 C   0  0  0  0  0  0  0  0  0  0  0  0
    8.3220    0.6810   20.9970 O   0  0  0  0  0  0  0  0  0  0  0  0
    6.7750   -1.0960   20.9600 N   0  0  0  0  0  0  0  0  0  0  0  0
    6.2580   -0.3000   19.9870 C   0  0  0  0  0  0  0  0  0  0  0  0
    5.0700    0.4150   20.2590 C   0  0  0  0  0  0  0  0  0  0  0  0
    4.4470    1.2820   19.3050 C   0  0  0  0  0  0  0  0  0  0  0  0
    5.2510    1.3010   18.0070 C   0  0  0  0  0  0  0  0  0  0  0  0
    6.3740    0.6180   17.7670 N   0  0  0  0  0  0  0  0  0  0  0  0
    6.8480   -0.1590   18.7480 C   0  0  0  0  0  0  0  0  0  0  0  0
   11.3620   -1.5420   22.1610 C   0  0  0  0  0  0  0  0  0  0  0  0
   12.3640   -0.6190   22.4290 C   0  0  0  0  0  0  0  0  0  0  0  0
   12.0600    0.6740   22.7990 C   0  0  0  0  0  0  0  0  0  0  0  0
   13.1670    1.5620   23.0180 C   0  0  0  0  0  0  0  0  0  0  0  0
   12.1100    3.8220   22.1300 C   0  0  0  0  0  0  0  0  0  0  0  0
   12.7800    5.0500   21.9830 C   0  0  0  0  0  0  0  0  0  0  0  0
   12.5670    6.1760   22.7070 N   0  0  0  0  0  0  0  0  0  0  0  0
  1  2  1  0
  2  3  1  0
  3  4  2  0
  3  5  1  0
  5  6  2  0
  6  7  1  0
  7  8  1  0
  8  9  1  0
  9 10  2  0
 10 11  1  0
 11 12  1  0
 12 13  1  0
 13 14  2  0
 13 15  1  0
 15 16  1  0
 16 17  2  0
 17 18  1  0
 18 19  2  0
 19 20  1  0
 16 21  1  0
 20 21  2  0
 11 22  2  0
 22 23  1  0
  9 24  1  0
 23 24  2  0
 24 25  1  0
  7 26  2  0
 26 27  1  0
  5 28  1  0
 27 28  2  0
M  END
