pyridine_urea_13981
     RDKit          3D

 24 26  0  0  0  0  0  0  0  0999 V2000
   13.2200   -0.4490   23.8630 N   0  0  0  0  0  0  0  0  0  0  0  0
   13.1580    0.5030   23.1940 C   0  0  0  0  0  0  0  0  0  0  0  0
   13.5520   -0.1430   21.9980 O   0  0  0  0  0  0  0  0  0  0  0  0
   12.9320    1.6730   22.9430 C   0  0  0  0  0  0  0  0  0  0  0  0
   13.2070    3.2010   22.6350 C   0  0  0  0  0  0  0  0  0  0  0  0
   12.1990    4.2430   22.3940 C   0  0  0  0  0  0  0  0  0  0  0  0
   10.9290    3.8750   22.4390 C   0  0  0  0  0  0  0  0  0  0  0  0
   10.4500    2.4860   22.7060 C   0  0  0  0  0  0  0  0  0  0  0  0
   11.5380    1.4830   22.9380 C   0  0  0  0  0  0  0  0  0  0  0  0
   10.9970    0.2000   23.1950 N   0  0  0  0  0  0  0  0  0  0  0  0
    9.6110    0.2050   23.4710 C   0  0  0  0  0  0  0  0  0  0  0  0
    9.4370   -1.2290   23.6210 C   0  0  0  0  0  0  0  0  0  0  0  0
    9.8560   -1.7800   22.4450 C   0  0  1  0  0  0  0  0  0  0  0  0
    9.2600   -1.4220   21.2980 N   0  0  0  0  0  0  0  0  0  0  0  0
    8.3840   -0.3910   21.2310 C   0  0  0  0  0  0  0  0  0  0  0  0
    8.6840    0.9320   21.2700 O   0  0  0  0  0  0  0  0  0  0  0  0
    6.9470   -0.6930   21.0660 N   0  0  0  0  0  0  0  0  0  0  0  0
    6.2890    0.0180   20.0670 C   0  0  0  0  0  0  0  0  0  0  0  0
    4.9940    0.7210   20.5480 C   0  0  0  0  0  0  0  0  0  0  0  0
    4.5960    1.3680   19.2230 C   0  0  0  0  0  0  0  0  0  0  0  0
    5.3070    1.2880   17.9240 C   0  0  0  0  0  0  0  0  0  0  0  0
    6.4070    0.6280   17.7260 N   0  0  0  0  0  0  0  0  0  0  0  0
    6.8470    0.0240   18.7940 C   0  0  0  0  0  0  0  0  0  0  0  0
   11.2570   -1.0700   22.5910 C   0  0  0  0  0  0  0  0  0  0  0  0
  1  2  1  0
  2  3  2  0
  2  4  1  0
  4  5  2  0
  5  6  1  0
  6  7  2  0
  7  8  1  0
  4  9  1  0
  8  9  2  0
  9 10  1  0
 10 11  1  0
 11 12  1  0
 12 13  1  0
 13 14  1  6
 14 15  1  0
 15 16  2  0
 15 17  1  0
 17 18  1  0
 18 19  2  0
 19 20  1  0
 20 21  2  0
 21 22  1  0
 18 23  1  0
 22 23  2  0
 10 24  1  0
 13 24  1  0
M  END
