pyridine_urea_2858
     RDKit          3D

 22 24  0  0  0  0  0  0  0  0999 V2000
   12.9940   -0.7050   25.2900 C   0  0  0  0  0  0  0  0  0  0  0  0
   12.0420   -0.9680   24.2960 C   0  0  0  0  0  0  0  0  0  0  0  0
   12.7660   -1.3680   23.0780 C   0  0  0  0  0  0  0  0  0  0  0  0
   12.0750   -1.7020   22.0140 C   0  0  0  0  0  0  0  0  0  0  0  0
   10.5410   -1.7490   21.8470 C   0  0  0  0  0  0  0  0  0  0  0  0
    9.2060   -1.7050   21.9640 C   0  0  0  0  0  0  0  0  0  0  0  0
    8.7650   -0.9900   20.8170 N   0  0  0  0  0  0  0  0  0  0  0  0
    8.1060    0.2330   21.1410 C   0  0  0  0  0  0  0  0  0  0  0  0
    8.6640    1.3350   21.1890 O   0  0  0  0  0  0  0  0  0  0  0  0
    6.7500   -0.0890   21.3240 N   0  0  0  0  0  0  0  0  0  0  0  0
    6.2000    0.3980   20.1780 C   0  0  0  0  0  0  0  0  0  0  0  0
    4.9180    1.1740   20.2990 C   0  0  0  0  0  0  0  0  0  0  0  0
    4.3640    1.7190   19.0210 C   0  0  0  0  0  0  0  0  0  0  0  0
    5.1380    1.4370   17.7570 C   0  0  0  0  0  0  0  0  0  0  0  0
    6.2750    0.7190   17.7400 N   0  0  0  0  0  0  0  0  0  0  0  0
    6.7660    0.2280   18.9090 C   0  0  0  0  0  0  0  0  0  0  0  0
   10.0290   -1.2990   23.1430 C   0  0  0  0  0  0  0  0  0  0  0  0
    8.6020   -1.2410   23.2390 C   0  0  0  0  0  0  0  0  0  0  0  0
    7.9080   -0.8220   24.3880 C   0  0  0  0  0  0  0  0  0  0  0  0
    8.6180   -0.4470   25.4870 C   0  0  0  0  0  0  0  0  0  0  0  0
    9.9970   -0.5000   25.4380 C   0  0  0  0  0  0  0  0  0  0  0  0
   10.7080   -0.9110   24.3190 C   0  0  0  0  0  0  0  0  0  0  0  0
  1  2  1  0
  2  3  2  0
  3  4  1  0
  4  5  2  0
  5  6  1  0
  6  7  1  0
  7  8  1  0
  8  9  2  0
  8 10  1  0
 10 11  1  0
 11 12  2  0
 12 13  1  0
 13 14  2  0
 14 15  1  0
 11 16  1  0
 15 16  2  0
  5 17  1  0
 17 18  1  0
 18 19  2  0
 19 20  1  0
 20 21  2  0
  2 22  1  0
 17 22  2  0
 21 22  1  0
M  END
