pyridine_urea_5529
     RDKit          3D

 17 18  0  0  0  0  0  0  0  0999 V2000
   10.3850   -1.4190   21.5760 C   0  0  0  0  0  0  0  0  0  0  0  0
   10.4100   -0.3910   22.6460 C   0  0  1  0  0  0  0  0  0  0  0  0
    9.0230   -0.2410   23.0070 N   0  0  0  0  0  0  0  0  0  0  0  0
    8.4110    0.3100   21.7700 C   0  0  0  0  0  0  0  0  0  0  0  0
    8.8430    1.3480   21.2400 O   0  0  0  0  0  0  0  0  0  0  0  0
    7.2560   -0.5320   21.2730 N   0  0  0  0  0  0  0  0  0  0  0  0
    6.5530    0.0770   20.1390 C   0  0  0  0  0  0  0  0  0  0  0  0
    5.2700    0.8960   20.3880 C   0  0  0  0  0  0  0  0  0  0  0  0
    4.6310    1.4810   19.3040 C   0  0  0  0  0  0  0  0  0  0  0  0
    5.1960    1.3110   17.9110 C   0  0  0  0  0  0  0  0  0  0  0  0
    6.3350    0.5660   17.7410 N   0  0  0  0  0  0  0  0  0  0  0  0
    6.9990   -0.0410   18.8220 C   0  0  0  0  0  0  0  0  0  0  0  0
   11.3170   -1.0900   23.5790 C   0  0  0  0  0  0  0  0  0  0  0  0
   12.6720   -0.4050   23.8350 C   0  0  0  0  0  0  0  0  0  0  0  0
   13.1500   -1.7970   24.8830 S   0  0  0  0  0  0  0  0  0  0  0  0
   11.8210   -2.7690   24.8140 N   0  0  0  0  0  0  0  0  0  0  0  0
   10.8530   -2.2640   24.0560 N   0  0  0  0  0  0  0  0  0  0  0  0
  2  1  1  6
  2  3  1  0
  3  4  1  0
  4  5  2  0
  4  6  1  0
  6  7  1  0
  7  8  2  0
  8  9  1  0
  9 10  2  0
 10 11  1  0
  7 12  1  0
 11 12  2  0
  2 13  1  0
 13 14  2  0
 14 15  1  0
 15 16  1  0
 13 17  1  0
 16 17  2  0
M  END
