pyridine_urea_7721
     RDKit          3D

 19 20  0  0  0  0  0  0  0  0999 V2000
    8.7860   -0.1860   26.3080 C   0  0  0  0  0  0  0  0  0  0  0  0
    9.3410    0.3160   25.3290 O   0  0  0  0  0  0  0  0  0  0  0  0
   10.3310   -0.4900   24.9010 C   0  0  0  0  0  0  0  0  0  0  0  0
   10.7370   -0.2810   23.5770 C   0  0  1  0  0  0  0  0  0  0  0  0
   10.0580   -0.9790   22.6030 C   0  0  0  0  0  0  0  0  0  0  0  0
    8.6850   -0.5080   22.5820 N   0  0  0  0  0  0  0  0  0  0  0  0
    8.2010    0.0900   21.4790 C   0  0  0  0  0  0  0  0  0  0  0  0
    8.6440    1.1670   21.0460 O   0  0  0  0  0  0  0  0  0  0  0  0
    7.1850   -0.5930   20.9190 N   0  0  0  0  0  0  0  0  0  0  0  0
    6.4410    0.0850   20.0220 C   0  0  0  0  0  0  0  0  0  0  0  0
    5.2670    0.7780   20.2940 C   0  0  0  0  0  0  0  0  0  0  0  0
    4.5840    1.4950   19.1360 C   0  0  0  0  0  0  0  0  0  0  0  0
    5.1830    1.4050   17.8840 C   0  0  0  0  0  0  0  0  0  0  0  0
    6.3120    0.7160   17.6710 N   0  0  0  0  0  0  0  0  0  0  0  0
    6.8840    0.0960   18.7200 C   0  0  0  0  0  0  0  0  0  0  0  0
   11.0920    1.0870   23.5600 C   0  0  0  0  0  0  0  0  0  0  0  0
   12.3620    1.2490   23.1330 C   0  0  0  0  0  0  0  0  0  0  0  0
   12.8600   -0.0260   22.9760 C   0  0  0  0  0  0  0  0  0  0  0  0
   12.0780   -0.8750   23.3970 O   0  0  0  0  0  0  0  0  0  0  0  0
  1  2  1  0
  2  3  1  0
  4  3  1  1
  4  5  1  0
  5  6  1  0
  6  7  1  0
  7  8  2  0
  7  9  1  0
  9 10  1  0
 10 11  2  0
 11 12  1  0
 12 13  2  0
 13 14  1  0
 10 15  1  0
 14 15  2  0
  4 16  1  0
 16 17  1  0
 17 18  1  0
  4 19  1  0
 18 19  1  0
M  END
