pyridine_urea_8882
     RDKit          3D

 20 22  0  0  0  0  0  0  0  0999 V2000
    9.0320    1.3380   21.2260 O   0  0  0  0  0  0  0  0  0  0  0  0
    8.6220    0.2250   21.5720 C   0  0  0  0  0  0  0  0  0  0  0  0
    9.2670   -0.5070   22.5370 N   0  0  0  0  0  0  0  0  0  0  0  0
    9.3150   -1.9480   22.4940 C   0  0  0  0  0  0  0  0  0  0  0  0
    8.1420   -2.5020   23.3100 C   0  0  0  0  0  0  0  0  0  0  0  0
    7.4270   -1.6280   24.1540 N   0  0  0  0  0  0  0  0  0  0  0  0
    6.3790   -2.2440   24.8460 C   0  0  0  0  0  0  0  0  0  0  0  0
    6.0400   -3.5660   24.7450 C   0  0  0  0  0  0  0  0  0  0  0  0
    6.7670   -4.2840   23.9350 C   0  0  0  0  0  0  0  0  0  0  0  0
    7.7610   -3.8350   23.2470 N   0  0  0  0  0  0  0  0  0  0  0  0
    6.3820   -5.5800   23.8780 C   0  0  0  0  0  0  0  0  0  0  0  0
    5.3450   -5.6010   24.8540 C   0  0  0  0  0  0  0  0  0  0  0  0
    5.0440   -4.3050   25.3520 C   0  0  0  0  0  0  0  0  0  0  0  0
    7.4930   -0.4040   21.0780 N   0  0  0  0  0  0  0  0  0  0  0  0
    6.6930    0.1450   20.0700 C   0  0  0  0  0  0  0  0  0  0  0  0
    5.5450    0.8830   20.4170 C   0  0  0  0  0  0  0  0  0  0  0  0
    4.7480    1.4620   19.3000 C   0  0  0  0  0  0  0  0  0  0  0  0
    5.1360    1.2740   18.0090 C   0  0  0  0  0  0  0  0  0  0  0  0
    6.2290    0.5580   17.7060 N   0  0  0  0  0  0  0  0  0  0  0  0
    6.9620    0.0210   18.7170 C   0  0  0  0  0  0  0  0  0  0  0  0
  1  2  2  0
  2  3  1  0
  3  4  1  0
  4  5  1  0
  5  6  2  0
  6  7  1  0
  7  8  2  0
  8  9  1  0
  5 10  1  0
  9 10  2  0
  9 11  1  0
 11 12  1  0
  8 13  1  0
 12 13  1  0
  2 14  1  0
 14 15  1  0
 15 16  2  0
 16 17  1  0
 17 18  2  0
 18 19  1  0
 15 20  1  0
 19 20  2  0
M  END
