pyridine_urea_7672
     RDKit          3D

 17 18  0  0  0  0  0  0  0  0999 V2000
    8.7650    0.8690   21.4130 O   0  0  0  0  0  0  0  0  0  0  0  0
    8.3920   -0.2910   21.4920 C   0  0  0  0  0  0  0  0  0  0  0  0
    7.1830   -0.7470   21.0350 N   0  0  0  0  0  0  0  0  0  0  0  0
    6.4870   -0.0730   20.0190 C   0  0  0  0  0  0  0  0  0  0  0  0
    5.3050    0.6200   20.3150 C   0  0  0  0  0  0  0  0  0  0  0  0
    4.6270    1.3040   19.3020 C   0  0  0  0  0  0  0  0  0  0  0  0
    5.1550    1.2690   18.0290 C   0  0  0  0  0  0  0  0  0  0  0  0
    6.2800    0.6060   17.7230 N   0  0  0  0  0  0  0  0  0  0  0  0
    6.9150   -0.0440   18.7160 C   0  0  0  0  0  0  0  0  0  0  0  0
    9.1960   -1.2610   22.0570 N   0  0  0  0  0  0  0  0  0  0  0  0
   10.5600   -0.7780   22.3180 C   0  0  2  0  0  0  0  0  0  0  0  0
   11.6820   -1.6950   21.9270 C   0  0  0  0  0  0  0  0  0  0  0  0
   12.7910   -1.1580   22.5580 C   0  0  0  0  0  0  0  0  0  0  0  0
   12.2590   -0.3150   23.5590 C   0  0  0  0  0  0  0  0  0  0  0  0
   10.8340   -0.4560   23.6090 C   0  0  2  0  0  0  0  0  0  0  0  0
   10.4390   -1.5980   24.3090 C   0  0  0  0  0  0  0  0  0  0  0  0
    9.2660   -1.6780   24.6310 O   0  0  0  0  0  0  0  0  0  0  0  0
  1  2  2  0
  2  3  1  0
  3  4  1  0
  4  5  2  0
  5  6  1  0
  6  7  2  0
  7  8  1  0
  4  9  1  0
  8  9  2  0
  2 10  1  0
 11 10  1  1
 11 12  1  0
 12 13  1  0
 13 14  1  0
 11 15  1  0
 14 15  1  0
 15 16  1  1
 16 17  1  0
M  END
