pyridine_urea_5773
     RDKit          3D

 25 28  0  0  0  0  0  0  0  0999 V2000
    8.6820    0.5080   21.1350 O   0  0  0  0  0  0  0  0  0  0  0  0
    8.3900   -0.6130   21.5240 C   0  0  0  0  0  0  0  0  0  0  0  0
    9.3260   -1.3620   22.4030 N   0  0  0  0  0  0  0  0  0  0  0  0
   10.3770   -0.4740   22.5890 C   0  0  0  0  0  0  0  0  0  0  0  0
    9.8270    0.7630   22.7980 C   0  0  0  0  0  0  0  0  0  0  0  0
   10.5780    1.8680   22.9460 C   0  0  0  0  0  0  0  0  0  0  0  0
   11.9330    1.8430   22.9060 C   0  0  0  0  0  0  0  0  0  0  0  0
   12.4270    3.2650   23.0420 C   0  0  0  0  0  0  0  0  0  0  0  0
   13.6630    3.7560   22.7430 N   0  0  0  0  0  0  0  0  0  0  0  0
   13.7420    5.1330   22.9820 N   0  0  0  0  0  0  0  0  0  0  0  0
   12.3930    5.4130   23.4630 C   0  0  0  0  0  0  0  0  0  0  0  0
   11.6900    4.3390   23.4790 N   0  0  0  0  0  0  0  0  0  0  0  0
   10.3600    4.4310   23.9090 C   0  0  0  0  0  0  0  0  0  0  0  0
    9.9870    5.7580   24.0980 C   0  0  0  0  0  0  0  0  0  0  0  0
   10.8550    6.4920   24.5880 O   0  0  0  0  0  0  0  0  0  0  0  0
   11.9920    6.6960   23.8330 C   0  0  0  0  0  0  0  0  0  0  0  0
   12.6200    0.4820   22.7230 C   0  0  0  0  0  0  0  0  0  0  0  0
   11.7870   -0.6500   22.5640 C   0  0  0  0  0  0  0  0  0  0  0  0
    7.1770   -1.0490   21.0770 N   0  0  0  0  0  0  0  0  0  0  0  0
    6.5120   -0.3300   20.1170 C   0  0  0  0  0  0  0  0  0  0  0  0
    5.3160    0.3410   20.4320 C   0  0  0  0  0  0  0  0  0  0  0  0
    4.6710    1.0770   19.4330 C   0  0  0  0  0  0  0  0  0  0  0  0
    5.2120    1.1370   18.1590 C   0  0  0  0  0  0  0  0  0  0  0  0
    6.3440    0.5080   17.8250 N   0  0  0  0  0  0  0  0  0  0  0  0
    6.9610   -0.2070   18.8020 C   0  0  0  0  0  0  0  0  0  0  0  0
  1  2  2  0
  2  3  1  0
  3  4  1  0
  4  5  2  0
  5  6  1  0
  6  7  2  0
  7  8  1  0
  8  9  2  0
  9 10  1  0
 10 11  2  0
  8 12  1  0
 11 12  1  0
 12 13  1  0
 13 14  1  0
 14 15  1  0
 11 16  1  0
 15 16  1  0
  7 17  1  0
  4 18  1  0
 17 18  2  0
  2 19  1  0
 19 20  1  0
 20 21  2  0
 21 22  1  0
 22 23  2  0
 23 24  1  0
 20 25  1  0
 24 25  2  0
M  END
