pyridine_urea_7954
     RDKit          3D

 25 27  0  0  0  0  0  0  0  0999 V2000
    8.2860   -1.0590   20.1960 O   0  0  0  0  0  0  0  0  0  0  0  0
    7.9860   -0.1920   20.9390 C   0  0  0  0  0  0  0  0  0  0  0  0
    6.7530    0.2530   21.1050 N   0  0  0  0  0  0  0  0  0  0  0  0
    6.1680    0.7020   19.9680 C   0  0  0  0  0  0  0  0  0  0  0  0
    5.0120    1.4430   20.0560 C   0  0  0  0  0  0  0  0  0  0  0  0
    4.4540    1.9160   18.8920 C   0  0  0  0  0  0  0  0  0  0  0  0
    5.0850    1.6170   17.7040 C   0  0  0  0  0  0  0  0  0  0  0  0
    6.2000    0.8840   17.5940 N   0  0  0  0  0  0  0  0  0  0  0  0
    6.7180    0.4410   18.7320 C   0  0  0  0  0  0  0  0  0  0  0  0
    8.9070    0.4120   21.6920 N   0  0  0  0  0  0  0  0  0  0  0  0
    9.3240   -0.6660   22.4650 C   0  0  0  0  0  0  0  0  0  0  0  0
    8.6650   -0.5250   23.7890 C   0  0  0  0  0  0  0  0  0  0  0  0
    9.1220   -1.4610   24.6410 C   0  0  0  0  0  0  0  0  0  0  0  0
    9.3750   -2.6330   23.9460 N   0  0  0  0  0  0  0  0  0  0  0  0
    8.3570   -3.5350   23.8360 C   0  0  0  0  0  0  0  0  0  0  0  0
    8.0290   -4.1770   25.0340 C   0  0  0  0  0  0  0  0  0  0  0  0
    8.9670   -4.9280   25.7420 C   0  0  0  0  0  0  0  0  0  0  0  0
    8.7030   -5.5850   26.9450 C   0  0  0  0  0  0  0  0  0  0  0  0
    7.4160   -5.4860   27.4730 C   0  0  0  0  0  0  0  0  0  0  0  0
    7.0570   -6.0820   28.6320 F   0  0  0  0  0  0  0  0  0  0  0  0
    6.4610   -4.7430   26.7780 C   0  0  0  0  0  0  0  0  0  0  0  0
    5.2120   -4.6680   27.3200 F   0  0  0  0  0  0  0  0  0  0  0  0
    6.7390   -4.0890   25.5760 C   0  0  0  0  0  0  0  0  0  0  0  0
   10.2460   -2.5620   22.7700 C   0  0  0  0  0  0  0  0  0  0  0  0
   10.5150   -1.3350   22.2850 C   0  0  0  0  0  0  0  0  0  0  0  0
  1  2  2  0
  2  3  1  0
  3  4  1  0
  4  5  2  0
  5  6  1  0
  6  7  2  0
  7  8  1  0
  4  9  1  0
  8  9  2  0
  2 10  1  0
 10 11  1  0
 11 12  1  0
 12 13  1  0
 13 14  1  0
 14 15  1  0
 15 16  1  0
 16 17  2  0
 17 18  1  0
 18 19  2  0
 19 20  1  0
 19 21  1  0
 21 22  1  0
 16 23  1  0
 21 23  2  0
 14 24  1  0
 11 25  1  0
 24 25  1  0
M  END
