pyridine_urea_10522
     RDKit          3D

 21 22  0  0  0  0  0  0  0  0999 V2000
   12.7580   -1.9990   24.9060 C   0  0  0  0  0  0  0  0  0  0  0  0
   11.6890   -1.0650   25.1420 O   0  0  0  0  0  0  0  0  0  0  0  0
   10.5500   -1.2630   24.3850 C   0  0  0  0  0  0  0  0  0  0  0  0
   10.1110   -2.3890   24.1300 O   0  0  0  0  0  0  0  0  0  0  0  0
    9.8940    0.0460   23.9010 C   0  0  2  0  0  0  0  0  0  0  0  0
    8.9330   -0.4010   22.7940 N   0  0  0  0  0  0  0  0  0  0  0  0
    8.5010    0.3200   21.6870 C   0  0  0  0  0  0  0  0  0  0  0  0
    9.0490    1.3550   21.2890 O   0  0  0  0  0  0  0  0  0  0  0  0
    7.3900   -0.2890   21.1340 N   0  0  0  0  0  0  0  0  0  0  0  0
    6.6380    0.2290   20.0720 C   0  0  0  0  0  0  0  0  0  0  0  0
    5.5050    0.9800   20.3610 C   0  0  0  0  0  0  0  0  0  0  0  0
    4.7710    1.5070   19.3130 C   0  0  0  0  0  0  0  0  0  0  0  0
    5.1730    1.2800   18.0120 C   0  0  0  0  0  0  0  0  0  0  0  0
    6.2490    0.5560   17.6990 N   0  0  0  0  0  0  0  0  0  0  0  0
    6.9590    0.0430   18.7340 C   0  0  0  0  0  0  0  0  0  0  0  0
   11.0140    0.9810   23.3840 C   0  0  0  0  0  0  0  0  0  0  0  0
   10.9430   -0.3070   23.2630 C   0  0  0  0  0  0  0  0  0  0  0  0
   11.5750   -1.2840   22.7720 C   0  0  0  0  0  0  0  0  0  0  0  0
   12.5260   -0.6350   22.2970 N   0  0  0  0  0  0  0  0  0  0  0  0
   13.4470   -1.3100   21.6580 C   0  0  0  0  0  0  0  0  0  0  0  0
   12.3440    0.7670   22.5960 N   0  0  0  0  0  0  0  0  0  0  0  0
  1  2  1  0
  2  3  1  0
  3  4  2  0
  3  5  1  0
  5  6  1  6
  6  7  1  0
  7  8  2  0
  7  9  1  0
  9 10  1  0
 10 11  2  0
 11 12  1  0
 12 13  2  0
 13 14  1  0
 10 15  1  0
 14 15  2  0
  5 16  1  0
 16 17  1  0
 17 18  2  0
 18 19  1  0
 19 20  1  0
 16 21  2  0
 19 21  1  0
M  END
