pyridine_urea_13801
     RDKit          3D

 25 27  0  0  0  0  0  0  0  0999 V2000
    9.5740   -0.3590   21.0880 O   0  0  0  0  0  0  0  0  0  0  0  0
    8.7940   -0.9060   21.7460 C   0  0  0  0  0  0  0  0  0  0  0  0
    9.2650   -1.5670   22.8870 N   0  0  0  0  0  0  0  0  0  0  0  0
   10.6740   -1.4300   23.4260 C   0  0  0  0  0  0  0  0  0  0  0  0
   11.9050   -1.5330   22.4340 C   0  0  0  0  0  0  0  0  0  0  0  0
   13.2100   -0.6800   22.6270 C   0  0  0  0  0  0  0  0  0  0  0  0
   13.6150    0.0150   21.4510 N   0  0  0  0  0  0  0  0  0  0  0  0
   13.8540   -0.7720   20.5080 C   0  0  0  0  0  0  0  0  0  0  0  0
   13.5280   -1.9420   20.6140 O   0  0  0  0  0  0  0  0  0  0  0  0
   14.4990   -0.1170   19.4810 N   0  0  0  0  0  0  0  0  0  0  0  0
   14.9220    1.1630   19.7470 C   0  0  0  0  0  0  0  0  0  0  0  0
   16.0820    1.8430   19.1420 C   0  0  0  0  0  0  0  0  0  0  0  0
   15.5840    2.2240   17.9860 C   0  0  0  0  0  0  0  0  0  0  0  0
   15.4100    3.5780   18.5810 C   0  0  0  0  0  0  0  0  0  0  0  0
   14.2820    3.3730   19.1010 C   0  0  0  0  0  0  0  0  0  0  0  0
   14.5850    2.1200   18.8260 C   0  0  0  0  0  0  0  0  0  0  0  0
   14.3330    1.2890   21.1520 C   0  0  0  0  0  0  0  0  0  0  0  0
   14.4280    2.4270   21.9980 O   0  0  0  0  0  0  0  0  0  0  0  0
    7.4160   -0.9550   21.4620 N   0  0  0  0  0  0  0  0  0  0  0  0
    6.6920   -0.2370   20.4270 C   0  0  0  0  0  0  0  0  0  0  0  0
    5.4730    0.6120   20.6400 C   0  0  0  0  0  0  0  0  0  0  0  0
    4.8340    1.2910   19.4660 C   0  0  0  0  0  0  0  0  0  0  0  0
    5.3910    1.1170   18.2080 C   0  0  0  0  0  0  0  0  0  0  0  0
    6.4900    0.3530   18.0100 N   0  0  0  0  0  0  0  0  0  0  0  0
    7.0950   -0.2890   19.0740 C   0  0  0  0  0  0  0  0  0  0  0  0
  1  2  2  0
  2  3  1  0
  3  4  1  0
  4  5  1  0
  5  6  1  0
  6  7  1  0
  7  8  1  0
  8  9  2  0
  8 10  1  0
 10 11  1  0
 11 12  1  0
 12 13  1  0
 13 14  1  0
 14 15  1  0
 11 16  1  0
 15 16  1  0
  7 17  1  0
 11 17  1  0
 17 18  2  0
  2 19  1  0
 19 20  1  0
 20 21  2  0
 21 22  1  0
 22 23  2  0
 23 24  1  0
 20 25  1  0
 24 25  2  0
M  END
