pyridine_urea_13177
     RDKit          3D

 17 18  0  0  0  0  0  0  0  0999 V2000
   13.1020   -1.7580   21.6570 C   0  0  0  0  0  0  0  0  0  0  0  0
   13.4030   -0.4590   22.1810 O   0  0  0  0  0  0  0  0  0  0  0  0
   13.0250   -0.1410   23.4650 C   0  0  0  0  0  0  0  0  0  0  0  0
   11.7480   -0.3690   23.9350 C   0  0  2  0  0  0  0  0  0  0  0  0
   11.1020   -1.3310   23.2610 C   0  0  0  0  0  0  0  0  0  0  0  0
   10.3210   -0.3810   22.7230 C   0  0  1  0  0  0  0  0  0  0  0  0
    8.9560   -0.5520   22.5320 N   0  0  0  0  0  0  0  0  0  0  0  0
    8.3380    0.1570   21.5310 C   0  0  0  0  0  0  0  0  0  0  0  0
    8.7330    1.2690   21.1480 O   0  0  0  0  0  0  0  0  0  0  0  0
    7.2400   -0.5020   21.0160 N   0  0  0  0  0  0  0  0  0  0  0  0
    6.4630    0.1110   20.0340 C   0  0  0  0  0  0  0  0  0  0  0  0
    5.1470    0.8560   20.2590 C   0  0  0  0  0  0  0  0  0  0  0  0
    4.5260    1.4280   19.1550 C   0  0  0  0  0  0  0  0  0  0  0  0
    5.1300    1.2920   17.9190 C   0  0  0  0  0  0  0  0  0  0  0  0
    6.2820    0.6310   17.6970 N   0  0  0  0  0  0  0  0  0  0  0  0
    6.9130    0.0630   18.7360 C   0  0  0  0  0  0  0  0  0  0  0  0
   10.6940    0.6980   23.6060 C   0  0  0  0  0  0  0  0  0  0  0  0
  1  2  1  0
  2  3  1  0
  4  3  1  6
  4  5  1  0
  5  6  1  0
  6  7  1  1
  7  8  1  0
  8  9  2  0
  8 10  1  0
 10 11  1  0
 11 12  2  0
 12 13  1  0
 13 14  2  0
 14 15  1  0
 11 16  1  0
 15 16  2  0
  4 17  1  0
  6 17  1  0
M  END
