pyridine_urea_8091
     RDKit          3D

 24 25  0  0  0  0  0  0  0  0999 V2000
   12.4330    3.5160   22.5880 C   0  0  0  0  0  0  0  0  0  0  0  0
   11.2340    2.7540   22.5330 O   0  0  0  0  0  0  0  0  0  0  0  0
   11.3090    1.5510   23.3180 C   0  0  0  0  0  0  0  0  0  0  0  0
   12.2950    1.1130   23.8900 O   0  0  0  0  0  0  0  0  0  0  0  0
    9.8880    0.8350   23.3420 C   0  0  0  0  0  0  0  0  0  0  0  0
    9.8470   -0.3140   22.6560 C   0  0  1  0  0  0  0  0  0  0  0  0
    8.9710   -0.6670   21.6860 N   0  0  0  0  0  0  0  0  0  0  0  0
    8.0610    0.1000   21.1250 C   0  0  0  0  0  0  0  0  0  0  0  0
    8.3290    1.2750   20.8440 O   0  0  0  0  0  0  0  0  0  0  0  0
    6.9050   -0.5240   20.9220 N   0  0  0  0  0  0  0  0  0  0  0  0
    6.2700    0.1200   19.9670 C   0  0  0  0  0  0  0  0  0  0  0  0
    4.9660    0.8970   20.1480 C   0  0  0  0  0  0  0  0  0  0  0  0
    4.2910    1.6520   19.0100 C   0  0  0  0  0  0  0  0  0  0  0  0
    5.1230    1.4860   17.7500 C   0  0  0  0  0  0  0  0  0  0  0  0
    6.2760    0.7650   17.6580 N   0  0  0  0  0  0  0  0  0  0  0  0
    6.8380    0.0980   18.7230 C   0  0  0  0  0  0  0  0  0  0  0  0
   11.2400   -0.2290   22.2690 C   0  0  0  0  0  0  0  0  0  0  0  0
   12.7360   -0.5430   22.2630 C   0  0  0  0  0  0  0  0  0  0  0  0
   13.3640   -1.4280   23.0100 C   0  0  0  0  0  0  0  0  0  0  0  0
   12.7430   -2.1540   23.8770 C   0  0  0  0  0  0  0  0  0  0  0  0
   13.5760   -3.2820   24.8000 S   0  0  0  0  0  0  0  0  0  0  0  0
   14.4160   -2.5960   26.1130 C   0  0  0  0  0  0  0  0  0  0  0  0
   11.3710   -1.9760   23.9960 C   0  0  0  0  0  0  0  0  0  0  0  0
   10.7870   -1.0960   23.2390 C   0  0  0  0  0  0  0  0  0  0  0  0
  1  2  1  0
  2  3  1  0
  3  4  2  0
  3  5  1  0
  6  5  1  6
  6  7  1  0
  7  8  1  0
  8  9  2  0
  8 10  1  0
 10 11  1  0
 11 12  2  0
 12 13  1  0
 13 14  2  0
 14 15  1  0
 11 16  1  0
 15 16  2  0
  6 17  1  0
 17 18  2  0
 18 19  1  0
 19 20  2  0
 20 21  1  0
 21 22  1  0
 20 23  1  0
 17 24  1  0
 23 24  2  0
M  END
