pyridine_urea_2455
     RDKit          3D

 24 26  0  0  0  0  0  0  0  0999 V2000
    9.7710    0.1400   25.9470 C   0  0  0  0  0  0  0  0  0  0  0  0
   10.8590   -0.3660   24.9920 C   0  0  0  0  0  0  0  0  0  0  0  0
   12.1800   -0.6120   25.3100 C   0  0  0  0  0  0  0  0  0  0  0  0
   12.9330   -1.0950   24.3890 C   0  0  0  0  0  0  0  0  0  0  0  0
   11.9650   -1.2270   23.0500 S   0  0  0  0  0  0  0  0  0  0  0  0
   10.3310   -0.6120   23.5540 C   0  0  0  0  0  0  0  0  0  0  0  0
   10.2210   -0.9250   22.2550 C   0  0  1  0  0  0  0  0  0  0  0  0
   11.3740   -1.5910   21.9600 C   0  0  0  0  0  0  0  0  0  0  0  0
   12.4650   -0.5660   22.3290 C   0  0  0  0  0  0  0  0  0  0  0  0
   13.3930    0.5340   22.7080 C   0  0  0  0  0  0  0  0  0  0  0  0
   12.6640    1.7190   22.9990 C   0  0  0  0  0  0  0  0  0  0  0  0
   11.4030    2.1260   23.0410 C   0  0  0  0  0  0  0  0  0  0  0  0
   10.5620    1.2090   22.7280 C   0  0  0  0  0  0  0  0  0  0  0  0
   11.1050   -0.0180   22.4030 C   0  0  0  0  0  0  0  0  0  0  0  0
    8.9620   -1.5140   21.9510 N   0  0  0  0  0  0  0  0  0  0  0  0
    8.1580   -0.5590   21.3990 C   0  0  0  0  0  0  0  0  0  0  0  0
    8.5390    0.6030   21.3310 O   0  0  0  0  0  0  0  0  0  0  0  0
    6.9490   -0.9180   20.9090 N   0  0  0  0  0  0  0  0  0  0  0  0
    6.2570   -0.1450   19.9740 C   0  0  0  0  0  0  0  0  0  0  0  0
    5.0530    0.5210   20.1870 C   0  0  0  0  0  0  0  0  0  0  0  0
    4.5040    1.2670   19.1490 C   0  0  0  0  0  0  0  0  0  0  0  0
    5.1740    1.3280   17.9310 C   0  0  0  0  0  0  0  0  0  0  0  0
    6.3340    0.6870   17.7110 N   0  0  0  0  0  0  0  0  0  0  0  0
    6.8380   -0.0270   18.7290 C   0  0  0  0  0  0  0  0  0  0  0  0
  1  2  1  0
  2  3  1  0
  3  4  2  0
  4  5  1  0
  2  6  2  0
  5  6  1  0
  6  7  1  0
  7  8  1  1
  8  9  1  0
  9 10  2  0
 10 11  1  0
 11 12  2  0
 12 13  1  0
  9 14  1  0
 13 14  2  0
  7 15  1  0
 15 16  1  0
 16 17  2  0
 16 18  1  0
 18 19  1  0
 19 20  2  0
 20 21  1  0
 21 22  2  0
 22 23  1  0
 19 24  1  0
 23 24  2  0
M  END
