pyridine_urea_10139
     RDKit          3D

 23 24  0  0  0  0  0  0  0  0999 V2000
   13.5110    4.9470   23.0960 C   0  0  0  0  0  0  0  0  0  0  0  0
   12.4390    3.8980   22.9660 C   0  0  0  0  0  0  0  0  0  0  0  0
   11.7480    4.0050   21.7870 C   0  0  0  0  0  0  0  0  0  0  0  0
   12.8960    2.5240   23.0990 O   0  0  0  0  0  0  0  0  0  0  0  0
   11.8850    1.5030   22.9550 C   0  0  0  0  0  0  0  0  0  0  0  0
   10.6260    1.9900   22.9930 C   0  0  0  0  0  0  0  0  0  0  0  0
    9.5640    1.1580   22.8450 C   0  0  0  0  0  0  0  0  0  0  0  0
    9.7850   -0.3330   22.6270 C   0  0  0  0  0  0  0  0  0  0  0  0
    8.6240   -1.0290   22.4410 N   0  0  0  0  0  0  0  0  0  0  0  0
    7.8850   -0.4310   21.4500 C   0  0  0  0  0  0  0  0  0  0  0  0
    8.2710    0.6230   20.9460 O   0  0  0  0  0  0  0  0  0  0  0  0
    6.6730   -1.1020   21.0690 N   0  0  0  0  0  0  0  0  0  0  0  0
    6.1410   -0.2440   19.9910 C   0  0  0  0  0  0  0  0  0  0  0  0
    4.9770    0.4800   20.2380 C   0  0  0  0  0  0  0  0  0  0  0  0
    4.5040    1.2850   19.2110 C   0  0  0  0  0  0  0  0  0  0  0  0
    5.2280    1.3450   17.9300 C   0  0  0  0  0  0  0  0  0  0  0  0
    6.3490    0.6260   17.7300 N   0  0  0  0  0  0  0  0  0  0  0  0
    6.7830   -0.1490   18.7560 C   0  0  0  0  0  0  0  0  0  0  0  0
   11.0830   -0.7610   22.6210 C   0  0  0  0  0  0  0  0  0  0  0  0
   12.1180    0.1240   22.7820 C   0  0  0  0  0  0  0  0  0  0  0  0
   13.3340   -0.3570   22.7570 C   0  0  0  0  0  0  0  0  0  0  0  0
   13.5870   -1.6740   22.8530 N   0  0  0  0  0  0  0  0  0  0  0  0
   14.2590    0.5880   22.6310 O   0  0  0  0  0  0  0  0  0  0  0  0
  1  2  1  0
  2  3  1  0
  2  4  1  0
  4  5  1  0
  5  6  2  0
  6  7  1  0
  7  8  2  0
  8  9  1  0
  9 10  1  0
 10 11  2  0
 10 12  1  0
 12 13  1  0
 13 14  2  0
 14 15  1  0
 15 16  2  0
 16 17  1  0
 13 18  1  0
 17 18  2  0
  8 19  1  0
  5 20  1  0
 19 20  2  0
 20 21  1  0
 21 22  1  0
 21 23  2  0
M  END
