pyridine_urea_8185
     RDKit          3D

 23 24  0  0  0  0  0  0  0  0999 V2000
    8.6580    1.3290   20.9480 O   0  0  0  0  0  0  0  0  0  0  0  0
    8.2030    0.3220   21.4750 C   0  0  0  0  0  0  0  0  0  0  0  0
    8.7350   -0.1210   22.6360 N   0  0  0  0  0  0  0  0  0  0  0  0
   10.0960    0.3340   22.8060 C   0  0  0  0  0  0  0  0  0  0  0  0
   10.3540    1.8890   23.0910 C   0  0  2  0  0  0  0  0  0  0  0  0
   10.0070    2.9610   22.2630 C   0  0  0  0  0  0  0  0  0  0  0  0
    9.0110    2.8990   21.3340 O   0  0  0  0  0  0  0  0  0  0  0  0
   11.9090    1.9810   23.1960 C   0  0  0  0  0  0  0  0  0  0  0  0
   12.1250    0.6500   23.1200 C   0  0  0  0  0  0  0  0  0  0  0  0
   11.8600   -0.5680   23.7010 C   0  0  0  0  0  0  0  0  0  0  0  0
   11.3220   -1.3760   24.6640 C   0  0  0  0  0  0  0  0  0  0  0  0
   11.8540   -2.3620   23.7660 C   0  0  0  0  0  0  0  0  0  0  0  0
   11.6370   -3.6170   24.1150 F   0  0  0  0  0  0  0  0  0  0  0  0
   12.5770   -1.6440   22.5050 C   0  0  0  0  0  0  0  0  0  0  0  0
   13.2600   -2.5300   21.0930 Br  0  0  0  0  0  0  0  0  0  0  0  0
   12.7900   -0.1340   22.1920 C   0  0  0  0  0  0  0  0  0  0  0  0
    7.1500   -0.4250   21.0150 N   0  0  0  0  0  0  0  0  0  0  0  0
    6.3810    0.1510   20.0480 C   0  0  0  0  0  0  0  0  0  0  0  0
    5.1700    0.8030   20.2590 C   0  0  0  0  0  0  0  0  0  0  0  0
    4.5630    1.3590   19.1420 C   0  0  0  0  0  0  0  0  0  0  0  0
    5.1420    1.2590   17.9000 C   0  0  0  0  0  0  0  0  0  0  0  0
    6.2920    0.6270   17.6740 N   0  0  0  0  0  0  0  0  0  0  0  0
    6.8770    0.0890   18.7570 C   0  0  0  0  0  0  0  0  0  0  0  0
  1  2  2  0
  2  3  1  0
  3  4  1  0
  5  4  1  6
  5  6  1  0
  6  7  1  0
  5  8  1  0
  8  9  1  0
  9 10  2  0
 10 11  1  0
 11 12  2  0
 12 13  1  0
 12 14  1  0
 14 15  1  0
  9 16  1  0
 14 16  2  0
  2 17  1  0
 17 18  1  0
 18 19  2  0
 19 20  1  0
 20 21  2  0
 21 22  1  0
 18 23  1  0
 22 23  2  0
M  END
