pyridine_urea_11424
     RDKit          3D

 20 22  0  0  0  0  0  0  0  0999 V2000
   12.3960    1.7910   23.3160 C   0  0  0  0  0  0  0  0  0  0  0  0
   12.4340    0.5930   23.4240 C   0  0  2  0  0  0  0  0  0  0  0  0
   12.9010   -0.8630   23.5900 C   0  0  0  0  0  0  0  0  0  0  0  0
   12.4110   -1.7760   22.5170 C   0  0  0  0  0  0  0  0  0  0  0  0
   11.0700   -1.7720   22.6100 C   0  0  0  0  0  0  0  0  0  0  0  0
   10.5040   -0.6220   23.4280 C   0  0  2  0  0  0  0  0  0  0  0  0
    9.1820   -0.5880   24.0010 C   0  0  0  0  0  0  0  0  0  0  0  0
    8.3000   -1.0250   22.9200 N   0  0  0  0  0  0  0  0  0  0  0  0
    8.0480   -0.2780   21.7640 C   0  0  0  0  0  0  0  0  0  0  0  0
    8.8200    0.8660   21.4310 O   0  0  0  0  0  0  0  0  0  0  0  0
    6.9910   -0.7710   21.0450 N   0  0  0  0  0  0  0  0  0  0  0  0
    6.3200   -0.0430   20.0550 C   0  0  0  0  0  0  0  0  0  0  0  0
    5.1360    0.6700   20.2480 C   0  0  0  0  0  0  0  0  0  0  0  0
    4.6170    1.3480   19.1530 C   0  0  0  0  0  0  0  0  0  0  0  0
    5.2340    1.3250   17.9330 C   0  0  0  0  0  0  0  0  0  0  0  0
    6.3660    0.6440   17.7170 N   0  0  0  0  0  0  0  0  0  0  0  0
    6.8770   -0.0220   18.7780 C   0  0  0  0  0  0  0  0  0  0  0  0
   10.7380    0.3020   22.2950 C   0  0  0  0  0  0  0  0  0  0  0  0
   11.9610    0.3990   22.3010 O   0  0  0  0  0  0  0  0  0  0  0  0
   11.3430    0.0880   24.4740 C   0  0  0  0  0  0  0  0  0  0  0  0
  2  1  1  1
  2  3  1  0
  3  4  1  0
  4  5  1  0
  5  6  1  0
  6  7  1  1
  7  8  1  0
  8  9  1  0
  9 10  2  0
  9 11  1  0
 11 12  1  0
 12 13  2  0
 13 14  1  0
 14 15  2  0
 15 16  1  0
 12 17  1  0
 16 17  2  0
  6 18  1  0
  2 19  1  0
 18 19  1  0
  2 20  1  0
  6 20  1  0
M  END
