pyridine_urea_9960
     RDKit          3D

 24 26  0  0  0  0  0  0  0  0999 V2000
   10.0770    0.8570   24.5280 C   0  0  0  0  0  0  0  0  0  0  0  0
    9.6860    0.4950   23.1060 C   0  0  2  0  0  0  0  0  0  0  0  0
    8.2990    0.1310   22.9960 N   0  0  0  0  0  0  0  0  0  0  0  0
    7.9440    0.3160   21.6270 C   0  0  0  0  0  0  0  0  0  0  0  0
    8.6780    1.3780   20.9750 O   0  0  0  0  0  0  0  0  0  0  0  0
    6.9780   -0.4770   21.0800 N   0  0  0  0  0  0  0  0  0  0  0  0
    6.3280    0.1480   19.9740 C   0  0  0  0  0  0  0  0  0  0  0  0
    5.1470    0.8450   20.2000 C   0  0  0  0  0  0  0  0  0  0  0  0
    4.5360    1.4890   19.1400 C   0  0  0  0  0  0  0  0  0  0  0  0
    5.1640    1.4210   17.7590 C   0  0  0  0  0  0  0  0  0  0  0  0
    6.3110    0.7090   17.6030 N   0  0  0  0  0  0  0  0  0  0  0  0
    6.8840    0.0780   18.7010 C   0  0  0  0  0  0  0  0  0  0  0  0
   10.3930   -0.6580   22.5290 C   0  0  0  0  0  0  0  0  0  0  0  0
    9.8520   -1.6010   21.8080 C   0  0  0  0  0  0  0  0  0  0  0  0
   11.1840   -1.6960   22.0640 C   0  0  0  0  0  0  0  0  0  0  0  0
   10.9970   -0.3060   22.8660 C   0  0  0  0  0  0  0  0  0  0  0  0
   12.2210    0.0860   23.4220 C   0  0  0  0  0  0  0  0  0  0  0  0
   13.3880   -0.3960   23.4490 N   0  0  0  0  0  0  0  0  0  0  0  0
   13.3480   -1.4710   22.5420 C   0  0  0  0  0  0  0  0  0  0  0  0
   13.3120   -2.7290   23.1630 C   0  0  0  0  0  0  0  0  0  0  0  0
   13.3590   -2.5170   24.5610 O   0  0  0  0  0  0  0  0  0  0  0  0
   13.2640   -1.1370   24.6110 C   0  0  0  0  0  0  0  0  0  0  0  0
   13.0290   -0.4850   25.7630 O   0  0  0  0  0  0  0  0  0  0  0  0
   11.8930   -0.9330   22.7080 C   0  0  0  0  0  0  0  0  0  0  0  0
  2  1  1  1
  2  3  1  0
  3  4  1  0
  4  5  2  0
  4  6  1  0
  6  7  1  0
  7  8  2  0
  8  9  1  0
  9 10  2  0
 10 11  1  0
  7 12  1  0
 11 12  2  0
  2 13  1  0
 13 14  2  0
 14 15  1  0
 15 16  2  0
 16 17  1  0
 17 18  1  0
 18 19  1  0
 19 20  1  0
 20 21  1  0
 18 22  1  0
 21 22  1  0
 22 23  2  0
 13 24  1  0
 17 24  2  0
M  END
