pyridine_urea_3503
     RDKit          3D

 18 19  0  0  0  0  0  0  0  0999 V2000
    9.2380    0.6020   21.6500 O   0  0  0  0  0  0  0  0  0  0  0  0
    8.7780   -0.4940   21.3720 C   0  0  0  0  0  0  0  0  0  0  0  0
    9.5620   -1.6490   21.2680 N   0  0  0  0  0  0  0  0  0  0  0  0
   10.8240   -1.8580   22.0090 C   0  0  0  0  0  0  0  0  0  0  0  0
   12.1740   -2.2760   21.2500 C   0  0  0  0  0  0  0  0  0  0  0  0
   13.1320   -1.1900   21.5750 C   0  0  0  0  0  0  0  0  0  0  0  0
   13.3370   -0.1080   22.6170 C   0  0  0  0  0  0  0  0  0  0  0  0
   12.4220    0.0480   23.7220 C   0  0  0  0  0  0  0  0  0  0  0  0
   11.3380   -0.9890   23.6210 C   0  0  0  0  0  0  0  0  0  0  0  0
    9.7820   -1.6100   24.5130 Br  0  0  0  0  0  0  0  0  0  0  0  0
   11.6700   -1.8390   22.3060 S   0  0  0  0  0  0  0  0  0  0  0  0
    7.4390   -0.7470   21.0770 N   0  0  0  0  0  0  0  0  0  0  0  0
    6.6330   -0.0550   20.1280 C   0  0  0  0  0  0  0  0  0  0  0  0
    5.4910    0.6970   20.4060 C   0  0  0  0  0  0  0  0  0  0  0  0
    4.7700    1.3480   19.4240 C   0  0  0  0  0  0  0  0  0  0  0  0
    5.2130    1.2390   18.1180 C   0  0  0  0  0  0  0  0  0  0  0  0
    6.3030    0.5240   17.7830 N   0  0  0  0  0  0  0  0  0  0  0  0
    6.9770   -0.1000   18.7850 C   0  0  0  0  0  0  0  0  0  0  0  0
  1  2  2  0
  2  3  1  0
  3  4  1  0
  4  5  1  0
  5  6  1  0
  6  7  2  0
  7  8  1  0
  8  9  2  0
  9 10  1  0
  6 11  1  0
  9 11  1  0
  2 12  1  0
 12 13  1  0
 13 14  2  0
 14 15  1  0
 15 16  2  0
 16 17  1  0
 13 18  1  0
 17 18  2  0
M  END
