pyridine_urea_12720
     RDKit          3D

 20 21  0  0  0  0  0  0  0  0999 V2000
    3.4180    3.5940   17.4560 N   0  0  0  0  0  0  0  0  0  0  0  0
    3.5270    2.8490   18.9240 S   0  0  0  0  0  0  0  0  0  0  0  0
    2.2750    2.1980   19.1790 O   0  0  0  0  0  0  0  0  0  0  0  0
    3.9040    3.8120   19.9290 O   0  0  0  0  0  0  0  0  0  0  0  0
    4.8170    1.6200   19.0650 C   0  0  0  0  0  0  0  0  0  0  0  0
    4.7110    1.2660   20.5250 C   0  0  0  0  0  0  0  0  0  0  0  0
    5.7180    0.2720   20.9880 C   0  0  0  0  0  0  0  0  0  0  0  0
    6.6270   -0.2350   20.1220 C   0  0  0  0  0  0  0  0  0  0  0  0
    7.4540   -1.0690   20.7780 N   0  0  0  0  0  0  0  0  0  0  0  0
    8.5170   -0.4510   21.4260 C   0  0  0  0  0  0  0  0  0  0  0  0
    8.7060    0.7500   21.2870 O   0  0  0  0  0  0  0  0  0  0  0  0
    9.2900   -1.2610   22.1880 N   0  0  0  0  0  0  0  0  0  0  0  0
   10.5240   -0.6230   22.5140 C   0  0  0  0  0  0  0  0  0  0  0  0
   11.7050   -1.3870   22.3970 C   0  0  0  0  0  0  0  0  0  0  0  0
   13.0030   -0.8760   22.6750 C   0  0  0  0  0  0  0  0  0  0  0  0
   13.2720    0.4270   23.0920 C   0  0  0  0  0  0  0  0  0  0  0  0
   11.9450    0.0570   22.8540 N   0  0  0  0  0  0  0  0  0  0  0  0
   10.7270    0.6740   22.9220 C   0  0  0  0  0  0  0  0  0  0  0  0
    6.6700    0.1130   18.7630 C   0  0  0  0  0  0  0  0  0  0  0  0
    5.7890    1.0130   18.2310 N   0  0  0  0  0  0  0  0  0  0  0  0
  2  1  1  0
  2  3  2  0
  2  4  2  0
  2  5  1  0
  5  6  2  0
  6  7  1  0
  7  8  2  0
  8  9  1  0
  9 10  1  0
 10 11  2  0
 10 12  1  0
 12 13  1  0
 13 14  2  0
 14 15  1  0
 15 16  2  0
 16 17  1  0
 13 18  1  0
 17 18  2  0
  8 19  1  0
  5 20  1  0
 19 20  2  0
M  END
