pyridine_urea_8220
     RDKit          3D

 23 25  0  0  0  0  0  0  0  0999 V2000
   13.6500    5.5950   21.5760 C   0  0  0  0  0  0  0  0  0  0  0  0
   13.2570    4.2880   21.6480 O   0  0  0  0  0  0  0  0  0  0  0  0
   13.1370    4.0900   22.9970 C   0  0  0  0  0  0  0  0  0  0  0  0
   13.8880    4.5470   23.8210 O   0  0  0  0  0  0  0  0  0  0  0  0
   11.8510    3.2590   23.1150 C   0  0  0  0  0  0  0  0  0  0  0  0
   10.7020    3.9620   23.4040 C   0  0  0  0  0  0  0  0  0  0  0  0
    9.7240    3.0510   23.3850 N   0  0  0  0  0  0  0  0  0  0  0  0
   10.2210    1.8340   23.0990 C   0  0  0  0  0  0  0  0  0  0  0  0
    9.5410    0.6900   22.9520 C   0  0  0  0  0  0  0  0  0  0  0  0
   10.3120   -0.5490   22.5990 C   0  0  0  0  0  0  0  0  0  0  0  0
    9.2310   -1.4640   22.4470 N   0  0  0  0  0  0  0  0  0  0  0  0
    8.4070   -0.7180   21.5380 C   0  0  0  0  0  0  0  0  0  0  0  0
    8.8270    0.3850   21.2090 O   0  0  0  0  0  0  0  0  0  0  0  0
    7.2240   -1.2010   21.0800 N   0  0  0  0  0  0  0  0  0  0  0  0
    6.5290   -0.3860   20.2050 C   0  0  0  0  0  0  0  0  0  0  0  0
    5.2620    0.4000   20.5660 C   0  0  0  0  0  0  0  0  0  0  0  0
    4.6450    1.2460   19.4500 C   0  0  0  0  0  0  0  0  0  0  0  0
    5.3560    1.2130   18.1130 C   0  0  0  0  0  0  0  0  0  0  0  0
    6.4640    0.4880   17.8950 N   0  0  0  0  0  0  0  0  0  0  0  0
    7.0010   -0.2600   18.8920 C   0  0  0  0  0  0  0  0  0  0  0  0
   11.7290   -0.5710   22.4770 C   0  0  0  0  0  0  0  0  0  0  0  0
   12.3660    0.6960   22.6580 C   0  0  0  0  0  0  0  0  0  0  0  0
   11.6170    1.8520   22.9350 C   0  0  0  0  0  0  0  0  0  0  0  0
  1  2  1  0
  2  3  1  0
  3  4  2  0
  3  5  1  0
  5  6  2  0
  6  7  1  0
  7  8  1  0
  8  9  1  0
  9 10  2  0
 10 11  1  0
 11 12  1  0
 12 13  2  0
 12 14  1  0
 14 15  1  0
 15 16  2  0
 16 17  1  0
 17 18  2  0
 18 19  1  0
 15 20  1  0
 19 20  2  0
 10 21  1  0
 21 22  2  0
  5 23  1  0
  8 23  2  0
 22 23  1  0
M  END
