pyridine_urea_3739
     RDKit          3D

 19 21  0  0  0  0  0  0  0  0999 V2000
    8.9160    0.7930   21.5140 O   0  0  0  0  0  0  0  0  0  0  0  0
    8.4000   -0.3010   21.3480 C   0  0  0  0  0  0  0  0  0  0  0  0
    9.1020   -1.4700   21.3590 N   0  0  0  0  0  0  0  0  0  0  0  0
    9.6830   -2.0170   22.5490 C   0  0  0  0  0  0  0  0  0  0  0  0
   11.1920   -2.0440   22.5120 C   0  0  2  0  0  0  0  0  0  0  0  0
   11.7400   -2.2650   23.8830 C   0  0  0  0  0  0  0  0  0  0  0  0
   11.8690   -0.7950   23.9360 C   0  0  1  0  0  0  0  0  0  0  0  0
   10.7120    0.0670   24.3300 C   0  0  0  0  0  0  0  0  0  0  0  0
   11.2640    1.3910   23.8780 C   0  0  0  0  0  0  0  0  0  0  0  0
   12.4860    1.2490   24.0410 O   0  0  0  0  0  0  0  0  0  0  0  0
   12.8950   -0.1020   24.3330 C   0  0  0  0  0  0  0  0  0  0  0  0
   11.7450   -0.6100   22.4310 C   0  0  0  0  0  0  0  0  0  0  0  0
    7.0780   -0.5530   21.0950 N   0  0  0  0  0  0  0  0  0  0  0  0
    6.3530    0.1100   20.0970 C   0  0  0  0  0  0  0  0  0  0  0  0
    5.1610    0.8020   20.2740 C   0  0  0  0  0  0  0  0  0  0  0  0
    4.5500    1.4340   19.2030 C   0  0  0  0  0  0  0  0  0  0  0  0
    5.2050    1.3470   17.8790 C   0  0  0  0  0  0  0  0  0  0  0  0
    6.3490    0.6730   17.7080 N   0  0  0  0  0  0  0  0  0  0  0  0
    6.8690    0.0860   18.8050 C   0  0  0  0  0  0  0  0  0  0  0  0
  1  2  2  0
  2  3  1  0
  3  4  1  0
  5  4  1  1
  5  6  1  0
  7  6  1  6
  7  8  1  0
  8  9  1  0
  9 10  1  0
  7 11  1  0
 10 11  1  0
  5 12  1  0
  7 12  1  0
  2 13  1  0
 13 14  1  0
 14 15  2  0
 15 16  1  0
 16 17  2  0
 17 18  1  0
 14 19  1  0
 18 19  2  0
M  END
