pyridine_urea_8691
     RDKit          3D

 21 23  0  0  0  0  0  0  0  0999 V2000
    8.4600    0.7490   20.8900 O   0  0  0  0  0  0  0  0  0  0  0  0
    7.9540   -0.2930   21.2630 C   0  0  0  0  0  0  0  0  0  0  0  0
    8.3650   -1.0300   22.2930 N   0  0  0  0  0  0  0  0  0  0  0  0
    8.6160   -0.3520   23.4490 C   0  0  0  0  0  0  0  0  0  0  0  0
    9.2850    0.8490   23.2320 C   0  0  0  0  0  0  0  0  0  0  0  0
   10.5820    0.5430   23.2840 C   0  0  0  0  0  0  0  0  0  0  0  0
   11.5970    1.5260   22.8990 N   0  0  0  0  0  0  0  0  0  0  0  0
   12.9060    1.1760   22.9730 C   0  0  0  0  0  0  0  0  0  0  0  0
   13.1270   -0.2350   23.4620 C   0  0  0  0  0  0  0  0  0  0  0  0
   12.1360   -1.0950   23.8060 C   0  0  0  0  0  0  0  0  0  0  0  0
   12.4730   -2.4840   24.2830 C   0  0  0  0  0  0  0  0  0  0  0  0
   13.4320   -2.7070   25.0050 C   0  0  0  0  0  0  0  0  0  0  0  0
   13.7430   -2.6930   23.5420 C   0  0  0  0  0  0  0  0  0  0  0  0
   10.9230   -0.7020   23.7100 N   0  0  0  0  0  0  0  0  0  0  0  0
    6.8440   -0.8010   20.6990 N   0  0  0  0  0  0  0  0  0  0  0  0
    6.2150   -0.0590   19.8020 C   0  0  0  0  0  0  0  0  0  0  0  0
    4.9880    0.5430   20.0580 C   0  0  0  0  0  0  0  0  0  0  0  0
    4.4230    1.3200   19.0550 C   0  0  0  0  0  0  0  0  0  0  0  0
    5.1240    1.4430   17.8620 C   0  0  0  0  0  0  0  0  0  0  0  0
    6.3110    0.8560   17.6100 N   0  0  0  0  0  0  0  0  0  0  0  0
    6.8290    0.1150   18.5910 C   0  0  0  0  0  0  0  0  0  0  0  0
  1  2  2  0
  2  3  1  0
  3  4  1  0
  4  5  1  0
  5  6  1  0
  6  7  2  0
  7  8  1  0
  8  9  2  0
  9 10  1  0
 10 11  1  0
 11 12  1  0
 11 13  1  0
 12 13  1  0
  6 14  1  0
 10 14  2  0
  2 15  1  0
 15 16  1  0
 16 17  2  0
 17 18  1  0
 18 19  2  0
 19 20  1  0
 16 21  1  0
 20 21  2  0
M  END
