pyridine_urea_2257
     RDKit          3D

 26 28  0  0  0  0  0  0  0  0999 V2000
   14.7580   -3.6430   19.5950 N   0  0  0  0  0  0  0  0  0  0  0  0
   14.4280   -4.0370   20.6030 C   0  0  0  0  0  0  0  0  0  0  0  0
   15.0500   -5.2950   20.9850 O   0  0  0  0  0  0  0  0  0  0  0  0
   13.4390   -2.9180   21.4040 C   0  0  1  0  0  0  0  0  0  0  0  0
   13.4810   -2.8220   22.9580 C   0  0  0  0  0  0  0  0  0  0  0  0
   12.0070   -2.7030   23.2620 C   0  0  0  0  0  0  0  0  0  0  0  0
   11.4050   -2.2890   21.9360 C   0  0  0  0  0  0  0  0  0  0  0  0
   12.1840   -1.4510   21.2690 N   0  0  0  0  0  0  0  0  0  0  0  0
   11.8910   -0.7070   22.1900 C   0  0  0  0  0  0  0  0  0  0  0  0
   12.2420    0.2690   23.0130 C   0  0  0  0  0  0  0  0  0  0  0  0
   11.3390    0.7190   23.9960 C   0  0  0  0  0  0  0  0  0  0  0  0
    9.9650    0.4400   24.4810 C   0  0  0  0  0  0  0  0  0  0  0  0
    8.7320   -0.1730   24.5310 C   0  0  0  0  0  0  0  0  0  0  0  0
    7.7820    0.0940   23.5630 N   0  0  0  0  0  0  0  0  0  0  0  0
    7.9750    0.2150   22.2010 C   0  0  0  0  0  0  0  0  0  0  0  0
    9.0870    0.6960   21.4650 O   0  0  0  0  0  0  0  0  0  0  0  0
    6.8880   -0.1780   21.4810 N   0  0  0  0  0  0  0  0  0  0  0  0
    7.0510   -0.2320   20.1440 C   0  0  0  0  0  0  0  0  0  0  0  0
    5.8110    0.6930   20.3940 C   0  0  0  0  0  0  0  0  0  0  0  0
    5.0190    1.3460   19.4890 C   0  0  0  0  0  0  0  0  0  0  0  0
    5.2270    1.2680   18.1740 C   0  0  0  0  0  0  0  0  0  0  0  0
    6.2260    0.5280   17.7760 N   0  0  0  0  0  0  0  0  0  0  0  0
    6.9950   -0.1130   18.7180 C   0  0  0  0  0  0  0  0  0  0  0  0
    9.7320   -0.6580   23.4570 C   0  0  0  0  0  0  0  0  0  0  0  0
   10.5590   -1.1640   22.4540 C   0  0  0  0  0  0  0  0  0  0  0  0
   13.5640   -1.6190   21.0810 C   0  0  0  0  0  0  0  0  0  0  0  0
  1  2  1  0
  2  3  2  0
  4  2  1  6
  4  5  1  0
  5  6  1  0
  6  7  1  0
  7  8  1  0
  8  9  1  0
  9 10  2  0
 10 11  1  0
 11 12  2  0
 12 13  1  0
 13 14  1  0
 14 15  1  0
 15 16  2  0
 15 17  1  0
 17 18  1  0
 18 19  2  0
 19 20  1  0
 20 21  2  0
 21 22  1  0
 18 23  1  0
 22 23  2  0
 12 24  1  0
  9 25  1  0
 24 25  2  0
  4 26  1  0
  8 26  1  0
M  END
