pyridine_urea_1818
     RDKit          3D

 17 17  0  0  0  0  0  0  0  0999 V2000
   12.6520   -0.8780   25.0820 C   0  0  0  0  0  0  0  0  0  0  0  0
   12.2720    0.2400   24.1600 C   0  0  0  0  0  0  0  0  0  0  0  0
   12.8300    0.2470   22.9150 C   0  0  0  0  0  0  0  0  0  0  0  0
   12.7830   -0.9830   22.3060 C   0  0  0  0  0  0  0  0  0  0  0  0
   11.5210   -1.5510   22.1760 C   0  0  0  0  0  0  0  0  0  0  0  0
   10.3840   -1.0420   22.8570 C   0  0  1  0  0  0  0  0  0  0  0  0
   10.3860    0.3080   23.2260 C   0  0  0  0  0  0  0  0  0  0  0  0
    9.1290   -1.2390   22.2290 N   0  0  0  0  0  0  0  0  0  0  0  0
    8.5010   -0.2300   21.5460 C   0  0  0  0  0  0  0  0  0  0  0  0
    9.0120    0.8700   21.3730 O   0  0  0  0  0  0  0  0  0  0  0  0
    7.1890   -0.6180   21.0670 N   0  0  0  0  0  0  0  0  0  0  0  0
    6.5190    0.0010   20.0600 C   0  0  0  0  0  0  0  0  0  0  0  0
    5.3540    0.7210   20.3520 C   0  0  0  0  0  0  0  0  0  0  0  0
    4.6770    1.3670   19.3170 C   0  0  0  0  0  0  0  0  0  0  0  0
    5.1740    1.2800   18.0320 C   0  0  0  0  0  0  0  0  0  0  0  0
    6.2820    0.5900   17.7310 N   0  0  0  0  0  0  0  0  0  0  0  0
    6.9270   -0.0310   18.7410 C   0  0  0  0  0  0  0  0  0  0  0  0
  1  2  1  0
  2  3  1  0
  3  4  1  0
  4  5  1  0
  5  6  1  0
  6  7  1  6
  6  8  1  0
  8  9  1  0
  9 10  2  0
  9 11  1  0
 11 12  1  0
 12 13  2  0
 13 14  1  0
 14 15  2  0
 15 16  1  0
 12 17  1  0
 16 17  2  0
M  END
