pyridine_urea_13243
     RDKit          3D

 16 17  0  0  0  0  0  0  0  0999 V2000
    8.9310    1.2230   21.2160 O   0  0  0  0  0  0  0  0  0  0  0  0
    8.4930    0.1050   21.5290 C   0  0  0  0  0  0  0  0  0  0  0  0
    9.0610   -0.7360   22.4390 N   0  0  0  0  0  0  0  0  0  0  0  0
   10.4200   -1.0860   22.4890 C   0  0  0  0  0  0  0  0  0  0  0  0
   11.1840   -0.4510   23.4540 C   0  0  2  0  0  0  0  0  0  0  0  0
   12.1670    0.3160   23.1400 C   0  0  0  0  0  0  0  0  0  0  0  0
   12.6730   -1.0040   23.3480 C   0  0  0  0  0  0  0  0  0  0  0  0
   13.3430   -1.3850   24.4390 F   0  0  0  0  0  0  0  0  0  0  0  0
   13.1520   -1.5970   22.2260 F   0  0  0  0  0  0  0  0  0  0  0  0
    7.3480   -0.4650   21.0260 N   0  0  0  0  0  0  0  0  0  0  0  0
    6.5950    0.1260   20.0850 C   0  0  0  0  0  0  0  0  0  0  0  0
    5.4290    0.8730   20.2990 C   0  0  0  0  0  0  0  0  0  0  0  0
    4.6620    1.5250   19.1530 C   0  0  0  0  0  0  0  0  0  0  0  0
    5.1650    1.3500   17.8910 C   0  0  0  0  0  0  0  0  0  0  0  0
    6.2850    0.6160   17.7150 N   0  0  0  0  0  0  0  0  0  0  0  0
    6.9950    0.0090   18.7570 C   0  0  0  0  0  0  0  0  0  0  0  0
  1  2  2  0
  2  3  1  0
  3  4  1  0
  5  4  1  6
  5  6  1  0
  5  7  1  0
  6  7  1  0
  7  8  1  0
  7  9  1  0
  2 10  1  0
 10 11  1  0
 11 12  2  0
 12 13  1  0
 13 14  2  0
 14 15  1  0
 11 16  1  0
 15 16  2  0
M  END
