pyridine_urea_11765
     RDKit          3D

 25 28  0  0  0  0  0  0  0  0999 V2000
    8.2140    1.1730   21.0820 O   0  0  0  0  0  0  0  0  0  0  0  0
    7.9620   -0.0200   20.9610 C   0  0  0  0  0  0  0  0  0  0  0  0
    6.7580   -0.5620   20.7340 N   0  0  0  0  0  0  0  0  0  0  0  0
    6.1290    0.1300   19.7590 C   0  0  0  0  0  0  0  0  0  0  0  0
    4.8960    0.7190   19.9720 C   0  0  0  0  0  0  0  0  0  0  0  0
    4.3350    1.4460   18.9360 C   0  0  0  0  0  0  0  0  0  0  0  0
    5.0460    1.5350   17.7540 C   0  0  0  0  0  0  0  0  0  0  0  0
    6.2330    0.9570   17.5460 N   0  0  0  0  0  0  0  0  0  0  0  0
    6.7380    0.2700   18.5560 C   0  0  0  0  0  0  0  0  0  0  0  0
    8.9440   -0.8940   21.0240 N   0  0  0  0  0  0  0  0  0  0  0  0
    9.8010   -0.4420   22.0120 C   0  0  2  0  0  0  0  0  0  0  0  0
   10.8850   -1.4710   22.1450 C   0  0  0  0  0  0  0  0  0  0  0  0
   10.1390   -2.3240   22.8440 C   0  0  0  0  0  0  0  0  0  0  0  0
    9.4180   -1.5240   23.8110 C   0  0  2  0  0  0  0  0  0  0  0  0
    8.2270   -2.0000   24.2980 N   0  0  0  0  0  0  0  0  0  0  0  0
    7.0740   -1.2590   24.1480 C   0  0  0  0  0  0  0  0  0  0  0  0
    7.1910   -0.1540   25.0080 C   0  0  0  0  0  0  0  0  0  0  0  0
    7.8930   -0.3230   26.1380 N   0  0  0  0  0  0  0  0  0  0  0  0
    7.4050    0.2900   27.2400 C   0  0  0  0  0  0  0  0  0  0  0  0
    7.0010    1.5910   27.2580 O   0  0  0  0  0  0  0  0  0  0  0  0
    7.3530   -0.5940   28.3980 C   0  0  0  0  0  0  0  0  0  0  0  0
    7.9690   -1.8110   27.7500 C   0  0  0  0  0  0  0  0  0  0  0  0
    8.5210   -1.5150   26.4540 C   0  0  1  0  0  0  0  0  0  0  0  0
    8.3470   -2.5860   25.5810 C   0  0  0  0  0  0  0  0  0  0  0  0
    8.9410   -0.3100   23.1020 C   0  0  0  0  0  0  0  0  0  0  0  0
  1  2  2  0
  2  3  1  0
  3  4  1  0
  4  5  2  0
  5  6  1  0
  6  7  2  0
  7  8  1  0
  4  9  1  0
  8  9  2  0
  2 10  1  0
 11 10  1  6
 11 12  1  0
 12 13  1  0
 13 14  1  0
 14 15  1  6
 15 16  1  0
 16 17  1  0
 17 18  1  0
 18 19  1  0
 19 20  2  0
 19 21  1  0
 21 22  1  0
 18 23  1  0
 23 22  1  1
 15 24  1  0
 23 24  1  0
 11 25  1  0
 14 25  1  0
M  END
