pyridine_urea_14786
     RDKit          3D

 20 21  0  0  0  0  0  0  0  0999 V2000
    7.5620    3.0250   24.5170 C   0  0  0  0  0  0  0  0  0  0  0  0
    9.0240    2.6990   23.5770 S   0  0  0  0  0  0  0  0  0  0  0  0
   10.0290    3.6630   23.9540 O   0  0  0  0  0  0  0  0  0  0  0  0
    9.5270    1.1030   24.1530 C   0  0  0  0  0  0  0  0  0  0  0  0
   10.6030    0.4510   23.5580 C   0  0  0  0  0  0  0  0  0  0  0  0
   11.9150    0.8890   23.7790 C   0  0  0  0  0  0  0  0  0  0  0  0
   12.9920    0.2450   23.1860 C   0  0  0  0  0  0  0  0  0  0  0  0
   12.8040   -0.8510   22.3710 C   0  0  0  0  0  0  0  0  0  0  0  0
   11.3990   -1.3300   22.1190 C   0  0  0  0  0  0  0  0  0  0  0  0
   10.3630   -0.6530   22.7190 C   0  0  0  0  0  0  0  0  0  0  0  0
    9.0110   -1.1290   22.4180 N   0  0  0  0  0  0  0  0  0  0  0  0
    8.2890   -0.1830   21.5120 C   0  0  0  0  0  0  0  0  0  0  0  0
    8.8610    1.1040   21.1440 O   0  0  0  0  0  0  0  0  0  0  0  0
    7.0100   -0.6910   21.0770 N   0  0  0  0  0  0  0  0  0  0  0  0
    6.3760   -0.0110   20.0400 C   0  0  0  0  0  0  0  0  0  0  0  0
    5.1900    0.7060   20.2330 C   0  0  0  0  0  0  0  0  0  0  0  0
    4.5380    1.4460   19.1130 C   0  0  0  0  0  0  0  0  0  0  0  0
    5.1450    1.4050   17.8600 C   0  0  0  0  0  0  0  0  0  0  0  0
    6.3230    0.6640   17.7330 N   0  0  0  0  0  0  0  0  0  0  0  0
    6.8950   -0.0040   18.7620 C   0  0  0  0  0  0  0  0  0  0  0  0
  2  1  1  1
  2  3  2  0
  2  4  1  0
  4  5  1  0
  5  6  2  0
  6  7  1  0
  7  8  2  0
  8  9  1  0
  5 10  1  0
  9 10  2  0
 10 11  1  0
 11 12  1  0
 12 13  2  0
 12 14  1  0
 14 15  1  0
 15 16  2  0
 16 17  1  0
 17 18  2  0
 18 19  1  0
 15 20  1  0
 19 20  2  0
M  END
