pyridine_urea_2233
     RDKit          3D

 26 28  0  0  0  0  0  0  0  0999 V2000
    8.7670    0.8960   21.5260 O   0  0  0  0  0  0  0  0  0  0  0  0
    8.4570   -0.2130   21.1210 C   0  0  0  0  0  0  0  0  0  0  0  0
    7.1920   -0.6560   20.8830 N   0  0  0  0  0  0  0  0  0  0  0  0
    6.3880    0.0410   19.9970 C   0  0  0  0  0  0  0  0  0  0  0  0
    5.0670    0.7440   20.3340 C   0  0  0  0  0  0  0  0  0  0  0  0
    4.4320    1.4560   19.1390 C   0  0  0  0  0  0  0  0  0  0  0  0
    5.1530    1.3810   17.8290 C   0  0  0  0  0  0  0  0  0  0  0  0
    6.3040    0.7210   17.6610 N   0  0  0  0  0  0  0  0  0  0  0  0
    6.8660    0.0940   18.7060 C   0  0  0  0  0  0  0  0  0  0  0  0
    9.4180   -1.1360   20.8030 N   0  0  0  0  0  0  0  0  0  0  0  0
   10.3920   -1.3580   21.7370 C   0  0  0  0  0  0  0  0  0  0  0  0
   11.7730   -1.5190   21.6920 C   0  0  0  0  0  0  0  0  0  0  0  0
   12.4490   -1.6890   22.8470 C   0  0  0  0  0  0  0  0  0  0  0  0
   11.7370   -1.7360   24.0270 C   0  0  0  0  0  0  0  0  0  0  0  0
   12.8860   -1.9920   25.2640 Cl  0  0  0  0  0  0  0  0  0  0  0  0
   10.2670   -1.5930   23.8970 C   0  0  0  0  0  0  0  0  0  0  0  0
    8.9270   -1.5550   24.4080 C   0  0  0  0  0  0  0  0  0  0  0  0
    8.3940   -0.2450   24.2700 O   0  0  0  0  0  0  0  0  0  0  0  0
    8.0760   -2.5880   24.6640 N   0  0  0  0  0  0  0  0  0  0  0  0
    7.8760   -3.5040   23.6770 C   0  0  0  0  0  0  0  0  0  0  0  0
    6.7440   -4.3020   23.7540 C   0  0  0  0  0  0  0  0  0  0  0  0
    6.3540   -5.0450   24.8770 C   0  0  0  0  0  0  0  0  0  0  0  0
    5.1850   -5.7570   24.6960 C   0  0  0  0  0  0  0  0  0  0  0  0
    4.6960   -5.5510   23.4340 C   0  0  0  0  0  0  0  0  0  0  0  0
    5.6140   -4.5100   22.4480 S   0  0  0  0  0  0  0  0  0  0  0  0
    9.7740   -1.4080   22.7840 C   0  0  0  0  0  0  0  0  0  0  0  0
  1  2  2  0
  2  3  1  0
  3  4  1  0
  4  5  2  0
  5  6  1  0
  6  7  2  0
  7  8  1  0
  4  9  1  0
  8  9  2  0
  2 10  1  0
 10 11  1  0
 11 12  2  0
 12 13  1  0
 13 14  2  0
 14 15  1  0
 14 16  1  0
 16 17  1  0
 17 18  2  0
 17 19  1  0
 19 20  1  0
 20 21  1  0
 21 22  2  0
 22 23  1  0
 23 24  2  0
 21 25  1  0
 24 25  1  0
 11 26  1  0
 16 26  2  0
M  END
