pyridine_urea_6056
     RDKit          3D

 25 27  0  0  0  0  0  0  0  0999 V2000
   12.4180    4.2940   21.8890 C   0  0  0  0  0  0  0  0  0  0  0  0
   11.6730    4.6180   23.1460 C   0  0  0  0  0  0  0  0  0  0  0  0
   12.2250    5.5890   23.9910 C   0  0  0  0  0  0  0  0  0  0  0  0
   11.6380    5.9850   25.2070 C   0  0  0  0  0  0  0  0  0  0  0  0
   10.4360    5.4200   25.6570 C   0  0  0  0  0  0  0  0  0  0  0  0
    9.7760    4.3770   24.8100 C   0  0  0  0  0  0  0  0  0  0  0  0
   10.4540    3.9900   23.5100 C   0  0  0  0  0  0  0  0  0  0  0  0
    9.7210    2.9290   22.6890 C   0  0  0  0  0  0  0  0  0  0  0  0
    9.6360    1.6050   23.2980 N   0  0  0  0  0  0  0  0  0  0  0  0
    8.3410    1.0700   23.3880 C   0  0  0  0  0  0  0  0  0  0  0  0
    8.4690   -0.3240   23.4050 C   0  0  0  0  0  0  0  0  0  0  0  0
    9.4480   -0.6360   24.0620 O   0  0  0  0  0  0  0  0  0  0  0  0
   10.6510   -0.5870   23.2790 C   0  0  1  0  0  0  0  0  0  0  0  0
   10.4230   -1.4980   22.2840 C   0  0  0  0  0  0  0  0  0  0  0  0
    9.3800   -1.4130   21.3800 N   0  0  0  0  0  0  0  0  0  0  0  0
    8.4750   -0.3380   21.2070 C   0  0  0  0  0  0  0  0  0  0  0  0
    8.7920    0.9910   21.2010 O   0  0  0  0  0  0  0  0  0  0  0  0
    7.2080   -0.7810   21.0100 N   0  0  0  0  0  0  0  0  0  0  0  0
    6.5310   -0.1030   20.0450 C   0  0  0  0  0  0  0  0  0  0  0  0
    5.3700    0.6150   20.3660 C   0  0  0  0  0  0  0  0  0  0  0  0
    4.6910    1.3170   19.3560 C   0  0  0  0  0  0  0  0  0  0  0  0
    5.1910    1.2850   18.0490 C   0  0  0  0  0  0  0  0  0  0  0  0
    6.2960    0.6000   17.7230 N   0  0  0  0  0  0  0  0  0  0  0  0
    6.9080   -0.0570   18.7250 C   0  0  0  0  0  0  0  0  0  0  0  0
   10.7160    0.6920   22.7760 C   0  0  0  0  0  0  0  0  0  0  0  0
  1  2  1  0
  2  3  2  0
  3  4  1  0
  4  5  2  0
  5  6  1  0
  2  7  1  0
  6  7  2  0
  7  8  1  0
  8  9  1  0
  9 10  1  0
 10 11  1  0
 11 12  1  0
 12 13  1  0
 13 14  1  6
 14 15  1  0
 15 16  1  0
 16 17  2  0
 16 18  1  0
 18 19  1  0
 19 20  2  0
 20 21  1  0
 21 22  2  0
 22 23  1  0
 19 24  1  0
 23 24  2  0
  9 25  1  0
 13 25  1  0
M  END
