pyridine_urea_13781
     RDKit          3D

 25 27  0  0  0  0  0  0  0  0999 V2000
    8.7270    0.9360   21.1820 O   0  0  0  0  0  0  0  0  0  0  0  0
    8.2990   -0.2200   21.1840 C   0  0  0  0  0  0  0  0  0  0  0  0
    6.9700   -0.5320   21.0850 N   0  0  0  0  0  0  0  0  0  0  0  0
    6.3480    0.1120   19.9800 C   0  0  0  0  0  0  0  0  0  0  0  0
    5.0670    0.8760   20.2640 C   0  0  0  0  0  0  0  0  0  0  0  0
    4.4870    1.5430   19.0680 C   0  0  0  0  0  0  0  0  0  0  0  0
    5.1430    1.4130   17.8580 C   0  0  0  0  0  0  0  0  0  0  0  0
    6.2760    0.7140   17.6680 N   0  0  0  0  0  0  0  0  0  0  0  0
    6.8430    0.0890   18.7070 C   0  0  0  0  0  0  0  0  0  0  0  0
    9.0770   -1.3350   21.2400 N   0  0  0  0  0  0  0  0  0  0  0  0
    9.8220   -1.6830   22.4460 C   0  0  2  0  0  0  0  0  0  0  0  0
    9.1580   -1.1890   23.5240 C   0  0  0  0  0  0  0  0  0  0  0  0
    8.6330    0.1380   23.0990 C   0  0  0  0  0  0  0  0  0  0  0  0
    7.8490    0.9230   23.9700 C   0  0  0  0  0  0  0  0  0  0  0  0
    7.5670    0.4610   25.2750 C   0  0  0  0  0  0  0  0  0  0  0  0
    6.8170    1.2120   26.1180 F   0  0  0  0  0  0  0  0  0  0  0  0
    8.0570   -0.7620   25.6900 C   0  0  0  0  0  0  0  0  0  0  0  0
    8.8860   -1.6400   24.8000 C   0  0  0  0  0  0  0  0  0  0  0  0
   11.2580   -1.2220   22.2790 C   0  0  0  0  0  0  0  0  0  0  0  0
   12.7130   -1.2060   22.7970 C   0  0  0  0  0  0  0  0  0  0  0  0
   13.6320   -1.6500   23.7880 C   0  0  0  0  0  0  0  0  0  0  0  0
   12.8010   -2.4230   24.5470 C   0  0  0  0  0  0  0  0  0  0  0  0
   11.5090   -2.6440   24.3440 C   0  0  0  0  0  0  0  0  0  0  0  0
   10.8290   -2.0980   23.3230 C   0  0  0  0  0  0  0  0  0  0  0  0
    8.8220   -2.7750   23.4550 I   0  0  0  0  0  0  0  0  0  0  0  0
  1  2  2  0
  2  3  1  0
  3  4  1  0
  4  5  2  0
  5  6  1  0
  6  7  2  0
  7  8  1  0
  4  9  1  0
  8  9  2  0
  2 10  1  0
 11 10  1  6
 11 12  1  0
 12 13  2  0
 13 14  1  0
 14 15  2  0
 15 16  1  0
 15 17  1  0
 12 18  1  0
 17 18  2  0
 11 19  1  0
 19 20  2  0
 20 21  1  0
 21 22  2  0
 22 23  1  0
 19 24  1  0
 23 24  2  0
 24 25  1  0
M  END
