pyridine_urea_562
     RDKit          3D

 24 26  0  0  0  0  0  0  0  0999 V2000
    6.4820   -4.8840   23.9820 C   0  0  0  0  0  0  0  0  0  0  0  0
    7.7770   -4.0950   23.9490 C   0  0  0  0  0  0  0  0  0  0  0  0
    8.8910   -4.3200   24.7720 O   0  0  0  0  0  0  0  0  0  0  0  0
    9.8400   -3.3950   24.4000 C   0  0  0  0  0  0  0  0  0  0  0  0
   11.1060   -3.1810   24.8350 C   0  0  0  0  0  0  0  0  0  0  0  0
   11.8050   -2.1260   24.2500 C   0  0  0  0  0  0  0  0  0  0  0  0
   13.1010   -1.8630   24.6380 C   0  0  0  0  0  0  0  0  0  0  0  0
   13.6760   -2.7790   25.7080 C   0  0  0  0  0  0  0  0  0  0  0  0
   14.9220   -2.5470   26.1240 F   0  0  0  0  0  0  0  0  0  0  0  0
   12.9410   -3.7980   26.2370 C   0  0  0  0  0  0  0  0  0  0  0  0
   11.6420   -4.0070   25.8060 C   0  0  0  0  0  0  0  0  0  0  0  0
    9.4750   -2.4780   23.3400 N   0  0  0  0  0  0  0  0  0  0  0  0
    8.1300   -2.9240   23.0280 C   0  0  0  0  0  0  0  0  0  0  0  0
    7.4150   -2.3200   22.0570 C   0  0  0  0  0  0  0  0  0  0  0  0
    8.3420   -1.4450   21.4240 N   0  0  0  0  0  0  0  0  0  0  0  0
    8.1390   -0.0300   21.3800 C   0  0  0  0  0  0  0  0  0  0  0  0
    9.0190    0.8180   21.3920 O   0  0  0  0  0  0  0  0  0  0  0  0
    6.8190    0.1430   21.3370 N   0  0  0  0  0  0  0  0  0  0  0  0
    6.3220    0.5150   20.1540 C   0  0  0  0  0  0  0  0  0  0  0  0
    5.1790    1.3030   20.1910 C   0  0  0  0  0  0  0  0  0  0  0  0
    4.6030    1.7490   19.0140 C   0  0  0  0  0  0  0  0  0  0  0  0
    5.1870    1.3970   17.8130 C   0  0  0  0  0  0  0  0  0  0  0  0
    6.2840    0.6330   17.7180 N   0  0  0  0  0  0  0  0  0  0  0  0
    6.8440    0.1910   18.9120 C   0  0  0  0  0  0  0  0  0  0  0  0
  1  2  1  0
  2  3  1  0
  3  4  1  0
  4  5  1  0
  5  6  2  0
  6  7  1  0
  7  8  2  0
  8  9  1  0
  8 10  1  0
  5 11  1  0
 10 11  2  0
  4 12  2  0
  2 13  2  0
 12 13  1  0
 13 14  1  0
 14 15  1  0
 15 16  1  0
 16 17  2  0
 16 18  1  0
 18 19  1  0
 19 20  2  0
 20 21  1  0
 21 22  2  0
 22 23  1  0
 19 24  1  0
 23 24  2  0
M  END
