pyridine_urea_9658
     RDKit          3D

 21 23  0  0  0  0  0  0  0  0999 V2000
   12.8640   -2.3900   21.4180 C   0  0  0  0  0  0  0  0  0  0  0  0
   13.6890   -1.5880   22.2190 O   0  0  0  0  0  0  0  0  0  0  0  0
   13.0490   -0.3720   22.4780 C   0  0  0  0  0  0  0  0  0  0  0  0
   13.5640    1.0960   22.7480 C   0  0  0  0  0  0  0  0  0  0  0  0
   12.5980    2.3820   23.0240 C   0  0  0  0  0  0  0  0  0  0  0  0
   11.1110    2.0560   23.0020 C   0  0  0  0  0  0  0  0  0  0  0  0
   12.3550    1.3630   22.8410 C   0  0  0  0  0  0  0  0  0  0  0  0
   11.7340    0.1100   22.5910 C   0  0  0  0  0  0  0  0  0  0  0  0
   10.4470   -0.2400   22.5270 C   0  0  2  0  0  0  0  0  0  0  0  0
   10.0150   -0.5230   23.5950 C   0  0  0  0  0  0  0  0  0  0  0  0
   10.0460   -1.6790   22.6800 C   0  0  1  0  0  0  0  0  0  0  0  0
    8.8310   -1.8010   21.9320 N   0  0  0  0  0  0  0  0  0  0  0  0
    8.1640   -0.5840   21.4120 C   0  0  0  0  0  0  0  0  0  0  0  0
    8.6980    0.5140   21.2870 O   0  0  0  0  0  0  0  0  0  0  0  0
    6.8060   -0.8810   21.0690 N   0  0  0  0  0  0  0  0  0  0  0  0
    6.2480   -0.1050   19.9910 C   0  0  0  0  0  0  0  0  0  0  0  0
    4.9900    0.6600   20.2260 C   0  0  0  0  0  0  0  0  0  0  0  0
    4.5030    1.3970   19.1640 C   0  0  0  0  0  0  0  0  0  0  0  0
    5.2090    1.4160   17.8630 C   0  0  0  0  0  0  0  0  0  0  0  0
    6.3410    0.7100   17.6910 N   0  0  0  0  0  0  0  0  0  0  0  0
    6.8270   -0.0210   18.7300 C   0  0  0  0  0  0  0  0  0  0  0  0
  1  2  1  0
  2  3  1  0
  3  4  2  0
  4  5  1  0
  5  6  2  0
  6  7  1  0
  3  8  1  0
  7  8  2  0
  9  8  1  1
  9 10  1  0
  9 11  1  0
 10 11  1  0
 11 12  1  6
 12 13  1  0
 13 14  2  0
 13 15  1  0
 15 16  1  0
 16 17  2  0
 17 18  1  0
 18 19  2  0
 19 20  1  0
 16 21  1  0
 20 21  2  0
M  END
