pyridine_urea_725
     RDKit          3D

 23 25  0  0  0  0  0  0  0  0999 V2000
    8.9410    1.2840   21.2100 O   0  0  0  0  0  0  0  0  0  0  0  0
    8.6060    0.1150   21.4330 C   0  0  0  0  0  0  0  0  0  0  0  0
    9.2550   -0.7110   22.3240 N   0  0  0  0  0  0  0  0  0  0  0  0
   10.6050   -0.4620   22.5130 C   0  0  0  0  0  0  0  0  0  0  0  0
   11.6490   -1.3670   22.4230 C   0  0  0  0  0  0  0  0  0  0  0  0
   12.9460   -0.9090   22.6220 C   0  0  0  0  0  0  0  0  0  0  0  0
   13.1370    0.4280   22.8970 C   0  0  0  0  0  0  0  0  0  0  0  0
   12.1590    1.3260   22.9940 N   0  0  0  0  0  0  0  0  0  0  0  0
   10.9170    0.8530   22.8040 C   0  0  0  0  0  0  0  0  0  0  0  0
    7.5540   -0.4990   20.8160 N   0  0  0  0  0  0  0  0  0  0  0  0
    6.4250    0.2220   20.4420 C   0  0  2  0  0  0  0  0  0  0  0  0
    5.2480   -0.4910   20.3480 C   0  0  0  0  0  0  0  0  0  0  0  0
    4.1830    0.2530   19.9190 C   0  0  0  0  0  0  0  0  0  0  0  0
    4.3530    0.6260   18.6210 C   0  0  0  0  0  0  0  0  0  0  0  0
    5.3380    1.5020   18.7600 N   0  0  0  0  0  0  0  0  0  0  0  0
    4.9110    2.6270   19.4890 C   0  0  0  0  0  0  0  0  0  0  0  0
    3.4170    2.7670   19.4390 C   0  0  0  0  0  0  0  0  0  0  0  0
    2.8510    3.4120   20.5490 C   0  0  0  0  0  0  0  0  0  0  0  0
    3.6740    4.4240   21.0560 C   0  0  0  0  0  0  0  0  0  0  0  0
    4.9990    4.0760   21.3470 C   0  0  0  0  0  0  0  0  0  0  0  0
    5.4160    2.8760   20.7750 C   0  0  0  0  0  0  0  0  0  0  0  0
    6.5530    0.8670   19.0470 C   0  0  0  0  0  0  0  0  0  0  0  0
    7.5260    0.7810   18.3540 O   0  0  0  0  0  0  0  0  0  0  0  0
  1  2  2  0
  2  3  1  0
  3  4  1  0
  4  5  2  0
  5  6  1  0
  6  7  2  0
  7  8  1  0
  4  9  1  0
  8  9  2  0
  2 10  1  0
 11 10  1  6
 11 12  1  0
 12 13  1  0
 13 14  1  0
 14 15  1  0
 15 16  1  0
 16 17  1  0
 17 18  1  0
 18 19  1  0
 19 20  1  0
 16 21  1  0
 20 21  1  0
 11 22  1  0
 15 22  1  0
 22 23  2  0
M  END
