pyridine_urea_10765
     RDKit          3D

 20 21  0  0  0  0  0  0  0  0999 V2000
    8.9770   -5.7190   24.4950 C   0  0  0  0  0  0  0  0  0  0  0  0
    8.2400   -4.5070   24.6150 O   0  0  0  0  0  0  0  0  0  0  0  0
    8.9270   -3.4430   24.1250 C   0  0  0  0  0  0  0  0  0  0  0  0
   10.3040   -3.4040   24.3640 C   0  0  0  0  0  0  0  0  0  0  0  0
   10.6620   -2.1100   24.9840 N   0  0  0  0  0  0  0  0  0  0  0  0
   10.1080   -0.9380   24.6210 C   0  0  0  0  0  0  0  0  0  0  0  0
    9.4180    0.0050   25.4700 O   0  0  0  0  0  0  0  0  0  0  0  0
   10.1680   -0.5350   23.2860 C   0  0  0  0  0  0  0  0  0  0  0  0
    9.2640   -0.9380   22.3640 N   0  0  0  0  0  0  0  0  0  0  0  0
    8.5790   -0.0480   21.5740 C   0  0  0  0  0  0  0  0  0  0  0  0
    9.0680    1.2060   21.2400 O   0  0  0  0  0  0  0  0  0  0  0  0
    7.3720   -0.4760   21.1330 N   0  0  0  0  0  0  0  0  0  0  0  0
    6.6210    0.1250   20.0580 C   0  0  0  0  0  0  0  0  0  0  0  0
    5.3740    0.9540   20.3550 C   0  0  0  0  0  0  0  0  0  0  0  0
    4.6700    1.5420   19.3090 C   0  0  0  0  0  0  0  0  0  0  0  0
    5.1250    1.3600   17.9950 C   0  0  0  0  0  0  0  0  0  0  0  0
    6.2350    0.6140   17.6780 N   0  0  0  0  0  0  0  0  0  0  0  0
    6.9730   -0.0030   18.7450 C   0  0  0  0  0  0  0  0  0  0  0  0
   10.9410    0.6220   23.0940 C   0  0  0  0  0  0  0  0  0  0  0  0
   11.8150   -0.3240   22.8800 C   0  0  0  0  0  0  0  0  0  0  0  0
  1  2  1  0
  2  3  1  0
  3  4  1  0
  4  5  1  0
  5  6  1  0
  6  7  2  0
  8  6  1  0
  8  9  1  0
  9 10  1  0
 10 11  2  0
 10 12  1  0
 12 13  1  0
 13 14  2  0
 14 15  1  0
 15 16  2  0
 16 17  1  0
 13 18  1  0
 17 18  2  0
  8 19  1  0
  8 20  1  0
 19 20  1  0
M  END
