pyridine_urea_13375
     RDKit          3D

 18 18  0  0  0  0  0  0  0  0999 V2000
   13.6910   -3.2760   25.8600 C   0  0  0  0  0  0  0  0  0  0  0  0
   14.1060   -3.3970   24.5240 O   0  0  0  0  0  0  0  0  0  0  0  0
   13.3830   -2.6760   23.6420 C   0  0  0  0  0  0  0  0  0  0  0  0
   12.1110   -2.2710   23.9590 C   0  0  0  0  0  0  0  0  0  0  0  0
   12.2050   -1.1070   24.2770 O   0  0  0  0  0  0  0  0  0  0  0  0
   12.5090   -0.2450   23.2750 C   0  0  0  0  0  0  0  0  0  0  0  0
   11.3690   -0.1930   22.5320 C   0  0  0  0  0  0  0  0  0  0  0  0
   10.0430   -0.4660   23.2070 C   0  0  0  0  0  0  0  0  0  0  0  0
    9.0520   -0.9210   22.2730 N   0  0  0  0  0  0  0  0  0  0  0  0
    8.4250    0.0090   21.4790 C   0  0  0  0  0  0  0  0  0  0  0  0
    8.9280    1.1050   21.1890 O   0  0  0  0  0  0  0  0  0  0  0  0
    7.1330   -0.4970   21.0720 N   0  0  0  0  0  0  0  0  0  0  0  0
    6.4920    0.1030   20.0250 C   0  0  0  0  0  0  0  0  0  0  0  0
    5.3310    0.8330   20.2430 C   0  0  0  0  0  0  0  0  0  0  0  0
    4.6460    1.4710   19.2330 C   0  0  0  0  0  0  0  0  0  0  0  0
    5.1760    1.3510   17.9540 C   0  0  0  0  0  0  0  0  0  0  0  0
    6.2930    0.6470   17.6920 N   0  0  0  0  0  0  0  0  0  0  0  0
    6.9240    0.0410   18.7220 C   0  0  0  0  0  0  0  0  0  0  0  0
  1  2  1  0
  2  3  1  0
  3  4  1  0
  4  5  1  0
  5  6  1  0
  6  7  1  0
  7  8  1  0
  8  9  1  0
  9 10  1  0
 10 11  2  0
 10 12  1  0
 12 13  1  0
 13 14  2  0
 14 15  1  0
 15 16  2  0
 16 17  1  0
 13 18  1  0
 17 18  2  0
M  END
