pyridine_urea_6005
     RDKit          3D

 27 29  0  0  0  0  0  0  0  0999 V2000
   14.3850    0.8890   22.4760 O   0  0  0  0  0  0  0  0  0  0  0  0
   13.7040   -0.0560   22.6670 C   0  0  0  0  0  0  0  0  0  0  0  0
   13.0560   -0.1090   23.9250 C   0  0  0  0  0  0  0  0  0  0  0  0
   11.8340   -0.2930   23.6900 C   0  0  0  0  0  0  0  0  0  0  0  0
   11.1350   -1.1970   24.4150 C   0  0  0  0  0  0  0  0  0  0  0  0
    9.8200   -1.3760   24.1120 C   0  0  0  0  0  0  0  0  0  0  0  0
    9.2770   -0.5720   23.0310 C   0  0  0  0  0  0  0  0  0  0  0  0
    7.9570   -0.6630   22.6150 N   0  0  0  0  0  0  0  0  0  0  0  0
    7.5800   -0.1730   21.4500 C   0  0  0  0  0  0  0  0  0  0  0  0
    8.2410    0.9220   20.9590 O   0  0  0  0  0  0  0  0  0  0  0  0
    6.4970   -0.8280   20.8050 N   0  0  0  0  0  0  0  0  0  0  0  0
    6.0560   -0.0670   19.7930 C   0  0  0  0  0  0  0  0  0  0  0  0
    4.8940    0.6530   19.9660 C   0  0  0  0  0  0  0  0  0  0  0  0
    4.4390    1.4600   18.9310 C   0  0  0  0  0  0  0  0  0  0  0  0
    5.1650    1.5180   17.7530 C   0  0  0  0  0  0  0  0  0  0  0  0
    6.2950    0.8080   17.5900 N   0  0  0  0  0  0  0  0  0  0  0  0
    6.7120    0.0410   18.6040 C   0  0  0  0  0  0  0  0  0  0  0  0
   10.1240    0.4030   22.2980 C   0  0  0  0  0  0  0  0  0  0  0  0
   11.4050    0.5010   22.6750 C   0  0  0  0  0  0  0  0  0  0  0  0
   13.3490   -1.1450   21.9120 N   0  0  0  0  0  0  0  0  0  0  0  0
   12.3040   -1.8230   22.3830 C   0  0  0  0  0  0  0  0  0  0  0  0
   11.0400   -1.8330   21.8190 C   0  0  0  0  0  0  0  0  0  0  0  0
    9.9850   -2.5290   22.3910 C   0  0  0  0  0  0  0  0  0  0  0  0
   10.2270   -3.2230   23.5660 C   0  0  0  0  0  0  0  0  0  0  0  0
   11.5080   -3.2380   24.1550 C   0  0  0  0  0  0  0  0  0  0  0  0
   12.5320   -2.5440   23.5570 C   0  0  0  0  0  0  0  0  0  0  0  0
   13.7380   -2.5680   24.1290 F   0  0  0  0  0  0  0  0  0  0  0  0
  1  2  2  0
  2  3  1  0
  3  4  1  0
  4  5  2  0
  5  6  1  0
  6  7  2  0
  7  8  1  0
  8  9  1  0
  9 10  2  0
  9 11  1  0
 11 12  1  0
 12 13  2  0
 13 14  1  0
 14 15  2  0
 15 16  1  0
 12 17  1  0
 16 17  2  0
  7 18  1  0
  4 19  1  0
 18 19  2  0
  2 20  1  0
 20 21  1  0
 21 22  2  0
 22 23  1  0
 23 24  2  0
 24 25  1  0
 21 26  1  0
 25 26  2  0
 26 27  1  0
M  END
