pyridine_urea_7791
     RDKit          3D

 27 30  0  0  0  0  0  0  0  0999 V2000
    8.8690    1.0740   21.0670 O   0  0  0  0  0  0  0  0  0  0  0  0
    8.2520    0.0980   21.5010 C   0  0  0  0  0  0  0  0  0  0  0  0
    8.4180   -0.4370   22.7300 N   0  0  0  0  0  0  0  0  0  0  0  0
    8.4040    0.3990   23.8460 C   0  0  0  0  0  0  0  0  0  0  0  0
    9.2920    1.4490   23.8090 C   0  0  0  0  0  0  0  0  0  0  0  0
   10.4830    2.3280   23.7040 C   0  0  0  0  0  0  0  0  0  0  0  0
   11.8530    2.0840   23.4560 C   0  0  0  0  0  0  0  0  0  0  0  0
   12.2200    0.8480   23.2820 C   0  0  0  0  0  0  0  0  0  0  0  0
   13.3810    0.3640   23.0850 C   0  0  0  0  0  0  0  0  0  0  0  0
   13.3390   -0.6200   23.9440 N   0  0  0  0  0  0  0  0  0  0  0  0
   13.2920   -1.6300   24.9130 C   0  0  0  0  0  0  0  0  0  0  0  0
   13.3060   -2.8830   24.3830 N   0  0  0  0  0  0  0  0  0  0  0  0
   13.3840   -2.5940   23.0850 C   0  0  0  0  0  0  0  0  0  0  0  0
   13.4540   -3.3060   21.9440 C   0  0  0  0  0  0  0  0  0  0  0  0
   13.5500   -2.7930   20.7530 C   0  0  0  0  0  0  0  0  0  0  0  0
   13.6120   -1.4570   20.6330 C   0  0  0  0  0  0  0  0  0  0  0  0
   13.5120   -0.7410   21.7490 C   0  0  0  0  0  0  0  0  0  0  0  0
   13.4070   -1.3510   22.8940 C   0  0  0  0  0  0  0  0  0  0  0  0
   11.1570    0.1620   23.3720 C   0  0  0  0  0  0  0  0  0  0  0  0
    9.8940    0.1990   23.5720 C   0  0  0  0  0  0  0  0  0  0  0  0
    7.2560   -0.5720   20.8400 N   0  0  0  0  0  0  0  0  0  0  0  0
    6.4500    0.0950   19.9360 C   0  0  0  0  0  0  0  0  0  0  0  0
    5.2660    0.7730   20.2280 C   0  0  0  0  0  0  0  0  0  0  0  0
    4.5810    1.4220   19.1900 C   0  0  0  0  0  0  0  0  0  0  0  0
    5.1370    1.3380   17.9360 C   0  0  0  0  0  0  0  0  0  0  0  0
    6.2610    0.6850   17.6270 N   0  0  0  0  0  0  0  0  0  0  0  0
    6.8870    0.0820   18.6400 C   0  0  0  0  0  0  0  0  0  0  0  0
  1  2  2  0
  2  3  1  0
  3  4  1  0
  4  5  1  0
  5  6  2  0
  6  7  1  0
  7  8  2  0
  8  9  1  0
  9 10  1  0
 10 11  1  0
 11 12  2  0
 12 13  1  0
 13 14  1  0
 14 15  2  0
 15 16  1  0
 16 17  2  0
 10 18  1  0
 13 18  2  0
 17 18  1  0
  8 19  1  0
  5 20  1  0
 19 20  2  0
  2 21  1  0
 21 22  1  0
 22 23  2  0
 23 24  1  0
 24 25  2  0
 25 26  1  0
 22 27  1  0
 26 27  2  0
M  END
