pyridine_urea_348
     RDKit          3D

 27 29  0  0  0  0  0  0  0  0999 V2000
   19.9380    6.9670   20.5680 C   0  0  0  0  0  0  0  0  0  0  0  0
   19.2740    5.7260   20.3560 O   0  0  0  0  0  0  0  0  0  0  0  0
   18.4300    5.2920   21.3540 C   0  0  0  0  0  0  0  0  0  0  0  0
   18.9290    6.0060   22.5030 C   0  0  0  0  0  0  0  0  0  0  0  0
   18.1910    5.7140   23.6270 C   0  0  0  0  0  0  0  0  0  0  0  0
   17.0260    4.8000   23.6060 C   0  0  0  0  0  0  0  0  0  0  0  0
   16.4270    3.9850   22.4260 C   0  0  0  0  0  0  0  0  0  0  0  0
   15.1290    2.9040   22.0890 C   0  0  0  0  0  0  0  0  0  0  0  0
   13.7120    2.9270   22.4700 C   0  0  0  0  0  0  0  0  0  0  0  0
   13.3040    4.0280   22.8380 O   0  0  0  0  0  0  0  0  0  0  0  0
   12.7630    1.6960   22.4490 N   0  0  0  0  0  0  0  0  0  0  0  0
   13.0220    0.2970   22.6200 C   0  0  0  0  0  0  0  0  0  0  0  0
   11.9020   -0.6420   22.4750 C   0  0  0  0  0  0  0  0  0  0  0  0
   10.5640   -0.1690   22.2260 C   0  0  0  0  0  0  0  0  0  0  0  0
    9.4070   -0.8860   22.0830 N   0  0  0  0  0  0  0  0  0  0  0  0
    8.4000   -0.1650   21.3890 C   0  0  0  0  0  0  0  0  0  0  0  0
    8.5740    1.2210   21.0150 O   0  0  0  0  0  0  0  0  0  0  0  0
    7.2800   -0.8540   21.0830 N   0  0  0  0  0  0  0  0  0  0  0  0
    6.5370   -0.1680   20.1730 C   0  0  0  0  0  0  0  0  0  0  0  0
    5.2680    0.5900   20.4310 C   0  0  0  0  0  0  0  0  0  0  0  0
    4.6130    1.2990   19.2800 C   0  0  0  0  0  0  0  0  0  0  0  0
    5.1790    1.2470   18.0090 C   0  0  0  0  0  0  0  0  0  0  0  0
    6.3120    0.5680   17.7450 N   0  0  0  0  0  0  0  0  0  0  0  0
    6.9690   -0.1350   18.8540 C   0  0  0  0  0  0  0  0  0  0  0  0
   10.8230    0.7520   23.3250 C   0  0  0  0  0  0  0  0  0  0  0  0
   11.4340    1.9740   22.9730 C   0  0  0  0  0  0  0  0  0  0  0  0
   17.3320    4.3540   21.3980 C   0  0  0  0  0  0  0  0  0  0  0  0
  1  2  1  0
  2  3  1  0
  3  4  2  0
  4  5  1  0
  5  6  2  0
  6  7  1  0
  7  8  1  0
  8  9  1  0
  9 10  2  0
  9 11  1  0
 11 12  1  0
 12 13  1  0
 13 14  1  0
 14 15  1  0
 15 16  1  0
 16 17  2  0
 16 18  1  0
 18 19  1  0
 19 20  2  0
 20 21  1  0
 21 22  2  0
 22 23  1  0
 19 24  1  0
 23 24  2  0
 14 25  1  0
 11 26  1  0
 25 26  1  0
  3 27  1  0
  7 27  2  0
M  END
