pyridine_urea_3053
     RDKit          3D

 21 22  0  0  0  0  0  0  0  0999 V2000
    8.8230    1.1340   21.2210 O   0  0  0  0  0  0  0  0  0  0  0  0
    8.3150    0.0390   21.5140 C   0  0  0  0  0  0  0  0  0  0  0  0
    8.8840   -0.8350   22.3940 N   0  0  0  0  0  0  0  0  0  0  0  0
   10.3200   -0.9700   22.2800 C   0  0  0  0  0  0  0  0  0  0  0  0
   11.1530    0.0330   23.1760 C   0  0  2  0  0  0  0  0  0  0  0  0
   11.8600    1.0380   22.4220 O   0  0  0  0  0  0  0  0  0  0  0  0
   12.0270   -0.5990   24.0260 C   0  0  0  0  0  0  0  0  0  0  0  0
   11.7340   -0.6000   25.3820 C   0  0  0  0  0  0  0  0  0  0  0  0
   12.7920   -1.1750   24.7920 C   0  0  0  0  0  0  0  0  0  0  0  0
   12.1260   -0.5550   23.3530 C   0  0  0  0  0  0  0  0  0  0  0  0
   10.6900    0.4080   23.1890 Cl  0  0  0  0  0  0  0  0  0  0  0  0
   13.0940   -1.0570   22.3070 C   0  0  0  0  0  0  0  0  0  0  0  0
   13.5100   -1.1770   21.0210 F   0  0  0  0  0  0  0  0  0  0  0  0
   13.2610   -1.3130   23.6360 C   0  0  0  0  0  0  0  0  0  0  0  0
    7.1440   -0.4730   21.0390 N   0  0  0  0  0  0  0  0  0  0  0  0
    6.4890    0.1130   20.0040 C   0  0  0  0  0  0  0  0  0  0  0  0
    5.2030    0.8910   20.2920 C   0  0  0  0  0  0  0  0  0  0  0  0
    4.5350    1.5530   19.0920 C   0  0  0  0  0  0  0  0  0  0  0  0
    5.1230    1.4100   17.8490 C   0  0  0  0  0  0  0  0  0  0  0  0
    6.2670    0.6900   17.6770 N   0  0  0  0  0  0  0  0  0  0  0  0
    6.9350    0.0560   18.7070 C   0  0  0  0  0  0  0  0  0  0  0  0
  1  2  2  0
  2  3  1  0
  3  4  1  0
  4  5  1  0
  5  6  1  6
  5  7  1  0
  7  8  2  0
  8  9  1  0
  9 10  2  0
 10 11  1  0
 10 12  1  0
 12 13  1  0
  7 14  1  0
 12 14  2  0
  2 15  1  0
 15 16  1  0
 16 17  2  0
 17 18  1  0
 18 19  2  0
 19 20  1  0
 16 21  1  0
 20 21  2  0
M  END
