pyridine_urea_8641
     RDKit          3D

 21 22  0  0  0  0  0  0  0  0999 V2000
   13.1840   -2.4370   20.9900 C   0  0  0  0  0  0  0  0  0  0  0  0
   13.3140   -1.0990   21.2810 O   0  0  0  0  0  0  0  0  0  0  0  0
   12.4410   -0.8210   22.2580 C   0  0  0  0  0  0  0  0  0  0  0  0
   11.2210   -1.4260   22.4360 C   0  0  0  0  0  0  0  0  0  0  0  0
   10.2180   -1.2490   23.4320 C   0  0  0  0  0  0  0  0  0  0  0  0
    9.8390   -2.1660   22.5260 C   0  0  0  0  0  0  0  0  0  0  0  0
    9.1250   -1.6470   21.4320 N   0  0  0  0  0  0  0  0  0  0  0  0
    8.4330   -0.4520   21.3660 C   0  0  0  0  0  0  0  0  0  0  0  0
    8.9180    0.6630   21.5040 O   0  0  0  0  0  0  0  0  0  0  0  0
    7.1010   -0.6870   21.0830 N   0  0  0  0  0  0  0  0  0  0  0  0
    6.4020    0.0060   20.0890 C   0  0  0  0  0  0  0  0  0  0  0  0
    5.1100    0.8030   20.2360 C   0  0  0  0  0  0  0  0  0  0  0  0
    4.5790    1.4330   19.1300 C   0  0  0  0  0  0  0  0  0  0  0  0
    5.2160    1.3370   17.9130 C   0  0  0  0  0  0  0  0  0  0  0  0
    6.3600    0.6420   17.7160 N   0  0  0  0  0  0  0  0  0  0  0  0
    6.8920    0.0160   18.7920 C   0  0  0  0  0  0  0  0  0  0  0  0
   10.8100   -0.2700   24.2410 C   0  0  0  0  0  0  0  0  0  0  0  0
    9.5910    0.0050   25.6670 Br  0  0  0  0  0  0  0  0  0  0  0  0
   12.0370    0.4180   24.1100 C   0  0  0  0  0  0  0  0  0  0  0  0
   12.8240    0.1110   23.0930 C   0  0  0  0  0  0  0  0  0  0  0  0
   14.0510    0.7750   22.9270 O   0  0  0  0  0  0  0  0  0  0  0  0
  1  2  1  0
  2  3  1  0
  3  4  2  0
  4  5  1  0
  5  6  1  0
  6  7  1  0
  7  8  1  0
  8  9  2  0
  8 10  1  0
 10 11  1  0
 11 12  2  0
 12 13  1  0
 13 14  2  0
 14 15  1  0
 11 16  1  0
 15 16  2  0
  5 17  2  0
 17 18  1  0
 17 19  1  0
  3 20  1  0
 19 20  2  0
 20 21  1  0
M  END
