pyridine_urea_11992
     RDKit          3D

 24 25  0  0  0  0  0  0  0  0999 V2000
   10.8570    6.6630   23.0730 C   0  0  0  0  0  0  0  0  0  0  0  0
   11.2400    5.4230   23.5260 N   0  0  0  0  0  0  0  0  0  0  0  0
   10.6490    4.7280   24.5960 C   0  0  0  0  0  0  0  0  0  0  0  0
   12.5320    5.1030   23.1440 C   0  0  0  0  0  0  0  0  0  0  0  0
   12.6730    3.9820   22.3230 C   0  0  0  0  0  0  0  0  0  0  0  0
   12.2290    2.7410   22.9940 N   0  0  0  0  0  0  0  0  0  0  0  0
   13.2670    1.7570   22.9640 C   0  0  0  0  0  0  0  0  0  0  0  0
   13.7380    0.6350   22.8900 O   0  0  0  0  0  0  0  0  0  0  0  0
   12.2370    0.9220   22.8230 C   0  0  0  0  0  0  0  0  0  0  0  0
   11.0070    1.4430   22.9920 C   0  0  0  0  0  0  0  0  0  0  0  0
    9.7960    0.6370   22.8260 C   0  0  0  0  0  0  0  0  0  0  0  0
    9.9540   -0.6880   22.4740 C   0  0  0  0  0  0  0  0  0  0  0  0
    8.8520   -1.3870   22.2660 N   0  0  0  0  0  0  0  0  0  0  0  0
    8.1320   -0.5630   21.4490 C   0  0  0  0  0  0  0  0  0  0  0  0
    8.5170    0.5520   21.1130 O   0  0  0  0  0  0  0  0  0  0  0  0
    6.8720   -1.0670   20.9840 N   0  0  0  0  0  0  0  0  0  0  0  0
    6.2450   -0.2650   20.0530 C   0  0  0  0  0  0  0  0  0  0  0  0
    5.0650    0.4500   20.2510 C   0  0  0  0  0  0  0  0  0  0  0  0
    4.5730    1.2250   19.1990 C   0  0  0  0  0  0  0  0  0  0  0  0
    5.2340    1.2890   17.9880 C   0  0  0  0  0  0  0  0  0  0  0  0
    6.3700    0.6060   17.7770 N   0  0  0  0  0  0  0  0  0  0  0  0
    6.8430   -0.1470   18.8020 C   0  0  0  0  0  0  0  0  0  0  0  0
   11.2460   -1.2420   22.3180 C   0  0  0  0  0  0  0  0  0  0  0  0
   12.3850   -0.4400   22.4960 C   0  0  0  0  0  0  0  0  0  0  0  0
  1  2  1  0
  2  3  1  0
  2  4  1  0
  4  5  1  0
  5  6  1  0
  6  7  1  0
  7  8  2  0
  7  9  1  0
  9 10  2  0
 10 11  1  0
 11 12  2  0
 12 13  1  0
 13 14  1  0
 14 15  2  0
 14 16  1  0
 16 17  1  0
 17 18  2  0
 18 19  1  0
 19 20  2  0
 20 21  1  0
 17 22  1  0
 21 22  2  0
 12 23  1  0
  9 24  1  0
 23 24  2  0
M  END
