pyridine_urea_10348
     RDKit          3D

 22 23  0  0  0  0  0  0  0  0999 V2000
    8.6100    3.5250   23.6450 C   0  0  0  0  0  0  0  0  0  0  0  0
    8.8420    2.2230   24.1820 O   0  0  0  0  0  0  0  0  0  0  0  0
   10.1140    1.7640   23.9820 C   0  0  0  0  0  0  0  0  0  0  0  0
   11.0330    2.5090   23.6340 O   0  0  0  0  0  0  0  0  0  0  0  0
   10.2570    0.2510   24.2550 C   0  0  1  0  0  0  0  0  0  0  0  0
    9.1790   -0.6190   23.6120 C   0  0  0  0  0  0  0  0  0  0  0  0
    8.1200    0.1140   22.9670 N   0  0  0  0  0  0  0  0  0  0  0  0
    8.1160    0.3540   21.6130 C   0  0  0  0  0  0  0  0  0  0  0  0
    8.7890    1.2420   21.0860 O   0  0  0  0  0  0  0  0  0  0  0  0
    7.2630   -0.4970   21.0110 N   0  0  0  0  0  0  0  0  0  0  0  0
    6.5140    0.1090   20.0810 C   0  0  0  0  0  0  0  0  0  0  0  0
    5.3470    0.8270   20.3340 C   0  0  0  0  0  0  0  0  0  0  0  0
    4.6790    1.4260   19.2620 C   0  0  0  0  0  0  0  0  0  0  0  0
    5.1550    1.3160   17.9710 C   0  0  0  0  0  0  0  0  0  0  0  0
    6.2640    0.6330   17.6580 N   0  0  0  0  0  0  0  0  0  0  0  0
    6.9370    0.0410   18.6650 C   0  0  0  0  0  0  0  0  0  0  0  0
   11.5200   -0.3560   23.6680 C   0  0  0  0  0  0  0  0  0  0  0  0
   12.4550    0.5590   23.1950 C   0  0  0  0  0  0  0  0  0  0  0  0
   13.2220   -0.5230   22.4710 C   0  0  0  0  0  0  0  0  0  0  0  0
   12.5110   -1.6890   22.3350 C   0  0  0  0  0  0  0  0  0  0  0  0
   12.2080   -2.3090   23.5460 C   0  0  0  0  0  0  0  0  0  0  0  0
   12.0980   -1.4190   24.6240 C   0  0  0  0  0  0  0  0  0  0  0  0
  1  2  1  0
  2  3  1  0
  3  4  2  0
  3  5  1  0
  5  6  1  6
  6  7  1  0
  7  8  1  0
  8  9  2  0
  8 10  1  0
 10 11  1  0
 11 12  2  0
 12 13  1  0
 13 14  2  0
 14 15  1  0
 11 16  1  0
 15 16  2  0
  5 17  1  0
 17 18  1  0
 18 19  1  0
 19 20  1  0
 20 21  1  0
 17 22  1  0
 21 22  1  0
M  END
