pyridine_urea_14492
     RDKit          3D

 21 22  0  0  0  0  0  0  0  0999 V2000
    8.5410    0.9610   21.0620 O   0  0  0  0  0  0  0  0  0  0  0  0
    8.2200   -0.1990   21.2940 C   0  0  0  0  0  0  0  0  0  0  0  0
    6.9070   -0.7070   20.9720 N   0  0  0  0  0  0  0  0  0  0  0  0
    6.2930   -0.0030   19.9660 C   0  0  0  0  0  0  0  0  0  0  0  0
    5.1020    0.6820   20.1900 C   0  0  0  0  0  0  0  0  0  0  0  0
    4.5420    1.3890   19.1250 C   0  0  0  0  0  0  0  0  0  0  0  0
    5.1930    1.3820   17.8890 C   0  0  0  0  0  0  0  0  0  0  0  0
    6.3370    0.7140   17.6750 N   0  0  0  0  0  0  0  0  0  0  0  0
    6.8610    0.0360   18.7170 C   0  0  0  0  0  0  0  0  0  0  0  0
    8.9880   -1.1520   21.8740 N   0  0  0  0  0  0  0  0  0  0  0  0
    9.5630   -0.7720   23.1260 C   0  0  2  0  0  0  0  0  0  0  0  0
   10.7970    0.0560   22.8650 C   0  0  0  0  0  0  0  0  0  0  0  0
   12.0640    0.7310   22.7000 C   0  0  0  0  0  0  0  0  0  0  0  0
   13.3060    0.4090   23.1220 C   0  0  0  0  0  0  0  0  0  0  0  0
   13.2430   -0.6900   23.7760 C   0  0  0  0  0  0  0  0  0  0  0  0
   12.0410   -0.3330   23.3330 F   0  0  0  0  0  0  0  0  0  0  0  0
   12.3800   -1.5430   24.1280 C   0  0  0  0  0  0  0  0  0  0  0  0
   11.1450   -1.1570   23.6590 C   0  0  0  0  0  0  0  0  0  0  0  0
    9.7630   -1.6840   24.1190 C   0  0  0  0  0  0  0  0  0  0  0  0
    8.5310   -2.0950   24.5110 F   0  0  0  0  0  0  0  0  0  0  0  0
   10.3940   -2.7900   23.6490 F   0  0  0  0  0  0  0  0  0  0  0  0
  1  2  2  0
  2  3  1  0
  3  4  1  0
  4  5  2  0
  5  6  1  0
  6  7  2  0
  7  8  1  0
  4  9  1  0
  8  9  2  0
  2 10  1  0
 11 10  1  6
 11 12  1  0
 12 13  2  0
 13 14  1  0
 14 15  2  0
 15 16  1  0
 15 17  1  0
 12 18  1  0
 17 18  2  0
 11 19  1  0
 19 20  1  0
 19 21  1  0
M  END
