pyridine_urea_10057
     RDKit          3D

 24 26  0  0  0  0  0  0  0  0999 V2000
    9.0100    1.1080   21.2890 O   0  0  0  0  0  0  0  0  0  0  0  0
    8.4350    0.0640   21.6380 C   0  0  0  0  0  0  0  0  0  0  0  0
    8.8270   -0.7690   22.6890 N   0  0  0  0  0  0  0  0  0  0  0  0
    9.0930   -2.1630   22.6400 C   0  0  0  0  0  0  0  0  0  0  0  0
    8.1140   -3.1660   22.7880 C   0  0  2  0  0  0  0  0  0  0  0  0
    6.7850   -2.7600   22.5250 C   0  0  0  0  0  0  0  0  0  0  0  0
    5.9760   -3.8050   22.9140 C   0  0  0  0  0  0  0  0  0  0  0  0
    6.6300   -4.5740   23.7710 N   0  0  0  0  0  0  0  0  0  0  0  0
    5.9030   -5.1510   24.7580 C   0  0  0  0  0  0  0  0  0  0  0  0
    4.5860   -5.8800   24.4560 C   0  0  0  0  0  0  0  0  0  0  0  0
    3.7950   -6.4860   25.4210 C   0  0  0  0  0  0  0  0  0  0  0  0
    4.2380   -6.4210   26.7510 C   0  0  0  0  0  0  0  0  0  0  0  0
    3.5080   -6.9870   27.7260 F   0  0  0  0  0  0  0  0  0  0  0  0
    5.4400   -5.7660   27.0720 C   0  0  0  0  0  0  0  0  0  0  0  0
    5.7730   -5.7650   28.3930 F   0  0  0  0  0  0  0  0  0  0  0  0
    6.2540   -5.1500   26.1120 C   0  0  0  0  0  0  0  0  0  0  0  0
    7.9020   -3.8890   24.0280 C   0  0  0  0  0  0  0  0  0  0  0  0
    7.2850   -0.4400   21.0590 N   0  0  0  0  0  0  0  0  0  0  0  0
    6.5960    0.1240   20.0490 C   0  0  0  0  0  0  0  0  0  0  0  0
    5.4510    0.8790   20.3490 C   0  0  0  0  0  0  0  0  0  0  0  0
    4.7240    1.4870   19.3240 C   0  0  0  0  0  0  0  0  0  0  0  0
    5.1780    1.3130   18.0320 C   0  0  0  0  0  0  0  0  0  0  0  0
    6.2490    0.6040   17.6750 N   0  0  0  0  0  0  0  0  0  0  0  0
    6.9530    0.0080   18.7220 C   0  0  0  0  0  0  0  0  0  0  0  0
  1  2  2  0
  2  3  1  0
  3  4  1  0
  5  4  1  1
  5  6  1  0
  6  7  1  0
  7  8  1  0
  8  9  1  0
  9 10  2  0
 10 11  1  0
 11 12  2  0
 12 13  1  0
 12 14  1  0
 14 15  1  0
  9 16  1  0
 14 16  2  0
  5 17  1  0
  8 17  1  0
  2 18  1  0
 18 19  1  0
 19 20  2  0
 20 21  1  0
 21 22  2  0
 22 23  1  0
 19 24  1  0
 23 24  2  0
M  END
