pyridine_urea_7246
     RDKit          3D

 19 19  0  0  0  0  0  0  0  0999 V2000
   10.3800    3.7480   23.8320 C   0  0  0  0  0  0  0  0  0  0  0  0
   11.2350    3.1920   22.7040 C   0  0  0  0  0  0  0  0  0  0  0  0
   12.5230    3.6960   22.5500 C   0  0  0  0  0  0  0  0  0  0  0  0
   11.4220    1.7710   22.7960 O   0  0  0  0  0  0  0  0  0  0  0  0
   10.2180    0.9690   22.9480 C   0  0  0  0  0  0  0  0  0  0  0  0
    9.0640    1.3190   23.2010 O   0  0  0  0  0  0  0  0  0  0  0  0
   10.3880   -0.4080   22.7990 C   0  0  0  0  0  0  0  0  0  0  0  0
   11.6920   -0.7610   22.4250 C   0  0  0  0  0  0  0  0  0  0  0  0
    9.9770   -1.1020   23.9350 C   0  0  0  0  0  0  0  0  0  0  0  0
    9.5200   -0.9480   21.8300 N   0  0  0  0  0  0  0  0  0  0  0  0
    8.5770   -0.0290   21.3560 C   0  0  0  0  0  0  0  0  0  0  0  0
    8.7980    1.1650   21.1040 O   0  0  0  0  0  0  0  0  0  0  0  0
    7.2710   -0.6750   21.1740 N   0  0  0  0  0  0  0  0  0  0  0  0
    6.5430    0.0100   20.0790 C   0  0  0  0  0  0  0  0  0  0  0  0
    5.3860    0.7210   20.3550 C   0  0  0  0  0  0  0  0  0  0  0  0
    4.6650    1.3930   19.3770 C   0  0  0  0  0  0  0  0  0  0  0  0
    5.2150    1.3060   18.0040 C   0  0  0  0  0  0  0  0  0  0  0  0
    6.3440    0.6040   17.7380 N   0  0  0  0  0  0  0  0  0  0  0  0
    6.9770   -0.0230   18.7630 C   0  0  0  0  0  0  0  0  0  0  0  0
  1  2  1  0
  2  3  1  0
  2  4  1  0
  4  5  1  0
  5  6  2  0
  7  5  1  0
  7  8  1  0
  7  9  1  0
  7 10  1  0
 10 11  1  0
 11 12  2  0
 11 13  1  0
 13 14  1  0
 14 15  2  0
 15 16  1  0
 16 17  2  0
 17 18  1  0
 14 19  1  0
 18 19  2  0
M  END
