pyridine_urea_4872
     RDKit          3D

 21 23  0  0  0  0  0  0  0  0999 V2000
    8.8150    1.2780   21.0540 O   0  0  0  0  0  0  0  0  0  0  0  0
    8.5810    0.1520   21.5090 C   0  0  0  0  0  0  0  0  0  0  0  0
    7.4660   -0.5630   21.1120 N   0  0  0  0  0  0  0  0  0  0  0  0
    6.7310    0.0030   20.0080 C   0  0  0  0  0  0  0  0  0  0  0  0
    5.4940    0.8470   20.3750 C   0  0  0  0  0  0  0  0  0  0  0  0
    4.7330    1.4520   19.3760 C   0  0  0  0  0  0  0  0  0  0  0  0
    5.1340    1.2650   18.0590 C   0  0  0  0  0  0  0  0  0  0  0  0
    6.2350    0.5000   17.7720 N   0  0  0  0  0  0  0  0  0  0  0  0
    7.0440   -0.1400   18.7180 C   0  0  0  0  0  0  0  0  0  0  0  0
    9.3660   -0.5010   22.4330 N   0  0  0  0  0  0  0  0  0  0  0  0
   10.1580   -1.0650   23.3970 C   0  0  2  0  0  0  0  0  0  0  0  0
   10.6160   -0.0740   24.2990 C   0  0  0  0  0  0  0  0  0  0  0  0
   11.6420    0.8080   23.8700 C   0  0  0  0  0  0  0  0  0  0  0  0
   12.7840    0.9280   23.0700 C   0  0  0  0  0  0  0  0  0  0  0  0
   13.1070   -0.3290   22.3570 C   0  0  0  0  0  0  0  0  0  0  0  0
   12.1660   -1.5430   22.5960 C   0  0  0  0  0  0  0  0  0  0  0  0
   11.2630   -1.1000   23.4370 N   0  0  0  0  0  0  0  0  0  0  0  0
   12.1090   -0.1560   23.1590 C   0  0  0  0  0  0  0  0  0  0  0  0
   12.2490   -1.3300   22.6130 N   0  0  0  0  0  0  0  0  0  0  0  0
   11.2750   -1.9340   23.3130 C   0  0  0  0  0  0  0  0  0  0  0  0
   11.3910   -3.2040   23.9660 O   0  0  0  0  0  0  0  0  0  0  0  0
  1  2  2  0
  2  3  1  0
  3  4  1  0
  4  5  2  0
  5  6  1  0
  6  7  2  0
  7  8  1  0
  4  9  1  0
  8  9  2  0
  2 10  1  0
 11 10  1  6
 11 12  1  0
 12 13  1  0
 13 14  2  0
 14 15  1  0
 15 16  2  0
 16 17  1  0
 13 18  1  0
 17 18  2  0
 18 19  1  0
 11 20  1  0
 19 20  1  0
 20 21  2  0
M  END
