pyridine_urea_1889
     RDKit          3D

 17 18  0  0  0  0  0  0  0  0999 V2000
   13.0360   -1.0080   23.9240 C   0  0  0  0  0  0  0  0  0  0  0  0
   11.9530   -0.4200   23.1140 C   0  0  2  0  0  0  0  0  0  0  0  0
   12.0430    0.9450   22.8630 C   0  0  0  0  0  0  0  0  0  0  0  0
   10.9500    1.4710   22.7150 O   0  0  0  0  0  0  0  0  0  0  0  0
   10.6070   -0.6490   23.8830 C   0  0  0  0  0  0  0  0  0  0  0  0
   10.0890   -1.4800   22.9770 C   0  0  1  0  0  0  0  0  0  0  0  0
    8.6870   -1.1910   22.7220 N   0  0  0  0  0  0  0  0  0  0  0  0
    8.3530   -0.3040   21.7190 C   0  0  0  0  0  0  0  0  0  0  0  0
    8.9950    0.6900   21.4190 O   0  0  0  0  0  0  0  0  0  0  0  0
    7.1110   -0.6870   21.0600 N   0  0  0  0  0  0  0  0  0  0  0  0
    6.4830   -0.0470   20.0420 C   0  0  0  0  0  0  0  0  0  0  0  0
    5.1880    0.7390   20.3160 C   0  0  0  0  0  0  0  0  0  0  0  0
    4.6000    1.3850   19.2430 C   0  0  0  0  0  0  0  0  0  0  0  0
    5.1940    1.2970   17.9870 C   0  0  0  0  0  0  0  0  0  0  0  0
    6.3230    0.6090   17.7300 N   0  0  0  0  0  0  0  0  0  0  0  0
    6.9380   -0.0420   18.7370 C   0  0  0  0  0  0  0  0  0  0  0  0
   11.2060   -1.2790   22.2460 C   0  0  0  0  0  0  0  0  0  0  0  0
  2  1  1  1
  2  3  1  0
  3  4  1  0
  2  5  1  0
  5  6  1  0
  6  7  1  6
  7  8  1  0
  8  9  2  0
  8 10  1  0
 10 11  1  0
 11 12  2  0
 12 13  1  0
 13 14  2  0
 14 15  1  0
 11 16  1  0
 15 16  2  0
  2 17  1  0
  6 17  1  0
M  END
