pyridine_urea_6351
     RDKit          3D

 23 25  0  0  0  0  0  0  0  0999 V2000
    8.3350    0.9170   20.9350 O   0  0  0  0  0  0  0  0  0  0  0  0
    7.8220   -0.0020   21.5590 C   0  0  0  0  0  0  0  0  0  0  0  0
    6.8180   -0.7540   21.0450 N   0  0  0  0  0  0  0  0  0  0  0  0
    6.2620   -0.0570   19.9320 C   0  0  0  0  0  0  0  0  0  0  0  0
    4.9550    0.6650   20.1910 C   0  0  0  0  0  0  0  0  0  0  0  0
    4.4280    1.4060   19.0160 C   0  0  0  0  0  0  0  0  0  0  0  0
    5.1500    1.3700   17.8380 C   0  0  0  0  0  0  0  0  0  0  0  0
    6.3070    0.7000   17.6670 N   0  0  0  0  0  0  0  0  0  0  0  0
    6.8300    0.0120   18.6930 C   0  0  0  0  0  0  0  0  0  0  0  0
    8.2140   -0.3110   22.8090 N   0  0  0  0  0  0  0  0  0  0  0  0
    9.5520    0.1970   22.9790 C   0  0  0  0  0  0  0  0  0  0  0  0
    9.8280    1.4940   23.1450 C   0  0  0  0  0  0  0  0  0  0  0  0
   11.3450    1.7130   23.2810 C   0  0  0  0  0  0  0  0  0  0  0  0
   12.3030    0.7760   23.2390 C   0  0  0  0  0  0  0  0  0  0  0  0
   11.8450   -0.4550   23.0510 C   0  0  0  0  0  0  0  0  0  0  0  0
   12.5520   -1.4400   22.9170 C   0  0  0  0  0  0  0  0  0  0  0  0
   13.4350   -1.9480   23.9840 C   0  0  0  0  0  0  0  0  0  0  0  0
   13.8520   -2.9610   23.0100 C   0  0  0  0  0  0  0  0  0  0  0  0
   13.4800   -3.2680   21.5590 C   0  0  0  0  0  0  0  0  0  0  0  0
   14.2100   -4.3840   20.9950 O   0  0  0  0  0  0  0  0  0  0  0  0
   12.6510   -2.6570   20.8870 N   0  0  0  0  0  0  0  0  0  0  0  0
   12.2290   -1.7640   21.6390 C   0  0  0  0  0  0  0  0  0  0  0  0
   10.5940   -0.7980   22.9300 C   0  0  0  0  0  0  0  0  0  0  0  0
  1  2  2  0
  2  3  1  0
  3  4  1  0
  4  5  2  0
  5  6  1  0
  6  7  2  0
  7  8  1  0
  4  9  1  0
  8  9  2  0
  2 10  1  0
 10 11  1  0
 11 12  2  0
 12 13  1  0
 13 14  2  0
 14 15  1  0
 15 16  1  0
 16 17  2  0
 17 18  1  0
 18 19  2  0
 19 20  1  0
 19 21  1  0
 16 22  1  0
 21 22  2  0
 11 23  1  0
 15 23  2  0
M  END
