pyridine_urea_15000
     RDKit          3D

 19 19  0  0  0  0  0  0  0  0999 V2000
   13.1680   -1.6940   21.2970 C   0  0  0  0  0  0  0  0  0  0  0  0
   13.0480   -2.7000   22.4240 C   0  0  0  0  0  0  0  0  0  0  0  0
   13.1260   -2.1640   23.7640 N   0  0  0  0  0  0  0  0  0  0  0  0
   11.9390   -1.8620   24.3760 C   0  0  0  0  0  0  0  0  0  0  0  0
   11.4410   -2.5020   25.2880 O   0  0  0  0  0  0  0  0  0  0  0  0
   11.2740   -0.6270   23.8100 C   0  0  0  0  0  0  0  0  0  0  0  0
   12.3260    0.3740   23.3010 C   0  0  0  0  0  0  0  0  0  0  0  0
   10.3420   -0.0050   24.8610 C   0  0  0  0  0  0  0  0  0  0  0  0
   10.5950   -0.5970   22.4220 C   0  0  0  0  0  0  0  0  0  0  0  0
    9.1410   -0.7310   22.4300 N   0  0  0  0  0  0  0  0  0  0  0  0
    8.4110    0.0560   21.5090 C   0  0  0  0  0  0  0  0  0  0  0  0
    8.8530    1.3130   21.1240 O   0  0  0  0  0  0  0  0  0  0  0  0
    7.2810   -0.5730   21.1000 N   0  0  0  0  0  0  0  0  0  0  0  0
    6.6140    0.0170   20.0700 C   0  0  0  0  0  0  0  0  0  0  0  0
    5.5020    0.7900   20.3830 C   0  0  0  0  0  0  0  0  0  0  0  0
    4.7760    1.4350   19.3930 C   0  0  0  0  0  0  0  0  0  0  0  0
    5.1750    1.2990   18.0860 C   0  0  0  0  0  0  0  0  0  0  0  0
    6.2490    0.5510   17.7060 N   0  0  0  0  0  0  0  0  0  0  0  0
    7.0190   -0.1350   18.7470 C   0  0  0  0  0  0  0  0  0  0  0  0
  1  2  1  0
  2  3  1  0
  3  4  1  0
  4  5  2  0
  6  4  1  0
  6  7  1  0
  6  8  1  0
  6  9  1  0
  9 10  1  0
 10 11  1  0
 11 12  2  0
 11 13  1  0
 13 14  1  0
 14 15  2  0
 15 16  1  0
 16 17  2  0
 17 18  1  0
 14 19  1  0
 18 19  2  0
M  END
