pyridine_urea_7213
     RDKit          3D

 19 21  0  0  0  0  0  0  0  0999 V2000
    8.7950    1.2250   21.0630 O   0  0  0  0  0  0  0  0  0  0  0  0
    8.4340    0.1160   21.4630 C   0  0  0  0  0  0  0  0  0  0  0  0
    7.2870   -0.5150   21.0210 N   0  0  0  0  0  0  0  0  0  0  0  0
    6.4810    0.1050   20.0570 C   0  0  0  0  0  0  0  0  0  0  0  0
    5.2900    0.7860   20.3000 C   0  0  0  0  0  0  0  0  0  0  0  0
    4.6050    1.3760   19.2380 C   0  0  0  0  0  0  0  0  0  0  0  0
    5.1410    1.2610   17.9730 C   0  0  0  0  0  0  0  0  0  0  0  0
    6.2780    0.6030   17.7110 N   0  0  0  0  0  0  0  0  0  0  0  0
    6.9120    0.0450   18.7480 C   0  0  0  0  0  0  0  0  0  0  0  0
    9.1470   -0.6220   22.3890 N   0  0  0  0  0  0  0  0  0  0  0  0
   10.4490   -0.2600   22.7740 C   0  0  0  0  0  0  0  0  0  0  0  0
   10.7870    1.1020   22.7830 C   0  0  0  0  0  0  0  0  0  0  0  0
    9.8930    2.1770   22.7450 C   0  0  0  0  0  0  0  0  0  0  0  0
   10.4270    3.4570   22.7560 C   0  0  0  0  0  0  0  0  0  0  0  0
   11.8080    3.6080   22.8080 C   0  0  0  0  0  0  0  0  0  0  0  0
   12.6810    2.5840   22.8510 N   0  0  0  0  0  0  0  0  0  0  0  0
   12.1600    1.3280   22.8350 C   0  0  0  0  0  0  0  0  0  0  0  0
   11.0110   -1.1230   23.5410 C   0  0  0  0  0  0  0  0  0  0  0  0
   11.7550   -1.0990   22.4930 C   0  0  0  0  0  0  0  0  0  0  0  0
  1  2  2  0
  2  3  1  0
  3  4  1  0
  4  5  2  0
  5  6  1  0
  6  7  2  0
  7  8  1  0
  4  9  1  0
  8  9  2  0
  2 10  1  0
 11 10  1  0
 11 12  1  0
 12 13  2  0
 13 14  1  0
 14 15  2  0
 15 16  1  0
 12 17  1  0
 16 17  2  0
 11 18  1  0
 11 19  1  0
 18 19  1  0
M  END
