pyridine_urea_3376
     RDKit          3D

 19 20  0  0  0  0  0  0  0  0999 V2000
   11.7830   -1.7880   22.0960 C   0  0  0  0  0  0  0  0  0  0  0  0
   10.5350   -1.1950   22.7030 C   0  0  2  0  0  0  0  0  0  0  0  0
    9.4810   -1.3510   21.6940 N   0  0  0  0  0  0  0  0  0  0  0  0
    8.6060   -0.1780   21.4480 C   0  0  0  0  0  0  0  0  0  0  0  0
    9.0640    0.9740   21.4900 O   0  0  0  0  0  0  0  0  0  0  0  0
    7.3120   -0.5320   21.1300 N   0  0  0  0  0  0  0  0  0  0  0  0
    6.5840    0.0640   20.0840 C   0  0  0  0  0  0  0  0  0  0  0  0
    5.4100    0.7350   20.3650 C   0  0  0  0  0  0  0  0  0  0  0  0
    4.6370    1.3890   19.2380 C   0  0  0  0  0  0  0  0  0  0  0  0
    5.1530    1.2820   17.9600 C   0  0  0  0  0  0  0  0  0  0  0  0
    6.2960    0.6130   17.7190 N   0  0  0  0  0  0  0  0  0  0  0  0
    6.9720    0.0300   18.7500 C   0  0  0  0  0  0  0  0  0  0  0  0
   10.7490    0.2870   23.1720 C   0  0  0  0  0  0  0  0  0  0  0  0
    9.9800    1.0980   23.5130 C   0  0  0  0  0  0  0  0  0  0  0  0
   11.1580    1.7840   23.6240 C   0  0  0  0  0  0  0  0  0  0  0  0
   11.7110    0.3450   23.1090 C   0  0  0  0  0  0  0  0  0  0  0  0
   12.9850    0.8820   23.1610 C   0  0  0  0  0  0  0  0  0  0  0  0
   11.8260    1.2620   23.3860 C   0  0  0  0  0  0  0  0  0  0  0  0
   11.6700    2.6100   23.8190 O   0  0  0  0  0  0  0  0  0  0  0  0
  2  1  1  6
  2  3  1  0
  3  4  1  0
  4  5  2  0
  4  6  1  0
  6  7  1  0
  7  8  2  0
  8  9  1  0
  9 10  2  0
 10 11  1  0
  7 12  1  0
 11 12  2  0
  2 13  1  0
 13 14  2  0
 14 15  1  0
 15 16  2  0
 16 17  1  0
 13 18  1  0
 17 18  2  0
 18 19  1  0
M  END
