pyridine_urea_10036
     RDKit          3D

 24 26  0  0  0  0  0  0  0  0999 V2000
    8.3740    0.5140   21.1240 O   0  0  0  0  0  0  0  0  0  0  0  0
    7.8980   -0.5730   21.4320 C   0  0  0  0  0  0  0  0  0  0  0  0
    6.6950   -0.9840   20.9520 N   0  0  0  0  0  0  0  0  0  0  0  0
    6.1010   -0.1720   19.9770 C   0  0  0  0  0  0  0  0  0  0  0  0
    4.9210    0.5360   20.1160 C   0  0  0  0  0  0  0  0  0  0  0  0
    4.4620    1.3220   19.0550 C   0  0  0  0  0  0  0  0  0  0  0  0
    5.2080    1.3620   17.8960 C   0  0  0  0  0  0  0  0  0  0  0  0
    6.3520    0.6810   17.7300 N   0  0  0  0  0  0  0  0  0  0  0  0
    6.7700   -0.0640   18.7690 C   0  0  0  0  0  0  0  0  0  0  0  0
    8.5560   -1.4360   22.2760 N   0  0  0  0  0  0  0  0  0  0  0  0
    9.7930   -0.9070   22.4780 C   0  0  0  0  0  0  0  0  0  0  0  0
   11.0450   -1.4530   22.2460 C   0  0  0  0  0  0  0  0  0  0  0  0
   12.1650   -0.6950   22.4680 C   0  0  0  0  0  0  0  0  0  0  0  0
   12.0180    0.5950   22.9120 C   0  0  0  0  0  0  0  0  0  0  0  0
   13.4670    1.3810   23.0730 S   0  0  0  0  0  0  0  0  0  0  0  0
   13.3040    3.1060   22.6540 C   0  0  0  0  0  0  0  0  0  0  0  0
   13.7660    4.3600   23.3650 C   0  0  0  0  0  0  0  0  0  0  0  0
   13.5290    5.5710   22.7940 C   0  0  0  0  0  0  0  0  0  0  0  0
   12.9240    5.5780   21.6270 C   0  0  0  0  0  0  0  0  0  0  0  0
   12.5470    4.4200   21.0410 C   0  0  0  0  0  0  0  0  0  0  0  0
   12.7250    3.2540   21.5640 N   0  0  0  0  0  0  0  0  0  0  0  0
   10.8420    1.2150   23.1940 C   0  0  0  0  0  0  0  0  0  0  0  0
   10.7220    2.8510   23.7640 Cl  0  0  0  0  0  0  0  0  0  0  0  0
    9.7220    0.5170   22.9990 C   0  0  0  0  0  0  0  0  0  0  0  0
  1  2  2  0
  2  3  1  0
  3  4  1  0
  4  5  2  0
  5  6  1  0
  6  7  2  0
  7  8  1  0
  4  9  1  0
  8  9  2  0
  2 10  1  0
 10 11  1  0
 11 12  2  0
 12 13  1  0
 13 14  2  0
 14 15  1  0
 15 16  1  0
 16 17  2  0
 17 18  1  0
 18 19  2  0
 19 20  1  0
 16 21  1  0
 20 21  2  0
 14 22  1  0
 22 23  1  0
 11 24  1  0
 22 24  2  0
M  END
