pyridine_urea_4083
     RDKit          3D

 26 29  0  0  0  0  0  0  0  0999 V2000
    8.8030    1.2380   21.1660 O   0  0  0  0  0  0  0  0  0  0  0  0
    8.4430    0.0620   21.3150 C   0  0  0  0  0  0  0  0  0  0  0  0
    7.2000   -0.4250   21.0390 N   0  0  0  0  0  0  0  0  0  0  0  0
    6.4810    0.1390   20.0040 C   0  0  0  0  0  0  0  0  0  0  0  0
    5.3110    0.8360   20.2860 C   0  0  0  0  0  0  0  0  0  0  0  0
    4.6040    1.4280   19.2470 C   0  0  0  0  0  0  0  0  0  0  0  0
    5.1050    1.2920   17.9690 C   0  0  0  0  0  0  0  0  0  0  0  0
    6.2200    0.6160   17.6770 N   0  0  0  0  0  0  0  0  0  0  0  0
    6.8820    0.0540   18.6960 C   0  0  0  0  0  0  0  0  0  0  0  0
    9.2870   -0.9060   21.7510 N   0  0  0  0  0  0  0  0  0  0  0  0
   10.0520   -0.6020   22.9530 C   0  0  1  0  0  0  0  0  0  0  0  0
   10.7890    0.6990   22.6800 C   0  0  0  0  0  0  0  0  0  0  0  0
   11.8520    0.0550   22.9010 C   0  0  0  0  0  0  0  0  0  0  0  0
   12.0680   -1.1890   23.2250 C   0  0  0  0  0  0  0  0  0  0  0  0
   13.3230   -0.9840   23.2310 C   0  0  0  0  0  0  0  0  0  0  0  0
   13.4150    0.4130   22.8920 C   0  0  0  0  0  0  0  0  0  0  0  0
   12.2650    1.2880   22.6270 C   0  0  0  0  0  0  0  0  0  0  0  0
    9.3960   -0.4870   24.1640 C   0  0  0  0  0  0  0  0  0  0  0  0
    7.8930   -0.6760   23.9740 C   0  0  0  0  0  0  0  0  0  0  0  0
    7.0530   -0.5900   25.0170 C   0  0  0  0  0  0  0  0  0  0  0  0
    7.6510   -0.3270   26.1930 C   0  0  0  0  0  0  0  0  0  0  0  0
    7.0290   -0.1900   27.3630 N   0  0  0  0  0  0  0  0  0  0  0  0
    8.0140    0.0710   28.2940 C   0  0  0  0  0  0  0  0  0  0  0  0
    9.2060    0.0850   27.6670 N   0  0  0  0  0  0  0  0  0  0  0  0
    9.0570   -0.1630   26.3130 C   0  0  0  0  0  0  0  0  0  0  0  0
   10.1430   -0.2190   25.3530 C   0  0  0  0  0  0  0  0  0  0  0  0
  1  2  2  0
  2  3  1  0
  3  4  1  0
  4  5  2  0
  5  6  1  0
  6  7  2  0
  7  8  1  0
  4  9  1  0
  8  9  2  0
  2 10  1  0
 11 10  1  6
 11 12  1  0
 12 13  2  0
 13 14  1  0
 14 15  2  0
 15 16  1  0
 12 17  1  0
 16 17  2  0
 11 18  1  0
 18 19  2  0
 19 20  1  0
 20 21  2  0
 21 22  1  0
 22 23  1  0
 23 24  2  0
 21 25  1  0
 24 25  1  0
 18 26  1  0
 25 26  2  0
M  END
