pyridine_urea_6624
     RDKit          3D

 22 24  0  0  0  0  0  0  0  0999 V2000
    8.8750    1.2740   21.1150 O   0  0  0  0  0  0  0  0  0  0  0  0
    8.3940    0.2250   21.5480 C   0  0  0  0  0  0  0  0  0  0  0  0
    7.3640   -0.4890   20.9860 N   0  0  0  0  0  0  0  0  0  0  0  0
    6.5200    0.1240   20.0610 C   0  0  0  0  0  0  0  0  0  0  0  0
    5.2010    0.8240   20.4120 C   0  0  0  0  0  0  0  0  0  0  0  0
    4.4920    1.4430   19.2100 C   0  0  0  0  0  0  0  0  0  0  0  0
    5.1520    1.2970   17.8780 C   0  0  0  0  0  0  0  0  0  0  0  0
    6.3070    0.6490   17.6900 N   0  0  0  0  0  0  0  0  0  0  0  0
    6.9350    0.0980   18.7430 C   0  0  0  0  0  0  0  0  0  0  0  0
    8.8500   -0.3540   22.7060 N   0  0  0  0  0  0  0  0  0  0  0  0
   10.1560   -0.0540   23.2390 C   0  0  0  0  0  0  0  0  0  0  0  0
   10.5770    1.2800   22.9270 C   0  0  0  0  0  0  0  0  0  0  0  0
   11.8620    1.7920   22.8780 N   0  0  0  0  0  0  0  0  0  0  0  0
   11.7490    3.1040   22.5590 N   0  0  0  0  0  0  0  0  0  0  0  0
   10.4690    3.4430   22.4040 N   0  0  0  0  0  0  0  0  0  0  0  0
    9.7390    2.3130   22.6320 N   0  0  0  0  0  0  0  0  0  0  0  0
   11.2220   -0.9240   22.4020 C   0  0  0  0  0  0  0  0  0  0  0  0
   12.5660   -0.6140   22.6460 C   0  0  0  0  0  0  0  0  0  0  0  0
   13.0820   -1.4210   23.6580 C   0  0  0  0  0  0  0  0  0  0  0  0
   12.4860   -1.1720   24.8890 C   0  0  0  0  0  0  0  0  0  0  0  0
   11.6460   -0.0350   24.3670 C   0  0  0  0  0  0  0  0  0  0  0  0
   10.3160   -0.1770   24.6120 C   0  0  0  0  0  0  0  0  0  0  0  0
  1  2  2  0
  2  3  1  0
  3  4  1  0
  4  5  2  0
  5  6  1  0
  6  7  2  0
  7  8  1  0
  4  9  1  0
  8  9  2  0
  2 10  1  0
 11 10  1  0
 11 12  1  0
 12 13  2  0
 13 14  1  0
 14 15  2  0
 12 16  1  0
 15 16  1  0
 11 17  1  0
 17 18  1  0
 18 19  1  0
 19 20  1  0
 20 21  1  0
 11 22  1  0
 21 22  1  0
M  END
