pyridine_urea_14579
     RDKit          3D

 21 23  0  0  0  0  0  0  0  0999 V2000
    8.7040    1.4040   20.9860 O   0  0  0  0  0  0  0  0  0  0  0  0
    8.1100    0.4570   21.5020 C   0  0  0  0  0  0  0  0  0  0  0  0
    7.1250   -0.3060   20.9320 N   0  0  0  0  0  0  0  0  0  0  0  0
    6.3660    0.2690   19.9450 C   0  0  0  0  0  0  0  0  0  0  0  0
    5.1670    0.9320   20.1420 C   0  0  0  0  0  0  0  0  0  0  0  0
    4.5240    1.4960   19.0490 C   0  0  0  0  0  0  0  0  0  0  0  0
    5.1170    1.3670   17.8170 C   0  0  0  0  0  0  0  0  0  0  0  0
    6.2660    0.7170   17.6080 N   0  0  0  0  0  0  0  0  0  0  0  0
    6.8570    0.1870   18.6720 C   0  0  0  0  0  0  0  0  0  0  0  0
    8.3630    0.0440   22.7530 N   0  0  0  0  0  0  0  0  0  0  0  0
    9.6620   -0.0370   23.1480 C   0  0  0  0  0  0  0  0  0  0  0  0
   10.4550   -1.0010   23.0690 C   0  0  0  0  0  0  0  0  0  0  0  0
   11.5890   -0.6500   23.5640 N   0  0  0  0  0  0  0  0  0  0  0  0
   11.8010    0.6760   24.0920 N   0  0  0  0  0  0  0  0  0  0  0  0
   12.5670   -0.4430   23.9910 C   0  0  0  0  0  0  0  0  0  0  0  0
   13.0540   -1.1250   25.0650 C   0  0  0  0  0  0  0  0  0  0  0  0
   13.7370   -2.2960   24.8730 C   0  0  0  0  0  0  0  0  0  0  0  0
   13.9180   -2.7560   23.4850 C   0  0  0  0  0  0  0  0  0  0  0  0
   13.4090   -2.0140   22.4520 C   0  0  0  0  0  0  0  0  0  0  0  0
   12.7450   -0.8730   22.6900 C   0  0  0  0  0  0  0  0  0  0  0  0
   10.4860    1.0650   23.7870 C   0  0  0  0  0  0  0  0  0  0  0  0
  1  2  2  0
  2  3  1  0
  3  4  1  0
  4  5  2  0
  5  6  1  0
  6  7  2  0
  7  8  1  0
  4  9  1  0
  8  9  2  0
  2 10  1  0
 10 11  1  0
 11 12  1  0
 12 13  2  0
 13 14  1  0
 14 15  1  0
 15 16  2  0
 16 17  1  0
 17 18  2  0
 18 19  1  0
 15 20  1  0
 19 20  2  0
 11 21  2  0
 14 21  1  0
M  END
