pyridine_urea_13784
     RDKit          3D

 25 27  0  0  0  0  0  0  0  0999 V2000
   13.6410   -2.9610   25.2790 C   0  0  0  0  0  0  0  0  0  0  0  0
   13.3840   -1.6880   25.8330 O   0  0  0  0  0  0  0  0  0  0  0  0
   12.5210   -1.0150   24.9580 C   0  0  0  0  0  0  0  0  0  0  0  0
   13.1400   -0.7680   23.6750 C   0  0  0  0  0  0  0  0  0  0  0  0
   12.4700   -0.1100   22.6130 C   0  0  0  0  0  0  0  0  0  0  0  0
   11.1760    0.3850   22.5700 C   0  0  0  0  0  0  0  0  0  0  0  0
    9.7660    0.8170   22.8050 C   0  0  0  0  0  0  0  0  0  0  0  0
    8.9120   -0.2910   22.3700 N   0  0  0  0  0  0  0  0  0  0  0  0
    8.1300    0.1340   21.3700 C   0  0  0  0  0  0  0  0  0  0  0  0
    8.4240    1.4020   20.7590 O   0  0  0  0  0  0  0  0  0  0  0  0
    7.0320   -0.7130   21.0040 N   0  0  0  0  0  0  0  0  0  0  0  0
    6.3950   -0.0380   19.9030 C   0  0  0  0  0  0  0  0  0  0  0  0
    5.1130    0.6810   20.1970 C   0  0  0  0  0  0  0  0  0  0  0  0
    4.5180    1.3690   19.1410 C   0  0  0  0  0  0  0  0  0  0  0  0
    5.0760    1.3990   17.8650 C   0  0  0  0  0  0  0  0  0  0  0  0
    6.3080    0.6800   17.6200 N   0  0  0  0  0  0  0  0  0  0  0  0
    6.8920    0.0080   18.6420 C   0  0  0  0  0  0  0  0  0  0  0  0
   10.6330    0.0810   23.9310 C   0  0  0  0  0  0  0  0  0  0  0  0
    9.2820    0.4990   24.1390 O   0  0  0  0  0  0  0  0  0  0  0  0
    8.5460   -0.4870   24.8580 C   0  0  0  0  0  0  0  0  0  0  0  0
    7.1770   -0.7020   24.2940 C   0  0  0  0  0  0  0  0  0  0  0  0
    6.3020   -0.6020   25.3770 C   0  0  0  0  0  0  0  0  0  0  0  0
    7.0430   -0.2580   26.5180 C   0  0  0  0  0  0  0  0  0  0  0  0
    8.3670    0.0020   26.1430 C   0  0  0  0  0  0  0  0  0  0  0  0
   11.2000   -0.5310   25.0140 C   0  0  0  0  0  0  0  0  0  0  0  0
  1  2  1  0
  2  3  1  0
  3  4  2  0
  4  5  1  0
  5  6  2  0
  6  7  1  0
  7  8  1  0
  8  9  1  0
  9 10  2  0
  9 11  1  0
 11 12  1  0
 12 13  2  0
 13 14  1  0
 14 15  2  0
 15 16  1  0
 12 17  1  0
 16 17  2  0
  6 18  1  0
 18 19  1  0
 19 20  1  0
 20 21  1  0
 21 22  1  0
 22 23  1  0
 20 24  1  0
 23 24  1  0
  3 25  1  0
 18 25  2  0
M  END
