pyridine_urea_618
     RDKit          3D

 24 26  0  0  0  0  0  0  0  0999 V2000
    8.7190    0.7240   21.1980 O   0  0  0  0  0  0  0  0  0  0  0  0
    8.3820   -0.4530   21.2450 C   0  0  0  0  0  0  0  0  0  0  0  0
    7.1300   -0.8860   20.8760 N   0  0  0  0  0  0  0  0  0  0  0  0
    6.3680   -0.1250   19.9750 C   0  0  0  0  0  0  0  0  0  0  0  0
    5.1590    0.5280   20.2270 C   0  0  0  0  0  0  0  0  0  0  0  0
    4.5450    1.2610   19.2030 C   0  0  0  0  0  0  0  0  0  0  0  0
    5.1630    1.3140   17.9690 C   0  0  0  0  0  0  0  0  0  0  0  0
    6.3210    0.6910   17.7080 N   0  0  0  0  0  0  0  0  0  0  0  0
    6.8850   -0.0050   18.7070 C   0  0  0  0  0  0  0  0  0  0  0  0
    9.2310   -1.4480   21.6880 N   0  0  0  0  0  0  0  0  0  0  0  0
   10.1910   -1.0190   22.5770 C   0  0  0  0  0  0  0  0  0  0  0  0
   11.5380   -0.9310   22.2560 C   0  0  0  0  0  0  0  0  0  0  0  0
   12.4480   -0.4350   23.1880 C   0  0  0  0  0  0  0  0  0  0  0  0
   11.9770   -0.0660   24.4550 C   0  0  0  0  0  0  0  0  0  0  0  0
   10.6090   -0.2080   24.7750 C   0  0  0  0  0  0  0  0  0  0  0  0
    9.8620    0.0540   26.0500 C   0  0  0  0  0  0  0  0  0  0  0  0
    8.5190   -1.1560   26.2420 S   0  0  0  0  0  0  0  0  0  0  0  0
    7.7030   -0.5420   27.7710 C   0  0  0  0  0  0  0  0  0  0  0  0
    8.3880    0.5510   28.3110 C   0  0  0  0  0  0  0  0  0  0  0  0
    7.6000    1.1570   29.2850 C   0  0  0  0  0  0  0  0  0  0  0  0
    6.4850    0.3090   29.5100 O   0  0  0  0  0  0  0  0  0  0  0  0
    6.8780   -1.0380   29.7660 C   0  0  0  0  0  0  0  0  0  0  0  0
    7.5410   -1.5930   28.6710 C   0  0  0  0  0  0  0  0  0  0  0  0
    9.8160   -0.6600   23.8070 C   0  0  0  0  0  0  0  0  0  0  0  0
  1  2  2  0
  2  3  1  0
  3  4  1  0
  4  5  2  0
  5  6  1  0
  6  7  2  0
  7  8  1  0
  4  9  1  0
  8  9  2  0
  2 10  1  0
 10 11  1  0
 11 12  2  0
 12 13  1  0
 13 14  2  0
 14 15  1  0
 15 16  1  0
 16 17  1  0
 17 18  1  0
 18 19  1  0
 19 20  1  0
 20 21  1  0
 21 22  1  0
 18 23  1  0
 22 23  1  0
 11 24  1  0
 15 24  2  0
M  END
