pyridine_urea_1285
     RDKit          3D

 20 22  0  0  0  0  0  0  0  0999 V2000
   12.1060   -2.6930   23.7600 C   0  0  0  0  0  0  0  0  0  0  0  0
   12.2380   -1.4920   22.8060 C   0  0  0  0  0  0  0  0  0  0  0  0
   12.9950   -1.9040   21.5280 C   0  0  0  0  0  0  0  0  0  0  0  0
   12.8670   -0.4060   23.6390 C   0  0  2  0  0  0  0  0  0  0  0  0
   12.0470   -0.2540   24.7230 C   0  0  0  0  0  0  0  0  0  0  0  0
   11.0450    0.6010   24.2560 C   0  0  0  0  0  0  0  0  0  0  0  0
   11.2260    0.4960   22.9060 C   0  0  1  0  0  0  0  0  0  0  0  0
   12.6020    0.5740   22.7680 C   0  0  0  0  0  0  0  0  0  0  0  0
   10.9040   -0.8120   22.5080 C   0  0  2  0  0  0  0  0  0  0  0  0
    9.8330   -1.4080   23.1510 C   0  0  0  0  0  0  0  0  0  0  0  0
    8.7630   -1.4900   22.1830 N   0  0  0  0  0  0  0  0  0  0  0  0
    8.2830   -0.3780   21.5340 C   0  0  0  0  0  0  0  0  0  0  0  0
    8.9170    0.6610   21.4110 O   0  0  0  0  0  0  0  0  0  0  0  0
    7.0150   -0.6300   21.0780 N   0  0  0  0  0  0  0  0  0  0  0  0
    6.3980    0.0380   20.0150 C   0  0  0  0  0  0  0  0  0  0  0  0
    5.2310    0.7530   20.2520 C   0  0  0  0  0  0  0  0  0  0  0  0
    4.6260    1.4340   19.1610 C   0  0  0  0  0  0  0  0  0  0  0  0
    5.2180    1.3560   17.9380 C   0  0  0  0  0  0  0  0  0  0  0  0
    6.3370    0.6700   17.6850 N   0  0  0  0  0  0  0  0  0  0  0  0
    6.8990    0.0270   18.7280 C   0  0  0  0  0  0  0  0  0  0  0  0
  2  1  1  0
  2  3  1  0
  2  4  1  0
  4  5  1  1
  5  6  1  0
  7  6  1  1
  4  8  1  0
  7  8  1  0
  2  9  1  0
  7  9  1  0
  9 10  1  1
 10 11  1  0
 11 12  1  0
 12 13  2  0
 12 14  1  0
 14 15  1  0
 15 16  2  0
 16 17  1  0
 17 18  2  0
 18 19  1  0
 15 20  1  0
 19 20  2  0
M  END
