pyridine_urea_13270
     RDKit          3D

 15 16  0  0  0  0  0  0  0  0999 V2000
   10.7100   -2.0000   21.9690 C   0  0  0  0  0  0  0  0  0  0  0  0
   10.2930   -1.0730   23.0590 C   0  0  2  0  0  0  0  0  0  0  0  0
    8.8990   -0.6730   22.8970 N   0  0  0  0  0  0  0  0  0  0  0  0
    8.5250    0.0660   21.6590 C   0  0  0  0  0  0  0  0  0  0  0  0
    9.1500    1.0940   21.2890 O   0  0  0  0  0  0  0  0  0  0  0  0
    7.4280   -0.5140   21.0620 N   0  0  0  0  0  0  0  0  0  0  0  0
    6.6540    0.0830   20.0600 C   0  0  0  0  0  0  0  0  0  0  0  0
    5.5230    0.7910   20.4030 C   0  0  0  0  0  0  0  0  0  0  0  0
    4.7040    1.4480   19.3150 C   0  0  0  0  0  0  0  0  0  0  0  0
    5.1400    1.3010   18.0150 C   0  0  0  0  0  0  0  0  0  0  0  0
    6.2450    0.5950   17.7150 N   0  0  0  0  0  0  0  0  0  0  0  0
    6.9620    0.0130   18.7150 C   0  0  0  0  0  0  0  0  0  0  0  0
   11.2930    0.1080   23.1690 C   0  0  0  0  0  0  0  0  0  0  0  0
   12.5070    0.0030   22.5250 C   0  0  0  0  0  0  0  0  0  0  0  0
   12.6570   -0.1880   23.8690 C   0  0  0  0  0  0  0  0  0  0  0  0
  2  1  1  6
  2  3  1  0
  3  4  1  0
  4  5  2  0
  4  6  1  0
  6  7  1  0
  7  8  2  0
  8  9  1  0
  9 10  2  0
 10 11  1  0
  7 12  1  0
 11 12  2  0
  2 13  1  0
 13 14  1  0
 13 15  1  0
 14 15  1  0
M  END
