pyridine_urea_4391
     RDKit          3D

 23 25  0  0  0  0  0  0  0  0999 V2000
   13.5130   -3.0160   22.6830 C   0  0  0  0  0  0  0  0  0  0  0  0
   12.5350   -1.9880   22.6070 C   0  0  0  0  0  0  0  0  0  0  0  0
   11.6830   -1.5270   21.5680 N   0  0  0  0  0  0  0  0  0  0  0  0
   11.0540   -0.5390   22.2520 C   0  0  0  0  0  0  0  0  0  0  0  0
   11.5150   -0.4890   23.5780 C   0  0  0  0  0  0  0  0  0  0  0  0
   12.4770   -1.4210   23.7820 N   0  0  0  0  0  0  0  0  0  0  0  0
   13.1660   -1.6690   24.8830 C   0  0  0  0  0  0  0  0  0  0  0  0
   13.3040   -3.1210   25.1800 C   0  0  0  0  0  0  0  0  0  0  0  0
   13.9820   -3.3160   26.1720 O   0  0  0  0  0  0  0  0  0  0  0  0
   11.0250    0.4130   24.6000 C   0  0  0  0  0  0  0  0  0  0  0  0
    9.6520    0.2060   24.5120 C   0  0  0  0  0  0  0  0  0  0  0  0
    9.0580    0.3990   23.2510 C   0  0  2  0  0  0  0  0  0  0  0  0
    8.2660   -0.5610   22.7740 N   0  0  0  0  0  0  0  0  0  0  0  0
    7.8040   -0.1570   21.5760 C   0  0  0  0  0  0  0  0  0  0  0  0
    8.2570    0.9510   20.9200 O   0  0  0  0  0  0  0  0  0  0  0  0
    6.8220   -0.8850   21.0480 N   0  0  0  0  0  0  0  0  0  0  0  0
    6.2900   -0.1780   20.0370 C   0  0  0  0  0  0  0  0  0  0  0  0
    5.0970    0.5260   20.2450 C   0  0  0  0  0  0  0  0  0  0  0  0
    4.5270    1.3210   19.1270 C   0  0  0  0  0  0  0  0  0  0  0  0
    5.1700    1.3650   17.9040 C   0  0  0  0  0  0  0  0  0  0  0  0
    6.3530    0.6660   17.6830 N   0  0  0  0  0  0  0  0  0  0  0  0
    6.8850   -0.1020   18.7830 C   0  0  0  0  0  0  0  0  0  0  0  0
   10.0420    0.5100   22.0960 C   0  0  0  0  0  0  0  0  0  0  0  0
  1  2  1  0
  2  3  2  0
  3  4  1  0
  4  5  2  0
  2  6  1  0
  5  6  1  0
  6  7  1  0
  7  8  1  0
  8  9  1  0
  5 10  1  0
 10 11  1  0
 11 12  1  0
 12 13  1  6
 13 14  1  0
 14 15  2  0
 14 16  1  0
 16 17  1  0
 17 18  2  0
 18 19  1  0
 19 20  2  0
 20 21  1  0
 17 22  1  0
 21 22  2  0
  4 23  1  0
 12 23  1  0
M  END
