pyridine_urea_4589
     RDKit          3D

 22 23  0  0  0  0  0  0  0  0999 V2000
   14.5380   -2.5150   25.8600 C   0  0  0  0  0  0  0  0  0  0  0  0
   13.8930   -3.8200   26.0260 C   0  0  0  0  0  0  0  0  0  0  0  0
   12.6830   -3.6460   25.3580 O   0  0  0  0  0  0  0  0  0  0  0  0
   12.6680   -2.3850   24.9090 C   0  0  0  0  0  0  0  0  0  0  0  0
   13.1230   -1.1300   25.5060 O   0  0  0  0  0  0  0  0  0  0  0  0
   12.1240   -2.2230   23.7470 C   0  0  0  0  0  0  0  0  0  0  0  0
   12.8940   -2.2670   22.6470 C   0  0  0  0  0  0  0  0  0  0  0  0
   11.8770   -2.0660   21.3140 S   0  0  0  0  0  0  0  0  0  0  0  0
   10.5400   -1.9400   22.4090 C   0  0  0  0  0  0  0  0  0  0  0  0
    9.2450   -1.7390   22.0700 C   0  0  1  0  0  0  0  0  0  0  0  0
    8.3500   -2.7020   22.5400 C   0  0  0  0  0  0  0  0  0  0  0  0
    8.7710   -0.4980   22.4720 N   0  0  0  0  0  0  0  0  0  0  0  0
    8.2930    0.3320   21.5380 C   0  0  0  0  0  0  0  0  0  0  0  0
    8.8670    1.3740   21.2020 O   0  0  0  0  0  0  0  0  0  0  0  0
    7.0890   -0.1860   21.0590 N   0  0  0  0  0  0  0  0  0  0  0  0
    6.4720    0.3110   19.9660 C   0  0  0  0  0  0  0  0  0  0  0  0
    5.3370    1.0470   20.2870 C   0  0  0  0  0  0  0  0  0  0  0  0
    4.6590    1.6310   19.1030 C   0  0  0  0  0  0  0  0  0  0  0  0
    5.1320    1.4400   17.8330 C   0  0  0  0  0  0  0  0  0  0  0  0
    6.2290    0.7050   17.5750 N   0  0  0  0  0  0  0  0  0  0  0  0
    6.8920    0.1420   18.6730 C   0  0  0  0  0  0  0  0  0  0  0  0
   10.8380   -2.0430   23.7040 N   0  0  0  0  0  0  0  0  0  0  0  0
  1  2  1  0
  2  3  1  0
  3  4  1  0
  4  5  2  0
  4  6  1  0
  6  7  2  0
  7  8  1  0
  8  9  1  0
  9 10  1  0
 10 11  1  1
 10 12  1  0
 12 13  1  0
 13 14  2  0
 13 15  1  0
 15 16  1  0
 16 17  2  0
 17 18  1  0
 18 19  2  0
 19 20  1  0
 16 21  1  0
 20 21  2  0
  6 22  1  0
  9 22  2  0
M  END
