pyridine_urea_6307
     RDKit          3D

 23 25  0  0  0  0  0  0  0  0999 V2000
    9.2930    0.7400   29.9610 C   0  0  0  0  0  0  0  0  0  0  0  0
    8.2820    0.9840   29.0440 N   0  0  0  0  0  0  0  0  0  0  0  0
    8.2140    2.2880   28.3950 C   0  0  0  0  0  0  0  0  0  0  0  0
    8.1260   -0.1690   28.1760 C   0  0  0  0  0  0  0  0  0  0  0  0
    8.0250   -1.4760   28.9040 C   0  0  0  0  0  0  0  0  0  0  0  0
    7.9060   -2.5880   28.1270 C   0  0  0  0  0  0  0  0  0  0  0  0
    7.8890   -2.4460   26.6240 C   0  0  0  0  0  0  0  0  0  0  0  0
    7.7910   -3.4970   25.7610 N   0  0  0  0  0  0  0  0  0  0  0  0
    7.8150   -2.9520   24.4820 N   0  0  0  0  0  0  0  0  0  0  0  0
    7.9370   -1.4740   24.7700 C   0  0  0  0  0  0  0  0  0  0  0  0
    7.9880   -0.5880   23.7680 C   0  0  0  0  0  0  0  0  0  0  0  0
    8.6600   -0.8510   22.6250 N   0  0  0  0  0  0  0  0  0  0  0  0
    8.1070   -0.2740   21.5380 C   0  0  0  0  0  0  0  0  0  0  0  0
    8.5400    0.7770   21.0800 O   0  0  0  0  0  0  0  0  0  0  0  0
    7.0210   -0.9930   21.0640 N   0  0  0  0  0  0  0  0  0  0  0  0
    6.4220   -0.1880   20.0770 C   0  0  0  0  0  0  0  0  0  0  0  0
    5.2630    0.5070   20.4010 C   0  0  0  0  0  0  0  0  0  0  0  0
    4.6670    1.2910   19.4470 C   0  0  0  0  0  0  0  0  0  0  0  0
    5.2610    1.3930   18.0790 C   0  0  0  0  0  0  0  0  0  0  0  0
    6.4030    0.7400   17.6830 N   0  0  0  0  0  0  0  0  0  0  0  0
    6.9670   -0.0560   18.7140 C   0  0  0  0  0  0  0  0  0  0  0  0
    7.9790   -1.2170   26.1130 N   0  0  0  0  0  0  0  0  0  0  0  0
    8.0910   -0.0480   26.8350 N   0  0  0  0  0  0  0  0  0  0  0  0
  1  2  1  0
  2  3  1  0
  2  4  1  0
  4  5  1  0
  5  6  2  0
  6  7  1  0
  7  8  2  0
  8  9  1  0
  9 10  2  0
 10 11  1  0
 11 12  1  0
 12 13  1  0
 13 14  2  0
 13 15  1  0
 15 16  1  0
 16 17  2  0
 17 18  1  0
 18 19  2  0
 19 20  1  0
 16 21  1  0
 20 21  2  0
  7 22  1  0
 10 22  1  0
  4 23  2  0
 22 23  1  0
M  END
