pyridine_urea_11716
     RDKit          3D

 27 29  0  0  0  0  0  0  0  0999 V2000
   11.9090    2.0660   23.2130 N   0  0  0  0  0  0  0  0  0  0  0  0
   13.0730    1.5760   22.6980 C   0  0  0  0  0  0  0  0  0  0  0  0
   13.2240    0.0810   22.7110 C   0  0  0  0  0  0  0  0  0  0  0  0
   13.4220   -0.8300   21.6460 C   0  0  0  0  0  0  0  0  0  0  0  0
   13.4840   -2.1690   21.8630 C   0  0  0  0  0  0  0  0  0  0  0  0
   13.4190   -2.6200   23.1200 C   0  0  0  0  0  0  0  0  0  0  0  0
   13.2730   -1.7650   24.1290 C   0  0  0  0  0  0  0  0  0  0  0  0
   13.2090   -2.0930   25.3710 C   0  0  0  0  0  0  0  0  0  0  0  0
   12.6290   -1.0830   25.6410 O   0  0  0  0  0  0  0  0  0  0  0  0
   11.7210   -0.9390   24.6590 C   0  0  0  0  0  0  0  0  0  0  0  0
   12.1120   -1.4350   23.4360 C   0  0  0  0  0  0  0  0  0  0  0  0
   11.2450   -1.3890   22.3680 C   0  0  0  0  0  0  0  0  0  0  0  0
   10.0050   -0.8390   22.5550 C   0  0  0  0  0  0  0  0  0  0  0  0
    9.1680   -0.8580   21.4250 N   0  0  0  0  0  0  0  0  0  0  0  0
    8.2110    0.0870   21.1710 C   0  0  0  0  0  0  0  0  0  0  0  0
    8.5510    1.4250   21.0460 O   0  0  0  0  0  0  0  0  0  0  0  0
    6.9900   -0.4370   21.0480 N   0  0  0  0  0  0  0  0  0  0  0  0
    6.3330    0.1750   20.0680 C   0  0  0  0  0  0  0  0  0  0  0  0
    5.0660    0.9580   20.2210 C   0  0  0  0  0  0  0  0  0  0  0  0
    4.4570    1.6260   18.9970 C   0  0  0  0  0  0  0  0  0  0  0  0
    5.1270    1.4650   17.7950 C   0  0  0  0  0  0  0  0  0  0  0  0
    6.2840    0.7240   17.7070 N   0  0  0  0  0  0  0  0  0  0  0  0
    6.8740    0.0930   18.7970 C   0  0  0  0  0  0  0  0  0  0  0  0
    9.6150   -0.3220   23.7770 C   0  0  0  0  0  0  0  0  0  0  0  0
   10.4780   -0.3810   24.8260 C   0  0  0  0  0  0  0  0  0  0  0  0
    9.9710    0.1170   25.9550 F   0  0  0  0  0  0  0  0  0  0  0  0
   13.1570   -0.4280   23.9280 C   0  0  0  0  0  0  0  0  0  0  0  0
  1  2  3  0
  2  3  1  0
  3  4  2  0
  4  5  1  0
  5  6  2  0
  6  7  1  0
  7  8  1  0
  8  9  1  0
  9 10  1  0
 10 11  2  0
 11 12  1  0
 12 13  2  0
 13 14  1  0
 14 15  1  0
 15 16  2  0
 15 17  1  0
 17 18  1  0
 18 19  2  0
 19 20  1  0
 20 21  2  0
 21 22  1  0
 18 23  1  0
 22 23  2  0
 13 24  1  0
 10 25  1  0
 24 25  2  0
 25 26  1  0
  3 27  1  0
  7 27  2  0
M  END
