pyridine_urea_1220
     RDKit          3D

 21 22  0  0  0  0  0  0  0  0999 V2000
    8.7140    1.5070   21.1390 O   0  0  0  0  0  0  0  0  0  0  0  0
    8.4300    0.4310   21.6720 C   0  0  0  0  0  0  0  0  0  0  0  0
    7.3610   -0.3330   21.2450 N   0  0  0  0  0  0  0  0  0  0  0  0
    6.6870    0.1420   20.0640 C   0  0  0  0  0  0  0  0  0  0  0  0
    5.4550    1.0260   20.3250 C   0  0  0  0  0  0  0  0  0  0  0  0
    4.7300    1.5630   19.2640 C   0  0  0  0  0  0  0  0  0  0  0  0
    5.1650    1.2690   17.9780 C   0  0  0  0  0  0  0  0  0  0  0  0
    6.2600    0.4710   17.7800 N   0  0  0  0  0  0  0  0  0  0  0  0
    7.0380   -0.1070   18.7910 C   0  0  0  0  0  0  0  0  0  0  0  0
    9.1440   -0.1390   22.6990 N   0  0  0  0  0  0  0  0  0  0  0  0
   10.0000   -0.7030   23.5930 C   0  0  2  0  0  0  0  0  0  0  0  0
   10.6850    0.0950   24.5010 C   0  0  0  0  0  0  0  0  0  0  0  0
   11.9950   -0.3380   24.7040 C   0  0  0  0  0  0  0  0  0  0  0  0
   12.2070   -1.6680   24.3200 O   0  0  0  0  0  0  0  0  0  0  0  0
   10.8390   -1.2840   22.7100 C   0  0  0  0  0  0  0  0  0  0  0  0
   10.6590   -2.3200   21.9430 C   0  0  0  0  0  0  0  0  0  0  0  0
   11.9920   -2.3190   21.2140 C   0  0  0  0  0  0  0  0  0  0  0  0
   13.0950   -1.4020   21.3920 C   0  0  0  0  0  0  0  0  0  0  0  0
   14.0940   -1.5800   20.5970 F   0  0  0  0  0  0  0  0  0  0  0  0
   13.0390   -0.3010   22.4090 C   0  0  0  0  0  0  0  0  0  0  0  0
   12.0700   -1.1020   22.2330 C   0  0  0  0  0  0  0  0  0  0  0  0
  1  2  2  0
  2  3  1  0
  3  4  1  0
  4  5  2  0
  5  6  1  0
  6  7  2  0
  7  8  1  0
  4  9  1  0
  8  9  2  0
  2 10  1  0
 10 11  1  0
 11 12  1  6
 12 13  1  0
 13 14  1  0
 11 15  1  0
 15 16  2  0
 16 17  1  0
 17 18  2  0
 18 19  1  0
 18 20  1  0
 15 21  1  0
 20 21  2  0
M  END
