pyridine_urea_14992
     RDKit          3D

 19 19  0  0  0  0  0  0  0  0999 V2000
   11.3580   -2.7420   23.9240 C   0  0  0  0  0  0  0  0  0  0  0  0
   10.8040   -1.3520   23.6010 C   0  0  0  0  0  0  0  0  0  0  0  0
   10.9590   -0.4650   24.8250 C   0  0  0  0  0  0  0  0  0  0  0  0
    9.3380   -1.4490   23.1570 C   0  0  2  0  0  0  0  0  0  0  0  0
    8.7790   -0.1240   22.8600 N   0  0  0  0  0  0  0  0  0  0  0  0
    8.4690    0.3510   21.6080 C   0  0  0  0  0  0  0  0  0  0  0  0
    9.0250    1.3420   21.1370 O   0  0  0  0  0  0  0  0  0  0  0  0
    7.4410   -0.4010   20.9930 N   0  0  0  0  0  0  0  0  0  0  0  0
    6.6060    0.1580   20.0590 C   0  0  0  0  0  0  0  0  0  0  0  0
    5.3180    0.9190   20.3820 C   0  0  0  0  0  0  0  0  0  0  0  0
    4.6440    1.4230   19.2690 C   0  0  0  0  0  0  0  0  0  0  0  0
    5.1420    1.2230   17.9880 C   0  0  0  0  0  0  0  0  0  0  0  0
    6.2640    0.5450   17.7110 N   0  0  0  0  0  0  0  0  0  0  0  0
    6.9580    0.0350   18.7380 C   0  0  0  0  0  0  0  0  0  0  0  0
    8.3990   -2.1310   24.1380 C   0  0  0  0  0  0  0  0  0  0  0  0
    7.9820   -1.5580   25.1330 O   0  0  0  0  0  0  0  0  0  0  0  0
    8.0410   -3.3870   23.8250 N   0  0  0  0  0  0  0  0  0  0  0  0
    7.9480   -3.6480   22.5150 C   0  0  0  0  0  0  0  0  0  0  0  0
    6.7510   -3.5870   24.4810 C   0  0  0  0  0  0  0  0  0  0  0  0
  1  2  1  0
  2  3  1  0
  2  4  1  0
  4  5  1  1
  5  6  1  0
  6  7  2  0
  6  8  1  0
  8  9  1  0
  9 10  2  0
 10 11  1  0
 11 12  2  0
 12 13  1  0
  9 14  1  0
 13 14  2  0
  4 15  1  0
 15 16  2  0
 15 17  1  0
 17 18  1  0
 17 19  1  0
M  END
