pyridine_urea_2055
     RDKit          3D

 20 21  0  0  0  0  0  0  0  0999 V2000
   13.7010   -2.6240   23.1250 C   0  0  0  0  0  0  0  0  0  0  0  0
   12.8840   -2.5440   24.3600 C   0  0  0  0  0  0  0  0  0  0  0  0
   13.6680   -2.1620   25.5830 C   0  0  0  0  0  0  0  0  0  0  0  0
   11.7470   -3.4950   24.5790 C   0  0  0  0  0  0  0  0  0  0  0  0
   11.8620   -1.7910   23.9100 N   0  0  0  0  0  0  0  0  0  0  0  0
   10.9510   -1.5450   24.8840 N   0  0  0  0  0  0  0  0  0  0  0  0
   10.0130   -0.9490   24.1670 N   0  0  0  0  0  0  0  0  0  0  0  0
   10.5510   -0.9320   22.8660 C   0  0  0  0  0  0  0  0  0  0  0  0
    9.8680   -0.4480   21.9070 C   0  0  0  0  0  0  0  0  0  0  0  0
    8.5930   -0.6370   22.0630 N   0  0  0  0  0  0  0  0  0  0  0  0
    7.8930    0.2510   21.2840 C   0  0  0  0  0  0  0  0  0  0  0  0
    8.3600    1.3510   20.9550 O   0  0  0  0  0  0  0  0  0  0  0  0
    6.7090   -0.2850   20.9550 N   0  0  0  0  0  0  0  0  0  0  0  0
    6.0980    0.3280   19.9160 C   0  0  0  0  0  0  0  0  0  0  0  0
    4.9160    1.0420   19.9820 C   0  0  0  0  0  0  0  0  0  0  0  0
    4.4250    1.6550   18.8590 C   0  0  0  0  0  0  0  0  0  0  0  0
    5.0980    1.5730   17.6480 C   0  0  0  0  0  0  0  0  0  0  0  0
    6.2510    0.8570   17.5830 N   0  0  0  0  0  0  0  0  0  0  0  0
    6.7460    0.2380   18.7060 C   0  0  0  0  0  0  0  0  0  0  0  0
   11.7260   -1.4310   22.6680 N   0  0  0  0  0  0  0  0  0  0  0  0
  2  1  1  0
  2  3  1  0
  2  4  1  0
  2  5  1  0
  5  6  1  0
  6  7  2  0
  7  8  1  0
  8  9  1  0
  9 10  1  0
 10 11  1  0
 11 12  2  0
 11 13  1  0
 13 14  1  0
 14 15  2  0
 15 16  1  0
 16 17  2  0
 17 18  1  0
 14 19  1  0
 18 19  2  0
  5 20  1  0
  8 20  2  0
M  END
