pyridine_urea_9709
     RDKit          3D

 27 29  0  0  0  0  0  0  0  0999 V2000
    5.8920   -5.5170   24.6940 C   0  0  0  0  0  0  0  0  0  0  0  0
    6.6620   -4.4240   23.9540 C   0  0  0  0  0  0  0  0  0  0  0  0
    5.7850   -3.7100   22.9350 C   0  0  0  0  0  0  0  0  0  0  0  0
    6.4020   -2.6050   22.1310 C   0  0  0  0  0  0  0  0  0  0  0  0
    7.8620   -2.2830   22.4030 C   0  0  0  0  0  0  0  0  0  0  0  0
    8.6530   -3.0590   23.4490 C   0  0  0  0  0  0  0  0  0  0  0  0
   10.1270   -2.6280   23.6290 C   0  0  0  0  0  0  0  0  0  0  0  0
   10.2180   -1.4320   23.2880 O   0  0  0  0  0  0  0  0  0  0  0  0
   11.5670   -0.9030   23.3900 C   0  0  0  0  0  0  0  0  0  0  0  0
   12.5210   -1.5720   23.6650 C   0  0  0  0  0  0  0  0  0  0  0  0
   13.1360   -0.4710   23.5720 C   0  0  0  0  0  0  0  0  0  0  0  0
   11.6220   -0.0450   23.2180 C   0  0  0  0  0  0  0  0  0  0  0  0
   10.4780   -0.8390   23.1190 C   0  0  2  0  0  0  0  0  0  0  0  0
   10.6290   -1.6630   21.8740 C   0  0  0  0  0  0  0  0  0  0  0  0
    9.3070    0.0630   22.8300 N   0  0  0  0  0  0  0  0  0  0  0  0
    8.4460   -0.2010   21.6370 C   0  0  0  0  0  0  0  0  0  0  0  0
    8.8760   -0.9460   20.6480 O   0  0  0  0  0  0  0  0  0  0  0  0
    7.1870    0.3400   21.6150 N   0  0  0  0  0  0  0  0  0  0  0  0
    6.4660    0.6200   20.4150 C   0  0  0  0  0  0  0  0  0  0  0  0
    5.2990    1.3880   20.3900 C   0  0  0  0  0  0  0  0  0  0  0  0
    4.6920    1.6080   19.1710 C   0  0  0  0  0  0  0  0  0  0  0  0
    5.2390    1.0750   18.0210 C   0  0  0  0  0  0  0  0  0  0  0  0
    6.3420    0.3310   17.9820 N   0  0  0  0  0  0  0  0  0  0  0  0
    6.9330    0.1160   19.1860 C   0  0  0  0  0  0  0  0  0  0  0  0
   11.4900    1.3180   22.9610 C   0  0  0  0  0  0  0  0  0  0  0  0
   12.3380    0.4150   23.2650 C   0  0  0  0  0  0  0  0  0  0  0  0
    8.0190   -4.0900   24.1660 C   0  0  0  0  0  0  0  0  0  0  0  0
  1  2  1  0
  2  3  2  0
  3  4  1  0
  4  5  2  0
  5  6  1  0
  6  7  1  0
  7  8  1  0
  8  9  1  0
  9 10  2  0
 10 11  1  0
 11 12  2  0
 12 13  1  0
 13 14  1  6
 13 15  1  0
 15 16  1  0
 16 17  2  0
 16 18  1  0
 18 19  1  0
 19 20  2  0
 20 21  1  0
 21 22  2  0
 22 23  1  0
 19 24  1  0
 23 24  2  0
 12 25  1  0
  9 26  1  0
 25 26  2  0
  2 27  1  0
  6 27  2  0
M  END
