pyridine_urea_1346
     RDKit          3D

 20 21  0  0  0  0  0  0  0  0999 V2000
    8.2180    1.0810   21.0500 O   0  0  0  0  0  0  0  0  0  0  0  0
    8.1950   -0.1310   21.1950 C   0  0  0  0  0  0  0  0  0  0  0  0
    7.0590   -0.8230   20.9520 N   0  0  0  0  0  0  0  0  0  0  0  0
    6.4330   -0.1300   19.8760 C   0  0  0  0  0  0  0  0  0  0  0  0
    5.1380    0.6320   20.1800 C   0  0  0  0  0  0  0  0  0  0  0  0
    4.5050    1.3530   19.1730 C   0  0  0  0  0  0  0  0  0  0  0  0
    5.0950    1.3490   17.9100 C   0  0  0  0  0  0  0  0  0  0  0  0
    6.2500    0.6410   17.6930 N   0  0  0  0  0  0  0  0  0  0  0  0
    6.9300   -0.1020   18.6490 C   0  0  0  0  0  0  0  0  0  0  0  0
    9.2760   -0.8200   21.5710 N   0  0  0  0  0  0  0  0  0  0  0  0
   10.4440   -1.1690   22.0710 C   0  0  0  0  0  0  0  0  0  0  0  0
   11.3610   -2.1090   21.5840 C   0  0  0  0  0  0  0  0  0  0  0  0
   12.5510   -2.3130   22.2560 C   0  0  0  0  0  0  0  0  0  0  0  0
   12.7830   -1.5940   23.3890 C   0  0  0  0  0  0  0  0  0  0  0  0
   13.8670   -1.7330   24.1150 F   0  0  0  0  0  0  0  0  0  0  0  0
   11.8350   -0.7180   23.7650 C   0  0  0  0  0  0  0  0  0  0  0  0
   11.8060    0.1120   24.8270 C   0  0  0  0  0  0  0  0  0  0  0  0
   11.5920    1.3720   24.4170 F   0  0  0  0  0  0  0  0  0  0  0  0
   10.6960   -0.2110   25.5220 F   0  0  0  0  0  0  0  0  0  0  0  0
   10.6960   -0.4770   23.1640 C   0  0  0  0  0  0  0  0  0  0  0  0
  1  2  2  0
  2  3  1  0
  3  4  1  0
  4  5  2  0
  5  6  1  0
  6  7  2  0
  7  8  1  0
  4  9  1  0
  8  9  2  0
  2 10  1  0
 10 11  1  0
 11 12  2  0
 12 13  1  0
 13 14  2  0
 14 15  1  0
 14 16  1  0
 16 17  1  0
 17 18  1  0
 17 19  1  0
 11 20  1  0
 16 20  2  0
M  END
