pyridine_urea_4221
     RDKit          3D

 24 26  0  0  0  0  0  0  0  0999 V2000
   11.6640   -3.7220   20.1120 C   0  0  0  0  0  0  0  0  0  0  0  0
   11.8330   -2.6910   21.1940 C   0  0  0  0  0  0  0  0  0  0  0  0
   13.1190   -3.0700   21.6860 C   0  0  0  0  0  0  0  0  0  0  0  0
   13.8490   -4.3610   20.7540 Cl  0  0  0  0  0  0  0  0  0  0  0  0
   13.6860   -2.3440   22.8900 C   0  0  0  0  0  0  0  0  0  0  0  0
   12.8990   -1.1840   23.4450 C   0  0  0  0  0  0  0  0  0  0  0  0
   11.6170   -0.9090   22.7730 C   0  0  0  0  0  0  0  0  0  0  0  0
   10.6180    0.4130   23.2820 S   0  0  0  0  0  0  0  0  0  0  0  0
    9.3670    0.0500   22.1080 C   0  0  0  0  0  0  0  0  0  0  0  0
    8.1900    0.9520   22.1460 N   0  0  0  0  0  0  0  0  0  0  0  0
    7.3340    0.7590   23.2160 C   0  0  0  0  0  0  0  0  0  0  0  0
    7.2640   -0.5810   23.5590 C   0  0  0  0  0  0  0  0  0  0  0  0
    7.6260   -1.4070   22.5500 N   0  0  0  0  0  0  0  0  0  0  0  0
    7.4810   -0.9720   21.2270 C   0  0  0  0  0  0  0  0  0  0  0  0
    8.3060   -0.4140   20.5500 O   0  0  0  0  0  0  0  0  0  0  0  0
    6.2610   -1.2130   20.7970 N   0  0  0  0  0  0  0  0  0  0  0  0
    5.8500   -0.3010   19.8950 C   0  0  0  0  0  0  0  0  0  0  0  0
    4.7790    0.5650   20.0840 C   0  0  0  0  0  0  0  0  0  0  0  0
    4.4540    1.5100   18.9890 C   0  0  0  0  0  0  0  0  0  0  0  0
    5.2320    1.4780   17.8430 C   0  0  0  0  0  0  0  0  0  0  0  0
    6.2650    0.6350   17.6800 N   0  0  0  0  0  0  0  0  0  0  0  0
    6.5450   -0.2170   18.6910 C   0  0  0  0  0  0  0  0  0  0  0  0
    9.6790   -1.0700   21.3060 N   0  0  0  0  0  0  0  0  0  0  0  0
   11.0180   -1.6560   21.6480 C   0  0  0  0  0  0  0  0  0  0  0  0
  1  2  1  0
  2  3  2  0
  3  4  1  0
  3  5  1  0
  5  6  2  0
  6  7  1  0
  7  8  1  0
  8  9  1  0
  9 10  1  0
 10 11  1  0
 11 12  1  0
 12 13  1  0
 13 14  1  0
 14 15  2  0
 14 16  1  0
 16 17  1  0
 17 18  2  0
 18 19  1  0
 19 20  2  0
 20 21  1  0
 17 22  1  0
 21 22  2  0
  9 23  2  0
  2 24  1  0
  7 24  2  0
 23 24  1  0
M  END
