pyridine_urea_222
     RDKit          3D

 23 24  0  0  0  0  0  0  0  0999 V2000
   13.1130    0.9030   23.0810 C   0  0  0  0  0  0  0  0  0  0  0  0
   13.2350   -0.1080   23.7300 C   0  0  0  0  0  0  0  0  0  0  0  0
   13.2190   -1.1810   24.8380 C   0  0  0  0  0  0  0  0  0  0  0  0
   11.9930   -0.5220   23.2650 C   0  0  0  0  0  0  0  0  0  0  0  0
   11.1300    0.1850   23.9370 C   0  0  0  0  0  0  0  0  0  0  0  0
    9.7150    0.0650   23.7670 C   0  0  0  0  0  0  0  0  0  0  0  0
    9.3260   -0.9180   22.7720 C   0  0  0  0  0  0  0  0  0  0  0  0
    7.9640   -1.0310   22.5810 N   0  0  0  0  0  0  0  0  0  0  0  0
    7.6320   -0.2850   21.5150 C   0  0  0  0  0  0  0  0  0  0  0  0
    8.4390    0.8380   21.1700 O   0  0  0  0  0  0  0  0  0  0  0  0
    6.5370   -0.7370   20.8900 N   0  0  0  0  0  0  0  0  0  0  0  0
    6.0130    0.0260   19.8780 C   0  0  0  0  0  0  0  0  0  0  0  0
    4.8620    0.7700   19.9480 C   0  0  0  0  0  0  0  0  0  0  0  0
    4.4240    1.5200   18.8890 C   0  0  0  0  0  0  0  0  0  0  0  0
    5.1740    1.5080   17.7410 C   0  0  0  0  0  0  0  0  0  0  0  0
    6.3090    0.7900   17.6100 N   0  0  0  0  0  0  0  0  0  0  0  0
    6.7010    0.0710   18.6810 C   0  0  0  0  0  0  0  0  0  0  0  0
   10.3600   -1.7820   21.9480 C   0  0  0  0  0  0  0  0  0  0  0  0
   11.8130   -1.5500   22.2380 C   0  0  0  0  0  0  0  0  0  0  0  0
   12.8970   -2.1740   21.6710 C   0  0  0  0  0  0  0  0  0  0  0  0
   13.5810   -2.8100   22.6400 F   0  0  0  0  0  0  0  0  0  0  0  0
   13.7150   -1.3980   20.9660 F   0  0  0  0  0  0  0  0  0  0  0  0
   12.4750   -3.1200   20.8160 F   0  0  0  0  0  0  0  0  0  0  0  0
  1  2  1  0
  2  3  1  0
  2  4  1  0
  4  5  2  0
  5  6  1  0
  6  7  2  0
  7  8  1  0
  8  9  1  0
  9 10  2  0
  9 11  1  0
 11 12  1  0
 12 13  2  0
 13 14  1  0
 14 15  2  0
 15 16  1  0
 12 17  1  0
 16 17  2  0
  7 18  1  0
  4 19  1  0
 18 19  2  0
 19 20  1  0
 20 21  1  0
 20 22  1  0
 20 23  1  0
M  END
