pyridine_urea_11637
     RDKit          3D

 29 31  0  0  0  0  0  0  0  0999 V2000
   12.0110    4.2710   21.6340 C   0  0  0  0  0  0  0  0  0  0  0  0
   12.9450    3.4130   22.2500 O   0  0  0  0  0  0  0  0  0  0  0  0
   12.4870    2.1830   22.6950 C   0  0  0  0  0  0  0  0  0  0  0  0
   11.1190    1.9960   22.7700 C   0  0  0  0  0  0  0  0  0  0  0  0
   10.5420    0.8300   23.2030 C   0  0  0  0  0  0  0  0  0  0  0  0
   11.4370   -0.1570   23.6040 C   0  0  0  0  0  0  0  0  0  0  0  0
   12.8300   -0.0670   23.5760 C   0  0  0  0  0  0  0  0  0  0  0  0
   13.3220   -1.1590   24.0310 O   0  0  0  0  0  0  0  0  0  0  0  0
   12.0580   -1.3890   23.6660 C   0  0  0  0  0  0  0  0  0  0  0  0
   10.9160   -1.3240   24.6250 C   0  0  0  0  0  0  0  0  0  0  0  0
    9.6790   -1.4060   24.0650 C   0  0  0  0  0  0  0  0  0  0  0  0
    9.6660   -1.5400   22.7270 C   0  0  0  0  0  0  0  0  0  0  0  0
    8.5410   -1.4970   22.0830 N   0  0  0  0  0  0  0  0  0  0  0  0
    7.7110   -0.6980   21.2690 C   0  0  0  0  0  0  0  0  0  0  0  0
    8.0660    0.6360   20.8670 O   0  0  0  0  0  0  0  0  0  0  0  0
    6.4520   -1.0990   20.7700 N   0  0  0  0  0  0  0  0  0  0  0  0
    5.8980   -0.2080   19.8740 C   0  0  0  0  0  0  0  0  0  0  0  0
    4.7590    0.5370   20.1110 C   0  0  0  0  0  0  0  0  0  0  0  0
    4.3380    1.4510   19.0190 C   0  0  0  0  0  0  0  0  0  0  0  0
    5.1750    1.4860   17.7740 C   0  0  0  0  0  0  0  0  0  0  0  0
    6.2640    0.7300   17.6220 N   0  0  0  0  0  0  0  0  0  0  0  0
    6.5850   -0.0760   18.6610 C   0  0  0  0  0  0  0  0  0  0  0  0
   10.7110   -1.6730   21.8950 C   0  0  0  0  0  0  0  0  0  0  0  0
   11.9100   -1.6060   22.3970 C   0  0  0  0  0  0  0  0  0  0  0  0
   13.0290   -1.7380   21.7250 C   0  0  0  0  0  0  0  0  0  0  0  0
   13.7370   -2.4770   22.5840 F   0  0  0  0  0  0  0  0  0  0  0  0
   12.8570   -2.4360   20.6140 F   0  0  0  0  0  0  0  0  0  0  0  0
   13.6540   -0.5970   21.4980 F   0  0  0  0  0  0  0  0  0  0  0  0
   13.3400    1.1270   23.0710 C   0  0  0  0  0  0  0  0  0  0  0  0
  1  2  1  0
  2  3  1  0
  3  4  2  0
  4  5  1  0
  5  6  2  0
  6  7  1  0
  7  8  1  0
  8  9  1  0
  9 10  2  0
 10 11  1  0
 11 12  2  0
 12 13  1  0
 13 14  1  0
 14 15  2  0
 14 16  1  0
 16 17  1  0
 17 18  2  0
 18 19  1  0
 19 20  2  0
 20 21  1  0
 17 22  1  0
 21 22  2  0
 12 23  1  0
  9 24  1  0
 23 24  2  0
 24 25  1  0
 25 26  1  0
 25 27  1  0
 25 28  1  0
  3 29  1  0
  7 29  2  0
M  END
