pyridine_urea_5139
     RDKit          3D

 20 21  0  0  0  0  0  0  0  0999 V2000
    8.8630    1.3750   21.1310 O   0  0  0  0  0  0  0  0  0  0  0  0
    8.6230    0.2090   21.4630 C   0  0  0  0  0  0  0  0  0  0  0  0
    9.4700   -0.5400   22.2440 N   0  0  0  0  0  0  0  0  0  0  0  0
   10.6030    0.0500   22.8780 C   0  0  0  0  0  0  0  0  0  0  0  0
   11.7190   -0.7370   23.3000 C   0  0  0  0  0  0  0  0  0  0  0  0
   12.7350   -0.8520   22.3630 C   0  0  0  0  0  0  0  0  0  0  0  0
   12.8750    0.3500   22.9620 C   0  0  0  0  0  0  0  0  0  0  0  0
   11.8020    0.5080   24.0170 C   0  0  0  0  0  0  0  0  0  0  0  0
   10.8720   -0.5610   24.2200 C   0  0  0  0  0  0  0  0  0  0  0  0
    9.9180   -0.3930   25.1900 F   0  0  0  0  0  0  0  0  0  0  0  0
   10.9860   -1.8700   23.3310 C   0  0  0  0  0  0  0  0  0  0  0  0
   10.0930   -2.8840   23.5280 F   0  0  0  0  0  0  0  0  0  0  0  0
   11.9860   -2.0080   22.3380 C   0  0  0  0  0  0  0  0  0  0  0  0
    7.4800   -0.4580   21.0780 N   0  0  0  0  0  0  0  0  0  0  0  0
    6.6650    0.0840   20.0700 C   0  0  0  0  0  0  0  0  0  0  0  0
    5.5050    0.7870   20.4150 C   0  0  0  0  0  0  0  0  0  0  0  0
    4.7140    1.3490   19.4040 C   0  0  0  0  0  0  0  0  0  0  0  0
    5.1120    1.1850   18.0850 C   0  0  0  0  0  0  0  0  0  0  0  0
    6.2090    0.5080   17.7370 N   0  0  0  0  0  0  0  0  0  0  0  0
    6.9540   -0.0250   18.7260 C   0  0  0  0  0  0  0  0  0  0  0  0
  1  2  2  0
  2  3  1  0
  3  4  1  0
  4  5  1  0
  5  6  1  0
  6  7  2  0
  7  8  1  0
  8  9  2  0
  9 10  1  0
  9 11  1  0
 11 12  1  0
  6 13  1  0
 11 13  2  0
  2 14  1  0
 14 15  1  0
 15 16  2  0
 16 17  1  0
 17 18  2  0
 18 19  1  0
 15 20  1  0
 19 20  2  0
M  END
