pyridine_urea_12057
     RDKit          3D

 23 25  0  0  0  0  0  0  0  0999 V2000
    8.3690   -1.0420   24.9860 C   0  0  0  0  0  0  0  0  0  0  0  0
    9.3900   -0.1230   24.3300 C   0  0  1  0  0  0  0  0  0  0  0  0
   10.3920    0.3270   25.1640 C   0  0  0  0  0  0  0  0  0  0  0  0
   11.6630    0.0150   24.6300 C   0  0  0  0  0  0  0  0  0  0  0  0
   12.7630   -0.5290   25.2110 C   0  0  0  0  0  0  0  0  0  0  0  0
   12.1880   -1.3270   25.1110 C   0  0  0  0  0  0  0  0  0  0  0  0
   11.5590   -0.7000   23.4680 C   0  0  0  0  0  0  0  0  0  0  0  0
   12.5660   -1.2820   22.5830 C   0  0  0  0  0  0  0  0  0  0  0  0
   13.8280   -1.0350   22.8650 F   0  0  0  0  0  0  0  0  0  0  0  0
   12.1200   -2.0470   21.5830 C   0  0  0  0  0  0  0  0  0  0  0  0
   10.7390   -2.1680   21.5130 C   0  0  0  0  0  0  0  0  0  0  0  0
    9.8150   -1.5620   22.3260 C   0  0  0  0  0  0  0  0  0  0  0  0
    8.4460   -1.7510   22.0600 N   0  0  0  0  0  0  0  0  0  0  0  0
    7.9360   -0.6220   21.4740 C   0  0  0  0  0  0  0  0  0  0  0  0
    8.5280    0.4540   21.3860 O   0  0  0  0  0  0  0  0  0  0  0  0
    6.6940   -0.8320   20.9870 N   0  0  0  0  0  0  0  0  0  0  0  0
    6.2050   -0.0870   19.9280 C   0  0  0  0  0  0  0  0  0  0  0  0
    5.0380    0.6390   20.0790 C   0  0  0  0  0  0  0  0  0  0  0  0
    4.4970    1.4110   19.0670 C   0  0  0  0  0  0  0  0  0  0  0  0
    5.1810    1.4350   17.8620 C   0  0  0  0  0  0  0  0  0  0  0  0
    6.3230    0.7390   17.6720 N   0  0  0  0  0  0  0  0  0  0  0  0
    6.8150   -0.0060   18.6940 C   0  0  0  0  0  0  0  0  0  0  0  0
   10.2500   -0.8270   23.3220 C   0  0  0  0  0  0  0  0  0  0  0  0
  2  1  1  1
  2  3  1  0
  3  4  1  0
  4  5  1  0
  4  6  1  0
  4  7  1  0
  7  8  2  0
  8  9  1  0
  8 10  1  0
 10 11  2  0
 11 12  1  0
 12 13  1  0
 13 14  1  0
 14 15  2  0
 14 16  1  0
 16 17  1  0
 17 18  2  0
 18 19  1  0
 19 20  2  0
 20 21  1  0
 17 22  1  0
 21 22  2  0
  2 23  1  0
  7 23  1  0
 12 23  2  0
M  END
