pyridine_urea_10834
     RDKit          3D

 20 21  0  0  0  0  0  0  0  0999 V2000
   11.6190    0.6050   22.9060 C   0  0  0  0  0  0  0  0  0  0  0  0
   10.7740   -0.6260   23.1050 C   0  0  1  0  0  0  0  0  0  0  0  0
    9.6140   -0.8200   22.1500 N   0  0  0  0  0  0  0  0  0  0  0  0
    8.8040    0.1540   21.5420 C   0  0  0  0  0  0  0  0  0  0  0  0
    9.1620    1.3140   21.3200 O   0  0  0  0  0  0  0  0  0  0  0  0
    7.5610   -0.3650   21.2070 N   0  0  0  0  0  0  0  0  0  0  0  0
    6.7110    0.1780   20.1120 C   0  0  0  0  0  0  0  0  0  0  0  0
    5.5900    0.9210   20.4790 C   0  0  0  0  0  0  0  0  0  0  0  0
    4.7040    1.5180   19.4470 C   0  0  0  0  0  0  0  0  0  0  0  0
    5.1510    1.2340   18.0360 C   0  0  0  0  0  0  0  0  0  0  0  0
    6.2380    0.5000   17.7290 N   0  0  0  0  0  0  0  0  0  0  0  0
    6.9790   -0.0030   18.7560 C   0  0  0  0  0  0  0  0  0  0  0  0
   11.6120   -1.8830   22.9210 C   0  0  0  0  0  0  0  0  0  0  0  0
   12.5520   -0.9200   22.7340 C   0  0  0  0  0  0  0  0  0  0  0  0
   11.9650    0.3160   22.9300 C   0  0  0  0  0  0  0  0  0  0  0  0
   12.6760    1.4580   22.8200 F   0  0  0  0  0  0  0  0  0  0  0  0
   10.5590    0.3330   23.2650 C   0  0  0  0  0  0  0  0  0  0  0  0
    9.7410   -0.8570   23.4090 C   0  0  0  0  0  0  0  0  0  0  0  0
   10.3200   -2.1100   23.2180 C   0  0  0  0  0  0  0  0  0  0  0  0
    9.6740   -3.2860   23.3370 F   0  0  0  0  0  0  0  0  0  0  0  0
  2  1  1  6
  2  3  1  0
  3  4  1  0
  4  5  2  0
  4  6  1  0
  6  7  1  0
  7  8  2  0
  8  9  1  0
  9 10  2  0
 10 11  1  0
  7 12  1  0
 11 12  2  0
  2 13  1  0
 13 14  2  0
 14 15  1  0
 15 16  1  0
 15 17  2  0
 17 18  1  0
 13 19  1  0
 18 19  2  0
 19 20  1  0
M  END
