pyridine_urea_2808
     RDKit          3D

 22 23  0  0  0  0  0  0  0  0999 V2000
    8.6540    0.6890   21.1610 O   0  0  0  0  0  0  0  0  0  0  0  0
    8.2700   -0.4190   21.5130 C   0  0  0  0  0  0  0  0  0  0  0  0
    7.0760   -0.9370   21.0560 N   0  0  0  0  0  0  0  0  0  0  0  0
    6.4120   -0.1600   20.0220 C   0  0  0  0  0  0  0  0  0  0  0  0
    5.0870    0.6070   20.3390 C   0  0  0  0  0  0  0  0  0  0  0  0
    4.5110    1.3400   19.3030 C   0  0  0  0  0  0  0  0  0  0  0  0
    5.2370    1.3200   17.9530 C   0  0  0  0  0  0  0  0  0  0  0  0
    6.3800    0.6340   17.7350 N   0  0  0  0  0  0  0  0  0  0  0  0
    6.9280   -0.0750   18.7480 C   0  0  0  0  0  0  0  0  0  0  0  0
    8.9420   -1.2580   22.3780 N   0  0  0  0  0  0  0  0  0  0  0  0
   10.2600   -0.7430   22.7070 C   0  0  0  0  0  0  0  0  0  0  0  0
   11.4000   -1.4370   21.9780 C   0  0  0  0  0  0  0  0  0  0  0  0
   12.8050   -0.9210   22.2440 C   0  0  0  0  0  0  0  0  0  0  0  0
   12.9780    0.2440   23.2020 C   0  0  0  0  0  0  0  0  0  0  0  0
   11.7760    0.8640   23.8960 C   0  0  0  0  0  0  0  0  0  0  0  0
   10.4070    0.3160   23.6150 C   0  0  0  0  0  0  0  0  0  0  0  0
    9.3190    0.8940   24.2750 C   0  0  1  0  0  0  0  0  0  0  0  0
    8.2920    1.4850   23.5950 O   0  0  0  0  0  0  0  0  0  0  0  0
    8.7370    0.0760   25.2590 C   0  0  0  0  0  0  0  0  0  0  0  0
    7.6880    0.6770   25.8900 F   0  0  0  0  0  0  0  0  0  0  0  0
    8.2420   -1.0920   24.7610 F   0  0  0  0  0  0  0  0  0  0  0  0
    9.5880   -0.3030   26.2490 F   0  0  0  0  0  0  0  0  0  0  0  0
  1  2  2  0
  2  3  1  0
  3  4  1  0
  4  5  2  0
  5  6  1  0
  6  7  2  0
  7  8  1  0
  4  9  1  0
  8  9  2  0
  2 10  1  0
 10 11  1  0
 11 12  2  0
 12 13  1  0
 13 14  2  0
 14 15  1  0
 11 16  1  0
 15 16  2  0
 16 17  1  0
 17 18  1  6
 17 19  1  0
 19 20  1  0
 19 21  1  0
 19 22  1  0
M  END
