pyridine_urea_14566
     RDKit          3D

 21 22  0  0  0  0  0  0  0  0999 V2000
   13.6030   -2.6870   24.6810 C   0  0  0  0  0  0  0  0  0  0  0  0
   12.4260   -2.3070   24.1080 N   0  0  0  0  0  0  0  0  0  0  0  0
   11.3910   -3.2050   24.0840 N   0  0  0  0  0  0  0  0  0  0  0  0
   10.2970   -2.6440   23.4760 N   0  0  0  0  0  0  0  0  0  0  0  0
   10.6530   -1.3850   23.1200 C   0  0  0  0  0  0  0  0  0  0  0  0
   10.0110   -0.3690   22.5160 C   0  0  0  0  0  0  0  0  0  0  0  0
    8.6600   -0.7220   22.3500 N   0  0  0  0  0  0  0  0  0  0  0  0
    8.1210    0.0190   21.4470 C   0  0  0  0  0  0  0  0  0  0  0  0
    8.6330    1.1260   21.1130 O   0  0  0  0  0  0  0  0  0  0  0  0
    6.9730   -0.5660   20.9520 N   0  0  0  0  0  0  0  0  0  0  0  0
    6.2700    0.1130   19.9930 C   0  0  0  0  0  0  0  0  0  0  0  0
    5.0760    0.7850   20.1370 C   0  0  0  0  0  0  0  0  0  0  0  0
    4.4780    1.5020   18.9550 C   0  0  0  0  0  0  0  0  0  0  0  0
    5.1290    1.4770   17.7500 C   0  0  0  0  0  0  0  0  0  0  0  0
    6.2930    0.8040   17.6210 N   0  0  0  0  0  0  0  0  0  0  0  0
    6.8150    0.1640   18.6990 C   0  0  0  0  0  0  0  0  0  0  0  0
   12.0340   -1.0550   23.4840 C   0  0  0  0  0  0  0  0  0  0  0  0
   12.6120    0.1570   23.2380 C   0  0  0  0  0  0  0  0  0  0  0  0
   13.8030    0.1880   22.6790 F   0  0  0  0  0  0  0  0  0  0  0  0
   11.8850    0.9900   22.5030 F   0  0  0  0  0  0  0  0  0  0  0  0
   12.6310    0.7850   24.3870 F   0  0  0  0  0  0  0  0  0  0  0  0
  1  2  1  0
  2  3  1  0
  3  4  2  0
  4  5  1  0
  5  6  1  0
  6  7  1  0
  7  8  1  0
  8  9  2  0
  8 10  1  0
 10 11  1  0
 11 12  2  0
 12 13  1  0
 13 14  2  0
 14 15  1  0
 11 16  1  0
 15 16  2  0
  2 17  1  0
  5 17  2  0
 17 18  1  0
 18 19  1  0
 18 20  1  0
 18 21  1  0
M  END
