pyridine_urea_11563
     RDKit          3D

 22 23  0  0  0  0  0  0  0  0999 V2000
    9.3110   -1.8000   21.6340 C   0  0  0  0  0  0  0  0  0  0  0  0
   10.2020   -1.1760   22.6560 C   0  0  0  0  0  0  0  0  0  0  0  0
    9.9220    0.0130   23.2590 C   0  0  0  0  0  0  0  0  0  0  0  0
    8.7320    0.5870   22.8570 N   0  0  0  0  0  0  0  0  0  0  0  0
    8.3780    0.8270   21.5780 C   0  0  0  0  0  0  0  0  0  0  0  0
    8.8860    1.7180   20.9290 O   0  0  0  0  0  0  0  0  0  0  0  0
    7.3820   -0.0270   21.1270 N   0  0  0  0  0  0  0  0  0  0  0  0
    6.6050    0.3740   20.0560 C   0  0  0  0  0  0  0  0  0  0  0  0
    5.4420    1.1020   20.3470 C   0  0  0  0  0  0  0  0  0  0  0  0
    4.6650    1.5460   19.2990 C   0  0  0  0  0  0  0  0  0  0  0  0
    5.1430    1.2030   17.9040 C   0  0  0  0  0  0  0  0  0  0  0  0
    6.2370    0.5010   17.6610 N   0  0  0  0  0  0  0  0  0  0  0  0
    6.9400    0.1020   18.7380 C   0  0  0  0  0  0  0  0  0  0  0  0
   10.7850    0.5800   24.2150 C   0  0  0  0  0  0  0  0  0  0  0  0
   11.9450   -0.0830   24.6020 C   0  0  0  0  0  0  0  0  0  0  0  0
   12.1970   -1.2730   24.0320 C   0  0  0  0  0  0  0  0  0  0  0  0
   13.1960   -2.1360   24.2800 C   0  0  0  0  0  0  0  0  0  0  0  0
   13.9110   -2.0310   25.3860 F   0  0  0  0  0  0  0  0  0  0  0  0
   13.9690   -2.4720   23.2660 F   0  0  0  0  0  0  0  0  0  0  0  0
   12.5670   -3.2910   24.5650 F   0  0  0  0  0  0  0  0  0  0  0  0
   11.3190   -1.8120   23.0250 C   0  0  0  0  0  0  0  0  0  0  0  0
   11.6220   -2.9690   22.4740 F   0  0  0  0  0  0  0  0  0  0  0  0
  1  2  1  0
  2  3  2  0
  3  4  1  0
  4  5  1  0
  5  6  2  0
  5  7  1  0
  7  8  1  0
  8  9  2  0
  9 10  1  0
 10 11  2  0
 11 12  1  0
  8 13  1  0
 12 13  2  0
  3 14  1  0
 14 15  2  0
 15 16  1  0
 16 17  1  0
 17 18  1  0
 17 19  1  0
 17 20  1  0
  2 21  1  0
 16 21  2  0
 21 22  1  0
M  END
