pyridine_urea_2671
     RDKit          3D

 23 25  0  0  0  0  0  0  0  0999 V2000
    8.6760    0.5760   21.2320 O   0  0  0  0  0  0  0  0  0  0  0  0
    8.1460   -0.4950   21.4920 C   0  0  0  0  0  0  0  0  0  0  0  0
    6.9390   -0.8910   20.9960 N   0  0  0  0  0  0  0  0  0  0  0  0
    6.3380   -0.1500   19.9740 C   0  0  0  0  0  0  0  0  0  0  0  0
    5.1350    0.5270   20.2100 C   0  0  0  0  0  0  0  0  0  0  0  0
    4.5510    1.2790   19.1860 C   0  0  0  0  0  0  0  0  0  0  0  0
    5.1900    1.3270   17.9640 C   0  0  0  0  0  0  0  0  0  0  0  0
    6.3430    0.6800   17.7220 N   0  0  0  0  0  0  0  0  0  0  0  0
    6.8860   -0.0390   18.7190 C   0  0  0  0  0  0  0  0  0  0  0  0
    8.7700   -1.3920   22.3280 N   0  0  0  0  0  0  0  0  0  0  0  0
   10.0580   -0.8280   22.6960 C   0  0  0  0  0  0  0  0  0  0  0  0
   11.2020   -1.5070   21.9700 C   0  0  0  0  0  0  0  0  0  0  0  0
   12.4780   -1.0220   22.1970 C   0  0  0  0  0  0  0  0  0  0  0  0
   12.6340    0.0460   23.0560 C   0  0  0  0  0  0  0  0  0  0  0  0
   13.8140    0.4920   23.2100 F   0  0  0  0  0  0  0  0  0  0  0  0
   11.5750    0.6290   23.7200 C   0  0  0  0  0  0  0  0  0  0  0  0
   10.2710    0.2180   23.5720 C   0  0  0  0  0  0  0  0  0  0  0  0
    9.2820    0.6830   24.1180 O   0  0  0  0  0  0  0  0  0  0  0  0
    8.6250   -0.1110   25.1070 C   0  0  0  0  0  0  0  0  0  0  0  0
    9.3860   -0.6710   26.1170 C   0  0  0  0  0  0  0  0  0  0  0  0
    8.9700   -0.1020   27.2970 C   0  0  0  0  0  0  0  0  0  0  0  0
    7.9630    0.8040   26.9930 C   0  0  0  0  0  0  0  0  0  0  0  0
    7.6570    0.7810   25.6170 C   0  0  0  0  0  0  0  0  0  0  0  0
  1  2  2  0
  2  3  1  0
  3  4  1  0
  4  5  2  0
  5  6  1  0
  6  7  2  0
  7  8  1  0
  4  9  1  0
  8  9  2  0
  2 10  1  0
 10 11  1  0
 11 12  2  0
 12 13  1  0
 13 14  2  0
 14 15  1  0
 14 16  1  0
 11 17  1  0
 16 17  2  0
 17 18  1  0
 18 19  1  0
 19 20  1  0
 20 21  1  0
 21 22  1  0
 19 23  1  0
 22 23  1  0
M  END
