pyridine_urea_5821
     RDKit          3D

 21 23  0  0  0  0  0  0  0  0999 V2000
    8.9290    1.0830   21.2390 O   0  0  0  0  0  0  0  0  0  0  0  0
    8.4540   -0.0040   21.6160 C   0  0  0  0  0  0  0  0  0  0  0  0
    9.0100   -0.7640   22.7390 N   0  0  0  0  0  0  0  0  0  0  0  0
    9.4070   -2.0930   22.5450 C   0  0  0  0  0  0  0  0  0  0  0  0
    8.8690   -3.0970   23.3760 C   0  0  0  0  0  0  0  0  0  0  0  0
    8.2850   -2.8020   24.6040 N   0  0  0  0  0  0  0  0  0  0  0  0
    7.6850   -1.6600   25.0420 N   0  0  0  0  0  0  0  0  0  0  0  0
    7.3120   -1.9760   26.3110 N   0  0  0  0  0  0  0  0  0  0  0  0
    7.7040   -3.2810   26.5630 C   0  0  0  0  0  0  0  0  0  0  0  0
    8.3380   -3.8440   25.4760 C   0  0  0  0  0  0  0  0  0  0  0  0
    8.9070   -5.2290   25.3440 C   0  0  0  0  0  0  0  0  0  0  0  0
    8.9840   -5.8000   26.7700 C   0  0  0  0  0  0  0  0  0  0  0  0
    7.6920   -5.4600   27.5270 C   0  0  0  0  0  0  0  0  0  0  0  0
    7.5570   -4.0940   27.7190 C   0  0  0  0  0  0  0  0  0  0  0  0
    7.3500   -0.5240   21.0000 N   0  0  0  0  0  0  0  0  0  0  0  0
    6.6310    0.0780   20.0290 C   0  0  0  0  0  0  0  0  0  0  0  0
    5.4860    0.8120   20.3590 C   0  0  0  0  0  0  0  0  0  0  0  0
    4.7620    1.4330   19.3510 C   0  0  0  0  0  0  0  0  0  0  0  0
    5.1930    1.3100   18.0480 C   0  0  0  0  0  0  0  0  0  0  0  0
    6.2840    0.6060   17.7090 N   0  0  0  0  0  0  0  0  0  0  0  0
    6.9740    0.0090   18.6990 C   0  0  0  0  0  0  0  0  0  0  0  0
  1  2  2  0
  2  3  1  0
  3  4  1  0
  4  5  1  0
  5  6  1  0
  6  7  1  0
  7  8  2  0
  8  9  1  0
  6 10  1  0
  9 10  2  0
 10 11  1  0
 11 12  1  0
 12 13  1  0
  9 14  1  0
 13 14  1  0
  2 15  1  0
 15 16  1  0
 16 17  2  0
 17 18  1  0
 18 19  2  0
 19 20  1  0
 16 21  1  0
 20 21  2  0
M  END
