pyridine_urea_101
     RDKit          3D

 24 26  0  0  0  0  0  0  0  0999 V2000
   12.7150   -1.8140   21.6850 C   0  0  0  0  0  0  0  0  0  0  0  0
   11.9850   -0.9550   22.5650 O   0  0  0  0  0  0  0  0  0  0  0  0
   12.6480    0.2830   22.8170 C   0  0  0  0  0  0  0  0  0  0  0  0
   13.8430    0.4190   22.7410 O   0  0  0  0  0  0  0  0  0  0  0  0
   11.6480    1.3900   23.1910 C   0  0  0  0  0  0  0  0  0  0  0  0
   11.7190    2.8350   23.0140 C   0  0  0  0  0  0  0  0  0  0  0  0
   10.4940    3.4120   23.5580 N   0  0  0  0  0  0  0  0  0  0  0  0
    9.6770    2.3760   24.0590 C   0  0  0  0  0  0  0  0  0  0  0  0
   10.3750    1.2550   23.8230 N   0  0  0  0  0  0  0  0  0  0  0  0
    9.9950    0.0370   24.1300 C   0  0  0  0  0  0  0  0  0  0  0  0
    9.0090    0.1080   25.2220 C   0  0  0  0  0  0  0  0  0  0  0  0
    7.8420    0.7440   24.9370 C   0  0  2  0  0  0  0  0  0  0  0  0
    7.6130   -0.1490   23.7490 C   0  0  0  0  0  0  0  0  0  0  0  0
    7.8270    0.4070   22.5450 N   0  0  0  0  0  0  0  0  0  0  0  0
    8.1100   -0.4030   21.5150 C   0  0  0  0  0  0  0  0  0  0  0  0
    9.2440   -0.7070   21.0660 O   0  0  0  0  0  0  0  0  0  0  0  0
    7.0130   -0.9240   20.9230 N   0  0  0  0  0  0  0  0  0  0  0  0
    6.4000   -0.1680   19.9790 C   0  0  0  0  0  0  0  0  0  0  0  0
    5.2490    0.5680   20.1750 C   0  0  0  0  0  0  0  0  0  0  0  0
    4.4120    1.4730   19.2540 C   0  0  0  0  0  0  0  0  0  0  0  0
    5.2800    1.3040   18.0090 C   0  0  0  0  0  0  0  0  0  0  0  0
    6.4010    0.5950   17.7930 N   0  0  0  0  0  0  0  0  0  0  0  0
    6.9420   -0.1230   18.7550 C   0  0  0  0  0  0  0  0  0  0  0  0
    8.4100    2.2140   24.7010 C   0  0  0  0  0  0  0  0  0  0  0  0
  1  2  1  0
  2  3  1  0
  3  4  2  0
  3  5  1  0
  5  6  2  0
  6  7  1  0
  7  8  2  0
  5  9  1  0
  8  9  1  0
  9 10  1  0
 10 11  1  0
 11 12  1  0
 12 13  1  6
 13 14  1  0
 14 15  1  0
 15 16  2  0
 15 17  1  0
 17 18  1  0
 18 19  2  0
 19 20  1  0
 20 21  2  0
 21 22  1  0
 18 23  1  0
 22 23  2  0
  8 24  1  0
 12 24  1  0
M  END
