pyridine_urea_6903
     RDKit          3D

 21 22  0  0  0  0  0  0  0  0999 V2000
    9.9200   -0.9270   24.2520 N   0  0  0  0  0  0  0  0  0  0  0  0
    9.9940   -0.0880   23.1940 C   0  0  0  0  0  0  0  0  0  0  0  0
    9.9430    1.1350   23.2680 O   0  0  0  0  0  0  0  0  0  0  0  0
   10.1280   -0.7820   21.8820 C   0  0  1  0  0  0  0  0  0  0  0  0
   11.2810   -1.5140   21.7590 C   0  0  0  0  0  0  0  0  0  0  0  0
   12.0670   -0.8160   22.5800 C   0  0  0  0  0  0  0  0  0  0  0  0
   12.8260   -0.4120   23.6430 C   0  0  0  0  0  0  0  0  0  0  0  0
   13.1230   -1.0370   24.7930 C   0  0  0  0  0  0  0  0  0  0  0  0
   12.7090   -2.3590   25.1310 C   0  0  0  0  0  0  0  0  0  0  0  0
   11.9770   -2.8580   24.2100 C   0  0  0  0  0  0  0  0  0  0  0  0
   11.6980   -2.1360   23.0610 C   0  0  0  0  0  0  0  0  0  0  0  0
    8.9280   -1.5460   21.6050 N   0  0  0  0  0  0  0  0  0  0  0  0
    8.0400   -0.5200   21.2800 C   0  0  0  0  0  0  0  0  0  0  0  0
    8.3970    0.6530   21.2460 O   0  0  0  0  0  0  0  0  0  0  0  0
    6.8110   -0.9590   21.0000 N   0  0  0  0  0  0  0  0  0  0  0  0
    6.2690   -0.1670   19.9230 C   0  0  0  0  0  0  0  0  0  0  0  0
    5.0090    0.6070   20.1660 C   0  0  0  0  0  0  0  0  0  0  0  0
    4.4950    1.3910   19.1040 C   0  0  0  0  0  0  0  0  0  0  0  0
    5.1750    1.4120   17.8870 C   0  0  0  0  0  0  0  0  0  0  0  0
    6.3100    0.6880   17.7190 N   0  0  0  0  0  0  0  0  0  0  0  0
    6.8760   -0.0990   18.6980 C   0  0  0  0  0  0  0  0  0  0  0  0
  1  2  1  0
  2  3  2  0
  2  4  1  0
  4  5  1  1
  5  6  1  0
  6  7  2  0
  7  8  1  0
  8  9  2  0
  9 10  1  0
  6 11  1  0
 10 11  2  0
  4 12  1  0
 12 13  1  0
 13 14  2  0
 13 15  1  0
 15 16  1  0
 16 17  2  0
 17 18  1  0
 18 19  2  0
 19 20  1  0
 16 21  1  0
 20 21  2  0
M  END
