pyridine_urea_11881
     RDKit          3D

 24 25  0  0  0  0  0  0  0  0999 V2000
    8.5960   -4.1110   23.8110 C   0  0  0  0  0  0  0  0  0  0  0  0
    8.5940   -2.8830   22.9060 C   0  0  0  0  0  0  0  0  0  0  0  0
    9.4680   -1.8700   23.4360 O   0  0  0  0  0  0  0  0  0  0  0  0
   10.6640   -1.8220   22.7770 C   0  0  0  0  0  0  0  0  0  0  0  0
   10.5990   -3.2220   23.0280 O   0  0  0  0  0  0  0  0  0  0  0  0
   10.1530   -0.5280   22.8740 C   0  0  1  0  0  0  0  0  0  0  0  0
    8.7110   -0.5330   22.6490 N   0  0  0  0  0  0  0  0  0  0  0  0
    8.2070    0.0470   21.5290 C   0  0  0  0  0  0  0  0  0  0  0  0
    8.6150    1.1320   21.0620 O   0  0  0  0  0  0  0  0  0  0  0  0
    7.1970   -0.6250   20.9320 N   0  0  0  0  0  0  0  0  0  0  0  0
    6.4590    0.0570   20.0360 C   0  0  0  0  0  0  0  0  0  0  0  0
    5.2840    0.7540   20.3100 C   0  0  0  0  0  0  0  0  0  0  0  0
    4.6050    1.4680   19.1510 C   0  0  0  0  0  0  0  0  0  0  0  0
    5.2020    1.3810   17.8940 C   0  0  0  0  0  0  0  0  0  0  0  0
    6.3310    0.6890   17.6880 N   0  0  0  0  0  0  0  0  0  0  0  0
    6.9140    0.0610   18.7300 C   0  0  0  0  0  0  0  0  0  0  0  0
   10.5140    0.2900   24.0940 C   0  0  2  0  0  0  0  0  0  0  0  0
    9.4970    0.8530   24.4810 O   0  0  0  0  0  0  0  0  0  0  0  0
   11.4040    1.3000   23.7870 C   0  0  0  0  0  0  0  0  0  0  0  0
   12.2090    0.4150   23.3310 C   0  0  0  0  0  0  0  0  0  0  0  0
   12.2390   -0.8830   23.2030 C   0  0  0  0  0  0  0  0  0  0  0  0
   13.3900   -0.7260   22.6530 C   0  0  0  0  0  0  0  0  0  0  0  0
   13.6380    0.6570   22.6660 N   0  0  0  0  0  0  0  0  0  0  0  0
   12.6860    1.6340   23.2150 C   0  0  0  0  0  0  0  0  0  0  0  0
  1  2  1  0
  2  3  1  0
  3  4  1  0
  4  5  2  0
  4  6  1  0
  6  7  1  1
  7  8  1  0
  8  9  2  0
  8 10  1  0
 10 11  1  0
 11 12  2  0
 12 13  1  0
 13 14  2  0
 14 15  1  0
 11 16  1  0
 15 16  2  0
  6 17  1  0
 17 18  1  6
 17 19  1  0
 19 20  2  0
 20 21  1  0
 21 22  2  0
 22 23  1  0
 19 24  1  0
 23 24  2  0
M  END
