pyridine_urea_1769
     RDKit          3D

 18 18  0  0  0  0  0  0  0  0999 V2000
    7.9490   -0.1600   27.3150 C   0  0  0  0  0  0  0  0  0  0  0  0
    6.7440   -1.0580   27.4290 C   0  0  0  0  0  0  0  0  0  0  0  0
    6.6630   -2.0150   28.4550 C   0  0  0  0  0  0  0  0  0  0  0  0
    6.5430   -1.8070   26.0780 C   0  0  0  0  0  0  0  0  0  0  0  0
    7.2270   -1.2740   24.9890 C   0  0  0  0  0  0  0  0  0  0  0  0
    8.1070   -1.9290   24.4350 O   0  0  0  0  0  0  0  0  0  0  0  0
    9.2130   -1.1050   24.0450 C   0  0  0  0  0  0  0  0  0  0  0  0
    9.9100   -1.6590   22.9630 C   0  0  0  0  0  0  0  0  0  0  0  0
    9.2950   -1.3440   21.6960 N   0  0  0  0  0  0  0  0  0  0  0  0
    8.6170   -0.1750   21.5110 C   0  0  0  0  0  0  0  0  0  0  0  0
    9.2500    1.1000   21.7090 O   0  0  0  0  0  0  0  0  0  0  0  0
    7.2400   -0.4370   21.1080 N   0  0  0  0  0  0  0  0  0  0  0  0
    6.5640    0.1350   20.0750 C   0  0  0  0  0  0  0  0  0  0  0  0
    5.4140    0.8720   20.3550 C   0  0  0  0  0  0  0  0  0  0  0  0
    4.7260    1.4750   19.3080 C   0  0  0  0  0  0  0  0  0  0  0  0
    5.2000    1.3230   18.0190 C   0  0  0  0  0  0  0  0  0  0  0  0
    6.2950    0.6110   17.7250 N   0  0  0  0  0  0  0  0  0  0  0  0
    6.9500    0.0330   18.7530 C   0  0  0  0  0  0  0  0  0  0  0  0
  1  2  1  0
  2  3  1  0
  2  4  1  0
  4  5  1  0
  5  6  1  0
  6  7  1  0
  7  8  1  0
  8  9  1  0
  9 10  1  0
 10 11  2  0
 10 12  1  0
 12 13  1  0
 13 14  2  0
 14 15  1  0
 15 16  2  0
 16 17  1  0
 13 18  1  0
 17 18  2  0
M  END
