pyridine_urea_13715
     RDKit          3D

 25 28  0  0  0  0  0  0  0  0999 V2000
    8.6000    0.8310   21.2020 O   0  0  0  0  0  0  0  0  0  0  0  0
    8.2110   -0.2750   21.5290 C   0  0  0  0  0  0  0  0  0  0  0  0
    7.1050   -0.8660   20.9870 N   0  0  0  0  0  0  0  0  0  0  0  0
    6.3580   -0.1310   20.0600 C   0  0  0  0  0  0  0  0  0  0  0  0
    5.0300    0.5860   20.3680 C   0  0  0  0  0  0  0  0  0  0  0  0
    4.4410    1.3410   19.1780 C   0  0  0  0  0  0  0  0  0  0  0  0
    5.1950    1.3000   17.8890 C   0  0  0  0  0  0  0  0  0  0  0  0
    6.3500    0.6300   17.7320 N   0  0  0  0  0  0  0  0  0  0  0  0
    6.8780   -0.0410   18.7780 C   0  0  0  0  0  0  0  0  0  0  0  0
    8.8770   -1.0000   22.4880 N   0  0  0  0  0  0  0  0  0  0  0  0
   10.0950   -0.3640   22.8990 C   0  0  0  0  0  0  0  0  0  0  0  0
   11.0360   -0.7430   23.7580 C   0  0  0  0  0  0  0  0  0  0  0  0
   12.1830    0.0320   24.0130 C   0  0  0  0  0  0  0  0  0  0  0  0
   12.7580    1.2960   23.5780 C   0  0  0  0  0  0  0  0  0  0  0  0
   13.0520    2.5320   22.9830 N   0  0  0  0  0  0  0  0  0  0  0  0
   13.8700    2.4240   21.9200 N   0  0  0  0  0  0  0  0  0  0  0  0
   13.7310    3.6270   21.2520 C   0  0  0  0  0  0  0  0  0  0  0  0
   14.2990    4.0350   19.9850 C   0  0  0  0  0  0  0  0  0  0  0  0
   15.4390    3.0360   19.9810 C   0  0  0  0  0  0  0  0  0  0  0  0
   15.7010    4.2060   19.4030 C   0  0  0  0  0  0  0  0  0  0  0  0
   12.8560    4.5250   21.8570 C   0  0  0  0  0  0  0  0  0  0  0  0
   12.2550    3.7840   22.8690 C   0  0  0  0  0  0  0  0  0  0  0  0
   11.2650    4.1740   23.4860 O   0  0  0  0  0  0  0  0  0  0  0  0
   11.7270    1.5990   22.7380 N   0  0  0  0  0  0  0  0  0  0  0  0
   10.4970    0.9240   22.3670 C   0  0  0  0  0  0  0  0  0  0  0  0
  1  2  2  0
  2  3  1  0
  3  4  1  0
  4  5  2  0
  5  6  1  0
  6  7  2  0
  7  8  1  0
  4  9  1  0
  8  9  2  0
  2 10  1  0
 10 11  1  0
 11 12  2  0
 12 13  1  0
 13 14  2  0
 14 15  1  0
 15 16  1  0
 16 17  2  0
 17 18  1  0
 18 19  1  0
 18 20  1  0
 19 20  1  0
 17 21  1  0
 15 22  1  0
 21 22  1  0
 22 23  2  0
 14 24  1  0
 11 25  1  0
 24 25  2  0
M  END
