pyridine_urea_2432
     RDKit          3D

 24 26  0  0  0  0  0  0  0  0999 V2000
    8.9670    1.8250   22.8890 C   0  0  0  0  0  0  0  0  0  0  0  0
   10.2490    1.0030   22.7890 C   0  0  0  0  0  0  0  0  0  0  0  0
   10.0750   -0.3520   22.5380 C   0  0  0  0  0  0  0  0  0  0  0  0
    8.9050   -0.9360   22.3540 N   0  0  0  0  0  0  0  0  0  0  0  0
    8.0970   -0.3240   21.4430 C   0  0  0  0  0  0  0  0  0  0  0  0
    8.4190    0.7480   20.9560 O   0  0  0  0  0  0  0  0  0  0  0  0
    6.8650   -1.0180   21.1060 N   0  0  0  0  0  0  0  0  0  0  0  0
    6.2920   -0.2320   20.0720 C   0  0  0  0  0  0  0  0  0  0  0  0
    5.1120    0.4710   20.3360 C   0  0  0  0  0  0  0  0  0  0  0  0
    4.5790    1.2380   19.3180 C   0  0  0  0  0  0  0  0  0  0  0  0
    5.2680    1.2970   17.9800 C   0  0  0  0  0  0  0  0  0  0  0  0
    6.3970    0.6100   17.7530 N   0  0  0  0  0  0  0  0  0  0  0  0
    6.8820   -0.1350   18.7920 C   0  0  0  0  0  0  0  0  0  0  0  0
   11.2790   -1.2250   22.4340 C   0  0  0  0  0  0  0  0  0  0  0  0
   12.5340   -0.6820   22.5720 C   0  0  0  0  0  0  0  0  0  0  0  0
   12.6380    0.6840   22.7980 C   0  0  0  0  0  0  0  0  0  0  0  0
   13.8490    1.1470   22.8870 F   0  0  0  0  0  0  0  0  0  0  0  0
   11.5270    1.5480   22.9130 C   0  0  0  0  0  0  0  0  0  0  0  0
   11.7130    2.9200   23.1190 N   0  0  0  0  0  0  0  0  0  0  0  0
   12.5810    3.7680   22.4550 C   0  0  0  0  0  0  0  0  0  0  0  0
   12.3920    5.0530   22.9090 C   0  0  0  0  0  0  0  0  0  0  0  0
   11.3030    5.0510   23.6630 N   0  0  0  0  0  0  0  0  0  0  0  0
   10.7900    3.7920   23.7110 C   0  0  0  0  0  0  0  0  0  0  0  0
    9.7010    3.5820   24.2100 O   0  0  0  0  0  0  0  0  0  0  0  0
  1  2  1  0
  2  3  2  0
  3  4  1  0
  4  5  1  0
  5  6  2  0
  5  7  1  0
  7  8  1  0
  8  9  2  0
  9 10  1  0
 10 11  2  0
 11 12  1  0
  8 13  1  0
 12 13  2  0
  3 14  1  0
 14 15  2  0
 15 16  1  0
 16 17  1  0
  2 18  1  0
 16 18  2  0
 18 19  1  0
 19 20  1  0
 20 21  1  0
 21 22  1  0
 19 23  1  0
 22 23  1  0
 23 24  2  0
M  END
