pyridine_urea_5495
     RDKit          3D

 18 19  0  0  0  0  0  0  0  0999 V2000
    9.3790   -2.8230   23.5400 C   0  0  0  0  0  0  0  0  0  0  0  0
    9.8140   -1.4530   23.0310 C   0  0  0  0  0  0  0  0  0  0  0  0
   10.3620   -1.7150   21.6240 C   0  0  0  0  0  0  0  0  0  0  0  0
    8.5710   -0.7060   22.8990 N   0  0  0  0  0  0  0  0  0  0  0  0
    8.3260   -0.1210   21.6850 C   0  0  0  0  0  0  0  0  0  0  0  0
    8.9770    0.8240   21.2650 O   0  0  0  0  0  0  0  0  0  0  0  0
    7.2040   -0.7530   21.0290 N   0  0  0  0  0  0  0  0  0  0  0  0
    6.5050   -0.0590   20.0820 C   0  0  0  0  0  0  0  0  0  0  0  0
    5.3370    0.6250   20.4180 C   0  0  0  0  0  0  0  0  0  0  0  0
    4.6250    1.3770   19.3110 C   0  0  0  0  0  0  0  0  0  0  0  0
    5.2330    1.3320   17.9390 C   0  0  0  0  0  0  0  0  0  0  0  0
    6.3650    0.6360   17.7170 N   0  0  0  0  0  0  0  0  0  0  0  0
    6.9510   -0.0220   18.7590 C   0  0  0  0  0  0  0  0  0  0  0  0
   10.8210   -0.8450   23.7210 C   0  0  0  0  0  0  0  0  0  0  0  0
   12.0020   -1.7730   23.9140 C   0  0  0  0  0  0  0  0  0  0  0  0
   13.1030   -0.9280   23.3130 C   0  0  0  0  0  0  0  0  0  0  0  0
   12.6360    0.3530   23.0720 C   0  0  0  0  0  0  0  0  0  0  0  0
   11.2500    0.2890   23.0430 C   0  0  0  0  0  0  0  0  0  0  0  0
  1  2  1  0
  2  3  1  0
  2  4  1  0
  4  5  1  0
  5  6  2  0
  5  7  1  0
  7  8  1  0
  8  9  2  0
  9 10  1  0
 10 11  2  0
 11 12  1  0
  8 13  1  0
 12 13  2  0
  2 14  1  0
 14 15  1  0
 15 16  1  0
 16 17  1  0
 14 18  1  0
 17 18  1  0
M  END
