pyridine_urea_7991
     RDKit          3D

 25 26  0  0  0  0  0  0  0  0999 V2000
   11.8050   -2.2340   21.9780 C   0  0  0  0  0  0  0  0  0  0  0  0
   11.8550   -1.2410   23.1310 C   0  0  0  0  0  0  0  0  0  0  0  0
   11.9740   -1.9040   24.3700 C   0  0  0  0  0  0  0  0  0  0  0  0
   13.1840   -0.5000   22.9470 C   0  0  0  0  0  0  0  0  0  0  0  0
   10.6330   -0.2300   23.2000 C   0  0  1  0  0  0  0  0  0  0  0  0
    9.4370   -0.6480   22.3900 N   0  0  0  0  0  0  0  0  0  0  0  0
    8.6770    0.1350   21.5250 C   0  0  0  0  0  0  0  0  0  0  0  0
    9.0590    1.2860   21.2590 O   0  0  0  0  0  0  0  0  0  0  0  0
    7.4520   -0.5260   21.0250 N   0  0  0  0  0  0  0  0  0  0  0  0
    6.6400    0.0860   20.0930 C   0  0  0  0  0  0  0  0  0  0  0  0
    5.3750    0.8830   20.3910 C   0  0  0  0  0  0  0  0  0  0  0  0
    4.6790    1.4520   19.3210 C   0  0  0  0  0  0  0  0  0  0  0  0
    5.1660    1.2660   18.0330 C   0  0  0  0  0  0  0  0  0  0  0  0
    6.2760    0.5580   17.7410 N   0  0  0  0  0  0  0  0  0  0  0  0
    6.9710   -0.0040   18.7560 C   0  0  0  0  0  0  0  0  0  0  0  0
   10.2480    0.3050   24.6040 C   0  0  0  0  0  0  0  0  0  0  0  0
   11.1980    1.0420   23.9720 C   0  0  0  0  0  0  0  0  0  0  0  0
   11.5230    0.4740   22.7390 C   0  0  0  0  0  0  0  0  0  0  0  0
   10.8000   -0.7540   22.3780 C   0  0  0  0  0  0  0  0  0  0  0  0
    9.8260   -1.3120   23.2740 C   0  0  0  0  0  0  0  0  0  0  0  0
    8.8890   -2.3460   23.5190 C   0  0  0  0  0  0  0  0  0  0  0  0
    7.8340   -2.1120   24.3170 F   0  0  0  0  0  0  0  0  0  0  0  0
    9.5190   -3.4290   24.0470 F   0  0  0  0  0  0  0  0  0  0  0  0
    8.3170   -2.8160   22.3760 F   0  0  0  0  0  0  0  0  0  0  0  0
    9.4660   -0.8070   24.4900 C   0  0  0  0  0  0  0  0  0  0  0  0
  2  1  1  0
  2  3  1  0
  2  4  1  0
  2  5  1  0
  5  6  1  1
  6  7  1  0
  7  8  2  0
  7  9  1  0
  9 10  1  0
 10 11  2  0
 11 12  1  0
 12 13  2  0
 13 14  1  0
 10 15  1  0
 14 15  2  0
  5 16  1  0
 16 17  2  0
 17 18  1  0
 18 19  2  0
 19 20  1  0
 20 21  1  0
 21 22  1  0
 21 23  1  0
 21 24  1  0
 16 25  1  0
 20 25  2  0
M  END
