pyridine_urea_11018
     RDKit          3D

 19 20  0  0  0  0  0  0  0  0999 V2000
   13.7620   -2.2390   25.5700 C   0  0  0  0  0  0  0  0  0  0  0  0
   12.9320   -1.6700   24.4800 C   0  0  0  0  0  0  0  0  0  0  0  0
   13.3260   -1.9710   23.2650 C   0  0  0  0  0  0  0  0  0  0  0  0
   12.5520   -1.4780   22.3570 C   0  0  0  0  0  0  0  0  0  0  0  0
   11.4820   -0.7670   22.5250 N   0  0  0  0  0  0  0  0  0  0  0  0
   10.8690   -0.3270   23.7290 C   0  0  0  0  0  0  0  0  0  0  0  0
   10.1360    0.0910   22.5380 C   0  0  1  0  0  0  0  0  0  0  0  0
   10.2380   -1.1990   21.7290 C   0  0  0  0  0  0  0  0  0  0  0  0
    8.8220    0.0940   22.8730 N   0  0  0  0  0  0  0  0  0  0  0  0
    8.2930    0.5350   21.6860 C   0  0  0  0  0  0  0  0  0  0  0  0
    8.7100    1.5250   21.0830 O   0  0  0  0  0  0  0  0  0  0  0  0
    7.2560   -0.2200   21.1940 N   0  0  0  0  0  0  0  0  0  0  0  0
    6.5490    0.2340   20.0830 C   0  0  0  0  0  0  0  0  0  0  0  0
    5.3800    0.9620   20.2840 C   0  0  0  0  0  0  0  0  0  0  0  0
    4.6480    1.4650   19.2220 C   0  0  0  0  0  0  0  0  0  0  0  0
    5.1290    1.2120   17.9560 C   0  0  0  0  0  0  0  0  0  0  0  0
    6.2410    0.5050   17.7160 N   0  0  0  0  0  0  0  0  0  0  0  0
    6.9290    0.0290   18.7730 C   0  0  0  0  0  0  0  0  0  0  0  0
   11.7890   -0.8870   24.6720 C   0  0  0  0  0  0  0  0  0  0  0  0
  1  2  1  0
  2  3  2  0
  3  4  1  0
  4  5  2  0
  5  6  1  0
  6  7  1  0
  7  8  1  6
  7  9  1  0
  9 10  1  0
 10 11  2  0
 10 12  1  0
 12 13  1  0
 13 14  2  0
 14 15  1  0
 15 16  2  0
 16 17  1  0
 13 18  1  0
 17 18  2  0
  2 19  1  0
  6 19  2  0
M  END
