pyridine_urea_4485
     RDKit          3D

 23 25  0  0  0  0  0  0  0  0999 V2000
    9.0270    0.1810   21.6570 O   0  0  0  0  0  0  0  0  0  0  0  0
    7.8090    0.0960   21.7270 C   0  0  0  0  0  0  0  0  0  0  0  0
    7.0240    0.8690   22.5680 N   0  0  0  0  0  0  0  0  0  0  0  0
    6.5210    0.3540   23.8310 C   0  0  0  0  0  0  0  0  0  0  0  0
    7.7410   -0.2310   24.4220 C   0  0  0  0  0  0  0  0  0  0  0  0
    7.9840   -0.2860   25.8080 N   0  0  0  0  0  0  0  0  0  0  0  0
    9.2790   -0.8820   25.9600 O   0  0  0  0  0  0  0  0  0  0  0  0
    9.6930   -1.1400   24.6290 C   0  0  0  0  0  0  0  0  0  0  0  0
   10.9060   -1.7070   23.9610 C   0  0  0  0  0  0  0  0  0  0  0  0
   12.2880   -2.0220   24.5240 C   0  0  0  0  0  0  0  0  0  0  0  0
   13.2530   -2.5660   23.4660 C   0  0  0  0  0  0  0  0  0  0  0  0
   12.7460   -2.6960   22.1620 C   0  0  0  0  0  0  0  0  0  0  0  0
   13.5670   -3.1710   21.2250 F   0  0  0  0  0  0  0  0  0  0  0  0
   11.5000   -2.3910   21.7690 C   0  0  0  0  0  0  0  0  0  0  0  0
   10.5980   -1.9110   22.6280 C   0  0  0  0  0  0  0  0  0  0  0  0
    8.7410   -0.7420   23.7430 N   0  0  0  0  0  0  0  0  0  0  0  0
    6.9850   -0.6940   20.9810 N   0  0  0  0  0  0  0  0  0  0  0  0
    6.3810   -0.0410   19.9930 C   0  0  0  0  0  0  0  0  0  0  0  0
    5.1890    0.6530   20.2500 C   0  0  0  0  0  0  0  0  0  0  0  0
    4.5650    1.3920   19.1230 C   0  0  0  0  0  0  0  0  0  0  0  0
    5.1470    1.3920   17.8700 C   0  0  0  0  0  0  0  0  0  0  0  0
    6.3210    0.7000   17.6080 N   0  0  0  0  0  0  0  0  0  0  0  0
    6.8980   -0.0060   18.7140 C   0  0  0  0  0  0  0  0  0  0  0  0
  1  2  2  0
  2  3  1  0
  3  4  1  0
  4  5  1  0
  5  6  2  0
  6  7  1  0
  7  8  1  0
  8  9  1  0
  9 10  2  0
 10 11  1  0
 11 12  2  0
 12 13  1  0
 12 14  1  0
  9 15  1  0
 14 15  2  0
  5 16  1  0
  8 16  2  0
  2 17  1  0
 17 18  1  0
 18 19  2  0
 19 20  1  0
 20 21  2  0
 21 22  1  0
 18 23  1  0
 22 23  2  0
M  END
