pyridine_urea_4490
     RDKit          3D

 23 24  0  0  0  0  0  0  0  0999 V2000
   12.8660   -2.7320   24.8780 C   0  0  0  0  0  0  0  0  0  0  0  0
   12.9880   -1.2250   25.1830 C   0  0  0  0  0  0  0  0  0  0  0  0
   11.6890   -0.5910   25.2760 O   0  0  0  0  0  0  0  0  0  0  0  0
   11.4590    0.4830   24.3330 C   0  0  0  0  0  0  0  0  0  0  0  0
   12.3490    1.4710   24.0460 O   0  0  0  0  0  0  0  0  0  0  0  0
   10.1540    0.4310   23.6340 C   0  0  0  0  0  0  0  0  0  0  0  0
   10.0050   -1.0030   23.2010 C   0  0  1  0  0  0  0  0  0  0  0  0
    9.2180   -1.1670   21.9950 N   0  0  0  0  0  0  0  0  0  0  0  0
    8.4220   -0.1600   21.4880 C   0  0  0  0  0  0  0  0  0  0  0  0
    8.8420    0.9920   21.4110 O   0  0  0  0  0  0  0  0  0  0  0  0
    7.1800   -0.5820   21.0850 N   0  0  0  0  0  0  0  0  0  0  0  0
    6.4900    0.0430   20.0380 C   0  0  0  0  0  0  0  0  0  0  0  0
    5.3170    0.7560   20.3100 C   0  0  0  0  0  0  0  0  0  0  0  0
    4.6400    1.3940   19.2700 C   0  0  0  0  0  0  0  0  0  0  0  0
    5.1600    1.2950   17.9970 C   0  0  0  0  0  0  0  0  0  0  0  0
    6.2770    0.6110   17.7140 N   0  0  0  0  0  0  0  0  0  0  0  0
    6.9120    0.0030   18.7290 C   0  0  0  0  0  0  0  0  0  0  0  0
   11.2360   -1.6330   23.0250 C   0  0  0  0  0  0  0  0  0  0  0  0
   11.5160   -2.0440   21.6630 C   0  0  0  0  0  0  0  0  0  0  0  0
   12.8700   -2.2460   21.4380 C   0  0  0  0  0  0  0  0  0  0  0  0
   13.4520   -0.9610   21.5530 O   0  0  0  0  0  0  0  0  0  0  0  0
   12.8150   -0.1890   22.5770 C   0  0  0  0  0  0  0  0  0  0  0  0
   12.3250   -0.9510   23.6240 C   0  0  0  0  0  0  0  0  0  0  0  0
  1  2  1  0
  2  3  1  0
  3  4  1  0
  4  5  2  0
  4  6  1  0
  7  6  1  6
  7  8  1  0
  8  9  1  0
  9 10  2  0
  9 11  1  0
 11 12  1  0
 12 13  2  0
 13 14  1  0
 14 15  2  0
 15 16  1  0
 12 17  1  0
 16 17  2  0
  7 18  1  0
 18 19  1  0
 19 20  1  0
 20 21  1  0
 21 22  1  0
 18 23  1  0
 22 23  1  0
M  END
