pyridine_urea_2407
     RDKit          3D

 24 26  0  0  0  0  0  0  0  0999 V2000
    8.5960    1.2490   21.0090 O   0  0  0  0  0  0  0  0  0  0  0  0
    8.0140    0.2770   21.5100 C   0  0  0  0  0  0  0  0  0  0  0  0
    8.3150   -0.2640   22.7000 N   0  0  0  0  0  0  0  0  0  0  0  0
    9.6410   -0.3420   22.9850 C   0  0  0  0  0  0  0  0  0  0  0  0
   10.3550   -0.8930   21.9490 C   0  0  0  0  0  0  0  0  0  0  0  0
   11.6840   -1.0400   22.0590 C   0  0  0  0  0  0  0  0  0  0  0  0
   12.2430   -0.6290   23.1880 C   0  0  0  0  0  0  0  0  0  0  0  0
   13.5050   -0.8240   23.2370 C   0  0  0  0  0  0  0  0  0  0  0  0
   13.5230   -2.1900   23.2860 C   0  0  1  0  0  0  0  0  0  0  0  0
   13.9720   -2.6830   24.3230 N   0  0  0  0  0  0  0  0  0  0  0  0
   13.5780   -3.3140   25.3680 C   0  0  0  0  0  0  0  0  0  0  0  0
   14.2440   -3.8710   26.4850 O   0  0  0  0  0  0  0  0  0  0  0  0
   12.3140   -3.2350   24.9530 N   0  0  0  0  0  0  0  0  0  0  0  0
   12.2630   -2.7650   23.6390 C   0  0  0  0  0  0  0  0  0  0  0  0
   11.1010   -2.8940   22.7980 O   0  0  0  0  0  0  0  0  0  0  0  0
   11.5830   -0.0720   24.2510 C   0  0  0  0  0  0  0  0  0  0  0  0
   10.2340    0.0790   24.1540 C   0  0  0  0  0  0  0  0  0  0  0  0
    6.9730   -0.3980   20.9360 N   0  0  0  0  0  0  0  0  0  0  0  0
    6.3020    0.1980   19.9620 C   0  0  0  0  0  0  0  0  0  0  0  0
    5.1040    0.8780   20.0840 C   0  0  0  0  0  0  0  0  0  0  0  0
    4.4950    1.4950   19.0180 C   0  0  0  0  0  0  0  0  0  0  0  0
    5.1460    1.4020   17.7940 C   0  0  0  0  0  0  0  0  0  0  0  0
    6.3090    0.7380   17.6300 N   0  0  0  0  0  0  0  0  0  0  0  0
    6.8530    0.1570   18.7050 C   0  0  0  0  0  0  0  0  0  0  0  0
  1  2  2  0
  2  3  1  0
  3  4  1  0
  4  5  2  0
  5  6  1  0
  6  7  2  0
  7  8  1  0
  9  8  1  1
  9 10  1  0
 10 11  1  0
 11 12  2  0
 11 13  1  0
  9 14  1  0
 13 14  1  0
 14 15  2  0
  7 16  1  0
  4 17  1  0
 16 17  2  0
  2 18  1  0
 18 19  1  0
 19 20  2  0
 20 21  1  0
 21 22  2  0
 22 23  1  0
 19 24  1  0
 23 24  2  0
M  END
