pyridine_urea_12753
     RDKit          3D

 20 21  0  0  0  0  0  0  0  0999 V2000
    7.9520    0.0590   26.7080 C   0  0  0  0  0  0  0  0  0  0  0  0
    8.6750   -0.1770   25.3600 C   0  0  0  0  0  0  0  0  0  0  0  0
   10.1670   -0.3800   25.6390 C   0  0  0  0  0  0  0  0  0  0  0  0
    8.5020    1.0240   24.4020 C   0  0  0  0  0  0  0  0  0  0  0  0
    9.7250    1.5310   23.9650 C   0  0  0  0  0  0  0  0  0  0  0  0
   10.5710    0.7480   23.1570 C   0  0  1  0  0  0  0  0  0  0  0  0
   11.9390    0.8630   23.3800 C   0  0  0  0  0  0  0  0  0  0  0  0
   12.5840   -0.2850   22.9410 C   0  0  0  0  0  0  0  0  0  0  0  0
   11.5650   -1.1930   22.6770 C   0  0  0  0  0  0  0  0  0  0  0  0
   10.3200   -0.6310   23.0350 C   0  0  2  0  0  0  0  0  0  0  0  0
    9.3320   -0.9270   21.9940 N   0  0  0  0  0  0  0  0  0  0  0  0
    8.5470    0.0520   21.4040 C   0  0  0  0  0  0  0  0  0  0  0  0
    8.9280    1.2100   21.1990 O   0  0  0  0  0  0  0  0  0  0  0  0
    7.3070   -0.4450   21.0550 N   0  0  0  0  0  0  0  0  0  0  0  0
    6.5480    0.1320   20.0280 C   0  0  0  0  0  0  0  0  0  0  0  0
    5.3910    0.8310   20.3640 C   0  0  0  0  0  0  0  0  0  0  0  0
    4.6470    1.4300   19.2940 C   0  0  0  0  0  0  0  0  0  0  0  0
    5.1480    1.2550   18.0320 C   0  0  0  0  0  0  0  0  0  0  0  0
    6.2420    0.5830   17.6960 N   0  0  0  0  0  0  0  0  0  0  0  0
    6.9190    0.0330   18.7090 C   0  0  0  0  0  0  0  0  0  0  0  0
  1  2  1  0
  2  3  1  0
  2  4  1  0
  4  5  1  0
  6  5  1  1
  6  7  1  0
  7  8  1  0
  8  9  1  0
  6 10  1  0
  9 10  1  0
 10 11  1  6
 11 12  1  0
 12 13  2  0
 12 14  1  0
 14 15  1  0
 15 16  2  0
 16 17  1  0
 17 18  2  0
 18 19  1  0
 15 20  1  0
 19 20  2  0
M  END
