pyridine_urea_5499
     RDKit          3D

 18 19  0  0  0  0  0  0  0  0999 V2000
   11.5140    0.6000   23.8410 C   0  0  0  0  0  0  0  0  0  0  0  0
   12.9140    0.4460   23.2940 C   0  0  0  0  0  0  0  0  0  0  0  0
   12.6020   -0.7350   22.5070 C   0  0  0  0  0  0  0  0  0  0  0  0
   11.3050   -0.9400   22.7360 C   0  0  0  0  0  0  0  0  0  0  0  0
   10.0920   -0.3870   23.4990 C   0  0  0  0  0  0  0  0  0  0  0  0
    8.9780   -0.6810   22.7340 N   0  0  0  0  0  0  0  0  0  0  0  0
    8.4600    0.0720   21.6680 C   0  0  0  0  0  0  0  0  0  0  0  0
    9.0290    1.1180   21.3130 O   0  0  0  0  0  0  0  0  0  0  0  0
    7.2870   -0.4810   21.1340 N   0  0  0  0  0  0  0  0  0  0  0  0
    6.5800    0.1160   20.0050 C   0  0  0  0  0  0  0  0  0  0  0  0
    5.3250    0.9010   20.4140 C   0  0  0  0  0  0  0  0  0  0  0  0
    4.5770    1.5680   19.2720 C   0  0  0  0  0  0  0  0  0  0  0  0
    5.1440    1.3840   17.8880 C   0  0  0  0  0  0  0  0  0  0  0  0
    6.2680    0.6440   17.6580 N   0  0  0  0  0  0  0  0  0  0  0  0
    6.9660    0.0250   18.6850 C   0  0  0  0  0  0  0  0  0  0  0  0
   11.4930   -1.9360   21.9480 C   0  0  0  0  0  0  0  0  0  0  0  0
   12.9000   -1.6720   21.7260 C   0  0  0  0  0  0  0  0  0  0  0  0
   13.6300   -0.5340   22.3450 N   0  0  0  0  0  0  0  0  0  0  0  0
  1  2  1  0
  2  3  2  0
  3  4  1  0
  4  5  1  0
  5  6  1  0
  6  7  1  0
  7  8  2  0
  7  9  1  0
  9 10  1  0
 10 11  2  0
 11 12  1  0
 12 13  2  0
 13 14  1  0
 10 15  1  0
 14 15  2  0
  4 16  2  0
 16 17  1  0
  2 18  1  0
 17 18  2  0
M  END
