pyridine_urea_3749
     RDKit          3D

 20 22  0  0  0  0  0  0  0  0999 V2000
    8.9440    1.1070   21.2100 O   0  0  0  0  0  0  0  0  0  0  0  0
    8.4170    0.0250   21.5070 C   0  0  0  0  0  0  0  0  0  0  0  0
    8.9240   -0.8120   22.4760 N   0  0  0  0  0  0  0  0  0  0  0  0
   10.2900   -1.2610   22.3480 C   0  0  0  0  0  0  0  0  0  0  0  0
   11.1730   -0.6780   23.4260 C   0  0  1  0  0  0  0  0  0  0  0  0
   12.5840   -0.4790   22.9950 C   0  0  0  0  0  0  0  0  0  0  0  0
   12.2730    0.8120   23.6360 C   0  0  1  0  0  0  0  0  0  0  0  0
   12.4970    2.0190   22.9350 N   0  0  0  0  0  0  0  0  0  0  0  0
   13.5410    2.3820   22.1620 C   0  0  0  0  0  0  0  0  0  0  0  0
   13.3210    3.7390   21.6590 C   0  0  0  0  0  0  0  0  0  0  0  0
   12.1530    4.1800   22.1270 N   0  0  0  0  0  0  0  0  0  0  0  0
   11.6510    3.1240   22.9070 N   0  0  0  0  0  0  0  0  0  0  0  0
   10.9000    0.6430   23.9290 C   0  0  0  0  0  0  0  0  0  0  0  0
    7.2710   -0.5060   20.9670 N   0  0  0  0  0  0  0  0  0  0  0  0
    6.5170    0.1130   20.0460 C   0  0  0  0  0  0  0  0  0  0  0  0
    5.3420    0.8020   20.2800 C   0  0  0  0  0  0  0  0  0  0  0  0
    4.6710    1.4080   19.2360 C   0  0  0  0  0  0  0  0  0  0  0  0
    5.1820    1.3210   17.9570 C   0  0  0  0  0  0  0  0  0  0  0  0
    6.3140    0.6520   17.6910 N   0  0  0  0  0  0  0  0  0  0  0  0
    6.9480    0.0680   18.7340 C   0  0  0  0  0  0  0  0  0  0  0  0
  1  2  2  0
  2  3  1  0
  3  4  1  0
  5  4  1  6
  5  6  1  0
  6  7  1  0
  7  8  1  6
  8  9  1  0
  9 10  2  0
 10 11  1  0
  8 12  1  0
 11 12  2  0
  5 13  1  0
  7 13  1  0
  2 14  1  0
 14 15  1  0
 15 16  2  0
 16 17  1  0
 17 18  2  0
 18 19  1  0
 15 20  1  0
 19 20  2  0
M  END
