
     RDKit          3D

 20 21  0  0  0  0  0  0  0  0999 V2000
    8.2400   -3.4080   18.5470 S   0  0  0  0  0  0  0  0  0  0  0  0
    6.7040   -5.0250   21.8270 N   0  0  0  0  0  0  0  0  0  0  0  0
    7.9320   -3.5620   20.3230 C   0  0  0  0  0  0  0  0  0  0  0  0
    5.8920   -4.6320   19.7600 O   0  0  0  0  0  0  0  0  0  0  0  0
    0.7090   -1.2750   26.2360 Cl  0  0  0  0  0  0  0  0  0  0  0  0
    6.7550   -4.4540   20.6080 C   0  0  0  0  0  0  0  0  0  0  0  0
    5.9110   -5.3910   24.4830 N   0  0  0  0  0  0  0  0  0  0  0  0
    6.4050   -5.0150   26.8560 O   0  0  0  0  0  0  0  0  0  0  0  0
    5.7790   -6.1030   22.1810 C   0  0  0  0  0  0  0  0  0  0  0  0
    4.7700   -6.7480   26.1800 O   0  0  0  0  0  0  0  0  0  0  0  0
    4.9750   -5.7260   23.3980 C   0  0  0  0  0  0  0  0  0  0  0  0
    6.7400   -4.2350   24.1260 C   0  0  0  0  0  0  0  0  0  0  0  0
    7.5710   -4.6210   22.9370 C   0  0  0  0  0  0  0  0  0  0  0  0
    4.0280   -4.2690   26.0950 C   0  0  0  0  0  0  0  0  0  0  0  0
    4.3110   -2.9560   26.4060 C   0  0  0  0  0  0  0  0  0  0  0  0
    3.2870   -2.0290   26.4530 C   0  0  0  0  0  0  0  0  0  0  0  0
    2.0010   -2.4380   26.1770 C   0  0  0  0  0  0  0  0  0  0  0  0
    1.7120   -3.7440   25.8590 C   0  0  0  0  0  0  0  0  0  0  0  0
    2.7390   -4.6670   25.8110 C   0  0  0  0  0  0  0  0  0  0  0  0
    5.3370   -5.4480   26.0130 S   0  0  2  0  0  0  0  0  0  0  0  0
  1  3  1  0
  2  6  1  0
  2  9  1  0
  2 13  1  0
  3  6  1  0
  4  6  2  0
  5 17  1  0
  7 11  1  0
  7 12  1  0
  7 20  1  0
  8 20  2  0
  9 11  1  0
 10 20  2  0
 12 13  1  0
 14 15  2  0
 14 19  1  0
 20 14  1  6
 15 16  1  0
 16 17  2  0
 17 18  1  0
 18 19  2  0
M  END
