
     RDKit          3D

 15 16  0  0  0  0  0  0  0  0999 V2000
   25.9960  -10.3360    4.1600 C   0  0  0  0  0  0  0  0  0  0  0  0
   26.3490  -10.2540    5.6510 C   0  0  0  0  0  0  0  0  0  0  0  0
   27.2650  -11.0650    6.0370 N   0  0  0  0  0  0  0  0  0  0  0  0
   27.8610  -10.7420    7.2600 C   0  0  0  0  0  0  0  0  0  0  0  0
   27.6580  -11.7280    8.3980 C   0  0  0  0  0  0  0  0  0  0  0  0
   27.8520  -13.0140    7.9640 O   0  0  0  0  0  0  0  0  0  0  0  0
   26.9780  -13.3480    6.9410 C   0  0  0  0  0  0  0  0  0  0  0  0
   27.0730  -12.4170    5.7370 C   0  0  0  0  0  0  0  0  0  0  0  0
   24.2440  -10.7970    3.9930 S   0  0  0  0  0  0  0  0  0  0  0  0
   23.3310   -9.4350    4.7530 C   0  0  0  0  0  0  0  0  0  0  0  0
   23.6050   -8.1410    4.3510 C   0  0  0  0  0  0  0  0  0  0  0  0
   22.9300   -7.0890    4.9260 C   0  0  0  0  0  0  0  0  0  0  0  0
   21.9780   -7.3120    5.9080 C   0  0  0  0  0  0  0  0  0  0  0  0
   21.7110   -8.6060    6.3130 C   0  0  0  0  0  0  0  0  0  0  0  0
   22.3920   -9.6730    5.7370 C   0  0  0  0  0  0  0  0  0  0  0  0
  1  2  1  0
  1  9  1  0
  2  3  1  0
  3  4  1  0
  3  8  1  0
  4  5  1  0
  5  6  1  0
  6  7  1  0
  7  8  1  0
  9 10  1  0
 10 11  2  0
 10 15  1  0
 11 12  1  0
 12 13  2  0
 13 14  1  0
 14 15  2  0
M  END
