
     RDKit          3D

 18 20  0  0  0  0  0  0  0  0999 V2000
   22.6250   17.8150    2.8220 O   0  0  0  0  0  0  0  0  0  0  0  0
   21.9340   18.3190    3.9300 C   0  0  0  0  0  0  0  0  0  0  0  0
   21.0640   19.3910    3.7920 C   0  0  0  0  0  0  0  0  0  0  0  0
   20.3960   19.8750    4.9050 C   0  0  0  0  0  0  0  0  0  0  0  0
   20.5770   19.2860    6.1520 C   0  0  0  0  0  0  0  0  0  0  0  0
   21.4440   18.2080    6.2900 C   0  0  0  0  0  0  0  0  0  0  0  0
   22.1160   17.7280    5.1710 C   0  0  0  0  0  0  0  0  0  0  0  0
   23.0800   16.5570    5.2770 C   0  0  0  0  0  0  0  0  0  0  0  0
   22.6590   15.4640    4.4200 N   0  0  0  0  0  0  0  0  0  0  0  0
   23.5680   14.3510    4.2150 C   0  0  0  0  0  0  0  0  0  0  0  0
   24.7080   14.1770    4.8830 N   0  0  0  0  0  0  0  0  0  0  0  0
   25.3080   13.0370    4.4400 C   0  0  0  0  0  0  0  0  0  0  0  0
   26.5260   12.3790    4.7950 C   0  0  0  0  0  0  0  0  0  0  0  0
   26.8850   11.1950    4.1560 C   0  0  0  0  0  0  0  0  0  0  0  0
   26.0620   10.6550    3.1630 C   0  0  0  0  0  0  0  0  0  0  0  0
   24.8780   11.3000    2.8170 C   0  0  0  0  0  0  0  0  0  0  0  0
   24.5030   12.5070    3.4760 C   0  0  0  0  0  0  0  0  0  0  0  0
   23.4360   13.3390    3.3580 N   0  0  0  0  0  0  0  0  0  0  0  0
  1  2  1  0
  2  3  2  0
  2  7  1  0
  3  4  1  0
  4  5  2  0
  5  6  1  0
  6  7  2  0
  7  8  1  0
  8  9  1  0
  9 10  1  0
 10 11  2  0
 10 18  1  0
 11 12  1  0
 12 13  2  0
 12 17  1  0
 13 14  1  0
 14 15  2  0
 15 16  1  0
 16 17  2  0
 17 18  1  0
M  END
