
     RDKit          3D

 11 11  0  0  0  0  0  0  0  0999 V2000
    8.4100    0.0120   27.4140 C   0  0  0  0  0  0  0  0  0  0  0  0
    8.9670   -0.5390   26.1210 C   0  0  0  0  0  0  0  0  0  0  0  0
   10.1000    0.2670   25.7050 N   0  0  0  0  0  0  0  0  0  0  0  0
   10.9270   -0.1760   24.6090 C   0  0  0  0  0  0  0  0  0  0  0  0
   10.5760   -1.3110   23.8900 C   0  0  0  0  0  0  0  0  0  0  0  0
   11.3650   -1.7260   22.8360 C   0  0  0  0  0  0  0  0  0  0  0  0
   12.4940   -0.9910   22.5240 C   0  0  0  0  0  0  0  0  0  0  0  0
   13.3880   -1.4320   21.3740 C   0  0  0  0  0  0  0  0  0  0  0  0
   14.0700   -1.7370   20.5180 N   0  0  0  0  0  0  0  0  0  0  0  0
   12.7880    0.1370   23.2890 C   0  0  0  0  0  0  0  0  0  0  0  0
   12.0070    0.5160   24.2990 N   0  0  0  0  0  0  0  0  0  0  0  0
  1  2  1  0
  2  3  1  0
  3  4  1  0
  4  5  2  0
  4 11  1  0
  5  6  1  0
  6  7  2  0
  7  8  1  0
  7 10  1  0
  8  9  3  0
 10 11  2  0
M  END
