
     RDKit          3D

 19 20  0  0  0  0  0  0  0  0999 V2000
    8.2080   -3.4170   18.7110 S   0  0  0  0  0  0  0  0  0  0  0  0
    6.8390   -4.2810   21.9320 N   0  0  0  0  0  0  0  0  0  0  0  0
    7.7630   -4.7380   19.8540 C   0  0  0  0  0  0  0  0  0  0  0  0
    5.4470   -4.2210   20.1340 O   0  0  0  0  0  0  0  0  0  0  0  0
    6.5430   -4.3820   20.6380 C   0  0  0  0  0  0  0  0  0  0  0  0
    2.0540   -6.6370   23.9320 N   0  0  0  0  0  0  0  0  0  0  0  0
    3.7580   -7.8270   24.8100 O   0  0  0  0  0  0  0  0  0  0  0  0
    5.9620   -4.4210   23.0180 C   0  0  0  0  0  0  0  0  0  0  0  0
    5.9480   -3.4060   23.9680 C   0  0  0  0  0  0  0  0  0  0  0  0
    5.0850   -3.4920   25.0370 C   0  0  0  0  0  0  0  0  0  0  0  0
    4.2380   -4.5800   25.1660 C   0  0  0  0  0  0  0  0  0  0  0  0
    4.2470   -5.5990   24.2220 C   0  0  0  0  0  0  0  0  0  0  0  0
    5.1080   -5.5140   23.1270 C   0  0  0  0  0  0  0  0  0  0  0  0
    3.3220   -6.7740   24.3490 C   0  0  0  0  0  0  0  0  0  0  0  0
    1.5430   -5.4370   23.2560 C   0  0  0  0  0  0  0  0  0  0  0  0
    0.4480   -4.7880   24.0720 C   0  0  0  0  0  0  0  0  0  0  0  0
   -0.0970   -7.2620   24.9380 C   0  0  0  0  0  0  0  0  0  0  0  0
    1.0530   -7.7020   24.0600 C   0  0  0  0  0  0  0  0  0  0  0  0
   -0.9870   -5.8550   24.2590 S   0  0  0  0  0  0  0  0  0  0  0  0
  1  3  1  0
  2  5  1  0
  2  8  1  0
  3  5  1  0
  4  5  2  0
  6 14  1  0
  6 15  1  0
  6 18  1  0
  7 14  2  0
  8  9  2  0
  8 13  1  0
  9 10  1  0
 10 11  2  0
 11 12  1  0
 12 13  2  0
 12 14  1  0
 15 16  1  0
 16 19  1  0
 17 18  1  0
 17 19  1  0
M  END
