
     RDKit          3D

 19 20  0  0  0  0  0  0  0  0999 V2000
    8.2370   -3.4200   18.7760 S   0  0  0  0  0  0  0  0  0  0  0  0
    5.8810   -4.7140   20.1040 O   0  0  0  0  0  0  0  0  0  0  0  0
    6.6630   -4.3190   20.9610 C   0  0  0  0  0  0  0  0  0  0  0  0
    7.9610   -3.6510   20.5660 C   0  0  0  0  0  0  0  0  0  0  0  0
    6.4040   -4.4760   22.3060 N   0  0  0  0  0  0  0  0  0  0  0  0
    7.4770   -4.5020   23.2590 C   0  0  0  0  0  0  0  0  0  0  0  0
    7.9420   -3.3190   23.8270 C   0  0  0  0  0  0  0  0  0  0  0  0
    8.9700   -3.3560   24.7570 C   0  0  0  0  0  0  0  0  0  0  0  0
    9.5040   -4.5690   25.0930 C   0  0  0  0  0  0  0  0  0  0  0  0
    9.0720   -5.7470   24.5570 C   0  0  0  0  0  0  0  0  0  0  0  0
    8.0420   -5.7160   23.6320 C   0  0  0  0  0  0  0  0  0  0  0  0
    5.0340   -4.6760   22.7830 C   0  0  2  0  0  0  0  0  0  0  0  0
    4.8770   -4.3100   24.2590 C   0  0  0  0  0  0  0  0  0  0  0  0
    4.1200   -5.1430   24.9680 C   0  0  0  0  0  0  0  0  0  0  0  0
    3.9690   -6.6990   24.1900 S   0  0  2  0  0  0  0  0  0  0  0  0
    2.5850   -7.0680   24.0620 O   0  0  0  0  0  0  0  0  0  0  0  0
    4.8510   -7.6560   24.8040 O   0  0  0  0  0  0  0  0  0  0  0  0
    4.6230   -6.1500   22.6270 C   0  0  0  0  0  0  0  0  0  0  0  0
   10.5190   -4.6060   25.9970 F   0  0  0  0  0  0  0  0  0  0  0  0
  1  4  1  0
  2  3  2  0
  3  4  1  0
  3  5  1  0
  5  6  1  0
 12  5  1  1
  6  7  2  0
  6 11  1  0
  7  8  1  0
  8  9  2  0
  9 10  1  0
  9 19  1  0
 10 11  2  0
 12 13  1  0
 12 18  1  0
 13 14  2  0
 15 14  1  1
 15 16  2  0
 15 17  2  0
 15 18  1  0
M  END
