
     RDKit          3D

 17 18  0  0  0  0  0  0  0  0999 V2000
    8.6110   -3.3880   18.3240 S   0  0  0  0  0  0  0  0  0  0  0  0
    6.6760   -3.6500   21.8080 N   0  0  0  0  0  0  0  0  0  0  0  0
    8.2670   -3.2770   20.0990 C   0  0  0  0  0  0  0  0  0  0  0  0
    6.0460   -4.0470   19.6510 O   0  0  0  0  0  0  0  0  0  0  0  0
    6.8730   -3.7040   20.4800 C   0  0  0  0  0  0  0  0  0  0  0  0
    3.6220   -3.4360   25.5010 N   0  0  0  0  0  0  0  0  0  0  0  0
    5.3440   -1.9810   25.9400 O   0  0  0  0  0  0  0  0  0  0  0  0
    5.7260   -4.3270   22.6030 C   0  0  0  0  0  0  0  0  0  0  0  0
    5.3840   -5.6640   22.4120 C   0  0  0  0  0  0  0  0  0  0  0  0
    4.4540   -6.2500   23.2510 C   0  0  0  0  0  0  0  0  0  0  0  0
    3.8650   -5.5290   24.2760 C   0  0  0  0  0  0  0  0  0  0  0  0
    4.2170   -4.2000   24.4610 C   0  0  0  0  0  0  0  0  0  0  0  0
    5.1480   -3.5910   23.6270 C   0  0  0  0  0  0  0  0  0  0  0  0
    2.2350   -3.6510   25.9320 C   0  0  0  0  0  0  0  0  0  0  0  0
    1.9360   -2.4520   26.8080 C   0  0  0  0  0  0  0  0  0  0  0  0
    3.3010   -1.9790   27.2740 C   0  0  0  0  0  0  0  0  0  0  0  0
    4.2410   -2.4300   26.1890 C   0  0  0  0  0  0  0  0  0  0  0  0
  1  3  1  0
  2  5  1  0
  2  8  1  0
  3  5  1  0
  4  5  2  0
  6 12  1  0
  6 14  1  0
  6 17  1  0
  7 17  2  0
  8  9  2  0
  8 13  1  0
  9 10  1  0
 10 11  2  0
 11 12  1  0
 12 13  2  0
 14 15  1  0
 15 16  1  0
 16 17  1  0
M  END
