
     RDKit          3D

  5  4  0  0  0  0  0  0  0  0999 V2000
   10.1290   -5.6830   25.0990 N   0  0  0  0  0  0  0  0  0  0  0  0
    8.6800   -3.4480   23.3550 C   0  0  0  0  0  0  0  0  0  0  0  0
    8.0730   -4.6860   24.0150 C   0  0  0  0  0  0  0  0  0  0  0  0
    8.4470   -4.9200   26.4430 N   0  0  0  0  0  0  0  0  0  0  0  0
    8.9630   -5.1340   25.1750 C   0  0  0  0  0  0  0  0  0  0  0  0
  1  5  2  0
  2  3  1  0
  3  5  1  0
  4  5  1  0
M  END
