piperidine-amides-3866-covalent
     RDKit          3D

 24 26  0  0  0  0  0  0  0  0999 V2000
    7.0940   -3.3140   19.2710 C   0  0  0  0  0  0  0  0  0  0  0  0
    6.3800   -4.1320   20.2680 C   0  0  0  0  0  0  0  0  0  0  0  0
    5.2780   -4.6000   19.9050 O   0  0  0  0  0  0  0  0  0  0  0  0
    6.9400   -4.4410   21.5380 N   0  0  0  0  0  0  0  0  0  0  0  0
    6.3670   -5.4980   22.2750 C   0  0  0  0  0  0  0  0  0  0  0  0
    5.7490   -4.9910   23.4880 C   0  0  0  0  0  0  0  0  0  0  0  0
    5.4340   -3.5450   23.4190 C   0  0  0  0  0  0  0  0  0  0  0  0
    4.7940   -3.0380   24.6870 C   0  0  0  0  0  0  0  0  0  0  0  0
    3.9440   -3.7240   25.2770 O   0  0  0  0  0  0  0  0  0  0  0  0
    5.1490   -1.7920   25.2210 N   0  0  0  0  0  0  0  0  0  0  0  0
    6.4320   -1.5640   25.6650 C   0  0  0  0  0  0  0  0  0  0  0  0
    7.2260   -2.7300   25.6880 C   0  0  2  0  0  0  0  0  0  0  0  0
    8.0140   -2.6620   26.9010 C   0  0  1  0  0  0  0  0  0  0  0  0
    7.6030   -3.7500   27.6040 C   0  0  0  0  0  0  0  0  0  0  0  0
    8.5070   -4.7850   26.9250 C   0  0  0  0  0  0  0  0  0  0  0  0
    8.3250   -6.1690   27.4570 C   0  0  0  0  0  0  0  0  0  0  0  0
    7.2540   -6.2610   28.5720 C   0  0  0  0  0  0  0  0  0  0  0  0
    6.4110   -5.2110   29.1700 C   0  0  0  0  0  0  0  0  0  0  0  0
    6.6880   -3.8980   28.5760 C   0  0  0  0  0  0  0  0  0  0  0  0
    8.6420   -2.7840   25.4240 C   0  0  0  0  0  0  0  0  0  0  0  0
    9.0250   -1.7310   24.6170 F   0  0  0  0  0  0  0  0  0  0  0  0
    8.9710   -4.0000   24.9670 F   0  0  0  0  0  0  0  0  0  0  0  0
    6.5880   -2.6850   22.9420 C   0  0  0  0  0  0  0  0  0  0  0  0
    7.6060   -3.4370   22.3350 C   0  0  0  0  0  0  0  0  0  0  0  0
  1  2  1  0
  2  3  2  0
  2  4  1  0
  4  5  1  0
  5  6  1  0
  6  7  1  0
  7  8  1  0
  8  9  2  0
  8 10  1  0
 10 11  1  0
 12 11  1  6
 12 13  1  0
 13 14  1  1
 14 15  2  0
 15 16  1  0
 16 17  2  0
 17 18  1  0
 14 19  1  0
 18 19  2  0
 12 20  1  0
 13 20  1  0
 20 21  1  0
 20 22  1  0
  7 23  1  0
  4 24  1  0
 23 24  1  0
M  END
