piperidine-amides-23714-covalent
     RDKit          3D

 24 26  0  0  0  0  0  0  0  0999 V2000
    7.2180   -4.0080   19.6180 C   0  0  0  0  0  0  0  0  0  0  0  0
    6.0940   -4.0580   20.4320 C   0  0  0  0  0  0  0  0  0  0  0  0
    5.0460   -4.2430   19.7730 O   0  0  0  0  0  0  0  0  0  0  0  0
    6.2890   -4.0280   21.8170 N   0  0  0  0  0  0  0  0  0  0  0  0
    6.2060   -5.3200   22.4380 C   0  0  0  0  0  0  0  0  0  0  0  0
    6.2340   -5.2070   23.8670 C   0  0  0  0  0  0  0  0  0  0  0  0
    6.3910   -3.7950   24.2060 C   0  0  0  0  0  0  0  0  0  0  0  0
    6.1250   -3.4760   25.6280 C   0  0  0  0  0  0  0  0  0  0  0  0
    5.0850   -2.8210   25.8500 O   0  0  0  0  0  0  0  0  0  0  0  0
    6.9150   -3.8580   26.7420 N   0  0  0  0  0  0  0  0  0  0  0  0
    7.4890   -2.9070   27.4560 C   0  0  0  0  0  0  0  0  0  0  0  0
    6.3890   -2.2820   28.0120 C   0  0  0  0  0  0  0  0  0  0  0  0
    5.4920   -3.4220   28.5100 C   0  0  0  0  0  0  0  0  0  0  0  0
    4.4650   -3.4040   29.5830 C   0  0  0  0  0  0  0  0  0  0  0  0
    4.1810   -2.2310   30.2720 O   0  0  0  0  0  0  0  0  0  0  0  0
    5.2270   -1.3240   30.3510 C   0  0  0  0  0  0  0  0  0  0  0  0
    3.6390   -4.7110   30.0130 C   0  0  0  0  0  0  0  0  0  0  0  0
    4.2060   -5.7190   29.1110 C   0  0  0  0  0  0  0  0  0  0  0  0
    4.0850   -6.9060   28.8590 O   0  0  0  0  0  0  0  0  0  0  0  0
    5.2650   -7.6600   28.6680 C   0  0  0  0  0  0  0  0  0  0  0  0
    5.0430   -4.6870   28.5560 C   0  0  0  0  0  0  0  0  0  0  0  0
    6.0050   -4.6360   27.5190 C   0  0  0  0  0  0  0  0  0  0  0  0
    7.6490   -3.2720   23.6300 C   0  0  0  0  0  0  0  0  0  0  0  0
    7.4160   -3.1830   22.2510 C   0  0  0  0  0  0  0  0  0  0  0  0
  1  2  1  0
  2  3  2  0
  2  4  1  0
  4  5  1  0
  5  6  1  0
  6  7  1  0
  7  8  1  0
  8  9  2  0
  8 10  1  0
 10 11  1  0
 11 12  1  0
 12 13  1  0
 13 14  1  0
 14 15  1  0
 15 16  1  0
 14 17  2  0
 17 18  1  0
 18 19  1  0
 19 20  1  0
 18 21  2  0
 10 22  1  0
 13 22  2  0
 21 22  1  0
  7 23  1  0
  4 24  1  0
 23 24  1  0
M  END
