piperidine-amides-5116-covalent
     RDKit          3D

 22 24  0  0  0  0  0  0  0  0999 V2000
    7.1010   -3.2860   19.2250 C   0  0  0  0  0  0  0  0  0  0  0  0
    6.3670   -4.0800   20.2390 C   0  0  0  0  0  0  0  0  0  0  0  0
    5.2800   -4.5750   19.8840 O   0  0  0  0  0  0  0  0  0  0  0  0
    6.9080   -4.2990   21.5100 N   0  0  0  0  0  0  0  0  0  0  0  0
    6.4910   -5.4130   22.2950 C   0  0  0  0  0  0  0  0  0  0  0  0
    5.7820   -5.0390   23.5210 C   0  0  0  0  0  0  0  0  0  0  0  0
    5.7080   -3.5780   23.7750 C   0  0  0  0  0  0  0  0  0  0  0  0
    5.2740   -3.2900   25.1650 C   0  0  0  0  0  0  0  0  0  0  0  0
    4.5580   -4.1200   25.7460 O   0  0  0  0  0  0  0  0  0  0  0  0
    5.6340   -2.1000   25.8230 N   0  0  0  0  0  0  0  0  0  0  0  0
    6.8370   -1.9870   26.6550 C   0  0  0  0  0  0  0  0  0  0  0  0
    8.0510   -2.3340   25.8910 C   0  0  0  0  0  0  0  0  0  0  0  0
    8.5120   -1.6560   24.6930 C   0  0  0  0  0  0  0  0  0  0  0  0
    9.6610   -2.0270   24.0320 C   0  0  0  0  0  0  0  0  0  0  0  0
   10.4160   -3.0880   24.5120 C   0  0  0  0  0  0  0  0  0  0  0  0
    9.9570   -3.7180   25.6360 C   0  0  0  0  0  0  0  0  0  0  0  0
   10.5330   -4.7700   26.2570 C   0  0  0  0  0  0  0  0  0  0  0  0
    9.8370   -5.1950   27.3740 C   0  0  0  0  0  0  0  0  0  0  0  0
    8.7900   -4.2590   27.3250 N   0  0  0  0  0  0  0  0  0  0  0  0
    8.8320   -3.3480   26.2820 C   0  0  0  0  0  0  0  0  0  0  0  0
    6.9290   -2.8150   23.4390 C   0  0  0  0  0  0  0  0  0  0  0  0
    7.6610   -3.2700   22.2120 C   0  0  0  0  0  0  0  0  0  0  0  0
  1  2  1  0
  2  3  2  0
  2  4  1  0
  4  5  1  0
  5  6  1  0
  6  7  1  0
  7  8  1  0
  8  9  2  0
  8 10  1  0
 10 11  1  0
 11 12  1  0
 12 13  2  0
 13 14  1  0
 14 15  2  0
 15 16  1  0
 16 17  1  0
 17 18  2  0
 18 19  1  0
 12 20  1  0
 16 20  2  0
 19 20  1  0
  7 21  1  0
  4 22  1  0
 21 22  1  0
M  END
