piperidine-amides-10226-covalent
     RDKit          3D

 25 26  0  0  0  0  0  0  0  0999 V2000
    7.0440   -3.3360   19.3460 C   0  0  0  0  0  0  0  0  0  0  0  0
    6.3740   -4.1740   20.3490 C   0  0  0  0  0  0  0  0  0  0  0  0
    5.3380   -4.7740   19.9640 O   0  0  0  0  0  0  0  0  0  0  0  0
    6.9020   -4.3270   21.6430 N   0  0  0  0  0  0  0  0  0  0  0  0
    6.6530   -5.5080   22.4390 C   0  0  0  0  0  0  0  0  0  0  0  0
    6.0650   -5.0890   23.7660 C   0  0  0  0  0  0  0  0  0  0  0  0
    6.0150   -3.5910   23.9290 C   0  0  0  0  0  0  0  0  0  0  0  0
    5.6440   -3.2360   25.3130 C   0  0  0  0  0  0  0  0  0  0  0  0
    4.4270   -3.2440   25.6100 O   0  0  0  0  0  0  0  0  0  0  0  0
    6.5710   -2.8840   26.3020 N   0  0  0  0  0  0  0  0  0  0  0  0
    6.4810   -1.6360   27.0160 C   0  0  0  0  0  0  0  0  0  0  0  0
    7.0550   -1.6770   28.4260 C   0  0  0  0  0  0  0  0  0  0  0  0
    7.0580   -0.5900   29.2690 C   0  0  0  0  0  0  0  0  0  0  0  0
    6.5190    0.6090   28.8430 C   0  0  0  0  0  0  0  0  0  0  0  0
    6.5650    1.5920   29.7130 O   0  0  0  0  0  0  0  0  0  0  0  0
    6.6880    1.1550   30.9380 C   0  0  0  0  0  0  0  0  0  0  0  0
    5.9300    0.7430   27.4640 C   0  0  0  0  0  0  0  0  0  0  0  0
    5.3120    2.3950   27.1790 S   0  0  0  0  0  0  0  0  0  0  0  0
    6.3710    3.2910   26.6450 O   0  0  0  0  0  0  0  0  0  0  0  0
    4.9100    2.9600   28.5270 O   0  0  0  0  0  0  0  0  0  0  0  0
    4.0070    2.3750   26.0350 N   0  0  0  0  0  0  0  0  0  0  0  0
    4.2920    1.5500   24.9970 C   0  0  0  0  0  0  0  0  0  0  0  0
    5.9190   -0.4560   26.5110 C   0  0  0  0  0  0  0  0  0  0  0  0
    7.3240   -2.9620   23.6070 C   0  0  0  0  0  0  0  0  0  0  0  0
    7.6800   -3.1970   22.1640 C   0  0  0  0  0  0  0  0  0  0  0  0
  1  2  1  0
  2  3  2  0
  2  4  1  0
  4  5  1  0
  5  6  1  0
  6  7  1  0
  7  8  1  0
  8  9  2  0
  8 10  1  0
 10 11  1  0
 11 12  2  0
 12 13  1  0
 13 14  2  0
 14 15  1  0
 15 16  1  0
 14 17  1  0
 17 18  1  0
 18 19  2  0
 18 20  2  0
 18 21  1  0
 21 22  1  0
 11 23  1  0
 17 23  2  0
  7 24  1  0
  4 25  1  0
 24 25  1  0
M  END
