piperidine-amides-30351-covalent
     RDKit          3D

 27 30  0  0  0  0  0  0  0  0999 V2000
    7.0320   -3.3520   19.3790 C   0  0  0  0  0  0  0  0  0  0  0  0
    6.3590   -4.1900   20.3660 C   0  0  0  0  0  0  0  0  0  0  0  0
    5.4030   -4.8780   19.9990 O   0  0  0  0  0  0  0  0  0  0  0  0
    6.8200   -4.2640   21.7370 N   0  0  0  0  0  0  0  0  0  0  0  0
    7.6780   -3.2250   22.2960 C   0  0  0  0  0  0  0  0  0  0  0  0
    7.4470   -3.0000   23.7810 C   0  0  0  0  0  0  0  0  0  0  0  0
    6.1620   -3.7140   24.1420 C   0  0  0  0  0  0  0  0  0  0  0  0
    5.5420   -3.3950   25.4790 C   0  0  0  0  0  0  0  0  0  0  0  0
    4.3080   -3.5070   25.5900 O   0  0  0  0  0  0  0  0  0  0  0  0
    6.2250   -2.9390   26.6590 N   0  0  0  0  0  0  0  0  0  0  0  0
    6.2330   -3.8900   27.7760 C   0  0  0  0  0  0  0  0  0  0  0  0
    5.9400   -5.3070   27.3370 C   0  0  0  0  0  0  0  0  0  0  0  0
    4.9260   -5.9910   27.9720 C   0  0  0  0  0  0  0  0  0  0  0  0
    5.0710   -6.1950   29.2010 O   0  0  0  0  0  0  0  0  0  0  0  0
    6.0300   -7.1330   29.5930 C   0  0  0  0  0  0  0  0  0  0  0  0
    5.6490   -1.7290   27.2020 C   0  0  2  0  0  0  0  0  0  0  0  0
    5.6680   -0.3480   26.7600 C   0  0  0  0  0  0  0  0  0  0  0  0
    5.4460    0.4530   27.8410 C   0  0  1  0  0  0  0  0  0  0  0  0
    4.8170   -0.4060   28.6600 C   0  0  0  0  0  0  0  0  0  0  0  0
    5.8010   -1.3710   28.6770 C   0  0  2  0  0  0  0  0  0  0  0  0
    6.9370   -0.4960   29.0190 C   0  0  2  0  0  0  0  0  0  0  0  0
    7.2370   -0.4600   30.3960 C   0  0  0  0  0  0  0  0  0  0  0  0
    6.8970    0.7860   30.9090 C   0  0  0  0  0  0  0  0  0  0  0  0
    6.4310    1.6380   29.8110 C   0  0  0  0  0  0  0  0  0  0  0  0
    6.5750    0.8190   28.5390 C   0  0  2  0  0  0  0  0  0  0  0  0
    6.2770   -5.1740   23.8500 C   0  0  0  0  0  0  0  0  0  0  0  0
    6.6690   -5.5140   22.4530 C   0  0  0  0  0  0  0  0  0  0  0  0
  1  2  1  0
  2  3  2  0
  2  4  1  0
  4  5  1  0
  5  6  1  0
  6  7  1  0
  7  8  1  0
  8  9  2  0
  8 10  1  0
 10 11  1  0
 11 12  1  0
 12 13  1  0
 13 14  1  0
 14 15  1  0
 16 10  1  6
 16 17  1  0
 18 17  1  6
 18 19  1  0
 16 20  1  0
 20 19  1  6
 20 21  1  0
 21 22  1  1
 22 23  1  0
 23 24  1  0
 18 25  1  0
 21 25  1  0
 25 24  1  1
  7 26  1  0
  4 27  1  0
 26 27  1  0
M  END
