piperidine-amides-699-covalent
     RDKit          3D

 25 26  0  0  0  0  0  0  0  0999 V2000
    7.2060   -3.2940   19.3320 C   0  0  0  0  0  0  0  0  0  0  0  0
    6.4610   -4.0840   20.2780 C   0  0  0  0  0  0  0  0  0  0  0  0
    5.3560   -4.6030   19.9150 O   0  0  0  0  0  0  0  0  0  0  0  0
    6.9660   -4.3370   21.5610 N   0  0  0  0  0  0  0  0  0  0  0  0
    6.5010   -5.5360   22.2680 C   0  0  0  0  0  0  0  0  0  0  0  0
    5.3220   -4.8850   23.0780 C   0  0  0  0  0  0  0  0  0  0  0  0
    5.9420   -3.7750   23.8970 C   0  0  0  0  0  0  0  0  0  0  0  0
    4.8420   -3.0730   24.7950 C   0  0  0  0  0  0  0  0  0  0  0  0
    4.4860   -2.0010   24.3440 O   0  0  0  0  0  0  0  0  0  0  0  0
    4.6210   -3.8310   25.7710 N   0  0  0  0  0  0  0  0  0  0  0  0
    4.5570   -4.5760   26.8790 C   0  0  1  0  0  0  0  0  0  0  0  0
    4.5620   -5.8960   27.2610 C   0  0  0  0  0  0  0  0  0  0  0  0
    3.4310   -6.6040   26.7880 C   0  0  0  0  0  0  0  0  0  0  0  0
    3.5220   -7.1470   25.4960 O   0  0  0  0  0  0  0  0  0  0  0  0
    2.3100   -6.7390   27.6000 O   0  0  0  0  0  0  0  0  0  0  0  0
    2.0970   -7.8560   28.3930 C   0  0  0  0  0  0  0  0  0  0  0  0
    5.7490   -4.0940   27.5030 C   0  0  0  0  0  0  0  0  0  0  0  0
    5.8060   -3.0190   28.3820 C   0  0  0  0  0  0  0  0  0  0  0  0
    6.8970   -2.3980   29.0670 C   0  0  0  0  0  0  0  0  0  0  0  0
    8.0520   -3.3200   28.5180 C   0  0  0  0  0  0  0  0  0  0  0  0
    7.9390   -4.5230   27.5260 C   0  0  0  0  0  0  0  0  0  0  0  0
    9.2850   -5.8390   26.6790 I   0  0  0  0  0  0  0  0  0  0  0  0
    6.8020   -4.7700   27.1340 C   0  0  0  0  0  0  0  0  0  0  0  0
    6.7840   -2.7520   23.1380 C   0  0  0  0  0  0  0  0  0  0  0  0
    7.6710   -3.3110   22.2860 C   0  0  0  0  0  0  0  0  0  0  0  0
  1  2  1  0
  2  3  2  0
  2  4  1  0
  4  5  1  0
  5  6  1  0
  6  7  1  0
  7  8  1  0
  8  9  2  0
  8 10  1  0
 10 11  1  0
 11 12  1  6
 12 13  1  0
 13 14  2  0
 13 15  1  0
 15 16  1  0
 11 17  1  0
 17 18  2  0
 18 19  1  0
 19 20  2  0
 20 21  1  0
 21 22  1  0
 17 23  1  0
 21 23  2  0
  7 24  1  0
  4 25  1  0
 24 25  1  0
M  END
