piperidine-amides-3739-covalent
     RDKit          3D

 21 23  0  0  0  0  0  0  0  0999 V2000
    7.0420   -3.3120   19.2590 C   0  0  0  0  0  0  0  0  0  0  0  0
    6.2740   -4.1500   20.2010 C   0  0  0  0  0  0  0  0  0  0  0  0
    5.1390   -4.4990   19.8340 O   0  0  0  0  0  0  0  0  0  0  0  0
    6.7940   -4.6010   21.4350 N   0  0  0  0  0  0  0  0  0  0  0  0
    7.4220   -3.6300   22.2160 C   0  0  0  0  0  0  0  0  0  0  0  0
    7.5380   -3.9870   23.6200 C   0  0  0  0  0  0  0  0  0  0  0  0
    6.3290   -4.5330   24.2780 C   0  0  0  0  0  0  0  0  0  0  0  0
    5.7740   -3.4970   25.2000 C   0  0  0  0  0  0  0  0  0  0  0  0
    4.5700   -3.5190   25.5320 O   0  0  0  0  0  0  0  0  0  0  0  0
    6.6170   -2.4890   25.6900 N   0  0  0  0  0  0  0  0  0  0  0  0
    6.7030   -1.1420   25.2660 C   0  0  0  0  0  0  0  0  0  0  0  0
    7.3810   -0.6600   24.0280 C   0  0  1  0  0  0  0  0  0  0  0  0
    8.8560   -0.9240   23.9790 C   0  0  0  0  0  0  0  0  0  0  0  0
    8.6930   -1.4590   22.7960 C   0  0  1  0  0  0  0  0  0  0  0  0
    9.5510   -0.3360   22.1450 C   0  0  0  0  0  0  0  0  0  0  0  0
   10.8020   -0.7020   22.8950 C   0  0  0  0  0  0  0  0  0  0  0  0
   10.7990   -2.0680   22.7990 O   0  0  0  0  0  0  0  0  0  0  0  0
    9.6140   -2.5530   22.3800 C   0  0  0  0  0  0  0  0  0  0  0  0
    7.2560   -1.4260   22.6980 C   0  0  0  0  0  0  0  0  0  0  0  0
    5.3390   -5.0970   23.2800 C   0  0  0  0  0  0  0  0  0  0  0  0
    6.1280   -5.6760   22.0930 C   0  0  0  0  0  0  0  0  0  0  0  0
  1  2  1  0
  2  3  2  0
  2  4  1  0
  4  5  1  0
  5  6  1  0
  6  7  1  0
  7  8  1  0
  8  9  2  0
  8 10  1  0
 10 11  1  0
 12 11  1  1
 12 13  1  0
 14 13  1  1
 14 15  1  0
 15 16  1  0
 16 17  1  0
 14 18  1  0
 17 18  1  0
 12 19  1  0
 14 19  1  0
  7 20  1  0
  4 21  1  0
 20 21  1  0
M  END
