piperidine-amides-26156-covalent
     RDKit          3D

 25 27  0  0  0  0  0  0  0  0999 V2000
    7.0540   -3.3700   19.3900 C   0  0  0  0  0  0  0  0  0  0  0  0
    6.3970   -4.2420   20.3660 C   0  0  0  0  0  0  0  0  0  0  0  0
    5.3930   -4.8770   19.9950 O   0  0  0  0  0  0  0  0  0  0  0  0
    6.8900   -4.4340   21.6800 N   0  0  0  0  0  0  0  0  0  0  0  0
    6.5060   -5.5660   22.4650 C   0  0  0  0  0  0  0  0  0  0  0  0
    5.5640   -4.9930   23.4980 C   0  0  0  0  0  0  0  0  0  0  0  0
    6.1650   -3.9180   24.3810 C   0  0  0  0  0  0  0  0  0  0  0  0
    5.1290   -3.3540   25.3240 C   0  0  0  0  0  0  0  0  0  0  0  0
    3.9900   -3.0770   24.8690 O   0  0  0  0  0  0  0  0  0  0  0  0
    5.3040   -3.0900   26.7210 N   0  0  0  0  0  0  0  0  0  0  0  0
    6.6340   -3.0920   27.1940 C   0  0  0  0  0  0  0  0  0  0  0  0
    6.5520   -4.1890   28.1790 C   0  0  0  0  0  0  0  0  0  0  0  0
    5.1970   -4.1780   28.6910 C   0  0  0  0  0  0  0  0  0  0  0  0
    4.3170   -3.4130   27.7090 C   0  0  1  0  0  0  0  0  0  0  0  0
    3.6090   -2.2720   28.4260 C   0  0  0  0  0  0  0  0  0  0  0  0
    4.5970   -1.5170   29.2170 N   0  0  0  0  0  0  0  0  0  0  0  0
    5.7810   -0.9190   28.7460 C   0  0  0  0  0  0  0  0  0  0  0  0
    6.3130   -0.3550   29.8940 C   0  0  0  0  0  0  0  0  0  0  0  0
    5.5980   -0.5220   31.0570 N   0  0  0  0  0  0  0  0  0  0  0  0
    4.5390   -1.2470   30.6100 C   0  0  0  0  0  0  0  0  0  0  0  0
    3.3900   -1.7370   31.4620 C   0  0  0  0  0  0  0  0  0  0  0  0
    3.2570   -3.2630   31.5110 C   0  0  0  0  0  0  0  0  0  0  0  0
    3.4550   -1.2770   32.9210 C   0  0  0  0  0  0  0  0  0  0  0  0
    6.8590   -2.8530   23.5590 C   0  0  0  0  0  0  0  0  0  0  0  0
    7.5360   -3.3350   22.3190 C   0  0  0  0  0  0  0  0  0  0  0  0
  1  2  1  0
  2  3  2  0
  2  4  1  0
  4  5  1  0
  5  6  1  0
  6  7  1  0
  7  8  1  0
  8  9  2  0
  8 10  1  0
 10 11  1  0
 11 12  1  0
 12 13  1  0
 10 14  1  0
 13 14  1  0
 14 15  1  1
 15 16  1  0
 16 17  1  0
 17 18  2  0
 18 19  1  0
 16 20  1  0
 19 20  2  0
 20 21  1  0
 21 22  1  0
 21 23  1  0
  7 24  1  0
  4 25  1  0
 24 25  1  0
M  END
