piperidine-amides-28733-covalent
     RDKit          3D

 26 27  0  0  0  0  0  0  0  0999 V2000
    7.0790   -3.3410   19.3130 C   0  0  0  0  0  0  0  0  0  0  0  0
    6.4200   -4.1840   20.3090 C   0  0  0  0  0  0  0  0  0  0  0  0
    5.3780   -4.7730   19.9660 O   0  0  0  0  0  0  0  0  0  0  0  0
    6.9920   -4.3610   21.5930 N   0  0  0  0  0  0  0  0  0  0  0  0
    7.7260   -3.2760   22.1800 C   0  0  0  0  0  0  0  0  0  0  0  0
    6.8940   -2.6600   23.2530 C   0  0  0  0  0  0  0  0  0  0  0  0
    6.5870   -3.7540   24.2500 C   0  0  0  0  0  0  0  0  0  0  0  0
    5.6930   -3.2050   25.3110 C   0  0  0  0  0  0  0  0  0  0  0  0
    4.6070   -2.7760   24.9250 O   0  0  0  0  0  0  0  0  0  0  0  0
    6.1160   -3.2050   26.6350 N   0  0  0  0  0  0  0  0  0  0  0  0
    6.2780   -1.9330   27.3040 C   0  0  0  0  0  0  0  0  0  0  0  0
    6.9210   -1.7510   28.5210 C   0  0  0  0  0  0  0  0  0  0  0  0
    7.0440   -0.5270   29.1360 C   0  0  0  0  0  0  0  0  0  0  0  0
    6.5550    0.6940   28.6390 C   0  0  0  0  0  0  0  0  0  0  0  0
    6.6740    1.9170   29.2500 F   0  0  0  0  0  0  0  0  0  0  0  0
    5.8540    0.5530   27.3120 C   0  0  0  0  0  0  0  0  0  0  0  0
    5.7040   -0.8120   26.6080 C   0  0  0  0  0  0  0  0  0  0  0  0
    6.0080   -4.4370   27.4250 C   0  0  1  0  0  0  0  0  0  0  0  0
    6.7190   -4.2530   28.7190 C   0  0  0  0  0  0  0  0  0  0  0  0
    4.7220   -4.8410   27.5500 C   0  0  0  0  0  0  0  0  0  0  0  0
    3.7710   -4.0970   27.1890 O   0  0  0  0  0  0  0  0  0  0  0  0
    4.4610   -6.0760   28.0780 O   0  0  0  0  0  0  0  0  0  0  0  0
    4.6980   -6.4900   29.3850 C   0  0  0  0  0  0  0  0  0  0  0  0
    5.6880   -7.4350   29.5150 C   0  0  0  0  0  0  0  0  0  0  0  0
    5.9130   -4.9480   23.6450 C   0  0  0  0  0  0  0  0  0  0  0  0
    6.6100   -5.4680   22.4200 C   0  0  0  0  0  0  0  0  0  0  0  0
  1  2  1  0
  2  3  2  0
  2  4  1  0
  4  5  1  0
  5  6  1  0
  6  7  1  0
  7  8  1  0
  8  9  2  0
  8 10  1  0
 10 11  1  0
 11 12  2  0
 12 13  1  0
 13 14  2  0
 14 15  1  0
 14 16  1  0
 11 17  1  0
 16 17  2  0
 10 18  1  0
 18 19  1  1
 18 20  1  0
 20 21  2  0
 20 22  1  0
 22 23  1  0
 23 24  1  0
  7 25  1  0
  4 26  1  0
 25 26  1  0
M  END
