piperidine-amides-1829-covalent
     RDKit          3D

 18 19  0  0  0  0  0  0  0  0999 V2000
    7.0420   -3.3310   19.3720 C   0  0  0  0  0  0  0  0  0  0  0  0
    6.3730   -4.2010   20.3730 C   0  0  0  0  0  0  0  0  0  0  0  0
    5.4040   -4.8540   19.9850 O   0  0  0  0  0  0  0  0  0  0  0  0
    6.8780   -4.2810   21.6790 N   0  0  0  0  0  0  0  0  0  0  0  0
    7.6940   -3.2260   22.2420 C   0  0  0  0  0  0  0  0  0  0  0  0
    7.3840   -3.0080   23.7010 C   0  0  0  0  0  0  0  0  0  0  0  0
    6.0260   -3.6300   24.0280 C   0  0  0  0  0  0  0  0  0  0  0  0
    5.5810   -3.3370   25.4130 C   0  0  0  0  0  0  0  0  0  0  0  0
    4.3680   -3.4220   25.6730 O   0  0  0  0  0  0  0  0  0  0  0  0
    6.4660   -2.9420   26.4370 N   0  0  0  0  0  0  0  0  0  0  0  0
    6.6430   -1.5280   26.7040 C   0  0  2  0  0  0  0  0  0  0  0  0
    6.9730   -1.3800   28.1630 C   0  0  0  0  0  0  0  0  0  0  0  0
    6.2530   -0.1930   29.0900 S   0  0  0  0  0  0  0  0  0  0  0  0
    5.4670    0.5040   27.5820 C   0  0  1  0  0  0  0  0  0  0  0  0
    6.2190    1.5420   27.1490 C   0  0  0  0  0  0  0  0  0  0  0  0
    5.4240   -0.6470   26.5310 C   0  0  0  0  0  0  0  0  0  0  0  0
    6.0910   -5.1270   23.7950 C   0  0  0  0  0  0  0  0  0  0  0  0
    6.6260   -5.4540   22.4460 C   0  0  0  0  0  0  0  0  0  0  0  0
  1  2  1  0
  2  3  2  0
  2  4  1  0
  4  5  1  0
  5  6  1  0
  6  7  1  0
  7  8  1  0
  8  9  2  0
  8 10  1  0
 11 10  1  1
 11 12  1  0
 12 13  1  0
 13 14  1  0
 14 15  1  6
 11 16  1  0
 14 16  1  0
  7 17  1  0
  4 18  1  0
 17 18  1  0
M  END
