piperidine-amides-25708-covalent
     RDKit          3D

 25 27  0  0  0  0  0  0  0  0999 V2000
    7.0630   -3.3170   19.3470 C   0  0  0  0  0  0  0  0  0  0  0  0
    6.3670   -4.1890   20.3240 C   0  0  0  0  0  0  0  0  0  0  0  0
    5.3320   -4.7340   19.9490 O   0  0  0  0  0  0  0  0  0  0  0  0
    6.9160   -4.4090   21.5930 N   0  0  0  0  0  0  0  0  0  0  0  0
    6.6230   -5.6090   22.3220 C   0  0  0  0  0  0  0  0  0  0  0  0
    5.7790   -5.2360   23.5010 C   0  0  0  0  0  0  0  0  0  0  0  0
    6.4310   -4.0820   24.2630 C   0  0  0  0  0  0  0  0  0  0  0  0
    5.4470   -3.6220   25.2740 C   0  0  0  0  0  0  0  0  0  0  0  0
    4.5690   -2.8060   24.9790 O   0  0  0  0  0  0  0  0  0  0  0  0
    5.5330   -4.1330   26.5760 N   0  0  0  0  0  0  0  0  0  0  0  0
    6.8750   -4.2620   26.9380 C   0  0  0  0  0  0  0  0  0  0  0  0
    7.0800   -5.3720   27.9310 C   0  0  0  0  0  0  0  0  0  0  0  0
    6.3210   -5.3620   29.0280 C   0  0  0  0  0  0  0  0  0  0  0  0
    5.0470   -5.0500   28.7450 C   0  0  1  0  0  0  0  0  0  0  0  0
    4.2530   -5.0290   29.8540 C   0  0  0  0  0  0  0  0  0  0  0  0
    3.6320   -3.7510   30.4190 C   0  0  0  0  0  0  0  0  0  0  0  0
    2.7820   -3.9360   31.6530 C   0  0  0  0  0  0  0  0  0  0  0  0
    2.5800   -5.2950   32.2580 C   0  0  0  0  0  0  0  0  0  0  0  0
    1.7660   -5.1900   33.3690 O   0  0  0  0  0  0  0  0  0  0  0  0
    1.0310   -6.3040   33.8080 C   0  0  0  0  0  0  0  0  0  0  0  0
    3.1900   -6.5440   31.7010 C   0  0  0  0  0  0  0  0  0  0  0  0
    4.0440   -6.3850   30.4700 C   0  0  0  0  0  0  0  0  0  0  0  0
    4.8840   -3.8660   27.8310 C   0  0  0  0  0  0  0  0  0  0  0  0
    6.8000   -2.9180   23.3400 C   0  0  0  0  0  0  0  0  0  0  0  0
    7.6160   -3.3640   22.3200 C   0  0  0  0  0  0  0  0  0  0  0  0
  1  2  1  0
  2  3  2  0
  2  4  1  0
  4  5  1  0
  5  6  1  0
  6  7  1  0
  7  8  1  0
  8  9  2  0
  8 10  1  0
 10 11  1  0
 11 12  1  0
 12 13  1  0
 13 14  1  0
 14 15  1  1
 15 16  2  0
 16 17  1  0
 17 18  2  0
 18 19  1  0
 19 20  1  0
 18 21  1  0
 15 22  1  0
 21 22  2  0
 10 23  1  0
 14 23  1  0
  7 24  1  0
  4 25  1  0
 24 25  1  0
M  END
