piperidine-amides-6585-covalent
     RDKit          3D

 24 26  0  0  0  0  0  0  0  0999 V2000
    7.1370   -3.2430   19.1820 C   0  0  0  0  0  0  0  0  0  0  0  0
    6.3750   -4.0110   20.1780 C   0  0  0  0  0  0  0  0  0  0  0  0
    5.2850   -4.5450   19.8770 O   0  0  0  0  0  0  0  0  0  0  0  0
    6.8960   -4.2030   21.4570 N   0  0  0  0  0  0  0  0  0  0  0  0
    6.5370   -5.4020   22.1750 C   0  0  0  0  0  0  0  0  0  0  0  0
    5.6370   -4.9290   23.3100 C   0  0  0  0  0  0  0  0  0  0  0  0
    6.5050   -4.0050   24.1280 C   0  0  0  0  0  0  0  0  0  0  0  0
    5.7900   -3.5890   25.3380 C   0  0  0  0  0  0  0  0  0  0  0  0
    5.1140   -2.5380   25.3300 O   0  0  0  0  0  0  0  0  0  0  0  0
    5.8880   -4.4280   26.4600 N   0  0  0  0  0  0  0  0  0  0  0  0
    6.0570   -3.8830   27.7630 C   0  0  0  0  0  0  0  0  0  0  0  0
    5.5400   -4.9000   28.7570 C   0  0  0  0  0  0  0  0  0  0  0  0
    4.2940   -4.7420   29.2880 C   0  0  0  0  0  0  0  0  0  0  0  0
    3.8010   -5.6210   30.2010 C   0  0  0  0  0  0  0  0  0  0  0  0
    4.5240   -6.7180   30.6410 C   0  0  0  0  0  0  0  0  0  0  0  0
    4.0240   -7.5840   31.5770 C   0  0  0  0  0  0  0  0  0  0  0  0
    2.5790   -8.1580   31.4300 C   0  0  0  0  0  0  0  0  0  0  0  0
    2.7370   -8.9420   32.7170 C   0  0  0  0  0  0  0  0  0  0  0  0
    4.0320   -8.7700   33.3610 C   0  0  0  0  0  0  0  0  0  0  0  0
    4.7480   -7.9800   32.6770 O   0  0  0  0  0  0  0  0  0  0  0  0
    5.7850   -6.8710   30.0790 C   0  0  0  0  0  0  0  0  0  0  0  0
    6.3280   -5.9790   29.1300 C   0  0  0  0  0  0  0  0  0  0  0  0
    6.8140   -2.7530   23.3200 C   0  0  0  0  0  0  0  0  0  0  0  0
    7.6300   -3.1500   22.1250 C   0  0  0  0  0  0  0  0  0  0  0  0
  1  2  1  0
  2  3  2  0
  2  4  1  0
  4  5  1  0
  5  6  1  0
  6  7  1  0
  7  8  1  0
  8  9  2  0
  8 10  1  0
 10 11  1  0
 11 12  1  0
 12 13  2  0
 13 14  1  0
 14 15  2  0
 15 16  1  0
 16 17  2  0
 17 18  1  0
 18 19  2  0
 16 20  1  0
 19 20  1  0
 15 21  1  0
 12 22  1  0
 21 22  2  0
  7 23  1  0
  4 24  1  0
 23 24  1  0
M  END
