piperidine-amides-8097-covalent
     RDKit          3D

 26 27  0  0  0  0  0  0  0  0999 V2000
    7.0710   -3.3030   19.3380 C   0  0  0  0  0  0  0  0  0  0  0  0
    6.3160   -4.0710   20.3260 C   0  0  0  0  0  0  0  0  0  0  0  0
    5.3070   -4.6790   19.9320 O   0  0  0  0  0  0  0  0  0  0  0  0
    6.7490   -4.1450   21.6780 N   0  0  0  0  0  0  0  0  0  0  0  0
    6.5800   -5.3970   22.3670 C   0  0  0  0  0  0  0  0  0  0  0  0
    6.2090   -5.1700   23.8080 C   0  0  0  0  0  0  0  0  0  0  0  0
    6.1290   -3.6770   24.0370 C   0  0  0  0  0  0  0  0  0  0  0  0
    5.5720   -3.3210   25.3920 C   0  0  0  0  0  0  0  0  0  0  0  0
    4.6150   -2.5500   25.3720 O   0  0  0  0  0  0  0  0  0  0  0  0
    6.1300   -3.8540   26.5620 N   0  0  0  0  0  0  0  0  0  0  0  0
    5.7510   -5.1420   27.0780 C   0  0  0  0  0  0  0  0  0  0  0  0
    5.1430   -5.1550   28.3450 C   0  0  0  0  0  0  0  0  0  0  0  0
    4.2680   -4.1410   28.6850 C   0  0  0  0  0  0  0  0  0  0  0  0
    3.6000   -4.0500   29.9010 C   0  0  0  0  0  0  0  0  0  0  0  0
    3.8680   -5.1420   30.8900 C   0  0  0  0  0  0  0  0  0  0  0  0
    4.8490   -6.2570   30.4840 C   0  0  0  0  0  0  0  0  0  0  0  0
    5.1550   -7.3210   31.3670 N   0  0  0  0  0  0  0  0  0  0  0  0
    4.5510   -7.1630   32.6610 C   0  0  0  0  0  0  0  0  0  0  0  0
    3.4210   -6.6670   32.9070 O   0  0  0  0  0  0  0  0  0  0  0  0
    5.4180   -7.6840   33.7710 C   0  0  1  0  0  0  0  0  0  0  0  0
    4.5320   -7.6400   35.0380 C   0  0  0  0  0  0  0  0  0  0  0  0
    5.7370   -9.0150   33.6340 C   0  0  0  0  0  0  0  0  0  0  0  0
    6.4990   -9.5300   34.6560 C   0  0  0  0  0  0  0  0  0  0  0  0
    5.4280   -6.1770   29.2130 C   0  0  0  0  0  0  0  0  0  0  0  0
    7.5130   -3.0950   23.7500 C   0  0  0  0  0  0  0  0  0  0  0  0
    7.6180   -3.1440   22.2380 C   0  0  0  0  0  0  0  0  0  0  0  0
  1  2  1  0
  2  3  2  0
  2  4  1  0
  4  5  1  0
  5  6  1  0
  6  7  1  0
  7  8  1  0
  8  9  2  0
  8 10  1  0
 10 11  1  0
 11 12  1  0
 12 13  2  0
 13 14  1  0
 14 15  2  0
 15 16  1  0
 16 17  1  0
 17 18  1  0
 18 19  2  0
 18 20  1  0
 20 21  1  1
 20 22  1  0
 22 23  1  0
 12 24  1  0
 16 24  2  0
  7 25  1  0
  4 26  1  0
 25 26  1  0
M  END
