piperidine-amides-1891-covalent
     RDKit          3D

 18 18  0  0  0  0  0  0  0  0999 V2000
    7.1090   -3.2520   19.2220 C   0  0  0  0  0  0  0  0  0  0  0  0
    6.3510   -4.0250   20.2430 C   0  0  0  0  0  0  0  0  0  0  0  0
    5.2940   -4.5440   19.8830 O   0  0  0  0  0  0  0  0  0  0  0  0
    6.8630   -4.1770   21.5350 N   0  0  0  0  0  0  0  0  0  0  0  0
    6.5710   -5.3460   22.3230 C   0  0  0  0  0  0  0  0  0  0  0  0
    5.8210   -4.9510   23.5700 C   0  0  0  0  0  0  0  0  0  0  0  0
    5.9850   -3.4510   23.8670 C   0  0  0  0  0  0  0  0  0  0  0  0
    5.6790   -3.1880   25.2880 C   0  0  0  0  0  0  0  0  0  0  0  0
    4.4970   -3.0500   25.6420 O   0  0  0  0  0  0  0  0  0  0  0  0
    6.7170   -3.0880   26.2350 N   0  0  0  0  0  0  0  0  0  0  0  0
    7.6680   -4.1650   26.2600 C   0  0  0  0  0  0  0  0  0  0  0  0
    7.6450   -4.7690   27.6350 C   0  0  2  0  0  0  0  0  0  0  0  0
    8.4900   -5.7650   28.0120 C   0  0  0  0  0  0  0  0  0  0  0  0
    7.1550   -6.0710   27.9550 C   0  0  0  0  0  0  0  0  0  0  0  0
    5.9390   -5.9130   29.1480 S   0  0  0  0  0  0  0  0  0  0  0  0
    5.5150   -7.5620   29.3380 C   0  0  0  0  0  0  0  0  0  0  0  0
    7.3950   -2.9780   23.5530 C   0  0  0  0  0  0  0  0  0  0  0  0
    7.6650   -3.1460   22.1050 C   0  0  0  0  0  0  0  0  0  0  0  0
  1  2  1  0
  2  3  2  0
  2  4  1  0
  4  5  1  0
  5  6  1  0
  6  7  1  0
  7  8  1  0
  8  9  2  0
  8 10  1  0
 10 11  1  0
 11 12  1  0
 12 13  1  6
 12 14  1  0
 14 15  1  0
 15 16  1  0
  7 17  1  0
  4 18  1  0
 17 18  1  0
M  END
