piperidine-amides-3286-covalent
     RDKit          3D

 22 23  0  0  0  0  0  0  0  0999 V2000
    7.1110   -3.2880   19.2960 C   0  0  0  0  0  0  0  0  0  0  0  0
    6.3090   -4.0290   20.2640 C   0  0  0  0  0  0  0  0  0  0  0  0
    5.2770   -4.5890   19.9010 O   0  0  0  0  0  0  0  0  0  0  0  0
    6.7450   -4.1530   21.6280 N   0  0  0  0  0  0  0  0  0  0  0  0
    7.6200   -3.1480   22.1920 C   0  0  0  0  0  0  0  0  0  0  0  0
    7.2890   -2.9320   23.6410 C   0  0  0  0  0  0  0  0  0  0  0  0
    5.9970   -3.6830   23.9120 C   0  0  0  0  0  0  0  0  0  0  0  0
    5.5240   -3.4000   25.3010 C   0  0  0  0  0  0  0  0  0  0  0  0
    4.3350   -3.1390   25.5600 O   0  0  0  0  0  0  0  0  0  0  0  0
    6.4730   -3.4140   26.3440 N   0  0  0  0  0  0  0  0  0  0  0  0
    6.1250   -3.8750   27.6800 C   0  0  0  0  0  0  0  0  0  0  0  0
    5.7050   -5.3390   27.6980 C   0  0  1  0  0  0  0  0  0  0  0  0
    6.3940   -6.0850   26.7650 O   0  0  0  0  0  0  0  0  0  0  0  0
    5.9800   -6.0730   28.8320 C   0  0  0  0  0  0  0  0  0  0  0  0
    4.9960   -6.7200   29.5910 C   0  0  0  0  0  0  0  0  0  0  0  0
    5.1980   -7.0450   30.9310 C   0  0  0  0  0  0  0  0  0  0  0  0
    4.1320   -7.7120   31.6680 C   0  0  0  0  0  0  0  0  0  0  0  0
    2.9340   -8.0390   31.1040 C   0  0  0  0  0  0  0  0  0  0  0  0
    2.7870   -7.7040   29.7900 C   0  0  0  0  0  0  0  0  0  0  0  0
    3.7700   -7.0680   29.0450 C   0  0  0  0  0  0  0  0  0  0  0  0
    6.0180   -5.1030   23.6130 C   0  0  0  0  0  0  0  0  0  0  0  0
    6.5640   -5.3800   22.3640 C   0  0  0  0  0  0  0  0  0  0  0  0
  1  2  1  0
  2  3  2  0
  2  4  1  0
  4  5  1  0
  5  6  1  0
  6  7  1  0
  7  8  1  0
  8  9  2  0
  8 10  1  0
 10 11  1  0
 11 12  1  0
 12 13  1  6
 12 14  1  0
 14 15  1  0
 15 16  2  0
 16 17  1  0
 17 18  2  0
 18 19  1  0
 15 20  1  0
 19 20  2  0
  7 21  1  0
  4 22  1  0
 21 22  1  0
M  END
