piperidine-amides-27242-covalent
     RDKit          3D

 26 29  0  0  0  0  0  0  0  0999 V2000
    7.0760   -3.3760   19.3910 C   0  0  0  0  0  0  0  0  0  0  0  0
    6.3750   -4.2010   20.3760 C   0  0  0  0  0  0  0  0  0  0  0  0
    5.3510   -4.8010   19.9680 O   0  0  0  0  0  0  0  0  0  0  0  0
    6.8730   -4.3360   21.6820 N   0  0  0  0  0  0  0  0  0  0  0  0
    6.7270   -5.5960   22.3850 C   0  0  0  0  0  0  0  0  0  0  0  0
    6.2710   -5.3100   23.7890 C   0  0  0  0  0  0  0  0  0  0  0  0
    6.1130   -3.8370   23.9960 C   0  0  0  0  0  0  0  0  0  0  0  0
    5.5520   -3.5150   25.3330 C   0  0  0  0  0  0  0  0  0  0  0  0
    4.4110   -3.0080   25.3390 O   0  0  0  0  0  0  0  0  0  0  0  0
    6.1620   -3.7150   26.5850 N   0  0  0  0  0  0  0  0  0  0  0  0
    5.7950   -4.8940   27.3680 C   0  0  0  0  0  0  0  0  0  0  0  0
    5.7600   -4.3030   28.7210 C   0  0  0  0  0  0  0  0  0  0  0  0
    5.7220   -2.9950   28.5000 C   0  0  1  0  0  0  0  0  0  0  0  0
    5.6570   -2.0150   29.4810 C   0  0  0  0  0  0  0  0  0  0  0  0
    6.7040   -1.1790   29.8900 C   0  0  0  0  0  0  0  0  0  0  0  0
    7.9430   -1.2540   29.3380 C   0  0  0  0  0  0  0  0  0  0  0  0
    6.2070   -0.3900   30.8520 N   0  0  0  0  0  0  0  0  0  0  0  0
    4.9340   -0.7100   31.0300 C   0  0  0  0  0  0  0  0  0  0  0  0
    4.1110    0.0350   32.0720 C   0  0  0  0  0  0  0  0  0  0  0  0
    2.6800   -0.5160   32.0830 C   0  0  0  0  0  0  0  0  0  0  0  0
    2.2450   -1.6290   31.1640 C   0  0  0  0  0  0  0  0  0  0  0  0
    3.2320   -2.2360   30.1960 C   0  0  0  0  0  0  0  0  0  0  0  0
    4.5050   -1.7240   30.2060 C   0  0  0  0  0  0  0  0  0  0  0  0
    6.2630   -2.4790   27.3820 C   0  0  0  0  0  0  0  0  0  0  0  0
    7.4050   -3.1450   23.7300 C   0  0  0  0  0  0  0  0  0  0  0  0
    7.7030   -3.2600   22.2310 C   0  0  0  0  0  0  0  0  0  0  0  0
  1  2  1  0
  2  3  2  0
  2  4  1  0
  4  5  1  0
  5  6  1  0
  6  7  1  0
  7  8  1  0
  8  9  2  0
  8 10  1  0
 10 11  1  0
 11 12  1  0
 12 13  1  0
 13 14  1  1
 14 15  2  0
 15 16  1  0
 15 17  1  0
 17 18  1  0
 18 19  1  0
 19 20  2  0
 20 21  1  0
 21 22  2  0
 14 23  1  0
 18 23  2  0
 22 23  1  0
 10 24  1  0
 13 24  1  0
  7 25  1  0
  4 26  1  0
 25 26  1  0
M  END
