piperidine-amides-23925-covalent
     RDKit          3D

 23 25  0  0  0  0  0  0  0  0999 V2000
    7.0720   -3.3680   19.3540 C   0  0  0  0  0  0  0  0  0  0  0  0
    6.4430   -4.2250   20.3690 C   0  0  0  0  0  0  0  0  0  0  0  0
    5.4340   -4.8830   20.0000 O   0  0  0  0  0  0  0  0  0  0  0  0
    7.0010   -4.3220   21.6770 N   0  0  0  0  0  0  0  0  0  0  0  0
    6.5790   -5.3760   22.5410 C   0  0  0  0  0  0  0  0  0  0  0  0
    6.0720   -4.8910   23.8220 C   0  0  0  0  0  0  0  0  0  0  0  0
    6.3930   -3.4680   24.0480 C   0  0  0  0  0  0  0  0  0  0  0  0
    6.0510   -2.8880   25.4060 C   0  0  0  0  0  0  0  0  0  0  0  0
    6.1140   -1.6680   25.5620 O   0  0  0  0  0  0  0  0  0  0  0  0
    5.5960   -3.6430   26.4980 N   0  0  0  0  0  0  0  0  0  0  0  0
    6.1080   -3.8970   27.8040 C   0  0  0  0  0  0  0  0  0  0  0  0
    5.7450   -5.1820   28.5480 C   0  0  0  0  0  0  0  0  0  0  0  0
    6.9650   -5.6480   29.2530 C   0  0  0  0  0  0  0  0  0  0  0  0
    4.5890   -5.1800   29.4520 C   0  0  0  0  0  0  0  0  0  0  0  0
    5.4860   -6.8160   27.7710 S   0  0  0  0  0  0  0  0  0  0  0  0
    4.5890   -6.1840   26.4040 C   0  0  0  0  0  0  0  0  0  0  0  0
    3.6450   -6.7840   25.5260 C   0  0  0  0  0  0  0  0  0  0  0  0
    4.3920   -5.4640   25.8510 C   0  0  0  0  0  0  0  0  0  0  0  0
    5.0070   -6.3860   26.9980 C   0  0  0  0  0  0  0  0  0  0  0  0
    5.7320   -5.0990   27.3140 C   0  0  0  0  0  0  0  0  0  0  0  0
    4.9050   -4.7600   26.1570 C   0  0  0  0  0  0  0  0  0  0  0  0
    7.8020   -3.2380   23.6200 C   0  0  0  0  0  0  0  0  0  0  0  0
    7.7820   -3.2120   22.2210 C   0  0  0  0  0  0  0  0  0  0  0  0
  1  2  1  0
  2  3  2  0
  2  4  1  0
  4  5  1  0
  5  6  1  0
  6  7  1  0
  7  8  1  0
  8  9  2  0
  8 10  1  0
 10 11  1  0
 11 12  1  0
 12 13  1  0
 12 14  1  0
 12 15  1  0
 15 16  1  0
 16 17  2  0
 17 18  1  0
 18 19  2  0
 19 20  1  0
 10 21  1  0
 16 21  1  0
 20 21  2  0
  7 22  1  0
  4 23  1  0
 22 23  1  0
M  END
