piperidine-amides-14654-covalent
     RDKit          3D

 23 24  0  0  0  0  0  0  0  0999 V2000
    7.0770   -3.2590   19.1930 C   0  0  0  0  0  0  0  0  0  0  0  0
    6.3120   -4.0030   20.2020 C   0  0  0  0  0  0  0  0  0  0  0  0
    5.2470   -4.5350   19.8600 O   0  0  0  0  0  0  0  0  0  0  0  0
    6.7950   -4.1480   21.5210 N   0  0  0  0  0  0  0  0  0  0  0  0
    7.6600   -3.1350   22.0730 C   0  0  0  0  0  0  0  0  0  0  0  0
    7.0790   -2.6110   23.3460 C   0  0  0  0  0  0  0  0  0  0  0  0
    6.7730   -3.8360   24.1660 C   0  0  0  0  0  0  0  0  0  0  0  0
    6.1390   -3.4210   25.4610 C   0  0  0  0  0  0  0  0  0  0  0  0
    4.9060   -3.3960   25.4930 O   0  0  0  0  0  0  0  0  0  0  0  0
    6.9990   -3.0770   26.5110 N   0  0  0  0  0  0  0  0  0  0  0  0
    7.4950   -4.0040   27.4870 C   0  0  2  0  0  0  0  0  0  0  0  0
    8.3720   -4.9960   27.0230 C   0  0  0  0  0  0  0  0  0  0  0  0
    8.9150   -4.7420   25.6820 N   0  0  0  0  0  0  0  0  0  0  0  0
    8.7940   -6.0520   27.5150 O   0  0  0  0  0  0  0  0  0  0  0  0
    6.3190   -4.7340   28.0120 C   0  0  0  0  0  0  0  0  0  0  0  0
    6.2400   -6.1120   27.7580 C   0  0  0  0  0  0  0  0  0  0  0  0
    5.0730   -6.9180   28.2650 C   0  0  0  0  0  0  0  0  0  0  0  0
    3.9450   -6.2560   29.0690 C   0  0  0  0  0  0  0  0  0  0  0  0
    2.5630   -7.1860   29.6740 Cl  0  0  0  0  0  0  0  0  0  0  0  0
    4.0990   -4.8160   29.2920 C   0  0  0  0  0  0  0  0  0  0  0  0
    5.3040   -4.1240   28.7390 C   0  0  0  0  0  0  0  0  0  0  0  0
    5.9150   -4.8370   23.5140 C   0  0  0  0  0  0  0  0  0  0  0  0
    6.4540   -5.2990   22.3320 C   0  0  0  0  0  0  0  0  0  0  0  0
  1  2  1  0
  2  3  2  0
  2  4  1  0
  4  5  1  0
  5  6  1  0
  6  7  1  0
  7  8  1  0
  8  9  2  0
  8 10  1  0
 11 10  1  6
 11 12  1  0
 12 13  1  0
 12 14  2  0
 11 15  1  0
 15 16  2  0
 16 17  1  0
 17 18  2  0
 18 19  1  0
 18 20  1  0
 15 21  1  0
 20 21  2  0
  7 22  1  0
  4 23  1  0
 22 23  1  0
M  END
