piperidine-amides-26849-covalent
     RDKit          3D

 25 27  0  0  0  0  0  0  0  0999 V2000
    7.1290   -3.3470   19.2860 C   0  0  0  0  0  0  0  0  0  0  0  0
    6.3930   -4.1180   20.2830 C   0  0  0  0  0  0  0  0  0  0  0  0
    5.3090   -4.6430   19.9170 O   0  0  0  0  0  0  0  0  0  0  0  0
    6.9420   -4.2800   21.5470 N   0  0  0  0  0  0  0  0  0  0  0  0
    6.6370   -5.4290   22.3640 C   0  0  0  0  0  0  0  0  0  0  0  0
    5.8940   -4.9420   23.5790 C   0  0  0  0  0  0  0  0  0  0  0  0
    6.6060   -3.8120   24.2890 C   0  0  0  0  0  0  0  0  0  0  0  0
    5.7790   -3.2710   25.3850 C   0  0  0  0  0  0  0  0  0  0  0  0
    5.0290   -2.3060   25.1370 O   0  0  0  0  0  0  0  0  0  0  0  0
    5.7620   -3.8020   26.6790 N   0  0  0  0  0  0  0  0  0  0  0  0
    6.3520   -3.2140   27.8120 C   0  0  0  0  0  0  0  0  0  0  0  0
    6.6670   -4.4360   28.6410 C   0  0  0  0  0  0  0  0  0  0  0  0
    5.7350   -5.1770   29.3000 C   0  0  0  0  0  0  0  0  0  0  0  0
    4.5950   -4.7430   29.9670 C   0  0  1  0  0  0  0  0  0  0  0  0
    3.7800   -4.5210   28.9690 O   0  0  0  0  0  0  0  0  0  0  0  0
    4.0620   -5.6520   30.8940 C   0  0  0  0  0  0  0  0  0  0  0  0
    2.7770   -6.1090   30.6820 C   0  0  0  0  0  0  0  0  0  0  0  0
    2.5060   -7.4180   31.0480 C   0  0  0  0  0  0  0  0  0  0  0  0
    2.8890   -7.8570   32.4550 C   0  0  0  0  0  0  0  0  0  0  0  0
    4.3860   -7.5160   32.4440 C   0  0  0  0  0  0  0  0  0  0  0  0
    4.8710   -6.6940   31.2790 C   0  0  0  0  0  0  0  0  0  0  0  0
    5.4640   -5.7790   27.9460 C   0  0  0  0  0  0  0  0  0  0  0  0
    4.9590   -4.9200   26.9720 C   0  0  0  0  0  0  0  0  0  0  0  0
    6.9120   -2.7040   23.3140 C   0  0  0  0  0  0  0  0  0  0  0  0
    7.7300   -3.2380   22.1680 C   0  0  0  0  0  0  0  0  0  0  0  0
  1  2  1  0
  2  3  2  0
  2  4  1  0
  4  5  1  0
  5  6  1  0
  6  7  1  0
  7  8  1  0
  8  9  2  0
  8 10  1  0
 10 11  1  0
 11 12  1  0
 12 13  1  0
 13 14  1  0
 14 15  1  6
 14 16  1  0
 16 17  1  0
 17 18  1  0
 18 19  1  0
 19 20  1  0
 16 21  1  0
 20 21  1  0
 13 22  1  0
 10 23  1  0
 22 23  1  0
  7 24  1  0
  4 25  1  0
 24 25  1  0
M  END
