piperidine-amides-32956-covalent
     RDKit          3D

 29 31  0  0  0  0  0  0  0  0999 V2000
    7.0730   -3.3420   19.3690 C   0  0  0  0  0  0  0  0  0  0  0  0
    6.4090   -4.2210   20.3710 C   0  0  0  0  0  0  0  0  0  0  0  0
    5.4250   -4.8930   20.0000 O   0  0  0  0  0  0  0  0  0  0  0  0
    6.9230   -4.3140   21.6960 N   0  0  0  0  0  0  0  0  0  0  0  0
    6.6460   -5.4340   22.5430 C   0  0  0  0  0  0  0  0  0  0  0  0
    5.7980   -4.9230   23.7240 C   0  0  0  0  0  0  0  0  0  0  0  0
    6.3660   -3.6580   24.3390 C   0  0  0  0  0  0  0  0  0  0  0  0
    5.3060   -2.9910   25.1620 C   0  0  0  0  0  0  0  0  0  0  0  0
    4.2770   -2.7290   24.5400 O   0  0  0  0  0  0  0  0  0  0  0  0
    5.4270   -2.6800   26.5370 N   0  0  0  0  0  0  0  0  0  0  0  0
    5.6850   -1.3900   27.1600 C   0  0  0  0  0  0  0  0  0  0  0  0
    5.9260   -1.2860   28.5380 C   0  0  0  0  0  0  0  0  0  0  0  0
    6.2110   -0.1100   29.2520 C   0  0  0  0  0  0  0  0  0  0  0  0
    6.2640    1.0860   28.6080 C   0  0  0  0  0  0  0  0  0  0  0  0
    6.0150    1.0960   27.1600 C   0  0  0  0  0  0  0  0  0  0  0  0
    5.7140   -0.1920   26.4060 C   0  0  0  0  0  0  0  0  0  0  0  0
    5.4880   -0.0630   24.9930 N   0  0  0  0  0  0  0  0  0  0  0  0
    4.4110   -0.4830   24.5340 O   0  0  0  0  0  0  0  0  0  0  0  0
    6.0110    1.0260   24.3610 O   0  0  0  0  0  0  0  0  0  0  0  0
    5.1410   -3.8010   27.4510 C   0  0  0  0  0  0  0  0  0  0  0  0
    5.8640   -4.9260   27.3700 C   0  0  0  0  0  0  0  0  0  0  0  0
    6.8550   -5.0220   26.4360 F   0  0  0  0  0  0  0  0  0  0  0  0
    5.6510   -6.0760   28.2380 C   0  0  0  0  0  0  0  0  0  0  0  0
    4.4920   -5.7560   29.2090 C   0  0  0  0  0  0  0  0  0  0  0  0
    3.6150   -4.6690   29.4600 C   0  0  0  0  0  0  0  0  0  0  0  0
    4.1530   -3.6920   28.3700 C   0  0  0  0  0  0  0  0  0  0  0  0
    3.4140   -2.5220   28.4360 F   0  0  0  0  0  0  0  0  0  0  0  0
    6.9380   -2.6440   23.3840 C   0  0  0  0  0  0  0  0  0  0  0  0
    7.7710   -3.2990   22.2850 C   0  0  0  0  0  0  0  0  0  0  0  0
  1  2  1  0
  2  3  2  0
  2  4  1  0
  4  5  1  0
  5  6  1  0
  6  7  1  0
  7  8  1  0
  8  9  2  0
  8 10  1  0
 10 11  1  0
 11 12  2  0
 12 13  1  0
 13 14  2  0
 14 15  1  0
 11 16  1  0
 15 16  2  0
 16 17  1  0
 17 18  2  0
 17 19  1  0
 10 20  1  0
 20 21  2  0
 21 22  1  0
 21 23  1  0
 23 24  2  0
 24 25  1  0
 20 26  1  0
 25 26  2  0
 26 27  1  0
  7 28  1  0
  4 29  1  0
 28 29  1  0
M  CHG  2  17   1  19  -1
M  END
