piperidine-amides-30156-covalent
     RDKit          3D

 27 28  0  0  0  0  0  0  0  0999 V2000
    7.0790   -3.2790   19.3210 C   0  0  0  0  0  0  0  0  0  0  0  0
    6.3460   -4.0690   20.3080 C   0  0  0  0  0  0  0  0  0  0  0  0
    5.3550   -4.7120   19.9500 O   0  0  0  0  0  0  0  0  0  0  0  0
    6.7900   -4.1450   21.6840 N   0  0  0  0  0  0  0  0  0  0  0  0
    6.6510   -5.3900   22.3980 C   0  0  0  0  0  0  0  0  0  0  0  0
    6.2120   -5.1560   23.8230 C   0  0  0  0  0  0  0  0  0  0  0  0
    6.0850   -3.6600   24.0490 C   0  0  0  0  0  0  0  0  0  0  0  0
    5.5150   -3.3810   25.4080 C   0  0  0  0  0  0  0  0  0  0  0  0
    4.3140   -3.6020   25.6370 O   0  0  0  0  0  0  0  0  0  0  0  0
    6.2960   -2.8470   26.4740 N   0  0  0  0  0  0  0  0  0  0  0  0
    5.8330   -3.1510   27.8200 C   0  0  0  0  0  0  0  0  0  0  0  0
    6.2440   -4.5470   28.1480 C   0  0  0  0  0  0  0  0  0  0  0  0
    5.6260   -5.3510   29.0580 C   0  0  0  0  0  0  0  0  0  0  0  0
    4.4430   -5.0390   29.7370 C   0  0  0  0  0  0  0  0  0  0  0  0
    3.9430   -5.9740   30.6280 C   0  0  0  0  0  0  0  0  0  0  0  0
    4.6190   -7.2480   30.8610 C   0  0  0  0  0  0  0  0  0  0  0  0
    4.1520   -8.1080   31.6770 O   0  0  0  0  0  0  0  0  0  0  0  0
    2.7560   -8.1480   31.6520 C   0  0  0  0  0  0  0  0  0  0  0  0
    5.7510   -7.4620   30.1680 C   0  0  0  0  0  0  0  0  0  0  0  0
    6.2460   -6.5370   29.2850 C   0  0  0  0  0  0  0  0  0  0  0  0
    6.7940   -1.4930   26.5250 C   0  0  0  0  0  0  0  0  0  0  0  0
    5.8450   -0.4850   26.4930 C   0  0  0  0  0  0  0  0  0  0  0  0
    6.1820    0.4990   27.4160 C   0  0  0  0  0  0  0  0  0  0  0  0
    5.6770   -0.0010   25.2280 C   0  0  0  0  0  0  0  0  0  0  0  0
    4.4570   -0.9190   26.8080 C   0  0  0  0  0  0  0  0  0  0  0  0
    7.3450   -2.9590   23.6830 C   0  0  0  0  0  0  0  0  0  0  0  0
    7.6710   -3.1180   22.2260 C   0  0  0  0  0  0  0  0  0  0  0  0
  1  2  1  0
  2  3  2  0
  2  4  1  0
  4  5  1  0
  5  6  1  0
  6  7  1  0
  7  8  1  0
  8  9  2  0
  8 10  1  0
 10 11  1  0
 11 12  1  0
 12 13  1  0
 13 14  2  0
 14 15  1  0
 15 16  2  0
 16 17  1  0
 17 18  1  0
 16 19  1  0
 13 20  1  0
 19 20  2  0
 10 21  1  0
 22 21  1  0
 22 23  1  0
 22 24  1  0
 22 25  1  0
  7 26  1  0
  4 27  1  0
 26 27  1  0
M  END
