piperidine-amides-17139-covalent
     RDKit          3D

 20 21  0  0  0  0  0  0  0  0999 V2000
    7.0780   -3.4070   19.4080 C   0  0  0  0  0  0  0  0  0  0  0  0
    6.4060   -4.2620   20.3970 C   0  0  0  0  0  0  0  0  0  0  0  0
    5.3950   -4.8910   20.0000 O   0  0  0  0  0  0  0  0  0  0  0  0
    6.9360   -4.3970   21.7130 N   0  0  0  0  0  0  0  0  0  0  0  0
    6.5750   -5.5290   22.5010 C   0  0  0  0  0  0  0  0  0  0  0  0
    6.0220   -5.1500   23.7980 C   0  0  0  0  0  0  0  0  0  0  0  0
    5.9510   -3.6860   23.9430 C   0  0  0  0  0  0  0  0  0  0  0  0
    5.1220   -3.1850   25.1090 C   0  0  0  0  0  0  0  0  0  0  0  0
    4.1520   -2.4680   24.8460 O   0  0  0  0  0  0  0  0  0  0  0  0
    5.3270   -3.4510   26.4760 N   0  0  0  0  0  0  0  0  0  0  0  0
    6.4990   -3.3510   27.1440 C   0  0  0  0  0  0  0  0  0  0  0  0
    6.7520   -4.4020   28.1200 C   0  0  0  0  0  0  0  0  0  0  0  0
    5.6050   -4.2810   29.0540 C   0  0  0  0  0  0  0  0  0  0  0  0
    4.3710   -4.2920   28.4690 C   0  0  2  0  0  0  0  0  0  0  0  0
    4.0600   -5.4960   27.8850 O   0  0  0  0  0  0  0  0  0  0  0  0
    4.0040   -6.5260   28.8090 C   0  0  0  0  0  0  0  0  0  0  0  0
    5.2190   -7.3570   28.5920 C   0  0  0  0  0  0  0  0  0  0  0  0
    4.2220   -3.3040   27.3690 C   0  0  0  0  0  0  0  0  0  0  0  0
    7.2770   -3.0110   23.7380 C   0  0  0  0  0  0  0  0  0  0  0  0
    7.7110   -3.3070   22.3060 C   0  0  0  0  0  0  0  0  0  0  0  0
  1  2  1  0
  2  3  2  0
  2  4  1  0
  4  5  1  0
  5  6  1  0
  6  7  1  0
  7  8  1  0
  8  9  2  0
  8 10  1  0
 10 11  1  0
 11 12  1  0
 12 13  1  0
 13 14  1  0
 14 15  1  6
 15 16  1  0
 16 17  1  0
 10 18  1  0
 14 18  1  0
  7 19  1  0
  4 20  1  0
 19 20  1  0
M  END
