piperidine-amides-26122-covalent
     RDKit          3D

 25 27  0  0  0  0  0  0  0  0999 V2000
    7.0790   -3.3480   19.3060 C   0  0  0  0  0  0  0  0  0  0  0  0
    6.3970   -4.1890   20.2860 C   0  0  0  0  0  0  0  0  0  0  0  0
    5.3520   -4.7760   19.9630 O   0  0  0  0  0  0  0  0  0  0  0  0
    6.9350   -4.3910   21.5650 N   0  0  0  0  0  0  0  0  0  0  0  0
    6.6860   -5.6010   22.3170 C   0  0  0  0  0  0  0  0  0  0  0  0
    5.8320   -5.2080   23.5030 C   0  0  0  0  0  0  0  0  0  0  0  0
    6.3330   -3.9740   24.2100 C   0  0  0  0  0  0  0  0  0  0  0  0
    5.2620   -3.3570   25.0250 C   0  0  0  0  0  0  0  0  0  0  0  0
    4.1710   -3.0110   24.5030 O   0  0  0  0  0  0  0  0  0  0  0  0
    5.4080   -3.1100   26.3900 N   0  0  0  0  0  0  0  0  0  0  0  0
    6.7100   -3.2990   26.8620 C   0  0  0  0  0  0  0  0  0  0  0  0
    6.4520   -4.4320   27.7710 C   0  0  1  0  0  0  0  0  0  0  0  0
    7.4710   -5.4140   28.0500 C   0  0  0  0  0  0  0  0  0  0  0  0
    6.6610   -6.4560   28.7650 C   0  0  0  0  0  0  0  0  0  0  0  0
    8.0460   -6.0810   26.8820 C   0  0  0  0  0  0  0  0  0  0  0  0
    6.2440   -3.8860   29.0930 C   0  0  0  0  0  0  0  0  0  0  0  0
    5.0070   -4.2160   28.5620 C   0  0  0  0  0  0  0  0  0  0  0  0
    4.0120   -4.9790   29.3030 C   0  0  0  0  0  0  0  0  0  0  0  0
    2.6030   -5.3810   28.7940 C   0  0  0  0  0  0  0  0  0  0  0  0
    1.7150   -6.0960   29.5380 F   0  0  0  0  0  0  0  0  0  0  0  0
    2.3090   -4.9030   27.3970 C   0  0  0  0  0  0  0  0  0  0  0  0
    3.5160   -4.1960   26.9950 C   0  0  0  0  0  0  0  0  0  0  0  0
    4.5910   -3.8450   27.2840 C   0  0  0  0  0  0  0  0  0  0  0  0
    6.8580   -2.9140   23.3340 C   0  0  0  0  0  0  0  0  0  0  0  0
    7.5850   -3.3370   22.2650 C   0  0  0  0  0  0  0  0  0  0  0  0
  1  2  1  0
  2  3  2  0
  2  4  1  0
  4  5  1  0
  5  6  1  0
  6  7  1  0
  7  8  1  0
  8  9  2  0
  8 10  1  0
 10 11  1  0
 11 12  1  0
 12 13  1  1
 13 14  1  0
 13 15  1  0
 12 16  1  0
 16 17  1  0
 17 18  2  0
 18 19  1  0
 19 20  1  0
 19 21  2  0
 21 22  1  0
 10 23  1  0
 17 23  1  0
 22 23  2  0
  7 24  1  0
  4 25  1  0
 24 25  1  0
M  END
