piperidine-amides-31866-covalent
     RDKit          3D

 29 32  0  0  0  0  0  0  0  0999 V2000
    7.0450   -3.4060   19.3280 C   0  0  0  0  0  0  0  0  0  0  0  0
    6.4060   -4.2030   20.3480 C   0  0  0  0  0  0  0  0  0  0  0  0
    5.3810   -4.8660   19.9940 O   0  0  0  0  0  0  0  0  0  0  0  0
    6.8900   -4.3340   21.6720 N   0  0  0  0  0  0  0  0  0  0  0  0
    6.6110   -5.5830   22.3840 C   0  0  0  0  0  0  0  0  0  0  0  0
    5.5480   -4.9930   23.3680 C   0  0  0  0  0  0  0  0  0  0  0  0
    6.3240   -4.1190   24.3260 C   0  0  0  0  0  0  0  0  0  0  0  0
    5.3040   -3.5300   25.4060 C   0  0  0  0  0  0  0  0  0  0  0  0
    4.2390   -3.3710   24.8330 O   0  0  0  0  0  0  0  0  0  0  0  0
    5.7980   -3.3240   26.5870 N   0  0  0  0  0  0  0  0  0  0  0  0
    6.4990   -2.6450   27.5200 C   0  0  0  0  0  0  0  0  0  0  0  0
    6.8000   -3.0100   28.7640 C   0  0  0  0  0  0  0  0  0  0  0  0
    6.1570   -4.1900   28.7070 C   0  0  0  0  0  0  0  0  0  0  0  0
    4.7810   -4.3830   28.1760 C   0  0  0  0  0  0  0  0  0  0  0  0
    4.2100   -5.8600   28.1750 C   0  0  0  0  0  0  0  0  0  0  0  0
    5.0110   -6.9060   28.6700 C   0  0  0  0  0  0  0  0  0  0  0  0
    6.2900   -6.9690   29.2080 C   0  0  0  0  0  0  0  0  0  0  0  0
    6.5150   -5.4860   29.0600 C   0  0  0  0  0  0  0  0  0  0  0  0
    5.1030   -5.1650   28.4240 C   0  0  1  0  0  0  0  0  0  0  0  0
    4.1120   -5.0070   29.4200 C   0  0  0  0  0  0  0  0  0  0  0  0
    4.2360   -5.6060   30.6280 C   0  0  0  0  0  0  0  0  0  0  0  0
    3.3410   -5.4940   31.6050 C   0  0  0  0  0  0  0  0  0  0  0  0
    2.2210   -4.7310   31.3990 C   0  0  0  0  0  0  0  0  0  0  0  0
    1.8260   -4.0000   30.2600 C   0  0  0  0  0  0  0  0  0  0  0  0
    2.9550   -4.2450   29.2640 C   0  0  0  0  0  0  0  0  0  0  0  0
    4.8270   -4.0720   27.4420 C   0  0  2  0  0  0  0  0  0  0  0  0
    3.6630   -4.5570   26.5610 C   0  0  0  0  0  0  0  0  0  0  0  0
    7.1310   -2.9830   23.6620 C   0  0  0  0  0  0  0  0  0  0  0  0
    7.7290   -3.3510   22.3120 C   0  0  0  0  0  0  0  0  0  0  0  0
  1  2  1  0
  2  3  2  0
  2  4  1  0
  4  5  1  0
  5  6  1  0
  6  7  1  0
  7  8  1  0
  8  9  2  0
  8 10  1  0
 10 11  1  0
 11 12  1  0
 12 13  1  0
 13 14  1  0
 14 15  2  0
 15 16  1  0
 16 17  2  0
 13 18  2  0
 17 18  1  0
 18 19  1  0
 19 20  1  1
 20 21  2  0
 21 22  1  0
 22 23  2  0
 23 24  1  0
 20 25  1  0
 24 25  2  0
 10 26  1  0
 19 26  1  0
 26 27  1  6
  7 28  1  0
  4 29  1  0
 28 29  1  0
M  END
