piperidine-amides-14082-covalent
     RDKit          3D

 25 26  0  0  0  0  0  0  0  0999 V2000
    7.1210   -3.2820   19.2860 C   0  0  0  0  0  0  0  0  0  0  0  0
    6.3090   -4.0360   20.2800 C   0  0  0  0  0  0  0  0  0  0  0  0
    5.2630   -4.5830   19.8970 O   0  0  0  0  0  0  0  0  0  0  0  0
    6.7640   -4.1530   21.6140 N   0  0  0  0  0  0  0  0  0  0  0  0
    6.6500   -5.4060   22.3320 C   0  0  0  0  0  0  0  0  0  0  0  0
    6.1480   -5.1270   23.7610 C   0  0  0  0  0  0  0  0  0  0  0  0
    6.0290   -3.6540   23.9390 C   0  0  0  0  0  0  0  0  0  0  0  0
    5.5240   -3.2230   25.2730 C   0  0  0  0  0  0  0  0  0  0  0  0
    4.4260   -2.6610   25.2690 O   0  0  0  0  0  0  0  0  0  0  0  0
    6.2490   -3.4430   26.4520 N   0  0  0  0  0  0  0  0  0  0  0  0
    5.8790   -4.2540   27.5720 C   0  0  2  0  0  0  0  0  0  0  0  0
    6.6740   -4.3110   28.6820 C   0  0  0  0  0  0  0  0  0  0  0  0
    5.8500   -5.6870   27.0660 C   0  0  0  0  0  0  0  0  0  0  0  0
    5.6070   -6.1040   25.7760 O   0  0  0  0  0  0  0  0  0  0  0  0
    4.6280   -4.1260   28.2110 C   0  0  0  0  0  0  0  0  0  0  0  0
    4.3640   -5.3220   29.0850 C   0  0  0  0  0  0  0  0  0  0  0  0
    5.4490   -6.2500   29.6750 C   0  0  0  0  0  0  0  0  0  0  0  0
    4.9790   -7.3990   30.5320 C   0  0  0  0  0  0  0  0  0  0  0  0
    3.6470   -7.5730   30.7470 C   0  0  0  0  0  0  0  0  0  0  0  0
    2.4850   -6.7990   30.2670 C   0  0  0  0  0  0  0  0  0  0  0  0
    2.9140   -5.6100   29.3870 C   0  0  0  0  0  0  0  0  0  0  0  0
    1.9320   -4.7730   28.8460 O   0  0  0  0  0  0  0  0  0  0  0  0
    0.9830   -5.2140   27.9160 C   0  0  0  0  0  0  0  0  0  0  0  0
    7.2820   -2.9070   23.6240 C   0  0  0  0  0  0  0  0  0  0  0  0
    7.6530   -3.1420   22.1810 C   0  0  0  0  0  0  0  0  0  0  0  0
  1  2  1  0
  2  3  2  0
  2  4  1  0
  4  5  1  0
  5  6  1  0
  6  7  1  0
  7  8  1  0
  8  9  2  0
  8 10  1  0
 11 10  1  0
 11 12  1  1
 11 13  1  0
 13 14  1  0
 11 15  1  0
 15 16  1  0
 16 17  2  0
 17 18  1  0
 18 19  2  0
 19 20  1  0
 16 21  1  0
 20 21  2  0
 21 22  1  0
 22 23  1  0
  7 24  1  0
  4 25  1  0
 24 25  1  0
M  END
