piperidine-amides-28651-covalent
     RDKit          3D

 26 28  0  0  0  0  0  0  0  0999 V2000
    7.0670   -3.3530   19.3710 C   0  0  0  0  0  0  0  0  0  0  0  0
    6.4230   -4.2390   20.3360 C   0  0  0  0  0  0  0  0  0  0  0  0
    5.3840   -4.8260   19.9780 O   0  0  0  0  0  0  0  0  0  0  0  0
    7.0000   -4.4630   21.6130 N   0  0  0  0  0  0  0  0  0  0  0  0
    6.4230   -5.4840   22.4230 C   0  0  0  0  0  0  0  0  0  0  0  0
    5.6000   -4.8110   23.4830 C   0  0  0  0  0  0  0  0  0  0  0  0
    6.5540   -3.9820   24.3250 C   0  0  0  0  0  0  0  0  0  0  0  0
    5.8320   -3.3210   25.4770 C   0  0  0  0  0  0  0  0  0  0  0  0
    5.2190   -2.3020   25.1700 O   0  0  0  0  0  0  0  0  0  0  0  0
    5.8200   -3.8390   26.7820 N   0  0  0  0  0  0  0  0  0  0  0  0
    4.6970   -3.5150   27.6080 C   0  0  0  0  0  0  0  0  0  0  0  0
    4.0740   -4.5340   28.3780 C   0  0  0  0  0  0  0  0  0  0  0  0
    5.1180   -5.4740   28.7900 N   0  0  0  0  0  0  0  0  0  0  0  0
    5.0360   -6.8390   29.1220 C   0  0  1  0  0  0  0  0  0  0  0  0
    6.1280   -7.4200   29.7150 C   0  0  0  0  0  0  0  0  0  0  0  0
    3.9320   -7.0290   30.2140 C   0  0  0  0  0  0  0  0  0  0  0  0
    2.7720   -7.3570   29.7050 N   0  0  0  0  0  0  0  0  0  0  0  0
    2.0270   -7.4560   30.7770 C   0  0  0  0  0  0  0  0  0  0  0  0
    0.5910   -7.7980   30.9030 C   0  0  0  0  0  0  0  0  0  0  0  0
   -0.0480   -6.6170   30.2310 C   0  0  0  0  0  0  0  0  0  0  0  0
    2.7080   -7.1920   32.0160 N   0  0  0  0  0  0  0  0  0  0  0  0
    3.9590   -6.9140   31.6020 O   0  0  0  0  0  0  0  0  0  0  0  0
    6.4360   -5.0400   28.5930 C   0  0  0  0  0  0  0  0  0  0  0  0
    6.4190   -3.7840   28.0890 C   0  0  0  0  0  0  0  0  0  0  0  0
    7.0980   -2.8810   23.4660 C   0  0  0  0  0  0  0  0  0  0  0  0
    7.7320   -3.3630   22.1970 C   0  0  0  0  0  0  0  0  0  0  0  0
  1  2  1  0
  2  3  2  0
  2  4  1  0
  4  5  1  0
  5  6  1  0
  6  7  1  0
  7  8  1  0
  8  9  2  0
  8 10  1  0
 10 11  1  0
 11 12  1  0
 12 13  1  0
 13 14  1  0
 14 15  1  1
 14 16  1  0
 16 17  2  0
 17 18  1  0
 18 19  1  0
 19 20  1  0
 18 21  2  0
 16 22  1  0
 21 22  1  0
 13 23  1  0
 10 24  1  0
 23 24  1  0
  7 25  1  0
  4 26  1  0
 25 26  1  0
M  END
