piperidine-amides-29253-covalent
     RDKit          3D

 26 27  0  0  0  0  0  0  0  0999 V2000
    7.0680   -3.3340   19.3140 C   0  0  0  0  0  0  0  0  0  0  0  0
    6.3940   -4.1750   20.2960 C   0  0  0  0  0  0  0  0  0  0  0  0
    5.3550   -4.7640   19.9600 O   0  0  0  0  0  0  0  0  0  0  0  0
    6.9700   -4.3460   21.5800 N   0  0  0  0  0  0  0  0  0  0  0  0
    6.5960   -5.5070   22.3260 C   0  0  0  0  0  0  0  0  0  0  0  0
    5.7450   -5.0720   23.4790 C   0  0  0  0  0  0  0  0  0  0  0  0
    6.5580   -4.0640   24.2600 C   0  0  0  0  0  0  0  0  0  0  0  0
    5.7640   -3.5780   25.4340 C   0  0  0  0  0  0  0  0  0  0  0  0
    4.6690   -3.0970   25.1580 O   0  0  0  0  0  0  0  0  0  0  0  0
    6.2730   -3.6830   26.7270 N   0  0  0  0  0  0  0  0  0  0  0  0
    6.1570   -2.6030   27.6000 C   0  0  0  0  0  0  0  0  0  0  0  0
    5.3050   -2.8450   28.6680 C   0  0  0  0  0  0  0  0  0  0  0  0
    5.3430   -4.0310   29.3510 C   0  0  0  0  0  0  0  0  0  0  0  0
    4.3150   -4.0300   30.3440 N   0  0  0  0  0  0  0  0  0  0  0  0
    3.8800   -2.7450   30.7210 C   0  0  0  0  0  0  0  0  0  0  0  0
    3.4370   -5.1580   30.5560 C   0  0  0  0  0  0  0  0  0  0  0  0
    2.2960   -5.3870   29.8290 O   0  0  0  0  0  0  0  0  0  0  0  0
    3.7450   -6.0670   31.5580 O   0  0  0  0  0  0  0  0  0  0  0  0
    4.4890   -7.2300   31.2660 C   0  0  0  0  0  0  0  0  0  0  0  0
    4.6500   -7.9910   32.5260 C   0  0  0  0  0  0  0  0  0  0  0  0
    3.5980   -7.9500   30.2880 C   0  0  0  0  0  0  0  0  0  0  0  0
    5.6660   -7.0000   30.5530 C   0  0  0  0  0  0  0  0  0  0  0  0
    5.0440   -4.8360   28.1100 C   0  0  0  0  0  0  0  0  0  0  0  0
    6.1650   -4.9350   27.3940 C   0  0  0  0  0  0  0  0  0  0  0  0
    6.9700   -2.8790   23.4580 C   0  0  0  0  0  0  0  0  0  0  0  0
    7.6960   -3.2830   22.2160 C   0  0  0  0  0  0  0  0  0  0  0  0
  1  2  1  0
  2  3  2  0
  2  4  1  0
  4  5  1  0
  5  6  1  0
  6  7  1  0
  7  8  1  0
  8  9  2  0
  8 10  1  0
 10 11  1  0
 11 12  1  0
 12 13  1  0
 13 14  1  0
 14 15  1  0
 14 16  1  0
 16 17  2  0
 16 18  1  0
 19 18  1  0
 19 20  1  0
 19 21  1  0
 19 22  1  0
 13 23  1  0
 10 24  1  0
 23 24  1  0
  7 25  1  0
  4 26  1  0
 25 26  1  0
M  END
