piperidine-amides-4299-covalent
     RDKit          3D

 26 28  0  0  0  0  0  0  0  0999 V2000
    7.1260   -3.2980   19.2860 C   0  0  0  0  0  0  0  0  0  0  0  0
    6.3440   -4.0590   20.2690 C   0  0  0  0  0  0  0  0  0  0  0  0
    5.2540   -4.5290   19.8780 O   0  0  0  0  0  0  0  0  0  0  0  0
    6.8380   -4.3140   21.5720 N   0  0  0  0  0  0  0  0  0  0  0  0
    6.2590   -5.3930   22.2930 C   0  0  0  0  0  0  0  0  0  0  0  0
    5.6890   -5.0120   23.5840 C   0  0  0  0  0  0  0  0  0  0  0  0
    6.3910   -3.9100   24.2770 C   0  0  0  0  0  0  0  0  0  0  0  0
    5.5250   -3.2790   25.3340 C   0  0  0  0  0  0  0  0  0  0  0  0
    4.3220   -3.5950   25.4110 O   0  0  0  0  0  0  0  0  0  0  0  0
    6.0430   -2.3250   26.2340 N   0  0  0  0  0  0  0  0  0  0  0  0
    5.9760   -2.2770   27.6500 C   0  0  0  0  0  0  0  0  0  0  0  0
    6.4420   -1.0810   28.3670 C   0  0  0  0  0  0  0  0  0  0  0  0
    8.1640   -0.8860   27.9250 S   0  0  0  0  0  0  0  0  0  0  0  0
    8.5300   -2.5090   27.3960 C   0  0  0  0  0  0  0  0  0  0  0  0
    8.1850   -2.5660   26.0210 C   0  0  0  0  0  0  0  0  0  0  0  0
    8.4030   -3.9260   25.3170 C   0  0  0  0  0  0  0  0  0  0  0  0
    8.9190   -4.6780   26.4380 C   0  0  0  0  0  0  0  0  0  0  0  0
    9.2550   -6.0860   26.0910 C   0  0  0  0  0  0  0  0  0  0  0  0
    9.2990   -4.8220   27.7250 C   0  0  0  0  0  0  0  0  0  0  0  0
    9.0540   -3.4780   28.2780 C   0  0  0  0  0  0  0  0  0  0  0  0
    5.6290    0.1670   28.0840 C   0  0  0  0  0  0  0  0  0  0  0  0
    5.1870    0.7550   29.3550 C   0  0  0  0  0  0  0  0  0  0  0  0
    5.6720   -0.0980   30.3280 C   0  0  0  0  0  0  0  0  0  0  0  0
    6.3810   -1.1570   29.7780 C   0  0  0  0  0  0  0  0  0  0  0  0
    6.8560   -2.8440   23.3250 C   0  0  0  0  0  0  0  0  0  0  0  0
    7.6290   -3.3470   22.2880 C   0  0  0  0  0  0  0  0  0  0  0  0
  1  2  1  0
  2  3  2  0
  2  4  1  0
  4  5  1  0
  5  6  1  0
  6  7  1  0
  7  8  1  0
  8  9  2  0
  8 10  1  0
 10 11  1  0
 11 12  1  0
 12 13  1  0
 13 14  1  0
 14 15  2  0
 15 16  1  0
 16 17  2  0
 17 18  1  0
 17 19  1  0
 14 20  1  0
 19 20  2  0
 12 21  1  0
 21 22  1  0
 22 23  1  0
 12 24  1  0
 23 24  1  0
  7 25  1  0
  4 26  1  0
 25 26  1  0
M  END
