piperidine-amides-31359-covalent
     RDKit          3D

 25 27  0  0  0  0  0  0  0  0999 V2000
    7.1000   -3.3630   19.4750 C   0  0  0  0  0  0  0  0  0  0  0  0
    6.4340   -4.2180   20.4320 C   0  0  0  0  0  0  0  0  0  0  0  0
    5.4670   -4.9370   20.0120 O   0  0  0  0  0  0  0  0  0  0  0  0
    6.8540   -4.2840   21.7830 N   0  0  0  0  0  0  0  0  0  0  0  0
    6.6370   -5.5140   22.5700 C   0  0  0  0  0  0  0  0  0  0  0  0
    5.7000   -4.9610   23.7240 C   0  0  0  0  0  0  0  0  0  0  0  0
    6.3990   -3.8050   24.4390 C   0  0  0  0  0  0  0  0  0  0  0  0
    5.4050   -3.1420   25.5190 C   0  0  0  0  0  0  0  0  0  0  0  0
    4.3530   -2.8700   24.9610 O   0  0  0  0  0  0  0  0  0  0  0  0
    5.9370   -3.0610   26.6940 N   0  0  0  0  0  0  0  0  0  0  0  0
    6.4400   -3.5540   27.8490 C   0  0  0  0  0  0  0  0  0  0  0  0
    6.0310   -1.6240   26.8720 C   0  0  2  0  0  0  0  0  0  0  0  0
    7.1480   -1.0150   27.0790 C   0  0  0  0  0  0  0  0  0  0  0  0
    7.3100   -1.4960   28.6330 S   0  0  0  0  0  0  0  0  0  0  0  0
    8.4480   -0.9140   29.3540 O   0  0  0  0  0  0  0  0  0  0  0  0
    6.9080   -2.8930   28.9660 O   0  0  0  0  0  0  0  0  0  0  0  0
    6.0640   -0.4540   29.0030 C   0  0  0  0  0  0  0  0  0  0  0  0
    4.9330    0.3860   29.1360 C   0  0  0  0  0  0  0  0  0  0  0  0
    4.4470    0.0760   27.9060 C   0  0  0  0  0  0  0  0  0  0  0  0
    3.3360    0.6730   27.5890 C   0  0  0  0  0  0  0  0  0  0  0  0
    2.9780    0.0710   25.9910 Cl  0  0  0  0  0  0  0  0  0  0  0  0
    4.4770    0.4750   28.7040 C   0  0  0  0  0  0  0  0  0  0  0  0
    5.0770   -0.5510   27.6070 C   0  0  0  0  0  0  0  0  0  0  0  0
    6.8520   -2.7230   23.4290 C   0  0  0  0  0  0  0  0  0  0  0  0
    7.6170   -3.2330   22.4170 C   0  0  0  0  0  0  0  0  0  0  0  0
  1  2  1  0
  2  3  2  0
  2  4  1  0
  4  5  1  0
  5  6  1  0
  6  7  1  0
  7  8  1  0
  8  9  2  0
  8 10  1  0
 10 11  1  0
 12 10  1  1
 12 13  1  0
 14 13  1  0
 14 15  2  0
 14 16  2  0
 14 17  1  0
 17 18  1  0
 18 19  2  0
 19 20  1  0
 20 21  1  0
 20 22  2  0
 12 23  1  0
 17 23  2  0
 22 23  1  0
  7 24  1  0
  4 25  1  0
 24 25  1  0
M  END
