piperidine-amides-6330-covalent
     RDKit          3D

 25 25  0  0  0  0  0  0  0  0999 V2000
    7.0280   -3.2800   19.3460 C   0  0  0  0  0  0  0  0  0  0  0  0
    6.3450   -4.1300   20.3350 C   0  0  0  0  0  0  0  0  0  0  0  0
    5.3820   -4.8410   19.9810 O   0  0  0  0  0  0  0  0  0  0  0  0
    6.7820   -4.1840   21.6730 N   0  0  0  0  0  0  0  0  0  0  0  0
    6.7030   -5.4570   22.3590 C   0  0  0  0  0  0  0  0  0  0  0  0
    6.1510   -5.1830   23.7670 C   0  0  0  0  0  0  0  0  0  0  0  0
    6.0990   -3.6800   23.9110 C   0  0  0  0  0  0  0  0  0  0  0  0
    5.5650   -3.2370   25.2310 C   0  0  0  0  0  0  0  0  0  0  0  0
    4.4920   -2.6040   25.2190 O   0  0  0  0  0  0  0  0  0  0  0  0
    6.2330   -3.4990   26.4600 N   0  0  0  0  0  0  0  0  0  0  0  0
    6.0510   -4.7510   27.1690 C   0  0  0  0  0  0  0  0  0  0  0  0
    4.7240   -4.8020   27.8520 C   0  0  0  0  0  0  0  0  0  0  0  0
    4.7070   -4.3740   29.2010 O   0  0  0  0  0  0  0  0  0  0  0  0
    3.5740   -5.2690   27.0850 N   0  0  0  0  0  0  0  0  0  0  0  0
    2.6710   -6.3280   27.5230 C   0  0  1  0  0  0  0  0  0  0  0  0
    2.3830   -6.0610   28.8400 C   0  0  0  0  0  0  0  0  0  0  0  0
    1.5980   -6.9880   29.5310 C   0  0  0  0  0  0  0  0  0  0  0  0
    0.5290   -7.5290   28.8560 C   0  0  0  0  0  0  0  0  0  0  0  0
    2.5550   -8.1820   29.6820 C   0  0  0  0  0  0  0  0  0  0  0  0
    1.6130   -6.4390   26.6610 C   0  0  0  0  0  0  0  0  0  0  0  0
    0.6040   -5.6570   26.7400 O   0  0  0  0  0  0  0  0  0  0  0  0
    1.5690   -7.3870   25.6510 O   0  0  0  0  0  0  0  0  0  0  0  0
    2.6890   -8.2200   25.3820 C   0  0  0  0  0  0  0  0  0  0  0  0
    7.4520   -3.0890   23.6120 C   0  0  0  0  0  0  0  0  0  0  0  0
    7.6540   -3.1560   22.2210 C   0  0  0  0  0  0  0  0  0  0  0  0
  1  2  1  0
  2  3  2  0
  2  4  1  0
  4  5  1  0
  5  6  1  0
  6  7  1  0
  7  8  1  0
  8  9  2  0
  8 10  1  0
 10 11  1  0
 11 12  1  0
 12 13  2  0
 12 14  1  0
 14 15  1  0
 15 16  1  1
 16 17  1  0
 17 18  1  0
 17 19  1  0
 15 20  1  0
 20 21  2  0
 20 22  1  0
 22 23  1  0
  7 24  1  0
  4 25  1  0
 24 25  1  0
M  END
