piperidine-amides-33979-covalent
     RDKit          3D

 30 32  0  0  0  0  0  0  0  0999 V2000
    7.0310   -3.3450   19.4140 C   0  0  0  0  0  0  0  0  0  0  0  0
    6.3720   -4.2370   20.3860 C   0  0  0  0  0  0  0  0  0  0  0  0
    5.4270   -4.9660   20.0100 O   0  0  0  0  0  0  0  0  0  0  0  0
    6.8130   -4.3050   21.7270 N   0  0  0  0  0  0  0  0  0  0  0  0
    6.6710   -5.5700   22.4330 C   0  0  0  0  0  0  0  0  0  0  0  0
    6.1560   -5.2940   23.8650 C   0  0  0  0  0  0  0  0  0  0  0  0
    6.0480   -3.7960   23.9870 C   0  0  0  0  0  0  0  0  0  0  0  0
    5.4270   -3.2900   25.2510 C   0  0  0  0  0  0  0  0  0  0  0  0
    4.7280   -2.2720   25.1290 O   0  0  0  0  0  0  0  0  0  0  0  0
    5.5660   -3.8750   26.5450 N   0  0  0  0  0  0  0  0  0  0  0  0
    6.4180   -3.2040   27.4160 C   0  0  0  0  0  0  0  0  0  0  0  0
    6.8060   -4.2780   28.3970 C   0  0  0  0  0  0  0  0  0  0  0  0
    5.8430   -4.6330   29.2330 C   0  0  0  0  0  0  0  0  0  0  0  0
    4.6920   -5.0270   28.6070 C   0  0  1  0  0  0  0  0  0  0  0  0
    3.5870   -5.2350   29.4480 C   0  0  0  0  0  0  0  0  0  0  0  0
    3.8350   -5.5880   30.7090 N   0  0  0  0  0  0  0  0  0  0  0  0
    2.6690   -5.7020   31.2110 N   0  0  0  0  0  0  0  0  0  0  0  0
    1.6190   -5.4200   30.2690 C   0  0  0  0  0  0  0  0  0  0  0  0
    2.1430   -5.0440   28.8620 C   0  0  0  0  0  0  0  0  0  0  0  0
    1.5630   -4.7140   27.6960 N   0  0  0  0  0  0  0  0  0  0  0  0
    0.1540   -4.3940   27.6180 C   0  0  0  0  0  0  0  0  0  0  0  0
   -0.3960   -3.6100   28.4390 O   0  0  0  0  0  0  0  0  0  0  0  0
   -0.5600   -4.9160   26.6960 O   0  0  0  0  0  0  0  0  0  0  0  0
   -1.7350   -5.6250   27.0220 C   0  0  0  0  0  0  0  0  0  0  0  0
   -2.2730   -6.1560   25.7680 C   0  0  0  0  0  0  0  0  0  0  0  0
   -1.5740   -6.5960   28.0230 C   0  0  0  0  0  0  0  0  0  0  0  0
   -2.7700   -4.6670   27.5890 C   0  0  0  0  0  0  0  0  0  0  0  0
    4.4220   -4.2700   27.3010 C   0  0  0  0  0  0  0  0  0  0  0  0
    7.3590   -3.1030   23.7310 C   0  0  0  0  0  0  0  0  0  0  0  0
    7.6770   -3.2560   22.2400 C   0  0  0  0  0  0  0  0  0  0  0  0
  1  2  1  0
  2  3  2  0
  2  4  1  0
  4  5  1  0
  5  6  1  0
  6  7  1  0
  7  8  1  0
  8  9  2  0
  8 10  1  0
 10 11  1  0
 11 12  1  0
 12 13  1  0
 13 14  1  0
 14 15  1  1
 15 16  1  0
 16 17  1  0
 17 18  2  0
 15 19  2  0
 18 19  1  0
 19 20  1  0
 20 21  1  0
 21 22  2  0
 21 23  1  0
 24 23  1  0
 24 25  1  0
 24 26  1  0
 24 27  1  0
 10 28  1  0
 14 28  1  0
  7 29  1  0
  4 30  1  0
 29 30  1  0
M  END
