piperidine-amides-25533-covalent
     RDKit          3D

 25 27  0  0  0  0  0  0  0  0999 V2000
    6.9960   -3.3310   19.3380 C   0  0  0  0  0  0  0  0  0  0  0  0
    6.2800   -4.2270   20.2890 C   0  0  0  0  0  0  0  0  0  0  0  0
    5.2300   -4.7160   19.9140 O   0  0  0  0  0  0  0  0  0  0  0  0
    6.8230   -4.5300   21.5300 N   0  0  0  0  0  0  0  0  0  0  0  0
    6.4280   -5.7180   22.2490 C   0  0  0  0  0  0  0  0  0  0  0  0
    5.6020   -5.3260   23.4470 C   0  0  0  0  0  0  0  0  0  0  0  0
    6.3230   -4.2150   24.1970 C   0  0  0  0  0  0  0  0  0  0  0  0
    5.4870   -3.6920   25.3050 C   0  0  0  0  0  0  0  0  0  0  0  0
    4.2860   -3.4520   25.1290 O   0  0  0  0  0  0  0  0  0  0  0  0
    6.0800   -3.4710   26.5540 N   0  0  0  0  0  0  0  0  0  0  0  0
    5.2520   -3.3300   27.7200 C   0  0  0  0  0  0  0  0  0  0  0  0
    5.8400   -4.2860   28.7170 C   0  0  0  0  0  0  0  0  0  0  0  0
    6.6290   -5.2430   27.9330 N   0  0  0  0  0  0  0  0  0  0  0  0
    6.7480   -6.4050   28.7930 C   0  0  0  0  0  0  0  0  0  0  0  0
    7.8200   -4.6320   27.3810 C   0  0  0  0  0  0  0  0  0  0  0  0
    7.4460   -3.4500   26.7850 C   0  0  2  0  0  0  0  0  0  0  0  0
    8.1280   -2.1080   26.8690 C   0  0  0  0  0  0  0  0  0  0  0  0
    7.9890   -2.9320   25.5340 C   0  0  0  0  0  0  0  0  0  0  0  0
    7.3640   -1.5590   25.2530 C   0  0  0  0  0  0  0  0  0  0  0  0
    7.7950   -0.8640   23.9910 C   0  0  0  0  0  0  0  0  0  0  0  0
    8.7710   -1.5110   23.0930 C   0  0  0  0  0  0  0  0  0  0  0  0
    9.3210   -2.8520   23.4410 C   0  0  0  0  0  0  0  0  0  0  0  0
    8.9020   -3.5520   24.6920 C   0  0  0  0  0  0  0  0  0  0  0  0
    6.6050   -3.0730   23.2330 C   0  0  0  0  0  0  0  0  0  0  0  0
    7.4950   -3.5080   22.2900 C   0  0  0  0  0  0  0  0  0  0  0  0
  1  2  1  0
  2  3  2  0
  2  4  1  0
  4  5  1  0
  5  6  1  0
  6  7  1  0
  7  8  1  0
  8  9  2  0
  8 10  1  0
 10 11  1  0
 11 12  1  0
 12 13  1  0
 13 14  1  0
 13 15  1  0
 10 16  1  0
 15 16  1  0
 16 17  1  1
 16 18  1  0
 18 19  2  0
 19 20  1  0
 20 21  2  0
 21 22  1  0
 18 23  1  0
 22 23  2  0
  7 24  1  0
  4 25  1  0
 24 25  1  0
M  END
