piperidine-amides-2098-covalent
     RDKit          3D

 19 20  0  0  0  0  0  0  0  0999 V2000
    7.0330   -3.3420   19.3490 C   0  0  0  0  0  0  0  0  0  0  0  0
    6.3780   -4.2020   20.3680 C   0  0  0  0  0  0  0  0  0  0  0  0
    5.4010   -4.8550   19.9890 O   0  0  0  0  0  0  0  0  0  0  0  0
    6.8910   -4.2860   21.6730 N   0  0  0  0  0  0  0  0  0  0  0  0
    7.7060   -3.2200   22.2380 C   0  0  0  0  0  0  0  0  0  0  0  0
    7.4000   -3.0240   23.7050 C   0  0  0  0  0  0  0  0  0  0  0  0
    6.0150   -3.5860   24.0040 C   0  0  0  0  0  0  0  0  0  0  0  0
    5.5410   -3.2440   25.3710 C   0  0  0  0  0  0  0  0  0  0  0  0
    4.3240   -3.2620   25.5820 O   0  0  0  0  0  0  0  0  0  0  0  0
    6.4060   -2.9100   26.4370 N   0  0  0  0  0  0  0  0  0  0  0  0
    6.6420   -1.5130   26.7860 C   0  0  2  0  0  0  0  0  0  0  0  0
    6.9970   -1.5110   28.2670 C   0  0  0  0  0  0  0  0  0  0  0  0
    6.2370   -0.6100   28.9750 O   0  0  0  0  0  0  0  0  0  0  0  0
    6.0120    0.6340   28.5910 C   0  0  0  0  0  0  0  0  0  0  0  0
    5.7700    0.6780   27.2640 C   0  0  0  0  0  0  0  0  0  0  0  0
    5.5040   -0.5370   26.6680 C   0  0  1  0  0  0  0  0  0  0  0  0
    5.2630   -0.2370   25.3500 O   0  0  0  0  0  0  0  0  0  0  0  0
    6.0480   -5.0900   23.7930 C   0  0  0  0  0  0  0  0  0  0  0  0
    6.6260   -5.4420   22.4620 C   0  0  0  0  0  0  0  0  0  0  0  0
  1  2  1  0
  2  3  2  0
  2  4  1  0
  4  5  1  0
  5  6  1  0
  6  7  1  0
  7  8  1  0
  8  9  2  0
  8 10  1  0
 11 10  1  1
 11 12  1  0
 12 13  1  0
 13 14  1  0
 14 15  1  0
 11 16  1  0
 15 16  1  0
 16 17  1  6
  7 18  1  0
  4 19  1  0
 18 19  1  0
M  END
