piperidine-amides-31338-covalent
     RDKit          3D

 28 30  0  0  0  0  0  0  0  0999 V2000
    7.1680   -3.2690   19.3270 C   0  0  0  0  0  0  0  0  0  0  0  0
    6.4110   -4.0280   20.2960 C   0  0  0  0  0  0  0  0  0  0  0  0
    5.3500   -4.6190   19.9170 O   0  0  0  0  0  0  0  0  0  0  0  0
    6.8460   -4.1600   21.6310 N   0  0  0  0  0  0  0  0  0  0  0  0
    6.5240   -5.4080   22.3400 C   0  0  0  0  0  0  0  0  0  0  0  0
    5.4930   -4.8100   23.3650 C   0  0  0  0  0  0  0  0  0  0  0  0
    6.2850   -3.8500   24.2320 C   0  0  0  0  0  0  0  0  0  0  0  0
    5.3450   -3.2980   25.4040 C   0  0  0  0  0  0  0  0  0  0  0  0
    4.1770   -3.3880   25.0590 O   0  0  0  0  0  0  0  0  0  0  0  0
    6.0210   -2.8840   26.4150 N   0  0  0  0  0  0  0  0  0  0  0  0
    6.7020   -2.0450   27.2350 C   0  0  0  0  0  0  0  0  0  0  0  0
    6.4650   -0.9720   28.0450 C   0  0  0  0  0  0  0  0  0  0  0  0
    7.0850   -1.0880   29.2960 C   0  0  0  0  0  0  0  0  0  0  0  0
    7.0350   -0.1070   30.4120 C   0  0  0  0  0  0  0  0  0  0  0  0
    6.1650    1.1280   29.9990 C   0  0  0  0  0  0  0  0  0  0  0  0
    5.6140    1.0830   28.6980 C   0  0  0  0  0  0  0  0  0  0  0  0
    5.7520    0.0780   27.7490 C   0  0  0  0  0  0  0  0  0  0  0  0
    6.0000   -3.8200   27.5300 C   0  0  0  0  0  0  0  0  0  0  0  0
    5.8170   -5.3650   27.2930 C   0  0  2  0  0  0  0  0  0  0  0  0
    5.7980   -5.7830   26.1140 O   0  0  0  0  0  0  0  0  0  0  0  0
    4.6220   -5.8670   27.7350 C   0  0  0  0  0  0  0  0  0  0  0  0
    3.4080   -5.2440   27.7880 C   0  0  0  0  0  0  0  0  0  0  0  0
    2.3300   -6.0520   28.3140 N   0  0  0  0  0  0  0  0  0  0  0  0
    2.8900   -7.2350   28.6060 N   0  0  0  0  0  0  0  0  0  0  0  0
    2.0640   -8.1660   29.1200 C   0  0  0  0  0  0  0  0  0  0  0  0
    4.2850   -7.2050   28.2810 C   0  0  0  0  0  0  0  0  0  0  0  0
    7.0780   -2.7610   23.5720 C   0  0  0  0  0  0  0  0  0  0  0  0
    7.6670   -3.1470   22.2440 C   0  0  0  0  0  0  0  0  0  0  0  0
  1  2  1  0
  2  3  2  0
  2  4  1  0
  4  5  1  0
  5  6  1  0
  6  7  1  0
  7  8  1  0
  8  9  2  0
  8 10  1  0
 10 11  1  0
 11 12  1  0
 12 13  2  0
 13 14  1  0
 14 15  2  0
 15 16  1  0
 12 17  1  0
 16 17  2  0
 10 18  1  0
 18 19  1  0
 19 20  1  6
 19 21  1  0
 21 22  1  0
 22 23  2  0
 23 24  1  0
 24 25  1  0
 21 26  2  0
 24 26  1  0
  7 27  1  0
  4 28  1  0
 27 28  1  0
M  END
