piperidine-amides-28718-covalent
     RDKit          3D

 26 27  0  0  0  0  0  0  0  0999 V2000
    6.9980   -3.3360   19.3610 C   0  0  0  0  0  0  0  0  0  0  0  0
    6.3760   -4.2050   20.3650 C   0  0  0  0  0  0  0  0  0  0  0  0
    5.4220   -4.9130   19.9920 O   0  0  0  0  0  0  0  0  0  0  0  0
    6.8530   -4.2680   21.7060 N   0  0  0  0  0  0  0  0  0  0  0  0
    7.8630   -3.3440   22.1700 C   0  0  0  0  0  0  0  0  0  0  0  0
    7.6720   -3.0410   23.6350 C   0  0  0  0  0  0  0  0  0  0  0  0
    6.3140   -3.5920   23.9920 C   0  0  0  0  0  0  0  0  0  0  0  0
    5.9220   -3.3000   25.4280 C   0  0  0  0  0  0  0  0  0  0  0  0
    4.7180   -3.4310   25.6650 O   0  0  0  0  0  0  0  0  0  0  0  0
    6.8820   -2.9020   26.3870 N   0  0  0  0  0  0  0  0  0  0  0  0
    7.5290   -3.8720   27.2170 C   0  0  0  0  0  0  0  0  0  0  0  0
    7.7970   -5.1490   26.7320 C   0  0  0  0  0  0  0  0  0  0  0  0
    8.7500   -5.4490   25.9810 O   0  0  0  0  0  0  0  0  0  0  0  0
    6.9490   -6.1460   27.1270 O   0  0  0  0  0  0  0  0  0  0  0  0
    6.3800   -6.3830   28.3560 C   0  0  0  0  0  0  0  0  0  0  0  0
    6.6570   -1.5930   27.0260 C   0  0  0  0  0  0  0  0  0  0  0  0
    7.2550   -1.5970   28.3860 C   0  0  0  0  0  0  0  0  0  0  0  0
    6.9800   -0.2540   28.9610 C   0  0  0  0  0  0  0  0  0  0  0  0
    6.4130    0.9620   28.7490 N   0  0  0  0  0  0  0  0  0  0  0  0
    5.8680    0.8580   27.4030 C   0  0  0  0  0  0  0  0  0  0  0  0
    5.9660   -0.4110   26.5000 C   0  0  0  0  0  0  0  0  0  0  0  0
    5.4550   -0.4890   25.2670 N   0  0  0  0  0  0  0  0  0  0  0  0
    4.3680   -1.0550   25.0550 O   0  0  0  0  0  0  0  0  0  0  0  0
    5.7430    0.5670   24.4380 O   0  0  0  0  0  0  0  0  0  0  0  0
    6.1150   -5.0280   23.7290 C   0  0  0  0  0  0  0  0  0  0  0  0
    6.6290   -5.4450   22.5140 C   0  0  0  0  0  0  0  0  0  0  0  0
  1  2  1  0
  2  3  2  0
  2  4  1  0
  4  5  1  0
  5  6  1  0
  6  7  1  0
  7  8  1  0
  8  9  2  0
  8 10  1  0
 10 11  1  0
 11 12  1  0
 12 13  2  0
 12 14  1  0
 14 15  1  0
 10 16  1  0
 16 17  2  0
 17 18  1  0
 18 19  2  0
 19 20  1  0
 16 21  1  0
 20 21  2  0
 21 22  1  0
 22 23  2  0
 22 24  1  0
  7 25  1  0
  4 26  1  0
 25 26  1  0
M  CHG  2  22   1  24  -1
M  END
