piperidine-amides-30819-covalent
     RDKit          3D

 26 28  0  0  0  0  0  0  0  0999 V2000
    7.1060   -3.3380   19.3170 C   0  0  0  0  0  0  0  0  0  0  0  0
    6.4090   -4.1670   20.3020 C   0  0  0  0  0  0  0  0  0  0  0  0
    5.3700   -4.7580   19.9650 O   0  0  0  0  0  0  0  0  0  0  0  0
    6.9160   -4.3590   21.5980 N   0  0  0  0  0  0  0  0  0  0  0  0
    6.6660   -5.5890   22.3240 C   0  0  0  0  0  0  0  0  0  0  0  0
    6.3020   -5.2000   23.7380 C   0  0  0  0  0  0  0  0  0  0  0  0
    6.2180   -3.7120   23.9180 C   0  0  0  0  0  0  0  0  0  0  0  0
    5.6740   -3.2780   25.2190 C   0  0  0  0  0  0  0  0  0  0  0  0
    4.7640   -2.4030   25.2650 O   0  0  0  0  0  0  0  0  0  0  0  0
    6.0930   -3.7940   26.4490 N   0  0  0  0  0  0  0  0  0  0  0  0
    6.0760   -2.8830   27.6100 C   0  0  0  0  0  0  0  0  0  0  0  0
    6.4270   -3.6520   28.8240 C   0  0  0  0  0  0  0  0  0  0  0  0
    6.1300   -4.8710   28.8920 O   0  0  0  0  0  0  0  0  0  0  0  0
    5.1920   -5.2080   28.0300 C   0  0  2  0  0  0  0  0  0  0  0  0
    4.0910   -6.2280   28.2210 C   0  0  0  0  0  0  0  0  0  0  0  0
    4.1870   -7.0790   29.5000 C   0  0  0  0  0  0  0  0  0  0  0  0
    5.4470   -6.9800   30.7070 Cl  0  0  0  0  0  0  0  0  0  0  0  0
    3.0690   -8.0470   29.6530 C   0  0  0  0  0  0  0  0  0  0  0  0
    2.0720   -8.1650   28.7420 C   0  0  0  0  0  0  0  0  0  0  0  0
    2.0180   -7.3980   27.6080 C   0  0  0  0  0  0  0  0  0  0  0  0
    3.0650   -6.3680   27.3020 C   0  0  0  0  0  0  0  0  0  0  0  0
    2.9160   -5.7180   26.2390 O   0  0  0  0  0  0  0  0  0  0  0  0
    2.1840   -4.5320   26.1320 C   0  0  0  0  0  0  0  0  0  0  0  0
    5.7020   -5.1650   26.6640 C   0  0  0  0  0  0  0  0  0  0  0  0
    7.5320   -3.1140   23.5840 C   0  0  0  0  0  0  0  0  0  0  0  0
    7.7210   -3.2930   22.1380 C   0  0  0  0  0  0  0  0  0  0  0  0
  1  2  1  0
  2  3  2  0
  2  4  1  0
  4  5  1  0
  5  6  1  0
  6  7  1  0
  7  8  1  0
  8  9  2  0
  8 10  1  0
 10 11  1  0
 11 12  1  0
 12 13  1  0
 13 14  1  0
 14 15  1  1
 15 16  2  0
 16 17  1  0
 16 18  1  0
 18 19  2  0
 19 20  1  0
 15 21  1  0
 20 21  2  0
 21 22  1  0
 22 23  1  0
 10 24  1  0
 14 24  1  0
  7 25  1  0
  4 26  1  0
 25 26  1  0
M  END
