piperidine-amides-33578-covalent
     RDKit          3D

 29 30  0  0  0  0  0  0  0  0999 V2000
    7.0710   -3.3490   19.2730 C   0  0  0  0  0  0  0  0  0  0  0  0
    6.4100   -4.1730   20.2920 C   0  0  0  0  0  0  0  0  0  0  0  0
    5.3490   -4.7530   19.9570 O   0  0  0  0  0  0  0  0  0  0  0  0
    6.9870   -4.3570   21.5710 N   0  0  0  0  0  0  0  0  0  0  0  0
    6.5720   -5.4730   22.3390 C   0  0  0  0  0  0  0  0  0  0  0  0
    6.0600   -5.1300   23.6640 C   0  0  0  0  0  0  0  0  0  0  0  0
    6.4970   -3.8220   24.2150 C   0  0  0  0  0  0  0  0  0  0  0  0
    5.5010   -3.3040   25.2080 C   0  0  0  0  0  0  0  0  0  0  0  0
    4.6360   -2.5030   24.8210 O   0  0  0  0  0  0  0  0  0  0  0  0
    5.4790   -3.6950   26.5690 N   0  0  0  0  0  0  0  0  0  0  0  0
    4.3640   -4.2000   27.2500 C   0  0  0  0  0  0  0  0  0  0  0  0
    4.5300   -4.9210   28.5010 C   0  0  0  0  0  0  0  0  0  0  0  0
    5.7530   -4.3510   29.1970 C   0  0  0  0  0  0  0  0  0  0  0  0
    5.2120   -3.1420   29.8790 N   0  0  0  0  0  0  0  0  0  0  0  0
    3.9790   -3.3790   30.6060 C   0  0  0  0  0  0  0  0  0  0  0  0
    2.9660   -2.4070   29.9900 C   0  0  0  0  0  0  0  0  0  0  0  0
    1.7630   -2.4100   30.6940 O   0  0  0  0  0  0  0  0  0  0  0  0
    1.8390   -1.4540   31.7060 C   0  0  0  0  0  0  0  0  0  0  0  0
    5.1940   -1.9420   29.2970 C   0  0  0  0  0  0  0  0  0  0  0  0
    4.4860   -1.7250   28.2920 O   0  0  0  0  0  0  0  0  0  0  0  0
    5.9340   -0.8740   29.7710 O   0  0  0  0  0  0  0  0  0  0  0  0
    5.8530    0.4130   29.2490 C   0  0  0  0  0  0  0  0  0  0  0  0
    6.7100    1.3920   30.0330 C   0  0  0  0  0  0  0  0  0  0  0  0
    6.2470    0.4540   27.7910 C   0  0  0  0  0  0  0  0  0  0  0  0
    4.4170    0.8840   29.3640 C   0  0  0  0  0  0  0  0  0  0  0  0
    6.7890   -4.0320   28.3670 C   0  0  0  0  0  0  0  0  0  0  0  0
    6.4230   -3.0770   27.4250 C   0  0  0  0  0  0  0  0  0  0  0  0
    6.7560   -2.7970   23.1680 C   0  0  0  0  0  0  0  0  0  0  0  0
    7.6650   -3.2790   22.2440 C   0  0  0  0  0  0  0  0  0  0  0  0
  1  2  1  0
  2  3  2  0
  2  4  1  0
  4  5  1  0
  5  6  1  0
  6  7  1  0
  7  8  1  0
  8  9  2  0
  8 10  1  0
 10 11  1  0
 11 12  1  0
 12 13  1  0
 13 14  1  0
 14 15  1  0
 15 16  1  0
 16 17  1  0
 17 18  1  0
 14 19  1  0
 19 20  2  0
 19 21  1  0
 22 21  1  0
 22 23  1  0
 22 24  1  0
 22 25  1  0
 13 26  1  0
 10 27  1  0
 26 27  1  0
  7 28  1  0
  4 29  1  0
 28 29  1  0
M  END
