piperidine-amides-8816-covalent
     RDKit          3D

 22 22  0  0  0  0  0  0  0  0999 V2000
    7.1190   -3.2670   19.2180 C   0  0  0  0  0  0  0  0  0  0  0  0
    6.3880   -4.0460   20.2120 C   0  0  0  0  0  0  0  0  0  0  0  0
    5.2950   -4.5450   19.8850 O   0  0  0  0  0  0  0  0  0  0  0  0
    6.9430   -4.2790   21.4890 N   0  0  0  0  0  0  0  0  0  0  0  0
    7.5950   -3.1870   22.1580 C   0  0  0  0  0  0  0  0  0  0  0  0
    6.6840   -2.6700   23.2270 C   0  0  0  0  0  0  0  0  0  0  0  0
    6.4950   -3.7920   24.2220 C   0  0  0  0  0  0  0  0  0  0  0  0
    5.7550   -3.2840   25.4190 C   0  0  0  0  0  0  0  0  0  0  0  0
    4.5640   -3.0290   25.2570 O   0  0  0  0  0  0  0  0  0  0  0  0
    6.4530   -3.1320   26.6160 N   0  0  0  0  0  0  0  0  0  0  0  0
    6.2350   -3.9660   27.7560 C   0  0  0  0  0  0  0  0  0  0  0  0
    5.9950   -5.3280   27.4810 C   0  0  0  0  0  0  0  0  0  0  0  0
    4.8560   -5.7950   27.6950 O   0  0  0  0  0  0  0  0  0  0  0  0
    4.5080   -6.2470   28.9310 C   0  0  0  0  0  0  0  0  0  0  0  0
    5.1390   -7.3080   29.5570 C   0  0  0  0  0  0  0  0  0  0  0  0
    4.4960   -7.9160   30.4470 O   0  0  0  0  0  0  0  0  0  0  0  0
    3.8700   -7.1670   31.4770 C   0  0  0  0  0  0  0  0  0  0  0  0
    4.6430   -7.3250   32.8080 C   0  0  0  0  0  0  0  0  0  0  0  0
    3.9270   -7.8380   33.8960 O   0  0  0  0  0  0  0  0  0  0  0  0
    3.6380   -9.2190   33.9880 C   0  0  0  0  0  0  0  0  0  0  0  0
    5.8400   -4.9680   23.5820 C   0  0  0  0  0  0  0  0  0  0  0  0
    6.4290   -5.3950   22.2280 C   0  0  0  0  0  0  0  0  0  0  0  0
  1  2  1  0
  2  3  2  0
  2  4  1  0
  4  5  1  0
  5  6  1  0
  6  7  1  0
  7  8  1  0
  8  9  2  0
  8 10  1  0
 10 11  1  0
 11 12  1  0
 12 13  1  0
 13 14  1  0
 14 15  1  0
 15 16  1  0
 16 17  1  0
 17 18  1  0
 18 19  1  0
 19 20  1  0
  7 21  1  0
  4 22  1  0
 21 22  1  0
M  END
