piperidine-amides-29608-covalent
     RDKit          3D

 27 30  0  0  0  0  0  0  0  0999 V2000
    7.0320   -3.3670   19.3310 C   0  0  0  0  0  0  0  0  0  0  0  0
    6.3710   -4.2240   20.3080 C   0  0  0  0  0  0  0  0  0  0  0  0
    5.3560   -4.8360   19.9790 O   0  0  0  0  0  0  0  0  0  0  0  0
    6.9240   -4.4150   21.6230 N   0  0  0  0  0  0  0  0  0  0  0  0
    7.6640   -3.3710   22.2890 C   0  0  0  0  0  0  0  0  0  0  0  0
    6.8610   -2.8050   23.4250 C   0  0  0  0  0  0  0  0  0  0  0  0
    6.3700   -3.9380   24.3180 C   0  0  0  0  0  0  0  0  0  0  0  0
    5.3730   -3.3940   25.2990 C   0  0  0  0  0  0  0  0  0  0  0  0
    4.4780   -2.6210   24.9240 O   0  0  0  0  0  0  0  0  0  0  0  0
    5.4010   -3.7270   26.6860 N   0  0  0  0  0  0  0  0  0  0  0  0
    6.4640   -3.2110   27.4310 C   0  0  0  0  0  0  0  0  0  0  0  0
    6.7430   -4.3150   28.4250 C   0  0  0  0  0  0  0  0  0  0  0  0
    5.7020   -4.6600   29.2080 C   0  0  0  0  0  0  0  0  0  0  0  0
    5.9460   -5.6310   29.9770 O   0  0  0  0  0  0  0  0  0  0  0  0
    4.9540   -6.1550   30.8310 C   0  0  0  0  0  0  0  0  0  0  0  0
    5.0330   -7.3920   31.4480 C   0  0  0  0  0  0  0  0  0  0  0  0
    3.9930   -7.8750   32.3260 C   0  0  0  0  0  0  0  0  0  0  0  0
    2.8450   -7.2420   32.6670 C   0  0  0  0  0  0  0  0  0  0  0  0
    1.8340   -7.6380   33.4790 N   0  0  0  0  0  0  0  0  0  0  0  0
    0.9600   -6.4650   33.3710 C   0  0  0  0  0  0  0  0  0  0  0  0
    1.5770   -5.5440   32.5120 C   0  0  0  0  0  0  0  0  0  0  0  0
    2.7150   -6.0430   32.1020 N   0  0  0  0  0  0  0  0  0  0  0  0
    3.7550   -5.4960   31.1940 C   0  0  0  0  0  0  0  0  0  0  0  0
    4.5390   -4.8170   28.5090 C   0  0  0  0  0  0  0  0  0  0  0  0
    4.2610   -3.8090   27.5740 C   0  0  0  0  0  0  0  0  0  0  0  0
    5.6830   -5.0360   23.5250 C   0  0  0  0  0  0  0  0  0  0  0  0
    6.5900   -5.5660   22.4090 C   0  0  0  0  0  0  0  0  0  0  0  0
  1  2  1  0
  2  3  2  0
  2  4  1  0
  4  5  1  0
  5  6  1  0
  6  7  1  0
  7  8  1  0
  8  9  2  0
  8 10  1  0
 10 11  1  0
 11 12  1  0
 12 13  1  0
 13 14  1  0
 14 15  1  0
 15 16  1  0
 16 17  2  0
 17 18  1  0
 18 19  2  0
 19 20  1  0
 20 21  2  0
 18 22  1  0
 21 22  1  0
 15 23  2  0
 22 23  1  0
 13 24  1  0
 10 25  1  0
 24 25  1  0
  7 26  1  0
  4 27  1  0
 26 27  1  0
M  END
