piperidine-amides-13942-covalent
     RDKit          3D

 26 27  0  0  0  0  0  0  0  0999 V2000
    7.1160   -3.2560   19.2420 C   0  0  0  0  0  0  0  0  0  0  0  0
    6.3450   -4.0280   20.2550 C   0  0  0  0  0  0  0  0  0  0  0  0
    5.2920   -4.5870   19.9030 O   0  0  0  0  0  0  0  0  0  0  0  0
    6.8460   -4.1460   21.5680 N   0  0  0  0  0  0  0  0  0  0  0  0
    6.6670   -5.3710   22.3150 C   0  0  0  0  0  0  0  0  0  0  0  0
    6.0580   -5.0330   23.6840 C   0  0  0  0  0  0  0  0  0  0  0  0
    6.1400   -3.5580   23.8980 C   0  0  0  0  0  0  0  0  0  0  0  0
    5.6000   -3.1320   25.2110 C   0  0  0  0  0  0  0  0  0  0  0  0
    4.5130   -2.5470   25.1860 O   0  0  0  0  0  0  0  0  0  0  0  0
    6.2860   -3.3920   26.3990 N   0  0  0  0  0  0  0  0  0  0  0  0
    5.9150   -4.3340   27.3980 C   0  0  2  0  0  0  0  0  0  0  0  0
    6.5250   -4.2970   28.6260 C   0  0  0  0  0  0  0  0  0  0  0  0
    6.7460   -2.9140   29.0140 O   0  0  0  0  0  0  0  0  0  0  0  0
    6.8760   -5.3710   29.4430 O   0  0  0  0  0  0  0  0  0  0  0  0
    6.1250   -6.5900   29.4520 C   0  0  0  0  0  0  0  0  0  0  0  0
    5.3980   -6.7030   30.6090 C   0  0  0  0  0  0  0  0  0  0  0  0
    4.2060   -5.8470   30.8890 C   0  0  0  0  0  0  0  0  0  0  0  0
    3.3730   -5.9530   32.1770 C   0  0  0  0  0  0  0  0  0  0  0  0
    3.8740   -7.0150   33.1500 C   0  0  0  0  0  0  0  0  0  0  0  0
    4.9760   -7.7570   32.8170 C   0  0  0  0  0  0  0  0  0  0  0  0
    5.7470   -7.6270   31.5700 C   0  0  0  0  0  0  0  0  0  0  0  0
    5.7620   -5.7740   27.0930 C   0  0  0  0  0  0  0  0  0  0  0  0
    4.9170   -6.2830   26.1430 C   0  0  0  0  0  0  0  0  0  0  0  0
    4.6200   -6.6230   27.5170 C   0  0  0  0  0  0  0  0  0  0  0  0
    7.4890   -2.9970   23.6230 C   0  0  0  0  0  0  0  0  0  0  0  0
    7.7240   -3.1250   22.1240 C   0  0  0  0  0  0  0  0  0  0  0  0
  1  2  1  0
  2  3  2  0
  2  4  1  0
  4  5  1  0
  5  6  1  0
  6  7  1  0
  7  8  1  0
  8  9  2  0
  8 10  1  0
 11 10  1  6
 11 12  1  0
 12 13  2  0
 12 14  1  0
 14 15  1  0
 15 16  1  0
 16 17  2  0
 17 18  1  0
 18 19  2  0
 19 20  1  0
 16 21  1  0
 20 21  2  0
 11 22  1  0
 22 23  1  0
 22 24  1  0
  7 25  1  0
  4 26  1  0
 25 26  1  0
M  END
