piperidine-amides-35031-covalent
     RDKit          3D

 30 32  0  0  0  0  0  0  0  0999 V2000
    7.0690   -3.2810   19.2760 C   0  0  0  0  0  0  0  0  0  0  0  0
    6.3610   -4.0980   20.2980 C   0  0  0  0  0  0  0  0  0  0  0  0
    5.3370   -4.6760   19.9310 O   0  0  0  0  0  0  0  0  0  0  0  0
    6.8750   -4.2260   21.5950 N   0  0  0  0  0  0  0  0  0  0  0  0
    7.6770   -3.1950   22.2090 C   0  0  0  0  0  0  0  0  0  0  0  0
    7.0730   -2.7810   23.5220 C   0  0  0  0  0  0  0  0  0  0  0  0
    6.5050   -3.9820   24.2950 C   0  0  0  0  0  0  0  0  0  0  0  0
    5.4730   -3.4500   25.2110 C   0  0  0  0  0  0  0  0  0  0  0  0
    4.3370   -3.2450   24.7730 O   0  0  0  0  0  0  0  0  0  0  0  0
    5.7250   -3.1660   26.5620 N   0  0  0  0  0  0  0  0  0  0  0  0
    5.8770   -4.3210   27.4460 C   0  0  0  0  0  0  0  0  0  0  0  0
    7.0060   -5.2250   26.9740 C   0  0  0  0  0  0  0  0  0  0  0  0
    5.4360   -1.8220   26.8960 C   0  0  0  0  0  0  0  0  0  0  0  0
    5.1980   -1.6500   28.2310 C   0  0  0  0  0  0  0  0  0  0  0  0
    4.2790   -2.4530   28.7860 C   0  0  0  0  0  0  0  0  0  0  0  0
    3.7510   -2.5520   30.2000 C   0  0  0  0  0  0  0  0  0  0  0  0
    4.3910   -1.5470   31.1460 C   0  0  0  0  0  0  0  0  0  0  0  0
    4.0320   -1.3470   32.8630 Cl  0  0  0  0  0  0  0  0  0  0  0  0
    5.4430   -0.6370   30.5190 C   0  0  0  0  0  0  0  0  0  0  0  0
    5.7940   -0.7390   29.0760 C   0  0  0  0  0  0  0  0  0  0  0  0
    6.7820    0.2140   28.7350 O   0  0  0  0  0  0  0  0  0  0  0  0
    6.3320    1.5030   28.8680 C   0  0  0  0  0  0  0  0  0  0  0  0
    4.8760    1.6650   28.4950 C   0  0  0  0  0  0  0  0  0  0  0  0
    4.2750    3.0120   28.6010 C   0  0  0  0  0  0  0  0  0  0  0  0
    5.0710    4.2030   29.0630 C   0  0  0  0  0  0  0  0  0  0  0  0
    4.2640    5.7660   29.1540 Cl  0  0  0  0  0  0  0  0  0  0  0  0
    6.3970    4.0140   29.3950 C   0  0  0  0  0  0  0  0  0  0  0  0
    7.0260    2.6320   29.2910 C   0  0  0  0  0  0  0  0  0  0  0  0
    5.7570   -5.0330   23.4450 C   0  0  0  0  0  0  0  0  0  0  0  0
    6.6500   -5.4620   22.2970 C   0  0  0  0  0  0  0  0  0  0  0  0
  1  2  1  0
  2  3  2  0
  2  4  1  0
  4  5  1  0
  5  6  1  0
  6  7  1  0
  7  8  1  0
  8  9  2  0
  8 10  1  0
 10 11  1  0
 11 12  1  0
 10 13  1  0
 13 14  1  0
 14 15  2  0
 15 16  1  0
 16 17  2  0
 17 18  1  0
 17 19  1  0
 14 20  1  0
 19 20  2  0
 20 21  1  0
 21 22  1  0
 22 23  2  0
 23 24  1  0
 24 25  2  0
 25 26  1  0
 25 27  1  0
 22 28  1  0
 27 28  2  0
  7 29  1  0
  4 30  1  0
 29 30  1  0
M  END
