piperidine-amides-12080-covalent
     RDKit          3D

 25 27  0  0  0  0  0  0  0  0999 V2000
    7.1010   -3.3480   19.3540 C   0  0  0  0  0  0  0  0  0  0  0  0
    6.3550   -4.1450   20.3160 C   0  0  0  0  0  0  0  0  0  0  0  0
    5.3470   -4.7550   19.9610 O   0  0  0  0  0  0  0  0  0  0  0  0
    6.8320   -4.2650   21.6670 N   0  0  0  0  0  0  0  0  0  0  0  0
    6.5890   -5.4650   22.4200 C   0  0  0  0  0  0  0  0  0  0  0  0
    6.0950   -5.1310   23.8080 C   0  0  0  0  0  0  0  0  0  0  0  0
    6.0740   -3.6160   23.9650 C   0  0  0  0  0  0  0  0  0  0  0  0
    5.7020   -3.2010   25.3400 C   0  0  0  0  0  0  0  0  0  0  0  0
    4.5300   -3.2490   25.7610 O   0  0  0  0  0  0  0  0  0  0  0  0
    6.7300   -2.7290   26.1780 N   0  0  0  0  0  0  0  0  0  0  0  0
    6.5000   -1.5140   26.9250 C   0  0  0  0  0  0  0  0  0  0  0  0
    5.9650   -0.2520   26.2980 C   0  0  0  0  0  0  0  0  0  0  0  0
    5.7470    0.8950   27.0430 C   0  0  0  0  0  0  0  0  0  0  0  0
    6.0230    0.8870   28.4090 C   0  0  0  0  0  0  0  0  0  0  0  0
    6.5270   -0.2310   29.0930 C   0  0  0  0  0  0  0  0  0  0  0  0
    6.7970   -1.4840   28.4080 C   0  0  0  0  0  0  0  0  0  0  0  0
    6.8350   -0.3640   30.4490 C   0  0  1  0  0  0  0  0  0  0  0  0
    8.1650   -0.3540   30.7600 C   0  0  0  0  0  0  0  0  0  0  0  0
    6.2250    0.7440   31.2980 C   0  0  0  0  0  0  0  0  0  0  0  0
    5.9060    1.7530   30.3390 C   0  0  0  0  0  0  0  0  0  0  0  0
    5.6090    2.7950   30.9340 O   0  0  0  0  0  0  0  0  0  0  0  0
    5.8160    1.9960   29.2450 N   0  0  0  0  0  0  0  0  0  0  0  0
    4.7870    2.9550   29.0940 C   0  0  0  0  0  0  0  0  0  0  0  0
    7.4120   -3.0380   23.6270 C   0  0  0  0  0  0  0  0  0  0  0  0
    7.6560   -3.2160   22.1750 C   0  0  0  0  0  0  0  0  0  0  0  0
  1  2  1  0
  2  3  2  0
  2  4  1  0
  4  5  1  0
  5  6  1  0
  6  7  1  0
  7  8  1  0
  8  9  2  0
  8 10  1  0
 10 11  1  0
 11 12  2  0
 12 13  1  0
 13 14  2  0
 14 15  1  0
 11 16  1  0
 15 16  2  0
 15 17  1  0
 17 18  1  6
 17 19  1  0
 19 20  1  0
 20 21  2  0
 14 22  1  0
 20 22  1  0
 22 23  1  0
  7 24  1  0
  4 25  1  0
 24 25  1  0
M  END
