piperidine-amides-32297-covalent
     RDKit          3D

 24 26  0  0  0  0  0  0  0  0999 V2000
    7.0830   -3.3300   19.3060 C   0  0  0  0  0  0  0  0  0  0  0  0
    6.3720   -4.1760   20.3040 C   0  0  0  0  0  0  0  0  0  0  0  0
    5.3480   -4.7880   19.9620 O   0  0  0  0  0  0  0  0  0  0  0  0
    6.9130   -4.2990   21.5990 N   0  0  0  0  0  0  0  0  0  0  0  0
    6.7170   -5.5170   22.3610 C   0  0  0  0  0  0  0  0  0  0  0  0
    6.2820   -5.1480   23.7930 C   0  0  0  0  0  0  0  0  0  0  0  0
    6.2680   -3.6620   23.8800 C   0  0  0  0  0  0  0  0  0  0  0  0
    5.5800   -3.1160   25.0610 C   0  0  0  0  0  0  0  0  0  0  0  0
    5.1710   -1.9630   24.9680 O   0  0  0  0  0  0  0  0  0  0  0  0
    5.3790   -3.8620   26.1990 N   0  0  0  0  0  0  0  0  0  0  0  0
    4.6590   -3.4510   27.3010 C   0  0  0  0  0  0  0  0  0  0  0  0
    4.9370   -4.1770   28.4290 C   0  0  2  0  0  0  0  0  0  0  0  0
    5.6790   -3.6350   29.4580 C   0  0  0  0  0  0  0  0  0  0  0  0
    5.7850   -5.3350   27.9420 O   0  0  0  0  0  0  0  0  0  0  0  0
    7.1020   -5.4480   27.4190 C   0  0  0  0  0  0  0  0  0  0  0  0
    7.1830   -6.3270   28.5080 C   0  0  0  0  0  0  0  0  0  0  0  0
    5.9230   -6.4750   29.2050 C   0  0  0  0  0  0  0  0  0  0  0  0
    5.9280   -7.4360   30.3930 C   0  0  0  0  0  0  0  0  0  0  0  0
    4.8960   -5.7250   28.6730 C   0  0  0  0  0  0  0  0  0  0  0  0
    3.1730   -5.8540   29.5100 Br  0  0  0  0  0  0  0  0  0  0  0  0
    5.0850   -4.7900   27.4330 C   0  0  0  0  0  0  0  0  0  0  0  0
    6.4790   -4.6140   26.6350 C   0  0  0  0  0  0  0  0  0  0  0  0
    7.6300   -3.2210   23.6470 C   0  0  0  0  0  0  0  0  0  0  0  0
    7.7460   -3.2320   22.1250 C   0  0  0  0  0  0  0  0  0  0  0  0
  1  2  1  0
  2  3  2  0
  2  4  1  0
  4  5  1  0
  5  6  1  0
  6  7  1  0
  7  8  1  0
  8  9  2  0
  8 10  1  0
 10 11  1  0
 11 12  1  0
 12 13  1  1
 12 14  1  0
 14 15  1  0
 15 16  2  0
 16 17  1  0
 17 18  1  0
 17 19  2  0
 19 20  1  0
 19 21  1  0
 10 22  1  0
 15 22  1  0
 21 22  2  0
  7 23  1  0
  4 24  1  0
 23 24  1  0
M  END
