piperidine-amides-13432-covalent
     RDKit          3D

 20 22  0  0  0  0  0  0  0  0999 V2000
    7.0690   -3.2690   19.2860 C   0  0  0  0  0  0  0  0  0  0  0  0
    6.3110   -4.0630   20.2910 C   0  0  0  0  0  0  0  0  0  0  0  0
    5.2890   -4.6670   19.9240 O   0  0  0  0  0  0  0  0  0  0  0  0
    6.7850   -4.1580   21.6240 N   0  0  0  0  0  0  0  0  0  0  0  0
    7.6530   -3.1360   22.1860 C   0  0  0  0  0  0  0  0  0  0  0  0
    7.3350   -3.0040   23.6840 C   0  0  0  0  0  0  0  0  0  0  0  0
    6.1010   -3.8030   23.9170 C   0  0  0  0  0  0  0  0  0  0  0  0
    5.4190   -3.5970   25.2240 C   0  0  0  0  0  0  0  0  0  0  0  0
    4.2720   -4.0390   25.3000 O   0  0  0  0  0  0  0  0  0  0  0  0
    6.0100   -2.9240   26.2980 N   0  0  0  0  0  0  0  0  0  0  0  0
    5.6990   -1.5880   26.6480 C   0  0  2  0  0  0  0  0  0  0  0  0
    6.6160   -0.6050   26.7600 C   0  0  0  0  0  0  0  0  0  0  0  0
    6.0710   -0.1530   27.9320 C   0  0  2  0  0  0  0  0  0  0  0  0
    6.8780    0.0140   29.0610 O   0  0  0  0  0  0  0  0  0  0  0  0
    6.4540   -0.3910   30.3150 C   0  0  0  0  0  0  0  0  0  0  0  0
    5.1970   -1.1860   30.3180 C   0  0  0  0  0  0  0  0  0  0  0  0
    5.1180   -2.1330   29.1130 C   0  0  0  0  0  0  0  0  0  0  0  0
    5.1390   -1.1980   27.9070 C   0  0  2  0  0  0  0  0  0  0  0  0
    6.4300   -5.2830   23.7260 C   0  0  0  0  0  0  0  0  0  0  0  0
    6.5440   -5.4390   22.2510 C   0  0  0  0  0  0  0  0  0  0  0  0
  1  2  1  0
  2  3  2  0
  2  4  1  0
  4  5  1  0
  5  6  1  0
  6  7  1  0
  7  8  1  0
  8  9  2  0
  8 10  1  0
 11 10  1  1
 11 12  1  0
 13 12  1  6
 13 14  1  0
 14 15  1  0
 15 16  1  0
 16 17  1  0
 11 18  1  0
 13 18  1  0
 18 17  1  1
  7 19  1  0
  4 20  1  0
 19 20  1  0
M  END
