piperidine-amides-8207-covalent
     RDKit          3D

 25 26  0  0  0  0  0  0  0  0999 V2000
    7.0540   -3.2680   19.2630 C   0  0  0  0  0  0  0  0  0  0  0  0
    6.3430   -4.0480   20.2800 C   0  0  0  0  0  0  0  0  0  0  0  0
    5.3200   -4.6580   19.9260 O   0  0  0  0  0  0  0  0  0  0  0  0
    6.8300   -4.1380   21.6150 N   0  0  0  0  0  0  0  0  0  0  0  0
    6.7050   -5.3980   22.2930 C   0  0  0  0  0  0  0  0  0  0  0  0
    6.1740   -5.1980   23.6840 C   0  0  0  0  0  0  0  0  0  0  0  0
    6.0910   -3.7140   23.9580 C   0  0  0  0  0  0  0  0  0  0  0  0
    5.4890   -3.4030   25.3070 C   0  0  0  0  0  0  0  0  0  0  0  0
    4.4460   -2.7540   25.2720 O   0  0  0  0  0  0  0  0  0  0  0  0
    6.0990   -3.8370   26.4900 N   0  0  0  0  0  0  0  0  0  0  0  0
    6.0010   -5.1800   27.0050 C   0  0  1  0  0  0  0  0  0  0  0  0
    6.4420   -5.3290   28.3340 C   0  0  0  0  0  0  0  0  0  0  0  0
    5.4950   -5.6870   29.2500 C   0  0  0  0  0  0  0  0  0  0  0  0
    4.3740   -4.8570   29.4040 C   0  0  0  0  0  0  0  0  0  0  0  0
    3.3090   -5.2300   30.4010 C   0  0  0  0  0  0  0  0  0  0  0  0
    3.4410   -6.5050   31.2510 C   0  0  0  0  0  0  0  0  0  0  0  0
    2.2050   -6.9690   32.4330 Cl  0  0  0  0  0  0  0  0  0  0  0  0
    4.6500   -7.3050   31.0190 C   0  0  0  0  0  0  0  0  0  0  0  0
    5.6360   -6.8400   30.0020 C   0  0  0  0  0  0  0  0  0  0  0  0
    4.6310   -5.7030   26.8800 C   0  0  0  0  0  0  0  0  0  0  0  0
    3.5010   -4.9490   27.1340 C   0  0  0  0  0  0  0  0  0  0  0  0
    4.5020   -6.9460   27.4630 C   0  0  0  0  0  0  0  0  0  0  0  0
    4.3300   -6.0500   25.4220 C   0  0  0  0  0  0  0  0  0  0  0  0
    7.4780   -3.1050   23.7220 C   0  0  0  0  0  0  0  0  0  0  0  0
    7.6250   -3.1010   22.2130 C   0  0  0  0  0  0  0  0  0  0  0  0
  1  2  1  0
  2  3  2  0
  2  4  1  0
  4  5  1  0
  5  6  1  0
  6  7  1  0
  7  8  1  0
  8  9  2  0
  8 10  1  0
 10 11  1  0
 11 12  1  1
 12 13  1  0
 13 14  2  0
 14 15  1  0
 15 16  2  0
 16 17  1  0
 16 18  1  0
 13 19  1  0
 18 19  2  0
 11 20  1  0
 20 21  1  0
 20 22  1  0
 20 23  1  0
  7 24  1  0
  4 25  1  0
 24 25  1  0
M  END
