piperidine-amides-10747-covalent
     RDKit          3D

 22 24  0  0  0  0  0  0  0  0999 V2000
    7.1220   -3.2680   19.2220 C   0  0  0  0  0  0  0  0  0  0  0  0
    6.3570   -4.0110   20.2310 C   0  0  0  0  0  0  0  0  0  0  0  0
    5.2990   -4.5660   19.8950 O   0  0  0  0  0  0  0  0  0  0  0  0
    6.8170   -4.1490   21.5510 N   0  0  0  0  0  0  0  0  0  0  0  0
    6.6300   -5.3700   22.2980 C   0  0  0  0  0  0  0  0  0  0  0  0
    5.8790   -4.9670   23.5400 C   0  0  0  0  0  0  0  0  0  0  0  0
    5.9890   -3.4890   23.8000 C   0  0  0  0  0  0  0  0  0  0  0  0
    5.6000   -3.1130   25.1720 C   0  0  0  0  0  0  0  0  0  0  0  0
    4.5640   -2.4270   25.3990 O   0  0  0  0  0  0  0  0  0  0  0  0
    6.3720   -3.5190   26.2600 N   0  0  0  0  0  0  0  0  0  0  0  0
    6.0550   -3.1100   27.6280 C   0  0  0  0  0  0  0  0  0  0  0  0
    5.6050   -4.3530   28.2670 C   0  0  0  0  0  0  0  0  0  0  0  0
    4.2290   -4.8790   28.0900 C   0  0  0  0  0  0  0  0  0  0  0  0
    4.2030   -6.1090   28.8670 C   0  0  0  0  0  0  0  0  0  0  0  0
    5.4630   -6.2350   29.4200 N   0  0  0  0  0  0  0  0  0  0  0  0
    6.3050   -5.2540   29.1050 N   0  0  0  0  0  0  0  0  0  0  0  0
    5.4280   -7.4580   30.1900 C   0  0  0  0  0  0  0  0  0  0  0  0
    4.1300   -7.4500   30.9090 C   0  0  0  0  0  0  0  0  0  0  0  0
    3.0190   -7.5670   30.1020 C   0  0  0  0  0  0  0  0  0  0  0  0
    2.9110   -6.8840   28.8760 C   0  0  0  0  0  0  0  0  0  0  0  0
    7.4040   -2.9600   23.5670 C   0  0  0  0  0  0  0  0  0  0  0  0
    7.6900   -3.1160   22.0760 C   0  0  0  0  0  0  0  0  0  0  0  0
  1  2  1  0
  2  3  2  0
  2  4  1  0
  4  5  1  0
  5  6  1  0
  6  7  1  0
  7  8  1  0
  8  9  2  0
  8 10  1  0
 10 11  1  0
 11 12  1  0
 12 13  1  0
 13 14  2  0
 14 15  1  0
 12 16  2  0
 15 16  1  0
 15 17  1  0
 17 18  1  0
 18 19  1  0
 14 20  1  0
 19 20  1  0
  7 21  1  0
  4 22  1  0
 21 22  1  0
M  END
