piperidine-amides-12298-covalent
     RDKit          3D

 24 26  0  0  0  0  0  0  0  0999 V2000
    7.1140   -3.2980   19.2940 C   0  0  0  0  0  0  0  0  0  0  0  0
    6.3790   -4.0890   20.2740 C   0  0  0  0  0  0  0  0  0  0  0  0
    5.3490   -4.6760   19.9420 O   0  0  0  0  0  0  0  0  0  0  0  0
    6.8830   -4.2280   21.6180 N   0  0  0  0  0  0  0  0  0  0  0  0
    6.5810   -5.4150   22.3900 C   0  0  0  0  0  0  0  0  0  0  0  0
    6.1150   -5.0440   23.7790 C   0  0  0  0  0  0  0  0  0  0  0  0
    6.0870   -3.5280   23.8690 C   0  0  0  0  0  0  0  0  0  0  0  0
    5.5870   -3.0040   25.1720 C   0  0  0  0  0  0  0  0  0  0  0  0
    4.5980   -2.2570   25.2200 O   0  0  0  0  0  0  0  0  0  0  0  0
    6.2310   -3.3310   26.3830 N   0  0  0  0  0  0  0  0  0  0  0  0
    5.8240   -4.4980   27.1420 C   0  0  0  0  0  0  0  0  0  0  0  0
    4.3160   -4.4930   27.3840 C   0  0  0  0  0  0  0  0  0  0  0  0
    3.7980   -5.6140   28.0290 C   0  0  0  0  0  0  0  0  0  0  0  0
    2.4030   -5.8750   27.8970 C   0  0  0  0  0  0  0  0  0  0  0  0
    1.8150   -6.9710   28.5060 C   0  0  0  0  0  0  0  0  0  0  0  0
    2.6240   -7.8540   29.2830 C   0  0  0  0  0  0  0  0  0  0  0  0
    3.9400   -7.5910   29.3990 C   0  0  0  0  0  0  0  0  0  0  0  0
    4.5460   -6.5080   28.8020 C   0  0  0  0  0  0  0  0  0  0  0  0
    6.4000   -6.3050   29.0870 Br  0  0  0  0  0  0  0  0  0  0  0  0
    3.7630   -3.2680   27.9080 C   0  0  0  0  0  0  0  0  0  0  0  0
    2.9490   -3.0670   26.7660 C   0  0  0  0  0  0  0  0  0  0  0  0
    3.4980   -4.1640   26.2680 C   0  0  0  0  0  0  0  0  0  0  0  0
    7.4400   -2.9670   23.5750 C   0  0  0  0  0  0  0  0  0  0  0  0
    7.7130   -3.1860   22.1320 C   0  0  0  0  0  0  0  0  0  0  0  0
  1  2  1  0
  2  3  2  0
  2  4  1  0
  4  5  1  0
  5  6  1  0
  6  7  1  0
  7  8  1  0
  8  9  2  0
  8 10  1  0
 10 11  1  0
 12 11  1  0
 12 13  1  0
 13 14  2  0
 14 15  1  0
 15 16  2  0
 16 17  1  0
 13 18  1  0
 17 18  2  0
 18 19  1  0
 12 20  1  0
 20 21  1  0
 12 22  1  0
 21 22  1  0
  7 23  1  0
  4 24  1  0
 23 24  1  0
M  END
