piperidine-amides-12267-covalent
     RDKit          3D

 24 26  0  0  0  0  0  0  0  0999 V2000
    7.0500   -3.3390   19.2950 C   0  0  0  0  0  0  0  0  0  0  0  0
    6.3530   -4.1430   20.2930 C   0  0  0  0  0  0  0  0  0  0  0  0
    5.3520   -4.7800   19.9680 O   0  0  0  0  0  0  0  0  0  0  0  0
    6.8620   -4.2340   21.6340 N   0  0  0  0  0  0  0  0  0  0  0  0
    7.7230   -3.1930   22.1500 C   0  0  0  0  0  0  0  0  0  0  0  0
    7.5500   -3.0380   23.6310 C   0  0  0  0  0  0  0  0  0  0  0  0
    6.2030   -3.6280   23.9780 C   0  0  0  0  0  0  0  0  0  0  0  0
    5.8130   -3.3180   25.3750 C   0  0  0  0  0  0  0  0  0  0  0  0
    4.7540   -3.7510   25.8680 O   0  0  0  0  0  0  0  0  0  0  0  0
    6.6560   -2.4980   26.1570 N   0  0  0  0  0  0  0  0  0  0  0  0
    5.9990   -1.5560   27.0380 C   0  0  1  0  0  0  0  0  0  0  0  0
    6.8510   -1.4180   28.3330 C   0  0  0  0  0  0  0  0  0  0  0  0
    7.2200   -0.5230   29.2890 C   0  0  0  0  0  0  0  0  0  0  0  0
    6.5870    0.7450   28.9640 C   0  0  0  0  0  0  0  0  0  0  0  0
    6.7900    2.3210   30.0230 Br  0  0  0  0  0  0  0  0  0  0  0  0
    5.7730    0.7680   27.7740 C   0  0  0  0  0  0  0  0  0  0  0  0
    5.7800   -0.5530   27.1550 C   0  0  0  0  0  0  0  0  0  0  0  0
    6.4170   -0.2180   28.2410 C   0  0  0  0  0  0  0  0  0  0  0  0
    5.6950    0.6580   27.5690 C   0  0  0  0  0  0  0  0  0  0  0  0
    5.3800   -0.3370   26.6010 C   0  0  0  0  0  0  0  0  0  0  0  0
    3.9850   -0.3900   26.1130 C   0  0  0  0  0  0  0  0  0  0  0  0
    6.1160    0.4380   25.4920 C   0  0  0  0  0  0  0  0  0  0  0  0
    6.2050   -5.1140   23.7660 C   0  0  0  0  0  0  0  0  0  0  0  0
    6.6060   -5.4320   22.3620 C   0  0  0  0  0  0  0  0  0  0  0  0
  1  2  1  0
  2  3  2  0
  2  4  1  0
  4  5  1  0
  5  6  1  0
  6  7  1  0
  7  8  1  0
  8  9  2  0
  8 10  1  0
 11 10  1  6
 11 12  1  0
 12 13  2  0
 13 14  1  0
 14 15  1  0
 14 16  2  0
 16 17  1  0
 12 18  1  0
 17 18  2  0
 18 19  1  0
 11 20  1  0
 19 20  1  0
 20 21  1  0
 20 22  1  0
  7 23  1  0
  4 24  1  0
 23 24  1  0
M  END
