piperidine-amides-19387-covalent
     RDKit          3D

 22 24  0  0  0  0  0  0  0  0999 V2000
    7.0660   -3.3420   19.4430 C   0  0  0  0  0  0  0  0  0  0  0  0
    6.3810   -4.1760   20.4160 C   0  0  0  0  0  0  0  0  0  0  0  0
    5.4350   -4.9220   19.9990 O   0  0  0  0  0  0  0  0  0  0  0  0
    6.7550   -4.1970   21.7840 N   0  0  0  0  0  0  0  0  0  0  0  0
    6.6730   -5.5440   22.4140 C   0  0  0  0  0  0  0  0  0  0  0  0
    6.3240   -5.2610   23.9380 C   0  0  0  0  0  0  0  0  0  0  0  0
    6.2980   -3.7670   24.1430 C   0  0  0  0  0  0  0  0  0  0  0  0
    5.3700   -3.3550   25.3950 C   0  0  0  0  0  0  0  0  0  0  0  0
    4.3660   -2.8430   24.9330 O   0  0  0  0  0  0  0  0  0  0  0  0
    5.8490   -3.6370   26.5650 N   0  0  0  0  0  0  0  0  0  0  0  0
    6.5920   -3.9390   27.6380 C   0  0  0  0  0  0  0  0  0  0  0  0
    7.0000   -5.0750   28.2490 C   0  0  0  0  0  0  0  0  0  0  0  0
    5.9040   -5.5120   28.9390 C   0  0  0  0  0  0  0  0  0  0  0  0
    4.7910   -4.5490   28.7490 C   0  0  0  0  0  0  0  0  0  0  0  0
    3.6560   -4.5240   29.5880 N   0  0  0  0  0  0  0  0  0  0  0  0
    2.6250   -3.6840   29.4540 N   0  0  0  0  0  0  0  0  0  0  0  0
    2.9340   -2.6140   28.7820 C   0  0  0  0  0  0  0  0  0  0  0  0
    2.3900   -1.3330   29.0430 O   0  0  0  0  0  0  0  0  0  0  0  0
    3.8360   -2.5740   27.7140 C   0  0  0  0  0  0  0  0  0  0  0  0
    4.8430   -3.5390   27.6050 C   0  0  0  0  0  0  0  0  0  0  0  0
    7.4470   -2.9970   23.7930 C   0  0  0  0  0  0  0  0  0  0  0  0
    7.7230   -3.2850   22.2830 C   0  0  0  0  0  0  0  0  0  0  0  0
  1  2  1  0
  2  3  2  0
  2  4  1  0
  4  5  1  0
  5  6  1  0
  6  7  1  0
  7  8  1  0
  8  9  2  0
  8 10  1  0
 10 11  1  0
 11 12  1  0
 12 13  1  0
 13 14  1  0
 14 15  2  0
 15 16  1  0
 16 17  1  0
 17 18  2  0
 17 19  1  0
 10 20  1  0
 14 20  1  0
 19 20  2  0
  7 21  1  0
  4 22  1  0
 21 22  1  0
M  END
