piperidine-amides-15068-covalent
     RDKit          3D

 20 21  0  0  0  0  0  0  0  0999 V2000
    7.0720   -3.2930   19.2960 C   0  0  0  0  0  0  0  0  0  0  0  0
    6.3810   -4.0930   20.3080 C   0  0  0  0  0  0  0  0  0  0  0  0
    5.3620   -4.7080   19.9490 O   0  0  0  0  0  0  0  0  0  0  0  0
    6.8770   -4.2050   21.6420 N   0  0  0  0  0  0  0  0  0  0  0  0
    6.6800   -5.4340   22.3700 C   0  0  0  0  0  0  0  0  0  0  0  0
    6.1690   -5.1460   23.7570 C   0  0  0  0  0  0  0  0  0  0  0  0
    6.0730   -3.6420   23.8800 C   0  0  0  0  0  0  0  0  0  0  0  0
    5.6330   -3.2150   25.2540 C   0  0  0  0  0  0  0  0  0  0  0  0
    4.4250   -3.0400   25.3730 O   0  0  0  0  0  0  0  0  0  0  0  0
    6.5510   -3.0430   26.2890 N   0  0  0  0  0  0  0  0  0  0  0  0
    6.2410   -3.4570   27.6300 C   0  0  0  0  0  0  0  0  0  0  0  0
    6.1850   -2.4310   28.5860 C   0  0  0  0  0  0  0  0  0  0  0  0
    7.1190   -1.5810   29.0670 C   0  0  0  0  0  0  0  0  0  0  0  0
    6.4800   -0.7810   30.0100 N   0  0  0  0  0  0  0  0  0  0  0  0
    5.1970   -1.0910   30.1370 N   0  0  0  0  0  0  0  0  0  0  0  0
    4.9440   -2.1090   29.2840 N   0  0  0  0  0  0  0  0  0  0  0  0
    3.7020   -2.7920   29.0540 C   0  0  0  0  0  0  0  0  0  0  0  0
    3.7550   -4.2510   29.3920 C   0  0  0  0  0  0  0  0  0  0  0  0
    7.3530   -2.9400   23.5580 C   0  0  0  0  0  0  0  0  0  0  0  0
    7.7390   -3.1060   22.1430 C   0  0  0  0  0  0  0  0  0  0  0  0
  1  2  1  0
  2  3  2  0
  2  4  1  0
  4  5  1  0
  5  6  1  0
  6  7  1  0
  7  8  1  0
  8  9  2  0
  8 10  1  0
 10 11  1  0
 11 12  1  0
 12 13  2  0
 13 14  1  0
 14 15  2  0
 12 16  1  0
 15 16  1  0
 16 17  1  0
 17 18  1  0
  7 19  1  0
  4 20  1  0
 19 20  1  0
M  END
