piperidine-amides-13682-covalent
     RDKit          3D

 28 30  0  0  0  0  0  0  0  0999 V2000
    7.0500   -3.2890   19.2920 C   0  0  0  0  0  0  0  0  0  0  0  0
    6.3330   -4.1020   20.3160 C   0  0  0  0  0  0  0  0  0  0  0  0
    5.3540   -4.7750   19.9580 O   0  0  0  0  0  0  0  0  0  0  0  0
    6.7930   -4.1230   21.6520 N   0  0  0  0  0  0  0  0  0  0  0  0
    7.6700   -3.0960   22.1770 C   0  0  0  0  0  0  0  0  0  0  0  0
    7.5450   -3.1380   23.6970 C   0  0  0  0  0  0  0  0  0  0  0  0
    6.2010   -3.7090   23.9650 C   0  0  0  0  0  0  0  0  0  0  0  0
    5.6330   -3.3500   25.2880 C   0  0  0  0  0  0  0  0  0  0  0  0
    4.4100   -3.2080   25.3060 O   0  0  0  0  0  0  0  0  0  0  0  0
    6.4430   -3.1840   26.4250 N   0  0  0  0  0  0  0  0  0  0  0  0
    6.2220   -3.6780   27.7520 C   0  0  2  0  0  0  0  0  0  0  0  0
    6.3970   -4.9830   28.1750 C   0  0  0  0  0  0  0  0  0  0  0  0
    4.7810   -3.3730   28.1560 C   0  0  0  0  0  0  0  0  0  0  0  0
    4.0370   -2.3880   27.5410 C   0  0  0  0  0  0  0  0  0  0  0  0
    2.6450   -2.0850   27.9230 C   0  0  0  0  0  0  0  0  0  0  0  0
    1.9890   -2.8790   29.0360 C   0  0  0  0  0  0  0  0  0  0  0  0
    0.6900   -2.6900   29.4740 O   0  0  0  0  0  0  0  0  0  0  0  0
   -0.1680   -3.8020   29.5980 C   0  0  0  0  0  0  0  0  0  0  0  0
    0.4320   -4.9360   29.0860 C   0  0  0  0  0  0  0  0  0  0  0  0
    1.0010   -6.0080   29.9390 C   0  0  0  0  0  0  0  0  0  0  0  0
    1.6300   -7.1750   29.1320 C   0  0  0  0  0  0  0  0  0  0  0  0
    1.8130   -7.5110   27.7790 C   0  0  0  0  0  0  0  0  0  0  0  0
    1.1550   -6.2820   27.1200 C   0  0  0  0  0  0  0  0  0  0  0  0
    0.5210   -5.0990   27.7580 C   0  0  0  0  0  0  0  0  0  0  0  0
    2.7580   -3.8510   29.6300 C   0  0  0  0  0  0  0  0  0  0  0  0
    4.1700   -4.0980   29.1810 C   0  0  0  0  0  0  0  0  0  0  0  0
    6.1640   -5.1960   23.6760 C   0  0  0  0  0  0  0  0  0  0  0  0
    6.6590   -5.3680   22.4060 C   0  0  0  0  0  0  0  0  0  0  0  0
  1  2  1  0
  2  3  2  0
  2  4  1  0
  4  5  1  0
  5  6  1  0
  6  7  1  0
  7  8  1  0
  8  9  2  0
  8 10  1  0
 10 11  1  0
 11 12  1  6
 11 13  1  0
 13 14  2  0
 14 15  1  0
 15 16  2  0
 16 17  1  0
 17 18  1  0
 18 19  1  0
 19 20  2  0
 20 21  1  0
 21 22  2  0
 22 23  1  0
 19 24  1  0
 23 24  2  0
 16 25  1  0
 13 26  1  0
 25 26  2  0
  7 27  1  0
  4 28  1  0
 27 28  1  0
M  END
