piperidine-amides-25884-covalent
     RDKit          3D

 25 27  0  0  0  0  0  0  0  0999 V2000
    7.0250   -3.3580   19.3900 C   0  0  0  0  0  0  0  0  0  0  0  0
    6.3860   -4.2720   20.3730 C   0  0  0  0  0  0  0  0  0  0  0  0
    5.3890   -4.8790   19.9880 O   0  0  0  0  0  0  0  0  0  0  0  0
    6.9370   -4.4590   21.6540 N   0  0  0  0  0  0  0  0  0  0  0  0
    6.5350   -5.5560   22.4810 C   0  0  0  0  0  0  0  0  0  0  0  0
    5.5800   -5.0340   23.5220 C   0  0  0  0  0  0  0  0  0  0  0  0
    6.1890   -3.8820   24.3350 C   0  0  0  0  0  0  0  0  0  0  0  0
    5.1270   -3.3740   25.2610 C   0  0  0  0  0  0  0  0  0  0  0  0
    4.0320   -3.1010   24.7750 O   0  0  0  0  0  0  0  0  0  0  0  0
    5.3050   -3.1820   26.6600 N   0  0  0  0  0  0  0  0  0  0  0  0
    6.6140   -3.0320   27.0970 C   0  0  0  0  0  0  0  0  0  0  0  0
    6.5830   -4.0760   28.1780 C   0  0  0  0  0  0  0  0  0  0  0  0
    5.3310   -4.2950   28.5830 C   0  0  0  0  0  0  0  0  0  0  0  0
    4.4560   -3.7430   27.6840 C   0  0  2  0  0  0  0  0  0  0  0  0
    3.4640   -4.5880   27.2630 C   0  0  0  0  0  0  0  0  0  0  0  0
    2.4890   -4.8590   28.1710 O   0  0  0  0  0  0  0  0  0  0  0  0
    1.1950   -4.5600   27.8950 C   0  0  0  0  0  0  0  0  0  0  0  0
    0.7440   -4.7340   26.4850 C   0  0  0  0  0  0  0  0  0  0  0  0
   -0.7120   -4.3860   26.2200 C   0  0  0  0  0  0  0  0  0  0  0  0
   -1.5650   -3.9050   27.3760 C   0  0  0  0  0  0  0  0  0  0  0  0
   -1.0430   -3.7720   28.6890 N   0  0  0  0  0  0  0  0  0  0  0  0
    0.3010   -4.0910   28.9380 C   0  0  0  0  0  0  0  0  0  0  0  0
    0.9310   -3.9710   30.3170 C   0  0  0  0  0  0  0  0  0  0  0  0
    6.6950   -2.7760   23.4130 C   0  0  0  0  0  0  0  0  0  0  0  0
    7.5980   -3.3880   22.3650 C   0  0  0  0  0  0  0  0  0  0  0  0
  1  2  1  0
  2  3  2  0
  2  4  1  0
  4  5  1  0
  5  6  1  0
  6  7  1  0
  7  8  1  0
  8  9  2  0
  8 10  1  0
 10 11  1  0
 11 12  1  0
 12 13  1  0
 10 14  1  0
 13 14  1  0
 14 15  1  6
 15 16  1  0
 16 17  1  0
 17 18  2  0
 18 19  1  0
 19 20  2  0
 20 21  1  0
 17 22  1  0
 21 22  2  0
 22 23  1  0
  7 24  1  0
  4 25  1  0
 24 25  1  0
M  END
