piperidine-amides-892-covalent
     RDKit          3D

 24 25  0  0  0  0  0  0  0  0999 V2000
    7.0750   -3.3590   19.3100 C   0  0  0  0  0  0  0  0  0  0  0  0
    6.3210   -4.0670   20.3230 C   0  0  0  0  0  0  0  0  0  0  0  0
    5.2680   -4.6520   19.9290 O   0  0  0  0  0  0  0  0  0  0  0  0
    6.7170   -4.2050   21.6810 N   0  0  0  0  0  0  0  0  0  0  0  0
    7.7410   -3.2170   22.1800 C   0  0  0  0  0  0  0  0  0  0  0  0
    7.2230   -2.7720   23.6120 C   0  0  0  0  0  0  0  0  0  0  0  0
    6.3030   -3.8710   24.0320 C   0  0  0  0  0  0  0  0  0  0  0  0
    5.4190   -3.4920   25.2930 C   0  0  0  0  0  0  0  0  0  0  0  0
    4.3460   -4.0610   25.2060 O   0  0  0  0  0  0  0  0  0  0  0  0
    5.9830   -2.6820   26.0970 N   0  0  0  0  0  0  0  0  0  0  0  0
    6.3190   -1.7810   27.0540 C   0  0  0  0  0  0  0  0  0  0  0  0
    6.9360   -1.6590   28.2900 C   0  0  0  0  0  0  0  0  0  0  0  0
    7.1150   -0.5010   29.1010 C   0  0  0  0  0  0  0  0  0  0  0  0
    6.6830    0.8790   28.8230 C   0  0  0  0  0  0  0  0  0  0  0  0
    6.7760    2.1110   29.4970 N   0  0  0  0  0  0  0  0  0  0  0  0
    5.7650    1.9340   30.8790 S   0  0  0  0  0  0  0  0  0  0  0  0
    6.0400    3.0300   31.8230 O   0  0  0  0  0  0  0  0  0  0  0  0
    4.3720    1.9890   30.3420 O   0  0  0  0  0  0  0  0  0  0  0  0
    5.9840    0.4020   31.6840 N   0  0  0  0  0  0  0  0  0  0  0  0
    5.1060   -0.4380   31.2300 C   0  0  0  0  0  0  0  0  0  0  0  0
    6.0180    0.7470   27.4700 C   0  0  0  0  0  0  0  0  0  0  0  0
    5.8450   -0.3770   26.6840 C   0  0  0  0  0  0  0  0  0  0  0  0
    6.7710   -5.2040   23.8580 C   0  0  0  0  0  0  0  0  0  0  0  0
    6.6440   -5.4650   22.3270 C   0  0  0  0  0  0  0  0  0  0  0  0
  1  2  1  0
  2  3  2  0
  2  4  1  0
  4  5  1  0
  5  6  1  0
  6  7  1  0
  7  8  1  0
  8  9  2  0
  8 10  1  0
 10 11  1  0
 11 12  2  0
 12 13  1  0
 13 14  2  0
 14 15  1  0
 16 15  1  0
 16 17  2  0
 16 18  2  0
 16 19  1  0
 19 20  1  0
 14 21  1  0
 11 22  1  0
 21 22  2  0
  7 23  1  0
  4 24  1  0
 23 24  1  0
M  END
