piperidine-amides-3975-covalent
     RDKit          3D

 25 27  0  0  0  0  0  0  0  0999 V2000
    7.1710   -3.2880   19.2200 C   0  0  0  0  0  0  0  0  0  0  0  0
    6.3700   -4.0100   20.2170 C   0  0  0  0  0  0  0  0  0  0  0  0
    5.2590   -4.4570   19.8490 O   0  0  0  0  0  0  0  0  0  0  0  0
    6.8730   -4.2480   21.5130 N   0  0  0  0  0  0  0  0  0  0  0  0
    7.5890   -3.1850   22.1410 C   0  0  0  0  0  0  0  0  0  0  0  0
    7.0700   -2.7650   23.4370 C   0  0  0  0  0  0  0  0  0  0  0  0
    6.4580   -3.8330   24.2540 C   0  0  0  0  0  0  0  0  0  0  0  0
    5.7410   -3.2680   25.4440 C   0  0  0  0  0  0  0  0  0  0  0  0
    4.5030   -3.1400   25.3990 O   0  0  0  0  0  0  0  0  0  0  0  0
    6.4300   -2.8820   26.6180 N   0  0  0  0  0  0  0  0  0  0  0  0
    6.2360   -1.7280   27.4210 C   0  0  0  0  0  0  0  0  0  0  0  0
    5.0660   -1.5740   28.2900 C   0  0  1  0  0  0  0  0  0  0  0  0
    5.2730   -2.2120   29.6280 C   0  0  0  0  0  0  0  0  0  0  0  0
    5.0590   -1.0000   30.1670 C   0  0  1  0  0  0  0  0  0  0  0  0
    6.1180   -0.5200   30.9130 O   0  0  0  0  0  0  0  0  0  0  0  0
    5.7550    0.1260   32.0920 C   0  0  0  0  0  0  0  0  0  0  0  0
    6.9970    0.2630   32.9120 C   0  0  0  0  0  0  0  0  0  0  0  0
    4.7360   -0.6190   32.9890 C   0  0  0  0  0  0  0  0  0  0  0  0
    5.2070    1.4760   31.7610 C   0  0  0  0  0  0  0  0  0  0  0  0
    4.9030   -0.1970   29.0230 C   0  0  0  0  0  0  0  0  0  0  0  0
    5.8970    0.9230   28.7030 C   0  0  0  0  0  0  0  0  0  0  0  0
    4.7250    1.7490   28.6840 C   0  0  0  0  0  0  0  0  0  0  0  0
    3.7500    0.7860   28.9550 C   0  0  0  0  0  0  0  0  0  0  0  0
    5.6300   -4.8120   23.4940 C   0  0  0  0  0  0  0  0  0  0  0  0
    6.3380   -5.3340   22.2750 C   0  0  0  0  0  0  0  0  0  0  0  0
  1  2  1  0
  2  3  2  0
  2  4  1  0
  4  5  1  0
  5  6  1  0
  6  7  1  0
  7  8  1  0
  8  9  2  0
  8 10  1  0
 10 11  1  0
 12 11  1  6
 12 13  1  0
 13 14  1  0
 14 15  1  6
 16 15  1  0
 16 17  1  0
 16 18  1  0
 16 19  1  0
 12 20  1  0
 14 20  1  0
 20 21  1  0
 21 22  1  0
 20 23  1  0
 22 23  1  0
  7 24  1  0
  4 25  1  0
 24 25  1  0
M  END
