piperidine-amides-1172-covalent
     RDKit          3D

 23 24  0  0  0  0  0  0  0  0999 V2000
    7.1160   -3.3480   19.3120 C   0  0  0  0  0  0  0  0  0  0  0  0
    6.3650   -4.1550   20.3020 C   0  0  0  0  0  0  0  0  0  0  0  0
    5.3200   -4.7290   19.9490 O   0  0  0  0  0  0  0  0  0  0  0  0
    6.9010   -4.2920   21.5950 N   0  0  0  0  0  0  0  0  0  0  0  0
    7.7210   -3.2760   22.2140 C   0  0  0  0  0  0  0  0  0  0  0  0
    6.8760   -2.6580   23.3190 C   0  0  0  0  0  0  0  0  0  0  0  0
    6.5410   -3.7710   24.2380 C   0  0  0  0  0  0  0  0  0  0  0  0
    5.7970   -3.3240   25.4350 C   0  0  0  0  0  0  0  0  0  0  0  0
    4.5640   -3.3060   25.3350 O   0  0  0  0  0  0  0  0  0  0  0  0
    6.4740   -2.9360   26.5980 N   0  0  0  0  0  0  0  0  0  0  0  0
    6.4130   -1.6500   27.1950 C   0  0  0  0  0  0  0  0  0  0  0  0
    5.7920   -0.5320   26.6230 C   0  0  0  0  0  0  0  0  0  0  0  0
    5.7150    0.7600   27.2140 C   0  0  0  0  0  0  0  0  0  0  0  0
    6.2690    1.0200   28.4410 C   0  0  0  0  0  0  0  0  0  0  0  0
    6.1830    2.7240   29.2520 Br  0  0  0  0  0  0  0  0  0  0  0  0
    6.9300   -0.1140   29.0730 C   0  0  0  0  0  0  0  0  0  0  0  0
    7.6390   -0.1130   30.4290 C   0  0  0  0  0  0  0  0  0  0  0  0
    6.9080   -0.3500   31.5850 O   0  0  0  0  0  0  0  0  0  0  0  0
    8.9970    0.1460   30.5380 O   0  0  0  0  0  0  0  0  0  0  0  0
    9.6200    0.6360   31.7380 C   0  0  0  0  0  0  0  0  0  0  0  0
    6.9920   -1.4380   28.4390 C   0  0  0  0  0  0  0  0  0  0  0  0
    5.7890   -4.8990   23.6070 C   0  0  0  0  0  0  0  0  0  0  0  0
    6.5190   -5.4330   22.3920 C   0  0  0  0  0  0  0  0  0  0  0  0
  1  2  1  0
  2  3  2  0
  2  4  1  0
  4  5  1  0
  5  6  1  0
  6  7  1  0
  7  8  1  0
  8  9  2  0
  8 10  1  0
 10 11  1  0
 11 12  2  0
 12 13  1  0
 13 14  2  0
 14 15  1  0
 14 16  1  0
 16 17  1  0
 17 18  2  0
 17 19  1  0
 19 20  1  0
 11 21  1  0
 16 21  2  0
  7 22  1  0
  4 23  1  0
 22 23  1  0
M  END
