piperidine-amides-1990-covalent
     RDKit          3D

 21 23  0  0  0  0  0  0  0  0999 V2000
    7.0760   -3.2810   19.2740 C   0  0  0  0  0  0  0  0  0  0  0  0
    6.3460   -4.1110   20.2690 C   0  0  0  0  0  0  0  0  0  0  0  0
    5.2870   -4.6110   19.9020 O   0  0  0  0  0  0  0  0  0  0  0  0
    6.8790   -4.3510   21.5350 N   0  0  0  0  0  0  0  0  0  0  0  0
    6.4710   -5.5180   22.2640 C   0  0  0  0  0  0  0  0  0  0  0  0
    5.6490   -5.0650   23.4310 C   0  0  0  0  0  0  0  0  0  0  0  0
    6.5220   -4.1610   24.2930 C   0  0  0  0  0  0  0  0  0  0  0  0
    5.6840   -3.7410   25.4500 C   0  0  0  0  0  0  0  0  0  0  0  0
    4.4560   -3.7220   25.2980 O   0  0  0  0  0  0  0  0  0  0  0  0
    6.2070   -3.3420   26.7100 N   0  0  0  0  0  0  0  0  0  0  0  0
    5.7090   -2.0520   27.1200 C   0  0  1  0  0  0  0  0  0  0  0  0
    5.4290   -1.8540   28.5780 C   0  0  0  0  0  0  0  0  0  0  0  0
    5.8550   -0.6040   28.8820 C   0  0  1  0  0  0  0  0  0  0  0  0
    7.0270   -0.5770   28.3080 C   0  0  0  0  0  0  0  0  0  0  0  0
    6.6390   -0.8970   27.0500 C   0  0  2  0  0  0  0  0  0  0  0  0
    5.4950   -0.0650   26.5360 C   0  0  2  0  0  0  0  0  0  0  0  0
    5.7220    0.9640   25.6710 O   0  0  0  0  0  0  0  0  0  0  0  0
    5.2180    0.4190   27.9700 C   0  0  2  0  0  0  0  0  0  0  0  0
    5.7020    1.6490   28.3600 O   0  0  0  0  0  0  0  0  0  0  0  0
    7.0660   -2.9870   23.5780 C   0  0  0  0  0  0  0  0  0  0  0  0
    7.5520   -3.2610   22.1950 C   0  0  0  0  0  0  0  0  0  0  0  0
  1  2  1  0
  2  3  2  0
  2  4  1  0
  4  5  1  0
  5  6  1  0
  6  7  1  0
  7  8  1  0
  8  9  2  0
  8 10  1  0
 11 10  1  1
 11 12  1  0
 13 12  1  6
 13 14  1  0
 11 15  1  0
 15 14  1  1
 15 16  1  0
 16 17  1  6
 13 18  1  0
 16 18  1  0
 18 19  1  6
  7 20  1  0
  4 21  1  0
 20 21  1  0
M  END
