piperidine-amides-3468-covalent
     RDKit          3D

 20 20  0  0  0  0  0  0  0  0999 V2000
    7.1020   -3.2670   19.2640 C   0  0  0  0  0  0  0  0  0  0  0  0
    6.3480   -4.0510   20.2410 C   0  0  0  0  0  0  0  0  0  0  0  0
    5.2990   -4.5950   19.9040 O   0  0  0  0  0  0  0  0  0  0  0  0
    6.8430   -4.2330   21.5810 N   0  0  0  0  0  0  0  0  0  0  0  0
    6.5750   -5.4740   22.2550 C   0  0  0  0  0  0  0  0  0  0  0  0
    6.1210   -5.1940   23.6600 C   0  0  0  0  0  0  0  0  0  0  0  0
    5.9630   -3.6890   23.8040 C   0  0  0  0  0  0  0  0  0  0  0  0
    5.4080   -3.3150   25.1420 C   0  0  0  0  0  0  0  0  0  0  0  0
    4.2420   -2.8990   25.2690 O   0  0  0  0  0  0  0  0  0  0  0  0
    6.2030   -3.4230   26.3050 N   0  0  0  0  0  0  0  0  0  0  0  0
    5.8160   -4.3660   27.3420 C   0  0  1  0  0  0  0  0  0  0  0  0
    5.3970   -5.6710   26.7350 C   0  0  0  0  0  0  0  0  0  0  0  0
    4.0590   -5.8960   27.0200 O   0  0  0  0  0  0  0  0  0  0  0  0
    6.9800   -4.6620   28.1600 C   0  0  0  0  0  0  0  0  0  0  0  0
    8.2120   -4.5550   27.5980 C   0  0  2  0  0  0  0  0  0  0  0  0
    8.2290   -3.8480   26.4040 C   0  0  0  0  0  0  0  0  0  0  0  0
    8.8790   -5.7280   27.5510 C   0  0  0  0  0  0  0  0  0  0  0  0
    9.4660   -6.1290   26.3850 C   0  0  0  0  0  0  0  0  0  0  0  0
    7.3260   -3.0620   23.5460 C   0  0  0  0  0  0  0  0  0  0  0  0
    7.5960   -3.1320   22.1760 C   0  0  0  0  0  0  0  0  0  0  0  0
  1  2  1  0
  2  3  2  0
  2  4  1  0
  4  5  1  0
  5  6  1  0
  6  7  1  0
  7  8  1  0
  8  9  2  0
  8 10  1  0
 10 11  1  0
 11 12  1  6
 12 13  1  0
 11 14  1  0
 14 15  1  0
 15 16  1  6
 15 17  1  0
 17 18  1  0
  7 19  1  0
  4 20  1  0
 19 20  1  0
M  END
