piperidine-amides-101-covalent
     RDKit          3D

 26 28  0  0  0  0  0  0  0  0999 V2000
    7.1700   -3.2940   19.3530 C   0  0  0  0  0  0  0  0  0  0  0  0
    6.4390   -4.0820   20.3220 C   0  0  0  0  0  0  0  0  0  0  0  0
    5.3890   -4.7010   19.9430 O   0  0  0  0  0  0  0  0  0  0  0  0
    6.8790   -4.2040   21.6540 N   0  0  0  0  0  0  0  0  0  0  0  0
    6.7260   -5.5420   22.3040 C   0  0  0  0  0  0  0  0  0  0  0  0
    6.1230   -5.1530   23.7090 C   0  0  0  0  0  0  0  0  0  0  0  0
    6.1770   -3.6570   23.7010 C   0  0  0  0  0  0  0  0  0  0  0  0
    5.2810   -2.9370   24.7730 C   0  0  0  0  0  0  0  0  0  0  0  0
    4.4490   -2.2540   24.2160 O   0  0  0  0  0  0  0  0  0  0  0  0
    5.6270   -3.2340   25.9370 N   0  0  0  0  0  0  0  0  0  0  0  0
    5.8300   -3.4220   27.2400 C   0  0  0  0  0  0  0  0  0  0  0  0
    5.4010   -2.9350   28.4230 C   0  0  1  0  0  0  0  0  0  0  0  0
    4.0240   -2.5520   28.5330 C   0  0  0  0  0  0  0  0  0  0  0  0
    3.0550   -3.6390   28.2840 C   0  0  0  0  0  0  0  0  0  0  0  0
    3.5340   -4.9040   28.5850 N   0  0  0  0  0  0  0  0  0  0  0  0
    3.0520   -6.2650   28.3350 C   0  0  0  0  0  0  0  0  0  0  0  0
    1.8380   -6.4040   27.6470 C   0  0  0  0  0  0  0  0  0  0  0  0
    1.5200   -5.6590   26.6980 O   0  0  0  0  0  0  0  0  0  0  0  0
    0.9240   -7.4080   28.0190 O   0  0  0  0  0  0  0  0  0  0  0  0
    1.2190   -8.7520   28.1140 C   0  0  0  0  0  0  0  0  0  0  0  0
    3.9960   -7.2540   28.8940 C   0  0  0  0  0  0  0  0  0  0  0  0
    4.9840   -6.4090   29.4450 N   0  0  0  0  0  0  0  0  0  0  0  0
    4.6870   -5.0070   29.2520 C   0  0  0  0  0  0  0  0  0  0  0  0
    5.3220   -3.8360   29.6130 C   0  0  0  0  0  0  0  0  0  0  0  0
    7.5490   -3.0720   23.5120 C   0  0  0  0  0  0  0  0  0  0  0  0
    7.7770   -3.1900   22.1920 C   0  0  0  0  0  0  0  0  0  0  0  0
  1  2  1  0
  2  3  2  0
  2  4  1  0
  4  5  1  0
  5  6  1  0
  6  7  1  0
  7  8  1  0
  8  9  2  0
  8 10  1  0
 10 11  1  0
 12 11  1  6
 12 13  1  0
 13 14  1  0
 14 15  1  0
 15 16  1  0
 16 17  1  0
 17 18  2  0
 17 19  1  0
 19 20  1  0
 16 21  2  0
 21 22  1  0
 15 23  1  0
 22 23  2  0
 12 24  1  0
 23 24  1  0
  7 25  1  0
  4 26  1  0
 25 26  1  0
M  END
