piperidine-amides-3681-covalent
     RDKit          3D

 21 23  0  0  0  0  0  0  0  0999 V2000
    7.0690   -3.3460   19.3320 C   0  0  0  0  0  0  0  0  0  0  0  0
    6.3950   -4.1690   20.3480 C   0  0  0  0  0  0  0  0  0  0  0  0
    5.3890   -4.8200   19.9770 O   0  0  0  0  0  0  0  0  0  0  0  0
    6.9030   -4.2460   21.6750 N   0  0  0  0  0  0  0  0  0  0  0  0
    6.5500   -5.3630   22.4860 C   0  0  0  0  0  0  0  0  0  0  0  0
    6.0280   -4.9890   23.7980 C   0  0  0  0  0  0  0  0  0  0  0  0
    6.1540   -3.5470   24.0900 C   0  0  0  0  0  0  0  0  0  0  0  0
    5.7210   -3.1940   25.4910 C   0  0  0  0  0  0  0  0  0  0  0  0
    4.6490   -3.6660   25.9130 O   0  0  0  0  0  0  0  0  0  0  0  0
    6.4710   -2.3330   26.3340 N   0  0  0  0  0  0  0  0  0  0  0  0
    6.0290   -1.4450   27.3690 C   0  0  2  0  0  0  0  0  0  0  0  0
    7.1090   -1.5070   28.4350 C   0  0  0  0  0  0  0  0  0  0  0  0
    6.6130   -0.4620   29.3700 C   0  0  0  0  0  0  0  0  0  0  0  0
    5.5490   -0.4900   28.6080 C   0  0  2  0  0  0  0  0  0  0  0  0
    6.8480   -0.2770   27.7660 C   0  0  0  0  0  0  0  0  0  0  0  0
    5.0310    0.4740   27.6520 C   0  0  2  0  0  0  0  0  0  0  0  0
    3.6470    0.3460   27.5410 O   0  0  0  0  0  0  0  0  0  0  0  0
    5.7860   -0.1320   26.4130 C   0  0  2  0  0  0  0  0  0  0  0  0
    5.1840   -0.2920   25.3350 O   0  0  0  0  0  0  0  0  0  0  0  0
    7.5140   -3.0090   23.7210 C   0  0  0  0  0  0  0  0  0  0  0  0
    7.6970   -3.1490   22.2160 C   0  0  0  0  0  0  0  0  0  0  0  0
  1  2  1  0
  2  3  2  0
  2  4  1  0
  4  5  1  0
  5  6  1  0
  6  7  1  0
  7  8  1  0
  8  9  2  0
  8 10  1  0
 11 10  1  6
 11 12  1  0
 12 13  1  0
 14 13  1  1
 11 15  1  0
 14 15  1  0
 14 16  1  0
 16 17  1  6
 11 18  1  0
 16 18  1  0
 18 19  1  6
  7 20  1  0
  4 21  1  0
 20 21  1  0
M  END
