piperidine-amides-10065-covalent
     RDKit          3D

 26 27  0  0  0  0  0  0  0  0999 V2000
    7.0700   -3.2620   19.2190 C   0  0  0  0  0  0  0  0  0  0  0  0
    6.3170   -4.0010   20.2390 C   0  0  0  0  0  0  0  0  0  0  0  0
    5.2460   -4.5490   19.8720 O   0  0  0  0  0  0  0  0  0  0  0  0
    6.8060   -4.1150   21.5400 N   0  0  0  0  0  0  0  0  0  0  0  0
    7.6490   -3.0920   22.1200 C   0  0  0  0  0  0  0  0  0  0  0  0
    7.4270   -3.0500   23.6020 C   0  0  0  0  0  0  0  0  0  0  0  0
    6.0660   -3.5570   23.9870 C   0  0  0  0  0  0  0  0  0  0  0  0
    5.8500   -3.3430   25.4380 C   0  0  0  0  0  0  0  0  0  0  0  0
    4.6690   -3.3160   25.8550 O   0  0  0  0  0  0  0  0  0  0  0  0
    6.9010   -3.1610   26.3670 N   0  0  0  0  0  0  0  0  0  0  0  0
    7.1630   -4.1220   27.4140 C   0  0  0  0  0  0  0  0  0  0  0  0
    8.5450   -4.7490   27.2870 C   0  0  0  0  0  0  0  0  0  0  0  0
    9.3850   -4.5420   26.2180 C   0  0  0  0  0  0  0  0  0  0  0  0
    9.2280   -3.3110   25.5050 O   0  0  0  0  0  0  0  0  0  0  0  0
   10.2770   -2.6780   24.9320 C   0  0  0  0  0  0  0  0  0  0  0  0
   10.1330   -1.4990   24.1450 C   0  0  0  0  0  0  0  0  0  0  0  0
   11.1480   -0.7420   23.5030 C   0  0  0  0  0  0  0  0  0  0  0  0
   10.9840    0.2960   22.8320 O   0  0  0  0  0  0  0  0  0  0  0  0
   12.1580    1.0880   22.7130 C   0  0  0  0  0  0  0  0  0  0  0  0
   12.5640   -1.2560   23.6700 C   0  0  0  0  0  0  0  0  0  0  0  0
   12.7430   -2.4770   24.4820 C   0  0  0  0  0  0  0  0  0  0  0  0
   14.1600   -2.9900   24.6780 O   0  0  0  0  0  0  0  0  0  0  0  0
   14.4350   -2.6310   26.0270 C   0  0  0  0  0  0  0  0  0  0  0  0
   11.5310   -3.1780   25.1140 C   0  0  0  0  0  0  0  0  0  0  0  0
    5.8620   -4.9840   23.6050 C   0  0  0  0  0  0  0  0  0  0  0  0
    6.5340   -5.3150   22.2850 C   0  0  0  0  0  0  0  0  0  0  0  0
  1  2  1  0
  2  3  2  0
  2  4  1  0
  4  5  1  0
  5  6  1  0
  6  7  1  0
  7  8  1  0
  8  9  2  0
  8 10  1  0
 10 11  1  0
 11 12  1  0
 12 13  1  0
 13 14  1  0
 14 15  1  0
 15 16  2  0
 16 17  1  0
 17 18  1  0
 18 19  1  0
 17 20  2  0
 20 21  1  0
 21 22  1  0
 22 23  1  0
 15 24  1  0
 21 24  2  0
  7 25  1  0
  4 26  1  0
 25 26  1  0
M  END
