piperidine-amides-14699-covalent
     RDKit          3D

 22 23  0  0  0  0  0  0  0  0999 V2000
    7.0240   -3.3330   19.3680 C   0  0  0  0  0  0  0  0  0  0  0  0
    6.3200   -4.1320   20.3750 C   0  0  0  0  0  0  0  0  0  0  0  0
    5.3660   -4.8260   19.9760 O   0  0  0  0  0  0  0  0  0  0  0  0
    6.7200   -4.1490   21.7460 N   0  0  0  0  0  0  0  0  0  0  0  0
    7.6280   -3.1460   22.2390 C   0  0  0  0  0  0  0  0  0  0  0  0
    7.4600   -3.0650   23.7250 C   0  0  0  0  0  0  0  0  0  0  0  0
    6.0750   -3.6090   23.9550 C   0  0  0  0  0  0  0  0  0  0  0  0
    5.5360   -3.3730   25.3540 C   0  0  0  0  0  0  0  0  0  0  0  0
    4.3100   -3.3540   25.4270 O   0  0  0  0  0  0  0  0  0  0  0  0
    6.3850   -3.1910   26.4560 N   0  0  0  0  0  0  0  0  0  0  0  0
    6.2960   -3.9700   27.6710 C   0  0  2  0  0  0  0  0  0  0  0  0
    5.8420   -5.2940   27.5260 C   0  0  0  0  0  0  0  0  0  0  0  0
    5.3770   -3.2890   28.5990 C   0  0  0  0  0  0  0  0  0  0  0  0
    4.4250   -3.9810   29.3600 C   0  0  0  0  0  0  0  0  0  0  0  0
    3.5500   -3.1890   30.2810 C   0  0  0  0  0  0  0  0  0  0  0  0
    3.6850   -1.6740   30.3920 C   0  0  0  0  0  0  0  0  0  0  0  0
    2.8640   -0.9730   31.2490 F   0  0  0  0  0  0  0  0  0  0  0  0
    4.7260   -1.1100   29.5280 C   0  0  0  0  0  0  0  0  0  0  0  0
    4.8280    0.3800   29.6660 C   0  0  0  0  0  0  0  0  0  0  0  0
    5.4950   -1.8990   28.7050 C   0  0  0  0  0  0  0  0  0  0  0  0
    6.0690   -5.1100   23.7280 C   0  0  0  0  0  0  0  0  0  0  0  0
    6.6490   -5.3890   22.4890 C   0  0  0  0  0  0  0  0  0  0  0  0
  1  2  1  0
  2  3  2  0
  2  4  1  0
  4  5  1  0
  5  6  1  0
  6  7  1  0
  7  8  1  0
  8  9  2  0
  8 10  1  0
 10 11  1  0
 11 12  1  6
 11 13  1  0
 13 14  2  0
 14 15  1  0
 15 16  2  0
 16 17  1  0
 16 18  1  0
 18 19  1  0
 13 20  1  0
 18 20  2  0
  7 21  1  0
  4 22  1  0
 21 22  1  0
M  END
