piperidine-amides-21635-covalent
     RDKit          3D

 23 25  0  0  0  0  0  0  0  0999 V2000
    7.0030   -3.3390   19.3010 C   0  0  0  0  0  0  0  0  0  0  0  0
    6.3190   -4.1720   20.3040 C   0  0  0  0  0  0  0  0  0  0  0  0
    5.2780   -4.7640   19.9350 O   0  0  0  0  0  0  0  0  0  0  0  0
    6.8350   -4.3180   21.5860 N   0  0  0  0  0  0  0  0  0  0  0  0
    6.7130   -5.5580   22.3210 C   0  0  0  0  0  0  0  0  0  0  0  0
    6.0070   -5.2570   23.6110 C   0  0  0  0  0  0  0  0  0  0  0  0
    6.0180   -3.7820   23.8790 C   0  0  0  0  0  0  0  0  0  0  0  0
    5.4720   -3.4790   25.2330 C   0  0  0  0  0  0  0  0  0  0  0  0
    4.4740   -2.7330   25.2970 O   0  0  0  0  0  0  0  0  0  0  0  0
    5.9910   -3.9780   26.4420 N   0  0  0  0  0  0  0  0  0  0  0  0
    5.3360   -3.6680   27.6940 C   0  0  0  0  0  0  0  0  0  0  0  0
    6.3860   -4.1260   28.6330 C   0  0  0  0  0  0  0  0  0  0  0  0
    7.4710   -4.5510   27.9460 C   0  0  0  0  0  0  0  0  0  0  0  0
    7.4080   -4.2910   26.5630 C   0  0  2  0  0  0  0  0  0  0  0  0
    8.0530   -3.2190   25.9770 C   0  0  0  0  0  0  0  0  0  0  0  0
    9.3690   -3.3960   25.8180 N   0  0  0  0  0  0  0  0  0  0  0  0
   10.2530   -2.6910   25.1140 C   0  0  0  0  0  0  0  0  0  0  0  0
   11.4790   -3.2260   25.2380 C   0  0  0  0  0  0  0  0  0  0  0  0
   11.4130   -4.2940   26.0360 N   0  0  0  0  0  0  0  0  0  0  0  0
   10.0360   -4.4100   26.4090 C   0  0  0  0  0  0  0  0  0  0  0  0
    9.4970   -5.5080   27.3190 C   0  0  0  0  0  0  0  0  0  0  0  0
    7.4260   -3.2070   23.6440 C   0  0  0  0  0  0  0  0  0  0  0  0
    7.6180   -3.2180   22.1420 C   0  0  0  0  0  0  0  0  0  0  0  0
  1  2  1  0
  2  3  2  0
  2  4  1  0
  4  5  1  0
  5  6  1  0
  6  7  1  0
  7  8  1  0
  8  9  2  0
  8 10  1  0
 10 11  1  0
 11 12  1  0
 12 13  1  0
 10 14  1  0
 13 14  1  0
 14 15  1  1
 15 16  1  0
 16 17  1  0
 17 18  2  0
 18 19  1  0
 16 20  1  0
 19 20  2  0
 20 21  1  0
  7 22  1  0
  4 23  1  0
 22 23  1  0
M  END
