piperidine-amides-33530-covalent
     RDKit          3D

 29 31  0  0  0  0  0  0  0  0999 V2000
    7.0650   -3.3630   19.3790 C   0  0  0  0  0  0  0  0  0  0  0  0
    6.4320   -4.2250   20.3960 C   0  0  0  0  0  0  0  0  0  0  0  0
    5.4380   -4.8960   20.0050 O   0  0  0  0  0  0  0  0  0  0  0  0
    6.9510   -4.3250   21.7270 N   0  0  0  0  0  0  0  0  0  0  0  0
    6.6460   -5.4860   22.5060 C   0  0  0  0  0  0  0  0  0  0  0  0
    6.2640   -5.1790   23.8880 C   0  0  0  0  0  0  0  0  0  0  0  0
    6.2700   -3.7280   24.1510 C   0  0  0  0  0  0  0  0  0  0  0  0
    5.5400   -3.2540   25.4020 C   0  0  0  0  0  0  0  0  0  0  0  0
    4.4350   -2.7340   25.1790 O   0  0  0  0  0  0  0  0  0  0  0  0
    5.8970   -3.2930   26.7920 N   0  0  0  0  0  0  0  0  0  0  0  0
    5.0690   -2.6110   27.6980 C   0  0  0  0  0  0  0  0  0  0  0  0
    4.4170   -3.5620   28.4790 C   0  0  1  0  0  0  0  0  0  0  0  0
    3.2130   -4.1510   27.6900 C   0  0  0  0  0  0  0  0  0  0  0  0
    3.4990   -5.4500   27.2440 C   0  0  0  0  0  0  0  0  0  0  0  0
    2.5310   -5.9340   26.3290 N   0  0  0  0  0  0  0  0  0  0  0  0
    2.6730   -7.2190   25.7050 C   0  0  0  0  0  0  0  0  0  0  0  0
    3.7820   -7.8470   25.1180 O   0  0  0  0  0  0  0  0  0  0  0  0
    1.4460   -8.0710   25.6280 C   0  0  0  0  0  0  0  0  0  0  0  0
    1.8170   -9.2830   25.0410 F   0  0  0  0  0  0  0  0  0  0  0  0
    0.4820   -7.4400   24.9230 F   0  0  0  0  0  0  0  0  0  0  0  0
    0.9120   -8.3320   26.8520 F   0  0  0  0  0  0  0  0  0  0  0  0
    5.4080   -4.5350   28.5370 C   0  0  0  0  0  0  0  0  0  0  0  0
    5.2010   -5.5580   29.7620 C   0  0  0  0  0  0  0  0  0  0  0  0
    6.2240   -6.6880   29.9370 C   0  0  0  0  0  0  0  0  0  0  0  0
    7.1750   -6.4940   28.8670 C   0  0  0  0  0  0  0  0  0  0  0  0
    6.4660   -5.3840   28.4040 C   0  0  0  0  0  0  0  0  0  0  0  0
    6.4730   -4.5000   27.4930 C   0  0  0  0  0  0  0  0  0  0  0  0
    7.5320   -3.0560   23.7580 C   0  0  0  0  0  0  0  0  0  0  0  0
    7.7550   -3.2340   22.2650 C   0  0  0  0  0  0  0  0  0  0  0  0
  1  2  1  0
  2  3  2  0
  2  4  1  0
  4  5  1  0
  5  6  1  0
  6  7  1  0
  7  8  1  0
  8  9  2  0
  8 10  1  0
 10 11  1  0
 11 12  1  0
 12 13  1  6
 13 14  1  0
 14 15  1  0
 15 16  1  0
 16 17  2  0
 16 18  1  0
 18 19  1  0
 18 20  1  0
 18 21  1  0
 12 22  1  0
 22 23  1  0
 23 24  2  0
 24 25  1  0
 25 26  2  0
 10 27  1  0
 22 27  2  0
 26 27  1  0
  7 28  1  0
  4 29  1  0
 28 29  1  0
M  END
