piperidine-amides-530-covalent
     RDKit          3D

 27 29  0  0  0  0  0  0  0  0999 V2000
    7.0570   -3.3520   19.2310 C   0  0  0  0  0  0  0  0  0  0  0  0
    6.3390   -4.0800   20.2500 C   0  0  0  0  0  0  0  0  0  0  0  0
    5.2650   -4.6560   19.9150 O   0  0  0  0  0  0  0  0  0  0  0  0
    6.7970   -4.2410   21.5680 N   0  0  0  0  0  0  0  0  0  0  0  0
    7.6580   -3.1900   22.1580 C   0  0  0  0  0  0  0  0  0  0  0  0
    6.6880   -2.6780   23.2780 C   0  0  0  0  0  0  0  0  0  0  0  0
    6.7500   -3.7730   24.2990 C   0  0  0  0  0  0  0  0  0  0  0  0
    5.7120   -3.5480   25.4740 C   0  0  0  0  0  0  0  0  0  0  0  0
    4.8520   -4.4120   25.4590 O   0  0  0  0  0  0  0  0  0  0  0  0
    6.0070   -2.5050   26.1280 N   0  0  0  0  0  0  0  0  0  0  0  0
    6.1330   -1.3480   26.8210 C   0  0  0  0  0  0  0  0  0  0  0  0
    5.7790   -0.0280   26.6760 C   0  0  0  0  0  0  0  0  0  0  0  0
    6.0440    1.0070   27.6220 C   0  0  0  0  0  0  0  0  0  0  0  0
    6.7410    0.8960   28.9270 C   0  0  0  0  0  0  0  0  0  0  0  0
    7.0980   -0.5860   29.0020 C   0  0  0  0  0  0  0  0  0  0  0  0
    7.7240   -0.4890   30.2450 C   0  0  0  0  0  0  0  0  0  0  0  0
    7.4800    0.5430   30.8970 O   0  0  0  0  0  0  0  0  0  0  0  0
    7.1680    0.5620   32.2240 C   0  0  0  0  0  0  0  0  0  0  0  0
    5.7220    0.3400   32.6570 C   0  0  0  0  0  0  0  0  0  0  0  0
    4.5020    0.8250   31.8180 C   0  0  0  0  0  0  0  0  0  0  0  0
    3.2230    0.6050   32.2380 C   0  0  0  0  0  0  0  0  0  0  0  0
    3.0070   -0.0520   33.4170 C   0  0  0  0  0  0  0  0  0  0  0  0
    4.0460   -0.4940   34.1810 C   0  0  0  0  0  0  0  0  0  0  0  0
    5.3720   -0.3110   33.8230 C   0  0  0  0  0  0  0  0  0  0  0  0
    6.8400   -1.5790   28.1000 C   0  0  0  0  0  0  0  0  0  0  0  0
    6.7940   -5.1880   23.8170 C   0  0  0  0  0  0  0  0  0  0  0  0
    6.5360   -5.4040   22.3550 C   0  0  0  0  0  0  0  0  0  0  0  0
  1  2  1  0
  2  3  2  0
  2  4  1  0
  4  5  1  0
  5  6  1  0
  6  7  1  0
  7  8  1  0
  8  9  2  0
  8 10  1  0
 10 11  1  0
 11 12  2  0
 12 13  1  0
 13 14  2  0
 14 15  1  0
 15 16  1  0
 16 17  1  0
 17 18  1  0
 18 19  1  0
 19 20  2  0
 20 21  1  0
 21 22  2  0
 22 23  1  0
 19 24  1  0
 23 24  2  0
 11 25  1  0
 15 25  2  0
  7 26  1  0
  4 27  1  0
 26 27  1  0
M  END
