piperidine-amides-8485-covalent
     RDKit          3D

 24 26  0  0  0  0  0  0  0  0999 V2000
    7.0970   -3.3480   19.3290 C   0  0  0  0  0  0  0  0  0  0  0  0
    6.3920   -4.1720   20.3010 C   0  0  0  0  0  0  0  0  0  0  0  0
    5.3270   -4.7070   19.9460 O   0  0  0  0  0  0  0  0  0  0  0  0
    6.9550   -4.3960   21.5860 N   0  0  0  0  0  0  0  0  0  0  0  0
    7.6190   -3.3050   22.2410 C   0  0  0  0  0  0  0  0  0  0  0  0
    6.7120   -2.7520   23.3000 C   0  0  0  0  0  0  0  0  0  0  0  0
    6.4650   -3.8650   24.2940 C   0  0  0  0  0  0  0  0  0  0  0  0
    5.7420   -3.3210   25.4890 C   0  0  0  0  0  0  0  0  0  0  0  0
    4.5100   -3.2500   25.4490 O   0  0  0  0  0  0  0  0  0  0  0  0
    6.5160   -2.9440   26.5730 N   0  0  0  0  0  0  0  0  0  0  0  0
    6.4330   -1.6700   27.2030 C   0  0  0  0  0  0  0  0  0  0  0  0
    5.9140   -0.4910   26.6240 C   0  0  0  0  0  0  0  0  0  0  0  0
    5.8560    0.7130   27.2940 C   0  0  0  0  0  0  0  0  0  0  0  0
    6.3100    0.8360   28.5930 C   0  0  0  0  0  0  0  0  0  0  0  0
    6.3210    1.9800   29.4210 N   0  0  0  0  0  0  0  0  0  0  0  0
    7.2850    2.2900   30.4320 C   0  0  0  0  0  0  0  0  0  0  0  0
    7.0240    3.4190   31.0250 N   0  0  0  0  0  0  0  0  0  0  0  0
    5.9240    3.9160   30.4800 N   0  0  0  0  0  0  0  0  0  0  0  0
    5.5070    3.0520   29.5210 N   0  0  0  0  0  0  0  0  0  0  0  0
    6.8260   -0.2650   29.2100 C   0  0  0  0  0  0  0  0  0  0  0  0
    7.2730   -0.1350   30.5050 F   0  0  0  0  0  0  0  0  0  0  0  0
    6.9130   -1.5740   28.5410 C   0  0  0  0  0  0  0  0  0  0  0  0
    5.7880   -5.0260   23.6560 C   0  0  0  0  0  0  0  0  0  0  0  0
    6.4280   -5.5010   22.3380 C   0  0  0  0  0  0  0  0  0  0  0  0
  1  2  1  0
  2  3  2  0
  2  4  1  0
  4  5  1  0
  5  6  1  0
  6  7  1  0
  7  8  1  0
  8  9  2  0
  8 10  1  0
 10 11  1  0
 11 12  2  0
 12 13  1  0
 13 14  2  0
 14 15  1  0
 15 16  1  0
 16 17  2  0
 17 18  1  0
 15 19  1  0
 18 19  2  0
 14 20  1  0
 20 21  1  0
 11 22  1  0
 20 22  2  0
  7 23  1  0
  4 24  1  0
 23 24  1  0
M  END
