piperidine-amides-893-covalent
     RDKit          3D

 24 25  0  0  0  0  0  0  0  0999 V2000
    7.1220   -3.3500   19.3060 C   0  0  0  0  0  0  0  0  0  0  0  0
    6.3700   -4.1640   20.2910 C   0  0  0  0  0  0  0  0  0  0  0  0
    5.3190   -4.7260   19.9450 O   0  0  0  0  0  0  0  0  0  0  0  0
    6.9190   -4.3140   21.5750 N   0  0  0  0  0  0  0  0  0  0  0  0
    7.7510   -3.3120   22.1900 C   0  0  0  0  0  0  0  0  0  0  0  0
    6.8930   -2.6460   23.2520 C   0  0  0  0  0  0  0  0  0  0  0  0
    6.5060   -3.7320   24.1900 C   0  0  0  0  0  0  0  0  0  0  0  0
    5.7690   -3.2150   25.3590 C   0  0  0  0  0  0  0  0  0  0  0  0
    4.5460   -3.0820   25.2360 O   0  0  0  0  0  0  0  0  0  0  0  0
    6.4710   -2.9120   26.5230 N   0  0  0  0  0  0  0  0  0  0  0  0
    6.4730   -1.7070   27.2770 C   0  0  0  0  0  0  0  0  0  0  0  0
    6.9760   -1.6400   28.5430 C   0  0  0  0  0  0  0  0  0  0  0  0
    6.9740   -0.4700   29.2980 C   0  0  0  0  0  0  0  0  0  0  0  0
    6.4610    0.6950   28.7960 C   0  0  0  0  0  0  0  0  0  0  0  0
    6.4650    1.9430   29.6230 C   0  0  0  0  0  0  0  0  0  0  0  0
    7.6230    1.8460   30.9840 S   0  0  0  0  0  0  0  0  0  0  0  0
    8.3340    0.2610   31.2780 C   0  0  0  0  0  0  0  0  0  0  0  0
    8.7670    2.7780   30.6220 O   0  0  0  0  0  0  0  0  0  0  0  0
    7.0050    2.3230   32.2590 O   0  0  0  0  0  0  0  0  0  0  0  0
    5.9510    0.6570   27.5150 C   0  0  0  0  0  0  0  0  0  0  0  0
    5.9580   -0.5170   26.7750 C   0  0  0  0  0  0  0  0  0  0  0  0
    5.4420   -0.5250   25.5100 F   0  0  0  0  0  0  0  0  0  0  0  0
    5.7340   -4.8470   23.5670 C   0  0  0  0  0  0  0  0  0  0  0  0
    6.4870   -5.4290   22.3830 C   0  0  0  0  0  0  0  0  0  0  0  0
  1  2  1  0
  2  3  2  0
  2  4  1  0
  4  5  1  0
  5  6  1  0
  6  7  1  0
  7  8  1  0
  8  9  2  0
  8 10  1  0
 10 11  1  0
 11 12  2  0
 12 13  1  0
 13 14  2  0
 14 15  1  0
 16 15  1  0
 16 17  1  0
 16 18  2  0
 16 19  2  0
 14 20  1  0
 11 21  1  0
 20 21  2  0
 21 22  1  0
  7 23  1  0
  4 24  1  0
 23 24  1  0
M  END
