piperidine-amides-11069-covalent
     RDKit          3D

 20 20  0  0  0  0  0  0  0  0999 V2000
    7.1430   -3.2980   19.2210 C   0  0  0  0  0  0  0  0  0  0  0  0
    6.3400   -4.0030   20.2180 C   0  0  0  0  0  0  0  0  0  0  0  0
    5.2730   -4.5390   19.8800 O   0  0  0  0  0  0  0  0  0  0  0  0
    6.7990   -4.1290   21.5360 N   0  0  0  0  0  0  0  0  0  0  0  0
    7.7350   -3.1570   22.0650 C   0  0  0  0  0  0  0  0  0  0  0  0
    7.4230   -3.0010   23.5220 C   0  0  0  0  0  0  0  0  0  0  0  0
    6.0480   -3.4850   23.8510 C   0  0  0  0  0  0  0  0  0  0  0  0
    5.6890   -3.1840   25.2490 C   0  0  0  0  0  0  0  0  0  0  0  0
    4.4760   -3.1040   25.6040 O   0  0  0  0  0  0  0  0  0  0  0  0
    6.6800   -2.9640   26.2210 N   0  0  0  0  0  0  0  0  0  0  0  0
    6.3380   -2.6760   27.6240 C   0  0  0  0  0  0  0  0  0  0  0  0
    6.5570   -3.8730   28.4640 C   0  0  0  0  0  0  0  0  0  0  0  0
    5.9990   -4.9580   27.9290 N   0  0  0  0  0  0  0  0  0  0  0  0
    5.3810   -5.9650   28.9590 S   0  0  0  0  0  0  0  0  0  0  0  0
    4.1510   -5.3630   29.5140 O   0  0  0  0  0  0  0  0  0  0  0  0
    6.3880   -6.1900   30.0640 O   0  0  0  0  0  0  0  0  0  0  0  0
    4.9850   -7.4200   28.1820 N   0  0  0  0  0  0  0  0  0  0  0  0
    3.5770   -7.7260   28.4920 C   0  0  0  0  0  0  0  0  0  0  0  0
    5.9550   -4.9740   23.6110 C   0  0  0  0  0  0  0  0  0  0  0  0
    6.6380   -5.3300   22.3100 C   0  0  0  0  0  0  0  0  0  0  0  0
  1  2  1  0
  2  3  2  0
  2  4  1  0
  4  5  1  0
  5  6  1  0
  6  7  1  0
  7  8  1  0
  8  9  2  0
  8 10  1  0
 10 11  1  0
 11 12  1  0
 12 13  1  0
 14 13  1  0
 14 15  2  0
 14 16  2  0
 14 17  1  0
 17 18  1  0
  7 19  1  0
  4 20  1  0
 19 20  1  0
M  END
