piperidine-amides-13268-covalent
     RDKit          3D

 17 18  0  0  0  0  0  0  0  0999 V2000
    7.1120   -3.2890   19.2590 C   0  0  0  0  0  0  0  0  0  0  0  0
    6.3880   -4.0680   20.2910 C   0  0  0  0  0  0  0  0  0  0  0  0
    5.3300   -4.6190   19.9200 O   0  0  0  0  0  0  0  0  0  0  0  0
    6.9030   -4.2150   21.5960 N   0  0  0  0  0  0  0  0  0  0  0  0
    7.6410   -3.1460   22.1890 C   0  0  0  0  0  0  0  0  0  0  0  0
    7.2350   -2.8830   23.5650 C   0  0  0  0  0  0  0  0  0  0  0  0
    5.9920   -3.5980   23.9180 C   0  0  0  0  0  0  0  0  0  0  0  0
    5.5640   -3.3090   25.3130 C   0  0  0  0  0  0  0  0  0  0  0  0
    4.3440   -3.3570   25.5500 O   0  0  0  0  0  0  0  0  0  0  0  0
    6.4650   -2.9940   26.3470 N   0  0  0  0  0  0  0  0  0  0  0  0
    6.4580   -1.6770   27.0280 C   0  0  0  0  0  0  0  0  0  0  0  0
    6.2120   -1.8100   28.4970 C   0  0  1  0  0  0  0  0  0  0  0  0
    6.7180   -0.8300   29.4430 C   0  0  0  0  0  0  0  0  0  0  0  0
    5.5390   -0.5120   30.0670 C   0  0  0  0  0  0  0  0  0  0  0  0
    5.0040   -1.4390   29.1550 N   0  0  0  0  0  0  0  0  0  0  0  0
    6.0490   -5.0650   23.6270 C   0  0  0  0  0  0  0  0  0  0  0  0
    6.4820   -5.3580   22.3570 C   0  0  0  0  0  0  0  0  0  0  0  0
  1  2  1  0
  2  3  2  0
  2  4  1  0
  4  5  1  0
  5  6  1  0
  6  7  1  0
  7  8  1  0
  8  9  2  0
  8 10  1  0
 10 11  1  0
 12 11  1  6
 12 13  1  0
 13 14  1  0
 12 15  1  0
 14 15  1  0
  7 16  1  0
  4 17  1  0
 16 17  1  0
M  END
