piperidine-amides-1318-covalent
     RDKit          3D

 22 23  0  0  0  0  0  0  0  0999 V2000
    7.1240   -3.2900   19.2630 C   0  0  0  0  0  0  0  0  0  0  0  0
    6.3180   -4.0420   20.2640 C   0  0  0  0  0  0  0  0  0  0  0  0
    5.2640   -4.5770   19.8940 O   0  0  0  0  0  0  0  0  0  0  0  0
    6.7930   -4.1750   21.5830 N   0  0  0  0  0  0  0  0  0  0  0  0
    6.6570   -5.4210   22.3130 C   0  0  0  0  0  0  0  0  0  0  0  0
    6.1200   -5.1050   23.7150 C   0  0  0  0  0  0  0  0  0  0  0  0
    6.1440   -3.6290   23.8780 C   0  0  0  0  0  0  0  0  0  0  0  0
    5.6530   -3.1590   25.1840 C   0  0  0  0  0  0  0  0  0  0  0  0
    4.4370   -2.9750   25.2640 O   0  0  0  0  0  0  0  0  0  0  0  0
    6.5220   -2.9470   26.2560 N   0  0  0  0  0  0  0  0  0  0  0  0
    6.1890   -3.1380   27.6180 C   0  0  0  0  0  0  0  0  0  0  0  0
    4.9390   -3.5360   28.0300 C   0  0  0  0  0  0  0  0  0  0  0  0
    4.6230   -4.7140   28.6480 C   0  0  0  0  0  0  0  0  0  0  0  0
    5.3660   -5.8010   29.0280 C   0  0  0  0  0  0  0  0  0  0  0  0
    5.4850   -6.7390   27.8910 C   0  0  0  0  0  0  0  0  0  0  0  0
    3.1950   -4.7370   28.9150 N   0  0  0  0  0  0  0  0  0  0  0  0
    2.7260   -3.6370   28.4710 O   0  0  0  0  0  0  0  0  0  0  0  0
    3.7320   -2.8730   27.9250 C   0  0  0  0  0  0  0  0  0  0  0  0
    3.5080   -1.4880   27.2970 C   0  0  0  0  0  0  0  0  0  0  0  0
    2.6540   -1.5120   26.2080 C   0  0  0  0  0  0  0  0  0  0  0  0
    7.4570   -3.0170   23.5760 C   0  0  0  0  0  0  0  0  0  0  0  0
    7.7080   -3.1650   22.0960 C   0  0  0  0  0  0  0  0  0  0  0  0
  1  2  1  0
  2  3  2  0
  2  4  1  0
  4  5  1  0
  5  6  1  0
  6  7  1  0
  7  8  1  0
  8  9  2  0
  8 10  1  0
 10 11  1  0
 11 12  1  0
 12 13  1  0
 13 14  1  0
 14 15  1  0
 13 16  2  0
 16 17  1  0
 12 18  2  0
 17 18  1  0
 18 19  1  0
 19 20  1  0
  7 21  1  0
  4 22  1  0
 21 22  1  0
M  END
