piperidine-amides-4735-covalent
     RDKit          3D

 24 26  0  0  0  0  0  0  0  0999 V2000
    6.9990   -3.2140   19.1320 C   0  0  0  0  0  0  0  0  0  0  0  0
    6.1960   -3.8500   20.2130 C   0  0  0  0  0  0  0  0  0  0  0  0
    5.2360   -4.5420   19.8440 O   0  0  0  0  0  0  0  0  0  0  0  0
    6.4670   -3.7330   21.5850 N   0  0  0  0  0  0  0  0  0  0  0  0
    5.6060   -4.4140   22.4670 C   0  0  0  0  0  0  0  0  0  0  0  0
    4.9390   -3.6070   23.4820 C   0  0  0  0  0  0  0  0  0  0  0  0
    5.8270   -2.7140   24.2400 C   0  0  0  0  0  0  0  0  0  0  0  0
    5.6960   -2.9510   25.7440 C   0  0  0  0  0  0  0  0  0  0  0  0
    4.5690   -2.6580   26.1860 O   0  0  0  0  0  0  0  0  0  0  0  0
    6.6630   -3.4530   26.7030 N   0  0  0  0  0  0  0  0  0  0  0  0
    6.4410   -4.7820   27.3840 C   0  0  0  0  0  0  0  0  0  0  0  0
    5.4490   -4.7320   28.4650 C   0  0  0  0  0  0  0  0  0  0  0  0
    7.6080   -5.5840   27.8350 C   0  0  0  0  0  0  0  0  0  0  0  0
    5.9580   -5.2910   26.2000 C   0  0  0  0  0  0  0  0  0  0  0  0
    6.8460   -5.2850   25.1850 N   0  0  0  0  0  0  0  0  0  0  0  0
    6.3180   -5.7470   23.9950 C   0  0  0  0  0  0  0  0  0  0  0  0
    7.1900   -5.7320   22.9870 C   0  0  0  0  0  0  0  0  0  0  0  0
    6.7950   -6.1380   21.7820 C   0  0  0  0  0  0  0  0  0  0  0  0
    5.5240   -6.5580   21.5690 C   0  0  0  0  0  0  0  0  0  0  0  0
    4.5800   -6.5980   22.5970 C   0  0  0  0  0  0  0  0  0  0  0  0
    5.0160   -6.1640   23.9060 C   0  0  0  0  0  0  0  0  0  0  0  0
    4.4140   -5.9750   25.5030 S   0  0  0  0  0  0  0  0  0  0  0  0
    7.1990   -2.6800   23.6660 C   0  0  0  0  0  0  0  0  0  0  0  0
    7.2820   -2.6830   22.1490 C   0  0  0  0  0  0  0  0  0  0  0  0
  1  2  1  0
  2  3  2  0
  2  4  1  0
  4  5  1  0
  5  6  1  0
  6  7  1  0
  7  8  1  0
  8  9  2  0
  8 10  1  0
 11 10  1  0
 11 12  1  0
 11 13  1  0
 11 14  1  0
 14 15  2  0
 15 16  1  0
 16 17  2  0
 17 18  1  0
 18 19  2  0
 19 20  1  0
 16 21  1  0
 20 21  2  0
 14 22  1  0
 21 22  1  0
  7 23  1  0
  4 24  1  0
 23 24  1  0
M  END
