piperidine-amides-1399-covalent
     RDKit          3D

 22 23  0  0  0  0  0  0  0  0999 V2000
    7.0660   -3.3510   19.3330 C   0  0  0  0  0  0  0  0  0  0  0  0
    6.3230   -4.1600   20.3340 C   0  0  0  0  0  0  0  0  0  0  0  0
    5.3360   -4.8130   19.9680 O   0  0  0  0  0  0  0  0  0  0  0  0
    6.7960   -4.1960   21.6620 N   0  0  0  0  0  0  0  0  0  0  0  0
    7.7030   -3.1780   22.1530 C   0  0  0  0  0  0  0  0  0  0  0  0
    7.5210   -3.0670   23.6660 C   0  0  0  0  0  0  0  0  0  0  0  0
    6.1830   -3.6540   23.9570 C   0  0  0  0  0  0  0  0  0  0  0  0
    5.6890   -3.3460   25.3200 C   0  0  0  0  0  0  0  0  0  0  0  0
    4.4650   -3.4200   25.4810 O   0  0  0  0  0  0  0  0  0  0  0  0
    6.5780   -2.9860   26.3400 N   0  0  0  0  0  0  0  0  0  0  0  0
    6.8250   -1.6740   26.8400 C   0  0  1  0  0  0  0  0  0  0  0  0
    5.8330   -0.7090   26.7710 C   0  0  0  0  0  0  0  0  0  0  0  0
    5.9230    0.4790   27.5180 C   0  0  0  0  0  0  0  0  0  0  0  0
    6.4120    0.4350   28.8110 C   0  0  2  0  0  0  0  0  0  0  0  0
    7.3040    1.2000   29.4180 O   0  0  0  0  0  0  0  0  0  0  0  0
    6.7610    1.9050   30.3850 C   0  0  0  0  0  0  0  0  0  0  0  0
    7.7470    3.0210   30.7550 C   0  0  0  0  0  0  0  0  0  0  0  0
    7.1460    3.7610   31.9490 C   0  0  0  0  0  0  0  0  0  0  0  0
    6.8290   -0.7920   29.2200 C   0  0  0  0  0  0  0  0  0  0  0  0
    7.4100   -1.6630   28.1780 C   0  0  0  0  0  0  0  0  0  0  0  0
    6.0690   -5.1190   23.6830 C   0  0  0  0  0  0  0  0  0  0  0  0
    6.6240   -5.3870   22.4540 C   0  0  0  0  0  0  0  0  0  0  0  0
  1  2  1  0
  2  3  2  0
  2  4  1  0
  4  5  1  0
  5  6  1  0
  6  7  1  0
  7  8  1  0
  8  9  2  0
  8 10  1  0
 11 10  1  1
 11 12  1  0
 12 13  1  0
 13 14  1  0
 14 15  1  6
 15 16  1  0
 16 17  1  0
 17 18  1  0
 14 19  1  0
 11 20  1  0
 19 20  1  0
  7 21  1  0
  4 22  1  0
 21 22  1  0
M  END
