piperidine-amides-24217-covalent
     RDKit          3D

 23 25  0  0  0  0  0  0  0  0999 V2000
    6.9720   -3.3640   19.3930 C   0  0  0  0  0  0  0  0  0  0  0  0
    6.2820   -4.2710   20.3320 C   0  0  0  0  0  0  0  0  0  0  0  0
    5.3060   -4.9430   19.9710 O   0  0  0  0  0  0  0  0  0  0  0  0
    6.7380   -4.4120   21.6380 N   0  0  0  0  0  0  0  0  0  0  0  0
    6.4920   -5.6450   22.3570 C   0  0  0  0  0  0  0  0  0  0  0  0
    6.3700   -5.2890   23.8550 C   0  0  0  0  0  0  0  0  0  0  0  0
    5.7710   -3.9030   23.9380 C   0  0  0  0  0  0  0  0  0  0  0  0
    5.3860   -3.5040   25.3270 C   0  0  0  0  0  0  0  0  0  0  0  0
    4.3750   -2.7810   25.4320 O   0  0  0  0  0  0  0  0  0  0  0  0
    6.0960   -3.9080   26.4960 N   0  0  0  0  0  0  0  0  0  0  0  0
    5.5250   -3.7230   27.7960 C   0  0  0  0  0  0  0  0  0  0  0  0
    5.6950   -5.0390   28.5210 C   0  0  1  0  0  0  0  0  0  0  0  0
    5.1760   -6.1950   27.9980 C   0  0  0  0  0  0  0  0  0  0  0  0
    7.1860   -5.2520   28.5290 C   0  0  0  0  0  0  0  0  0  0  0  0
    7.8390   -4.9350   27.3520 C   0  0  0  0  0  0  0  0  0  0  0  0
    7.5270   -3.7280   26.7460 C   0  0  1  0  0  0  0  0  0  0  0  0
    8.1430   -3.3130   25.4550 C   0  0  0  0  0  0  0  0  0  0  0  0
    7.6110   -1.9850   25.5640 C   0  0  0  0  0  0  0  0  0  0  0  0
    8.0180   -1.1580   24.3320 C   0  0  0  0  0  0  0  0  0  0  0  0
    8.7980   -2.3350   23.7080 C   0  0  0  0  0  0  0  0  0  0  0  0
    9.0580   -3.9640   24.2550 S   0  0  0  0  0  0  0  0  0  0  0  0
    6.7040   -2.8710   23.3720 C   0  0  0  0  0  0  0  0  0  0  0  0
    7.3340   -3.2850   22.2330 C   0  0  0  0  0  0  0  0  0  0  0  0
  1  2  1  0
  2  3  2  0
  2  4  1  0
  4  5  1  0
  5  6  1  0
  6  7  1  0
  7  8  1  0
  8  9  2  0
  8 10  1  0
 10 11  1  0
 11 12  1  0
 12 13  1  6
 12 14  1  0
 14 15  1  0
 10 16  1  0
 15 16  1  0
 16 17  1  6
 17 18  2  0
 18 19  1  0
 19 20  2  0
 17 21  1  0
 20 21  1  0
  7 22  1  0
  4 23  1  0
 22 23  1  0
M  END
