piperidine-amides-15325-covalent
     RDKit          3D

 17 17  0  0  0  0  0  0  0  0999 V2000
    7.1140   -3.2600   19.1920 C   0  0  0  0  0  0  0  0  0  0  0  0
    6.3320   -3.9990   20.1970 C   0  0  0  0  0  0  0  0  0  0  0  0
    5.2550   -4.5440   19.8760 O   0  0  0  0  0  0  0  0  0  0  0  0
    6.8030   -4.1550   21.5010 N   0  0  0  0  0  0  0  0  0  0  0  0
    7.6160   -3.1290   22.1260 C   0  0  0  0  0  0  0  0  0  0  0  0
    6.8120   -2.6190   23.3190 C   0  0  0  0  0  0  0  0  0  0  0  0
    6.5050   -3.8560   24.1180 C   0  0  0  0  0  0  0  0  0  0  0  0
    5.7270   -3.5080   25.3240 C   0  0  0  0  0  0  0  0  0  0  0  0
    4.4780   -3.4370   25.2780 O   0  0  0  0  0  0  0  0  0  0  0  0
    6.3890   -3.2580   26.5310 N   0  0  0  0  0  0  0  0  0  0  0  0
    6.6630   -1.8810   26.8560 C   0  0  0  0  0  0  0  0  0  0  0  0
    6.0320   -4.1690   27.5990 C   0  0  2  0  0  0  0  0  0  0  0  0
    6.7960   -3.8720   28.6670 C   0  0  0  0  0  0  0  0  0  0  0  0
    6.1680   -5.6640   27.3850 C   0  0  0  0  0  0  0  0  0  0  0  0
    4.8970   -6.2870   27.2470 N   0  0  0  0  0  0  0  0  0  0  0  0
    5.7540   -4.9030   23.3540 C   0  0  0  0  0  0  0  0  0  0  0  0
    6.4930   -5.3330   22.2780 C   0  0  0  0  0  0  0  0  0  0  0  0
  1  2  1  0
  2  3  2  0
  2  4  1  0
  4  5  1  0
  5  6  1  0
  6  7  1  0
  7  8  1  0
  8  9  2  0
  8 10  1  0
 10 11  1  0
 10 12  1  0
 12 13  1  1
 12 14  1  0
 14 15  3  0
  7 16  1  0
  4 17  1  0
 16 17  1  0
M  END
