piperidine-amides-4613-covalent
     RDKit          3D

 24 25  0  0  0  0  0  0  0  0999 V2000
    7.1090   -3.2870   19.2400 C   0  0  0  0  0  0  0  0  0  0  0  0
    6.3830   -4.0840   20.2530 C   0  0  0  0  0  0  0  0  0  0  0  0
    5.3070   -4.6020   19.8990 O   0  0  0  0  0  0  0  0  0  0  0  0
    6.9210   -4.2860   21.5240 N   0  0  0  0  0  0  0  0  0  0  0  0
    7.6490   -3.2270   22.1540 C   0  0  0  0  0  0  0  0  0  0  0  0
    7.1000   -2.7850   23.4300 C   0  0  0  0  0  0  0  0  0  0  0  0
    6.5090   -3.8630   24.2380 C   0  0  0  0  0  0  0  0  0  0  0  0
    5.7760   -3.2930   25.3890 C   0  0  0  0  0  0  0  0  0  0  0  0
    4.5600   -3.0630   25.2570 O   0  0  0  0  0  0  0  0  0  0  0  0
    6.4320   -3.0240   26.6030 N   0  0  0  0  0  0  0  0  0  0  0  0
    6.3920   -1.6980   27.2570 C   0  0  0  0  0  0  0  0  0  0  0  0
    7.0120   -1.5050   28.5700 C   0  0  0  0  0  0  0  0  0  0  0  0
    6.9650   -0.2150   29.2230 C   0  0  0  0  0  0  0  0  0  0  0  0
    6.3240    0.8570   28.5980 C   0  0  0  0  0  0  0  0  0  0  0  0
    6.2610    2.0940   29.2120 C   0  0  0  0  0  0  0  0  0  0  0  0
    7.0510    3.0060   28.7140 O   0  0  0  0  0  0  0  0  0  0  0  0
    5.3960    2.3230   30.2890 O   0  0  0  0  0  0  0  0  0  0  0  0
    4.4580    1.3000   30.5760 C   0  0  0  0  0  0  0  0  0  0  0  0
    5.7340    0.6800   27.3430 C   0  0  0  0  0  0  0  0  0  0  0  0
    5.1070    1.7720   26.7670 O   0  0  0  0  0  0  0  0  0  0  0  0
    3.8310    1.4050   26.3600 C   0  0  0  0  0  0  0  0  0  0  0  0
    5.7400   -0.5340   26.6490 C   0  0  0  0  0  0  0  0  0  0  0  0
    5.7160   -4.8790   23.5120 C   0  0  0  0  0  0  0  0  0  0  0  0
    6.5210   -5.4090   22.3560 C   0  0  0  0  0  0  0  0  0  0  0  0
  1  2  1  0
  2  3  2  0
  2  4  1  0
  4  5  1  0
  5  6  1  0
  6  7  1  0
  7  8  1  0
  8  9  2  0
  8 10  1  0
 10 11  1  0
 11 12  2  0
 12 13  1  0
 13 14  2  0
 14 15  1  0
 15 16  2  0
 15 17  1  0
 17 18  1  0
 14 19  1  0
 19 20  1  0
 20 21  1  0
 11 22  1  0
 19 22  2  0
  7 23  1  0
  4 24  1  0
 23 24  1  0
M  END
