piperidine-amides-31667-covalent
     RDKit          3D

 27 29  0  0  0  0  0  0  0  0999 V2000
    7.1270   -3.3790   19.2560 C   0  0  0  0  0  0  0  0  0  0  0  0
    6.3610   -4.0990   20.2390 C   0  0  0  0  0  0  0  0  0  0  0  0
    5.2340   -4.5550   19.8850 O   0  0  0  0  0  0  0  0  0  0  0  0
    6.8420   -4.3930   21.5220 N   0  0  0  0  0  0  0  0  0  0  0  0
    7.7330   -3.4100   22.1910 C   0  0  0  0  0  0  0  0  0  0  0  0
    6.7510   -2.8940   23.2980 C   0  0  0  0  0  0  0  0  0  0  0  0
    6.3660   -4.1340   24.0620 C   0  0  0  0  0  0  0  0  0  0  0  0
    5.5790   -3.7460   25.3660 C   0  0  0  0  0  0  0  0  0  0  0  0
    4.3630   -3.7990   25.2410 O   0  0  0  0  0  0  0  0  0  0  0  0
    6.4830   -3.4730   26.1780 N   0  0  0  0  0  0  0  0  0  0  0  0
    7.6150   -3.6290   26.8950 C   0  0  0  0  0  0  0  0  0  0  0  0
    8.5090   -4.6700   27.0030 C   0  0  0  0  0  0  0  0  0  0  0  0
    8.9340   -4.9230   28.3060 C   0  0  0  0  0  0  0  0  0  0  0  0
    9.7890   -4.3480   26.2070 C   0  0  0  0  0  0  0  0  0  0  0  0
    6.2280   -2.0920   26.5070 C   0  0  0  0  0  0  0  0  0  0  0  0
    5.4370   -1.4980   27.5690 N   0  0  0  0  0  0  0  0  0  0  0  0
    5.3760   -0.0860   27.5560 C   0  0  0  0  0  0  0  0  0  0  0  0
    4.5610    0.3720   28.6610 C   0  0  0  0  0  0  0  0  0  0  0  0
    4.6500    1.9080   28.4410 C   0  0  0  0  0  0  0  0  0  0  0  0
    3.9000    2.8560   29.4330 C   0  0  0  0  0  0  0  0  0  0  0  0
    5.3810    2.6090   27.3760 C   0  0  0  0  0  0  0  0  0  0  0  0
    6.0670    1.9530   26.4610 C   0  0  0  0  0  0  0  0  0  0  0  0
    6.7470    2.5750   25.4740 C   0  0  0  0  0  0  0  0  0  0  0  0
    6.0510    0.6170   26.5710 C   0  0  0  0  0  0  0  0  0  0  0  0
    6.7700   -0.6270   25.6610 S   0  0  0  0  0  0  0  0  0  0  0  0
    5.7120   -5.2600   23.3510 C   0  0  0  0  0  0  0  0  0  0  0  0
    6.4950   -5.6410   22.1450 C   0  0  0  0  0  0  0  0  0  0  0  0
  1  2  1  0
  2  3  2  0
  2  4  1  0
  4  5  1  0
  5  6  1  0
  6  7  1  0
  7  8  1  0
  8  9  2  0
  8 10  1  0
 10 11  1  0
 11 12  1  0
 12 13  1  0
 12 14  1  0
 10 15  1  0
 15 16  2  0
 16 17  1  0
 17 18  2  0
 18 19  1  0
 19 20  1  0
 19 21  2  0
 21 22  1  0
 22 23  1  0
 17 24  1  0
 22 24  2  0
 15 25  1  0
 24 25  1  0
  7 26  1  0
  4 27  1  0
 26 27  1  0
M  END
