piperidine-amides-33913-covalent
     RDKit          3D

 30 32  0  0  0  0  0  0  0  0999 V2000
    7.0530   -3.3570   19.3870 C   0  0  0  0  0  0  0  0  0  0  0  0
    6.4080   -4.2300   20.3810 C   0  0  0  0  0  0  0  0  0  0  0  0
    5.3940   -4.8630   19.9900 O   0  0  0  0  0  0  0  0  0  0  0  0
    6.9360   -4.3920   21.6920 N   0  0  0  0  0  0  0  0  0  0  0  0
    6.5430   -5.5460   22.4320 C   0  0  0  0  0  0  0  0  0  0  0  0
    6.2380   -5.2760   23.8420 C   0  0  0  0  0  0  0  0  0  0  0  0
    6.2420   -3.8430   24.1960 C   0  0  0  0  0  0  0  0  0  0  0  0
    5.6290   -3.5060   25.5570 C   0  0  0  0  0  0  0  0  0  0  0  0
    4.6420   -2.7550   25.5280 O   0  0  0  0  0  0  0  0  0  0  0  0
    6.0290   -4.0020   26.8480 N   0  0  0  0  0  0  0  0  0  0  0  0
    6.0690   -5.3980   27.1300 C   0  0  0  0  0  0  0  0  0  0  0  0
    6.6560   -5.9210   28.3580 C   0  0  0  0  0  0  0  0  0  0  0  0
    6.8380   -5.0230   29.2050 O   0  0  0  0  0  0  0  0  0  0  0  0
    5.6400   -4.4040   29.2420 C   0  0  0  0  0  0  0  0  0  0  0  0
    6.5530   -3.7170   28.3680 C   0  0  0  0  0  0  0  0  0  0  0  0
    6.2200   -2.3720   27.4960 C   0  0  0  0  0  0  0  0  0  0  0  0
    4.8290   -1.7970   27.6070 C   0  0  0  0  0  0  0  0  0  0  0  0
    4.3780   -0.6930   26.9670 N   0  0  0  0  0  0  0  0  0  0  0  0
    4.8970   -0.1090   25.8720 C   0  0  0  0  0  0  0  0  0  0  0  0
    5.7780    0.7650   25.9940 O   0  0  0  0  0  0  0  0  0  0  0  0
    4.4930   -0.4010   24.5750 O   0  0  0  0  0  0  0  0  0  0  0  0
    5.2670   -0.1490   23.4400 C   0  0  0  0  0  0  0  0  0  0  0  0
    4.9720   -1.1180   22.3030 C   0  0  0  0  0  0  0  0  0  0  0  0
    5.0650    1.2560   22.9280 C   0  0  0  0  0  0  0  0  0  0  0  0
    6.7260   -0.3200   23.8190 C   0  0  0  0  0  0  0  0  0  0  0  0
    4.0840   -2.4990   28.4300 C   0  0  0  0  0  0  0  0  0  0  0  0
    4.7120   -3.5320   28.9610 C   0  0  0  0  0  0  0  0  0  0  0  0
    5.8970   -3.1190   28.0670 C   0  0  0  0  0  0  0  0  0  0  0  0
    7.5650   -3.2450   23.8180 C   0  0  0  0  0  0  0  0  0  0  0  0
    7.6650   -3.3030   22.2990 C   0  0  0  0  0  0  0  0  0  0  0  0
  1  2  1  0
  2  3  2  0
  2  4  1  0
  4  5  1  0
  5  6  1  0
  6  7  1  0
  7  8  1  0
  8  9  2  0
  8 10  1  0
 10 11  1  0
 11 12  1  0
 12 13  1  0
 13 14  1  0
 14 15  1  0
 15 16  2  0
 16 17  1  0
 17 18  1  0
 18 19  1  0
 19 20  2  0
 19 21  1  0
 22 21  1  0
 22 23  1  0
 22 24  1  0
 22 25  1  0
 17 26  2  0
 14 27  2  0
 26 27  1  0
 10 28  1  0
 27 28  1  0
  7 29  1  0
  4 30  1  0
 29 30  1  0
M  END
