piperidine-amides-12974-covalent
     RDKit          3D

 21 22  0  0  0  0  0  0  0  0999 V2000
    7.0930   -3.3190   19.2440 C   0  0  0  0  0  0  0  0  0  0  0  0
    6.3540   -4.0660   20.2880 C   0  0  0  0  0  0  0  0  0  0  0  0
    5.2930   -4.6050   19.9120 O   0  0  0  0  0  0  0  0  0  0  0  0
    6.8560   -4.2000   21.5980 N   0  0  0  0  0  0  0  0  0  0  0  0
    6.5590   -5.3640   22.3660 C   0  0  0  0  0  0  0  0  0  0  0  0
    6.0220   -5.0260   23.6790 C   0  0  0  0  0  0  0  0  0  0  0  0
    6.1100   -3.5790   23.9610 C   0  0  0  0  0  0  0  0  0  0  0  0
    5.6340   -3.2760   25.3410 C   0  0  0  0  0  0  0  0  0  0  0  0
    4.4050   -3.1920   25.5070 O   0  0  0  0  0  0  0  0  0  0  0  0
    6.5050   -3.0810   26.4340 N   0  0  0  0  0  0  0  0  0  0  0  0
    6.3060   -3.7110   27.7710 C   0  0  2  0  0  0  0  0  0  0  0  0
    5.6640   -5.0580   27.6970 C   0  0  0  0  0  0  0  0  0  0  0  0
    6.3360   -6.1240   27.6330 O   0  0  0  0  0  0  0  0  0  0  0  0
    5.6360   -2.7790   28.6950 C   0  0  0  0  0  0  0  0  0  0  0  0
    6.2750   -1.7370   29.3170 C   0  0  0  0  0  0  0  0  0  0  0  0
    5.6560   -0.8710   30.1780 C   0  0  0  0  0  0  0  0  0  0  0  0
    4.3430   -1.1350   30.3630 C   0  0  0  0  0  0  0  0  0  0  0  0
    3.5300   -0.4030   31.1780 C   0  0  0  0  0  0  0  0  0  0  0  0
    4.0420   -2.6060   29.3040 S   0  0  0  0  0  0  0  0  0  0  0  0
    7.4060   -2.9690   23.5770 C   0  0  0  0  0  0  0  0  0  0  0  0
    7.6450   -3.1340   22.1990 C   0  0  0  0  0  0  0  0  0  0  0  0
  1  2  1  0
  2  3  2  0
  2  4  1  0
  4  5  1  0
  5  6  1  0
  6  7  1  0
  7  8  1  0
  8  9  2  0
  8 10  1  0
 10 11  1  0
 11 12  1  6
 12 13  1  0
 11 14  1  0
 14 15  2  0
 15 16  1  0
 16 17  2  0
 17 18  1  0
 14 19  1  0
 17 19  1  0
  7 20  1  0
  4 21  1  0
 20 21  1  0
M  END
