piperidine-amides-35700-covalent
     RDKit          3D

 55 59  0  0  0  0  0  0  0  0999 V2000
    7.0360   -3.3550   19.3190 C   0  0  0  0  0  0  0  0  0  0  0  0
    6.3740   -4.2310   20.3160 C   0  0  0  0  0  0  0  0  0  0  0  0
    5.3430   -4.7940   19.9630 O   0  0  0  0  0  0  0  0  0  0  0  0
    6.9500   -4.4310   21.5710 N   0  0  0  0  0  0  0  0  0  0  0  0
    7.5840   -3.3520   22.2820 C   0  0  0  0  0  0  0  0  0  0  0  0
    6.5440   -2.6650   23.1270 C   0  0  0  0  0  0  0  0  0  0  0  0
    5.4640   -3.6710   23.5560 C   0  0  0  0  0  0  0  0  0  0  0  0
    4.8430   -3.2130   24.8210 C   0  0  0  0  0  0  0  0  0  0  0  0
    3.6160   -3.1250   24.8910 O   0  0  0  0  0  0  0  0  0  0  0  0
    5.5860   -2.8790   25.9460 N   0  0  0  0  0  0  0  0  0  0  0  0
    6.5990   -3.8090   26.2850 C   0  0  0  0  0  0  0  0  0  0  0  0
    7.7240   -3.2580   25.4830 C   0  0  0  0  0  0  0  0  0  0  0  0
    7.9090   -1.9850   26.1740 N   0  0  0  0  0  0  0  0  0  0  0  0
    7.9350   -2.6640   27.4270 C   0  0  0  0  0  0  0  0  0  0  0  0
    7.4930   -2.5010   28.6040 O   0  0  0  0  0  0  0  0  0  0  0  0
    8.5770   -3.7460   27.1360 C   0  0  0  0  0  0  0  0  0  0  0  0
    8.0500   -4.7800   27.7300 C   0  0  0  0  0  0  0  0  0  0  0  0
    8.3860   -6.1770   27.6800 C   0  0  0  0  0  0  0  0  0  0  0  0
    9.5440   -6.3890   26.7590 C   0  0  0  0  0  0  0  0  0  0  0  0
   10.2190   -5.2380   26.0560 C   0  0  0  0  0  0  0  0  0  0  0  0
    9.6830   -3.8960   26.2900 C   0  0  0  0  0  0  0  0  0  0  0  0
   10.1760   -2.7180   25.7360 N   0  0  0  0  0  0  0  0  0  0  0  0
    9.4270   -1.7510   24.9620 C   0  0  0  0  0  0  0  0  0  0  0  0
   11.4780   -3.0040   25.2640 C   0  0  0  0  0  0  0  0  0  0  0  0
    5.6540   -1.6930   26.7710 C   0  0  0  0  0  0  0  0  0  0  0  0
    5.6270   -2.0020   28.2420 C   0  0  0  0  0  0  0  0  0  0  0  0
    5.6460   -1.0230   29.1750 C   0  0  0  0  0  0  0  0  0  0  0  0
    5.6970    0.4000   28.7590 C   0  0  0  0  0  0  0  0  0  0  0  0
    5.7520    0.7350   27.2760 C   0  0  0  0  0  0  0  0  0  0  0  0
    5.8220    2.0040   26.8680 N   0  0  0  0  0  0  0  0  0  0  0  0
    6.0640    3.3100   27.9270 S   0  0  0  0  0  0  0  0  0  0  0  0
    4.7990    4.1180   27.9570 O   0  0  0  0  0  0  0  0  0  0  0  0
    6.3610    2.7920   29.3020 O   0  0  0  0  0  0  0  0  0  0  0  0
    7.3160    4.3700   27.4640 C   0  0  0  0  0  0  0  0  0  0  0  0
    7.1450    5.0000   26.2580 C   0  0  0  0  0  0  0  0  0  0  0  0
    8.1040    6.0050   25.5920 C   0  0  0  0  0  0  0  0  0  0  0  0
    7.7770    6.6040   24.2650 C   0  0  0  0  0  0  0  0  0  0  0  0
    7.9090    5.7370   23.0090 C   0  0  0  0  0  0  0  0  0  0  0  0
    7.5560    6.3900   21.7240 C   0  0  0  0  0  0  0  0  0  0  0  0
    7.1020    7.7990   21.6520 C   0  0  0  0  0  0  0  0  0  0  0  0
    6.9990    8.6010   22.9470 C   0  0  0  0  0  0  0  0  0  0  0  0
    6.5550   10.0490   23.0080 C   0  0  0  0  0  0  0  0  0  0  0  0
    5.3930   10.2850   22.4210 O   0  0  0  0  0  0  0  0  0  0  0  0
    7.1530   11.1560   23.5730 N   0  0  0  0  0  0  0  0  0  0  0  0
    7.0760   12.5030   23.1240 C   0  0  0  0  0  0  0  0  0  0  0  0
    8.2220   10.8940   24.5890 C   0  0  0  0  0  0  0  0  0  0  0  0
    7.3480    7.9300   24.1650 C   0  0  0  0  0  0  0  0  0  0  0  0
    9.2410    6.2750   26.3160 C   0  0  0  0  0  0  0  0  0  0  0  0
    9.4440    5.5990   27.6290 C   0  0  0  0  0  0  0  0  0  0  0  0
    8.4470    4.6030   28.2380 C   0  0  0  0  0  0  0  0  0  0  0  0
    8.6820    3.9940   29.4760 O   0  0  0  0  0  0  0  0  0  0  0  0
   10.0040    3.7470   29.9220 C   0  0  0  0  0  0  0  0  0  0  0  0
    5.7230   -0.3530   26.3860 C   0  0  0  0  0  0  0  0  0  0  0  0
    6.0250   -5.0780   23.6740 C   0  0  0  0  0  0  0  0  0  0  0  0
    6.5680   -5.5790   22.3590 C   0  0  0  0  0  0  0  0  0  0  0  0
  1  2  1  0
  2  3  2  0
  2  4  1  0
  4  5  1  0
  5  6  1  0
  6  7  1  0
  7  8  1  0
  8  9  2  0
  8 10  1  0
 10 11  1  0
 11 12  1  0
 12 13  1  0
 13 14  1  0
 14 15  2  0
 14 16  1  0
 16 17  2  0
 17 18  1  0
 18 19  2  0
 19 20  1  0
 16 21  1  0
 20 21  2  0
 21 22  1  0
 22 23  1  0
 22 24  1  0
 10 25  1  0
 25 26  2  0
 26 27  1  0
 27 28  2  0
 28 29  1  0
 29 30  1  0
 31 30  1  0
 31 32  2  0
 31 33  2  0
 31 34  1  0
 34 35  2  0
 35 36  1  0
 36 37  1  0
 37 38  2  0
 38 39  1  0
 39 40  2  0
 40 41  1  0
 41 42  1  0
 42 43  2  0
 42 44  1  0
 44 45  1  0
 44 46  1  0
 37 47  1  0
 41 47  2  0
 36 48  2  0
 48 49  1  0
 34 50  1  0
 49 50  2  0
 50 51  1  0
 51 52  1  0
 25 53  1  0
 29 53  2  0
  7 54  1  0
  4 55  1  0
 54 55  1  0
M  END
