piperidine-amides-4945-covalent
     RDKit          3D

 23 24  0  0  0  0  0  0  0  0999 V2000
    7.1340   -3.2980   19.2660 C   0  0  0  0  0  0  0  0  0  0  0  0
    6.3510   -4.0540   20.2630 C   0  0  0  0  0  0  0  0  0  0  0  0
    5.2650   -4.5260   19.8730 O   0  0  0  0  0  0  0  0  0  0  0  0
    6.8410   -4.2760   21.5560 N   0  0  0  0  0  0  0  0  0  0  0  0
    6.3680   -5.3740   22.3180 C   0  0  0  0  0  0  0  0  0  0  0  0
    5.6920   -4.9860   23.5610 C   0  0  0  0  0  0  0  0  0  0  0  0
    6.2150   -3.7730   24.2470 C   0  0  0  0  0  0  0  0  0  0  0  0
    5.1380   -3.1560   25.0830 C   0  0  0  0  0  0  0  0  0  0  0  0
    4.1400   -2.7300   24.4920 O   0  0  0  0  0  0  0  0  0  0  0  0
    5.2030   -3.0300   26.4900 N   0  0  0  0  0  0  0  0  0  0  0  0
    5.3850   -4.1930   27.3770 C   0  0  2  0  0  0  0  0  0  0  0  0
    4.2180   -4.6110   28.1630 C   0  0  0  0  0  0  0  0  0  0  0  0
    4.3060   -5.4250   29.1330 O   0  0  0  0  0  0  0  0  0  0  0  0
    6.5220   -3.9740   28.2150 C   0  0  0  0  0  0  0  0  0  0  0  0
    7.5510   -4.3790   27.5410 C   0  0  0  0  0  0  0  0  0  0  0  0
    7.8420   -3.7830   26.3310 C   0  0  0  0  0  0  0  0  0  0  0  0
    8.8890   -4.2050   25.6140 C   0  0  0  0  0  0  0  0  0  0  0  0
    9.6170   -5.2040   26.1390 C   0  0  0  0  0  0  0  0  0  0  0  0
   10.6980   -5.6560   25.5100 F   0  0  0  0  0  0  0  0  0  0  0  0
    9.3280   -5.7600   27.2850 C   0  0  0  0  0  0  0  0  0  0  0  0
    8.2880   -5.3730   28.0250 C   0  0  0  0  0  0  0  0  0  0  0  0
    6.8230   -2.7160   23.3800 C   0  0  0  0  0  0  0  0  0  0  0  0
    7.6560   -3.3120   22.2780 C   0  0  0  0  0  0  0  0  0  0  0  0
  1  2  1  0
  2  3  2  0
  2  4  1  0
  4  5  1  0
  5  6  1  0
  6  7  1  0
  7  8  1  0
  8  9  2  0
  8 10  1  0
 10 11  1  0
 11 12  1  1
 12 13  1  0
 11 14  1  0
 14 15  1  0
 15 16  2  0
 16 17  1  0
 17 18  2  0
 18 19  1  0
 18 20  1  0
 15 21  1  0
 20 21  2  0
  7 22  1  0
  4 23  1  0
 22 23  1  0
M  END
