piperidine-amides-33087-covalent
     RDKit          3D

 25 28  0  0  0  0  0  0  0  0999 V2000
    7.0840   -3.3620   19.3560 C   0  0  0  0  0  0  0  0  0  0  0  0
    6.4380   -4.2210   20.3640 C   0  0  0  0  0  0  0  0  0  0  0  0
    5.4110   -4.8460   19.9900 O   0  0  0  0  0  0  0  0  0  0  0  0
    6.9840   -4.3780   21.6730 N   0  0  0  0  0  0  0  0  0  0  0  0
    6.4430   -5.3800   22.5140 C   0  0  0  0  0  0  0  0  0  0  0  0
    5.8430   -4.8870   23.7680 C   0  0  0  0  0  0  0  0  0  0  0  0
    6.3110   -3.5760   24.3220 C   0  0  0  0  0  0  0  0  0  0  0  0
    5.2350   -2.9380   25.1920 C   0  0  0  0  0  0  0  0  0  0  0  0
    4.1540   -2.6380   24.6730 O   0  0  0  0  0  0  0  0  0  0  0  0
    5.4160   -2.7000   26.5780 N   0  0  0  0  0  0  0  0  0  0  0  0
    6.4340   -3.3980   27.1940 C   0  0  0  0  0  0  0  0  0  0  0  0
    5.9070   -4.5380   27.9340 C   0  0  0  0  0  0  0  0  0  0  0  0
    6.7340   -5.0200   29.0700 C   0  0  0  0  0  0  0  0  0  0  0  0
    6.7750   -6.4120   29.0930 C   0  0  0  0  0  0  0  0  0  0  0  0
    5.4020   -6.6530   28.4110 C   0  0  0  0  0  0  0  0  0  0  0  0
    5.7740   -5.8180   27.2410 C   0  0  0  0  0  0  0  0  0  0  0  0
    4.6880   -3.9550   28.3750 C   0  0  0  0  0  0  0  0  0  0  0  0
    3.8340   -4.4130   29.5220 C   0  0  0  0  0  0  0  0  0  0  0  0
    2.5730   -3.5940   29.7820 C   0  0  0  0  0  0  0  0  0  0  0  0
    2.2200   -2.3670   28.8980 C   0  0  0  0  0  0  0  0  0  0  0  0
    0.6790   -1.2820   29.1360 Br  0  0  0  0  0  0  0  0  0  0  0  0
    3.2350   -2.1200   27.8240 C   0  0  0  0  0  0  0  0  0  0  0  0
    4.3790   -2.8770   27.6010 C   0  0  0  0  0  0  0  0  0  0  0  0
    6.8750   -2.6110   23.3330 C   0  0  0  0  0  0  0  0  0  0  0  0
    7.7040   -3.2920   22.2740 C   0  0  0  0  0  0  0  0  0  0  0  0
  1  2  1  0
  2  3  2  0
  2  4  1  0
  4  5  1  0
  5  6  1  0
  6  7  1  0
  7  8  1  0
  8  9  2  0
  8 10  1  0
 10 11  1  0
 12 11  1  0
 12 13  1  0
 13 14  1  0
 14 15  1  0
 12 16  1  0
 15 16  1  0
 12 17  1  0
 17 18  1  0
 18 19  2  0
 19 20  1  0
 20 21  1  0
 20 22  2  0
 10 23  1  0
 17 23  2  0
 22 23  1  0
  7 24  1  0
  4 25  1  0
 24 25  1  0
M  END
