piperidine-amides-30533-covalent
     RDKit          3D

 26 28  0  0  0  0  0  0  0  0999 V2000
    7.0420   -3.3490   19.3160 C   0  0  0  0  0  0  0  0  0  0  0  0
    6.3670   -4.1730   20.3210 C   0  0  0  0  0  0  0  0  0  0  0  0
    5.3740   -4.8350   19.9800 O   0  0  0  0  0  0  0  0  0  0  0  0
    6.8510   -4.2550   21.6390 N   0  0  0  0  0  0  0  0  0  0  0  0
    6.6180   -5.4090   22.4920 C   0  0  0  0  0  0  0  0  0  0  0  0
    5.9510   -4.9120   23.7670 C   0  0  0  0  0  0  0  0  0  0  0  0
    6.6040   -3.6820   24.3460 C   0  0  0  0  0  0  0  0  0  0  0  0
    5.7220   -2.9750   25.3160 C   0  0  0  0  0  0  0  0  0  0  0  0
    4.5510   -2.6470   24.9390 O   0  0  0  0  0  0  0  0  0  0  0  0
    6.1330   -2.6760   26.6700 N   0  0  0  0  0  0  0  0  0  0  0  0
    6.5260   -3.9200   27.4030 C   0  0  0  0  0  0  0  0  0  0  0  0
    5.4050   -1.6590   27.5980 C   0  0  1  0  0  0  0  0  0  0  0  0
    6.4020   -1.9570   28.6510 C   0  0  0  0  0  0  0  0  0  0  0  0
    7.0050   -0.5850   29.1340 C   0  0  0  0  0  0  0  0  0  0  0  0
    6.4810    0.6900   28.3550 C   0  0  0  0  0  0  0  0  0  0  0  0
    6.1850   -0.0330   27.1420 C   0  0  0  0  0  0  0  0  0  0  0  0
    5.6140   -1.1770   26.4470 C   0  0  0  0  0  0  0  0  0  0  0  0
    5.8100   -1.0090   25.1900 O   0  0  0  0  0  0  0  0  0  0  0  0
    4.8330   -0.3820   24.4310 C   0  0  0  0  0  0  0  0  0  0  0  0
    4.7900   -2.6090   26.8120 C   0  0  0  0  0  0  0  0  0  0  0  0
    4.6680   -2.5180   28.3460 C   0  0  0  0  0  0  0  0  0  0  0  0
    5.2400   -1.3270   28.7610 C   0  0  0  0  0  0  0  0  0  0  0  0
    5.1010   -0.9820   30.4920 Cl  0  0  0  0  0  0  0  0  0  0  0  0
    5.7580   -0.5130   28.2320 C   0  0  0  0  0  0  0  0  0  0  0  0
    7.0080   -2.6830   23.3410 C   0  0  0  0  0  0  0  0  0  0  0  0
    7.5890   -3.1810   22.2150 C   0  0  0  0  0  0  0  0  0  0  0  0
  1  2  1  0
  2  3  2  0
  2  4  1  0
  4  5  1  0
  5  6  1  0
  6  7  1  0
  7  8  1  0
  8  9  2  0
  8 10  1  0
 10 11  1  0
 12 10  1  6
 12 13  1  0
 13 14  1  0
 14 15  1  0
 15 16  1  0
 16 17  2  0
 17 18  1  0
 18 19  1  0
 17 20  1  0
 20 21  2  0
 21 22  1  0
 22 23  1  0
 12 24  1  0
 16 24  1  0
 22 24  2  0
  7 25  1  0
  4 26  1  0
 25 26  1  0
M  END
