piperidine-amides-3448-covalent
     RDKit          3D

 19 19  0  0  0  0  0  0  0  0999 V2000
    7.1180   -3.3070   19.2210 C   0  0  0  0  0  0  0  0  0  0  0  0
    6.4000   -4.0850   20.2190 C   0  0  0  0  0  0  0  0  0  0  0  0
    5.3350   -4.6260   19.9220 O   0  0  0  0  0  0  0  0  0  0  0  0
    6.9610   -4.2830   21.5310 N   0  0  0  0  0  0  0  0  0  0  0  0
    7.6510   -3.1890   22.1450 C   0  0  0  0  0  0  0  0  0  0  0  0
    6.8460   -2.7190   23.3210 C   0  0  0  0  0  0  0  0  0  0  0  0
    6.4500   -3.9130   24.1910 C   0  0  0  0  0  0  0  0  0  0  0  0
    5.7480   -3.3710   25.3860 C   0  0  0  0  0  0  0  0  0  0  0  0
    4.9440   -2.4230   25.3040 O   0  0  0  0  0  0  0  0  0  0  0  0
    5.9870   -3.9510   26.6550 N   0  0  0  0  0  0  0  0  0  0  0  0
    5.8220   -5.3850   26.8010 C   0  0  1  0  0  0  0  0  0  0  0  0
    6.4370   -5.8690   28.0740 C   0  0  0  0  0  0  0  0  0  0  0  0
    5.7470   -6.6470   28.9800 C   0  0  0  0  0  0  0  0  0  0  0  0
    6.7630   -4.5840   28.8190 C   0  0  0  0  0  0  0  0  0  0  0  0
    4.3970   -5.6960   26.7750 C   0  0  0  0  0  0  0  0  0  0  0  0
    3.9500   -5.4420   25.5040 F   0  0  0  0  0  0  0  0  0  0  0  0
    3.6390   -4.8950   27.6630 F   0  0  0  0  0  0  0  0  0  0  0  0
    5.6880   -4.8510   23.3420 C   0  0  0  0  0  0  0  0  0  0  0  0
    6.4620   -5.3260   22.3110 C   0  0  0  0  0  0  0  0  0  0  0  0
  1  2  1  0
  2  3  2  0
  2  4  1  0
  4  5  1  0
  5  6  1  0
  6  7  1  0
  7  8  1  0
  8  9  2  0
  8 10  1  0
 11 10  1  1
 11 12  1  0
 12 13  1  0
 12 14  1  0
 11 15  1  0
 15 16  1  0
 15 17  1  0
  7 18  1  0
  4 19  1  0
 18 19  1  0
M  END
