piperidine-amides-26907-covalent
     RDKit          3D

 25 27  0  0  0  0  0  0  0  0999 V2000
    7.0420   -3.3440   19.3190 C   0  0  0  0  0  0  0  0  0  0  0  0
    6.3730   -4.1760   20.3260 C   0  0  0  0  0  0  0  0  0  0  0  0
    5.3390   -4.7870   19.9570 O   0  0  0  0  0  0  0  0  0  0  0  0
    6.9040   -4.3030   21.6060 N   0  0  0  0  0  0  0  0  0  0  0  0
    6.6640   -5.4860   22.4010 C   0  0  0  0  0  0  0  0  0  0  0  0
    6.0280   -5.0600   23.6950 C   0  0  0  0  0  0  0  0  0  0  0  0
    6.7430   -3.8800   24.3090 C   0  0  0  0  0  0  0  0  0  0  0  0
    5.9570   -3.2970   25.4330 C   0  0  0  0  0  0  0  0  0  0  0  0
    5.3060   -2.2630   25.1770 O   0  0  0  0  0  0  0  0  0  0  0  0
    5.8090   -3.8080   26.7560 N   0  0  0  0  0  0  0  0  0  0  0  0
    4.6980   -3.2830   27.5040 C   0  0  0  0  0  0  0  0  0  0  0  0
    4.2370   -4.1680   28.6670 C   0  0  0  0  0  0  0  0  0  0  0  0
    5.0110   -5.4100   28.7530 N   0  0  0  0  0  0  0  0  0  0  0  0
    4.5750   -6.2800   29.6480 C   0  0  0  0  0  0  0  0  0  0  0  0
    5.3200   -6.6300   30.7590 C   0  0  0  0  0  0  0  0  0  0  0  0
    4.8660   -7.5340   31.7340 C   0  0  0  0  0  0  0  0  0  0  0  0
    5.6610   -7.8100   32.7950 F   0  0  0  0  0  0  0  0  0  0  0  0
    3.6150   -8.1250   31.5980 C   0  0  0  0  0  0  0  0  0  0  0  0
    2.8400   -7.8280   30.5230 C   0  0  0  0  0  0  0  0  0  0  0  0
    3.3380   -6.8670   29.5050 C   0  0  0  0  0  0  0  0  0  0  0  0
    2.4720   -6.6370   28.4650 F   0  0  0  0  0  0  0  0  0  0  0  0
    6.3860   -5.2770   28.4970 C   0  0  0  0  0  0  0  0  0  0  0  0
    6.4270   -3.8340   28.0550 C   0  0  0  0  0  0  0  0  0  0  0  0
    6.9520   -2.7980   23.2990 C   0  0  0  0  0  0  0  0  0  0  0  0
    7.6910   -3.2300   22.2300 C   0  0  0  0  0  0  0  0  0  0  0  0
  1  2  1  0
  2  3  2  0
  2  4  1  0
  4  5  1  0
  5  6  1  0
  6  7  1  0
  7  8  1  0
  8  9  2  0
  8 10  1  0
 10 11  1  0
 11 12  1  0
 12 13  1  0
 13 14  1  0
 14 15  2  0
 15 16  1  0
 16 17  1  0
 16 18  2  0
 18 19  1  0
 14 20  1  0
 19 20  2  0
 20 21  1  0
 13 22  1  0
 10 23  1  0
 22 23  1  0
  7 24  1  0
  4 25  1  0
 24 25  1  0
M  END
