piperidine-amides-3472-covalent
     RDKit          3D

 20 21  0  0  0  0  0  0  0  0999 V2000
    7.0600   -3.3670   19.3090 C   0  0  0  0  0  0  0  0  0  0  0  0
    6.4010   -4.1920   20.3140 C   0  0  0  0  0  0  0  0  0  0  0  0
    5.4000   -4.8370   19.9930 O   0  0  0  0  0  0  0  0  0  0  0  0
    6.9510   -4.2980   21.6440 N   0  0  0  0  0  0  0  0  0  0  0  0
    7.6970   -3.2030   22.1940 C   0  0  0  0  0  0  0  0  0  0  0  0
    6.9580   -2.6390   23.3710 C   0  0  0  0  0  0  0  0  0  0  0  0
    6.4980   -3.7820   24.2700 C   0  0  0  0  0  0  0  0  0  0  0  0
    5.6770   -3.2230   25.3860 C   0  0  0  0  0  0  0  0  0  0  0  0
    4.4610   -3.0020   25.2450 O   0  0  0  0  0  0  0  0  0  0  0  0
    6.2700   -2.9420   26.6500 N   0  0  0  0  0  0  0  0  0  0  0  0
    6.6890   -1.5830   26.9770 C   0  0  1  0  0  0  0  0  0  0  0  0
    5.6060   -0.6240   26.5700 C   0  0  0  0  0  0  0  0  0  0  0  0
    5.5390    0.5640   27.2670 C   0  0  0  0  0  0  0  0  0  0  0  0
    6.1590    0.6730   28.5140 C   0  0  0  0  0  0  0  0  0  0  0  0
    6.5910   -0.4810   29.1330 C   0  0  2  0  0  0  0  0  0  0  0  0
    7.6710   -0.4830   30.4570 S   0  0  0  0  0  0  0  0  0  0  0  0
    6.6920    0.2130   31.6550 C   0  0  0  0  0  0  0  0  0  0  0  0
    7.1650   -1.3740   28.2760 C   0  0  0  0  0  0  0  0  0  0  0  0
    5.6230   -4.7510   23.4620 C   0  0  0  0  0  0  0  0  0  0  0  0
    6.4360   -5.3460   22.4950 C   0  0  0  0  0  0  0  0  0  0  0  0
  1  2  1  0
  2  3  2  0
  2  4  1  0
  4  5  1  0
  5  6  1  0
  6  7  1  0
  7  8  1  0
  8  9  2  0
  8 10  1  0
 11 10  1  1
 11 12  1  0
 12 13  1  0
 13 14  1  0
 14 15  1  0
 15 16  1  1
 16 17  1  0
 11 18  1  0
 15 18  1  0
  7 19  1  0
  4 20  1  0
 19 20  1  0
M  END
