piperidine-amides-16991-covalent
     RDKit          3D

 20 20  0  0  0  0  0  0  0  0999 V2000
    7.0950   -3.2760   19.2370 C   0  0  0  0  0  0  0  0  0  0  0  0
    6.3610   -4.0330   20.2700 C   0  0  0  0  0  0  0  0  0  0  0  0
    5.2860   -4.5660   19.8970 O   0  0  0  0  0  0  0  0  0  0  0  0
    6.8460   -4.2130   21.5950 N   0  0  0  0  0  0  0  0  0  0  0  0
    7.6690   -3.2020   22.1890 C   0  0  0  0  0  0  0  0  0  0  0  0
    7.3360   -2.9570   23.5820 C   0  0  0  0  0  0  0  0  0  0  0  0
    6.1130   -3.6710   23.9610 C   0  0  0  0  0  0  0  0  0  0  0  0
    5.5130   -3.3110   25.2970 C   0  0  0  0  0  0  0  0  0  0  0  0
    4.2910   -3.0870   25.3250 O   0  0  0  0  0  0  0  0  0  0  0  0
    6.2070   -3.2030   26.5270 N   0  0  0  0  0  0  0  0  0  0  0  0
    6.3630   -1.9420   27.1690 C   0  0  0  0  0  0  0  0  0  0  0  0
    6.2540   -0.6970   26.4180 C   0  0  0  0  0  0  0  0  0  0  0  0
    4.7580   -0.3660   26.2440 C   0  0  0  0  0  0  0  0  0  0  0  0
    4.5080    0.5630   27.2330 O   0  0  0  0  0  0  0  0  0  0  0  0
    5.9180   -4.2880   27.4420 C   0  0  2  0  0  0  0  0  0  0  0  0
    6.7730   -4.3710   28.6930 C   0  0  0  0  0  0  0  0  0  0  0  0
    5.9730   -5.6870   26.8210 C   0  0  0  0  0  0  0  0  0  0  0  0
    5.0340   -6.5920   27.1280 N   0  0  0  0  0  0  0  0  0  0  0  0
    6.3060   -5.1740   23.7840 C   0  0  0  0  0  0  0  0  0  0  0  0
    6.6430   -5.4530   22.3280 C   0  0  0  0  0  0  0  0  0  0  0  0
  1  2  1  0
  2  3  2  0
  2  4  1  0
  4  5  1  0
  5  6  1  0
  6  7  1  0
  7  8  1  0
  8  9  2  0
  8 10  1  0
 10 11  1  0
 11 12  1  0
 12 13  1  0
 13 14  1  0
 10 15  1  0
 15 16  1  1
 15 17  1  0
 17 18  3  0
  7 19  1  0
  4 20  1  0
 19 20  1  0
M  END
