piperidine-amides-8871-covalent
     RDKit          3D

 22 24  0  0  0  0  0  0  0  0999 V2000
    7.0080   -3.3370   19.3590 C   0  0  0  0  0  0  0  0  0  0  0  0
    6.3550   -4.1810   20.3670 C   0  0  0  0  0  0  0  0  0  0  0  0
    5.4080   -4.8960   19.9860 O   0  0  0  0  0  0  0  0  0  0  0  0
    6.7960   -4.2070   21.7170 N   0  0  0  0  0  0  0  0  0  0  0  0
    7.7190   -3.2020   22.1760 C   0  0  0  0  0  0  0  0  0  0  0  0
    7.4970   -2.9900   23.6310 C   0  0  0  0  0  0  0  0  0  0  0  0
    6.1230   -3.5530   23.8720 C   0  0  0  0  0  0  0  0  0  0  0  0
    5.6410   -3.2200   25.2560 C   0  0  0  0  0  0  0  0  0  0  0  0
    4.4330   -3.3190   25.4490 O   0  0  0  0  0  0  0  0  0  0  0  0
    6.5770   -2.8280   26.2040 N   0  0  0  0  0  0  0  0  0  0  0  0
    6.4710   -1.6110   26.9480 C   0  0  0  0  0  0  0  0  0  0  0  0
    5.9320   -0.3960   26.4800 C   0  0  0  0  0  0  0  0  0  0  0  0
    5.8710    0.7420   27.2720 C   0  0  0  0  0  0  0  0  0  0  0  0
    6.3410    0.7460   28.5790 C   0  0  0  0  0  0  0  0  0  0  0  0
    6.1640    2.0710   29.1980 C   0  0  0  0  0  0  0  0  0  0  0  0
    6.6500    2.1850   30.6370 C   0  0  0  0  0  0  0  0  0  0  0  0
    7.2490    0.9970   31.2950 C   0  0  0  0  0  0  0  0  0  0  0  0
    7.3840   -0.2720   30.6040 N   0  0  0  0  0  0  0  0  0  0  0  0
    6.9120   -0.3650   29.2220 C   0  0  0  0  0  0  0  0  0  0  0  0
    6.9730   -1.6140   28.3390 C   0  0  0  0  0  0  0  0  0  0  0  0
    6.1680   -5.0650   23.7480 C   0  0  0  0  0  0  0  0  0  0  0  0
    6.6670   -5.4190   22.4990 C   0  0  0  0  0  0  0  0  0  0  0  0
  1  2  1  0
  2  3  2  0
  2  4  1  0
  4  5  1  0
  5  6  1  0
  6  7  1  0
  7  8  1  0
  8  9  2  0
  8 10  1  0
 10 11  1  0
 11 12  2  0
 12 13  1  0
 13 14  2  0
 14 15  1  0
 15 16  2  0
 16 17  1  0
 17 18  2  0
 14 19  1  0
 18 19  1  0
 11 20  1  0
 19 20  2  0
  7 21  1  0
  4 22  1  0
 21 22  1  0
M  END
