piperidine-amides-31506-covalent
     RDKit          3D

 28 31  0  0  0  0  0  0  0  0999 V2000
    7.0690   -3.3640   19.4370 C   0  0  0  0  0  0  0  0  0  0  0  0
    6.3780   -4.1990   20.4030 C   0  0  0  0  0  0  0  0  0  0  0  0
    5.4420   -4.9620   20.0000 O   0  0  0  0  0  0  0  0  0  0  0  0
    6.7480   -4.1780   21.7620 N   0  0  0  0  0  0  0  0  0  0  0  0
    6.6380   -5.4500   22.5520 C   0  0  0  0  0  0  0  0  0  0  0  0
    6.0110   -5.0210   23.9690 C   0  0  0  0  0  0  0  0  0  0  0  0
    6.5510   -3.6400   24.2720 C   0  0  0  0  0  0  0  0  0  0  0  0
    6.4050   -3.0050   25.7320 C   0  0  0  0  0  0  0  0  0  0  0  0
    7.1300   -2.0570   25.7730 O   0  0  0  0  0  0  0  0  0  0  0  0
    5.5630   -3.5510   26.4960 N   0  0  0  0  0  0  0  0  0  0  0  0
    4.3610   -3.8800   26.9090 C   0  0  0  0  0  0  0  0  0  0  0  0
    3.7600   -3.7810   28.0920 C   0  0  0  0  0  0  0  0  0  0  0  0
    4.3940   -4.7160   28.8350 C   0  0  0  0  0  0  0  0  0  0  0  0
    3.4930   -5.5980   29.6100 C   0  0  0  0  0  0  0  0  0  0  0  0
    4.3600   -6.5660   30.3620 C   0  0  0  0  0  0  0  0  0  0  0  0
    3.7680   -7.5270   31.2020 O   0  0  0  0  0  0  0  0  0  0  0  0
    2.5830   -8.1860   30.8160 C   0  0  0  0  0  0  0  0  0  0  0  0
    5.8510   -6.6040   30.3030 C   0  0  0  0  0  0  0  0  0  0  0  0
    6.4720   -7.5520   31.0770 O   0  0  0  0  0  0  0  0  0  0  0  0
    5.8590   -7.9890   32.2870 C   0  0  0  0  0  0  0  0  0  0  0  0
    6.5290   -5.5610   29.3880 C   0  0  0  0  0  0  0  0  0  0  0  0
    5.7680   -4.6590   28.7060 C   0  0  0  0  0  0  0  0  0  0  0  0
    6.2150   -3.6150   27.8680 C   0  0  2  0  0  0  0  0  0  0  0  0
    6.0980   -2.4010   28.4950 C   0  0  0  0  0  0  0  0  0  0  0  0
    5.3370   -1.5460   28.1490 C   0  0  0  0  0  0  0  0  0  0  0  0
    6.7570   -1.1520   28.1520 C   0  0  0  0  0  0  0  0  0  0  0  0
    7.8500   -3.3030   23.6730 C   0  0  0  0  0  0  0  0  0  0  0  0
    7.7410   -3.2400   22.2100 C   0  0  0  0  0  0  0  0  0  0  0  0
  1  2  1  0
  2  3  2  0
  2  4  1  0
  4  5  1  0
  5  6  1  0
  6  7  1  0
  7  8  1  0
  8  9  2  0
  8 10  1  0
 10 11  1  0
 11 12  1  0
 12 13  1  0
 13 14  2  0
 14 15  1  0
 15 16  1  0
 16 17  1  0
 15 18  2  0
 18 19  1  0
 19 20  1  0
 18 21  1  0
 13 22  1  0
 21 22  2  0
 10 23  1  0
 22 23  1  0
 23 24  1  1
 24 25  1  0
 24 26  1  0
 25 26  1  0
  7 27  1  0
  4 28  1  0
 27 28  1  0
M  END
