piperidine-amides-13331-covalent
     RDKit          3D

 21 23  0  0  0  0  0  0  0  0999 V2000
    7.0410   -3.3390   19.2580 C   0  0  0  0  0  0  0  0  0  0  0  0
    6.3610   -4.1420   20.2980 C   0  0  0  0  0  0  0  0  0  0  0  0
    5.3270   -4.7390   19.9470 O   0  0  0  0  0  0  0  0  0  0  0  0
    6.8930   -4.2580   21.5900 N   0  0  0  0  0  0  0  0  0  0  0  0
    6.4990   -5.3510   22.4150 C   0  0  0  0  0  0  0  0  0  0  0  0
    5.9620   -4.9500   23.7240 C   0  0  0  0  0  0  0  0  0  0  0  0
    6.5780   -3.7510   24.3490 C   0  0  0  0  0  0  0  0  0  0  0  0
    5.7890   -3.2670   25.5240 C   0  0  0  0  0  0  0  0  0  0  0  0
    4.5360   -3.3070   25.4690 O   0  0  0  0  0  0  0  0  0  0  0  0
    6.4140   -2.7750   26.6990 N   0  0  0  0  0  0  0  0  0  0  0  0
    6.5920   -1.3210   27.0130 C   0  0  1  0  0  0  0  0  0  0  0  0
    5.9120   -0.4320   26.0510 C   0  0  0  0  0  0  0  0  0  0  0  0
    4.7970    0.2940   26.6280 C   0  0  0  0  0  0  0  0  0  0  0  0
    4.1930   -0.3100   27.7200 C   0  0  0  0  0  0  0  0  0  0  0  0
    4.8300   -1.1640   28.3870 O   0  0  0  0  0  0  0  0  0  0  0  0
    6.1170   -0.9450   28.3410 C   0  0  0  0  0  0  0  0  0  0  0  0
    6.9170   -1.2410   29.3820 C   0  0  0  0  0  0  0  0  0  0  0  0
    6.9740    0.0130   29.7070 C   0  0  0  0  0  0  0  0  0  0  0  0
    6.3590    0.4550   28.5820 C   0  0  0  0  0  0  0  0  0  0  0  0
    6.8240   -2.6700   23.3370 C   0  0  0  0  0  0  0  0  0  0  0  0
    7.6370   -3.1950   22.2240 C   0  0  0  0  0  0  0  0  0  0  0  0
  1  2  1  0
  2  3  2  0
  2  4  1  0
  4  5  1  0
  5  6  1  0
  6  7  1  0
  7  8  1  0
  8  9  2  0
  8 10  1  0
 11 10  1  6
 11 12  1  0
 12 13  1  0
 13 14  1  0
 14 15  1  0
 11 16  1  0
 16 15  1  0
 16 17  1  0
 17 18  1  0
 16 19  1  0
 18 19  1  0
  7 20  1  0
  4 21  1  0
 20 21  1  0
M  END
