piperidine-amides-30221-covalent
     RDKit          3D

 27 30  0  0  0  0  0  0  0  0999 V2000
    7.0130   -3.3800   19.3950 C   0  0  0  0  0  0  0  0  0  0  0  0
    6.3640   -4.2490   20.3750 C   0  0  0  0  0  0  0  0  0  0  0  0
    5.4030   -4.9310   20.0080 O   0  0  0  0  0  0  0  0  0  0  0  0
    6.8520   -4.3490   21.7350 N   0  0  0  0  0  0  0  0  0  0  0  0
    7.6200   -3.2610   22.3190 C   0  0  0  0  0  0  0  0  0  0  0  0
    7.3840   -3.1400   23.8090 C   0  0  0  0  0  0  0  0  0  0  0  0
    6.0940   -3.8760   24.1050 C   0  0  0  0  0  0  0  0  0  0  0  0
    5.4250   -3.5470   25.4190 C   0  0  0  0  0  0  0  0  0  0  0  0
    4.3130   -2.9920   25.3980 O   0  0  0  0  0  0  0  0  0  0  0  0
    5.9540   -3.8080   26.7260 N   0  0  0  0  0  0  0  0  0  0  0  0
    6.1420   -5.1810   27.1530 C   0  0  0  0  0  0  0  0  0  0  0  0
    5.1460   -5.6380   28.1030 C   0  0  0  0  0  0  0  0  0  0  0  0
    5.4750   -5.3920   29.4030 C   0  0  0  0  0  0  0  0  0  0  0  0
    5.1170   -4.0550   29.7140 N   0  0  0  0  0  0  0  0  0  0  0  0
    3.7210   -3.9010   30.0300 C   0  0  0  0  0  0  0  0  0  0  0  0
    3.1720   -5.0060   30.6650 C   0  0  0  0  0  0  0  0  0  0  0  0
    3.0100   -4.8880   32.0940 N   0  0  0  0  0  0  0  0  0  0  0  0
    2.4870   -6.0550   32.4600 O   0  0  0  0  0  0  0  0  0  0  0  0
    2.3330   -6.8450   31.3250 C   0  0  0  0  0  0  0  0  0  0  0  0
    1.8070   -8.1170   31.4580 C   0  0  0  0  0  0  0  0  0  0  0  0
    1.1110   -8.6540   30.5830 C   0  0  0  0  0  0  0  0  0  0  0  0
    0.2180   -8.0360   31.5220 C   0  0  0  0  0  0  0  0  0  0  0  0
    2.7590   -6.1860   30.2040 N   0  0  0  0  0  0  0  0  0  0  0  0
    5.9540   -3.2670   29.0010 C   0  0  0  0  0  0  0  0  0  0  0  0
    5.7540   -2.8050   27.7110 C   0  0  0  0  0  0  0  0  0  0  0  0
    6.2750   -5.3410   23.8770 C   0  0  0  0  0  0  0  0  0  0  0  0
    6.6230   -5.5750   22.4380 C   0  0  0  0  0  0  0  0  0  0  0  0
  1  2  1  0
  2  3  2  0
  2  4  1  0
  4  5  1  0
  5  6  1  0
  6  7  1  0
  7  8  1  0
  8  9  2  0
  8 10  1  0
 10 11  1  0
 11 12  1  0
 12 13  1  0
 13 14  1  0
 14 15  1  0
 15 16  1  0
 16 17  2  0
 17 18  1  0
 18 19  1  0
 19 20  1  0
 20 21  1  0
 20 22  1  0
 21 22  1  0
 16 23  1  0
 19 23  2  0
 14 24  1  0
 10 25  1  0
 24 25  1  0
  7 26  1  0
  4 27  1  0
 26 27  1  0
M  END
