piperidine-amides-14935-covalent
     RDKit          3D

 21 21  0  0  0  0  0  0  0  0999 V2000
    7.0520   -3.3050   19.2970 C   0  0  0  0  0  0  0  0  0  0  0  0
    6.3770   -4.1150   20.3130 C   0  0  0  0  0  0  0  0  0  0  0  0
    5.3770   -4.7670   19.9650 O   0  0  0  0  0  0  0  0  0  0  0  0
    6.8740   -4.1910   21.6470 N   0  0  0  0  0  0  0  0  0  0  0  0
    7.7020   -3.1260   22.1710 C   0  0  0  0  0  0  0  0  0  0  0  0
    7.4260   -2.9210   23.6350 C   0  0  0  0  0  0  0  0  0  0  0  0
    6.0840   -3.5570   23.8730 C   0  0  0  0  0  0  0  0  0  0  0  0
    5.5360   -3.2370   25.2410 C   0  0  0  0  0  0  0  0  0  0  0  0
    4.5040   -2.5700   25.2480 O   0  0  0  0  0  0  0  0  0  0  0  0
    6.1860   -3.6830   26.3890 N   0  0  0  0  0  0  0  0  0  0  0  0
    5.9460   -4.9730   26.9670 C   0  0  1  0  0  0  0  0  0  0  0  0
    6.2630   -5.1110   28.3180 C   0  0  0  0  0  0  0  0  0  0  0  0
    5.2010   -5.4290   29.1320 C   0  0  0  0  0  0  0  0  0  0  0  0
    5.8010   -6.6300   30.1860 S   0  0  0  0  0  0  0  0  0  0  0  0
    5.3060   -7.9820   29.2360 C   0  0  0  0  0  0  0  0  0  0  0  0
    4.5180   -5.2960   26.8590 C   0  0  0  0  0  0  0  0  0  0  0  0
    3.4570   -4.5490   27.3140 O   0  0  0  0  0  0  0  0  0  0  0  0
    4.3170   -6.5250   26.2080 O   0  0  0  0  0  0  0  0  0  0  0  0
    3.3300   -7.4430   26.6580 C   0  0  0  0  0  0  0  0  0  0  0  0
    6.0770   -5.0350   23.7100 C   0  0  0  0  0  0  0  0  0  0  0  0
    6.5920   -5.4010   22.3460 C   0  0  0  0  0  0  0  0  0  0  0  0
  1  2  1  0
  2  3  2  0
  2  4  1  0
  4  5  1  0
  5  6  1  0
  6  7  1  0
  7  8  1  0
  8  9  2  0
  8 10  1  0
 10 11  1  0
 11 12  1  1
 12 13  1  0
 13 14  1  0
 14 15  1  0
 11 16  1  0
 16 17  2  0
 16 18  1  0
 18 19  1  0
  7 20  1  0
  4 21  1  0
 20 21  1  0
M  END
