piperidine-amides-1649-covalent
     RDKit          3D

 21 22  0  0  0  0  0  0  0  0999 V2000
    7.0690   -3.2850   19.2580 C   0  0  0  0  0  0  0  0  0  0  0  0
    6.2320   -4.0330   20.2400 C   0  0  0  0  0  0  0  0  0  0  0  0
    5.1930   -4.5840   19.8690 O   0  0  0  0  0  0  0  0  0  0  0  0
    6.6660   -4.1280   21.5710 N   0  0  0  0  0  0  0  0  0  0  0  0
    7.4980   -3.0940   22.1090 C   0  0  0  0  0  0  0  0  0  0  0  0
    7.4030   -3.2040   23.6170 C   0  0  0  0  0  0  0  0  0  0  0  0
    6.1020   -3.7950   23.9830 C   0  0  0  0  0  0  0  0  0  0  0  0
    5.7930   -3.5940   25.4270 C   0  0  0  0  0  0  0  0  0  0  0  0
    4.7070   -3.0550   25.6680 O   0  0  0  0  0  0  0  0  0  0  0  0
    6.7040   -3.9860   26.4440 N   0  0  0  0  0  0  0  0  0  0  0  0
    7.0020   -5.3090   26.9260 C   0  0  1  0  0  0  0  0  0  0  0  0
    7.8630   -5.6700   27.9520 C   0  0  0  0  0  0  0  0  0  0  0  0
    5.7220   -5.9280   27.4380 C   0  0  0  0  0  0  0  0  0  0  0  0
    4.6450   -6.3480   26.6730 O   0  0  0  0  0  0  0  0  0  0  0  0
    5.3830   -6.2030   28.8260 N   0  0  0  0  0  0  0  0  0  0  0  0
    5.2490   -7.4070   29.4290 C   0  0  0  0  0  0  0  0  0  0  0  0
    4.2990   -7.3120   30.5530 C   0  0  0  0  0  0  0  0  0  0  0  0
    3.7800   -5.8770   30.5920 C   0  0  0  0  0  0  0  0  0  0  0  0
    4.5330   -5.2180   29.4210 C   0  0  0  0  0  0  0  0  0  0  0  0
    6.0890   -5.2810   23.6210 C   0  0  0  0  0  0  0  0  0  0  0  0
    6.5020   -5.4240   22.1920 C   0  0  0  0  0  0  0  0  0  0  0  0
  1  2  1  0
  2  3  2  0
  2  4  1  0
  4  5  1  0
  5  6  1  0
  6  7  1  0
  7  8  1  0
  8  9  2  0
  8 10  1  0
 10 11  1  0
 11 12  1  1
 11 13  1  0
 13 14  2  0
 13 15  1  0
 15 16  1  0
 16 17  1  0
 17 18  1  0
 15 19  1  0
 18 19  1  0
  7 20  1  0
  4 21  1  0
 20 21  1  0
M  END
