piperidine-amides-3168-covalent
     RDKit          3D

 22 23  0  0  0  0  0  0  0  0999 V2000
    7.1800   -3.3010   19.1820 C   0  0  0  0  0  0  0  0  0  0  0  0
    6.3810   -4.0050   20.1670 C   0  0  0  0  0  0  0  0  0  0  0  0
    5.2840   -4.4750   19.8640 O   0  0  0  0  0  0  0  0  0  0  0  0
    6.9280   -4.2120   21.4680 N   0  0  0  0  0  0  0  0  0  0  0  0
    6.6340   -5.3930   22.2150 C   0  0  0  0  0  0  0  0  0  0  0  0
    5.9750   -5.0090   23.5070 C   0  0  0  0  0  0  0  0  0  0  0  0
    6.6160   -3.7430   24.0820 C   0  0  0  0  0  0  0  0  0  0  0  0
    5.6310   -3.1460   24.9830 C   0  0  0  0  0  0  0  0  0  0  0  0
    5.5320   -1.9320   25.2260 O   0  0  0  0  0  0  0  0  0  0  0  0
    4.7440   -4.0330   25.5770 N   0  0  0  0  0  0  0  0  0  0  0  0
    4.6270   -3.9640   26.9820 C   0  0  0  0  0  0  0  0  0  0  0  0
    5.8070   -4.6590   27.5240 C   0  0  0  0  0  0  0  0  0  0  0  0
    6.2850   -5.8860   27.2200 O   0  0  0  0  0  0  0  0  0  0  0  0
    7.3930   -5.9930   28.0350 C   0  0  0  0  0  0  0  0  0  0  0  0
    7.6840   -4.8720   28.9010 N   0  0  0  0  0  0  0  0  0  0  0  0
    6.6370   -3.9830   28.5470 C   0  0  0  0  0  0  0  0  0  0  0  0
    6.3530   -2.7170   29.0070 C   0  0  0  0  0  0  0  0  0  0  0  0
    5.2860   -2.4180   29.8090 O   0  0  0  0  0  0  0  0  0  0  0  0
    7.1710   -1.6880   28.6910 O   0  0  0  0  0  0  0  0  0  0  0  0
    7.7200   -1.0190   29.7430 C   0  0  0  0  0  0  0  0  0  0  0  0
    7.0380   -2.6670   23.1160 C   0  0  0  0  0  0  0  0  0  0  0  0
    7.7770   -3.2270   22.1220 C   0  0  0  0  0  0  0  0  0  0  0  0
  1  2  1  0
  2  3  2  0
  2  4  1  0
  4  5  1  0
  5  6  1  0
  6  7  1  0
  7  8  1  0
  8  9  2  0
  8 10  1  0
 10 11  1  0
 11 12  1  0
 12 13  1  0
 13 14  1  0
 14 15  2  0
 12 16  2  0
 15 16  1  0
 16 17  1  0
 17 18  2  0
 17 19  1  0
 19 20  1  0
  7 21  1  0
  4 22  1  0
 21 22  1  0
M  END
