piperidine-amides-25070-covalent
     RDKit          3D

 24 25  0  0  0  0  0  0  0  0999 V2000
    7.0800   -3.3720   19.4200 C   0  0  0  0  0  0  0  0  0  0  0  0
    6.3780   -4.2520   20.3830 C   0  0  0  0  0  0  0  0  0  0  0  0
    5.3640   -4.8150   19.9750 O   0  0  0  0  0  0  0  0  0  0  0  0
    6.8990   -4.4590   21.6690 N   0  0  0  0  0  0  0  0  0  0  0  0
    6.5250   -5.6010   22.4420 C   0  0  0  0  0  0  0  0  0  0  0  0
    5.5930   -5.1420   23.5310 C   0  0  0  0  0  0  0  0  0  0  0  0
    6.1650   -3.9390   24.2980 C   0  0  0  0  0  0  0  0  0  0  0  0
    5.0930   -3.4770   25.2290 C   0  0  0  0  0  0  0  0  0  0  0  0
    4.0250   -3.1030   24.7520 O   0  0  0  0  0  0  0  0  0  0  0  0
    5.2410   -3.4400   26.6370 N   0  0  0  0  0  0  0  0  0  0  0  0
    4.2960   -4.0660   27.5420 C   0  0  0  0  0  0  0  0  0  0  0  0
    4.7680   -3.7240   28.9490 C   0  0  0  0  0  0  0  0  0  0  0  0
    5.5920   -2.6560   29.0500 C   0  0  0  0  0  0  0  0  0  0  0  0
    5.2150   -1.5270   29.7330 C   0  0  0  0  0  0  0  0  0  0  0  0
    3.9660   -1.5540   30.3580 F   0  0  0  0  0  0  0  0  0  0  0  0
    5.9420   -0.3490   29.8510 C   0  0  0  0  0  0  0  0  0  0  0  0
    5.3560    0.8210   30.2260 O   0  0  0  0  0  0  0  0  0  0  0  0
    7.2880   -0.4050   29.5700 O   0  0  0  0  0  0  0  0  0  0  0  0
    8.2060   -0.5990   30.5990 C   0  0  0  0  0  0  0  0  0  0  0  0
    8.7480    0.6820   31.1410 C   0  0  0  0  0  0  0  0  0  0  0  0
    6.8320   -2.8250   28.3250 C   0  0  0  0  0  0  0  0  0  0  0  0
    6.5710   -3.4640   27.0310 C   0  0  0  0  0  0  0  0  0  0  0  0
    6.6910   -2.8260   23.4130 C   0  0  0  0  0  0  0  0  0  0  0  0
    7.6160   -3.4100   22.3560 C   0  0  0  0  0  0  0  0  0  0  0  0
  1  2  1  0
  2  3  2  0
  2  4  1  0
  4  5  1  0
  5  6  1  0
  6  7  1  0
  7  8  1  0
  8  9  2  0
  8 10  1  0
 10 11  1  0
 11 12  1  0
 12 13  1  0
 13 14  2  3
 14 15  1  0
 14 16  1  0
 16 17  2  0
 16 18  1  0
 18 19  1  0
 19 20  1  0
 13 21  1  0
 10 22  1  0
 21 22  1  0
  7 23  1  0
  4 24  1  0
 23 24  1  0
M  END
