piperidine-amides-15413-covalent
     RDKit          3D

 18 19  0  0  0  0  0  0  0  0999 V2000
    7.1540   -3.3070   19.2690 C   0  0  0  0  0  0  0  0  0  0  0  0
    6.4150   -4.1180   20.2360 C   0  0  0  0  0  0  0  0  0  0  0  0
    5.3410   -4.6790   19.9320 O   0  0  0  0  0  0  0  0  0  0  0  0
    6.9590   -4.3100   21.4990 N   0  0  0  0  0  0  0  0  0  0  0  0
    6.5630   -5.4660   22.2580 C   0  0  0  0  0  0  0  0  0  0  0  0
    5.6230   -4.9270   23.3300 C   0  0  0  0  0  0  0  0  0  0  0  0
    6.4870   -4.0270   24.1760 C   0  0  0  0  0  0  0  0  0  0  0  0
    5.6900   -3.5010   25.2810 C   0  0  0  0  0  0  0  0  0  0  0  0
    4.7830   -2.6870   25.0180 O   0  0  0  0  0  0  0  0  0  0  0  0
    5.9360   -3.9120   26.5920 N   0  0  0  0  0  0  0  0  0  0  0  0
    6.3670   -2.9370   27.5450 C   0  0  0  0  0  0  0  0  0  0  0  0
    6.6250   -3.7600   28.7440 C   0  0  0  0  0  0  0  0  0  0  0  0
    5.8360   -4.8130   28.6620 C   0  0  2  0  0  0  0  0  0  0  0  0
    6.4820   -6.0200   28.7190 C   0  0  0  0  0  0  0  0  0  0  0  0
    5.8980   -6.9590   29.6120 N   0  0  0  0  0  0  0  0  0  0  0  0
    5.0430   -4.5410   27.5930 C   0  0  0  0  0  0  0  0  0  0  0  0
    7.1130   -2.8900   23.4590 C   0  0  0  0  0  0  0  0  0  0  0  0
    7.7150   -3.2570   22.1400 C   0  0  0  0  0  0  0  0  0  0  0  0
  1  2  1  0
  2  3  2  0
  2  4  1  0
  4  5  1  0
  5  6  1  0
  6  7  1  0
  7  8  1  0
  8  9  2  0
  8 10  1  0
 10 11  1  0
 11 12  1  0
 12 13  1  0
 13 14  1  6
 14 15  3  0
 10 16  1  0
 13 16  1  0
  7 17  1  0
  4 18  1  0
 17 18  1  0
M  END
