piperidine-amides-2595-covalent
     RDKit          3D

 25 27  0  0  0  0  0  0  0  0999 V2000
    7.0620   -3.2850   19.3210 C   0  0  0  0  0  0  0  0  0  0  0  0
    6.3710   -4.1230   20.3340 C   0  0  0  0  0  0  0  0  0  0  0  0
    5.3680   -4.7300   19.9520 O   0  0  0  0  0  0  0  0  0  0  0  0
    6.8660   -4.2430   21.6450 N   0  0  0  0  0  0  0  0  0  0  0  0
    6.6870   -5.4600   22.3940 C   0  0  0  0  0  0  0  0  0  0  0  0
    5.9120   -5.1340   23.6330 C   0  0  0  0  0  0  0  0  0  0  0  0
    5.7300   -3.6200   23.6800 C   0  0  0  0  0  0  0  0  0  0  0  0
    5.0220   -3.2560   24.9370 C   0  0  0  0  0  0  0  0  0  0  0  0
    3.9280   -3.7750   25.1600 O   0  0  0  0  0  0  0  0  0  0  0  0
    5.5190   -2.3520   25.8810 N   0  0  0  0  0  0  0  0  0  0  0  0
    6.5410   -2.8530   26.7210 C   0  0  0  0  0  0  0  0  0  0  0  0
    5.9590   -3.8980   27.6690 C   0  0  0  0  0  0  0  0  0  0  0  0
    5.2130   -3.4860   28.7390 C   0  0  0  0  0  0  0  0  0  0  0  0
    4.9740   -2.2340   29.2750 C   0  0  0  0  0  0  0  0  0  0  0  0
    4.1450   -2.2490   30.3660 C   0  0  0  0  0  0  0  0  0  0  0  0
    3.8000   -3.6830   30.5730 C   0  0  0  0  0  0  0  0  0  0  0  0
    2.9090   -4.0700   31.6840 C   0  0  0  0  0  0  0  0  0  0  0  0
    2.6550   -5.5790   31.7620 C   0  0  0  0  0  0  0  0  0  0  0  0
    3.3000   -6.5390   30.7490 C   0  0  0  0  0  0  0  0  0  0  0  0
    2.9830   -7.8860   30.9380 O   0  0  0  0  0  0  0  0  0  0  0  0
    3.1870   -8.3530   32.2100 C   0  0  0  0  0  0  0  0  0  0  0  0
    4.1990   -5.9840   29.6600 C   0  0  0  0  0  0  0  0  0  0  0  0
    4.4490   -4.5500   29.5700 C   0  0  0  0  0  0  0  0  0  0  0  0
    7.0840   -2.9310   23.5370 C   0  0  0  0  0  0  0  0  0  0  0  0
    7.6380   -3.1700   22.2840 C   0  0  0  0  0  0  0  0  0  0  0  0
  1  2  1  0
  2  3  2  0
  2  4  1  0
  4  5  1  0
  5  6  1  0
  6  7  1  0
  7  8  1  0
  8  9  2  0
  8 10  1  0
 10 11  1  0
 11 12  1  0
 12 13  1  0
 13 14  2  0
 14 15  1  0
 15 16  1  0
 16 17  1  0
 17 18  2  0
 18 19  1  0
 19 20  1  0
 20 21  1  0
 19 22  2  0
 13 23  1  0
 16 23  2  0
 22 23  1  0
  7 24  1  0
  4 25  1  0
 24 25  1  0
M  END
