piperidine-amides-9110-covalent
     RDKit          3D

 21 21  0  0  0  0  0  0  0  0999 V2000
    7.1160   -3.2980   19.2520 C   0  0  0  0  0  0  0  0  0  0  0  0
    6.3350   -4.0360   20.2490 C   0  0  0  0  0  0  0  0  0  0  0  0
    5.2800   -4.5860   19.9000 O   0  0  0  0  0  0  0  0  0  0  0  0
    6.7820   -4.1770   21.5770 N   0  0  0  0  0  0  0  0  0  0  0  0
    6.6440   -5.4260   22.2930 C   0  0  0  0  0  0  0  0  0  0  0  0
    5.9810   -5.0830   23.6010 C   0  0  0  0  0  0  0  0  0  0  0  0
    6.0570   -3.6110   23.8660 C   0  0  0  0  0  0  0  0  0  0  0  0
    5.6840   -3.2500   25.2480 C   0  0  0  0  0  0  0  0  0  0  0  0
    4.4650   -3.2030   25.5890 O   0  0  0  0  0  0  0  0  0  0  0  0
    6.6420   -2.9350   26.2250 N   0  0  0  0  0  0  0  0  0  0  0  0
    6.3110   -3.0120   27.6590 C   0  0  0  0  0  0  0  0  0  0  0  0
    5.9290   -4.3930   28.0240 C   0  0  0  0  0  0  0  0  0  0  0  0
    4.7930   -4.4790   28.9570 C   0  0  2  0  0  0  0  0  0  0  0  0
    4.6610   -3.1570   29.6650 C   0  0  0  0  0  0  0  0  0  0  0  0
    4.7560   -5.5000   30.0410 C   0  0  0  0  0  0  0  0  0  0  0  0
    4.3170   -6.5870   29.1480 C   0  0  0  0  0  0  0  0  0  0  0  0
    5.2270   -7.3610   28.4950 C   0  0  0  0  0  0  0  0  0  0  0  0
    4.4980   -7.9630   29.7160 C   0  0  0  0  0  0  0  0  0  0  0  0
    3.3620   -6.5660   27.9550 C   0  0  0  0  0  0  0  0  0  0  0  0
    7.4020   -3.0080   23.5860 C   0  0  0  0  0  0  0  0  0  0  0  0
    7.7000   -3.1880   22.1210 C   0  0  0  0  0  0  0  0  0  0  0  0
  1  2  1  0
  2  3  2  0
  2  4  1  0
  4  5  1  0
  5  6  1  0
  6  7  1  0
  7  8  1  0
  8  9  2  0
  8 10  1  0
 10 11  1  0
 11 12  1  0
 12 13  1  0
 13 14  1  1
 13 15  1  0
 16 15  1  0
 16 17  1  0
 16 18  1  0
 16 19  1  0
  7 20  1  0
  4 21  1  0
 20 21  1  0
M  END
