piperidine-amides-33507-covalent
     RDKit          3D

 28 30  0  0  0  0  0  0  0  0999 V2000
    7.0800   -3.3180   19.2720 C   0  0  0  0  0  0  0  0  0  0  0  0
    6.4030   -4.1170   20.3050 C   0  0  0  0  0  0  0  0  0  0  0  0
    5.3450   -4.6930   19.9480 O   0  0  0  0  0  0  0  0  0  0  0  0
    6.9460   -4.2820   21.6120 N   0  0  0  0  0  0  0  0  0  0  0  0
    6.6130   -5.4590   22.3450 C   0  0  0  0  0  0  0  0  0  0  0  0
    6.1590   -5.1960   23.7100 C   0  0  0  0  0  0  0  0  0  0  0  0
    6.0650   -3.7560   24.0210 C   0  0  0  0  0  0  0  0  0  0  0  0
    5.4210   -3.4650   25.3530 C   0  0  0  0  0  0  0  0  0  0  0  0
    4.2530   -3.0360   25.3290 O   0  0  0  0  0  0  0  0  0  0  0  0
    6.0100   -3.6150   26.6330 N   0  0  0  0  0  0  0  0  0  0  0  0
    6.1580   -2.5050   27.4670 C   0  0  0  0  0  0  0  0  0  0  0  0
    6.2730   -2.7950   29.1160 S   0  0  0  0  0  0  0  0  0  0  0  0
    6.4010   -4.4400   28.7510 C   0  0  0  0  0  0  0  0  0  0  0  0
    5.7770   -4.8850   27.3760 C   0  0  1  0  0  0  0  0  0  0  0  0
    4.4500   -5.2360   27.4970 C   0  0  0  0  0  0  0  0  0  0  0  0
    3.6020   -5.1530   26.4140 O   0  0  0  0  0  0  0  0  0  0  0  0
    3.9780   -5.6870   28.7410 N   0  0  0  0  0  0  0  0  0  0  0  0
    2.8500   -5.1160   29.3630 C   0  0  0  0  0  0  0  0  0  0  0  0
    3.0500   -5.3430   30.8250 C   0  0  0  0  0  0  0  0  0  0  0  0
    2.2330   -6.6510   30.7740 C   0  0  0  0  0  0  0  0  0  0  0  0
    1.5870   -7.2290   32.0100 C   0  0  0  0  0  0  0  0  0  0  0  0
    2.5810   -7.3250   32.9360 N   0  0  0  0  0  0  0  0  0  0  0  0
    3.1790   -6.1010   33.5490 C   0  0  0  0  0  0  0  0  0  0  0  0
    2.8930   -8.7460   33.0110 C   0  0  0  0  0  0  0  0  0  0  0  0
    3.3980   -7.3710   30.1540 C   0  0  0  0  0  0  0  0  0  0  0  0
    3.7670   -7.0820   28.8390 C   0  0  0  0  0  0  0  0  0  0  0  0
    7.2960   -2.9960   23.6800 C   0  0  0  0  0  0  0  0  0  0  0  0
    7.6860   -3.1990   22.2320 C   0  0  0  0  0  0  0  0  0  0  0  0
  1  2  1  0
  2  3  2  0
  2  4  1  0
  4  5  1  0
  5  6  1  0
  6  7  1  0
  7  8  1  0
  8  9  2  0
  8 10  1  0
 10 11  1  0
 11 12  1  0
 12 13  1  0
 10 14  1  0
 13 14  1  0
 14 15  1  1
 15 16  2  0
 15 17  1  0
 17 18  1  0
 18 19  1  0
 19 20  1  0
 20 21  1  0
 21 22  1  0
 22 23  1  0
 22 24  1  0
 20 25  1  0
 17 26  1  0
 25 26  1  0
  7 27  1  0
  4 28  1  0
 27 28  1  0
M  END
