piperidine-amides-8650-covalent
     RDKit          3D

 23 24  0  0  0  0  0  0  0  0999 V2000
    7.1960   -3.9550   19.6330 C   0  0  0  0  0  0  0  0  0  0  0  0
    5.9770   -3.8820   20.2940 C   0  0  0  0  0  0  0  0  0  0  0  0
    4.9790   -3.9600   19.5750 O   0  0  0  0  0  0  0  0  0  0  0  0
    6.0430   -3.8430   21.6840 N   0  0  0  0  0  0  0  0  0  0  0  0
    7.1810   -3.1300   22.1560 C   0  0  0  0  0  0  0  0  0  0  0  0
    7.0180   -2.8130   23.6030 C   0  0  0  0  0  0  0  0  0  0  0  0
    6.2970   -3.9380   24.3490 C   0  0  0  0  0  0  0  0  0  0  0  0
    5.3300   -3.2850   25.2590 C   0  0  0  0  0  0  0  0  0  0  0  0
    4.2400   -3.8310   25.4020 O   0  0  0  0  0  0  0  0  0  0  0  0
    5.7240   -2.1130   25.8500 N   0  0  0  0  0  0  0  0  0  0  0  0
    6.6470   -2.1360   26.8990 C   0  0  0  0  0  0  0  0  0  0  0  0
    6.0820   -2.3780   28.1450 C   0  0  0  0  0  0  0  0  0  0  0  0
    4.7780   -1.9880   28.3480 C   0  0  0  0  0  0  0  0  0  0  0  0
    4.5530   -1.8630   29.7560 N   0  0  0  0  0  0  0  0  0  0  0  0
    4.8490   -0.5870   30.2800 C   0  0  0  0  0  0  0  0  0  0  0  0
    3.6750   -2.7750   30.4730 C   0  0  0  0  0  0  0  0  0  0  0  0
    6.0940   -3.6790   28.6030 C   0  0  0  0  0  0  0  0  0  0  0  0
    7.4020   -4.3490   28.4380 C   0  0  0  0  0  0  0  0  0  0  0  0
    8.4810   -3.6890   28.5010 O   0  0  0  0  0  0  0  0  0  0  0  0
    8.3820   -2.3010   28.7450 C   0  0  0  0  0  0  0  0  0  0  0  0
    6.9520   -1.8370   29.0170 C   0  0  0  0  0  0  0  0  0  0  0  0
    5.3820   -4.8350   23.5410 C   0  0  0  0  0  0  0  0  0  0  0  0
    5.9250   -5.1090   22.3340 C   0  0  0  0  0  0  0  0  0  0  0  0
  1  2  1  0
  2  3  2  0
  2  4  1  0
  4  5  1  0
  5  6  1  0
  6  7  1  0
  7  8  1  0
  8  9  2  0
  8 10  1  0
 10 11  1  0
 12 11  1  0
 12 13  1  0
 13 14  1  0
 14 15  1  0
 14 16  1  0
 12 17  1  0
 17 18  1  0
 18 19  1  0
 19 20  1  0
 12 21  1  0
 20 21  1  0
  7 22  1  0
  4 23  1  0
 22 23  1  0
M  END
