piperidine-amides-33229-covalent
     RDKit          3D

 29 31  0  0  0  0  0  0  0  0999 V2000
    7.0680   -3.3570   19.3520 C   0  0  0  0  0  0  0  0  0  0  0  0
    6.4320   -4.2200   20.3610 C   0  0  0  0  0  0  0  0  0  0  0  0
    5.4120   -4.8580   19.9930 O   0  0  0  0  0  0  0  0  0  0  0  0
    6.9930   -4.3650   21.6640 N   0  0  0  0  0  0  0  0  0  0  0  0
    6.6060   -5.4820   22.4660 C   0  0  0  0  0  0  0  0  0  0  0  0
    6.1570   -5.1120   23.8130 C   0  0  0  0  0  0  0  0  0  0  0  0
    6.2390   -3.6590   24.0560 C   0  0  0  0  0  0  0  0  0  0  0  0
    5.6900   -3.1960   25.3790 C   0  0  0  0  0  0  0  0  0  0  0  0
    4.9140   -2.2290   25.3710 O   0  0  0  0  0  0  0  0  0  0  0  0
    5.9530   -3.7970   26.6240 N   0  0  0  0  0  0  0  0  0  0  0  0
    5.0840   -4.6990   27.2310 C   0  0  0  0  0  0  0  0  0  0  0  0
    5.5800   -5.7390   28.1270 C   0  0  0  0  0  0  0  0  0  0  0  0
    6.1260   -5.1240   29.4090 C   0  0  0  0  0  0  0  0  0  0  0  0
    5.3400   -3.8960   29.5680 N   0  0  0  0  0  0  0  0  0  0  0  0
    3.9180   -4.1560   29.6300 C   0  0  0  0  0  0  0  0  0  0  0  0
    3.5980   -4.9220   30.9170 C   0  0  0  0  0  0  0  0  0  0  0  0
    4.2140   -6.1040   31.3290 N   0  0  0  0  0  0  0  0  0  0  0  0
    3.6570   -6.4350   32.4770 C   0  0  0  0  0  0  0  0  0  0  0  0
    4.2710   -7.7240   33.0310 C   0  0  1  0  0  0  0  0  0  0  0  0
    5.6850   -7.9520   32.5840 C   0  0  0  0  0  0  0  0  0  0  0  0
    4.2170   -7.9810   34.4050 O   0  0  0  0  0  0  0  0  0  0  0  0
    4.4320   -9.3260   34.8120 C   0  0  0  0  0  0  0  0  0  0  0  0
    5.8780   -9.8330   34.6500 C   0  0  0  0  0  0  0  0  0  0  0  0
    2.7160   -5.5820   32.8760 N   0  0  0  0  0  0  0  0  0  0  0  0
    2.6660   -4.6250   31.9050 O   0  0  0  0  0  0  0  0  0  0  0  0
    5.7430   -2.8950   28.8000 C   0  0  0  0  0  0  0  0  0  0  0  0
    6.5690   -3.1440   27.7460 C   0  0  0  0  0  0  0  0  0  0  0  0
    7.5500   -3.0830   23.6820 C   0  0  0  0  0  0  0  0  0  0  0  0
    7.7880   -3.2760   22.2050 C   0  0  0  0  0  0  0  0  0  0  0  0
  1  2  1  0
  2  3  2  0
  2  4  1  0
  4  5  1  0
  5  6  1  0
  6  7  1  0
  7  8  1  0
  8  9  2  0
  8 10  1  0
 10 11  1  0
 11 12  1  0
 12 13  1  0
 13 14  1  0
 14 15  1  0
 15 16  1  0
 16 17  2  0
 17 18  1  0
 18 19  1  0
 19 20  1  1
 19 21  1  0
 21 22  1  0
 22 23  1  0
 18 24  2  0
 16 25  1  0
 24 25  1  0
 14 26  1  0
 10 27  1  0
 26 27  1  0
  7 28  1  0
  4 29  1  0
 28 29  1  0
M  END
