piperidine-amides-15422-covalent
     RDKit          3D

 18 20  0  0  0  0  0  0  0  0999 V2000
    7.0470   -3.3730   19.4240 C   0  0  0  0  0  0  0  0  0  0  0  0
    6.3430   -4.2210   20.3980 C   0  0  0  0  0  0  0  0  0  0  0  0
    5.3930   -4.9340   20.0060 O   0  0  0  0  0  0  0  0  0  0  0  0
    6.7460   -4.2700   21.7480 N   0  0  0  0  0  0  0  0  0  0  0  0
    6.5440   -5.4890   22.5100 C   0  0  0  0  0  0  0  0  0  0  0  0
    5.9860   -5.1070   23.9000 C   0  0  0  0  0  0  0  0  0  0  0  0
    5.7440   -3.6100   23.8910 C   0  0  0  0  0  0  0  0  0  0  0  0
    4.8990   -3.0870   25.0260 C   0  0  0  0  0  0  0  0  0  0  0  0
    3.7970   -2.6120   24.7250 O   0  0  0  0  0  0  0  0  0  0  0  0
    5.2710   -3.1160   26.3950 N   0  0  0  0  0  0  0  0  0  0  0  0
    6.4500   -3.7320   26.5910 C   0  0  0  0  0  0  0  0  0  0  0  0
    6.6920   -3.9210   28.0540 C   0  0  2  0  0  0  0  0  0  0  0  0
    6.0860   -4.8060   28.8630 C   0  0  0  0  0  0  0  0  0  0  0  0
    5.3210   -3.6880   28.5990 C   0  0  1  0  0  0  0  0  0  0  0  0
    5.2830   -2.5280   29.3730 C   0  0  0  0  0  0  0  0  0  0  0  0
    4.4770   -3.7060   27.5130 C   0  0  0  0  0  0  0  0  0  0  0  0
    7.1120   -2.9290   23.7660 C   0  0  0  0  0  0  0  0  0  0  0  0
    7.5870   -3.2630   22.3710 C   0  0  0  0  0  0  0  0  0  0  0  0
  1  2  1  0
  2  3  2  0
  2  4  1  0
  4  5  1  0
  5  6  1  0
  6  7  1  0
  7  8  1  0
  8  9  2  0
  8 10  1  0
 10 11  1  0
 12 11  1  6
 12 13  1  0
 12 14  1  0
 13 14  1  0
 14 15  1  1
 10 16  1  0
 14 16  1  0
  7 17  1  0
  4 18  1  0
 17 18  1  0
M  END
