piperidine-amides-30406-covalent
     RDKit          3D

 27 30  0  0  0  0  0  0  0  0999 V2000
    7.1640   -3.2790   19.2060 C   0  0  0  0  0  0  0  0  0  0  0  0
    6.3550   -3.9770   20.1990 C   0  0  0  0  0  0  0  0  0  0  0  0
    5.2640   -4.4690   19.8590 O   0  0  0  0  0  0  0  0  0  0  0  0
    6.8240   -4.1550   21.5070 N   0  0  0  0  0  0  0  0  0  0  0  0
    6.5840   -5.3870   22.2250 C   0  0  0  0  0  0  0  0  0  0  0  0
    6.0310   -4.9940   23.5670 C   0  0  0  0  0  0  0  0  0  0  0  0
    5.9880   -3.5020   23.7510 C   0  0  0  0  0  0  0  0  0  0  0  0
    5.6520   -3.1020   25.1290 C   0  0  0  0  0  0  0  0  0  0  0  0
    5.0300   -2.0260   25.3650 O   0  0  0  0  0  0  0  0  0  0  0  0
    5.9860   -3.9010   26.2260 N   0  0  0  0  0  0  0  0  0  0  0  0
    5.7430   -5.3320   26.1490 C   0  0  0  0  0  0  0  0  0  0  0  0
    5.7660   -5.6300   27.5630 C   0  0  2  0  0  0  0  0  0  0  0  0
    4.9560   -6.7550   28.1030 C   0  0  0  0  0  0  0  0  0  0  0  0
    5.3460   -6.8110   29.2900 O   0  0  0  0  0  0  0  0  0  0  0  0
    4.9000   -5.7590   30.0880 C   0  0  0  0  0  0  0  0  0  0  0  0
    5.6100   -4.5040   29.6380 C   0  0  0  0  0  0  0  0  0  0  0  0
    5.3790   -4.3360   28.2330 C   0  0  2  0  0  0  0  0  0  0  0  0
    4.2430   -4.8880   27.6430 C   0  0  0  0  0  0  0  0  0  0  0  0
    4.0880   -5.5410   26.5910 O   0  0  0  0  0  0  0  0  0  0  0  0
    2.9510   -4.6290   28.3100 N   0  0  0  0  0  0  0  0  0  0  0  0
    2.1410   -5.8280   28.3830 C   0  0  0  0  0  0  0  0  0  0  0  0
    2.3640   -3.4160   28.2000 C   0  0  0  0  0  0  0  0  0  0  0  0
    1.7650   -2.8160   29.2870 C   0  0  0  0  0  0  0  0  0  0  0  0
    0.7490   -3.2050   28.1870 C   0  0  0  0  0  0  0  0  0  0  0  0
    5.9490   -3.2770   27.5380 C   0  0  0  0  0  0  0  0  0  0  0  0
    7.2080   -2.7960   23.3520 C   0  0  0  0  0  0  0  0  0  0  0  0
    7.6790   -3.1900   22.1300 C   0  0  0  0  0  0  0  0  0  0  0  0
  1  2  1  0
  2  3  2  0
  2  4  1  0
  4  5  1  0
  5  6  1  0
  6  7  1  0
  7  8  1  0
  8  9  2  0
  8 10  1  0
 10 11  1  0
 12 11  1  6
 12 13  1  0
 13 14  1  0
 14 15  1  0
 15 16  1  0
 12 17  1  0
 16 17  1  0
 17 18  1  1
 18 19  2  0
 18 20  1  0
 20 21  1  0
 20 22  1  0
 22 23  1  0
 22 24  1  0
 23 24  1  0
 10 25  1  0
 17 25  1  0
  7 26  1  0
  4 27  1  0
 26 27  1  0
M  END
