piperidine-amides-694-covalent
     RDKit          3D

 25 27  0  0  0  0  0  0  0  0999 V2000
    6.9880   -3.3480   19.4900 C   0  0  0  0  0  0  0  0  0  0  0  0
    6.2800   -4.2180   20.4170 C   0  0  0  0  0  0  0  0  0  0  0  0
    5.3430   -4.9400   19.9720 O   0  0  0  0  0  0  0  0  0  0  0  0
    6.5790   -4.3270   21.7870 N   0  0  0  0  0  0  0  0  0  0  0  0
    6.4750   -5.6850   22.3720 C   0  0  0  0  0  0  0  0  0  0  0  0
    6.0080   -5.3910   23.8570 C   0  0  0  0  0  0  0  0  0  0  0  0
    5.6970   -3.9190   23.9450 C   0  0  0  0  0  0  0  0  0  0  0  0
    5.0060   -3.5060   25.3470 C   0  0  0  0  0  0  0  0  0  0  0  0
    3.9800   -4.1220   25.5690 O   0  0  0  0  0  0  0  0  0  0  0  0
    5.7570   -2.6190   25.8240 N   0  0  0  0  0  0  0  0  0  0  0  0
    6.7210   -1.7250   26.0230 C   0  0  0  0  0  0  0  0  0  0  0  0
    7.8050   -1.7500   25.1810 C   0  0  0  0  0  0  0  0  0  0  0  0
    8.7630   -2.7630   25.2510 C   0  0  0  0  0  0  0  0  0  0  0  0
    9.9550   -2.9590   24.4160 C   0  0  0  0  0  0  0  0  0  0  0  0
   10.1360   -1.8630   23.3340 C   0  0  0  0  0  0  0  0  0  0  0  0
   11.6230   -1.8370   22.1140 Br  0  0  0  0  0  0  0  0  0  0  0  0
    9.0930   -0.9190   23.3720 C   0  0  0  0  0  0  0  0  0  0  0  0
    7.9410   -0.7260   24.1520 N   0  0  0  0  0  0  0  0  0  0  0  0
    7.6110   -2.0250   27.2600 C   0  0  0  0  0  0  0  0  0  0  0  0
    6.9250   -0.9750   28.1540 C   0  0  0  0  0  0  0  0  0  0  0  0
    5.7140   -1.2330   28.1070 O   0  0  0  0  0  0  0  0  0  0  0  0
    5.1460   -0.5810   27.0240 C   0  0  0  0  0  0  0  0  0  0  0  0
    6.1620   -0.2690   26.1530 C   0  0  0  0  0  0  0  0  0  0  0  0
    6.8530   -3.0010   23.5620 C   0  0  0  0  0  0  0  0  0  0  0  0
    7.4530   -3.3680   22.4010 C   0  0  0  0  0  0  0  0  0  0  0  0
  1  2  1  0
  2  3  2  0
  2  4  1  0
  4  5  1  0
  5  6  1  0
  6  7  1  0
  7  8  1  0
  8  9  2  0
  8 10  1  0
 11 10  1  0
 11 12  1  0
 12 13  2  0
 13 14  1  0
 14 15  2  0
 15 16  1  0
 15 17  1  0
 12 18  1  0
 17 18  2  0
 11 19  1  0
 19 20  1  0
 20 21  1  0
 21 22  1  0
 11 23  1  0
 22 23  1  0
  7 24  1  0
  4 25  1  0
 24 25  1  0
M  END
