piperidine-amides-1125-covalent
     RDKit          3D

 23 25  0  0  0  0  0  0  0  0999 V2000
    7.0450   -3.3170   19.3240 C   0  0  0  0  0  0  0  0  0  0  0  0
    6.3440   -4.1620   20.3320 C   0  0  0  0  0  0  0  0  0  0  0  0
    5.3660   -4.8410   19.9770 O   0  0  0  0  0  0  0  0  0  0  0  0
    6.8360   -4.1980   21.6560 N   0  0  0  0  0  0  0  0  0  0  0  0
    7.7180   -3.1670   22.1780 C   0  0  0  0  0  0  0  0  0  0  0  0
    7.4970   -3.0470   23.6850 C   0  0  0  0  0  0  0  0  0  0  0  0
    6.1420   -3.5770   23.9620 C   0  0  0  0  0  0  0  0  0  0  0  0
    5.6410   -3.2050   25.3010 C   0  0  0  0  0  0  0  0  0  0  0  0
    4.4200   -3.2550   25.4730 O   0  0  0  0  0  0  0  0  0  0  0  0
    6.5520   -2.8140   26.2820 N   0  0  0  0  0  0  0  0  0  0  0  0
    6.5070   -1.6500   27.0940 C   0  0  0  0  0  0  0  0  0  0  0  0
    6.9770   -1.5960   28.3980 C   0  0  0  0  0  0  0  0  0  0  0  0
    6.9350   -0.4440   29.2140 C   0  0  0  0  0  0  0  0  0  0  0  0
    6.4050    0.7360   28.7450 C   0  0  0  0  0  0  0  0  0  0  0  0
    5.8890    0.7710   27.3830 C   0  0  0  0  0  0  0  0  0  0  0  0
    5.9510   -0.4890   26.5340 C   0  0  0  0  0  0  0  0  0  0  0  0
    5.3760    1.9320   26.9350 C   0  0  0  0  0  0  0  0  0  0  0  0
    5.3110    2.8700   28.4440 S   0  0  0  0  0  0  0  0  0  0  0  0
    5.8550    4.2720   28.2380 O   0  0  0  0  0  0  0  0  0  0  0  0
    3.8860    2.9060   28.8930 O   0  0  0  0  0  0  0  0  0  0  0  0
    6.3580    1.8460   29.5230 C   0  0  0  0  0  0  0  0  0  0  0  0
    6.0360   -5.0470   23.7620 C   0  0  0  0  0  0  0  0  0  0  0  0
    6.6540   -5.4170   22.4230 C   0  0  0  0  0  0  0  0  0  0  0  0
  1  2  1  0
  2  3  2  0
  2  4  1  0
  4  5  1  0
  5  6  1  0
  6  7  1  0
  7  8  1  0
  8  9  2  0
  8 10  1  0
 10 11  1  0
 11 12  2  0
 12 13  1  0
 13 14  2  0
 14 15  1  0
 11 16  1  0
 15 16  2  0
 15 17  1  0
 18 17  1  0
 18 19  2  0
 18 20  2  0
 14 21  1  0
 18 21  1  0
  7 22  1  0
  4 23  1  0
 22 23  1  0
M  END
