piperidine-amides-15265-covalent
     RDKit          3D

 17 17  0  0  0  0  0  0  0  0999 V2000
    7.0720   -3.2730   19.3010 C   0  0  0  0  0  0  0  0  0  0  0  0
    6.3200   -4.0690   20.2910 C   0  0  0  0  0  0  0  0  0  0  0  0
    5.3130   -4.7170   19.9380 O   0  0  0  0  0  0  0  0  0  0  0  0
    6.7340   -4.1440   21.6310 N   0  0  0  0  0  0  0  0  0  0  0  0
    6.6240   -5.4140   22.3220 C   0  0  0  0  0  0  0  0  0  0  0  0
    6.0030   -5.1500   23.6990 C   0  0  0  0  0  0  0  0  0  0  0  0
    5.9710   -3.6510   23.8730 C   0  0  0  0  0  0  0  0  0  0  0  0
    5.5480   -3.3060   25.2450 C   0  0  0  0  0  0  0  0  0  0  0  0
    4.3640   -2.9540   25.4300 O   0  0  0  0  0  0  0  0  0  0  0  0
    6.4740   -3.3750   26.3070 N   0  0  0  0  0  0  0  0  0  0  0  0
    6.0790   -3.8150   27.6210 C   0  0  0  0  0  0  0  0  0  0  0  0
    5.9060   -5.3320   27.6710 C   0  0  0  0  0  0  0  0  0  0  0  0
    4.7060   -5.9430   27.8710 C   0  0  0  0  0  0  0  0  0  0  0  0
    6.8480   -5.8580   28.7330 C   0  0  0  0  0  0  0  0  0  0  0  0
    6.2690   -5.8720   26.4220 O   0  0  0  0  0  0  0  0  0  0  0  0
    7.2790   -2.9960   23.5560 C   0  0  0  0  0  0  0  0  0  0  0  0
    7.5920   -3.1260   22.2230 C   0  0  0  0  0  0  0  0  0  0  0  0
  1  2  1  0
  2  3  2  0
  2  4  1  0
  4  5  1  0
  5  6  1  0
  6  7  1  0
  7  8  1  0
  8  9  2  0
  8 10  1  0
 10 11  1  0
 11 12  1  0
 12 13  1  0
 12 14  1  0
 12 15  1  0
  7 16  1  0
  4 17  1  0
 16 17  1  0
M  END
