piperidine-amides-3147-covalent
     RDKit          3D

 23 25  0  0  0  0  0  0  0  0999 V2000
    7.0810   -3.3260   19.3130 C   0  0  0  0  0  0  0  0  0  0  0  0
    6.3790   -4.1650   20.2770 C   0  0  0  0  0  0  0  0  0  0  0  0
    5.3480   -4.7510   19.9530 O   0  0  0  0  0  0  0  0  0  0  0  0
    6.9240   -4.3520   21.5870 N   0  0  0  0  0  0  0  0  0  0  0  0
    7.6370   -3.2600   22.2060 C   0  0  0  0  0  0  0  0  0  0  0  0
    6.8370   -2.6900   23.3440 C   0  0  0  0  0  0  0  0  0  0  0  0
    6.4840   -3.8360   24.2660 C   0  0  0  0  0  0  0  0  0  0  0  0
    5.7310   -3.3430   25.4570 C   0  0  0  0  0  0  0  0  0  0  0  0
    4.4890   -3.1890   25.4850 O   0  0  0  0  0  0  0  0  0  0  0  0
    6.4760   -3.0580   26.6170 N   0  0  0  0  0  0  0  0  0  0  0  0
    6.4420   -1.7570   27.2410 C   0  0  0  0  0  0  0  0  0  0  0  0
    7.0480   -1.5350   28.5900 C   0  0  0  0  0  0  0  0  0  0  0  0
    7.0120   -0.3070   29.1890 C   0  0  0  0  0  0  0  0  0  0  0  0
    6.3950    0.7670   28.5300 C   0  0  0  0  0  0  0  0  0  0  0  0
    5.7910    0.7180   27.2720 C   0  0  0  0  0  0  0  0  0  0  0  0
    5.7950   -0.5670   26.5730 C   0  0  0  0  0  0  0  0  0  0  0  0
    5.2850    1.7810   26.8220 O   0  0  0  0  0  0  0  0  0  0  0  0
    4.4400    2.3790   27.7720 C   0  0  0  0  0  0  0  0  0  0  0  0
    5.3000    2.8950   28.7150 C   0  0  0  0  0  0  0  0  0  0  0  0
    5.1840    4.0460   29.2040 O   0  0  0  0  0  0  0  0  0  0  0  0
    6.3250    2.0430   29.1040 N   0  0  0  0  0  0  0  0  0  0  0  0
    5.8490   -5.0140   23.6300 C   0  0  0  0  0  0  0  0  0  0  0  0
    6.4400   -5.4350   22.3620 C   0  0  0  0  0  0  0  0  0  0  0  0
  1  2  1  0
  2  3  2  0
  2  4  1  0
  4  5  1  0
  5  6  1  0
  6  7  1  0
  7  8  1  0
  8  9  2  0
  8 10  1  0
 10 11  1  0
 11 12  2  0
 12 13  1  0
 13 14  2  0
 14 15  1  0
 11 16  1  0
 15 16  2  0
 15 17  1  0
 17 18  1  0
 18 19  1  0
 19 20  2  0
 14 21  1  0
 19 21  1  0
  7 22  1  0
  4 23  1  0
 22 23  1  0
M  END
