piperidine-amides-29555-covalent
     RDKit          3D

 26 26  0  0  0  0  0  0  0  0999 V2000
    7.0510   -3.3050   19.2590 C   0  0  0  0  0  0  0  0  0  0  0  0
    6.3230   -4.0780   20.2610 C   0  0  0  0  0  0  0  0  0  0  0  0
    5.3030   -4.6800   19.9330 O   0  0  0  0  0  0  0  0  0  0  0  0
    6.8070   -4.1900   21.6150 N   0  0  0  0  0  0  0  0  0  0  0  0
    7.6490   -3.1570   22.1850 C   0  0  0  0  0  0  0  0  0  0  0  0
    7.3430   -2.9380   23.6450 C   0  0  0  0  0  0  0  0  0  0  0  0
    6.0420   -3.6540   23.9520 C   0  0  0  0  0  0  0  0  0  0  0  0
    5.5300   -3.3920   25.3360 C   0  0  0  0  0  0  0  0  0  0  0  0
    4.3130   -3.4020   25.5860 O   0  0  0  0  0  0  0  0  0  0  0  0
    6.4310   -3.0890   26.3880 N   0  0  0  0  0  0  0  0  0  0  0  0
    6.9000   -1.7250   26.3420 C   0  0  0  0  0  0  0  0  0  0  0  0
    6.2140   -3.6980   27.7030 C   0  0  0  0  0  0  0  0  0  0  0  0
    5.7540   -4.9970   27.9430 C   0  0  0  0  0  0  0  0  0  0  0  0
    6.6390   -5.9260   28.5000 C   0  0  0  0  0  0  0  0  0  0  0  0
    5.4450   -5.6370   26.5630 C   0  0  0  0  0  0  0  0  0  0  0  0
    4.4230   -5.1130   28.6590 C   0  0  0  0  0  0  0  0  0  0  0  0
    3.9620   -6.3360   28.9680 N   0  0  0  0  0  0  0  0  0  0  0  0
    2.9390   -6.6130   29.9500 C   0  0  0  0  0  0  0  0  0  0  0  0
    2.7890   -5.8240   30.9840 O   0  0  0  0  0  0  0  0  0  0  0  0
    2.0950   -7.7090   29.8200 O   0  0  0  0  0  0  0  0  0  0  0  0
    1.3000   -8.1000   30.9220 C   0  0  0  0  0  0  0  0  0  0  0  0
    2.1140   -8.5760   31.9520 C   0  0  0  0  0  0  0  0  0  0  0  0
    1.0320   -9.4570   31.4150 C   0  0  0  0  0  0  0  0  0  0  0  0
    0.4910   -7.1280   31.4260 C   0  0  0  0  0  0  0  0  0  0  0  0
    6.1960   -5.1280   23.7140 C   0  0  0  0  0  0  0  0  0  0  0  0
    6.5580   -5.4150   22.2960 C   0  0  0  0  0  0  0  0  0  0  0  0
  1  2  1  0
  2  3  2  0
  2  4  1  0
  4  5  1  0
  5  6  1  0
  6  7  1  0
  7  8  1  0
  8  9  2  0
  8 10  1  0
 10 11  1  0
 10 12  1  0
 13 12  1  0
 13 14  1  0
 13 15  1  0
 13 16  1  0
 16 17  1  0
 17 18  1  0
 18 19  2  0
 18 20  1  0
 21 20  1  0
 21 22  1  0
 21 23  1  0
 21 24  1  0
  7 25  1  0
  4 26  1  0
 25 26  1  0
M  END
