piperidine-amides-29119-covalent
     RDKit          3D

 25 27  0  0  0  0  0  0  0  0999 V2000
    7.0550   -3.3870   19.3970 C   0  0  0  0  0  0  0  0  0  0  0  0
    6.3610   -4.2410   20.3600 C   0  0  0  0  0  0  0  0  0  0  0  0
    5.3460   -4.8400   19.9760 O   0  0  0  0  0  0  0  0  0  0  0  0
    6.8820   -4.4170   21.6710 N   0  0  0  0  0  0  0  0  0  0  0  0
    6.4870   -5.5630   22.4310 C   0  0  0  0  0  0  0  0  0  0  0  0
    5.6580   -5.1160   23.6070 C   0  0  0  0  0  0  0  0  0  0  0  0
    6.3630   -3.9520   24.2910 C   0  0  0  0  0  0  0  0  0  0  0  0
    5.4220   -3.2970   25.2860 C   0  0  0  0  0  0  0  0  0  0  0  0
    4.3930   -2.8550   24.7920 O   0  0  0  0  0  0  0  0  0  0  0  0
    5.7020   -3.2110   26.6630 N   0  0  0  0  0  0  0  0  0  0  0  0
    4.6640   -3.4170   27.6080 C   0  0  0  0  0  0  0  0  0  0  0  0
    5.0400   -4.2140   28.6710 C   0  0  0  0  0  0  0  0  0  0  0  0
    6.6090   -4.8060   28.7310 S   0  0  0  0  0  0  0  0  0  0  0  0
    6.7840   -5.9080   27.7160 O   0  0  0  0  0  0  0  0  0  0  0  0
    7.3460   -3.2910   28.2320 C   0  0  0  0  0  0  0  0  0  0  0  0
    6.9630   -2.6340   27.0410 C   0  0  1  0  0  0  0  0  0  0  0  0
    7.9630   -3.1400   26.1590 C   0  0  0  0  0  0  0  0  0  0  0  0
    8.6820   -2.6770   24.9320 C   0  0  0  0  0  0  0  0  0  0  0  0
    9.5740   -3.6950   24.5390 N   0  0  0  0  0  0  0  0  0  0  0  0
    9.3730   -4.6560   25.4950 N   0  0  0  0  0  0  0  0  0  0  0  0
    9.7500   -5.8850   25.9490 C   0  0  0  0  0  0  0  0  0  0  0  0
    9.2710   -5.9640   27.3630 C   0  0  0  0  0  0  0  0  0  0  0  0
    8.4750   -4.3480   26.3840 C   0  0  0  0  0  0  0  0  0  0  0  0
    6.6660   -2.8750   23.2540 C   0  0  0  0  0  0  0  0  0  0  0  0
    7.5890   -3.3770   22.3620 C   0  0  0  0  0  0  0  0  0  0  0  0
  1  2  1  0
  2  3  2  0
  2  4  1  0
  4  5  1  0
  5  6  1  0
  6  7  1  0
  7  8  1  0
  8  9  2  0
  8 10  1  0
 10 11  1  0
 11 12  1  0
 13 12  1  6
 13 14  2  0
 13 15  1  0
 10 16  1  0
 15 16  1  0
 16 17  1  6
 17 18  1  0
 18 19  2  0
 19 20  1  0
 20 21  1  0
 21 22  1  0
 17 23  2  0
 20 23  1  0
  7 24  1  0
  4 25  1  0
 24 25  1  0
M  END
