piperidine-amides-11290-covalent
     RDKit          3D

 18 18  0  0  0  0  0  0  0  0999 V2000
    7.0940   -3.2870   19.2680 C   0  0  0  0  0  0  0  0  0  0  0  0
    6.3440   -4.0760   20.2510 C   0  0  0  0  0  0  0  0  0  0  0  0
    5.2750   -4.5950   19.9020 O   0  0  0  0  0  0  0  0  0  0  0  0
    6.8220   -4.3200   21.5480 N   0  0  0  0  0  0  0  0  0  0  0  0
    6.5850   -5.5550   22.2490 C   0  0  0  0  0  0  0  0  0  0  0  0
    6.5180   -5.1780   23.7040 C   0  0  0  0  0  0  0  0  0  0  0  0
    5.9230   -3.8160   23.9150 C   0  0  0  0  0  0  0  0  0  0  0  0
    5.7040   -3.4910   25.3400 C   0  0  0  0  0  0  0  0  0  0  0  0
    4.5880   -3.0230   25.7140 O   0  0  0  0  0  0  0  0  0  0  0  0
    6.6950   -3.6690   26.3270 N   0  0  0  0  0  0  0  0  0  0  0  0
    6.7330   -4.8550   27.2310 C   0  0  1  0  0  0  0  0  0  0  0  0
    7.8320   -5.7580   26.8570 C   0  0  0  0  0  0  0  0  0  0  0  0
    7.0290   -4.4170   28.6570 C   0  0  0  0  0  0  0  0  0  0  0  0
    6.1920   -3.1650   28.7110 C   0  0  0  0  0  0  0  0  0  0  0  0
    5.6630   -5.7270   27.4830 C   0  0  0  0  0  0  0  0  0  0  0  0
    5.9870   -6.5220   28.6990 C   0  0  0  0  0  0  0  0  0  0  0  0
    6.7670   -2.7560   23.2330 C   0  0  0  0  0  0  0  0  0  0  0  0
    7.5760   -3.2930   22.2340 C   0  0  0  0  0  0  0  0  0  0  0  0
  1  2  1  0
  2  3  2  0
  2  4  1  0
  4  5  1  0
  5  6  1  0
  6  7  1  0
  7  8  1  0
  8  9  2  0
  8 10  1  0
 10 11  1  0
 11 12  1  6
 11 13  1  0
 13 14  3  0
 11 15  1  0
 15 16  1  0
  7 17  1  0
  4 18  1  0
 17 18  1  0
M  END
