piperidine-amides-35415-covalent
     RDKit          3D

 30 32  0  0  0  0  0  0  0  0999 V2000
    6.9600   -3.3910   19.4450 C   0  0  0  0  0  0  0  0  0  0  0  0
    6.3490   -4.3040   20.4570 C   0  0  0  0  0  0  0  0  0  0  0  0
    5.4430   -5.0230   20.0230 O   0  0  0  0  0  0  0  0  0  0  0  0
    6.8050   -4.3510   21.7990 N   0  0  0  0  0  0  0  0  0  0  0  0
    6.6910   -5.5630   22.6010 C   0  0  0  0  0  0  0  0  0  0  0  0
    6.1950   -5.2800   24.0140 C   0  0  0  0  0  0  0  0  0  0  0  0
    6.2160   -3.7780   24.2390 C   0  0  0  0  0  0  0  0  0  0  0  0
    5.5300   -3.2720   25.4910 C   0  0  0  0  0  0  0  0  0  0  0  0
    4.7390   -2.3400   25.2230 O   0  0  0  0  0  0  0  0  0  0  0  0
    5.5940   -3.6640   26.9280 N   0  0  0  0  0  0  0  0  0  0  0  0
    4.4880   -2.8850   27.5690 C   0  0  0  0  0  0  0  0  0  0  0  0
    4.0660   -3.5170   28.8740 C   0  0  0  0  0  0  0  0  0  0  0  0
    4.5310   -4.8130   28.5920 N   0  0  0  0  0  0  0  0  0  0  0  0
    3.3410   -5.6810   28.4530 C   0  0  0  0  0  0  0  0  0  0  0  0
    2.4450   -5.5110   27.5760 O   0  0  0  0  0  0  0  0  0  0  0  0
    3.1510   -6.7290   29.3110 O   0  0  0  0  0  0  0  0  0  0  0  0
    2.8590   -6.5670   30.6970 C   0  0  0  0  0  0  0  0  0  0  0  0
    4.0800   -6.2650   31.2450 C   0  0  0  0  0  0  0  0  0  0  0  0
    3.1950   -5.2900   31.2900 C   0  0  0  0  0  0  0  0  0  0  0  0
    2.9260   -7.7230   31.6050 C   0  0  0  0  0  0  0  0  0  0  0  0
    5.6220   -4.8360   27.6650 C   0  0  0  0  0  0  0  0  0  0  0  0
    6.7800   -4.3930   28.4470 C   0  0  0  0  0  0  0  0  0  0  0  0
    5.9830   -5.5760   28.4710 C   0  0  0  0  0  0  0  0  0  0  0  0
    6.0550   -7.1240   29.5780 Br  0  0  0  0  0  0  0  0  0  0  0  0
    4.9650   -5.2930   27.2990 C   0  0  0  0  0  0  0  0  0  0  0  0
    4.9500   -3.9630   26.4350 C   0  0  0  0  0  0  0  0  0  0  0  0
    5.9980   -2.8100   26.7010 C   0  0  0  0  0  0  0  0  0  0  0  0
    6.7380   -3.2560   27.6740 C   0  0  0  0  0  0  0  0  0  0  0  0
    7.5520   -3.2440   23.8530 C   0  0  0  0  0  0  0  0  0  0  0  0
    7.6820   -3.2670   22.3200 C   0  0  0  0  0  0  0  0  0  0  0  0
  1  2  1  0
  2  3  2  0
  2  4  1  0
  4  5  1  0
  5  6  1  0
  6  7  1  0
  7  8  1  0
  8  9  2  0
  8 10  1  0
 10 11  1  0
 11 12  1  0
 12 13  1  0
 13 14  1  0
 14 15  2  0
 14 16  1  0
 17 16  1  0
 17 18  1  0
 17 19  1  0
 17 20  1  0
 13 21  1  0
 21 22  1  0
 22 23  1  0
 23 24  1  0
 23 25  2  0
 25 26  1  0
 26 27  2  0
 10 28  1  0
 22 28  2  0
 27 28  1  0
  7 29  1  0
  4 30  1  0
 29 30  1  0
M  END
