piperidine-amides-34357-covalent
     RDKit          3D

 30 33  0  0  0  0  0  0  0  0999 V2000
    7.0970   -3.3310   19.3620 C   0  0  0  0  0  0  0  0  0  0  0  0
    6.4210   -4.2130   20.3200 C   0  0  0  0  0  0  0  0  0  0  0  0
    5.3830   -4.8260   19.9830 O   0  0  0  0  0  0  0  0  0  0  0  0
    6.9670   -4.4220   21.5980 N   0  0  0  0  0  0  0  0  0  0  0  0
    6.5320   -5.5630   22.3510 C   0  0  0  0  0  0  0  0  0  0  0  0
    5.5590   -4.9990   23.3870 C   0  0  0  0  0  0  0  0  0  0  0  0
    6.3350   -4.0210   24.2510 C   0  0  0  0  0  0  0  0  0  0  0  0
    5.4220   -3.4600   25.2750 C   0  0  0  0  0  0  0  0  0  0  0  0
    4.5240   -2.6980   24.8790 O   0  0  0  0  0  0  0  0  0  0  0  0
    5.5570   -3.7660   26.6490 N   0  0  0  0  0  0  0  0  0  0  0  0
    6.4810   -3.0860   27.4120 C   0  0  0  0  0  0  0  0  0  0  0  0
    6.7900   -4.1340   28.4440 C   0  0  0  0  0  0  0  0  0  0  0  0
    5.8190   -4.3400   29.3180 C   0  0  0  0  0  0  0  0  0  0  0  0
    4.5690   -4.4800   28.7650 C   0  0  2  0  0  0  0  0  0  0  0  0
    3.9290   -5.7000   28.9710 C   0  0  0  0  0  0  0  0  0  0  0  0
    4.5170   -6.6700   28.2100 N   0  0  0  0  0  0  0  0  0  0  0  0
    3.7650   -7.7150   28.5470 N   0  0  0  0  0  0  0  0  0  0  0  0
    2.7410   -7.3830   29.4970 C   0  0  0  0  0  0  0  0  0  0  0  0
    2.8640   -6.0480   29.7710 N   0  0  0  0  0  0  0  0  0  0  0  0
    2.0080   -5.3640   30.6870 C   0  0  0  0  0  0  0  0  0  0  0  0
    1.8710   -6.3730   31.8090 C   0  0  1  0  0  0  0  0  0  0  0  0
    0.5520   -7.0840   31.9750 C   0  0  0  0  0  0  0  0  0  0  0  0
    0.5780   -8.3790   32.3410 F   0  0  0  0  0  0  0  0  0  0  0  0
   -0.3240   -7.0120   30.9540 F   0  0  0  0  0  0  0  0  0  0  0  0
   -0.0960   -6.4410   33.0110 F   0  0  0  0  0  0  0  0  0  0  0  0
    1.8580   -7.8890   31.4830 C   0  0  0  0  0  0  0  0  0  0  0  0
    1.7430   -8.1880   30.0980 C   0  0  0  0  0  0  0  0  0  0  0  0
    4.3950   -4.0560   27.4410 C   0  0  0  0  0  0  0  0  0  0  0  0
    6.9050   -2.8560   23.4580 C   0  0  0  0  0  0  0  0  0  0  0  0
    7.6780   -3.3570   22.2630 C   0  0  0  0  0  0  0  0  0  0  0  0
  1  2  1  0
  2  3  2  0
  2  4  1  0
  4  5  1  0
  5  6  1  0
  6  7  1  0
  7  8  1  0
  8  9  2  0
  8 10  1  0
 10 11  1  0
 11 12  1  0
 12 13  1  0
 13 14  1  0
 14 15  1  6
 15 16  2  0
 16 17  1  0
 17 18  2  0
 15 19  1  0
 18 19  1  0
 19 20  1  0
 20 21  1  0
 21 22  1  6
 22 23  1  0
 22 24  1  0
 22 25  1  0
 21 26  1  0
 18 27  1  0
 26 27  1  0
 10 28  1  0
 14 28  1  0
  7 29  1  0
  4 30  1  0
 29 30  1  0
M  END
