piperidine-amides-8802-covalent
     RDKit          3D

 23 24  0  0  0  0  0  0  0  0999 V2000
    7.0570   -3.2990   19.2630 C   0  0  0  0  0  0  0  0  0  0  0  0
    6.3650   -4.0870   20.2850 C   0  0  0  0  0  0  0  0  0  0  0  0
    5.3520   -4.7220   19.9440 O   0  0  0  0  0  0  0  0  0  0  0  0
    6.8550   -4.1580   21.6170 N   0  0  0  0  0  0  0  0  0  0  0  0
    7.7450   -3.1280   22.1110 C   0  0  0  0  0  0  0  0  0  0  0  0
    7.4240   -2.8040   23.5350 C   0  0  0  0  0  0  0  0  0  0  0  0
    6.1170   -3.4940   23.8090 C   0  0  0  0  0  0  0  0  0  0  0  0
    5.6420   -3.1960   25.1980 C   0  0  0  0  0  0  0  0  0  0  0  0
    4.4460   -2.9400   25.3130 O   0  0  0  0  0  0  0  0  0  0  0  0
    6.5540   -3.2210   26.2440 N   0  0  0  0  0  0  0  0  0  0  0  0
    6.3670   -4.0560   27.3830 C   0  0  0  0  0  0  0  0  0  0  0  0
    5.0560   -4.0590   27.8760 C   0  0  0  0  0  0  0  0  0  0  0  0
    4.9510   -4.0880   29.2450 C   0  0  0  0  0  0  0  0  0  0  0  0
    4.7680   -5.2790   29.9220 C   0  0  0  0  0  0  0  0  0  0  0  0
    4.2500   -6.3830   29.2420 N   0  0  0  0  0  0  0  0  0  0  0  0
    4.2540   -7.6770   29.9120 C   0  0  0  0  0  0  0  0  0  0  0  0
    4.0130   -7.5070   31.4310 C   0  0  0  0  0  0  0  0  0  0  0  0
    2.9480   -6.6860   31.7240 F   0  0  0  0  0  0  0  0  0  0  0  0
    5.1940   -7.0450   32.0450 F   0  0  0  0  0  0  0  0  0  0  0  0
    4.4700   -6.3780   27.8350 C   0  0  0  0  0  0  0  0  0  0  0  0
    4.2420   -5.0100   27.2500 C   0  0  0  0  0  0  0  0  0  0  0  0
    6.1000   -4.9530   23.6160 C   0  0  0  0  0  0  0  0  0  0  0  0
    6.6730   -5.3460   22.4250 C   0  0  0  0  0  0  0  0  0  0  0  0
  1  2  1  0
  2  3  2  0
  2  4  1  0
  4  5  1  0
  5  6  1  0
  6  7  1  0
  7  8  1  0
  8  9  2  0
  8 10  1  0
 10 11  1  0
 11 12  1  0
 12 13  1  0
 13 14  1  0
 14 15  1  0
 15 16  1  0
 16 17  1  0
 17 18  1  0
 17 19  1  0
 15 20  1  0
 12 21  1  0
 20 21  1  0
  7 22  1  0
  4 23  1  0
 22 23  1  0
M  END
