piperidine-amides-12839-covalent
     RDKit          3D

 23 25  0  0  0  0  0  0  0  0999 V2000
    7.0730   -3.3000   19.2360 C   0  0  0  0  0  0  0  0  0  0  0  0
    6.3450   -4.0860   20.2580 C   0  0  0  0  0  0  0  0  0  0  0  0
    5.2710   -4.5960   19.8990 O   0  0  0  0  0  0  0  0  0  0  0  0
    6.8750   -4.2920   21.5390 N   0  0  0  0  0  0  0  0  0  0  0  0
    7.5900   -3.2500   22.2080 C   0  0  0  0  0  0  0  0  0  0  0  0
    7.1260   -2.9270   23.5600 C   0  0  0  0  0  0  0  0  0  0  0  0
    6.4930   -4.0410   24.3040 C   0  0  0  0  0  0  0  0  0  0  0  0
    5.7130   -3.5380   25.4760 C   0  0  0  0  0  0  0  0  0  0  0  0
    4.5050   -3.2980   25.2880 O   0  0  0  0  0  0  0  0  0  0  0  0
    6.2750   -3.3390   26.7650 N   0  0  0  0  0  0  0  0  0  0  0  0
    6.3850   -2.0040   27.4150 C   0  0  0  0  0  0  0  0  0  0  0  0
    7.0860   -1.8640   28.6400 C   0  0  0  0  0  0  0  0  0  0  0  0
    7.1240   -0.5670   29.1740 C   0  0  0  0  0  0  0  0  0  0  0  0
    6.4940    0.4520   28.4720 C   0  0  0  0  0  0  0  0  0  0  0  0
    5.7520    0.5420   27.2420 C   0  0  0  0  0  0  0  0  0  0  0  0
    5.7890   -0.8560   26.8300 C   0  0  0  0  0  0  0  0  0  0  0  0
    5.1010   -1.2000   25.6320 O   0  0  0  0  0  0  0  0  0  0  0  0
    3.7250   -1.0220   25.6580 C   0  0  0  0  0  0  0  0  0  0  0  0
    3.7220    0.1890   26.1600 C   0  0  0  0  0  0  0  0  0  0  0  0
    5.1040    0.3570   26.0700 C   0  0  1  0  0  0  0  0  0  0  0  0
    5.2940    1.4870   25.3200 O   0  0  0  0  0  0  0  0  0  0  0  0
    5.7000   -4.9940   23.4990 C   0  0  0  0  0  0  0  0  0  0  0  0
    6.5210   -5.4580   22.3280 C   0  0  0  0  0  0  0  0  0  0  0  0
  1  2  1  0
  2  3  2  0
  2  4  1  0
  4  5  1  0
  5  6  1  0
  6  7  1  0
  7  8  1  0
  8  9  2  0
  8 10  1  0
 10 11  1  0
 11 12  2  0
 12 13  1  0
 13 14  2  0
 14 15  1  0
 11 16  1  0
 15 16  2  0
 16 17  1  0
 17 18  1  0
 18 19  1  0
 15 20  1  0
 19 20  1  0
 20 21  1  6
  7 22  1  0
  4 23  1  0
 22 23  1  0
M  END
