piperidine-amides-33516-covalent
     RDKit          3D

 25 26  0  0  0  0  0  0  0  0999 V2000
    7.1370   -3.3060   19.2210 C   0  0  0  0  0  0  0  0  0  0  0  0
    6.3600   -4.0320   20.2320 C   0  0  0  0  0  0  0  0  0  0  0  0
    5.2540   -4.4870   19.8650 O   0  0  0  0  0  0  0  0  0  0  0  0
    6.8740   -4.2700   21.5340 N   0  0  0  0  0  0  0  0  0  0  0  0
    6.3930   -5.3930   22.2460 C   0  0  0  0  0  0  0  0  0  0  0  0
    5.9480   -5.0720   23.5970 C   0  0  0  0  0  0  0  0  0  0  0  0
    6.6130   -3.9190   24.2480 C   0  0  0  0  0  0  0  0  0  0  0  0
    5.8090   -3.4610   25.4260 C   0  0  0  0  0  0  0  0  0  0  0  0
    4.5690   -3.3670   25.3180 O   0  0  0  0  0  0  0  0  0  0  0  0
    6.4040   -3.1170   26.6530 N   0  0  0  0  0  0  0  0  0  0  0  0
    6.5040   -3.9700   27.7940 C   0  0  0  0  0  0  0  0  0  0  0  0
    7.1470   -5.2900   27.7620 C   0  0  0  0  0  0  0  0  0  0  0  0
    7.1070   -5.9930   28.8180 O   0  0  0  0  0  0  0  0  0  0  0  0
    7.8040   -5.8250   26.6650 O   0  0  0  0  0  0  0  0  0  0  0  0
    9.1570   -6.2550   26.7800 C   0  0  0  0  0  0  0  0  0  0  0  0
    6.5700   -1.6980   26.8480 C   0  0  0  0  0  0  0  0  0  0  0  0
    6.3780   -1.2590   28.3020 C   0  0  0  0  0  0  0  0  0  0  0  0
    4.9040   -1.0610   28.4550 C   0  0  0  0  0  0  0  0  0  0  0  0
    4.6820   -0.6030   29.9250 C   0  0  0  0  0  0  0  0  0  0  0  0
    5.6500   -0.3590   31.0840 C   0  0  0  0  0  0  0  0  0  0  0  0
    5.1630    0.2130   32.8310 Br  0  0  0  0  0  0  0  0  0  0  0  0
    7.0950   -0.6230   30.7050 C   0  0  0  0  0  0  0  0  0  0  0  0
    7.4590   -1.0750   29.3120 C   0  0  0  0  0  0  0  0  0  0  0  0
    6.8560   -2.7970   23.2780 C   0  0  0  0  0  0  0  0  0  0  0  0
    7.6630   -3.2920   22.2560 C   0  0  0  0  0  0  0  0  0  0  0  0
  1  2  1  0
  2  3  2  0
  2  4  1  0
  4  5  1  0
  5  6  1  0
  6  7  1  0
  7  8  1  0
  8  9  2  0
  8 10  1  0
 10 11  1  0
 11 12  1  0
 12 13  2  0
 12 14  1  0
 14 15  1  0
 10 16  1  0
 16 17  1  0
 17 18  2  0
 18 19  1  0
 19 20  2  0
 20 21  1  0
 20 22  1  0
 17 23  1  0
 22 23  2  0
  7 24  1  0
  4 25  1  0
 24 25  1  0
M  END
