piperidine-amides-33686-covalent
     RDKit          3D

 27 29  0  0  0  0  0  0  0  0999 V2000
    7.0380   -3.3890   19.4660 C   0  0  0  0  0  0  0  0  0  0  0  0
    6.3550   -4.2490   20.4470 C   0  0  0  0  0  0  0  0  0  0  0  0
    5.3920   -4.9220   20.0000 O   0  0  0  0  0  0  0  0  0  0  0  0
    6.7730   -4.3660   21.8090 N   0  0  0  0  0  0  0  0  0  0  0  0
    7.6080   -3.3540   22.3740 C   0  0  0  0  0  0  0  0  0  0  0  0
    7.1620   -2.9720   23.6960 C   0  0  0  0  0  0  0  0  0  0  0  0
    5.9250   -3.6840   24.0390 C   0  0  0  0  0  0  0  0  0  0  0  0
    5.2020   -3.0970   25.2600 C   0  0  0  0  0  0  0  0  0  0  0  0
    4.5860   -2.0430   25.0700 O   0  0  0  0  0  0  0  0  0  0  0  0
    5.1400   -3.6140   26.5880 N   0  0  0  0  0  0  0  0  0  0  0  0
    4.3260   -3.1690   27.6320 C   0  0  0  0  0  0  0  0  0  0  0  0
    4.4880   -3.8020   28.9350 C   0  0  0  0  0  0  0  0  0  0  0  0
    5.5670   -4.4990   29.3070 N   0  0  0  0  0  0  0  0  0  0  0  0
    5.0090   -5.9750   29.8750 S   0  0  0  0  0  0  0  0  0  0  0  0
    4.5750   -6.8110   28.7060 O   0  0  0  0  0  0  0  0  0  0  0  0
    6.0460   -6.7020   30.6510 O   0  0  0  0  0  0  0  0  0  0  0  0
    3.6360   -5.5350   30.9090 C   0  0  0  0  0  0  0  0  0  0  0  0
    3.4980   -4.1940   31.2390 C   0  0  0  0  0  0  0  0  0  0  0  0
    2.2450   -4.3250   32.0930 C   0  0  0  0  0  0  0  0  0  0  0  0
    1.7850   -3.0150   32.6480 C   0  0  0  0  0  0  0  0  0  0  0  0
    1.5290   -5.8740   32.3240 S   0  0  0  0  0  0  0  0  0  0  0  0
    2.7270   -6.6130   31.3570 C   0  0  0  0  0  0  0  0  0  0  0  0
    3.0500   -8.0120   30.8900 C   0  0  0  0  0  0  0  0  0  0  0  0
    6.6140   -4.5270   28.4860 C   0  0  0  0  0  0  0  0  0  0  0  0
    6.3080   -4.2070   27.0110 C   0  0  0  0  0  0  0  0  0  0  0  0
    6.1470   -5.1670   23.9600 C   0  0  0  0  0  0  0  0  0  0  0  0
    6.4180   -5.5410   22.6070 C   0  0  0  0  0  0  0  0  0  0  0  0
  1  2  1  0
  2  3  2  0
  2  4  1  0
  4  5  1  0
  5  6  1  0
  6  7  1  0
  7  8  1  0
  8  9  2  0
  8 10  1  0
 10 11  1  0
 11 12  1  0
 12 13  1  0
 13 14  1  0
 14 15  2  0
 14 16  2  0
 14 17  1  0
 17 18  1  0
 18 19  2  0
 19 20  1  0
 19 21  1  0
 17 22  2  0
 21 22  1  0
 22 23  1  0
 13 24  1  0
 10 25  1  0
 24 25  1  0
  7 26  1  0
  4 27  1  0
 26 27  1  0
M  END
