piperidine-amides-6495-covalent
     RDKit          3D

 24 26  0  0  0  0  0  0  0  0999 V2000
    7.1390   -3.3050   19.3160 C   0  0  0  0  0  0  0  0  0  0  0  0
    6.3860   -4.1010   20.2890 C   0  0  0  0  0  0  0  0  0  0  0  0
    5.3330   -4.6830   19.9430 O   0  0  0  0  0  0  0  0  0  0  0  0
    6.8780   -4.2590   21.5940 N   0  0  0  0  0  0  0  0  0  0  0  0
    6.5060   -5.4180   22.3460 C   0  0  0  0  0  0  0  0  0  0  0  0
    5.6850   -4.8840   23.5240 C   0  0  0  0  0  0  0  0  0  0  0  0
    6.4850   -3.8000   24.2490 C   0  0  0  0  0  0  0  0  0  0  0  0
    5.5650   -3.1870   25.2290 C   0  0  0  0  0  0  0  0  0  0  0  0
    4.3880   -2.9950   24.8570 O   0  0  0  0  0  0  0  0  0  0  0  0
    5.9660   -2.8300   26.5400 N   0  0  0  0  0  0  0  0  0  0  0  0
    4.9600   -2.9450   27.5690 C   0  0  0  0  0  0  0  0  0  0  0  0
    5.0700   -1.8020   28.5800 C   0  0  0  0  0  0  0  0  0  0  0  0
    6.5340   -1.4730   29.3150 S   0  0  0  0  0  0  0  0  0  0  0  0
    7.3910   -2.7650   28.4730 C   0  0  0  0  0  0  0  0  0  0  0  0
    8.3400   -2.5020   27.5920 C   0  0  0  0  0  0  0  0  0  0  0  0
    8.8960   -3.5400   26.9910 C   0  0  0  0  0  0  0  0  0  0  0  0
    8.5470   -4.8120   27.2430 C   0  0  0  0  0  0  0  0  0  0  0  0
    9.4990   -6.0250   26.2370 Br  0  0  0  0  0  0  0  0  0  0  0  0
    7.5150   -5.3980   28.2000 C   0  0  0  0  0  0  0  0  0  0  0  0
    7.0100   -4.0580   28.7550 C   0  0  0  0  0  0  0  0  0  0  0  0
    3.9600   -1.5450   29.4630 C   0  0  0  0  0  0  0  0  0  0  0  0
    4.1340   -0.6640   28.5610 C   0  0  0  0  0  0  0  0  0  0  0  0
    6.9060   -2.6980   23.3020 C   0  0  0  0  0  0  0  0  0  0  0  0
    7.5780   -3.1930   22.2220 C   0  0  0  0  0  0  0  0  0  0  0  0
  1  2  1  0
  2  3  2  0
  2  4  1  0
  4  5  1  0
  5  6  1  0
  6  7  1  0
  7  8  1  0
  8  9  2  0
  8 10  1  0
 10 11  1  0
 11 12  1  0
 12 13  1  0
 13 14  1  0
 14 15  2  0
 15 16  1  0
 16 17  2  0
 17 18  1  0
 17 19  1  0
 14 20  1  0
 19 20  2  0
 12 21  1  0
 12 22  1  0
 21 22  1  0
  7 23  1  0
  4 24  1  0
 23 24  1  0
M  END
