piperidine-amides-32981-covalent
     RDKit          3D

 29 31  0  0  0  0  0  0  0  0999 V2000
    7.1290   -3.3110   19.2790 C   0  0  0  0  0  0  0  0  0  0  0  0
    6.3560   -4.0980   20.2790 C   0  0  0  0  0  0  0  0  0  0  0  0
    5.2910   -4.6230   19.9160 O   0  0  0  0  0  0  0  0  0  0  0  0
    6.8710   -4.2830   21.5870 N   0  0  0  0  0  0  0  0  0  0  0  0
    6.6160   -5.5130   22.3160 C   0  0  0  0  0  0  0  0  0  0  0  0
    6.1980   -5.1560   23.7580 C   0  0  0  0  0  0  0  0  0  0  0  0
    6.0230   -3.6790   23.7940 C   0  0  0  0  0  0  0  0  0  0  0  0
    5.5380   -3.0930   25.0580 C   0  0  0  0  0  0  0  0  0  0  0  0
    4.8400   -2.0880   24.9340 O   0  0  0  0  0  0  0  0  0  0  0  0
    5.8180   -3.6300   26.3100 N   0  0  0  0  0  0  0  0  0  0  0  0
    4.8000   -4.1740   27.1410 C   0  0  0  0  0  0  0  0  0  0  0  0
    5.0060   -4.8630   28.3140 C   0  0  0  0  0  0  0  0  0  0  0  0
    5.7060   -4.2280   29.3140 C   0  0  0  0  0  0  0  0  0  0  0  0
    5.2250   -3.0460   29.8310 C   0  0  0  0  0  0  0  0  0  0  0  0
    5.8590   -1.9000   30.0300 O   0  0  0  0  0  0  0  0  0  0  0  0
    3.9210   -3.0210   30.1990 N   0  0  0  0  0  0  0  0  0  0  0  0
    3.5670   -2.2390   31.2360 C   0  0  0  0  0  0  0  0  0  0  0  0
    2.8940   -2.9540   32.4150 C   0  0  0  0  0  0  0  0  0  0  0  0
    2.7460   -1.9040   33.5180 C   0  0  0  0  0  0  0  0  0  0  0  0
    3.6090   -1.9310   34.5370 C   0  0  0  0  0  0  0  0  0  0  0  0
    3.6270   -1.0230   35.6720 C   0  0  0  0  0  0  0  0  0  0  0  0
    2.4550   -0.0500   35.4370 C   0  0  0  0  0  0  0  0  0  0  0  0
    1.4280    0.2170   34.5120 C   0  0  0  0  0  0  0  0  0  0  0  0
    1.7800   -0.9420   33.5210 C   0  0  0  0  0  0  0  0  0  0  0  0
    0.9090   -0.9160   32.4930 F   0  0  0  0  0  0  0  0  0  0  0  0
    6.7660   -4.1050   28.5030 C   0  0  0  0  0  0  0  0  0  0  0  0
    6.3340   -3.0410   27.5020 C   0  0  0  0  0  0  0  0  0  0  0  0
    7.2880   -2.9430   23.4620 C   0  0  0  0  0  0  0  0  0  0  0  0
    7.6320   -3.2130   22.1610 C   0  0  0  0  0  0  0  0  0  0  0  0
  1  2  1  0
  2  3  2  0
  2  4  1  0
  4  5  1  0
  5  6  1  0
  6  7  1  0
  7  8  1  0
  8  9  2  0
  8 10  1  0
 10 11  1  0
 11 12  1  0
 12 13  1  0
 13 14  1  0
 14 15  2  0
 14 16  1  0
 16 17  1  0
 17 18  1  0
 18 19  1  0
 19 20  2  0
 20 21  1  0
 21 22  2  0
 22 23  1  0
 19 24  1  0
 23 24  2  0
 24 25  1  0
 13 26  1  0
 10 27  1  0
 26 27  1  0
  7 28  1  0
  4 29  1  0
 28 29  1  0
M  END
