piperidine-amides-29141-covalent
     RDKit          3D

 26 27  0  0  0  0  0  0  0  0999 V2000
    7.0000   -3.3220   19.3400 C   0  0  0  0  0  0  0  0  0  0  0  0
    6.3800   -4.1920   20.3430 C   0  0  0  0  0  0  0  0  0  0  0  0
    5.4090   -4.8800   19.9870 O   0  0  0  0  0  0  0  0  0  0  0  0
    6.8950   -4.2680   21.6670 N   0  0  0  0  0  0  0  0  0  0  0  0
    6.6990   -5.4930   22.3960 C   0  0  0  0  0  0  0  0  0  0  0  0
    6.4160   -5.1910   23.8480 C   0  0  0  0  0  0  0  0  0  0  0  0
    6.2870   -3.6910   23.9940 C   0  0  0  0  0  0  0  0  0  0  0  0
    5.6910   -3.2780   25.3200 C   0  0  0  0  0  0  0  0  0  0  0  0
    4.4750   -3.1100   25.2870 O   0  0  0  0  0  0  0  0  0  0  0  0
    6.4460   -3.1110   26.4910 N   0  0  0  0  0  0  0  0  0  0  0  0
    5.9180   -3.5150   27.7390 C   0  0  0  0  0  0  0  0  0  0  0  0
    6.1390   -4.8610   28.0190 C   0  0  0  0  0  0  0  0  0  0  0  0
    7.4450   -5.2860   28.1730 C   0  0  0  0  0  0  0  0  0  0  0  0
    8.5110   -5.1580   27.2510 C   0  0  2  0  0  0  0  0  0  0  0  0
    9.4800   -5.0230   28.3350 C   0  0  0  0  0  0  0  0  0  0  0  0
   11.0160   -4.6620   28.3770 C   0  0  0  0  0  0  0  0  0  0  0  0
   11.4210   -4.3350   29.3450 O   0  0  0  0  0  0  0  0  0  0  0  0
   12.5300   -4.4250   27.4890 O   0  0  0  0  0  0  0  0  0  0  0  0
   13.9620   -4.5940   27.3150 C   0  0  0  0  0  0  0  0  0  0  0  0
   14.2840   -3.4950   26.3920 C   0  0  0  0  0  0  0  0  0  0  0  0
   14.5020   -5.3120   26.4530 C   0  0  0  0  0  0  0  0  0  0  0  0
   14.5600   -4.9510   28.5350 C   0  0  0  0  0  0  0  0  0  0  0  0
    8.5800   -4.2010   26.3120 C   0  0  0  0  0  0  0  0  0  0  0  0
    7.8660   -2.8980   26.4290 C   0  0  0  0  0  0  0  0  0  0  0  0
    7.6290   -3.0430   23.6380 C   0  0  0  0  0  0  0  0  0  0  0  0
    7.8390   -3.3070   22.1660 C   0  0  0  0  0  0  0  0  0  0  0  0
  1  2  1  0
  2  3  2  0
  2  4  1  0
  4  5  1  0
  5  6  1  0
  6  7  1  0
  7  8  1  0
  8  9  2  0
  8 10  1  0
 10 11  1  0
 11 12  1  0
 12 13  1  0
 13 14  1  0
 14 15  1  1
 15 16  1  0
 16 17  2  0
 16 18  1  0
 19 18  1  0
 19 20  1  0
 19 21  1  0
 19 22  1  0
 14 23  1  0
 10 24  1  0
 23 24  1  0
  7 25  1  0
  4 26  1  0
 25 26  1  0
M  END
