piperidine-amides-16165-covalent
     RDKit          3D

 19 20  0  0  0  0  0  0  0  0999 V2000
    7.0270   -3.3680   19.4260 C   0  0  0  0  0  0  0  0  0  0  0  0
    6.3870   -4.2800   20.4110 C   0  0  0  0  0  0  0  0  0  0  0  0
    5.4220   -4.9320   20.0040 O   0  0  0  0  0  0  0  0  0  0  0  0
    6.9020   -4.4020   21.7170 N   0  0  0  0  0  0  0  0  0  0  0  0
    6.6770   -5.5830   22.5310 C   0  0  0  0  0  0  0  0  0  0  0  0
    6.0700   -5.2120   23.8690 C   0  0  0  0  0  0  0  0  0  0  0  0
    5.9670   -3.6920   23.9560 C   0  0  0  0  0  0  0  0  0  0  0  0
    5.1980   -3.2280   25.1490 C   0  0  0  0  0  0  0  0  0  0  0  0
    4.3500   -2.3610   24.9500 O   0  0  0  0  0  0  0  0  0  0  0  0
    5.3320   -3.6700   26.4860 N   0  0  0  0  0  0  0  0  0  0  0  0
    6.5000   -3.2250   27.1190 C   0  0  0  0  0  0  0  0  0  0  0  0
    6.7250   -4.2690   28.1920 C   0  0  0  0  0  0  0  0  0  0  0  0
    5.7410   -4.4900   29.0170 C   0  0  0  0  0  0  0  0  0  0  0  0
    4.5990   -4.7070   28.3720 C   0  0  0  0  0  0  0  0  0  0  0  0
    4.2800   -3.7470   27.4380 C   0  0  1  0  0  0  0  0  0  0  0  0
    3.8040   -2.3620   27.8480 C   0  0  0  0  0  0  0  0  0  0  0  0
    4.6430   -1.6510   28.6730 O   0  0  0  0  0  0  0  0  0  0  0  0
    7.2800   -3.0430   23.7050 C   0  0  0  0  0  0  0  0  0  0  0  0
    7.6830   -3.3050   22.2860 C   0  0  0  0  0  0  0  0  0  0  0  0
  1  2  1  0
  2  3  2  0
  2  4  1  0
  4  5  1  0
  5  6  1  0
  6  7  1  0
  7  8  1  0
  8  9  2  0
  8 10  1  0
 10 11  1  0
 11 12  1  0
 12 13  1  0
 13 14  1  0
 10 15  1  0
 14 15  1  0
 15 16  1  1
 16 17  1  0
  7 18  1  0
  4 19  1  0
 18 19  1  0
M  END
