piperidine-amides-4245-covalent
     RDKit          3D

 26 28  0  0  0  0  0  0  0  0999 V2000
    7.0490   -3.3330   19.3010 C   0  0  0  0  0  0  0  0  0  0  0  0
    6.3760   -4.1480   20.3290 C   0  0  0  0  0  0  0  0  0  0  0  0
    5.3490   -4.7680   19.9600 O   0  0  0  0  0  0  0  0  0  0  0  0
    6.8780   -4.2840   21.6520 N   0  0  0  0  0  0  0  0  0  0  0  0
    7.6920   -3.2530   22.1980 C   0  0  0  0  0  0  0  0  0  0  0  0
    7.3520   -2.9870   23.5680 C   0  0  0  0  0  0  0  0  0  0  0  0
    6.1050   -3.6710   23.9380 C   0  0  0  0  0  0  0  0  0  0  0  0
    5.6440   -3.2620   25.3030 C   0  0  0  0  0  0  0  0  0  0  0  0
    4.4400   -3.3640   25.6020 O   0  0  0  0  0  0  0  0  0  0  0  0
    6.5510   -2.7650   26.2490 N   0  0  0  0  0  0  0  0  0  0  0  0
    6.4620   -1.5830   27.0220 C   0  0  0  0  0  0  0  0  0  0  0  0
    7.0060   -1.5930   28.3790 C   0  0  0  0  0  0  0  0  0  0  0  0
    6.9550   -0.3460   29.2890 C   0  0  0  0  0  0  0  0  0  0  0  0
    6.3950    0.8600   28.8940 C   0  0  0  0  0  0  0  0  0  0  0  0
    5.8520    0.7770   27.4760 C   0  0  0  0  0  0  0  0  0  0  0  0
    5.3120    2.1590   27.3000 C   0  0  0  0  0  0  0  0  0  0  0  0
    5.4470    2.8160   26.1200 N   0  0  0  0  0  0  0  0  0  0  0  0
    4.8970    4.0020   26.2000 C   0  0  0  0  0  0  0  0  0  0  0  0
    4.4060    4.1220   27.4250 N   0  0  0  0  0  0  0  0  0  0  0  0
    3.7670    5.2130   27.8680 C   0  0  0  0  0  0  0  0  0  0  0  0
    4.6390    3.0200   28.1260 N   0  0  0  0  0  0  0  0  0  0  0  0
    5.9010   -0.4040   26.6080 C   0  0  0  0  0  0  0  0  0  0  0  0
    5.4180   -0.3590   25.4470 O   0  0  0  0  0  0  0  0  0  0  0  0
    6.0720    0.4060   24.4590 C   0  0  0  0  0  0  0  0  0  0  0  0
    6.2370   -5.1530   23.7650 C   0  0  0  0  0  0  0  0  0  0  0  0
    6.6110   -5.4800   22.4430 C   0  0  0  0  0  0  0  0  0  0  0  0
  1  2  1  0
  2  3  2  0
  2  4  1  0
  4  5  1  0
  5  6  1  0
  6  7  1  0
  7  8  1  0
  8  9  2  0
  8 10  1  0
 10 11  1  0
 11 12  2  0
 12 13  1  0
 13 14  2  0
 14 15  1  0
 15 16  1  0
 16 17  1  0
 17 18  2  0
 18 19  1  0
 19 20  1  0
 16 21  2  0
 19 21  1  0
 11 22  1  0
 15 22  2  0
 22 23  1  0
 23 24  1  0
  7 25  1  0
  4 26  1  0
 25 26  1  0
M  END
