piperidine-amides-13016-covalent
     RDKit          3D

 20 21  0  0  0  0  0  0  0  0999 V2000
    7.1210   -3.2650   19.1920 C   0  0  0  0  0  0  0  0  0  0  0  0
    6.3620   -4.0280   20.2110 C   0  0  0  0  0  0  0  0  0  0  0  0
    5.2690   -4.5020   19.8580 O   0  0  0  0  0  0  0  0  0  0  0  0
    6.8920   -4.2470   21.4880 N   0  0  0  0  0  0  0  0  0  0  0  0
    6.4120   -5.3310   22.2770 C   0  0  0  0  0  0  0  0  0  0  0  0
    5.9050   -4.9190   23.5890 C   0  0  0  0  0  0  0  0  0  0  0  0
    6.5920   -3.7490   24.1840 C   0  0  0  0  0  0  0  0  0  0  0  0
    5.8560   -3.2510   25.3710 C   0  0  0  0  0  0  0  0  0  0  0  0
    4.6090   -3.2310   25.3360 O   0  0  0  0  0  0  0  0  0  0  0  0
    6.5580   -2.7860   26.5020 N   0  0  0  0  0  0  0  0  0  0  0  0
    6.2750   -3.1750   27.9060 C   0  0  0  0  0  0  0  0  0  0  0  0
    5.6510   -4.5140   28.1010 C   0  0  1  0  0  0  0  0  0  0  0  0
    4.3130   -4.5450   28.6400 C   0  0  0  0  0  0  0  0  0  0  0  0
    3.7600   -5.6660   28.1670 C   0  0  0  0  0  0  0  0  0  0  0  0
    4.7060   -6.3490   27.4260 C   0  0  0  0  0  0  0  0  0  0  0  0
    4.0590   -6.9290   26.3800 C   0  0  0  0  0  0  0  0  0  0  0  0
    5.3080   -7.1300   28.5510 C   0  0  0  0  0  0  0  0  0  0  0  0
    5.6830   -5.4540   27.2250 O   0  0  0  0  0  0  0  0  0  0  0  0
    6.9620   -2.6780   23.2330 C   0  0  0  0  0  0  0  0  0  0  0  0
    7.6350   -3.1970   22.1380 C   0  0  0  0  0  0  0  0  0  0  0  0
  1  2  1  0
  2  3  2  0
  2  4  1  0
  4  5  1  0
  5  6  1  0
  6  7  1  0
  7  8  1  0
  8  9  2  0
  8 10  1  0
 10 11  1  0
 12 11  1  6
 12 13  1  0
 13 14  1  0
 14 15  1  0
 15 16  1  0
 15 17  1  0
 12 18  1  0
 15 18  1  0
  7 19  1  0
  4 20  1  0
 19 20  1  0
M  END
