piperidine-amides-27499-covalent
     RDKit          3D

 26 29  0  0  0  0  0  0  0  0999 V2000
    7.0190   -3.3460   19.3900 C   0  0  0  0  0  0  0  0  0  0  0  0
    6.3860   -4.2050   20.4010 C   0  0  0  0  0  0  0  0  0  0  0  0
    5.3960   -4.8730   19.9930 O   0  0  0  0  0  0  0  0  0  0  0  0
    6.8730   -4.3140   21.7210 N   0  0  0  0  0  0  0  0  0  0  0  0
    6.7490   -5.5800   22.4250 C   0  0  0  0  0  0  0  0  0  0  0  0
    6.4070   -5.3590   23.8770 C   0  0  0  0  0  0  0  0  0  0  0  0
    6.2320   -3.9090   24.2150 C   0  0  0  0  0  0  0  0  0  0  0  0
    5.7130   -3.7330   25.6170 C   0  0  0  0  0  0  0  0  0  0  0  0
    4.4910   -3.9580   25.7070 O   0  0  0  0  0  0  0  0  0  0  0  0
    6.3500   -3.3060   26.8360 N   0  0  0  0  0  0  0  0  0  0  0  0
    5.5040   -2.5110   27.6830 C   0  0  0  0  0  0  0  0  0  0  0  0
    4.2190   -3.2620   28.0910 C   0  0  0  0  0  0  0  0  0  0  0  0
    4.4760   -4.6440   28.5440 N   0  0  0  0  0  0  0  0  0  0  0  0
    4.0550   -4.9460   29.7690 C   0  0  0  0  0  0  0  0  0  0  0  0
    3.0510   -4.3160   30.4150 C   0  0  0  0  0  0  0  0  0  0  0  0
    2.7890   -4.7810   31.6570 N   0  0  0  0  0  0  0  0  0  0  0  0
    3.7950   -5.8260   31.7200 C   0  0  0  0  0  0  0  0  0  0  0  0
    3.9550   -6.6180   32.8200 C   0  0  0  0  0  0  0  0  0  0  0  0
    4.9250   -7.5600   32.7920 C   0  0  0  0  0  0  0  0  0  0  0  0
    5.8110   -7.7600   31.5970 C   0  0  0  0  0  0  0  0  0  0  0  0
    5.5410   -6.8190   30.4080 C   0  0  0  0  0  0  0  0  0  0  0  0
    4.5300   -5.8860   30.5550 N   0  0  0  0  0  0  0  0  0  0  0  0
    5.8460   -5.0360   28.3560 C   0  0  0  0  0  0  0  0  0  0  0  0
    6.6320   -3.7890   28.2020 C   0  0  0  0  0  0  0  0  0  0  0  0
    7.4110   -3.1090   23.8040 C   0  0  0  0  0  0  0  0  0  0  0  0
    7.6710   -3.2450   22.3100 C   0  0  0  0  0  0  0  0  0  0  0  0
  1  2  1  0
  2  3  2  0
  2  4  1  0
  4  5  1  0
  5  6  1  0
  6  7  1  0
  7  8  1  0
  8  9  2  0
  8 10  1  0
 10 11  1  0
 11 12  1  0
 12 13  1  0
 13 14  1  0
 14 15  2  0
 15 16  1  0
 16 17  2  0
 17 18  1  0
 18 19  2  0
 19 20  1  0
 20 21  2  0
 14 22  1  0
 17 22  1  0
 21 22  1  0
 13 23  1  0
 10 24  1  0
 23 24  1  0
  7 25  1  0
  4 26  1  0
 25 26  1  0
M  END
