piperidine-amides-29719-covalent
     RDKit          3D

 27 29  0  0  0  0  0  0  0  0999 V2000
    7.0530   -3.3140   19.3170 C   0  0  0  0  0  0  0  0  0  0  0  0
    6.3510   -4.1300   20.3040 C   0  0  0  0  0  0  0  0  0  0  0  0
    5.3430   -4.7470   19.9610 O   0  0  0  0  0  0  0  0  0  0  0  0
    6.8500   -4.2690   21.6510 N   0  0  0  0  0  0  0  0  0  0  0  0
    7.6000   -3.2180   22.2880 C   0  0  0  0  0  0  0  0  0  0  0  0
    6.8320   -2.6380   23.4480 C   0  0  0  0  0  0  0  0  0  0  0  0
    6.2580   -3.7540   24.3250 C   0  0  0  0  0  0  0  0  0  0  0  0
    5.1440   -3.2170   25.1750 C   0  0  0  0  0  0  0  0  0  0  0  0
    4.1060   -2.7880   24.6530 O   0  0  0  0  0  0  0  0  0  0  0  0
    5.2330   -3.1820   26.6030 N   0  0  0  0  0  0  0  0  0  0  0  0
    6.4870   -3.0430   27.1780 C   0  0  0  0  0  0  0  0  0  0  0  0
    6.5890   -4.2220   28.1300 C   0  0  0  0  0  0  0  0  0  0  0  0
    5.6860   -4.3240   29.1280 C   0  0  0  0  0  0  0  0  0  0  0  0
    5.3720   -5.6230   29.5270 C   0  0  0  0  0  0  0  0  0  0  0  0
    6.3060   -6.3350   30.2920 O   0  0  0  0  0  0  0  0  0  0  0  0
    4.1330   -6.1920   29.1660 N   0  0  0  0  0  0  0  0  0  0  0  0
    3.8170   -7.5490   29.2860 C   0  0  0  0  0  0  0  0  0  0  0  0
    2.7850   -7.7550   30.2880 C   0  0  0  0  0  0  0  0  0  0  0  0
    2.9780   -8.1770   31.6060 C   0  0  0  0  0  0  0  0  0  0  0  0
    1.9320   -8.3420   32.4820 C   0  0  0  0  0  0  0  0  0  0  0  0
    0.6390   -8.1010   32.1080 C   0  0  0  0  0  0  0  0  0  0  0  0
    0.4220   -7.6620   30.7440 C   0  0  0  0  0  0  0  0  0  0  0  0
    1.4760   -7.4950   29.8580 C   0  0  0  0  0  0  0  0  0  0  0  0
    4.5550   -3.5920   28.7780 C   0  0  0  0  0  0  0  0  0  0  0  0
    4.1360   -3.6940   27.3440 C   0  0  0  0  0  0  0  0  0  0  0  0
    5.6610   -4.9230   23.5810 C   0  0  0  0  0  0  0  0  0  0  0  0
    6.5100   -5.4140   22.4270 C   0  0  0  0  0  0  0  0  0  0  0  0
  1  2  1  0
  2  3  2  0
  2  4  1  0
  4  5  1  0
  5  6  1  0
  6  7  1  0
  7  8  1  0
  8  9  2  0
  8 10  1  0
 10 11  1  0
 11 12  1  0
 12 13  1  0
 13 14  1  0
 14 15  2  0
 14 16  1  0
 16 17  1  0
 17 18  1  0
 18 19  2  0
 19 20  1  0
 20 21  2  0
 21 22  1  0
 18 23  1  0
 22 23  2  0
 13 24  1  0
 10 25  1  0
 24 25  1  0
  7 26  1  0
  4 27  1  0
 26 27  1  0
M  END
