piperidine-amides-29532-covalent
     RDKit          3D

 27 30  0  0  0  0  0  0  0  0999 V2000
    7.0980   -3.3420   19.3590 C   0  0  0  0  0  0  0  0  0  0  0  0
    6.4040   -4.2050   20.3000 C   0  0  0  0  0  0  0  0  0  0  0  0
    5.3630   -4.7730   19.9680 O   0  0  0  0  0  0  0  0  0  0  0  0
    6.9780   -4.4510   21.5950 N   0  0  0  0  0  0  0  0  0  0  0  0
    7.7190   -3.4220   22.2750 C   0  0  0  0  0  0  0  0  0  0  0  0
    6.9130   -2.8640   23.4100 C   0  0  0  0  0  0  0  0  0  0  0  0
    6.3140   -4.0020   24.2300 C   0  0  0  0  0  0  0  0  0  0  0  0
    5.3160   -3.4260   25.1690 C   0  0  0  0  0  0  0  0  0  0  0  0
    4.3560   -2.7580   24.7590 O   0  0  0  0  0  0  0  0  0  0  0  0
    5.4400   -3.6330   26.5530 N   0  0  0  0  0  0  0  0  0  0  0  0
    6.5030   -3.0190   27.1980 C   0  0  0  0  0  0  0  0  0  0  0  0
    6.7590   -3.9730   28.3440 C   0  0  0  0  0  0  0  0  0  0  0  0
    5.7820   -4.1050   29.2600 C   0  0  0  0  0  0  0  0  0  0  0  0
    5.3940   -2.8440   29.8410 N   0  0  0  0  0  0  0  0  0  0  0  0
    6.1860   -1.6980   29.4970 C   0  0  0  0  0  0  0  0  0  0  0  0
    5.9450   -0.5500   30.2330 C   0  0  0  0  0  0  0  0  0  0  0  0
    5.0690   -0.6500   31.4040 C   0  0  0  0  0  0  0  0  0  0  0  0
    5.0740    0.2380   32.4890 C   0  0  0  0  0  0  0  0  0  0  0  0
    4.2190    0.0770   33.5530 C   0  0  0  0  0  0  0  0  0  0  0  0
    3.3210   -0.9480   33.6190 C   0  0  0  0  0  0  0  0  0  0  0  0
    3.3000   -1.8770   32.5100 C   0  0  0  0  0  0  0  0  0  0  0  0
    4.1580   -1.7220   31.4310 C   0  0  0  0  0  0  0  0  0  0  0  0
    4.0990   -2.6400   30.3990 C   0  0  0  0  0  0  0  0  0  0  0  0
    4.6980   -4.7020   28.6540 C   0  0  0  0  0  0  0  0  0  0  0  0
    4.3290   -4.0510   27.3120 C   0  0  0  0  0  0  0  0  0  0  0  0
    5.7070   -5.0980   23.4040 C   0  0  0  0  0  0  0  0  0  0  0  0
    6.5980   -5.6160   22.3330 C   0  0  0  0  0  0  0  0  0  0  0  0
  1  2  1  0
  2  3  2  0
  2  4  1  0
  4  5  1  0
  5  6  1  0
  6  7  1  0
  7  8  1  0
  8  9  2  0
  8 10  1  0
 10 11  1  0
 11 12  1  0
 12 13  1  0
 13 14  1  0
 14 15  1  0
 15 16  1  0
 16 17  1  0
 17 18  2  0
 18 19  1  0
 19 20  2  0
 20 21  1  0
 17 22  1  0
 21 22  2  0
 14 23  1  0
 22 23  1  0
 13 24  1  0
 10 25  1  0
 24 25  1  0
  7 26  1  0
  4 27  1  0
 26 27  1  0
M  END
