piperidine-amides-13736-covalent
     RDKit          3D

 27 29  0  0  0  0  0  0  0  0999 V2000
    7.1160   -3.2820   19.1800 C   0  0  0  0  0  0  0  0  0  0  0  0
    6.2970   -4.0140   20.1840 C   0  0  0  0  0  0  0  0  0  0  0  0
    5.2180   -4.5140   19.8520 O   0  0  0  0  0  0  0  0  0  0  0  0
    6.8050   -4.1610   21.4780 N   0  0  0  0  0  0  0  0  0  0  0  0
    7.6230   -3.1400   22.0700 C   0  0  0  0  0  0  0  0  0  0  0  0
    6.8000   -2.5150   23.2000 C   0  0  0  0  0  0  0  0  0  0  0  0
    6.3320   -3.6020   24.1180 C   0  0  0  0  0  0  0  0  0  0  0  0
    5.5580   -3.0550   25.2550 C   0  0  0  0  0  0  0  0  0  0  0  0
    4.3460   -3.2920   25.2610 O   0  0  0  0  0  0  0  0  0  0  0  0
    6.2080   -2.3020   26.2480 N   0  0  0  0  0  0  0  0  0  0  0  0
    6.5840   -2.7770   27.5230 C   0  0  1  0  0  0  0  0  0  0  0  0
    5.6720   -2.7860   28.5600 C   0  0  0  0  0  0  0  0  0  0  0  0
    4.7110   -3.7990   28.8400 C   0  0  0  0  0  0  0  0  0  0  0  0
    3.8260   -3.7400   29.8990 C   0  0  0  0  0  0  0  0  0  0  0  0
    3.8780   -2.5650   30.7820 C   0  0  0  0  0  0  0  0  0  0  0  0
    4.8870   -1.4700   30.5110 C   0  0  0  0  0  0  0  0  0  0  0  0
    5.7760   -1.5880   29.4030 N   0  0  0  0  0  0  0  0  0  0  0  0
    7.3130   -3.9440   27.4040 C   0  0  0  0  0  0  0  0  0  0  0  0
    7.0140   -4.8830   28.3080 C   0  0  0  0  0  0  0  0  0  0  0  0
    7.7090   -6.1390   28.2530 C   0  0  0  0  0  0  0  0  0  0  0  0
    8.7250   -6.1550   27.1100 C   0  0  0  0  0  0  0  0  0  0  0  0
    9.1480   -5.3030   26.1300 C   0  0  0  0  0  0  0  0  0  0  0  0
    8.2460   -4.0930   26.4280 C   0  0  0  0  0  0  0  0  0  0  0  0
    8.3860   -3.1100   25.6760 O   0  0  0  0  0  0  0  0  0  0  0  0
    8.8700   -3.5140   24.3790 C   0  0  0  0  0  0  0  0  0  0  0  0
    5.4860   -4.6370   23.4010 C   0  0  0  0  0  0  0  0  0  0  0  0
    6.3030   -5.2430   22.3130 C   0  0  0  0  0  0  0  0  0  0  0  0
  1  2  1  0
  2  3  2  0
  2  4  1  0
  4  5  1  0
  5  6  1  0
  6  7  1  0
  7  8  1  0
  8  9  2  0
  8 10  1  0
 11 10  1  6
 11 12  1  0
 12 13  2  0
 13 14  1  0
 14 15  2  0
 15 16  1  0
 12 17  1  0
 16 17  2  0
 11 18  1  0
 18 19  2  0
 19 20  1  0
 20 21  2  0
 21 22  1  0
 18 23  1  0
 22 23  2  0
 23 24  1  0
 24 25  1  0
  7 26  1  0
  4 27  1  0
 26 27  1  0
M  END
