piperidine-amides-13622-covalent
     RDKit          3D

 28 30  0  0  0  0  0  0  0  0999 V2000
    7.0370   -3.3250   19.3280 C   0  0  0  0  0  0  0  0  0  0  0  0
    6.3590   -4.1800   20.3440 C   0  0  0  0  0  0  0  0  0  0  0  0
    5.3820   -4.8620   19.9850 O   0  0  0  0  0  0  0  0  0  0  0  0
    6.8580   -4.2280   21.6700 N   0  0  0  0  0  0  0  0  0  0  0  0
    7.7050   -3.1780   22.2230 C   0  0  0  0  0  0  0  0  0  0  0  0
    7.4670   -3.0500   23.7360 C   0  0  0  0  0  0  0  0  0  0  0  0
    6.1170   -3.6010   24.0110 C   0  0  0  0  0  0  0  0  0  0  0  0
    5.5520   -3.2870   25.3490 C   0  0  0  0  0  0  0  0  0  0  0  0
    4.3310   -3.4380   25.4570 O   0  0  0  0  0  0  0  0  0  0  0  0
    6.3530   -2.8370   26.4120 N   0  0  0  0  0  0  0  0  0  0  0  0
    6.6320   -1.4840   26.7770 C   0  0  1  0  0  0  0  0  0  0  0  0
    5.8250   -0.4520   26.3970 C   0  0  0  0  0  0  0  0  0  0  0  0
    5.6790    0.4390   27.4170 C   0  0  0  0  0  0  0  0  0  0  0  0
    6.2810   -0.3720   28.4480 N   0  0  0  0  0  0  0  0  0  0  0  0
    5.9780   -0.2080   29.7640 C   0  0  0  0  0  0  0  0  0  0  0  0
    5.0150   -0.9940   30.5600 C   0  0  0  0  0  0  0  0  0  0  0  0
    4.7510   -0.7200   32.0480 C   0  0  0  0  0  0  0  0  0  0  0  0
    5.5750    0.4380   32.6460 C   0  0  0  0  0  0  0  0  0  0  0  0
    6.4670    1.1430   31.8470 C   0  0  0  0  0  0  0  0  0  0  0  0
    6.6450    0.8020   30.4140 C   0  0  0  0  0  0  0  0  0  0  0  0
    7.4610    1.4840   29.7510 O   0  0  0  0  0  0  0  0  0  0  0  0
    7.1310    2.8250   29.6870 C   0  0  0  0  0  0  0  0  0  0  0  0
    6.3840    3.2310   30.7590 F   0  0  0  0  0  0  0  0  0  0  0  0
    8.2670    3.5950   29.6380 F   0  0  0  0  0  0  0  0  0  0  0  0
    7.1350   -1.3990   28.1090 C   0  0  0  0  0  0  0  0  0  0  0  0
    7.4010   -1.1270   29.3180 O   0  0  0  0  0  0  0  0  0  0  0  0
    6.0380   -5.0760   23.7840 C   0  0  0  0  0  0  0  0  0  0  0  0
    6.6740   -5.4380   22.4630 C   0  0  0  0  0  0  0  0  0  0  0  0
  1  2  1  0
  2  3  2  0
  2  4  1  0
  4  5  1  0
  5  6  1  0
  6  7  1  0
  7  8  1  0
  8  9  2  0
  8 10  1  0
 11 10  1  1
 11 12  1  0
 12 13  1  0
 13 14  1  0
 14 15  1  0
 15 16  2  0
 16 17  1  0
 17 18  2  0
 18 19  1  0
 15 20  1  0
 19 20  2  0
 20 21  1  0
 21 22  1  0
 22 23  1  0
 22 24  1  0
 11 25  1  0
 14 25  1  0
 25 26  2  0
  7 27  1  0
  4 28  1  0
 27 28  1  0
M  END
