piperidine-amides-13124-covalent
     RDKit          3D

 23 24  0  0  0  0  0  0  0  0999 V2000
    7.1510   -3.2400   19.1360 C   0  0  0  0  0  0  0  0  0  0  0  0
    6.3790   -3.9680   20.1720 C   0  0  0  0  0  0  0  0  0  0  0  0
    5.2800   -4.4470   19.8360 O   0  0  0  0  0  0  0  0  0  0  0  0
    6.9050   -4.1470   21.4520 N   0  0  0  0  0  0  0  0  0  0  0  0
    7.6590   -3.1040   22.0700 C   0  0  0  0  0  0  0  0  0  0  0  0
    7.1890   -2.7180   23.3960 C   0  0  0  0  0  0  0  0  0  0  0  0
    6.6290   -3.8160   24.1980 C   0  0  0  0  0  0  0  0  0  0  0  0
    5.8390   -3.2650   25.3250 C   0  0  0  0  0  0  0  0  0  0  0  0
    4.9800   -2.3970   25.0760 O   0  0  0  0  0  0  0  0  0  0  0  0
    6.0310   -3.7100   26.6380 N   0  0  0  0  0  0  0  0  0  0  0  0
    5.1360   -4.7070   27.2560 C   0  0  2  0  0  0  0  0  0  0  0  0
    5.8540   -5.7290   28.0560 C   0  0  0  0  0  0  0  0  0  0  0  0
    6.4440   -5.3320   29.3070 C   0  0  0  0  0  0  0  0  0  0  0  0
    5.9260   -5.9180   30.3190 O   0  0  0  0  0  0  0  0  0  0  0  0
    5.9000   -7.3060   30.1700 C   0  0  0  0  0  0  0  0  0  0  0  0
    4.2100   -5.3400   26.3130 C   0  0  0  0  0  0  0  0  0  0  0  0
    4.2280   -6.6530   25.9580 C   0  0  0  0  0  0  0  0  0  0  0  0
    3.3530   -7.2480   25.0710 C   0  0  0  0  0  0  0  0  0  0  0  0
    2.3320   -6.5850   24.4190 C   0  0  0  0  0  0  0  0  0  0  0  0
    2.3190   -5.1970   24.8050 N   0  0  0  0  0  0  0  0  0  0  0  0
    3.2240   -4.6150   25.7110 C   0  0  0  0  0  0  0  0  0  0  0  0
    5.8520   -4.8510   23.4740 C   0  0  0  0  0  0  0  0  0  0  0  0
    6.6100   -5.3160   22.2620 C   0  0  0  0  0  0  0  0  0  0  0  0
  1  2  1  0
  2  3  2  0
  2  4  1  0
  4  5  1  0
  5  6  1  0
  6  7  1  0
  7  8  1  0
  8  9  2  0
  8 10  1  0
 10 11  1  0
 11 12  1  6
 12 13  1  0
 13 14  1  0
 14 15  1  0
 11 16  1  0
 16 17  2  0
 17 18  1  0
 18 19  2  0
 19 20  1  0
 16 21  1  0
 20 21  2  0
  7 22  1  0
  4 23  1  0
 22 23  1  0
M  END
