piperidine-amides-19411-covalent
     RDKit          3D

 22 24  0  0  0  0  0  0  0  0999 V2000
    7.1730   -3.3050   19.3730 C   0  0  0  0  0  0  0  0  0  0  0  0
    6.4450   -4.0950   20.3340 C   0  0  0  0  0  0  0  0  0  0  0  0
    5.3840   -4.6920   19.9480 O   0  0  0  0  0  0  0  0  0  0  0  0
    6.9130   -4.2610   21.6540 N   0  0  0  0  0  0  0  0  0  0  0  0
    6.5590   -5.4790   22.3930 C   0  0  0  0  0  0  0  0  0  0  0  0
    5.4750   -4.8490   23.3370 C   0  0  0  0  0  0  0  0  0  0  0  0
    6.1890   -3.8220   24.1950 C   0  0  0  0  0  0  0  0  0  0  0  0
    5.1600   -3.1670   25.2140 C   0  0  0  0  0  0  0  0  0  0  0  0
    4.0320   -3.2380   24.7550 O   0  0  0  0  0  0  0  0  0  0  0  0
    5.7400   -2.7220   26.2530 N   0  0  0  0  0  0  0  0  0  0  0  0
    6.5050   -2.3700   27.2350 C   0  0  0  0  0  0  0  0  0  0  0  0
    5.7170   -1.6720   27.9690 C   0  0  0  0  0  0  0  0  0  0  0  0
    4.6520   -1.9570   27.0030 C   0  0  2  0  0  0  0  0  0  0  0  0
    3.4160   -2.6350   27.4550 C   0  0  0  0  0  0  0  0  0  0  0  0
    2.2660   -2.2650   26.6150 C   0  0  0  0  0  0  0  0  0  0  0  0
    1.1790   -3.0130   27.2000 C   0  0  0  0  0  0  0  0  0  0  0  0
    0.9650   -3.9640   28.3230 C   0  0  0  0  0  0  0  0  0  0  0  0
    2.3680   -4.1610   29.0250 C   0  0  0  0  0  0  0  0  0  0  0  0
    2.3870   -4.9990   30.0820 F   0  0  0  0  0  0  0  0  0  0  0  0
    3.6510   -3.4590   28.5630 C   0  0  0  0  0  0  0  0  0  0  0  0
    6.9040   -2.7320   23.3630 C   0  0  0  0  0  0  0  0  0  0  0  0
    7.6720   -3.2410   22.3520 C   0  0  0  0  0  0  0  0  0  0  0  0
  1  2  1  0
  2  3  2  0
  2  4  1  0
  4  5  1  0
  5  6  1  0
  6  7  1  0
  7  8  1  0
  8  9  2  0
  8 10  1  0
 10 11  1  0
 11 12  1  0
 10 13  1  0
 12 13  1  0
 13 14  1  1
 14 15  2  0
 15 16  1  0
 16 17  2  0
 17 18  1  0
 18 19  1  0
 14 20  1  0
 18 20  2  0
  7 21  1  0
  4 22  1  0
 21 22  1  0
M  END
