piperidine-amides-296-covalent
     RDKit          3D

 30 32  0  0  0  0  0  0  0  0999 V2000
    7.1060   -3.3440   19.2120 C   0  0  0  0  0  0  0  0  0  0  0  0
    6.3990   -4.0430   20.2610 C   0  0  0  0  0  0  0  0  0  0  0  0
    5.3280   -4.6400   19.9300 O   0  0  0  0  0  0  0  0  0  0  0  0
    6.8680   -4.1360   21.5920 N   0  0  0  0  0  0  0  0  0  0  0  0
    6.4740   -5.3320   22.3650 C   0  0  0  0  0  0  0  0  0  0  0  0
    5.5980   -4.6450   23.4830 C   0  0  0  0  0  0  0  0  0  0  0  0
    6.5130   -3.6350   24.1480 C   0  0  0  0  0  0  0  0  0  0  0  0
    5.8510   -2.9550   25.4250 C   0  0  0  0  0  0  0  0  0  0  0  0
    5.4900   -1.8230   25.1600 O   0  0  0  0  0  0  0  0  0  0  0  0
    5.8320   -3.7570   26.4050 N   0  0  0  0  0  0  0  0  0  0  0  0
    5.6090   -4.5880   27.4560 C   0  0  0  0  0  0  0  0  0  0  0  0
    4.6380   -5.4380   27.9000 C   0  0  0  0  0  0  0  0  0  0  0  0
    4.3530   -6.5640   27.1350 C   0  0  0  0  0  0  0  0  0  0  0  0
    3.3320   -7.5900   27.4340 C   0  0  0  0  0  0  0  0  0  0  0  0
    2.5630   -7.2790   28.7610 C   0  0  0  0  0  0  0  0  0  0  0  0
    2.9770   -6.0910   29.4230 C   0  0  0  0  0  0  0  0  0  0  0  0
    2.3870   -5.7970   30.4880 O   0  0  0  0  0  0  0  0  0  0  0  0
    1.6290   -6.6490   31.2520 C   0  0  0  0  0  0  0  0  0  0  0  0
    1.9310   -6.8130   32.7430 C   0  0  0  0  0  0  0  0  0  0  0  0
    2.6040   -6.8270   33.6950 N   0  0  0  0  0  0  0  0  0  0  0  0
    3.1010   -5.5790   33.7590 C   0  0  0  0  0  0  0  0  0  0  0  0
    3.6490   -7.8110   33.6560 C   0  0  0  0  0  0  0  0  0  0  0  0
    4.2830   -7.6140   32.4560 C   0  0  0  0  0  0  0  0  0  0  0  0
    5.6080   -7.8510   32.5280 C   0  0  0  0  0  0  0  0  0  0  0  0
    6.2050   -6.9440   33.1880 O   0  0  0  0  0  0  0  0  0  0  0  0
    5.6910   -6.8340   34.4590 C   0  0  0  0  0  0  0  0  0  0  0  0
    4.6600   -7.7360   34.7660 C   0  0  0  0  0  0  0  0  0  0  0  0
    3.9450   -5.2210   29.0350 C   0  0  0  0  0  0  0  0  0  0  0  0
    7.0730   -2.5170   23.2960 C   0  0  0  0  0  0  0  0  0  0  0  0
    7.7700   -3.1380   22.1050 C   0  0  0  0  0  0  0  0  0  0  0  0
  1  2  1  0
  2  3  2  0
  2  4  1  0
  4  5  1  0
  5  6  1  0
  6  7  1  0
  7  8  1  0
  8  9  2  0
  8 10  1  0
 10 11  1  0
 11 12  1  0
 12 13  2  0
 13 14  1  0
 14 15  2  0
 15 16  1  0
 16 17  1  0
 17 18  1  0
 18 19  1  0
 19 20  1  0
 20 21  1  0
 20 22  1  0
 22 23  1  0
 23 24  1  0
 24 25  1  0
 25 26  1  0
 22 27  1  0
 26 27  1  0
 12 28  1  0
 16 28  2  0
  7 29  1  0
  4 30  1  0
 29 30  1  0
M  END
