piperidine-amides-27159-covalent
     RDKit          3D

 25 26  0  0  0  0  0  0  0  0999 V2000
    7.1170   -3.3250   19.2260 C   0  0  0  0  0  0  0  0  0  0  0  0
    6.4290   -4.1300   20.2390 C   0  0  0  0  0  0  0  0  0  0  0  0
    5.3330   -4.6530   19.9160 O   0  0  0  0  0  0  0  0  0  0  0  0
    7.0320   -4.3300   21.4770 N   0  0  0  0  0  0  0  0  0  0  0  0
    6.7180   -5.4750   22.2940 C   0  0  0  0  0  0  0  0  0  0  0  0
    6.0230   -4.9720   23.5250 C   0  0  0  0  0  0  0  0  0  0  0  0
    6.7440   -3.8090   24.1620 C   0  0  0  0  0  0  0  0  0  0  0  0
    5.8890   -3.2580   25.2140 C   0  0  0  0  0  0  0  0  0  0  0  0
    5.1330   -2.3090   24.9210 O   0  0  0  0  0  0  0  0  0  0  0  0
    5.8270   -3.7390   26.5090 N   0  0  0  0  0  0  0  0  0  0  0  0
    6.3020   -2.9310   27.6060 C   0  0  0  0  0  0  0  0  0  0  0  0
    6.5620   -3.7600   28.8640 C   0  0  0  0  0  0  0  0  0  0  0  0
    5.7580   -4.8030   29.1670 C   0  0  0  0  0  0  0  0  0  0  0  0
    4.6580   -4.5030   29.9420 C   0  0  0  0  0  0  0  0  0  0  0  0
    6.4060   -5.9230   29.5820 C   0  0  0  0  0  0  0  0  0  0  0  0
    7.2140   -6.6250   28.7290 O   0  0  0  0  0  0  0  0  0  0  0  0
    6.2470   -6.3710   30.8960 O   0  0  0  0  0  0  0  0  0  0  0  0
    5.1980   -7.2280   31.2010 C   0  0  0  0  0  0  0  0  0  0  0  0
    4.3020   -6.7600   32.1360 C   0  0  0  0  0  0  0  0  0  0  0  0
    5.0300   -8.0100   32.5150 C   0  0  0  0  0  0  0  0  0  0  0  0
    4.5500   -7.8180   29.9800 C   0  0  0  0  0  0  0  0  0  0  0  0
    5.0800   -5.2180   28.1070 C   0  0  0  0  0  0  0  0  0  0  0  0
    4.6620   -4.0310   27.2980 C   0  0  0  0  0  0  0  0  0  0  0  0
    7.0760   -2.7020   23.2480 C   0  0  0  0  0  0  0  0  0  0  0  0
    7.7710   -3.2420   22.0430 C   0  0  0  0  0  0  0  0  0  0  0  0
  1  2  1  0
  2  3  2  0
  2  4  1  0
  4  5  1  0
  5  6  1  0
  6  7  1  0
  7  8  1  0
  8  9  2  0
  8 10  1  0
 10 11  1  0
 11 12  1  0
 12 13  1  0
 13 14  1  0
 13 15  1  0
 15 16  2  0
 15 17  1  0
 18 17  1  0
 18 19  1  0
 18 20  1  0
 18 21  1  0
 13 22  1  0
 10 23  1  0
 22 23  1  0
  7 24  1  0
  4 25  1  0
 24 25  1  0
M  END
