piperidine-amides-24734-covalent
     RDKit          3D

 24 26  0  0  0  0  0  0  0  0999 V2000
    7.0690   -3.3400   19.3900 C   0  0  0  0  0  0  0  0  0  0  0  0
    6.4100   -4.2420   20.3430 C   0  0  0  0  0  0  0  0  0  0  0  0
    5.3890   -4.8730   19.9920 O   0  0  0  0  0  0  0  0  0  0  0  0
    6.9460   -4.4510   21.6270 N   0  0  0  0  0  0  0  0  0  0  0  0
    6.4910   -5.5940   22.3600 C   0  0  0  0  0  0  0  0  0  0  0  0
    5.5150   -5.0220   23.3880 C   0  0  0  0  0  0  0  0  0  0  0  0
    6.2810   -4.0380   24.2560 C   0  0  0  0  0  0  0  0  0  0  0  0
    5.3250   -3.4110   25.2100 C   0  0  0  0  0  0  0  0  0  0  0  0
    4.4690   -2.6420   24.7430 O   0  0  0  0  0  0  0  0  0  0  0  0
    5.3740   -3.6750   26.6030 N   0  0  0  0  0  0  0  0  0  0  0  0
    4.2310   -3.5420   27.4430 C   0  0  0  0  0  0  0  0  0  0  0  0
    4.6010   -4.0670   28.8270 C   0  0  0  0  0  0  0  0  0  0  0  0
    5.4950   -5.0920   28.9180 C   0  0  0  0  0  0  0  0  0  0  0  0
    4.8600   -6.3480   29.0420 N   0  0  0  0  0  0  0  0  0  0  0  0
    5.7340   -7.3140   29.5540 C   0  0  0  0  0  0  0  0  0  0  0  0
    5.3730   -7.3080   30.9140 C   0  0  0  0  0  0  0  0  0  0  0  0
    4.0960   -6.8240   31.0790 C   0  0  1  0  0  0  0  0  0  0  0  0
    2.8910   -7.5150   30.4720 C   0  0  0  0  0  0  0  0  0  0  0  0
    3.7470   -6.0470   32.1340 O   0  0  0  0  0  0  0  0  0  0  0  0
    3.6350   -6.3810   29.7440 C   0  0  0  0  0  0  0  0  0  0  0  0
    6.5070   -4.8640   28.1160 C   0  0  0  0  0  0  0  0  0  0  0  0
    6.4330   -3.5340   27.4890 C   0  0  0  0  0  0  0  0  0  0  0  0
    6.9040   -2.9390   23.4190 C   0  0  0  0  0  0  0  0  0  0  0  0
    7.5810   -3.3760   22.3100 C   0  0  0  0  0  0  0  0  0  0  0  0
  1  2  1  0
  2  3  2  0
  2  4  1  0
  4  5  1  0
  5  6  1  0
  6  7  1  0
  7  8  1  0
  8  9  2  0
  8 10  1  0
 10 11  1  0
 11 12  1  0
 12 13  1  0
 13 14  1  0
 14 15  1  0
 15 16  1  0
 16 17  1  0
 17 18  1  1
 17 19  1  0
 14 20  1  0
 17 20  1  0
 13 21  1  0
 10 22  1  0
 21 22  1  0
  7 23  1  0
  4 24  1  0
 23 24  1  0
M  END
