piperidine-amides-2743-covalent
     RDKit          3D

 25 27  0  0  0  0  0  0  0  0999 V2000
    7.0780   -3.3480   19.2640 C   0  0  0  0  0  0  0  0  0  0  0  0
    6.3850   -4.1590   20.2580 C   0  0  0  0  0  0  0  0  0  0  0  0
    5.3420   -4.7360   19.9560 O   0  0  0  0  0  0  0  0  0  0  0  0
    6.9540   -4.3440   21.5630 N   0  0  0  0  0  0  0  0  0  0  0  0
    6.4870   -5.4260   22.3800 C   0  0  0  0  0  0  0  0  0  0  0  0
    5.6820   -4.8750   23.5240 C   0  0  0  0  0  0  0  0  0  0  0  0
    6.5060   -3.7900   24.2080 C   0  0  0  0  0  0  0  0  0  0  0  0
    5.7730   -3.2060   25.3600 C   0  0  0  0  0  0  0  0  0  0  0  0
    4.5510   -2.9660   25.3250 O   0  0  0  0  0  0  0  0  0  0  0  0
    6.5110   -2.9420   26.5330 N   0  0  0  0  0  0  0  0  0  0  0  0
    6.4630   -1.6580   27.2020 C   0  0  0  0  0  0  0  0  0  0  0  0
    7.0630   -1.5430   28.5680 C   0  0  0  0  0  0  0  0  0  0  0  0
    6.5420   -0.4410   28.1220 N   0  0  0  0  0  0  0  0  0  0  0  0
    6.4620    0.7250   28.6650 C   0  0  0  0  0  0  0  0  0  0  0  0
    5.8570    0.8140   27.4020 C   0  0  0  0  0  0  0  0  0  0  0  0
    5.8340   -0.3820   26.6130 C   0  0  0  0  0  0  0  0  0  0  0  0
    5.3100   -0.3660   25.4850 O   0  0  0  0  0  0  0  0  0  0  0  0
    4.6310    0.6710   24.8690 C   0  0  0  0  0  0  0  0  0  0  0  0
    3.4290    1.0750   25.4210 C   0  0  0  0  0  0  0  0  0  0  0  0
    2.7100    2.1070   24.8510 C   0  0  0  0  0  0  0  0  0  0  0  0
    3.1890    2.7460   23.7170 C   0  0  0  0  0  0  0  0  0  0  0  0
    4.4610    2.2860   23.1660 C   0  0  0  0  0  0  0  0  0  0  0  0
    5.1780    1.2530   23.7400 C   0  0  0  0  0  0  0  0  0  0  0  0
    6.8660   -2.6840   23.2700 C   0  0  0  0  0  0  0  0  0  0  0  0
    7.6450   -3.2480   22.1430 C   0  0  0  0  0  0  0  0  0  0  0  0
  1  2  1  0
  2  3  2  0
  2  4  1  0
  4  5  1  0
  5  6  1  0
  6  7  1  0
  7  8  1  0
  8  9  2  0
  8 10  1  0
 10 11  1  0
 11 12  2  0
 12 13  1  0
 13 14  2  0
 14 15  1  0
 11 16  1  0
 15 16  2  0
 16 17  1  0
 17 18  1  0
 18 19  2  0
 19 20  1  0
 20 21  2  0
 21 22  1  0
 18 23  1  0
 22 23  2  0
  7 24  1  0
  4 25  1  0
 24 25  1  0
M  END
