piperidine-amides-18954-covalent
     RDKit          3D

 21 22  0  0  0  0  0  0  0  0999 V2000
    7.0980   -3.3810   19.5020 C   0  0  0  0  0  0  0  0  0  0  0  0
    6.3750   -4.2010   20.4480 C   0  0  0  0  0  0  0  0  0  0  0  0
    5.4330   -4.9360   20.0030 O   0  0  0  0  0  0  0  0  0  0  0  0
    6.7040   -4.2250   21.8240 N   0  0  0  0  0  0  0  0  0  0  0  0
    6.7030   -5.5640   22.4800 C   0  0  0  0  0  0  0  0  0  0  0  0
    6.1310   -5.2630   23.9320 C   0  0  0  0  0  0  0  0  0  0  0  0
    6.1710   -3.7710   24.0940 C   0  0  0  0  0  0  0  0  0  0  0  0
    5.3790   -3.1560   25.3550 C   0  0  0  0  0  0  0  0  0  0  0  0
    4.6020   -2.3190   24.9320 O   0  0  0  0  0  0  0  0  0  0  0  0
    5.7070   -3.6630   26.4880 N   0  0  0  0  0  0  0  0  0  0  0  0
    6.2680   -4.3970   27.4650 C   0  0  0  0  0  0  0  0  0  0  0  0
    5.8820   -4.8410   28.6310 C   0  0  2  0  0  0  0  0  0  0  0  0
    5.3720   -6.1000   28.6230 F   0  0  0  0  0  0  0  0  0  0  0  0
    4.8520   -3.9530   28.7830 C   0  0  0  0  0  0  0  0  0  0  0  0
    4.8600   -3.0450   27.5970 C   0  0  1  0  0  0  0  0  0  0  0  0
    5.6690   -2.0080   28.3970 C   0  0  0  0  0  0  0  0  0  0  0  0
    6.9700   -2.2150   28.9020 O   0  0  0  0  0  0  0  0  0  0  0  0
    4.8950   -0.7860   28.5820 N   0  0  0  0  0  0  0  0  0  0  0  0
    4.9420   -0.2760   29.9090 C   0  0  0  0  0  0  0  0  0  0  0  0
    7.5380   -3.1970   23.8180 C   0  0  0  0  0  0  0  0  0  0  0  0
    7.6460   -3.2030   22.2960 C   0  0  0  0  0  0  0  0  0  0  0  0
  1  2  1  0
  2  3  2  0
  2  4  1  0
  4  5  1  0
  5  6  1  0
  6  7  1  0
  7  8  1  0
  8  9  2  0
  8 10  1  0
 10 11  1  0
 11 12  1  0
 12 13  1  6
 12 14  1  0
 10 15  1  0
 14 15  1  0
 15 16  1  1
 16 17  2  0
 16 18  1  0
 18 19  1  0
  7 20  1  0
  4 21  1  0
 20 21  1  0
M  END
