piperidine-amides-26203-covalent
     RDKit          3D

 24 26  0  0  0  0  0  0  0  0999 V2000
    7.0520   -3.3560   19.3590 C   0  0  0  0  0  0  0  0  0  0  0  0
    6.3650   -4.2130   20.3250 C   0  0  0  0  0  0  0  0  0  0  0  0
    5.3430   -4.8200   19.9690 O   0  0  0  0  0  0  0  0  0  0  0  0
    6.8600   -4.4090   21.6250 N   0  0  0  0  0  0  0  0  0  0  0  0
    6.5180   -5.5850   22.3930 C   0  0  0  0  0  0  0  0  0  0  0  0
    5.6580   -5.1150   23.5570 C   0  0  0  0  0  0  0  0  0  0  0  0
    5.7850   -3.6340   23.8450 C   0  0  0  0  0  0  0  0  0  0  0  0
    5.1090   -3.1560   25.1010 C   0  0  0  0  0  0  0  0  0  0  0  0
    4.0720   -2.4560   24.9860 O   0  0  0  0  0  0  0  0  0  0  0  0
    5.4910   -3.4060   26.4460 N   0  0  0  0  0  0  0  0  0  0  0  0
    4.4710   -3.2530   27.5340 C   0  0  0  0  0  0  0  0  0  0  0  0
    4.7690   -4.1570   28.7000 C   0  0  0  0  0  0  0  0  0  0  0  0
    6.1870   -4.2430   28.9580 C   0  0  2  0  0  0  0  0  0  0  0  0
    6.8870   -2.6410   28.9530 S   0  0  0  0  0  0  0  0  0  0  0  0
    5.8080   -1.3360   29.4080 C   0  0  0  0  0  0  0  0  0  0  0  0
    6.2100   -0.2980   28.3780 C   0  0  0  0  0  0  0  0  0  0  0  0
    7.0400   -4.9020   27.8930 C   0  0  0  0  0  0  0  0  0  0  0  0
    8.0620   -5.8200   28.0040 C   0  0  0  0  0  0  0  0  0  0  0  0
    8.7220   -6.2970   26.8970 C   0  0  0  0  0  0  0  0  0  0  0  0
    8.3370   -5.8430   25.5760 C   0  0  0  0  0  0  0  0  0  0  0  0
    7.2560   -4.8750   25.4470 C   0  0  0  0  0  0  0  0  0  0  0  0
    6.5340   -4.3360   26.6160 C   0  0  0  0  0  0  0  0  0  0  0  0
    7.1960   -3.1890   23.6620 C   0  0  0  0  0  0  0  0  0  0  0  0
    7.5320   -3.3110   22.2330 C   0  0  0  0  0  0  0  0  0  0  0  0
  1  2  1  0
  2  3  2  0
  2  4  1  0
  4  5  1  0
  5  6  1  0
  6  7  1  0
  7  8  1  0
  8  9  2  0
  8 10  1  0
 10 11  1  0
 11 12  1  0
 12 13  1  0
 13 14  1  6
 14 15  1  0
 15 16  1  0
 13 17  1  0
 17 18  2  0
 18 19  1  0
 19 20  2  0
 20 21  1  0
 10 22  1  0
 17 22  1  0
 21 22  2  0
  7 23  1  0
  4 24  1  0
 23 24  1  0
M  END
