piperidine-amides-853-covalent
     RDKit          3D

 25 26  0  0  0  0  0  0  0  0999 V2000
    7.2240   -3.3260   19.3820 C   0  0  0  0  0  0  0  0  0  0  0  0
    6.4470   -4.0900   20.3240 C   0  0  0  0  0  0  0  0  0  0  0  0
    5.3560   -4.6160   19.9260 O   0  0  0  0  0  0  0  0  0  0  0  0
    6.9110   -4.3040   21.6360 N   0  0  0  0  0  0  0  0  0  0  0  0
    6.3790   -5.4450   22.3950 C   0  0  0  0  0  0  0  0  0  0  0  0
    5.4730   -4.6520   23.4090 C   0  0  0  0  0  0  0  0  0  0  0  0
    6.3760   -3.6530   24.1130 C   0  0  0  0  0  0  0  0  0  0  0  0
    5.6480   -3.0510   25.3920 C   0  0  0  0  0  0  0  0  0  0  0  0
    5.0150   -2.0520   25.0930 O   0  0  0  0  0  0  0  0  0  0  0  0
    5.8940   -3.7760   26.4020 N   0  0  0  0  0  0  0  0  0  0  0  0
    6.0780   -4.5520   27.5010 C   0  0  0  0  0  0  0  0  0  0  0  0
    6.0040   -5.8480   27.9320 C   0  0  0  0  0  0  0  0  0  0  0  0
    4.8570   -6.5580   27.5290 O   0  0  0  0  0  0  0  0  0  0  0  0
    4.0800   -7.0910   28.5410 C   0  0  0  0  0  0  0  0  0  0  0  0
    4.3570   -7.2630   29.8280 N   0  0  0  0  0  0  0  0  0  0  0  0
    3.3460   -7.8430   30.6440 C   0  0  0  0  0  0  0  0  0  0  0  0
    1.9170   -8.3020   30.1470 C   0  0  0  0  0  0  0  0  0  0  0  0
    1.7470   -8.0690   28.7750 C   0  0  0  0  0  0  0  0  0  0  0  0
    2.7660   -7.5100   28.0680 C   0  0  0  0  0  0  0  0  0  0  0  0
    2.1610   -7.4410   26.6530 C   0  0  0  0  0  0  0  0  0  0  0  0
    2.9490   -7.7080   25.5940 F   0  0  0  0  0  0  0  0  0  0  0  0
    1.1070   -8.3830   26.5050 F   0  0  0  0  0  0  0  0  0  0  0  0
    1.6680   -6.1600   26.4910 F   0  0  0  0  0  0  0  0  0  0  0  0
    6.9870   -2.6630   23.1690 C   0  0  0  0  0  0  0  0  0  0  0  0
    7.7630   -3.3600   22.2920 C   0  0  0  0  0  0  0  0  0  0  0  0
  1  2  1  0
  2  3  2  0
  2  4  1  0
  4  5  1  0
  5  6  1  0
  6  7  1  0
  7  8  1  0
  8  9  2  0
  8 10  1  0
 10 11  1  0
 11 12  1  0
 12 13  1  0
 13 14  1  0
 14 15  2  0
 15 16  1  0
 16 17  2  0
 17 18  1  0
 14 19  1  0
 18 19  2  0
 19 20  1  0
 20 21  1  0
 20 22  1  0
 20 23  1  0
  7 24  1  0
  4 25  1  0
 24 25  1  0
M  END
