piperidine-amides-10850-covalent
     RDKit          3D

 22 23  0  0  0  0  0  0  0  0999 V2000
    7.0600   -3.3000   19.2980 C   0  0  0  0  0  0  0  0  0  0  0  0
    6.3520   -4.0850   20.3170 C   0  0  0  0  0  0  0  0  0  0  0  0
    5.3710   -4.7630   19.9640 O   0  0  0  0  0  0  0  0  0  0  0  0
    6.7760   -4.1260   21.6670 N   0  0  0  0  0  0  0  0  0  0  0  0
    7.6970   -3.1370   22.2100 C   0  0  0  0  0  0  0  0  0  0  0  0
    7.4450   -3.0720   23.6930 C   0  0  0  0  0  0  0  0  0  0  0  0
    6.0890   -3.6090   24.0260 C   0  0  0  0  0  0  0  0  0  0  0  0
    5.5970   -3.3440   25.4120 C   0  0  0  0  0  0  0  0  0  0  0  0
    4.3490   -3.3350   25.6240 O   0  0  0  0  0  0  0  0  0  0  0  0
    6.4220   -3.0840   26.5400 N   0  0  0  0  0  0  0  0  0  0  0  0
    6.2610   -3.8220   27.8340 C   0  0  2  0  0  0  0  0  0  0  0  0
    5.7570   -5.1990   27.5880 C   0  0  0  0  0  0  0  0  0  0  0  0
    5.3380   -3.0810   28.8100 C   0  0  0  0  0  0  0  0  0  0  0  0
    4.1910   -3.8450   29.3200 C   0  0  0  0  0  0  0  0  0  0  0  0
    3.5810   -2.8840   30.1750 N   0  0  0  0  0  0  0  0  0  0  0  0
    4.2680   -1.7290   30.1700 N   0  0  0  0  0  0  0  0  0  0  0  0
    3.8120   -0.7340   30.9350 C   0  0  0  0  0  0  0  0  0  0  0  0
    2.8420   -0.8520   32.0460 C   0  0  0  0  0  0  0  0  0  0  0  0
    5.0730   -0.2770   31.6890 C   0  0  0  0  0  0  0  0  0  0  0  0
    5.3520   -1.8270   29.3370 C   0  0  0  0  0  0  0  0  0  0  0  0
    5.9690   -5.1120   23.7360 C   0  0  0  0  0  0  0  0  0  0  0  0
    6.6200   -5.3850   22.3680 C   0  0  0  0  0  0  0  0  0  0  0  0
  1  2  1  0
  2  3  2  0
  2  4  1  0
  4  5  1  0
  5  6  1  0
  6  7  1  0
  7  8  1  0
  8  9  2  0
  8 10  1  0
 10 11  1  0
 11 12  1  6
 11 13  1  0
 13 14  1  0
 14 15  2  0
 15 16  1  0
 16 17  1  0
 17 18  1  0
 17 19  1  0
 13 20  2  0
 16 20  1  0
  7 21  1  0
  4 22  1  0
 21 22  1  0
M  END
