piperidine-amides-3978-covalent
     RDKit          3D

 29 32  0  0  0  0  0  0  0  0999 V2000
    7.1070   -3.3110   19.2570 C   0  0  0  0  0  0  0  0  0  0  0  0
    6.3980   -4.1110   20.2660 C   0  0  0  0  0  0  0  0  0  0  0  0
    5.3230   -4.6560   19.9220 O   0  0  0  0  0  0  0  0  0  0  0  0
    6.9530   -4.2970   21.5450 N   0  0  0  0  0  0  0  0  0  0  0  0
    6.5130   -5.4040   22.3150 C   0  0  0  0  0  0  0  0  0  0  0  0
    6.0690   -5.0520   23.6570 C   0  0  0  0  0  0  0  0  0  0  0  0
    6.6420   -3.8030   24.2070 C   0  0  0  0  0  0  0  0  0  0  0  0
    5.7640   -3.2640   25.2900 C   0  0  0  0  0  0  0  0  0  0  0  0
    4.5410   -3.1680   25.0720 O   0  0  0  0  0  0  0  0  0  0  0  0
    6.2760   -2.8680   26.5420 N   0  0  0  0  0  0  0  0  0  0  0  0
    5.7430   -1.8870   27.4120 C   0  0  0  0  0  0  0  0  0  0  0  0
    4.3510   -2.1580   27.8100 C   0  0  0  0  0  0  0  0  0  0  0  0
    3.9120   -3.2080   28.5550 N   0  0  0  0  0  0  0  0  0  0  0  0
    2.5350   -3.0850   28.7030 O   0  0  0  0  0  0  0  0  0  0  0  0
    2.1320   -1.9660   28.0520 C   0  0  0  0  0  0  0  0  0  0  0  0
    0.7730   -1.7120   28.1150 C   0  0  2  0  0  0  0  0  0  0  0  0
    0.4940   -2.4470   26.7920 C   0  0  0  0  0  0  0  0  0  0  0  0
   -0.9190   -1.9100   26.7590 C   0  0  0  0  0  0  0  0  0  0  0  0
   -0.4210   -0.5390   27.2250 C   0  0  0  0  0  0  0  0  0  0  0  0
    0.4850   -0.5210   28.0510 O   0  0  0  0  0  0  0  0  0  0  0  0
    3.2460   -1.4140   27.5120 N   0  0  0  0  0  0  0  0  0  0  0  0
    6.5640   -2.1340   28.6500 C   0  0  0  0  0  0  0  0  0  0  0  0
    7.4490   -0.9530   28.9210 C   0  0  0  0  0  0  0  0  0  0  0  0
    6.7630    0.1110   29.7750 C   0  0  0  0  0  0  0  0  0  0  0  0
    6.1390    1.0230   28.7930 C   0  0  0  0  0  0  0  0  0  0  0  0
    5.3340    0.3600   27.8640 C   0  0  0  0  0  0  0  0  0  0  0  0
    5.9880   -0.5650   27.0660 C   0  0  0  0  0  0  0  0  0  0  0  0
    6.8490   -2.7550   23.1750 C   0  0  0  0  0  0  0  0  0  0  0  0
    7.6870   -3.2410   22.1950 C   0  0  0  0  0  0  0  0  0  0  0  0
  1  2  1  0
  2  3  2  0
  2  4  1  0
  4  5  1  0
  5  6  1  0
  6  7  1  0
  7  8  1  0
  8  9  2  0
  8 10  1  0
 11 10  1  0
 11 12  1  0
 12 13  2  0
 13 14  1  0
 14 15  1  0
 16 15  1  6
 16 17  1  0
 17 18  1  0
 18 19  1  0
 16 20  1  0
 19 20  1  0
 12 21  1  0
 15 21  2  0
 11 22  1  0
 22 23  1  0
 23 24  1  0
 24 25  1  0
 25 26  1  0
 11 27  1  0
 26 27  1  0
  7 28  1  0
  4 29  1  0
 28 29  1  0
M  END
