piperidine-amides-6598-covalent
     RDKit          3D

 24 25  0  0  0  0  0  0  0  0999 V2000
    7.1110   -3.2970   19.2090 C   0  0  0  0  0  0  0  0  0  0  0  0
    6.4030   -4.0890   20.2290 C   0  0  0  0  0  0  0  0  0  0  0  0
    5.3430   -4.6830   19.9370 O   0  0  0  0  0  0  0  0  0  0  0  0
    6.9370   -4.2320   21.5160 N   0  0  0  0  0  0  0  0  0  0  0  0
    7.7560   -3.1890   22.0900 C   0  0  0  0  0  0  0  0  0  0  0  0
    6.9090   -2.5520   23.1820 C   0  0  0  0  0  0  0  0  0  0  0  0
    6.6500   -3.6500   24.1800 C   0  0  0  0  0  0  0  0  0  0  0  0
    5.8330   -3.1170   25.2800 C   0  0  0  0  0  0  0  0  0  0  0  0
    4.7910   -2.4920   24.9940 O   0  0  0  0  0  0  0  0  0  0  0  0
    6.2290   -3.3360   26.6090 N   0  0  0  0  0  0  0  0  0  0  0  0
    5.7680   -4.5440   27.2080 C   0  0  0  0  0  0  0  0  0  0  0  0
    6.2260   -4.6360   28.6400 C   0  0  2  0  0  0  0  0  0  0  0  0
    5.8940   -5.7480   29.3770 C   0  0  0  0  0  0  0  0  0  0  0  0
    4.8350   -6.5460   28.9930 C   0  0  2  0  0  0  0  0  0  0  0  0
    4.8420   -6.9350   27.6590 C   0  0  0  0  0  0  0  0  0  0  0  0
    3.6270   -6.1140   29.5240 O   0  0  0  0  0  0  0  0  0  0  0  0
    5.6810   -3.3940   29.2620 C   0  0  0  0  0  0  0  0  0  0  0  0
    6.5270   -2.1340   29.2290 C   0  0  0  0  0  0  0  0  0  0  0  0
    5.6130   -1.1530   29.9570 C   0  0  0  0  0  0  0  0  0  0  0  0
    4.2760   -1.0080   30.6390 C   0  0  0  0  0  0  0  0  0  0  0  0
    3.7490   -2.3590   30.4880 C   0  0  0  0  0  0  0  0  0  0  0  0
    4.4090   -3.4060   29.8640 C   0  0  0  0  0  0  0  0  0  0  0  0
    5.8220   -4.7610   23.5280 C   0  0  0  0  0  0  0  0  0  0  0  0
    6.5600   -5.3460   22.3480 C   0  0  0  0  0  0  0  0  0  0  0  0
  1  2  1  0
  2  3  2  0
  2  4  1  0
  4  5  1  0
  5  6  1  0
  6  7  1  0
  7  8  1  0
  8  9  2  0
  8 10  1  0
 10 11  1  0
 12 11  1  6
 12 13  1  0
 13 14  1  0
 14 15  1  6
 14 16  1  0
 12 17  1  0
 17 18  2  0
 18 19  1  0
 19 20  2  0
 20 21  1  0
 17 22  1  0
 21 22  2  0
  7 23  1  0
  4 24  1  0
 23 24  1  0
M  END
