piperidine-amides-33547-covalent
     RDKit          3D

 28 30  0  0  0  0  0  0  0  0999 V2000
    7.1450   -3.2930   19.2570 C   0  0  0  0  0  0  0  0  0  0  0  0
    6.4050   -4.0850   20.2490 C   0  0  0  0  0  0  0  0  0  0  0  0
    5.3090   -4.5750   19.8930 O   0  0  0  0  0  0  0  0  0  0  0  0
    6.9460   -4.3390   21.5250 N   0  0  0  0  0  0  0  0  0  0  0  0
    6.5240   -5.5020   22.2080 C   0  0  0  0  0  0  0  0  0  0  0  0
    6.0560   -5.2210   23.5510 C   0  0  0  0  0  0  0  0  0  0  0  0
    6.7270   -4.0760   24.1900 C   0  0  0  0  0  0  0  0  0  0  0  0
    5.9320   -3.6170   25.3580 C   0  0  0  0  0  0  0  0  0  0  0  0
    4.9260   -2.8960   25.1900 O   0  0  0  0  0  0  0  0  0  0  0  0
    6.3060   -4.0140   26.6430 N   0  0  0  0  0  0  0  0  0  0  0  0
    5.4320   -4.6470   27.5590 C   0  0  0  0  0  0  0  0  0  0  0  0
    5.6410   -4.5560   28.9930 C   0  0  0  0  0  0  0  0  0  0  0  0
    5.5420   -3.0690   29.3020 C   0  0  0  0  0  0  0  0  0  0  0  0
    6.7190   -2.5100   28.6680 N   0  0  0  0  0  0  0  0  0  0  0  0
    7.3590   -1.1280   29.3860 S   0  0  0  0  0  0  0  0  0  0  0  0
    7.2890    0.0110   28.4270 O   0  0  0  0  0  0  0  0  0  0  0  0
    8.7890   -1.3030   29.7090 O   0  0  0  0  0  0  0  0  0  0  0  0
    6.4810   -0.5980   30.8420 C   0  0  0  0  0  0  0  0  0  0  0  0
    7.3290    0.0400   31.9600 C   0  0  0  0  0  0  0  0  0  0  0  0
    6.5280    0.4750   33.1870 C   0  0  0  0  0  0  0  0  0  0  0  0
    4.9960    0.2150   33.1270 C   0  0  0  0  0  0  0  0  0  0  0  0
    4.2230    0.5820   34.1900 F   0  0  0  0  0  0  0  0  0  0  0  0
    4.2760   -0.4140   31.9820 C   0  0  0  0  0  0  0  0  0  0  0  0
    5.1450   -0.7980   30.8460 C   0  0  0  0  0  0  0  0  0  0  0  0
    7.7260   -3.4490   28.3290 C   0  0  0  0  0  0  0  0  0  0  0  0
    7.7060   -3.9430   26.9490 C   0  0  0  0  0  0  0  0  0  0  0  0
    6.9970   -2.9350   23.2640 C   0  0  0  0  0  0  0  0  0  0  0  0
    7.7570   -3.3510   22.1950 C   0  0  0  0  0  0  0  0  0  0  0  0
  1  2  1  0
  2  3  2  0
  2  4  1  0
  4  5  1  0
  5  6  1  0
  6  7  1  0
  7  8  1  0
  8  9  2  0
  8 10  1  0
 10 11  1  0
 11 12  1  0
 12 13  1  0
 13 14  1  0
 14 15  1  0
 15 16  2  0
 15 17  2  0
 15 18  1  0
 18 19  2  0
 19 20  1  0
 20 21  2  0
 21 22  1  0
 21 23  1  0
 18 24  1  0
 23 24  2  0
 14 25  1  0
 10 26  1  0
 25 26  1  0
  7 27  1  0
  4 28  1  0
 27 28  1  0
M  END
