piperidine-amides-17085-covalent
     RDKit          3D

 20 22  0  0  0  0  0  0  0  0999 V2000
    7.1580   -3.3290   19.2380 C   0  0  0  0  0  0  0  0  0  0  0  0
    6.4580   -4.1480   20.2350 C   0  0  0  0  0  0  0  0  0  0  0  0
    5.3440   -4.6320   19.9210 O   0  0  0  0  0  0  0  0  0  0  0  0
    7.0830   -4.4270   21.4660 N   0  0  0  0  0  0  0  0  0  0  0  0
    6.5970   -5.5200   22.2240 C   0  0  0  0  0  0  0  0  0  0  0  0
    6.0180   -5.1300   23.4970 C   0  0  0  0  0  0  0  0  0  0  0  0
    6.5630   -3.9030   24.1190 C   0  0  0  0  0  0  0  0  0  0  0  0
    5.5980   -3.4090   25.1180 C   0  0  0  0  0  0  0  0  0  0  0  0
    4.5750   -2.8170   24.7390 O   0  0  0  0  0  0  0  0  0  0  0  0
    5.7960   -3.5890   26.4670 N   0  0  0  0  0  0  0  0  0  0  0  0
    6.4330   -2.6600   27.2580 C   0  0  0  0  0  0  0  0  0  0  0  0
    6.7290   -3.0650   28.5960 C   0  0  1  0  0  0  0  0  0  0  0  0
    5.5900   -2.4190   29.3480 C   0  0  0  0  0  0  0  0  0  0  0  0
    4.4510   -3.2030   29.3630 C   0  0  1  0  0  0  0  0  0  0  0  0
    3.4780   -2.5010   28.6890 F   0  0  0  0  0  0  0  0  0  0  0  0
    4.9470   -4.5060   28.6400 C   0  0  2  0  0  0  0  0  0  0  0  0
    6.4250   -4.4690   28.8520 C   0  0  0  0  0  0  0  0  0  0  0  0
    4.7440   -4.3010   27.1270 C   0  0  0  0  0  0  0  0  0  0  0  0
    6.9480   -2.7880   23.1930 C   0  0  0  0  0  0  0  0  0  0  0  0
    7.8190   -3.3830   22.1360 C   0  0  0  0  0  0  0  0  0  0  0  0
  1  2  1  0
  2  3  2  0
  2  4  1  0
  4  5  1  0
  5  6  1  0
  6  7  1  0
  7  8  1  0
  8  9  2  0
  8 10  1  0
 10 11  1  0
 12 11  1  6
 12 13  1  0
 13 14  1  0
 14 15  1  6
 14 16  1  0
 12 17  1  0
 16 17  1  0
 10 18  1  0
 16 18  1  6
  7 19  1  0
  4 20  1  0
 19 20  1  0
M  END
