piperidine-amides-35673-covalent
     RDKit          3D

 42 46  0  0  0  0  0  0  0  0999 V2000
    7.0920   -3.2800   19.1970 C   0  0  0  0  0  0  0  0  0  0  0  0
    6.3660   -4.0610   20.2290 C   0  0  0  0  0  0  0  0  0  0  0  0
    5.2970   -4.5620   19.8910 O   0  0  0  0  0  0  0  0  0  0  0  0
    6.9210   -4.2560   21.4980 N   0  0  0  0  0  0  0  0  0  0  0  0
    7.7190   -3.2550   22.1530 C   0  0  0  0  0  0  0  0  0  0  0  0
    6.9940   -2.7530   23.3650 C   0  0  0  0  0  0  0  0  0  0  0  0
    6.4690   -3.9150   24.2200 C   0  0  0  0  0  0  0  0  0  0  0  0
    5.7470   -3.3310   25.3820 C   0  0  0  0  0  0  0  0  0  0  0  0
    4.5530   -3.0400   25.2380 O   0  0  0  0  0  0  0  0  0  0  0  0
    6.3600   -3.0890   26.6410 N   0  0  0  0  0  0  0  0  0  0  0  0
    6.1810   -4.0330   27.7450 C   0  0  0  0  0  0  0  0  0  0  0  0
    5.8110   -5.4070   27.2030 C   0  0  0  0  0  0  0  0  0  0  0  0
    5.1730   -5.4550   25.9840 O   0  0  0  0  0  0  0  0  0  0  0  0
    6.1880   -6.5490   28.0530 N   0  0  0  0  0  0  0  0  0  0  0  0
    5.0390   -6.8880   28.9110 C   0  0  0  0  0  0  0  0  0  0  0  0
    5.5250   -6.9490   30.1450 C   0  0  0  0  0  0  0  0  0  0  0  0
    4.7020   -7.2470   31.1380 C   0  0  0  0  0  0  0  0  0  0  0  0
    5.3190   -7.3390   32.7780 Cl  0  0  0  0  0  0  0  0  0  0  0  0
    3.2430   -7.5360   31.0390 C   0  0  0  0  0  0  0  0  0  0  0  0
    2.7680   -7.4450   29.5950 C   0  0  0  0  0  0  0  0  0  0  0  0
    3.6430   -7.1040   28.3620 C   0  0  0  0  0  0  0  0  0  0  0  0
    3.1520   -7.0460   27.1020 N   0  0  0  0  0  0  0  0  0  0  0  0
    1.7920   -6.6910   26.7600 C   0  0  0  0  0  0  0  0  0  0  0  0
    1.5260   -6.7090   25.3760 N   0  0  0  0  0  0  0  0  0  0  0  0
    2.8710   -7.1100   24.9640 C   0  0  0  0  0  0  0  0  0  0  0  0
    3.7940   -7.3000   25.9370 N   0  0  0  0  0  0  0  0  0  0  0  0
    6.3110   -1.7710   27.3170 C   0  0  2  0  0  0  0  0  0  0  0  0
    5.2150   -1.6440   28.3240 C   0  0  0  0  0  0  0  0  0  0  0  0
    3.7830   -1.8120   27.8680 C   0  0  0  0  0  0  0  0  0  0  0  0
    2.7820   -1.6790   28.8010 C   0  0  0  0  0  0  0  0  0  0  0  0
    3.0570   -1.3740   30.2470 C   0  0  0  0  0  0  0  0  0  0  0  0
    4.4980   -1.2000   30.7560 C   0  0  0  0  0  0  0  0  0  0  0  0
    5.5240   -1.3710   29.6310 C   0  0  0  0  0  0  0  0  0  0  0  0
    4.7130   -0.9160   32.1120 O   0  0  0  0  0  0  0  0  0  0  0  0
    3.8150   -1.7070   32.8710 C   0  0  0  0  0  0  0  0  0  0  0  0
    2.3700   -1.3340   32.5510 C   0  0  0  0  0  0  0  0  0  0  0  0
    2.0850   -1.2310   31.2000 O   0  0  0  0  0  0  0  0  0  0  0  0
    6.0050   -0.6350   26.3780 C   0  0  0  0  0  0  0  0  0  0  0  0
    6.6130   -0.6530   24.9890 C   0  0  0  0  0  0  0  0  0  0  0  0
    6.0760    0.5300   27.1250 C   0  0  0  0  0  0  0  0  0  0  0  0
    5.6820   -4.8860   23.3950 C   0  0  0  0  0  0  0  0  0  0  0  0
    6.5570   -5.4080   22.2600 C   0  0  0  0  0  0  0  0  0  0  0  0
  1  2  1  0
  2  3  2  0
  2  4  1  0
  4  5  1  0
  5  6  1  0
  6  7  1  0
  7  8  1  0
  8  9  2  0
  8 10  1  0
 10 11  1  0
 11 12  1  0
 12 13  2  0
 12 14  1  0
 14 15  1  0
 15 16  2  0
 16 17  1  0
 17 18  1  0
 17 19  2  0
 19 20  1  0
 15 21  1  0
 20 21  2  0
 21 22  1  0
 22 23  1  0
 23 24  2  0
 24 25  1  0
 22 26  1  0
 25 26  2  0
 10 27  1  0
 27 28  1  0
 28 29  2  0
 29 30  1  0
 30 31  2  0
 31 32  1  0
 28 33  1  0
 32 33  2  0
 32 34  1  0
 34 35  1  0
 35 36  1  0
 31 37  1  0
 36 37  1  0
 27 38  1  6
 38 39  1  0
 38 40  1  0
  7 41  1  0
  4 42  1  0
 41 42  1  0
M  END
