piperidine-amides-26945-covalent
     RDKit          3D

 25 27  0  0  0  0  0  0  0  0999 V2000
    7.0560   -3.4110   19.4530 C   0  0  0  0  0  0  0  0  0  0  0  0
    6.3870   -4.2890   20.4090 C   0  0  0  0  0  0  0  0  0  0  0  0
    5.3590   -4.8820   19.9910 O   0  0  0  0  0  0  0  0  0  0  0  0
    6.9220   -4.4830   21.6960 N   0  0  0  0  0  0  0  0  0  0  0  0
    6.6830   -5.6970   22.4410 C   0  0  0  0  0  0  0  0  0  0  0  0
    6.2680   -5.2900   23.8310 C   0  0  0  0  0  0  0  0  0  0  0  0
    5.7640   -3.8790   23.8050 C   0  0  0  0  0  0  0  0  0  0  0  0
    5.1960   -3.3900   25.0910 C   0  0  0  0  0  0  0  0  0  0  0  0
    4.3850   -2.4540   25.0090 O   0  0  0  0  0  0  0  0  0  0  0  0
    5.4680   -3.8420   26.3930 N   0  0  0  0  0  0  0  0  0  0  0  0
    6.8040   -4.0980   26.7340 C   0  0  0  0  0  0  0  0  0  0  0  0
    6.9550   -5.2190   27.7510 C   0  0  0  0  0  0  0  0  0  0  0  0
    6.2870   -5.1090   28.9240 C   0  0  0  0  0  0  0  0  0  0  0  0
    5.9920   -6.2540   29.6330 C   0  0  0  0  0  0  0  0  0  0  0  0
    6.7460   -7.2210   29.2170 O   0  0  0  0  0  0  0  0  0  0  0  0
    5.0730   -6.3590   30.6290 N   0  0  0  0  0  0  0  0  0  0  0  0
    3.8940   -5.7000   30.5850 C   0  0  0  0  0  0  0  0  0  0  0  0
    3.3180   -5.4940   31.8370 C   0  0  0  0  0  0  0  0  0  0  0  0
    3.3290   -6.4480   32.6500 O   0  0  0  0  0  0  0  0  0  0  0  0
    4.4330   -7.3120   32.6230 C   0  0  0  0  0  0  0  0  0  0  0  0
    4.9450   -7.5460   31.2290 C   0  0  0  0  0  0  0  0  0  0  0  0
    5.2900   -4.2080   28.7930 C   0  0  0  0  0  0  0  0  0  0  0  0
    5.3460   -3.1790   27.6860 C   0  0  0  0  0  0  0  0  0  0  0  0
    6.8180   -2.9060   23.3520 C   0  0  0  0  0  0  0  0  0  0  0  0
    7.6720   -3.4390   22.4070 C   0  0  0  0  0  0  0  0  0  0  0  0
  1  2  1  0
  2  3  2  0
  2  4  1  0
  4  5  1  0
  5  6  1  0
  6  7  1  0
  7  8  1  0
  8  9  2  0
  8 10  1  0
 10 11  1  0
 11 12  1  0
 12 13  1  0
 13 14  1  0
 14 15  2  0
 14 16  1  0
 16 17  1  0
 17 18  1  0
 18 19  1  0
 19 20  1  0
 16 21  1  0
 20 21  1  0
 13 22  1  0
 10 23  1  0
 22 23  1  0
  7 24  1  0
  4 25  1  0
 24 25  1  0
M  END
