piperidine-amides-7371-covalent
     RDKit          3D

 20 21  0  0  0  0  0  0  0  0999 V2000
    7.1030   -3.2740   19.2370 C   0  0  0  0  0  0  0  0  0  0  0  0
    6.3610   -4.0400   20.2440 C   0  0  0  0  0  0  0  0  0  0  0  0
    5.2710   -4.5400   19.8760 O   0  0  0  0  0  0  0  0  0  0  0  0
    6.8850   -4.2380   21.5240 N   0  0  0  0  0  0  0  0  0  0  0  0
    6.5340   -5.3930   22.3080 C   0  0  0  0  0  0  0  0  0  0  0  0
    5.8450   -4.9040   23.5550 C   0  0  0  0  0  0  0  0  0  0  0  0
    6.6120   -3.7990   24.2400 C   0  0  0  0  0  0  0  0  0  0  0  0
    5.8500   -3.2610   25.3920 C   0  0  0  0  0  0  0  0  0  0  0  0
    4.6170   -3.0960   25.2450 O   0  0  0  0  0  0  0  0  0  0  0  0
    6.4280   -2.9320   26.6410 N   0  0  0  0  0  0  0  0  0  0  0  0
    6.1580   -3.7180   27.8220 C   0  0  0  0  0  0  0  0  0  0  0  0
    5.4080   -2.9450   28.9010 C   0  0  0  0  0  0  0  0  0  0  0  0
    4.1770   -3.0720   29.4720 C   0  0  0  0  0  0  0  0  0  0  0  0
    3.9450   -2.1350   30.4050 N   0  0  0  0  0  0  0  0  0  0  0  0
    5.0390   -1.3550   30.4750 C   0  0  0  0  0  0  0  0  0  0  0  0
    5.3500   -0.2520   31.2590 C   0  0  0  0  0  0  0  0  0  0  0  0
    5.9620   -1.8030   29.5760 N   0  0  0  0  0  0  0  0  0  0  0  0
    7.2910   -1.3120   29.2570 C   0  0  0  0  0  0  0  0  0  0  0  0
    6.8670   -2.6100   23.3250 C   0  0  0  0  0  0  0  0  0  0  0  0
    7.6090   -3.1140   22.1200 C   0  0  0  0  0  0  0  0  0  0  0  0
  1  2  1  0
  2  3  2  0
  2  4  1  0
  4  5  1  0
  5  6  1  0
  6  7  1  0
  7  8  1  0
  8  9  2  0
  8 10  1  0
 10 11  1  0
 11 12  1  0
 12 13  2  0
 13 14  1  0
 14 15  2  0
 15 16  1  0
 12 17  1  0
 15 17  1  0
 17 18  1  0
  7 19  1  0
  4 20  1  0
 19 20  1  0
M  END
