piperidine-amides-9006-covalent
     RDKit          3D

 21 21  0  0  0  0  0  0  0  0999 V2000
    7.0980   -3.2860   19.2480 C   0  0  0  0  0  0  0  0  0  0  0  0
    6.3650   -4.0490   20.2620 C   0  0  0  0  0  0  0  0  0  0  0  0
    5.3310   -4.6490   19.9280 O   0  0  0  0  0  0  0  0  0  0  0  0
    6.8340   -4.1560   21.5880 N   0  0  0  0  0  0  0  0  0  0  0  0
    6.6110   -5.3470   22.3770 C   0  0  0  0  0  0  0  0  0  0  0  0
    5.8170   -4.9130   23.5880 C   0  0  0  0  0  0  0  0  0  0  0  0
    6.0850   -3.4790   23.9450 C   0  0  0  0  0  0  0  0  0  0  0  0
    5.6520   -3.1140   25.3190 C   0  0  0  0  0  0  0  0  0  0  0  0
    4.6050   -2.4190   25.4700 O   0  0  0  0  0  0  0  0  0  0  0  0
    6.3150   -3.4930   26.5080 N   0  0  0  0  0  0  0  0  0  0  0  0
    5.7710   -4.6300   27.2850 C   0  0  0  0  0  0  0  0  0  0  0  0
    4.3140   -4.4000   27.3790 C   0  0  0  0  0  0  0  0  0  0  0  0
    5.9170   -5.9310   26.5230 C   0  0  0  0  0  0  0  0  0  0  0  0
    6.3170   -4.8530   28.6630 C   0  0  0  0  0  0  0  0  0  0  0  0
    5.4520   -5.1920   29.7580 N   0  0  0  0  0  0  0  0  0  0  0  0
    5.0940   -6.7300   29.6520 S   0  0  0  0  0  0  0  0  0  0  0  0
    3.7110   -7.1120   30.5960 N   0  0  0  0  0  0  0  0  0  0  0  0
    4.9180   -7.0950   28.2330 O   0  0  0  0  0  0  0  0  0  0  0  0
    6.2330   -7.5110   30.2660 O   0  0  0  0  0  0  0  0  0  0  0  0
    7.4320   -2.9800   23.5820 C   0  0  0  0  0  0  0  0  0  0  0  0
    7.7380   -3.1870   22.1500 C   0  0  0  0  0  0  0  0  0  0  0  0
  1  2  1  0
  2  3  2  0
  2  4  1  0
  4  5  1  0
  5  6  1  0
  6  7  1  0
  7  8  1  0
  8  9  2  0
  8 10  1  0
 11 10  1  0
 11 12  1  0
 11 13  1  0
 11 14  1  0
 14 15  1  0
 16 15  1  0
 16 17  1  0
 16 18  2  0
 16 19  2  0
  7 20  1  0
  4 21  1  0
 20 21  1  0
M  END
