piperidine-amides-23288-covalent
     RDKit          3D

 24 26  0  0  0  0  0  0  0  0999 V2000
    7.0400   -3.3780   19.4050 C   0  0  0  0  0  0  0  0  0  0  0  0
    6.4190   -4.2580   20.4110 C   0  0  0  0  0  0  0  0  0  0  0  0
    5.4370   -4.9370   20.0120 O   0  0  0  0  0  0  0  0  0  0  0  0
    6.9390   -4.3590   21.7410 N   0  0  0  0  0  0  0  0  0  0  0  0
    6.5680   -5.4880   22.5470 C   0  0  0  0  0  0  0  0  0  0  0  0
    5.9600   -5.0860   23.8120 C   0  0  0  0  0  0  0  0  0  0  0  0
    6.0790   -3.6360   23.9490 C   0  0  0  0  0  0  0  0  0  0  0  0
    5.4490   -2.9840   25.1680 C   0  0  0  0  0  0  0  0  0  0  0  0
    4.9980   -1.8460   25.0210 O   0  0  0  0  0  0  0  0  0  0  0  0
    5.2900   -3.5420   26.4540 N   0  0  0  0  0  0  0  0  0  0  0  0
    4.1060   -3.6950   27.1560 C   0  0  0  0  0  0  0  0  0  0  0  0
    4.2640   -4.0180   28.5580 C   0  0  0  0  0  0  0  0  0  0  0  0
    5.3140   -4.6890   29.0240 N   0  0  0  0  0  0  0  0  0  0  0  0
    5.1940   -5.6750   30.0400 C   0  0  0  0  0  0  0  0  0  0  0  0
    4.1490   -5.4680   30.9350 C   0  0  0  0  0  0  0  0  0  0  0  0
    3.9990   -6.5390   32.0900 C   0  0  0  0  0  0  0  0  0  0  0  0
    4.9470   -7.7330   32.2110 C   0  0  0  0  0  0  0  0  0  0  0  0
    5.9960   -7.7550   31.1250 C   0  0  0  0  0  0  0  0  0  0  0  0
    6.1250   -6.7720   30.0730 C   0  0  0  0  0  0  0  0  0  0  0  0
    6.4550   -4.5790   28.3240 C   0  0  0  0  0  0  0  0  0  0  0  0
    6.3660   -3.3970   27.3330 C   0  0  2  0  0  0  0  0  0  0  0  0
    6.5110   -2.1590   28.1420 C   0  0  0  0  0  0  0  0  0  0  0  0
    7.4720   -3.1900   23.6720 C   0  0  0  0  0  0  0  0  0  0  0  0
    7.6780   -3.2270   22.2920 C   0  0  0  0  0  0  0  0  0  0  0  0
  1  2  1  0
  2  3  2  0
  2  4  1  0
  4  5  1  0
  5  6  1  0
  6  7  1  0
  7  8  1  0
  8  9  2  0
  8 10  1  0
 10 11  1  0
 11 12  1  0
 12 13  1  0
 13 14  1  0
 14 15  2  0
 15 16  1  0
 16 17  2  0
 17 18  1  0
 14 19  1  0
 18 19  2  0
 13 20  1  0
 10 21  1  0
 20 21  1  0
 21 22  1  1
  7 23  1  0
  4 24  1  0
 23 24  1  0
M  END
