piperidine-amides-484-covalent
     RDKit          3D

 27 29  0  0  0  0  0  0  0  0999 V2000
    7.1280   -3.3570   19.2570 C   0  0  0  0  0  0  0  0  0  0  0  0
    6.3770   -4.0550   20.2720 C   0  0  0  0  0  0  0  0  0  0  0  0
    5.2820   -4.5850   19.9140 O   0  0  0  0  0  0  0  0  0  0  0  0
    6.8360   -4.2340   21.5950 N   0  0  0  0  0  0  0  0  0  0  0  0
    7.7420   -3.2190   22.1780 C   0  0  0  0  0  0  0  0  0  0  0  0
    6.8150   -2.6960   23.3310 C   0  0  0  0  0  0  0  0  0  0  0  0
    6.5720   -3.8940   24.2250 C   0  0  0  0  0  0  0  0  0  0  0  0
    5.8900   -3.4280   25.5850 C   0  0  0  0  0  0  0  0  0  0  0  0
    5.0530   -2.5590   25.3710 O   0  0  0  0  0  0  0  0  0  0  0  0
    6.3960   -4.0970   26.5550 N   0  0  0  0  0  0  0  0  0  0  0  0
    6.8720   -4.8350   27.6020 C   0  0  2  0  0  0  0  0  0  0  0  0
    7.8730   -5.7400   27.8510 C   0  0  0  0  0  0  0  0  0  0  0  0
    5.7020   -5.5470   28.2220 C   0  0  0  0  0  0  0  0  0  0  0  0
    4.8160   -6.2910   27.5430 N   0  0  0  0  0  0  0  0  0  0  0  0
    4.0540   -6.6450   28.5890 C   0  0  0  0  0  0  0  0  0  0  0  0
    2.8290   -7.5500   28.3720 C   0  0  0  0  0  0  0  0  0  0  0  0
    2.8310   -7.7500   26.9650 C   0  0  0  0  0  0  0  0  0  0  0  0
    1.9490   -8.5040   26.0840 C   0  0  0  0  0  0  0  0  0  0  0  0
    0.9840   -9.0310   27.1930 C   0  0  0  0  0  0  0  0  0  0  0  0
    0.9940   -8.8050   28.7210 C   0  0  0  0  0  0  0  0  0  0  0  0
    1.9220   -8.0640   29.2920 C   0  0  0  0  0  0  0  0  0  0  0  0
    1.9850   -7.8430   30.5320 O   0  0  0  0  0  0  0  0  0  0  0  0
    1.6190   -8.8170   31.4840 C   0  0  0  0  0  0  0  0  0  0  0  0
    4.2930   -6.2650   29.8090 N   0  0  0  0  0  0  0  0  0  0  0  0
    5.3770   -5.5350   29.6220 O   0  0  0  0  0  0  0  0  0  0  0  0
    5.8750   -5.0580   23.5220 C   0  0  0  0  0  0  0  0  0  0  0  0
    6.5230   -5.4130   22.3610 C   0  0  0  0  0  0  0  0  0  0  0  0
  1  2  1  0
  2  3  2  0
  2  4  1  0
  4  5  1  0
  5  6  1  0
  6  7  1  0
  7  8  1  0
  8  9  2  0
  8 10  1  0
 10 11  1  0
 11 12  1  6
 11 13  1  0
 13 14  2  0
 14 15  1  0
 15 16  1  0
 16 17  2  0
 17 18  1  0
 18 19  2  0
 19 20  1  0
 16 21  1  0
 20 21  2  0
 21 22  1  0
 22 23  1  0
 15 24  2  0
 13 25  1  0
 24 25  1  0
  7 26  1  0
  4 27  1  0
 26 27  1  0
M  END
