piperidine-amides-31767-covalent
     RDKit          3D

 28 31  0  0  0  0  0  0  0  0999 V2000
    7.0110   -3.4300   19.3440 C   0  0  0  0  0  0  0  0  0  0  0  0
    6.3130   -4.1960   20.3510 C   0  0  0  0  0  0  0  0  0  0  0  0
    5.3050   -4.8590   19.9730 O   0  0  0  0  0  0  0  0  0  0  0  0
    6.7190   -4.2830   21.6960 N   0  0  0  0  0  0  0  0  0  0  0  0
    6.6380   -5.6260   22.3290 C   0  0  0  0  0  0  0  0  0  0  0  0
    5.7960   -5.3650   23.6480 C   0  0  0  0  0  0  0  0  0  0  0  0
    5.9520   -3.9070   23.9770 C   0  0  0  0  0  0  0  0  0  0  0  0
    5.2970   -3.4860   25.3750 C   0  0  0  0  0  0  0  0  0  0  0  0
    4.3100   -2.7950   25.1790 O   0  0  0  0  0  0  0  0  0  0  0  0
    5.9640   -3.9680   26.3480 N   0  0  0  0  0  0  0  0  0  0  0  0
    6.9420   -4.5450   27.0350 C   0  0  0  0  0  0  0  0  0  0  0  0
    7.1140   -5.5410   27.9260 C   0  0  0  0  0  0  0  0  0  0  0  0
    6.2690   -5.1920   28.9810 C   0  0  0  0  0  0  0  0  0  0  0  0
    5.0070   -4.6580   28.4230 C   0  0  1  0  0  0  0  0  0  0  0  0
    3.9030   -4.5130   29.2980 N   0  0  0  0  0  0  0  0  0  0  0  0
    3.8400   -3.7000   30.5080 C   0  0  0  0  0  0  0  0  0  0  0  0
    4.3400   -2.4280   30.8780 O   0  0  0  0  0  0  0  0  0  0  0  0
    3.0920   -4.4290   31.4330 C   0  0  0  0  0  0  0  0  0  0  0  0
    2.6310   -5.5640   30.7490 C   0  0  0  0  0  0  0  0  0  0  0  0
    3.6070   -5.8400   31.8910 C   0  0  0  0  0  0  0  0  0  0  0  0
    2.9570   -7.0120   32.6430 C   0  0  0  0  0  0  0  0  0  0  0  0
    1.7650   -7.1990   32.0040 C   0  0  0  0  0  0  0  0  0  0  0  0
    1.4340   -6.2270   31.0640 C   0  0  0  0  0  0  0  0  0  0  0  0
    3.0500   -5.6440   29.4520 C   0  0  0  0  0  0  0  0  0  0  0  0
    2.7180   -6.5400   28.6080 O   0  0  0  0  0  0  0  0  0  0  0  0
    5.1910   -3.5900   27.5410 C   0  0  0  0  0  0  0  0  0  0  0  0
    7.2640   -3.2940   23.7170 C   0  0  0  0  0  0  0  0  0  0  0  0
    7.5450   -3.2440   22.2620 C   0  0  0  0  0  0  0  0  0  0  0  0
  1  2  1  0
  2  3  2  0
  2  4  1  0
  4  5  1  0
  5  6  1  0
  6  7  1  0
  7  8  1  0
  8  9  2  0
  8 10  1  0
 10 11  1  0
 11 12  1  0
 12 13  1  0
 13 14  1  0
 14 15  1  1
 15 16  1  0
 16 17  2  0
 16 18  1  0
 18 19  1  0
 19 20  1  0
 20 21  1  0
 21 22  1  0
 19 23  1  0
 22 23  1  0
 15 24  1  0
 19 24  1  0
 24 25  2  0
 10 26  1  0
 14 26  1  0
  7 27  1  0
  4 28  1  0
 27 28  1  0
M  END
