piperidine-amides-24806-covalent
     RDKit          3D

 25 27  0  0  0  0  0  0  0  0999 V2000
    7.0510   -3.2990   19.3250 C   0  0  0  0  0  0  0  0  0  0  0  0
    6.3470   -4.1140   20.3290 C   0  0  0  0  0  0  0  0  0  0  0  0
    5.3690   -4.8080   19.9750 O   0  0  0  0  0  0  0  0  0  0  0  0
    6.7710   -4.1630   21.6710 N   0  0  0  0  0  0  0  0  0  0  0  0
    7.6600   -3.1220   22.1700 C   0  0  0  0  0  0  0  0  0  0  0  0
    7.4730   -3.0030   23.6890 C   0  0  0  0  0  0  0  0  0  0  0  0
    6.1360   -3.6290   23.9860 C   0  0  0  0  0  0  0  0  0  0  0  0
    5.6090   -3.3370   25.3460 C   0  0  0  0  0  0  0  0  0  0  0  0
    4.3770   -3.4610   25.5010 O   0  0  0  0  0  0  0  0  0  0  0  0
    6.4240   -2.9280   26.4400 N   0  0  0  0  0  0  0  0  0  0  0  0
    6.9710   -1.6030   26.3520 C   0  0  0  0  0  0  0  0  0  0  0  0
    5.8820   -3.2730   27.7490 C   0  0  1  0  0  0  0  0  0  0  0  0
    6.4900   -4.3910   28.2560 C   0  0  0  0  0  0  0  0  0  0  0  0
    5.9250   -2.2300   28.8490 C   0  0  0  0  0  0  0  0  0  0  0  0
    4.6600   -1.8570   29.4090 C   0  0  0  0  0  0  0  0  0  0  0  0
    4.6620   -0.9150   30.4170 C   0  0  0  0  0  0  0  0  0  0  0  0
    5.9990   -0.4070   30.7940 C   0  0  0  0  0  0  0  0  0  0  0  0
    5.4030    0.4720   31.8160 C   0  0  0  0  0  0  0  0  0  0  0  0
    6.2700    1.3830   32.6900 C   0  0  0  0  0  0  0  0  0  0  0  0
    7.6420    1.0140   32.1230 C   0  0  0  0  0  0  0  0  0  0  0  0
    8.0810    0.1170   31.1000 C   0  0  0  0  0  0  0  0  0  0  0  0
    7.1830   -0.5930   30.4460 C   0  0  0  0  0  0  0  0  0  0  0  0
    7.2360   -1.6080   29.3460 C   0  0  0  0  0  0  0  0  0  0  0  0
    6.1380   -5.1260   23.7960 C   0  0  0  0  0  0  0  0  0  0  0  0
    6.6500   -5.4200   22.3780 C   0  0  0  0  0  0  0  0  0  0  0  0
  1  2  1  0
  2  3  2  0
  2  4  1  0
  4  5  1  0
  5  6  1  0
  6  7  1  0
  7  8  1  0
  8  9  2  0
  8 10  1  0
 10 11  1  0
 10 12  1  0
 12 13  1  1
 12 14  1  0
 14 15  2  0
 15 16  1  0
 16 17  2  0
 17 18  1  0
 18 19  2  0
 19 20  1  0
 20 21  2  0
 17 22  1  0
 21 22  1  0
 14 23  1  0
 22 23  2  0
  7 24  1  0
  4 25  1  0
 24 25  1  0
M  END
