piperidine-amides-6983-covalent
     RDKit          3D

 23 24  0  0  0  0  0  0  0  0999 V2000
    7.1580   -3.2680   19.2030 C   0  0  0  0  0  0  0  0  0  0  0  0
    6.3330   -3.9910   20.1790 C   0  0  0  0  0  0  0  0  0  0  0  0
    5.2420   -4.4980   19.8550 O   0  0  0  0  0  0  0  0  0  0  0  0
    6.8000   -4.1660   21.4770 N   0  0  0  0  0  0  0  0  0  0  0  0
    7.7000   -3.1850   22.0420 C   0  0  0  0  0  0  0  0  0  0  0  0
    6.9700   -2.6330   23.2490 C   0  0  0  0  0  0  0  0  0  0  0  0
    6.6430   -3.8530   24.0670 C   0  0  0  0  0  0  0  0  0  0  0  0
    6.1010   -3.4310   25.3580 C   0  0  0  0  0  0  0  0  0  0  0  0
    4.8600   -3.3680   25.5240 O   0  0  0  0  0  0  0  0  0  0  0  0
    7.0390   -3.1000   26.3580 N   0  0  0  0  0  0  0  0  0  0  0  0
    6.8870   -3.6140   27.6760 C   0  0  1  0  0  0  0  0  0  0  0  0
    8.0140   -4.6090   27.9040 C   0  0  0  0  0  0  0  0  0  0  0  0
    8.6840   -5.1020   26.8210 C   0  0  0  0  0  0  0  0  0  0  0  0
    9.1500   -6.4190   26.8310 N   0  0  0  0  0  0  0  0  0  0  0  0
    8.9790   -4.5200   25.7370 O   0  0  0  0  0  0  0  0  0  0  0  0
    6.7700   -2.5380   28.6620 C   0  0  0  0  0  0  0  0  0  0  0  0
    5.5570   -2.2380   29.2180 C   0  0  0  0  0  0  0  0  0  0  0  0
    5.3700   -1.2380   30.1490 C   0  0  0  0  0  0  0  0  0  0  0  0
    6.3300   -0.2320   30.8170 C   0  0  0  0  0  0  0  0  0  0  0  0
    7.6160   -0.6790   30.1140 C   0  0  0  0  0  0  0  0  0  0  0  0
    7.7690   -1.7660   29.1060 C   0  0  0  0  0  0  0  0  0  0  0  0
    5.6810   -4.7510   23.3270 C   0  0  0  0  0  0  0  0  0  0  0  0
    6.4060   -5.3090   22.2660 C   0  0  0  0  0  0  0  0  0  0  0  0
  1  2  1  0
  2  3  2  0
  2  4  1  0
  4  5  1  0
  5  6  1  0
  6  7  1  0
  7  8  1  0
  8  9  2  0
  8 10  1  0
 10 11  1  0
 11 12  1  1
 12 13  1  0
 13 14  1  0
 13 15  2  0
 11 16  1  0
 16 17  2  0
 17 18  1  0
 18 19  2  0
 19 20  1  0
 16 21  1  0
 20 21  2  0
  7 22  1  0
  4 23  1  0
 22 23  1  0
M  END
