piperidine-amides-35520-covalent
     RDKit          3D

 31 33  0  0  0  0  0  0  0  0999 V2000
    7.0200   -3.3090   19.3060 C   0  0  0  0  0  0  0  0  0  0  0  0
    6.3680   -4.1760   20.3200 C   0  0  0  0  0  0  0  0  0  0  0  0
    5.3720   -4.8030   19.9660 O   0  0  0  0  0  0  0  0  0  0  0  0
    6.9090   -4.2950   21.6030 N   0  0  0  0  0  0  0  0  0  0  0  0
    7.6720   -3.2380   22.2220 C   0  0  0  0  0  0  0  0  0  0  0  0
    6.9850   -2.7840   23.4800 C   0  0  0  0  0  0  0  0  0  0  0  0
    6.5660   -4.0110   24.2950 C   0  0  0  0  0  0  0  0  0  0  0  0
    5.7790   -3.5880   25.4990 C   0  0  0  0  0  0  0  0  0  0  0  0
    4.9340   -2.6790   25.3840 O   0  0  0  0  0  0  0  0  0  0  0  0
    5.9760   -4.2730   26.7570 N   0  0  0  0  0  0  0  0  0  0  0  0
    5.8960   -5.7430   26.6770 C   0  0  0  0  0  0  0  0  0  0  0  0
    5.8200   -6.6190   28.0170 C   0  0  1  0  0  0  0  0  0  0  0  0
    7.1070   -7.3660   28.4620 N   0  0  0  0  0  0  0  0  0  0  0  0
    6.8370   -8.6270   29.3380 C   0  0  0  0  0  0  0  0  0  0  0  0
    6.0230   -8.4790   30.2870 O   0  0  0  0  0  0  0  0  0  0  0  0
    7.4170  -10.0130   29.2910 O   0  0  0  0  0  0  0  0  0  0  0  0
    8.8330  -10.5750   29.5240 C   0  0  0  0  0  0  0  0  0  0  0  0
    9.2660  -11.7750   30.0290 C   0  0  0  0  0  0  0  0  0  0  0  0
    8.4850  -11.6950   30.1540 C   0  0  0  0  0  0  0  0  0  0  0  0
    9.8010  -11.1290   28.6200 C   0  0  0  0  0  0  0  0  0  0  0  0
    4.8320   -6.1890   29.1490 C   0  0  0  0  0  0  0  0  0  0  0  0
    5.3410   -5.0970   29.9940 C   0  0  0  0  0  0  0  0  0  0  0  0
    5.4510   -3.8020   29.2990 C   0  0  0  0  0  0  0  0  0  0  0  0
    5.4300   -2.4020   29.2340 C   0  0  0  0  0  0  0  0  0  0  0  0
    5.7320   -2.3420   27.7280 C   0  0  0  0  0  0  0  0  0  0  0  0
    5.8750   -0.6900   26.7730 Br  0  0  0  0  0  0  0  0  0  0  0  0
    5.9230   -3.8170   26.9970 C   0  0  0  0  0  0  0  0  0  0  0  0
    5.8030   -5.0490   27.7610 C   0  0  0  0  0  0  0  0  0  0  0  0
    5.7010   -3.7580   28.0570 C   0  0  0  0  0  0  0  0  0  0  0  0
    5.7100   -5.0100   23.5080 C   0  0  0  0  0  0  0  0  0  0  0  0
    6.5830   -5.4810   22.3540 C   0  0  0  0  0  0  0  0  0  0  0  0
  1  2  1  0
  2  3  2  0
  2  4  1  0
  4  5  1  0
  5  6  1  0
  6  7  1  0
  7  8  1  0
  8  9  2  0
  8 10  1  0
 10 11  1  0
 11 12  1  0
 12 13  1  1
 13 14  1  0
 14 15  2  0
 14 16  1  0
 17 16  1  0
 17 18  1  0
 17 19  1  0
 17 20  1  0
 12 21  1  0
 21 22  1  0
 22 23  1  0
 23 24  1  0
 24 25  2  0
 25 26  1  0
 25 27  1  0
 27 28  2  0
 10 29  1  0
 23 29  2  0
 28 29  1  0
  7 30  1  0
  4 31  1  0
 30 31  1  0
M  END
