piperidine-amides-11790-covalent
     RDKit          3D

 27 29  0  0  0  0  0  0  0  0999 V2000
    7.1230   -3.2900   19.2560 C   0  0  0  0  0  0  0  0  0  0  0  0
    6.3510   -4.0450   20.2340 C   0  0  0  0  0  0  0  0  0  0  0  0
    5.2970   -4.5890   19.9020 O   0  0  0  0  0  0  0  0  0  0  0  0
    6.8480   -4.2040   21.5730 N   0  0  0  0  0  0  0  0  0  0  0  0
    7.7190   -3.1940   22.1390 C   0  0  0  0  0  0  0  0  0  0  0  0
    7.3520   -2.9190   23.5690 C   0  0  0  0  0  0  0  0  0  0  0  0
    6.0210   -3.5940   23.8070 C   0  0  0  0  0  0  0  0  0  0  0  0
    5.5060   -3.3490   25.1760 C   0  0  0  0  0  0  0  0  0  0  0  0
    4.2900   -3.2230   25.4100 O   0  0  0  0  0  0  0  0  0  0  0  0
    6.4180   -3.2590   26.2400 N   0  0  0  0  0  0  0  0  0  0  0  0
    6.0370   -3.8630   27.4920 C   0  0  0  0  0  0  0  0  0  0  0  0
    6.4680   -2.9270   28.5820 C   0  0  0  0  0  0  0  0  0  0  0  0
    6.4060   -1.5580   28.3660 C   0  0  0  0  0  0  0  0  0  0  0  0
    6.5810   -1.1970   27.1670 O   0  0  0  0  0  0  0  0  0  0  0  0
    7.3110   -0.7780   29.1130 C   0  0  0  0  0  0  0  0  0  0  0  0
    7.0330   -0.3430   30.4020 C   0  0  0  0  0  0  0  0  0  0  0  0
    5.6840   -0.2030   30.8060 N   0  0  0  0  0  0  0  0  0  0  0  0
    5.2550    0.9480   31.5450 C   0  0  0  0  0  0  0  0  0  0  0  0
    6.0640    1.1470   32.6450 C   0  0  0  0  0  0  0  0  0  0  0  0
    5.9280    2.1630   33.5600 C   0  0  0  0  0  0  0  0  0  0  0  0
    4.8990    3.0680   33.3740 C   0  0  0  0  0  0  0  0  0  0  0  0
    4.0150    2.8930   32.2180 C   0  0  0  0  0  0  0  0  0  0  0  0
    4.2130    1.8400   31.3330 C   0  0  0  0  0  0  0  0  0  0  0  0
    4.6960   -0.6630   29.9060 C   0  0  0  0  0  0  0  0  0  0  0  0
    5.0510   -1.2980   28.6080 C   0  0  0  0  0  0  0  0  0  0  0  0
    6.0470   -5.0760   23.6150 C   0  0  0  0  0  0  0  0  0  0  0  0
    6.6370   -5.4370   22.2720 C   0  0  0  0  0  0  0  0  0  0  0  0
  1  2  1  0
  2  3  2  0
  2  4  1  0
  4  5  1  0
  5  6  1  0
  6  7  1  0
  7  8  1  0
  8  9  2  0
  8 10  1  0
 10 11  1  0
 11 12  1  0
 12 13  1  0
 13 14  1  0
 13 15  1  0
 15 16  1  0
 16 17  1  0
 17 18  1  0
 18 19  2  0
 19 20  1  0
 20 21  2  0
 21 22  1  0
 18 23  1  0
 22 23  2  0
 17 24  1  0
 13 25  1  0
 24 25  1  0
  7 26  1  0
  4 27  1  0
 26 27  1  0
M  END
