piperidine-amides-9832-covalent
     RDKit          3D

 30 32  0  0  0  0  0  0  0  0999 V2000
    7.1100   -3.2900   19.2810 C   0  0  0  0  0  0  0  0  0  0  0  0
    6.3980   -4.0880   20.2860 C   0  0  0  0  0  0  0  0  0  0  0  0
    5.3150   -4.6110   19.9100 O   0  0  0  0  0  0  0  0  0  0  0  0
    6.9340   -4.2930   21.5630 N   0  0  0  0  0  0  0  0  0  0  0  0
    7.6950   -3.2680   22.2250 C   0  0  0  0  0  0  0  0  0  0  0  0
    6.8580   -2.7120   23.3460 C   0  0  0  0  0  0  0  0  0  0  0  0
    6.3190   -3.7540   24.3200 C   0  0  0  0  0  0  0  0  0  0  0  0
    5.3480   -3.0820   25.2260 C   0  0  0  0  0  0  0  0  0  0  0  0
    4.4480   -2.3980   24.6960 O   0  0  0  0  0  0  0  0  0  0  0  0
    5.3600   -3.1500   26.6430 N   0  0  0  0  0  0  0  0  0  0  0  0
    5.5240   -4.4060   27.3190 C   0  0  1  0  0  0  0  0  0  0  0  0
    6.7780   -4.3620   28.0980 C   0  0  0  0  0  0  0  0  0  0  0  0
    7.7950   -4.7550   27.3990 C   0  0  0  0  0  0  0  0  0  0  0  0
    8.5270   -5.8640   27.6220 C   0  0  0  0  0  0  0  0  0  0  0  0
    9.5460   -6.1210   26.7750 C   0  0  0  0  0  0  0  0  0  0  0  0
    9.8540   -5.3240   25.7500 C   0  0  0  0  0  0  0  0  0  0  0  0
    9.1610   -4.2090   25.4470 C   0  0  0  0  0  0  0  0  0  0  0  0
    8.0500   -3.9100   26.3510 C   0  0  0  0  0  0  0  0  0  0  0  0
    4.5750   -4.8620   28.3170 C   0  0  0  0  0  0  0  0  0  0  0  0
    4.3210   -4.0530   29.2350 O   0  0  0  0  0  0  0  0  0  0  0  0
    3.9740   -6.1380   28.2780 N   0  0  0  0  0  0  0  0  0  0  0  0
    2.5690   -6.1900   27.9110 C   0  0  0  0  0  0  0  0  0  0  0  0
    2.2830   -6.2560   26.4150 C   0  0  0  0  0  0  0  0  0  0  0  0
    1.3470   -5.4120   25.8290 C   0  0  0  0  0  0  0  0  0  0  0  0
    1.0700   -5.4910   24.3280 C   0  0  0  0  0  0  0  0  0  0  0  0
    1.8050   -6.4830   23.4400 C   0  0  0  0  0  0  0  0  0  0  0  0
    2.8140   -7.3710   24.1630 C   0  0  0  0  0  0  0  0  0  0  0  0
    2.9780   -7.1840   25.6230 C   0  0  0  0  0  0  0  0  0  0  0  0
    5.6470   -4.8540   23.5150 C   0  0  0  0  0  0  0  0  0  0  0  0
    6.3670   -5.3480   22.3320 C   0  0  0  0  0  0  0  0  0  0  0  0
  1  2  1  0
  2  3  2  0
  2  4  1  0
  4  5  1  0
  5  6  1  0
  6  7  1  0
  7  8  1  0
  8  9  2  0
  8 10  1  0
 10 11  1  0
 11 12  1  1
 12 13  1  0
 13 14  2  0
 14 15  1  0
 15 16  2  0
 16 17  1  0
 13 18  1  0
 17 18  2  0
 11 19  1  0
 19 20  2  0
 19 21  1  0
 21 22  1  0
 22 23  1  0
 23 24  2  0
 24 25  1  0
 25 26  2  0
 26 27  1  0
 23 28  1  0
 27 28  2  0
  7 29  1  0
  4 30  1  0
 29 30  1  0
M  END
