piperidine-amides-25500-covalent
     RDKit          3D

 25 27  0  0  0  0  0  0  0  0999 V2000
    7.1050   -3.3620   19.3690 C   0  0  0  0  0  0  0  0  0  0  0  0
    6.4110   -4.2280   20.3460 C   0  0  0  0  0  0  0  0  0  0  0  0
    5.3720   -4.7710   19.9660 O   0  0  0  0  0  0  0  0  0  0  0  0
    6.9720   -4.4460   21.6100 N   0  0  0  0  0  0  0  0  0  0  0  0
    6.5810   -5.5580   22.4150 C   0  0  0  0  0  0  0  0  0  0  0  0
    5.6220   -5.0530   23.4570 C   0  0  0  0  0  0  0  0  0  0  0  0
    6.2280   -3.8900   24.2630 C   0  0  0  0  0  0  0  0  0  0  0  0
    5.1570   -3.3800   25.1550 C   0  0  0  0  0  0  0  0  0  0  0  0
    3.9830   -3.5090   24.8120 O   0  0  0  0  0  0  0  0  0  0  0  0
    5.4220   -2.7480   26.3830 N   0  0  0  0  0  0  0  0  0  0  0  0
    4.4590   -2.8110   27.4360 C   0  0  0  0  0  0  0  0  0  0  0  0
    5.0880   -2.1060   28.6140 C   0  0  0  0  0  0  0  0  0  0  0  0
    5.7850   -3.1250   29.3510 N   0  0  0  0  0  0  0  0  0  0  0  0
    4.6310   -3.8360   29.9060 C   0  0  0  0  0  0  0  0  0  0  0  0
    3.5780   -3.4310   30.4770 O   0  0  0  0  0  0  0  0  0  0  0  0
    4.7890   -5.1410   29.7450 C   0  0  0  0  0  0  0  0  0  0  0  0
    6.0260   -5.5100   29.4120 C   0  0  0  0  0  0  0  0  0  0  0  0
    6.5020   -6.8790   29.1600 C   0  0  0  0  0  0  0  0  0  0  0  0
    5.4360   -7.9240   29.3160 C   0  0  0  0  0  0  0  0  0  0  0  0
    4.0260   -7.5300   29.6960 C   0  0  0  0  0  0  0  0  0  0  0  0
    3.8040   -6.0770   29.8910 C   0  0  0  0  0  0  0  0  0  0  0  0
    6.4480   -3.8460   28.2970 C   0  0  0  0  0  0  0  0  0  0  0  0
    6.6360   -2.9090   27.1000 C   0  0  0  0  0  0  0  0  0  0  0  0
    6.7600   -2.7900   23.3610 C   0  0  0  0  0  0  0  0  0  0  0  0
    7.6650   -3.3960   22.3210 C   0  0  0  0  0  0  0  0  0  0  0  0
  1  2  1  0
  2  3  2  0
  2  4  1  0
  4  5  1  0
  5  6  1  0
  6  7  1  0
  7  8  1  0
  8  9  2  0
  8 10  1  0
 10 11  1  0
 11 12  1  0
 12 13  1  0
 13 14  1  0
 14 15  2  0
 14 16  1  0
 16 17  2  0
 17 18  1  0
 18 19  2  0
 19 20  1  0
 16 21  1  0
 20 21  2  0
 13 22  1  0
 10 23  1  0
 22 23  1  0
  7 24  1  0
  4 25  1  0
 24 25  1  0
M  END
