piperidine-amides-11876-covalent
     RDKit          3D

 26 28  0  0  0  0  0  0  0  0999 V2000
    7.1140   -3.3040   19.2180 C   0  0  0  0  0  0  0  0  0  0  0  0
    6.3130   -4.0130   20.2060 C   0  0  0  0  0  0  0  0  0  0  0  0
    5.2490   -4.5300   19.8760 O   0  0  0  0  0  0  0  0  0  0  0  0
    6.7910   -4.1660   21.5450 N   0  0  0  0  0  0  0  0  0  0  0  0
    7.6340   -3.1510   22.1330 C   0  0  0  0  0  0  0  0  0  0  0  0
    7.0020   -2.6180   23.3820 C   0  0  0  0  0  0  0  0  0  0  0  0
    6.6140   -3.8040   24.2380 C   0  0  0  0  0  0  0  0  0  0  0  0
    5.8100   -3.3500   25.4040 C   0  0  0  0  0  0  0  0  0  0  0  0
    4.5770   -3.1820   25.3360 O   0  0  0  0  0  0  0  0  0  0  0  0
    6.4750   -3.0960   26.6310 N   0  0  0  0  0  0  0  0  0  0  0  0
    5.8240   -3.4610   27.8690 C   0  0  1  0  0  0  0  0  0  0  0  0
    6.4340   -4.7350   28.4080 C   0  0  0  0  0  0  0  0  0  0  0  0
    5.7110   -5.5360   29.2620 C   0  0  0  0  0  0  0  0  0  0  0  0
    6.3410   -6.4370   29.8650 O   0  0  0  0  0  0  0  0  0  0  0  0
    5.9060   -2.3910   28.8870 C   0  0  0  0  0  0  0  0  0  0  0  0
    6.9650   -1.5030   28.9160 C   0  0  0  0  0  0  0  0  0  0  0  0
    6.9550   -0.5000   29.9450 C   0  0  0  0  0  0  0  0  0  0  0  0
    5.9550   -0.4080   30.8580 C   0  0  0  0  0  0  0  0  0  0  0  0
    4.9180   -1.3090   30.7960 C   0  0  0  0  0  0  0  0  0  0  0  0
    3.8620   -1.2660   31.7090 C   0  0  0  0  0  0  0  0  0  0  0  0
    2.7470   -2.2040   31.6720 C   0  0  0  0  0  0  0  0  0  0  0  0
    2.6750   -3.1920   30.7250 C   0  0  0  0  0  0  0  0  0  0  0  0
    3.7160   -3.2470   29.8140 C   0  0  0  0  0  0  0  0  0  0  0  0
    4.8770   -2.2960   29.8280 C   0  0  0  0  0  0  0  0  0  0  0  0
    5.7820   -4.8440   23.5440 C   0  0  0  0  0  0  0  0  0  0  0  0
    6.4770   -5.3380   22.2970 C   0  0  0  0  0  0  0  0  0  0  0  0
  1  2  1  0
  2  3  2  0
  2  4  1  0
  4  5  1  0
  5  6  1  0
  6  7  1  0
  7  8  1  0
  8  9  2  0
  8 10  1  0
 10 11  1  0
 11 12  1  1
 12 13  1  0
 13 14  1  0
 11 15  1  0
 15 16  2  0
 16 17  1  0
 17 18  2  0
 18 19  1  0
 19 20  1  0
 20 21  2  0
 21 22  1  0
 22 23  2  0
 15 24  1  0
 19 24  2  0
 23 24  1  0
  7 25  1  0
  4 26  1  0
 25 26  1  0
M  END
