piperidine-amides-3635-covalent
     RDKit          3D

 19 19  0  0  0  0  0  0  0  0999 V2000
    7.1050   -3.3070   19.2610 C   0  0  0  0  0  0  0  0  0  0  0  0
    6.3860   -4.0910   20.2770 C   0  0  0  0  0  0  0  0  0  0  0  0
    5.3060   -4.6130   19.9150 O   0  0  0  0  0  0  0  0  0  0  0  0
    6.9210   -4.3010   21.5810 N   0  0  0  0  0  0  0  0  0  0  0  0
    6.4000   -5.3570   22.3610 C   0  0  0  0  0  0  0  0  0  0  0  0
    5.7870   -4.9460   23.6300 C   0  0  0  0  0  0  0  0  0  0  0  0
    6.2480   -3.6710   24.2520 C   0  0  0  0  0  0  0  0  0  0  0  0
    5.1570   -3.0960   25.1170 C   0  0  0  0  0  0  0  0  0  0  0  0
    4.2240   -2.4860   24.5790 O   0  0  0  0  0  0  0  0  0  0  0  0
    5.1480   -3.2160   26.5220 N   0  0  0  0  0  0  0  0  0  0  0  0
    6.2380   -3.5960   27.2940 C   0  0  2  0  0  0  0  0  0  0  0  0
    6.2740   -4.8840   28.0030 C   0  0  0  0  0  0  0  0  0  0  0  0
    6.5930   -2.5540   28.3020 C   0  0  0  0  0  0  0  0  0  0  0  0
    5.6310   -1.8950   29.0380 C   0  0  0  0  0  0  0  0  0  0  0  0
    6.4780   -0.6560   29.4180 C   0  0  0  0  0  0  0  0  0  0  0  0
    7.8210   -1.2900   29.2700 C   0  0  0  0  0  0  0  0  0  0  0  0
    6.3080   -0.2960   30.9130 C   0  0  0  0  0  0  0  0  0  0  0  0
    6.7780   -2.6220   23.2940 C   0  0  0  0  0  0  0  0  0  0  0  0
    7.6720   -3.2740   22.2600 C   0  0  0  0  0  0  0  0  0  0  0  0
  1  2  1  0
  2  3  2  0
  2  4  1  0
  4  5  1  0
  5  6  1  0
  6  7  1  0
  7  8  1  0
  8  9  2  0
  8 10  1  0
 10 11  1  0
 11 12  1  1
 11 13  1  0
 13 14  1  0
 14 15  1  0
 15 16  1  0
 15 17  1  0
  7 18  1  0
  4 19  1  0
 18 19  1  0
M  END
