piperidine-amides-8528-covalent
     RDKit          3D

 23 25  0  0  0  0  0  0  0  0999 V2000
    7.0790   -3.2720   19.2050 C   0  0  0  0  0  0  0  0  0  0  0  0
    6.3450   -4.0320   20.2170 C   0  0  0  0  0  0  0  0  0  0  0  0
    5.2770   -4.5730   19.8850 O   0  0  0  0  0  0  0  0  0  0  0  0
    6.8720   -4.1820   21.5240 N   0  0  0  0  0  0  0  0  0  0  0  0
    7.6450   -3.1100   22.0820 C   0  0  0  0  0  0  0  0  0  0  0  0
    7.5540   -3.1540   23.5750 C   0  0  0  0  0  0  0  0  0  0  0  0
    6.1590   -3.6340   23.9000 C   0  0  0  0  0  0  0  0  0  0  0  0
    5.8430   -3.3760   25.3380 C   0  0  0  0  0  0  0  0  0  0  0  0
    4.6630   -3.1310   25.5970 O   0  0  0  0  0  0  0  0  0  0  0  0
    6.8870   -3.4280   26.2570 N   0  0  0  0  0  0  0  0  0  0  0  0
    7.2820   -2.2910   27.0120 C   0  0  1  0  0  0  0  0  0  0  0  0
    6.3220   -1.6410   27.7380 C   0  0  0  0  0  0  0  0  0  0  0  0
    6.4800   -2.0370   29.0110 C   0  0  2  0  0  0  0  0  0  0  0  0
    6.6370   -1.1400   30.0560 C   0  0  0  0  0  0  0  0  0  0  0  0
    5.2990   -0.9040   30.6590 C   0  0  0  0  0  0  0  0  0  0  0  0
    5.2130    0.0660   31.8550 C   0  0  0  0  0  0  0  0  0  0  0  0
    6.4790    0.6990   32.3200 C   0  0  0  0  0  0  0  0  0  0  0  0
    7.8230    0.4330   31.6760 C   0  0  0  0  0  0  0  0  0  0  0  0
    9.3060    1.1910   32.2390 Cl  0  0  0  0  0  0  0  0  0  0  0  0
    7.8240   -0.5590   30.4800 C   0  0  0  0  0  0  0  0  0  0  0  0
    7.7150   -2.7390   28.4100 C   0  0  0  0  0  0  0  0  0  0  0  0
    6.1350   -5.1110   23.6410 C   0  0  0  0  0  0  0  0  0  0  0  0
    6.5430   -5.4030   22.2220 C   0  0  0  0  0  0  0  0  0  0  0  0
  1  2  1  0
  2  3  2  0
  2  4  1  0
  4  5  1  0
  5  6  1  0
  6  7  1  0
  7  8  1  0
  8  9  2  0
  8 10  1  0
 11 10  1  6
 11 12  1  0
 12 13  1  0
 13 14  1  1
 14 15  2  0
 15 16  1  0
 16 17  2  0
 17 18  1  0
 18 19  1  0
 14 20  1  0
 18 20  2  0
 11 21  1  0
 13 21  1  0
  7 22  1  0
  4 23  1  0
 22 23  1  0
M  END
