piperidine-amides-25454-covalent
     RDKit          3D

 25 27  0  0  0  0  0  0  0  0999 V2000
    7.0780   -3.3270   19.2550 C   0  0  0  0  0  0  0  0  0  0  0  0
    6.3870   -4.1640   20.2670 C   0  0  0  0  0  0  0  0  0  0  0  0
    5.3290   -4.6920   19.9320 O   0  0  0  0  0  0  0  0  0  0  0  0
    6.9680   -4.3790   21.5170 N   0  0  0  0  0  0  0  0  0  0  0  0
    6.6610   -5.5380   22.2960 C   0  0  0  0  0  0  0  0  0  0  0  0
    5.9030   -5.0910   23.5070 C   0  0  0  0  0  0  0  0  0  0  0  0
    6.6820   -4.0120   24.2780 C   0  0  0  0  0  0  0  0  0  0  0  0
    5.7840   -3.5130   25.3250 C   0  0  0  0  0  0  0  0  0  0  0  0
    4.6970   -3.0150   25.0120 O   0  0  0  0  0  0  0  0  0  0  0  0
    6.1310   -3.5820   26.6710 N   0  0  0  0  0  0  0  0  0  0  0  0
    7.4740   -3.5420   27.0670 C   0  0  1  0  0  0  0  0  0  0  0  0
    7.5700   -2.2250   27.8090 C   0  0  0  0  0  0  0  0  0  0  0  0
    8.5560   -2.1800   28.8760 N   0  0  0  0  0  0  0  0  0  0  0  0
    6.7310   -1.1960   27.4360 O   0  0  0  0  0  0  0  0  0  0  0  0
    7.6520   -4.6900   28.0120 C   0  0  0  0  0  0  0  0  0  0  0  0
    6.3860   -4.4890   28.5760 C   0  0  0  0  0  0  0  0  0  0  0  0
    5.3960   -3.9920   27.7590 C   0  0  2  0  0  0  0  0  0  0  0  0
    4.1720   -4.7950   27.3390 C   0  0  0  0  0  0  0  0  0  0  0  0
    4.6330   -6.0810   26.6970 C   0  0  0  0  0  0  0  0  0  0  0  0
    3.5720   -7.0540   26.1850 C   0  0  0  0  0  0  0  0  0  0  0  0
    2.1260   -6.6830   26.3500 C   0  0  0  0  0  0  0  0  0  0  0  0
    1.7650   -5.3960   26.9970 C   0  0  0  0  0  0  0  0  0  0  0  0
    2.7420   -4.3880   27.5250 C   0  0  0  0  0  0  0  0  0  0  0  0
    7.0450   -2.8460   23.3810 C   0  0  0  0  0  0  0  0  0  0  0  0
    7.7590   -3.3590   22.1760 C   0  0  0  0  0  0  0  0  0  0  0  0
  1  2  1  0
  2  3  2  0
  2  4  1  0
  4  5  1  0
  5  6  1  0
  6  7  1  0
  7  8  1  0
  8  9  2  0
  8 10  1  0
 10 11  1  0
 11 12  1  1
 12 13  1  0
 12 14  2  0
 11 15  1  0
 15 16  1  0
 10 17  1  0
 16 17  1  0
 17 18  1  6
 18 19  2  0
 19 20  1  0
 20 21  2  0
 21 22  1  0
 18 23  1  0
 22 23  2  0
  7 24  1  0
  4 25  1  0
 24 25  1  0
M  END
