piperidine-amides-32680-covalent
     RDKit          3D

 26 28  0  0  0  0  0  0  0  0999 V2000
    7.1120   -3.3060   19.2990 C   0  0  0  0  0  0  0  0  0  0  0  0
    6.3860   -4.1660   20.2680 C   0  0  0  0  0  0  0  0  0  0  0  0
    5.3150   -4.6930   19.9330 O   0  0  0  0  0  0  0  0  0  0  0  0
    6.9730   -4.4120   21.5210 N   0  0  0  0  0  0  0  0  0  0  0  0
    6.6900   -5.6260   22.2330 C   0  0  0  0  0  0  0  0  0  0  0  0
    5.7950   -5.2080   23.3900 C   0  0  0  0  0  0  0  0  0  0  0  0
    6.5130   -4.1220   24.1060 C   0  0  0  0  0  0  0  0  0  0  0  0
    5.7060   -3.6130   25.2240 C   0  0  0  0  0  0  0  0  0  0  0  0
    4.6650   -3.0320   24.9090 O   0  0  0  0  0  0  0  0  0  0  0  0
    6.0950   -3.7920   26.5410 N   0  0  0  0  0  0  0  0  0  0  0  0
    5.6940   -4.9200   27.3140 C   0  0  0  0  0  0  0  0  0  0  0  0
    5.3490   -4.9120   28.6270 C   0  0  0  0  0  0  0  0  0  0  0  0
    4.8070   -3.7580   29.1360 C   0  0  0  0  0  0  0  0  0  0  0  0
    5.9340   -2.9380   29.4370 N   0  0  0  0  0  0  0  0  0  0  0  0
    5.4340   -1.3130   29.6080 S   0  0  0  0  0  0  0  0  0  0  0  0
    3.9820   -1.1540   29.1940 O   0  0  0  0  0  0  0  0  0  0  0  0
    5.5490   -0.9790   31.0600 O   0  0  0  0  0  0  0  0  0  0  0  0
    6.3490   -0.2110   28.6480 C   0  0  0  0  0  0  0  0  0  0  0  0
    6.5000    0.0160   27.2010 C   0  0  0  0  0  0  0  0  0  0  0  0
    7.4140    1.1070   26.6930 C   0  0  0  0  0  0  0  0  0  0  0  0
    8.0770    1.8490   27.8510 C   0  0  0  0  0  0  0  0  0  0  0  0
    7.4870    1.0980   29.2930 S   0  0  0  0  0  0  0  0  0  0  0  0
    6.9620   -3.1590   28.6300 C   0  0  0  0  0  0  0  0  0  0  0  0
    6.4100   -2.6440   27.3660 C   0  0  0  0  0  0  0  0  0  0  0  0
    6.9440   -2.9510   23.2780 C   0  0  0  0  0  0  0  0  0  0  0  0
    7.6900   -3.3880   22.2270 C   0  0  0  0  0  0  0  0  0  0  0  0
  1  2  1  0
  2  3  2  0
  2  4  1  0
  4  5  1  0
  5  6  1  0
  6  7  1  0
  7  8  1  0
  8  9  2  0
  8 10  1  0
 10 11  1  0
 11 12  1  0
 12 13  1  0
 13 14  1  0
 14 15  1  0
 15 16  2  0
 15 17  2  0
 15 18  1  0
 18 19  2  0
 19 20  1  0
 20 21  2  0
 18 22  1  0
 21 22  1  0
 14 23  1  0
 10 24  1  0
 23 24  1  0
  7 25  1  0
  4 26  1  0
 25 26  1  0
M  END
