piperidine-amides-25759-covalent
     RDKit          3D

 25 27  0  0  0  0  0  0  0  0999 V2000
    7.0450   -3.3460   19.3960 C   0  0  0  0  0  0  0  0  0  0  0  0
    6.3910   -4.2510   20.3730 C   0  0  0  0  0  0  0  0  0  0  0  0
    5.3870   -4.8470   19.9830 O   0  0  0  0  0  0  0  0  0  0  0  0
    6.9360   -4.4330   21.6510 N   0  0  0  0  0  0  0  0  0  0  0  0
    6.6170   -5.5850   22.4410 C   0  0  0  0  0  0  0  0  0  0  0  0
    5.7560   -5.1520   23.5950 C   0  0  0  0  0  0  0  0  0  0  0  0
    6.3240   -3.9030   24.2870 C   0  0  0  0  0  0  0  0  0  0  0  0
    5.2480   -3.3070   25.1280 C   0  0  0  0  0  0  0  0  0  0  0  0
    4.3170   -2.7380   24.5600 O   0  0  0  0  0  0  0  0  0  0  0  0
    5.2230   -3.3590   26.5410 N   0  0  0  0  0  0  0  0  0  0  0  0
    6.4680   -3.3420   27.1560 C   0  0  0  0  0  0  0  0  0  0  0  0
    6.4780   -4.5310   28.1180 C   0  0  0  0  0  0  0  0  0  0  0  0
    5.3360   -4.4480   28.8380 O   0  0  0  0  0  0  0  0  0  0  0  0
    4.6720   -3.3150   28.9120 C   0  0  1  0  0  0  0  0  0  0  0  0
    5.4560   -2.3400   29.4470 C   0  0  0  0  0  0  0  0  0  0  0  0
    6.7780   -2.0270   29.3360 C   0  0  0  0  0  0  0  0  0  0  0  0
    7.5960   -0.9250   29.9830 C   0  0  0  0  0  0  0  0  0  0  0  0
    6.6780   -0.1210   30.8620 C   0  0  0  0  0  0  0  0  0  0  0  0
    7.2740    1.0310   31.6170 C   0  0  0  0  0  0  0  0  0  0  0  0
    5.2020   -0.4150   31.0210 C   0  0  0  0  0  0  0  0  0  0  0  0
    4.5050   -1.5280   30.3340 C   0  0  0  0  0  0  0  0  0  0  0  0
    3.0210   -1.8000   30.5180 C   0  0  0  0  0  0  0  0  0  0  0  0
    4.3930   -2.7200   27.5200 C   0  0  0  0  0  0  0  0  0  0  0  0
    6.7800   -2.8360   23.2880 C   0  0  0  0  0  0  0  0  0  0  0  0
    7.6370   -3.3730   22.3520 C   0  0  0  0  0  0  0  0  0  0  0  0
  1  2  1  0
  2  3  2  0
  2  4  1  0
  4  5  1  0
  5  6  1  0
  6  7  1  0
  7  8  1  0
  8  9  2  0
  8 10  1  0
 10 11  1  0
 11 12  1  0
 12 13  1  0
 13 14  1  0
 14 15  1  1
 15 16  2  0
 16 17  1  0
 17 18  2  0
 18 19  1  0
 18 20  1  0
 15 21  1  0
 20 21  2  0
 21 22  1  0
 10 23  1  0
 14 23  1  0
  7 24  1  0
  4 25  1  0
 24 25  1  0
M  END
