piperidine-amides-10639-covalent
     RDKit          3D

 23 24  0  0  0  0  0  0  0  0999 V2000
    7.0770   -3.2700   19.2360 C   0  0  0  0  0  0  0  0  0  0  0  0
    6.3350   -4.0210   20.2580 C   0  0  0  0  0  0  0  0  0  0  0  0
    5.2730   -4.5780   19.8850 O   0  0  0  0  0  0  0  0  0  0  0  0
    6.8180   -4.1350   21.5660 N   0  0  0  0  0  0  0  0  0  0  0  0
    7.7170   -3.1440   22.1180 C   0  0  0  0  0  0  0  0  0  0  0  0
    7.2570   -2.7750   23.4960 C   0  0  0  0  0  0  0  0  0  0  0  0
    6.8670   -3.9770   24.3120 C   0  0  0  0  0  0  0  0  0  0  0  0
    6.1620   -3.5110   25.5290 C   0  0  0  0  0  0  0  0  0  0  0  0
    4.9150   -3.3760   25.4790 O   0  0  0  0  0  0  0  0  0  0  0  0
    6.8420   -3.1860   26.7330 N   0  0  0  0  0  0  0  0  0  0  0  0
    7.5140   -4.1750   27.5570 C   0  0  2  0  0  0  0  0  0  0  0  0
    8.4510   -5.0520   26.7280 C   0  0  0  0  0  0  0  0  0  0  0  0
    6.5990   -5.0480   28.3290 C   0  0  0  0  0  0  0  0  0  0  0  0
    6.9710   -6.3000   28.7770 C   0  0  0  0  0  0  0  0  0  0  0  0
    6.1440   -7.1430   29.4980 C   0  0  0  0  0  0  0  0  0  0  0  0
    4.8790   -6.7650   29.8100 C   0  0  0  0  0  0  0  0  0  0  0  0
    4.4640   -5.5380   29.3920 C   0  0  0  0  0  0  0  0  0  0  0  0
    3.1730   -5.0790   29.6690 O   0  0  0  0  0  0  0  0  0  0  0  0
    1.8880   -5.4010   29.7980 C   0  0  0  0  0  0  0  0  0  0  0  0
    1.5740   -6.8870   29.5870 C   0  0  0  0  0  0  0  0  0  0  0  0
    5.2920   -4.6900   28.6700 C   0  0  0  0  0  0  0  0  0  0  0  0
    5.9410   -4.8910   23.5470 C   0  0  0  0  0  0  0  0  0  0  0  0
    6.5570   -5.3180   22.3870 C   0  0  0  0  0  0  0  0  0  0  0  0
  1  2  1  0
  2  3  2  0
  2  4  1  0
  4  5  1  0
  5  6  1  0
  6  7  1  0
  7  8  1  0
  8  9  2  0
  8 10  1  0
 10 11  1  0
 11 12  1  6
 11 13  1  0
 13 14  2  0
 14 15  1  0
 15 16  2  0
 16 17  1  0
 17 18  1  0
 18 19  1  0
 19 20  1  0
 13 21  1  0
 17 21  2  0
  7 22  1  0
  4 23  1  0
 22 23  1  0
M  END
