piperidine-amides-32732-covalent
     RDKit          3D

 29 32  0  0  0  0  0  0  0  0999 V2000
    7.1180   -3.3560   19.3700 C   0  0  0  0  0  0  0  0  0  0  0  0
    6.3880   -4.2060   20.3380 C   0  0  0  0  0  0  0  0  0  0  0  0
    5.3440   -4.7720   19.9670 O   0  0  0  0  0  0  0  0  0  0  0  0
    6.9330   -4.4030   21.6320 N   0  0  0  0  0  0  0  0  0  0  0  0
    6.6580   -5.5890   22.3900 C   0  0  0  0  0  0  0  0  0  0  0  0
    5.7850   -5.1470   23.5650 C   0  0  0  0  0  0  0  0  0  0  0  0
    6.4840   -4.0580   24.3320 C   0  0  0  0  0  0  0  0  0  0  0  0
    5.6370   -3.5290   25.4320 C   0  0  0  0  0  0  0  0  0  0  0  0
    4.8380   -2.6430   25.1270 O   0  0  0  0  0  0  0  0  0  0  0  0
    5.7490   -4.0300   26.7360 N   0  0  0  0  0  0  0  0  0  0  0  0
    6.9240   -4.5440   27.2320 C   0  0  0  0  0  0  0  0  0  0  0  0
    6.9670   -5.5950   28.0510 C   0  0  0  0  0  0  0  0  0  0  0  0
    6.0330   -5.4440   29.0440 C   0  0  0  0  0  0  0  0  0  0  0  0
    5.3710   -4.2260   29.0390 C   0  0  0  0  0  0  0  0  0  0  0  0
    4.9100   -3.5070   27.7820 C   0  0  2  0  0  0  0  0  0  0  0  0
    3.4190   -3.6270   27.4240 C   0  0  0  0  0  0  0  0  0  0  0  0
    2.9280   -4.7970   26.7370 N   0  0  0  0  0  0  0  0  0  0  0  0
    1.6370   -4.4280   26.6590 N   0  0  0  0  0  0  0  0  0  0  0  0
    1.3750   -3.2250   27.2110 C   0  0  0  0  0  0  0  0  0  0  0  0
    0.1350   -2.6130   27.2660 C   0  0  0  0  0  0  0  0  0  0  0  0
   -0.1100   -1.4040   28.0900 C   0  0  0  0  0  0  0  0  0  0  0  0
   -1.5630   -0.8760   28.0150 C   0  0  0  0  0  0  0  0  0  0  0  0
   -2.7480   -1.2380   27.3630 C   0  0  0  0  0  0  0  0  0  0  0  0
   -2.2490   -2.4790   26.5950 C   0  0  0  0  0  0  0  0  0  0  0  0
   -0.9010   -3.1100   26.5580 C   0  0  0  0  0  0  0  0  0  0  0  0
   -0.8740   -4.2020   25.7470 F   0  0  0  0  0  0  0  0  0  0  0  0
    2.5010   -2.6480   27.7330 O   0  0  0  0  0  0  0  0  0  0  0  0
    6.8350   -2.8660   23.4540 C   0  0  0  0  0  0  0  0  0  0  0  0
    7.6480   -3.3200   22.3020 C   0  0  0  0  0  0  0  0  0  0  0  0
  1  2  1  0
  2  3  2  0
  2  4  1  0
  4  5  1  0
  5  6  1  0
  6  7  1  0
  7  8  1  0
  8  9  2  0
  8 10  1  0
 10 11  1  0
 11 12  1  0
 12 13  1  0
 13 14  1  0
 10 15  1  0
 14 15  1  0
 15 16  1  6
 16 17  2  0
 17 18  1  0
 18 19  2  0
 19 20  1  0
 20 21  2  0
 21 22  1  0
 22 23  2  0
 23 24  1  0
 20 25  1  0
 24 25  2  0
 25 26  1  0
 16 27  1  0
 19 27  1  0
  7 28  1  0
  4 29  1  0
 28 29  1  0
M  END
