piperidine-amides-13829-covalent
     RDKit          3D

 27 29  0  0  0  0  0  0  0  0999 V2000
    7.0440   -3.3290   19.3450 C   0  0  0  0  0  0  0  0  0  0  0  0
    6.3440   -4.1790   20.3500 C   0  0  0  0  0  0  0  0  0  0  0  0
    5.3600   -4.8410   19.9810 O   0  0  0  0  0  0  0  0  0  0  0  0
    6.8420   -4.2440   21.6720 N   0  0  0  0  0  0  0  0  0  0  0  0
    7.6850   -3.1840   22.2030 C   0  0  0  0  0  0  0  0  0  0  0  0
    7.5470   -3.1300   23.7300 C   0  0  0  0  0  0  0  0  0  0  0  0
    6.2040   -3.6860   24.0520 C   0  0  0  0  0  0  0  0  0  0  0  0
    5.6660   -3.3180   25.3830 C   0  0  0  0  0  0  0  0  0  0  0  0
    4.4360   -3.3800   25.4820 O   0  0  0  0  0  0  0  0  0  0  0  0
    6.4780   -2.9200   26.4530 N   0  0  0  0  0  0  0  0  0  0  0  0
    6.3940   -1.6370   27.0540 C   0  0  0  0  0  0  0  0  0  0  0  0
    5.9530   -0.4520   26.4950 C   0  0  0  0  0  0  0  0  0  0  0  0
    5.8940    0.7810   27.1610 C   0  0  0  0  0  0  0  0  0  0  0  0
    6.2790    0.9320   28.4700 C   0  0  0  0  0  0  0  0  0  0  0  0
    6.7770   -0.2260   29.2350 C   0  0  0  0  0  0  0  0  0  0  0  0
    7.2190   -0.1810   30.7070 C   0  0  0  0  0  0  0  0  0  0  0  0
    8.5450   -0.0420   31.0700 O   0  0  0  0  0  0  0  0  0  0  0  0
    6.1650   -0.2600   31.6810 N   0  0  0  0  0  0  0  0  0  0  0  0
    4.8240   -0.0630   31.2610 C   0  0  0  0  0  0  0  0  0  0  0  0
    4.0140   -0.4350   32.3120 C   0  0  0  0  0  0  0  0  0  0  0  0
    4.0660    0.4530   33.4970 C   0  0  0  0  0  0  0  0  0  0  0  0
    3.9350    1.8380   33.3170 O   0  0  0  0  0  0  0  0  0  0  0  0
    5.5290    0.0940   33.6850 C   0  0  0  0  0  0  0  0  0  0  0  0
    6.4170    0.5430   32.7300 C   0  0  0  0  0  0  0  0  0  0  0  0
    6.8260   -1.4880   28.5040 C   0  0  0  0  0  0  0  0  0  0  0  0
    6.1020   -5.1490   23.8020 C   0  0  0  0  0  0  0  0  0  0  0  0
    6.7070   -5.4750   22.4360 C   0  0  0  0  0  0  0  0  0  0  0  0
  1  2  1  0
  2  3  2  0
  2  4  1  0
  4  5  1  0
  5  6  1  0
  6  7  1  0
  7  8  1  0
  8  9  2  0
  8 10  1  0
 10 11  1  0
 11 12  2  0
 12 13  1  0
 13 14  2  0
 14 15  1  0
 15 16  1  0
 16 17  2  0
 16 18  1  0
 18 19  1  0
 19 20  1  0
 20 21  1  0
 21 22  1  0
 21 23  1  0
 18 24  1  0
 23 24  1  0
 11 25  1  0
 15 25  2  0
  7 26  1  0
  4 27  1  0
 26 27  1  0
M  END
