piperidine-amides-6813-covalent
     RDKit          3D

 23 24  0  0  0  0  0  0  0  0999 V2000
    7.1130   -3.2520   19.1990 C   0  0  0  0  0  0  0  0  0  0  0  0
    6.3520   -4.0260   20.1950 C   0  0  0  0  0  0  0  0  0  0  0  0
    5.2750   -4.5750   19.8820 O   0  0  0  0  0  0  0  0  0  0  0  0
    6.8470   -4.2010   21.4860 N   0  0  0  0  0  0  0  0  0  0  0  0
    7.6470   -3.1390   22.0610 C   0  0  0  0  0  0  0  0  0  0  0  0
    6.8670   -2.6380   23.2700 C   0  0  0  0  0  0  0  0  0  0  0  0
    6.6450   -3.8590   24.1280 C   0  0  0  0  0  0  0  0  0  0  0  0
    6.0500   -3.4440   25.4060 C   0  0  0  0  0  0  0  0  0  0  0  0
    4.8410   -3.1090   25.4470 O   0  0  0  0  0  0  0  0  0  0  0  0
    6.9040   -3.4420   26.5350 N   0  0  0  0  0  0  0  0  0  0  0  0
    6.4530   -2.9730   27.8020 C   0  0  0  0  0  0  0  0  0  0  0  0
    5.7930   -4.1130   28.5600 C   0  0  0  0  0  0  0  0  0  0  0  0
    4.7920   -3.9900   29.5170 C   0  0  0  0  0  0  0  0  0  0  0  0
    4.2310   -5.0650   30.1790 C   0  0  0  0  0  0  0  0  0  0  0  0
    4.6640   -6.3350   29.9010 C   0  0  0  0  0  0  0  0  0  0  0  0
    5.6210   -6.6270   29.0030 C   0  0  0  0  0  0  0  0  0  0  0  0
    6.2920   -5.5210   28.2280 C   0  0  0  0  0  0  0  0  0  0  0  0
    7.1730   -5.6150   27.3810 O   0  0  0  0  0  0  0  0  0  0  0  0
    8.5270   -5.5480   27.7480 C   0  0  0  0  0  0  0  0  0  0  0  0
    9.3200   -6.0900   26.6070 C   0  0  0  0  0  0  0  0  0  0  0  0
    9.0400   -4.8520   25.8930 C   0  0  0  0  0  0  0  0  0  0  0  0
    5.7340   -4.8130   23.4120 C   0  0  0  0  0  0  0  0  0  0  0  0
    6.3220   -5.2700   22.2670 C   0  0  0  0  0  0  0  0  0  0  0  0
  1  2  1  0
  2  3  2  0
  2  4  1  0
  4  5  1  0
  5  6  1  0
  6  7  1  0
  7  8  1  0
  8  9  2  0
  8 10  1  0
 10 11  1  0
 11 12  1  0
 12 13  2  0
 13 14  1  0
 14 15  2  0
 15 16  1  0
 12 17  1  0
 16 17  2  0
 17 18  1  0
 18 19  1  0
 19 20  1  0
 20 21  2  3
  7 22  1  0
  4 23  1  0
 22 23  1  0
M  END
