piperidine-amides-33976-covalent
     RDKit          3D

 30 32  0  0  0  0  0  0  0  0999 V2000
    7.0920   -3.3530   19.3640 C   0  0  0  0  0  0  0  0  0  0  0  0
    6.3740   -4.1800   20.3420 C   0  0  0  0  0  0  0  0  0  0  0  0
    5.3820   -4.8550   19.9870 O   0  0  0  0  0  0  0  0  0  0  0  0
    6.8270   -4.2510   21.6660 N   0  0  0  0  0  0  0  0  0  0  0  0
    6.6800   -5.5040   22.3880 C   0  0  0  0  0  0  0  0  0  0  0  0
    6.1170   -5.1910   23.7860 C   0  0  0  0  0  0  0  0  0  0  0  0
    6.1190   -3.6830   23.9110 C   0  0  0  0  0  0  0  0  0  0  0  0
    5.6060   -3.1960   25.2120 C   0  0  0  0  0  0  0  0  0  0  0  0
    4.8580   -2.2030   25.2050 O   0  0  0  0  0  0  0  0  0  0  0  0
    5.9200   -3.8510   26.4140 N   0  0  0  0  0  0  0  0  0  0  0  0
    6.3600   -3.1600   27.5410 C   0  0  0  0  0  0  0  0  0  0  0  0
    6.6330   -4.3340   28.4820 C   0  0  0  0  0  0  0  0  0  0  0  0
    5.6940   -4.6740   29.3960 C   0  0  0  0  0  0  0  0  0  0  0  0
    4.6860   -3.8000   29.7460 C   0  0  0  0  0  0  0  0  0  0  0  0
    5.0560   -2.4380   29.8400 N   0  0  0  0  0  0  0  0  0  0  0  0
    4.0180   -1.7860   30.1720 N   0  0  0  0  0  0  0  0  0  0  0  0
    3.0530   -2.8490   30.2600 C   0  0  0  0  0  0  0  0  0  0  0  0
    3.3600   -4.2040   30.0080 C   0  0  0  0  0  0  0  0  0  0  0  0
    2.6230   -5.4140   30.0240 N   0  0  0  0  0  0  0  0  0  0  0  0
    1.3320   -5.4330   30.6880 C   0  0  0  0  0  0  0  0  0  0  0  0
    0.6340   -6.4500   30.7080 O   0  0  0  0  0  0  0  0  0  0  0  0
    0.8350   -4.3320   31.3140 O   0  0  0  0  0  0  0  0  0  0  0  0
   -0.0430   -3.6210   30.5250 C   0  0  0  0  0  0  0  0  0  0  0  0
   -1.0090   -2.8320   31.3630 C   0  0  0  0  0  0  0  0  0  0  0  0
   -0.0780   -2.0970   30.3930 C   0  0  0  0  0  0  0  0  0  0  0  0
   -0.8930   -4.3770   29.6160 C   0  0  0  0  0  0  0  0  0  0  0  0
    5.6060   -5.4550   28.2600 C   0  0  0  0  0  0  0  0  0  0  0  0
    5.1500   -4.8730   26.9470 C   0  0  0  0  0  0  0  0  0  0  0  0
    7.4750   -3.0990   23.6490 C   0  0  0  0  0  0  0  0  0  0  0  0
    7.7230   -3.2150   22.1490 C   0  0  0  0  0  0  0  0  0  0  0  0
  1  2  1  0
  2  3  2  0
  2  4  1  0
  4  5  1  0
  5  6  1  0
  6  7  1  0
  7  8  1  0
  8  9  2  0
  8 10  1  0
 10 11  1  0
 11 12  1  0
 12 13  1  0
 13 14  1  0
 14 15  1  0
 15 16  1  0
 16 17  2  0
 14 18  2  0
 17 18  1  0
 18 19  1  0
 19 20  1  0
 20 21  2  0
 20 22  1  0
 23 22  1  0
 23 24  1  0
 23 25  1  0
 23 26  1  0
 13 27  1  0
 10 28  1  0
 27 28  1  0
  7 29  1  0
  4 30  1  0
 29 30  1  0
M  END
