piperidine-amides-12560-covalent
     RDKit          3D

 23 24  0  0  0  0  0  0  0  0999 V2000
    7.1330   -3.2950   19.2780 C   0  0  0  0  0  0  0  0  0  0  0  0
    6.3610   -4.0450   20.2930 C   0  0  0  0  0  0  0  0  0  0  0  0
    5.3010   -4.5750   19.9010 O   0  0  0  0  0  0  0  0  0  0  0  0
    6.8360   -4.1890   21.6100 N   0  0  0  0  0  0  0  0  0  0  0  0
    7.6670   -3.1880   22.2030 C   0  0  0  0  0  0  0  0  0  0  0  0
    7.2780   -2.9040   23.5780 C   0  0  0  0  0  0  0  0  0  0  0  0
    6.0210   -3.5790   23.9400 C   0  0  0  0  0  0  0  0  0  0  0  0
    5.5790   -3.2390   25.3190 C   0  0  0  0  0  0  0  0  0  0  0  0
    4.4540   -2.7230   25.4400 O   0  0  0  0  0  0  0  0  0  0  0  0
    6.3610   -3.4740   26.4660 N   0  0  0  0  0  0  0  0  0  0  0  0
    5.7620   -3.9700   27.7260 C   0  0  1  0  0  0  0  0  0  0  0  0
    6.3170   -5.2800   28.2030 C   0  0  0  0  0  0  0  0  0  0  0  0
    6.5920   -6.1920   27.3670 O   0  0  0  0  0  0  0  0  0  0  0  0
    5.7680   -2.9180   28.7660 C   0  0  0  0  0  0  0  0  0  0  0  0
    4.6500   -2.7480   29.5320 C   0  0  0  0  0  0  0  0  0  0  0  0
    4.3810   -1.8530   30.5530 C   0  0  0  0  0  0  0  0  0  0  0  0
    3.1500   -1.9570   31.1130 C   0  0  0  0  0  0  0  0  0  0  0  0
    5.5420   -0.9230   30.8380 C   0  0  0  0  0  0  0  0  0  0  0  0
    6.6490   -1.1290   30.0490 C   0  0  0  0  0  0  0  0  0  0  0  0
    7.8200   -0.3900   30.1580 C   0  0  0  0  0  0  0  0  0  0  0  0
    6.7530   -2.0710   29.0700 C   0  0  0  0  0  0  0  0  0  0  0  0
    6.0290   -5.0600   23.7260 C   0  0  0  0  0  0  0  0  0  0  0  0
    6.6060   -5.4030   22.3680 C   0  0  0  0  0  0  0  0  0  0  0  0
  1  2  1  0
  2  3  2  0
  2  4  1  0
  4  5  1  0
  5  6  1  0
  6  7  1  0
  7  8  1  0
  8  9  2  0
  8 10  1  0
 10 11  1  0
 11 12  1  1
 12 13  1  0
 11 14  1  0
 14 15  2  0
 15 16  1  0
 16 17  1  0
 16 18  2  0
 18 19  1  0
 19 20  1  0
 14 21  1  0
 19 21  2  0
  7 22  1  0
  4 23  1  0
 22 23  1  0
M  END
