piperidine-amides-35091-covalent
     RDKit          3D

 33 36  0  0  0  0  0  0  0  0999 V2000
    7.0170   -3.3500   19.3440 C   0  0  0  0  0  0  0  0  0  0  0  0
    6.3630   -4.2140   20.3600 C   0  0  0  0  0  0  0  0  0  0  0  0
    5.3910   -4.8680   19.9850 O   0  0  0  0  0  0  0  0  0  0  0  0
    6.8690   -4.3000   21.6670 N   0  0  0  0  0  0  0  0  0  0  0  0
    6.5230   -5.4070   22.5200 C   0  0  0  0  0  0  0  0  0  0  0  0
    5.6640   -4.9180   23.6660 C   0  0  0  0  0  0  0  0  0  0  0  0
    6.3380   -3.7310   24.3730 C   0  0  0  0  0  0  0  0  0  0  0  0
    5.3700   -3.1500   25.3690 C   0  0  0  0  0  0  0  0  0  0  0  0
    4.7130   -2.1630   25.0340 O   0  0  0  0  0  0  0  0  0  0  0  0
    5.1780   -3.7010   26.6760 N   0  0  0  0  0  0  0  0  0  0  0  0
    6.0860   -4.6950   27.0070 C   0  0  0  0  0  0  0  0  0  0  0  0
    5.6140   -5.4790   28.1420 C   0  0  0  0  0  0  0  0  0  0  0  0
    5.5830   -6.8400   28.1100 C   0  0  0  0  0  0  0  0  0  0  0  0
    5.1560   -7.5860   29.1180 C   0  0  0  0  0  0  0  0  0  0  0  0
    4.7330   -6.9530   30.1970 C   0  0  0  0  0  0  0  0  0  0  0  0
    4.7020   -5.4690   30.3720 C   0  0  0  0  0  0  0  0  0  0  0  0
    5.2070   -4.6020   29.2240 C   0  0  0  0  0  0  0  0  0  0  0  0
    5.2670   -3.1130   29.1810 C   0  0  0  0  0  0  0  0  0  0  0  0
    4.7960   -2.7920   27.7640 C   0  0  2  0  0  0  0  0  0  0  0  0
    3.3050   -2.5970   27.7230 C   0  0  0  0  0  0  0  0  0  0  0  0
    2.8550   -1.4260   27.9710 O   0  0  0  0  0  0  0  0  0  0  0  0
    2.4420   -3.6690   27.4300 N   0  0  0  0  0  0  0  0  0  0  0  0
    1.7730   -3.7700   26.1800 C   0  0  0  0  0  0  0  0  0  0  0  0
    2.2370   -4.9630   25.4110 C   0  0  0  0  0  0  0  0  0  0  0  0
    1.3660   -5.5160   24.3070 C   0  0  0  0  0  0  0  0  0  0  0  0
    1.8070   -6.5720   23.5260 C   0  0  0  0  0  0  0  0  0  0  0  0
    0.9980   -7.1680   22.4230 C   0  0  0  0  0  0  0  0  0  0  0  0
   -0.3650   -6.5680   22.1620 C   0  0  0  0  0  0  0  0  0  0  0  0
   -1.1170   -7.1370   21.1190 F   0  0  0  0  0  0  0  0  0  0  0  0
   -0.7690   -5.4120   23.0640 C   0  0  0  0  0  0  0  0  0  0  0  0
    0.0770   -4.9560   24.0570 C   0  0  0  0  0  0  0  0  0  0  0  0
    6.9180   -2.7130   23.4910 C   0  0  0  0  0  0  0  0  0  0  0  0
    7.6100   -3.2510   22.2830 C   0  0  0  0  0  0  0  0  0  0  0  0
  1  2  1  0
  2  3  2  0
  2  4  1  0
  4  5  1  0
  5  6  1  0
  6  7  1  0
  7  8  1  0
  8  9  2  0
  8 10  1  0
 10 11  1  0
 11 12  1  0
 12 13  2  0
 13 14  1  0
 14 15  2  0
 15 16  1  0
 12 17  1  0
 16 17  2  0
 17 18  1  0
 10 19  1  0
 18 19  1  0
 19 20  1  1
 20 21  2  0
 20 22  1  0
 22 23  1  0
 23 24  1  0
 24 25  1  0
 25 26  2  0
 26 27  1  0
 27 28  2  0
 28 29  1  0
 28 30  1  0
 25 31  1  0
 30 31  2  0
  7 32  1  0
  4 33  1  0
 32 33  1  0
M  END
