piperidine-amides-2683-covalent
     RDKit          3D

 25 26  0  0  0  0  0  0  0  0999 V2000
    7.0710   -3.3570   19.2930 C   0  0  0  0  0  0  0  0  0  0  0  0
    6.3930   -4.1810   20.2870 C   0  0  0  0  0  0  0  0  0  0  0  0
    5.3680   -4.7840   19.9730 O   0  0  0  0  0  0  0  0  0  0  0  0
    6.9480   -4.3480   21.6050 N   0  0  0  0  0  0  0  0  0  0  0  0
    6.5340   -5.4500   22.4200 C   0  0  0  0  0  0  0  0  0  0  0  0
    5.7610   -4.9360   23.6060 C   0  0  0  0  0  0  0  0  0  0  0  0
    6.5530   -3.8200   24.2870 C   0  0  0  0  0  0  0  0  0  0  0  0
    5.7500   -3.2410   25.4000 C   0  0  0  0  0  0  0  0  0  0  0  0
    4.5450   -2.9540   25.2670 O   0  0  0  0  0  0  0  0  0  0  0  0
    6.3680   -3.0170   26.6510 N   0  0  0  0  0  0  0  0  0  0  0  0
    6.3530   -1.6860   27.2200 C   0  0  0  0  0  0  0  0  0  0  0  0
    7.0300   -1.6000   28.5500 C   0  0  0  0  0  0  0  0  0  0  0  0
    7.0970   -0.4060   29.2170 C   0  0  0  0  0  0  0  0  0  0  0  0
    6.5200    0.7370   28.6400 C   0  0  0  0  0  0  0  0  0  0  0  0
    6.6170    1.9460   29.3630 N   0  0  0  0  0  0  0  0  0  0  0  0
    5.5640    2.8470   29.5240 C   0  0  0  0  0  0  0  0  0  0  0  0
    4.9720    3.4380   28.6040 O   0  0  0  0  0  0  0  0  0  0  0  0
    5.0660    3.1730   30.8540 C   0  0  0  0  0  0  0  0  0  0  0  0
    3.7080    3.2720   31.0360 C   0  0  0  0  0  0  0  0  0  0  0  0
    2.8690    2.2530   30.6330 C   0  0  0  0  0  0  0  0  0  0  0  0
    3.2800    4.5720   30.3800 C   0  0  0  0  0  0  0  0  0  0  0  0
    5.8790    0.6700   27.3950 C   0  0  0  0  0  0  0  0  0  0  0  0
    5.7880   -0.5220   26.6780 C   0  0  0  0  0  0  0  0  0  0  0  0
    6.9010   -2.7110   23.3380 C   0  0  0  0  0  0  0  0  0  0  0  0
    7.6520   -3.2560   22.1790 C   0  0  0  0  0  0  0  0  0  0  0  0
  1  2  1  0
  2  3  2  0
  2  4  1  0
  4  5  1  0
  5  6  1  0
  6  7  1  0
  7  8  1  0
  8  9  2  0
  8 10  1  0
 10 11  1  0
 11 12  2  0
 12 13  1  0
 13 14  2  0
 14 15  1  0
 15 16  1  0
 16 17  2  0
 16 18  1  0
 18 19  1  0
 19 20  1  0
 19 21  1  0
 14 22  1  0
 11 23  1  0
 22 23  2  0
  7 24  1  0
  4 25  1  0
 24 25  1  0
M  END
