piperidine-amides-30126-covalent
     RDKit          3D

 27 29  0  0  0  0  0  0  0  0999 V2000
    7.0060   -3.3550   19.3090 C   0  0  0  0  0  0  0  0  0  0  0  0
    6.3030   -4.1860   20.2810 C   0  0  0  0  0  0  0  0  0  0  0  0
    5.2960   -4.7930   19.9500 O   0  0  0  0  0  0  0  0  0  0  0  0
    6.8050   -4.3500   21.6090 N   0  0  0  0  0  0  0  0  0  0  0  0
    7.6060   -3.3170   22.2120 C   0  0  0  0  0  0  0  0  0  0  0  0
    7.3170   -3.2410   23.6740 C   0  0  0  0  0  0  0  0  0  0  0  0
    5.9570   -3.8180   23.9130 C   0  0  0  0  0  0  0  0  0  0  0  0
    5.4950   -3.5520   25.3120 C   0  0  0  0  0  0  0  0  0  0  0  0
    4.3620   -3.0950   25.5180 O   0  0  0  0  0  0  0  0  0  0  0  0
    6.3210   -3.8090   26.4380 N   0  0  0  0  0  0  0  0  0  0  0  0
    7.0400   -5.0800   26.4210 C   0  0  0  0  0  0  0  0  0  0  0  0
    7.3530   -5.6030   27.8030 C   0  0  0  0  0  0  0  0  0  0  0  0
    6.7840   -4.9800   28.8610 C   0  0  0  0  0  0  0  0  0  0  0  0
    5.7670   -4.0860   28.6160 C   0  0  0  0  0  0  0  0  0  0  0  0
    6.0200   -3.1100   27.6820 C   0  0  2  0  0  0  0  0  0  0  0  0
    5.1340   -1.9520   27.6510 C   0  0  0  0  0  0  0  0  0  0  0  0
    5.2960   -0.5870   27.4850 C   0  0  0  0  0  0  0  0  0  0  0  0
    4.0420   -0.0280   27.5570 C   0  0  0  0  0  0  0  0  0  0  0  0
    3.0670   -0.9880   27.7640 C   0  0  0  0  0  0  0  0  0  0  0  0
    1.6190   -0.7900   27.8940 C   0  0  0  0  0  0  0  0  0  0  0  0
    1.5310    0.2670   28.5320 O   0  0  0  0  0  0  0  0  0  0  0  0
    0.4870   -1.0250   27.7630 N   0  0  0  0  0  0  0  0  0  0  0  0
    0.3500   -1.8520   26.6180 C   0  0  0  0  0  0  0  0  0  0  0  0
    3.7870   -2.1160   27.8100 N   0  0  0  0  0  0  0  0  0  0  0  0
    3.1350   -3.3460   28.0090 C   0  0  0  0  0  0  0  0  0  0  0  0
    5.9640   -5.2990   23.6370 C   0  0  0  0  0  0  0  0  0  0  0  0
    6.6580   -5.6080   22.2990 C   0  0  0  0  0  0  0  0  0  0  0  0
  1  2  1  0
  2  3  2  0
  2  4  1  0
  4  5  1  0
  5  6  1  0
  6  7  1  0
  7  8  1  0
  8  9  2  0
  8 10  1  0
 10 11  1  0
 11 12  1  0
 12 13  1  0
 13 14  1  0
 10 15  1  0
 14 15  1  0
 15 16  1  6
 16 17  2  0
 17 18  1  0
 18 19  2  0
 19 20  1  0
 20 21  2  0
 20 22  1  0
 22 23  1  0
 16 24  1  0
 19 24  1  0
 24 25  1  0
  7 26  1  0
  4 27  1  0
 26 27  1  0
M  END
