piperidine-amides-24241-covalent
     RDKit          3D

 23 25  0  0  0  0  0  0  0  0999 V2000
    7.1050   -3.3300   19.3400 C   0  0  0  0  0  0  0  0  0  0  0  0
    6.4360   -4.1900   20.3270 C   0  0  0  0  0  0  0  0  0  0  0  0
    5.4180   -4.8440   19.9930 O   0  0  0  0  0  0  0  0  0  0  0  0
    6.9690   -4.3160   21.6220 N   0  0  0  0  0  0  0  0  0  0  0  0
    7.7640   -3.2400   22.1590 C   0  0  0  0  0  0  0  0  0  0  0  0
    6.9240   -2.6470   23.2810 C   0  0  0  0  0  0  0  0  0  0  0  0
    6.6470   -3.7690   24.2590 C   0  0  0  0  0  0  0  0  0  0  0  0
    5.7920   -3.1900   25.3220 C   0  0  0  0  0  0  0  0  0  0  0  0
    4.6270   -2.8740   24.9970 O   0  0  0  0  0  0  0  0  0  0  0  0
    6.2380   -2.9600   26.6500 N   0  0  0  0  0  0  0  0  0  0  0  0
    6.0220   -3.9610   27.6630 C   0  0  0  0  0  0  0  0  0  0  0  0
    5.1560   -5.1030   27.1550 C   0  0  0  0  0  0  0  0  0  0  0  0
    4.4160   -5.1900   25.9730 C   0  0  0  0  0  0  0  0  0  0  0  0
    3.6490   -6.2880   25.6150 C   0  0  0  0  0  0  0  0  0  0  0  0
    3.5670   -7.3890   26.4310 C   0  0  0  0  0  0  0  0  0  0  0  0
    4.2420   -7.4080   27.5900 C   0  0  0  0  0  0  0  0  0  0  0  0
    5.1030   -6.3060   28.0920 C   0  0  0  0  0  0  0  0  0  0  0  0
    5.9540   -6.3950   29.5970 Cl  0  0  0  0  0  0  0  0  0  0  0  0
    5.8270   -1.7310   27.3080 C   0  0  0  0  0  0  0  0  0  0  0  0
    6.8980   -0.8450   27.8370 C   0  0  0  0  0  0  0  0  0  0  0  0
    6.1670   -0.4210   26.6320 C   0  0  0  0  0  0  0  0  0  0  0  0
    5.8730   -4.8860   23.5870 C   0  0  0  0  0  0  0  0  0  0  0  0
    6.5200   -5.3600   22.4710 C   0  0  0  0  0  0  0  0  0  0  0  0
  1  2  1  0
  2  3  2  0
  2  4  1  0
  4  5  1  0
  5  6  1  0
  6  7  1  0
  7  8  1  0
  8  9  2  0
  8 10  1  0
 10 11  1  0
 11 12  1  0
 12 13  2  0
 13 14  1  0
 14 15  2  0
 15 16  1  0
 12 17  1  0
 16 17  2  0
 17 18  1  0
 10 19  1  0
 19 20  1  0
 19 21  1  0
 20 21  1  0
  7 22  1  0
  4 23  1  0
 22 23  1  0
M  END
