piperidine-amides-30374-covalent
     RDKit          3D

 27 30  0  0  0  0  0  0  0  0999 V2000
    7.1390   -3.2710   19.2330 C   0  0  0  0  0  0  0  0  0  0  0  0
    6.3770   -4.0270   20.2180 C   0  0  0  0  0  0  0  0  0  0  0  0
    5.3210   -4.5760   19.9010 O   0  0  0  0  0  0  0  0  0  0  0  0
    6.8990   -4.1770   21.5450 N   0  0  0  0  0  0  0  0  0  0  0  0
    7.6950   -3.1270   22.1300 C   0  0  0  0  0  0  0  0  0  0  0  0
    7.0800   -2.6740   23.4190 C   0  0  0  0  0  0  0  0  0  0  0  0
    6.5730   -3.8930   24.1710 C   0  0  0  0  0  0  0  0  0  0  0  0
    5.7230   -3.4770   25.3150 C   0  0  0  0  0  0  0  0  0  0  0  0
    4.5600   -3.9050   25.4340 O   0  0  0  0  0  0  0  0  0  0  0  0
    6.1740   -2.5650   26.3030 N   0  0  0  0  0  0  0  0  0  0  0  0
    5.6220   -2.8240   27.5990 C   0  0  0  0  0  0  0  0  0  0  0  0
    4.9760   -1.5320   27.3640 C   0  0  0  0  0  0  0  0  0  0  0  0
    4.8450   -0.4770   28.2100 N   0  0  0  0  0  0  0  0  0  0  0  0
    4.8190    0.6490   27.4840 C   0  0  0  0  0  0  0  0  0  0  0  0
    3.5550    1.1180   27.1430 C   0  0  0  0  0  0  0  0  0  0  0  0
    2.5860    0.1990   27.5820 O   0  0  0  0  0  0  0  0  0  0  0  0
    2.5870   -0.3030   28.9170 C   0  0  0  0  0  0  0  0  0  0  0  0
    3.9260   -0.8060   29.2600 C   0  0  2  0  0  0  0  0  0  0  0  0
    4.5750   -0.3890   30.4020 C   0  0  0  0  0  0  0  0  0  0  0  0
    4.4540    0.8990   30.7300 N   0  0  0  0  0  0  0  0  0  0  0  0
    5.1810    1.1680   31.9390 C   0  0  0  0  0  0  0  0  0  0  0  0
    5.3300    2.3620   32.6380 C   0  0  0  0  0  0  0  0  0  0  0  0
    5.7280   -0.1660   32.2360 N   0  0  0  0  0  0  0  0  0  0  0  0
    5.3660   -1.0200   31.3520 O   0  0  0  0  0  0  0  0  0  0  0  0
    5.7650   -1.1300   26.2950 C   0  0  0  0  0  0  0  0  0  0  0  0
    5.7670   -4.8700   23.3190 C   0  0  0  0  0  0  0  0  0  0  0  0
    6.6190   -5.3360   22.3320 C   0  0  0  0  0  0  0  0  0  0  0  0
  1  2  1  0
  2  3  2  0
  2  4  1  0
  4  5  1  0
  5  6  1  0
  6  7  1  0
  7  8  1  0
  8  9  2  0
  8 10  1  0
 10 11  1  0
 11 12  1  0
 12 13  1  0
 13 14  1  0
 14 15  1  0
 15 16  1  0
 16 17  1  0
 13 18  1  0
 17 18  1  0
 18 19  1  1
 19 20  2  0
 20 21  1  0
 21 22  1  0
 21 23  2  0
 19 24  1  0
 23 24  1  0
 10 25  1  0
 12 25  1  0
  7 26  1  0
  4 27  1  0
 26 27  1  0
M  END
