piperidine-amides-5269-covalent
     RDKit          3D

 21 22  0  0  0  0  0  0  0  0999 V2000
    7.1060   -3.2920   19.2540 C   0  0  0  0  0  0  0  0  0  0  0  0
    6.3430   -4.0480   20.2760 C   0  0  0  0  0  0  0  0  0  0  0  0
    5.2810   -4.5750   19.8940 O   0  0  0  0  0  0  0  0  0  0  0  0
    6.8230   -4.2040   21.5890 N   0  0  0  0  0  0  0  0  0  0  0  0
    7.6440   -3.1970   22.1750 C   0  0  0  0  0  0  0  0  0  0  0  0
    7.2890   -2.9750   23.5600 C   0  0  0  0  0  0  0  0  0  0  0  0
    5.9870   -3.5870   23.8750 C   0  0  0  0  0  0  0  0  0  0  0  0
    5.5350   -3.2600   25.2460 C   0  0  0  0  0  0  0  0  0  0  0  0
    4.3380   -3.4540   25.5230 O   0  0  0  0  0  0  0  0  0  0  0  0
    6.4060   -2.7370   26.2100 N   0  0  0  0  0  0  0  0  0  0  0  0
    6.5850   -1.2860   26.4170 C   0  0  0  0  0  0  0  0  0  0  0  0
    5.7480   -0.7400   27.5230 C   0  0  0  0  0  0  0  0  0  0  0  0
    4.9590    0.4350   27.4300 N   0  0  0  0  0  0  0  0  0  0  0  0
    4.2050    0.8580   28.5740 C   0  0  0  0  0  0  0  0  0  0  0  0
    4.2680    0.1150   29.7240 C   0  0  0  0  0  0  0  0  0  0  0  0
    3.6060    0.3910   30.8980 C   0  0  0  0  0  0  0  0  0  0  0  0
    5.0920   -1.1220   29.8350 C   0  0  0  0  0  0  0  0  0  0  0  0
    5.8350   -1.5820   28.7820 C   0  0  0  0  0  0  0  0  0  0  0  0
    6.6070   -2.7040   28.8280 C   0  0  0  0  0  0  0  0  0  0  0  0
    5.9900   -5.0830   23.6310 C   0  0  0  0  0  0  0  0  0  0  0  0
    6.6590   -5.4350   22.3420 C   0  0  0  0  0  0  0  0  0  0  0  0
  1  2  1  0
  2  3  2  0
  2  4  1  0
  4  5  1  0
  5  6  1  0
  6  7  1  0
  7  8  1  0
  8  9  2  0
  8 10  1  0
 10 11  1  0
 11 12  1  0
 12 13  2  0
 13 14  1  0
 14 15  2  0
 15 16  1  0
 15 17  1  0
 12 18  1  0
 17 18  2  0
 18 19  1  0
  7 20  1  0
  4 21  1  0
 20 21  1  0
M  END
