piperidine-amides-2991-covalent
     RDKit          3D

 23 25  0  0  0  0  0  0  0  0999 V2000
    7.0360   -3.3770   19.4130 C   0  0  0  0  0  0  0  0  0  0  0  0
    6.3350   -4.1860   20.4070 C   0  0  0  0  0  0  0  0  0  0  0  0
    5.4250   -4.9230   20.0150 O   0  0  0  0  0  0  0  0  0  0  0  0
    6.7170   -4.1620   21.8080 N   0  0  0  0  0  0  0  0  0  0  0  0
    7.6180   -3.1290   22.2800 C   0  0  0  0  0  0  0  0  0  0  0  0
    7.5090   -2.9800   23.7740 C   0  0  0  0  0  0  0  0  0  0  0  0
    6.1600   -3.5550   24.1480 C   0  0  0  0  0  0  0  0  0  0  0  0
    5.6720   -3.2070   25.5430 C   0  0  0  0  0  0  0  0  0  0  0  0
    4.4500   -3.2360   25.7850 O   0  0  0  0  0  0  0  0  0  0  0  0
    6.5460   -2.8430   26.6300 N   0  0  0  0  0  0  0  0  0  0  0  0
    6.4420   -1.5080   27.2540 C   0  0  0  0  0  0  0  0  0  0  0  0
    6.8150   -2.5020   28.2840 C   0  0  0  0  0  0  0  0  0  0  0  0
    6.7110   -1.3080   28.7640 C   0  0  0  0  0  0  0  0  0  0  0  0
    6.3510   -0.2980   27.8490 C   0  0  0  0  0  0  0  0  0  0  0  0
    6.2920    0.8140   28.5160 C   0  0  0  0  0  0  0  0  0  0  0  0
    6.5790   -0.6630   28.6640 C   0  0  0  0  0  0  0  0  0  0  0  0
    5.9230    1.6580   27.4270 C   0  0  0  0  0  0  0  0  0  0  0  0
    5.8930    1.0240   26.2110 C   0  0  2  0  0  0  0  0  0  0  0  0
    4.6450    1.1540   25.6530 O   0  0  0  0  0  0  0  0  0  0  0  0
    4.5090    0.3270   24.5340 C   0  0  0  0  0  0  0  0  0  0  0  0
    6.0840   -0.2980   26.5210 C   0  0  0  0  0  0  0  0  0  0  0  0
    6.0520   -5.0500   23.8570 C   0  0  0  0  0  0  0  0  0  0  0  0
    6.6180   -5.3620   22.6030 C   0  0  0  0  0  0  0  0  0  0  0  0
  1  2  1  0
  2  3  2  0
  2  4  1  0
  4  5  1  0
  5  6  1  0
  6  7  1  0
  7  8  1  0
  8  9  2  0
  8 10  1  0
 10 11  1  0
 11 12  2  0
 12 13  1  0
 13 14  2  0
 14 15  1  0
 11 16  1  0
 15 16  2  0
 15 17  1  0
 17 18  1  0
 18 19  1  1
 19 20  1  0
 14 21  1  0
 18 21  1  0
  7 22  1  0
  4 23  1  0
 22 23  1  0
M  END
