piperidine-amides-30683-covalent
     RDKit          3D

 27 29  0  0  0  0  0  0  0  0999 V2000
    7.0480   -3.3440   19.3640 C   0  0  0  0  0  0  0  0  0  0  0  0
    6.4050   -4.2000   20.3610 C   0  0  0  0  0  0  0  0  0  0  0  0
    5.4270   -4.8810   20.0030 O   0  0  0  0  0  0  0  0  0  0  0  0
    6.8970   -4.3050   21.6840 N   0  0  0  0  0  0  0  0  0  0  0  0
    7.7720   -3.2800   22.2580 C   0  0  0  0  0  0  0  0  0  0  0  0
    7.3510   -3.0370   23.6930 C   0  0  0  0  0  0  0  0  0  0  0  0
    6.1070   -3.8020   23.9970 C   0  0  0  0  0  0  0  0  0  0  0  0
    5.4890   -3.5590   25.3340 C   0  0  0  0  0  0  0  0  0  0  0  0
    4.2420   -3.3490   25.3770 O   0  0  0  0  0  0  0  0  0  0  0  0
    6.1390   -3.5180   26.5930 N   0  0  0  0  0  0  0  0  0  0  0  0
    6.5530   -2.1630   27.0980 C   0  0  0  0  0  0  0  0  0  0  0  0
    6.8200   -2.3000   28.5650 C   0  0  1  0  0  0  0  0  0  0  0  0
    6.2210   -1.3360   29.2760 N   0  0  0  0  0  0  0  0  0  0  0  0
    6.3840    0.0500   28.9970 C   0  0  0  0  0  0  0  0  0  0  0  0
    5.5710    0.7250   28.3360 O   0  0  0  0  0  0  0  0  0  0  0  0
    7.4420    0.6870   29.4520 O   0  0  0  0  0  0  0  0  0  0  0  0
    7.7260    0.9160   30.8180 C   0  0  0  0  0  0  0  0  0  0  0  0
    7.2160   -0.2110   31.6820 C   0  0  0  0  0  0  0  0  0  0  0  0
    7.2960    2.3020   31.3220 C   0  0  0  0  0  0  0  0  0  0  0  0
    9.1500    0.6170   31.2620 C   0  0  0  0  0  0  0  0  0  0  0  0
    6.1950   -3.5580   28.8800 C   0  0  0  0  0  0  0  0  0  0  0  0
    5.8110   -4.3290   27.7250 C   0  0  0  0  0  0  0  0  0  0  0  0
    6.2360   -5.8200   27.9150 C   0  0  0  0  0  0  0  0  0  0  0  0
    4.8900   -5.7300   28.1860 C   0  0  0  0  0  0  0  0  0  0  0  0
    4.2820   -4.7830   28.0510 C   0  0  0  0  0  0  0  0  0  0  0  0
    6.2030   -5.2410   23.7120 C   0  0  0  0  0  0  0  0  0  0  0  0
    6.6940   -5.4970   22.4520 C   0  0  0  0  0  0  0  0  0  0  0  0
  1  2  1  0
  2  3  2  0
  2  4  1  0
  4  5  1  0
  5  6  1  0
  6  7  1  0
  7  8  1  0
  8  9  2  0
  8 10  1  0
 10 11  1  0
 11 12  1  0
 12 13  1  1
 13 14  1  0
 14 15  2  0
 14 16  1  0
 17 16  1  0
 17 18  1  0
 17 19  1  0
 17 20  1  0
 12 21  1  0
 22 10  1  0
 21 22  1  0
 22 23  1  0
 23 24  1  0
 22 25  1  0
 24 25  1  0
  7 26  1  0
  4 27  1  0
 26 27  1  0
M  END
