piperidine-amides-4337-covalent
     RDKit          3D

 26 28  0  0  0  0  0  0  0  0999 V2000
    7.1370   -3.2990   19.2270 C   0  0  0  0  0  0  0  0  0  0  0  0
    6.3570   -4.0120   20.2460 C   0  0  0  0  0  0  0  0  0  0  0  0
    5.2640   -4.5020   19.8730 O   0  0  0  0  0  0  0  0  0  0  0  0
    6.8450   -4.1920   21.5660 N   0  0  0  0  0  0  0  0  0  0  0  0
    7.6250   -3.1490   22.1510 C   0  0  0  0  0  0  0  0  0  0  0  0
    7.0600   -2.6600   23.3930 C   0  0  0  0  0  0  0  0  0  0  0  0
    5.7910   -3.3300   23.7330 C   0  0  0  0  0  0  0  0  0  0  0  0
    5.2850   -2.9720   25.1060 C   0  0  0  0  0  0  0  0  0  0  0  0
    4.1730   -3.4080   25.4550 O   0  0  0  0  0  0  0  0  0  0  0  0
    5.9920   -2.1520   26.0170 N   0  0  0  0  0  0  0  0  0  0  0  0
    6.4890   -2.5430   27.2740 C   0  0  1  0  0  0  0  0  0  0  0  0
    7.8320   -3.0270   27.2870 C   0  0  0  0  0  0  0  0  0  0  0  0
    8.0410   -4.1940   26.7290 N   0  0  0  0  0  0  0  0  0  0  0  0
    7.5160   -5.4360   27.1580 C   0  0  0  0  0  0  0  0  0  0  0  0
    8.5680   -6.2090   27.5260 C   0  0  0  0  0  0  0  0  0  0  0  0
    9.5500   -5.0530   27.4860 C   0  0  0  0  0  0  0  0  0  0  0  0
    9.7400   -5.4710   26.0640 C   0  0  0  0  0  0  0  0  0  0  0  0
    8.9580   -4.2020   25.7700 C   0  0  0  0  0  0  0  0  0  0  0  0
    6.2300   -1.4280   28.2320 C   0  0  0  0  0  0  0  0  0  0  0  0
    5.7940   -1.7930   29.6390 C   0  0  0  0  0  0  0  0  0  0  0  0
    5.5190   -0.6790   30.6490 C   0  0  0  0  0  0  0  0  0  0  0  0
    5.7270    0.6760   30.0850 C   0  0  0  0  0  0  0  0  0  0  0  0
    6.1300    0.9170   28.7670 C   0  0  0  0  0  0  0  0  0  0  0  0
    6.3770   -0.0980   27.8540 C   0  0  0  0  0  0  0  0  0  0  0  0
    5.8640   -4.8310   23.5940 C   0  0  0  0  0  0  0  0  0  0  0  0
    6.4230   -5.2900   22.3950 C   0  0  0  0  0  0  0  0  0  0  0  0
  1  2  1  0
  2  3  2  0
  2  4  1  0
  4  5  1  0
  5  6  1  0
  6  7  1  0
  7  8  1  0
  8  9  2  0
  8 10  1  0
 10 11  1  0
 11 12  1  6
 12 13  1  0
 13 14  1  0
 14 15  1  0
 15 16  1  0
 16 17  1  0
 13 18  1  0
 17 18  1  0
 11 19  1  0
 19 20  2  0
 20 21  1  0
 21 22  2  0
 22 23  1  0
 19 24  1  0
 23 24  2  0
  7 25  1  0
  4 26  1  0
 25 26  1  0
M  END
