piperidine-amides-7123-covalent
     RDKit          3D

 22 23  0  0  0  0  0  0  0  0999 V2000
    7.1240   -3.2860   19.2000 C   0  0  0  0  0  0  0  0  0  0  0  0
    6.3190   -3.9970   20.2060 C   0  0  0  0  0  0  0  0  0  0  0  0
    5.2600   -4.5760   19.8840 O   0  0  0  0  0  0  0  0  0  0  0  0
    6.7600   -4.0710   21.5230 N   0  0  0  0  0  0  0  0  0  0  0  0
    6.5830   -5.3080   22.2630 C   0  0  0  0  0  0  0  0  0  0  0  0
    6.0220   -4.9630   23.6570 C   0  0  0  0  0  0  0  0  0  0  0  0
    6.2130   -3.4730   23.8670 C   0  0  0  0  0  0  0  0  0  0  0  0
    6.1200   -3.1310   25.2830 C   0  0  0  0  0  0  0  0  0  0  0  0
    5.0250   -3.2620   25.8780 O   0  0  0  0  0  0  0  0  0  0  0  0
    7.3040   -2.6430   25.8850 N   0  0  0  0  0  0  0  0  0  0  0  0
    7.3530   -2.3700   27.2780 C   0  0  0  0  0  0  0  0  0  0  0  0
    7.0750   -3.6580   27.9770 C   0  0  0  0  0  0  0  0  0  0  0  0
    7.7540   -4.8480   27.9490 C   0  0  0  0  0  0  0  0  0  0  0  0
    7.3880   -5.9800   28.6580 C   0  0  0  0  0  0  0  0  0  0  0  0
    6.2790   -6.1120   29.5140 C   0  0  0  0  0  0  0  0  0  0  0  0
    5.8690   -7.1820   30.2490 C   0  0  0  0  0  0  0  0  0  0  0  0
    5.2950   -8.2390   29.6580 N   0  0  0  0  0  0  0  0  0  0  0  0
    6.0740   -7.1980   31.5930 O   0  0  0  0  0  0  0  0  0  0  0  0
    5.4470   -4.8570   29.6120 C   0  0  0  0  0  0  0  0  0  0  0  0
    5.8170   -3.6470   28.8720 C   0  0  0  0  0  0  0  0  0  0  0  0
    7.5120   -2.9520   23.4280 C   0  0  0  0  0  0  0  0  0  0  0  0
    7.6710   -3.0920   22.0070 C   0  0  0  0  0  0  0  0  0  0  0  0
  1  2  1  0
  2  3  2  0
  2  4  1  0
  4  5  1  0
  5  6  1  0
  6  7  1  0
  7  8  1  0
  8  9  2  0
  8 10  1  0
 10 11  1  0
 11 12  1  0
 12 13  2  0
 13 14  1  0
 14 15  2  0
 15 16  1  0
 16 17  1  0
 16 18  2  0
 15 19  1  0
 12 20  1  0
 19 20  2  0
  7 21  1  0
  4 22  1  0
 21 22  1  0
M  END
