piperidine-amides-29207-covalent
     RDKit          3D

 27 30  0  0  0  0  0  0  0  0999 V2000
    7.1780   -3.3290   19.2630 C   0  0  0  0  0  0  0  0  0  0  0  0
    6.4870   -4.1790   20.2150 C   0  0  0  0  0  0  0  0  0  0  0  0
    5.3610   -4.6180   19.9240 O   0  0  0  0  0  0  0  0  0  0  0  0
    7.1580   -4.5550   21.4020 N   0  0  0  0  0  0  0  0  0  0  0  0
    7.7550   -3.5180   22.1710 C   0  0  0  0  0  0  0  0  0  0  0  0
    6.6920   -2.9730   23.0510 C   0  0  0  0  0  0  0  0  0  0  0  0
    6.1460   -4.1280   23.8730 C   0  0  0  0  0  0  0  0  0  0  0  0
    5.0400   -3.6430   24.7110 C   0  0  0  0  0  0  0  0  0  0  0  0
    4.0580   -3.1580   24.1710 O   0  0  0  0  0  0  0  0  0  0  0  0
    5.2500   -3.7730   26.0210 N   0  0  0  0  0  0  0  0  0  0  0  0
    6.4220   -4.4480   26.4710 C   0  0  0  0  0  0  0  0  0  0  0  0
    6.3870   -5.0000   27.8600 C   0  0  0  0  0  0  0  0  0  0  0  0
    5.8740   -4.3730   29.1040 C   0  0  0  0  0  0  0  0  0  0  0  0
    4.3830   -4.3620   29.3910 N   0  0  0  0  0  0  0  0  0  0  0  0
    3.7440   -3.1530   29.7420 C   0  0  0  0  0  0  0  0  0  0  0  0
    4.2650   -4.8260   28.1720 C   0  0  0  0  0  0  0  0  0  0  0  0
    4.6790   -3.6490   28.1820 N   0  0  0  0  0  0  0  0  0  0  0  0
    4.9530   -2.5080   28.7840 C   0  0  0  0  0  0  0  0  0  0  0  0
    4.9130   -1.7650   30.0840 C   0  0  0  0  0  0  0  0  0  0  0  0
    5.4590   -0.3640   29.9220 C   0  0  0  0  0  0  0  0  0  0  0  0
    5.9300    0.0200   28.4930 C   0  0  0  0  0  0  0  0  0  0  0  0
    5.8550   -0.8630   27.4450 C   0  0  0  0  0  0  0  0  0  0  0  0
    5.3470   -2.1170   27.6930 C   0  0  0  0  0  0  0  0  0  0  0  0
    5.1590   -3.1910   26.8620 N   0  0  0  0  0  0  0  0  0  0  0  0
    4.6020   -4.5930   26.8510 C   0  0  0  0  0  0  0  0  0  0  0  0
    5.6180   -5.2980   23.0370 C   0  0  0  0  0  0  0  0  0  0  0  0
    6.7090   -5.6940   22.0980 C   0  0  0  0  0  0  0  0  0  0  0  0
  1  2  1  0
  2  3  2  0
  2  4  1  0
  4  5  1  0
  5  6  1  0
  6  7  1  0
  7  8  1  0
  8  9  2  0
  8 10  1  0
 10 11  1  0
 11 12  1  0
 12 13  1  0
 13 14  1  0
 14 15  1  0
 14 16  1  0
 16 17  1  0
 17 18  2  0
 18 19  1  0
 19 20  2  0
 20 21  1  0
 21 22  2  0
 18 23  1  0
 22 23  1  0
 23 24  2  0
 10 25  1  0
 16 25  2  0
 24 25  1  0
  7 26  1  0
  4 27  1  0
 26 27  1  0
M  END
