piperidine-amides-30769-covalent
     RDKit          3D

 27 30  0  0  0  0  0  0  0  0999 V2000
    7.0990   -3.2910   19.2280 C   0  0  0  0  0  0  0  0  0  0  0  0
    6.3850   -4.0510   20.2540 C   0  0  0  0  0  0  0  0  0  0  0  0
    5.3530   -4.6680   19.9370 O   0  0  0  0  0  0  0  0  0  0  0  0
    6.8690   -4.1420   21.5710 N   0  0  0  0  0  0  0  0  0  0  0  0
    7.7100   -3.1070   22.1550 C   0  0  0  0  0  0  0  0  0  0  0  0
    7.4040   -3.0570   23.6340 C   0  0  0  0  0  0  0  0  0  0  0  0
    6.0820   -3.6940   23.9510 C   0  0  0  0  0  0  0  0  0  0  0  0
    5.5260   -3.3670   25.2870 C   0  0  0  0  0  0  0  0  0  0  0  0
    4.2740   -3.4180   25.4510 O   0  0  0  0  0  0  0  0  0  0  0  0
    6.2920   -3.0070   26.4160 N   0  0  0  0  0  0  0  0  0  0  0  0
    5.8490   -3.3820   27.7720 C   0  0  0  0  0  0  0  0  0  0  0  0
    6.1000   -1.9730   28.1260 C   0  0  2  0  0  0  0  0  0  0  0  0
    6.4580   -1.5830   26.7390 C   0  0  0  0  0  0  0  0  0  0  0  0
    7.0940   -1.6920   28.8500 O   0  0  0  0  0  0  0  0  0  0  0  0
    6.5080   -0.8090   29.7100 C   0  0  2  0  0  0  0  0  0  0  0  0
    7.3120   -0.0440   30.7420 C   0  0  0  0  0  0  0  0  0  0  0  0
    8.5700   -0.0960   30.5080 O   0  0  0  0  0  0  0  0  0  0  0  0
    5.2910   -1.5940   30.1320 C   0  0  0  0  0  0  0  0  0  0  0  0
    5.1360   -1.2610   28.8520 C   0  0  2  0  0  0  0  0  0  0  0  0
    3.9030   -1.2120   28.1870 C   0  0  0  0  0  0  0  0  0  0  0  0
    3.1700   -2.1990   27.9850 O   0  0  0  0  0  0  0  0  0  0  0  0
    3.5280    0.0460   27.7670 O   0  0  0  0  0  0  0  0  0  0  0  0
    3.9160    0.6390   26.5450 C   0  0  0  0  0  0  0  0  0  0  0  0
    3.5190   -0.3020   25.4060 C   0  0  0  0  0  0  0  0  0  0  0  0
    5.7360    0.0060   28.6800 C   0  0  0  0  0  0  0  0  0  0  0  0
    6.1760   -5.1560   23.6780 C   0  0  0  0  0  0  0  0  0  0  0  0
    6.5640   -5.3570   22.2660 C   0  0  0  0  0  0  0  0  0  0  0  0
  1  2  1  0
  2  3  2  0
  2  4  1  0
  4  5  1  0
  5  6  1  0
  6  7  1  0
  7  8  1  0
  8  9  2  0
  8 10  1  0
 10 11  1  0
 12 11  1  6
 10 13  1  0
 12 13  1  0
 12 14  1  0
 14 15  1  0
 15 16  1  1
 16 17  1  0
 15 18  1  0
 12 19  1  0
 18 19  1  0
 19 20  1  6
 20 21  2  0
 20 22  1  0
 22 23  1  0
 23 24  1  0
 15 25  1  0
 19 25  1  0
  7 26  1  0
  4 27  1  0
 26 27  1  0
M  END
