piperidine-amides-7067-covalent
     RDKit          3D

 22 23  0  0  0  0  0  0  0  0999 V2000
    7.1340   -3.2640   19.2110 C   0  0  0  0  0  0  0  0  0  0  0  0
    6.3180   -3.9720   20.2100 C   0  0  0  0  0  0  0  0  0  0  0  0
    5.2570   -4.5320   19.8730 O   0  0  0  0  0  0  0  0  0  0  0  0
    6.7370   -4.0750   21.5350 N   0  0  0  0  0  0  0  0  0  0  0  0
    7.6630   -3.0900   22.0750 C   0  0  0  0  0  0  0  0  0  0  0  0
    7.2640   -2.7720   23.5230 C   0  0  0  0  0  0  0  0  0  0  0  0
    6.0070   -3.5590   23.8110 C   0  0  0  0  0  0  0  0  0  0  0  0
    5.5580   -3.3070   25.1980 C   0  0  0  0  0  0  0  0  0  0  0  0
    4.3440   -3.0930   25.4050 O   0  0  0  0  0  0  0  0  0  0  0  0
    6.5070   -3.3040   26.2410 N   0  0  0  0  0  0  0  0  0  0  0  0
    6.1550   -3.5990   27.6090 C   0  0  0  0  0  0  0  0  0  0  0  0
    5.5680   -5.0000   27.7670 C   0  0  1  0  0  0  0  0  0  0  0  0
    5.3700   -5.8730   26.7450 C   0  0  0  0  0  0  0  0  0  0  0  0
    6.0390   -5.7340   25.6990 O   0  0  0  0  0  0  0  0  0  0  0  0
    6.4140   -5.7240   28.7890 C   0  0  0  0  0  0  0  0  0  0  0  0
    5.6860   -6.1470   29.8920 C   0  0  0  0  0  0  0  0  0  0  0  0
    5.7960   -7.3180   30.5360 C   0  0  0  0  0  0  0  0  0  0  0  0
    4.9260   -7.6250   31.7340 C   0  0  0  0  0  0  0  0  0  0  0  0
    4.3590   -6.2160   31.4470 C   0  0  0  0  0  0  0  0  0  0  0  0
    4.7270   -5.4140   30.4970 O   0  0  0  0  0  0  0  0  0  0  0  0
    6.1690   -5.0070   23.5930 C   0  0  0  0  0  0  0  0  0  0  0  0
    6.5450   -5.3020   22.2220 C   0  0  0  0  0  0  0  0  0  0  0  0
  1  2  1  0
  2  3  2  0
  2  4  1  0
  4  5  1  0
  5  6  1  0
  6  7  1  0
  7  8  1  0
  8  9  2  0
  8 10  1  0
 10 11  1  0
 12 11  1  6
 12 13  1  0
 13 14  1  0
 12 15  1  0
 15 16  1  0
 16 17  2  0
 17 18  1  0
 18 19  2  0
 16 20  1  0
 19 20  1  0
  7 21  1  0
  4 22  1  0
 21 22  1  0
M  END
