piperidine-amides-7160-covalent
     RDKit          3D

 21 22  0  0  0  0  0  0  0  0999 V2000
    7.0890   -3.3580   19.3460 C   0  0  0  0  0  0  0  0  0  0  0  0
    6.3700   -4.1610   20.3360 C   0  0  0  0  0  0  0  0  0  0  0  0
    5.3080   -4.7040   19.9410 O   0  0  0  0  0  0  0  0  0  0  0  0
    6.8940   -4.3370   21.6200 N   0  0  0  0  0  0  0  0  0  0  0  0
    6.5950   -5.4910   22.4350 C   0  0  0  0  0  0  0  0  0  0  0  0
    6.0000   -5.0190   23.7430 C   0  0  0  0  0  0  0  0  0  0  0  0
    5.9760   -3.5170   23.8580 C   0  0  0  0  0  0  0  0  0  0  0  0
    5.6320   -3.1000   25.2260 C   0  0  0  0  0  0  0  0  0  0  0  0
    4.4470   -3.1910   25.6130 O   0  0  0  0  0  0  0  0  0  0  0  0
    6.6170   -2.6120   26.0840 N   0  0  0  0  0  0  0  0  0  0  0  0
    6.4620   -1.4450   26.9150 C   0  0  0  0  0  0  0  0  0  0  0  0
    6.1060   -0.1450   26.2150 C   0  0  0  0  0  0  0  0  0  0  0  0
    5.9480    1.0300   26.9120 C   0  0  0  0  0  0  0  0  0  0  0  0
    5.5030    2.6500   26.0120 Br  0  0  0  0  0  0  0  0  0  0  0  0
    6.1240    1.0170   28.2800 C   0  0  0  0  0  0  0  0  0  0  0  0
    6.0080    2.1100   29.1260 C   0  0  0  0  0  0  0  0  0  0  0  0
    6.4710   -0.2610   28.9760 C   0  0  0  0  0  0  0  0  0  0  0  0
    6.6150   -1.4160   28.2540 C   0  0  0  0  0  0  0  0  0  0  0  0
    6.9460   -2.6890   28.9040 C   0  0  0  0  0  0  0  0  0  0  0  0
    7.3080   -2.9230   23.5560 C   0  0  0  0  0  0  0  0  0  0  0  0
    7.6930   -3.2260   22.1410 C   0  0  0  0  0  0  0  0  0  0  0  0
  1  2  1  0
  2  3  2  0
  2  4  1  0
  4  5  1  0
  5  6  1  0
  6  7  1  0
  7  8  1  0
  8  9  2  0
  8 10  1  0
 10 11  1  0
 11 12  2  0
 12 13  1  0
 13 14  1  0
 13 15  2  0
 15 16  1  0
 15 17  1  0
 11 18  1  0
 17 18  2  0
 18 19  1  0
  7 20  1  0
  4 21  1  0
 20 21  1  0
M  END
