piperidine-amides-168-covalent
     RDKit          3D

 21 22  0  0  0  0  0  0  0  0999 V2000
    7.1970   -3.2990   19.3310 C   0  0  0  0  0  0  0  0  0  0  0  0
    6.4710   -4.0800   20.3040 C   0  0  0  0  0  0  0  0  0  0  0  0
    5.3950   -4.6600   19.9410 O   0  0  0  0  0  0  0  0  0  0  0  0
    6.9530   -4.2510   21.6220 N   0  0  0  0  0  0  0  0  0  0  0  0
    6.4920   -5.4050   22.4150 C   0  0  0  0  0  0  0  0  0  0  0  0
    5.5610   -4.6560   23.4470 C   0  0  0  0  0  0  0  0  0  0  0  0
    6.4400   -3.6250   24.1320 C   0  0  0  0  0  0  0  0  0  0  0  0
    5.7420   -2.9900   25.4150 C   0  0  0  0  0  0  0  0  0  0  0  0
    5.1900   -1.9400   25.1270 O   0  0  0  0  0  0  0  0  0  0  0  0
    5.9120   -3.7430   26.4200 N   0  0  0  0  0  0  0  0  0  0  0  0
    5.9820   -4.5530   27.5080 C   0  0  0  0  0  0  0  0  0  0  0  0
    5.9470   -5.8700   27.8590 C   0  0  0  0  0  0  0  0  0  0  0  0
    4.8550   -6.5440   27.2530 C   0  0  0  0  0  0  0  0  0  0  0  0
    4.6100   -6.6390   25.8660 O   0  0  0  0  0  0  0  0  0  0  0  0
    3.4000   -7.3920   25.7510 C   0  0  0  0  0  0  0  0  0  0  0  0
    2.9180   -7.7490   27.0440 N   0  0  0  0  0  0  0  0  0  0  0  0
    3.8240   -7.2300   28.0250 C   0  0  0  0  0  0  0  0  0  0  0  0
    3.7400   -7.3460   29.4190 C   0  0  0  0  0  0  0  0  0  0  0  0
    2.9530   -6.3570   30.0480 O   0  0  0  0  0  0  0  0  0  0  0  0
    6.8910   -2.5310   23.1990 C   0  0  0  0  0  0  0  0  0  0  0  0
    7.8150   -3.2470   22.2310 C   0  0  0  0  0  0  0  0  0  0  0  0
  1  2  1  0
  2  3  2  0
  2  4  1  0
  4  5  1  0
  5  6  1  0
  6  7  1  0
  7  8  1  0
  8  9  2  0
  8 10  1  0
 10 11  1  0
 11 12  1  0
 12 13  1  0
 13 14  1  0
 14 15  1  0
 15 16  2  0
 13 17  2  0
 16 17  1  0
 17 18  1  0
 18 19  1  0
  7 20  1  0
  4 21  1  0
 20 21  1  0
M  END
