piperidine-amides-4162-covalent
     RDKit          3D

 27 29  0  0  0  0  0  0  0  0999 V2000
    7.0880   -3.3000   19.2810 C   0  0  0  0  0  0  0  0  0  0  0  0
    6.3210   -4.0330   20.3030 C   0  0  0  0  0  0  0  0  0  0  0  0
    5.2710   -4.5890   19.9060 O   0  0  0  0  0  0  0  0  0  0  0  0
    6.7620   -4.1580   21.6530 N   0  0  0  0  0  0  0  0  0  0  0  0
    7.6160   -3.1540   22.2010 C   0  0  0  0  0  0  0  0  0  0  0  0
    7.2790   -2.8830   23.5770 C   0  0  0  0  0  0  0  0  0  0  0  0
    6.0770   -3.6360   23.9460 C   0  0  0  0  0  0  0  0  0  0  0  0
    5.5800   -3.3050   25.3330 C   0  0  0  0  0  0  0  0  0  0  0  0
    4.3610   -3.0950   25.4830 O   0  0  0  0  0  0  0  0  0  0  0  0
    6.4250   -3.2100   26.4600 N   0  0  0  0  0  0  0  0  0  0  0  0
    6.1770   -3.6360   27.7990 C   0  0  1  0  0  0  0  0  0  0  0  0
    6.0060   -2.5610   28.7730 C   0  0  0  0  0  0  0  0  0  0  0  0
    4.8030   -2.5660   29.7250 C   0  0  0  0  0  0  0  0  0  0  0  0
    4.5520   -1.5790   30.7000 C   0  0  0  0  0  0  0  0  0  0  0  0
    5.5350   -0.3620   30.8760 C   0  0  0  0  0  0  0  0  0  0  0  0
    6.6630   -0.4750   29.8920 C   0  0  0  0  0  0  0  0  0  0  0  0
    7.5260    0.6230   30.0660 O   0  0  0  0  0  0  0  0  0  0  0  0
    7.4000    1.4770   31.1380 C   0  0  0  0  0  0  0  0  0  0  0  0
    6.2690    2.2370   31.0300 F   0  0  0  0  0  0  0  0  0  0  0  0
    7.3690    0.7260   32.3080 F   0  0  0  0  0  0  0  0  0  0  0  0
    8.5570    2.2520   31.1290 F   0  0  0  0  0  0  0  0  0  0  0  0
    6.9260   -1.4360   28.9250 C   0  0  0  0  0  0  0  0  0  0  0  0
    5.2630   -4.6360   28.0420 C   0  0  0  0  0  0  0  0  0  0  0  0
    5.6300   -5.4610   29.1100 C   0  0  0  0  0  0  0  0  0  0  0  0
    5.4770   -6.1460   27.7230 C   0  0  0  0  0  0  0  0  0  0  0  0
    6.2180   -5.1180   23.7270 C   0  0  0  0  0  0  0  0  0  0  0  0
    6.5210   -5.3860   22.3810 C   0  0  0  0  0  0  0  0  0  0  0  0
  1  2  1  0
  2  3  2  0
  2  4  1  0
  4  5  1  0
  5  6  1  0
  6  7  1  0
  7  8  1  0
  8  9  2  0
  8 10  1  0
 11 10  1  6
 11 12  1  0
 12 13  2  0
 13 14  1  0
 14 15  2  0
 15 16  1  0
 16 17  1  0
 17 18  1  0
 18 19  1  0
 18 20  1  0
 18 21  1  0
 12 22  1  0
 16 22  2  0
 11 23  1  0
 23 24  1  0
 23 25  1  0
 24 25  1  0
  7 26  1  0
  4 27  1  0
 26 27  1  0
M  END
