piperidine-amides-21606-covalent
     RDKit          3D

 23 24  0  0  0  0  0  0  0  0999 V2000
    7.0350   -3.3740   19.3810 C   0  0  0  0  0  0  0  0  0  0  0  0
    6.3230   -4.1950   20.3620 C   0  0  0  0  0  0  0  0  0  0  0  0
    5.3040   -4.8080   19.9560 O   0  0  0  0  0  0  0  0  0  0  0  0
    6.8070   -4.3090   21.6640 N   0  0  0  0  0  0  0  0  0  0  0  0
    6.6460   -5.5340   22.4180 C   0  0  0  0  0  0  0  0  0  0  0  0
    5.9850   -5.1890   23.7270 C   0  0  0  0  0  0  0  0  0  0  0  0
    5.9770   -3.7000   23.9090 C   0  0  0  0  0  0  0  0  0  0  0  0
    5.5660   -3.2790   25.2830 C   0  0  0  0  0  0  0  0  0  0  0  0
    4.3910   -2.8700   25.3880 O   0  0  0  0  0  0  0  0  0  0  0  0
    6.3390   -3.2810   26.4780 N   0  0  0  0  0  0  0  0  0  0  0  0
    6.4760   -1.9400   27.0760 C   0  0  0  0  0  0  0  0  0  0  0  0
    7.0420   -1.8260   28.4940 C   0  0  0  0  0  0  0  0  0  0  0  0
    7.2020   -0.6110   29.1260 C   0  0  0  0  0  0  0  0  0  0  0  0
    6.8320    0.5270   28.4490 C   0  0  0  0  0  0  0  0  0  0  0  0
    6.3160    0.4680   27.1720 C   0  0  0  0  0  0  0  0  0  0  0  0
    6.1310   -0.7150   26.4740 C   0  0  0  0  0  0  0  0  0  0  0  0
    6.0970   -4.3860   27.3950 C   0  0  2  0  0  0  0  0  0  0  0  0
    7.2730   -5.0210   28.0950 C   0  0  0  0  0  0  0  0  0  0  0  0
    6.5980   -6.1540   28.8610 C   0  0  0  0  0  0  0  0  0  0  0  0
    5.2620   -5.3200   26.8310 C   0  0  0  0  0  0  0  0  0  0  0  0
    4.0550   -5.5100   27.5320 O   0  0  0  0  0  0  0  0  0  0  0  0
    7.3240   -3.1590   23.6040 C   0  0  0  0  0  0  0  0  0  0  0  0
    7.6100   -3.2350   22.2620 C   0  0  0  0  0  0  0  0  0  0  0  0
  1  2  1  0
  2  3  2  0
  2  4  1  0
  4  5  1  0
  5  6  1  0
  6  7  1  0
  7  8  1  0
  8  9  2  0
  8 10  1  0
 10 11  1  0
 11 12  2  0
 12 13  1  0
 13 14  2  0
 14 15  1  0
 11 16  1  0
 15 16  2  0
 10 17  1  0
 17 18  1  6
 18 19  1  0
 17 20  1  0
 20 21  1  0
  7 22  1  0
  4 23  1  0
 22 23  1  0
M  END
