piperidine-amides-29843-covalent
     RDKit          3D

 27 29  0  0  0  0  0  0  0  0999 V2000
    7.0050   -3.3600   19.4010 C   0  0  0  0  0  0  0  0  0  0  0  0
    6.3190   -4.2460   20.3420 C   0  0  0  0  0  0  0  0  0  0  0  0
    5.3390   -4.8840   19.9760 O   0  0  0  0  0  0  0  0  0  0  0  0
    6.8010   -4.4090   21.6890 N   0  0  0  0  0  0  0  0  0  0  0  0
    7.5820   -3.3690   22.3040 C   0  0  0  0  0  0  0  0  0  0  0  0
    7.2230   -3.2770   23.7560 C   0  0  0  0  0  0  0  0  0  0  0  0
    5.8290   -3.8100   23.9160 C   0  0  0  0  0  0  0  0  0  0  0  0
    5.2290   -3.4190   25.2450 C   0  0  0  0  0  0  0  0  0  0  0  0
    4.4260   -2.4790   25.3190 O   0  0  0  0  0  0  0  0  0  0  0  0
    5.5410   -4.0840   26.4590 N   0  0  0  0  0  0  0  0  0  0  0  0
    6.8790   -4.3950   26.6030 C   0  0  0  0  0  0  0  0  0  0  0  0
    7.0190   -5.5830   27.5070 C   0  0  0  0  0  0  0  0  0  0  0  0
    6.9410   -5.3910   28.8650 C   0  0  0  0  0  0  0  0  0  0  0  0
    5.6080   -5.3400   29.3970 N   0  0  0  0  0  0  0  0  0  0  0  0
    5.2590   -6.4760   30.2270 C   0  0  0  0  0  0  0  0  0  0  0  0
    5.9990   -6.7040   31.4110 O   0  0  0  0  0  0  0  0  0  0  0  0
    4.2300   -7.2420   29.7940 N   0  0  0  0  0  0  0  0  0  0  0  0
    3.3460   -7.7850   30.6280 C   0  0  0  0  0  0  0  0  0  0  0  0
    2.0770   -8.3730   30.2020 C   0  0  0  0  0  0  0  0  0  0  0  0
    1.1580   -8.9410   31.0600 C   0  0  0  0  0  0  0  0  0  0  0  0
    1.4520   -8.9550   32.4000 C   0  0  0  0  0  0  0  0  0  0  0  0
    2.6270   -8.4220   32.8990 C   0  0  0  0  0  0  0  0  0  0  0  0
    3.6120   -7.8150   31.9940 C   0  0  0  0  0  0  0  0  0  0  0  0
    4.7280   -4.7870   28.4300 C   0  0  0  0  0  0  0  0  0  0  0  0
    5.1140   -3.6190   27.7750 C   0  0  0  0  0  0  0  0  0  0  0  0
    5.8470   -5.3020   23.7210 C   0  0  0  0  0  0  0  0  0  0  0  0
    6.6010   -5.6460   22.4130 C   0  0  0  0  0  0  0  0  0  0  0  0
  1  2  1  0
  2  3  2  0
  2  4  1  0
  4  5  1  0
  5  6  1  0
  6  7  1  0
  7  8  1  0
  8  9  2  0
  8 10  1  0
 10 11  1  0
 11 12  1  0
 12 13  1  0
 13 14  1  0
 14 15  1  0
 15 16  2  0
 15 17  1  0
 17 18  1  0
 18 19  2  0
 19 20  1  0
 20 21  2  0
 21 22  1  0
 18 23  1  0
 22 23  2  0
 14 24  1  0
 10 25  1  0
 24 25  1  0
  7 26  1  0
  4 27  1  0
 26 27  1  0
M  END
