piperidine-amides-8603-covalent
     RDKit          3D

 23 25  0  0  0  0  0  0  0  0999 V2000
    7.0790   -3.3030   19.3130 C   0  0  0  0  0  0  0  0  0  0  0  0
    6.3330   -4.0740   20.3130 C   0  0  0  0  0  0  0  0  0  0  0  0
    5.3220   -4.6890   19.9320 O   0  0  0  0  0  0  0  0  0  0  0  0
    6.7750   -4.1420   21.6640 N   0  0  0  0  0  0  0  0  0  0  0  0
    7.6930   -3.1510   22.1590 C   0  0  0  0  0  0  0  0  0  0  0  0
    7.4730   -2.9900   23.6260 C   0  0  0  0  0  0  0  0  0  0  0  0
    6.1000   -3.5630   23.8530 C   0  0  0  0  0  0  0  0  0  0  0  0
    5.6090   -3.2920   25.2450 C   0  0  0  0  0  0  0  0  0  0  0  0
    4.3880   -3.2500   25.3830 O   0  0  0  0  0  0  0  0  0  0  0  0
    6.5310   -3.0960   26.2630 N   0  0  0  0  0  0  0  0  0  0  0  0
    6.1790   -3.2330   27.6410 C   0  0  0  0  0  0  0  0  0  0  0  0
    6.2710   -4.5300   28.1750 C   0  0  0  0  0  0  0  0  0  0  0  0
    5.4270   -4.9380   29.1660 C   0  0  0  0  0  0  0  0  0  0  0  0
    4.1920   -4.3260   29.3670 C   0  0  0  0  0  0  0  0  0  0  0  0
    3.3260   -4.8180   30.4800 C   0  0  0  0  0  0  0  0  0  0  0  0
    3.7260   -5.9590   31.4210 C   0  0  0  0  0  0  0  0  0  0  0  0
    2.9390   -6.4420   32.4820 N   0  0  0  0  0  0  0  0  0  0  0  0
    3.6400   -7.5040   33.1380 C   0  0  0  0  0  0  0  0  0  0  0  0
    5.1760   -7.8410   32.4410 S   0  0  0  0  0  0  0  0  0  0  0  0
    5.0620   -6.5920   31.1720 C   0  0  0  0  0  0  0  0  0  0  0  0
    5.8450   -5.9850   29.9790 C   0  0  0  0  0  0  0  0  0  0  0  0
    6.1380   -5.0660   23.6720 C   0  0  0  0  0  0  0  0  0  0  0  0
    6.6240   -5.3740   22.4090 C   0  0  0  0  0  0  0  0  0  0  0  0
  1  2  1  0
  2  3  2  0
  2  4  1  0
  4  5  1  0
  5  6  1  0
  6  7  1  0
  7  8  1  0
  8  9  2  0
  8 10  1  0
 10 11  1  0
 11 12  1  0
 12 13  1  0
 13 14  2  0
 14 15  1  0
 15 16  2  0
 16 17  1  0
 17 18  2  0
 18 19  1  0
 16 20  1  0
 19 20  1  0
 13 21  1  0
 20 21  2  0
  7 22  1  0
  4 23  1  0
 22 23  1  0
M  END
