piperidine-amides-24957-covalent
     RDKit          3D

 25 28  0  0  0  0  0  0  0  0999 V2000
    7.0910   -3.3450   19.4000 C   0  0  0  0  0  0  0  0  0  0  0  0
    6.3820   -4.1830   20.3750 C   0  0  0  0  0  0  0  0  0  0  0  0
    5.3980   -4.8620   19.9950 O   0  0  0  0  0  0  0  0  0  0  0  0
    6.8240   -4.2680   21.7090 N   0  0  0  0  0  0  0  0  0  0  0  0
    6.6430   -5.5170   22.4200 C   0  0  0  0  0  0  0  0  0  0  0  0
    6.1540   -5.1980   23.8460 C   0  0  0  0  0  0  0  0  0  0  0  0
    5.8720   -3.7120   23.9370 C   0  0  0  0  0  0  0  0  0  0  0  0
    5.0310   -3.3320   25.1350 C   0  0  0  0  0  0  0  0  0  0  0  0
    3.8080   -3.2920   24.9270 O   0  0  0  0  0  0  0  0  0  0  0  0
    5.4980   -3.0050   26.4460 N   0  0  0  0  0  0  0  0  0  0  0  0
    6.7350   -3.1540   26.7720 C   0  0  0  0  0  0  0  0  0  0  0  0
    6.4530   -4.3440   27.6410 C   0  0  0  0  0  0  0  0  0  0  0  0
    5.2510   -4.4800   28.3560 C   0  0  2  0  0  0  0  0  0  0  0  0
    4.4190   -5.5830   28.2980 C   0  0  0  0  0  0  0  0  0  0  0  0
    3.7890   -6.1660   29.4150 C   0  0  0  0  0  0  0  0  0  0  0  0
    3.0620   -7.1910   28.9380 N   0  0  0  0  0  0  0  0  0  0  0  0
    3.2380   -7.2480   27.5350 C   0  0  0  0  0  0  0  0  0  0  0  0
    2.5910   -8.2500   26.6060 C   0  0  0  0  0  0  0  0  0  0  0  0
    3.1760   -7.7830   25.2710 C   0  0  0  0  0  0  0  0  0  0  0  0
    4.0980   -6.7490   24.6500 C   0  0  0  0  0  0  0  0  0  0  0  0
    4.5030   -5.9940   25.8390 C   0  0  0  0  0  0  0  0  0  0  0  0
    4.0950   -6.2440   27.1250 C   0  0  0  0  0  0  0  0  0  0  0  0
    4.7580   -3.3270   27.6350 C   0  0  0  0  0  0  0  0  0  0  0  0
    7.1460   -2.9200   23.7260 C   0  0  0  0  0  0  0  0  0  0  0  0
    7.5920   -3.1910   22.3020 C   0  0  0  0  0  0  0  0  0  0  0  0
  1  2  1  0
  2  3  2  0
  2  4  1  0
  4  5  1  0
  5  6  1  0
  6  7  1  0
  7  8  1  0
  8  9  2  0
  8 10  1  0
 10 11  1  0
 11 12  1  0
 12 13  1  0
 13 14  1  6
 14 15  2  0
 15 16  1  0
 16 17  1  0
 17 18  1  0
 18 19  2  0
 19 20  1  0
 20 21  2  0
 14 22  1  0
 17 22  2  0
 21 22  1  0
 10 23  1  0
 13 23  1  0
  7 24  1  0
  4 25  1  0
 24 25  1  0
M  END
