piperidine-amides-25638-covalent
     RDKit          3D

 25 27  0  0  0  0  0  0  0  0999 V2000
    6.9730   -3.3810   19.4390 C   0  0  0  0  0  0  0  0  0  0  0  0
    6.3430   -4.2910   20.4410 C   0  0  0  0  0  0  0  0  0  0  0  0
    5.4240   -4.9910   20.0140 O   0  0  0  0  0  0  0  0  0  0  0  0
    6.8060   -4.3580   21.7740 N   0  0  0  0  0  0  0  0  0  0  0  0
    6.6010   -5.5420   22.5950 C   0  0  0  0  0  0  0  0  0  0  0  0
    6.0420   -5.1720   23.9580 C   0  0  0  0  0  0  0  0  0  0  0  0
    5.9070   -3.6540   24.0430 C   0  0  0  0  0  0  0  0  0  0  0  0
    5.1490   -3.1150   25.2350 C   0  0  0  0  0  0  0  0  0  0  0  0
    4.3900   -2.1790   24.9860 O   0  0  0  0  0  0  0  0  0  0  0  0
    5.1690   -3.5280   26.6050 N   0  0  0  0  0  0  0  0  0  0  0  0
    6.2600   -4.3050   27.0300 C   0  0  0  0  0  0  0  0  0  0  0  0
    5.9720   -5.1560   28.2450 C   0  0  0  0  0  0  0  0  0  0  0  0
    6.4870   -6.4020   28.3780 C   0  0  0  0  0  0  0  0  0  0  0  0
    6.2390   -7.2050   29.4270 C   0  0  0  0  0  0  0  0  0  0  0  0
    5.4500   -6.7560   30.3730 C   0  0  0  0  0  0  0  0  0  0  0  0
    4.8100   -5.4230   30.3850 C   0  0  0  0  0  0  0  0  0  0  0  0
    5.1020   -4.5110   29.2140 C   0  0  0  0  0  0  0  0  0  0  0  0
    4.5810   -3.1570   29.0370 C   0  0  2  0  0  0  0  0  0  0  0  0
    3.1010   -3.3710   29.1120 C   0  0  0  0  0  0  0  0  0  0  0  0
    2.3760   -2.2470   28.6920 O   0  0  0  0  0  0  0  0  0  0  0  0
    2.5480   -4.4290   29.5110 O   0  0  0  0  0  0  0  0  0  0  0  0
    2.5530   -5.6050   28.7450 C   0  0  0  0  0  0  0  0  0  0  0  0
    4.9970   -2.5600   27.7180 C   0  0  0  0  0  0  0  0  0  0  0  0
    7.2630   -3.0250   23.8050 C   0  0  0  0  0  0  0  0  0  0  0  0
    7.6090   -3.2890   22.3590 C   0  0  0  0  0  0  0  0  0  0  0  0
  1  2  1  0
  2  3  2  0
  2  4  1  0
  4  5  1  0
  5  6  1  0
  6  7  1  0
  7  8  1  0
  8  9  2  0
  8 10  1  0
 10 11  1  0
 11 12  1  0
 12 13  2  0
 13 14  1  0
 14 15  2  0
 15 16  1  0
 12 17  1  0
 16 17  2  0
 17 18  1  0
 18 19  1  6
 19 20  2  0
 19 21  1  0
 21 22  1  0
 10 23  1  0
 18 23  1  0
  7 24  1  0
  4 25  1  0
 24 25  1  0
M  END
