piperidine-amides-31569-covalent
     RDKit          3D

 27 29  0  0  0  0  0  0  0  0999 V2000
    7.1750   -3.3370   19.3710 C   0  0  0  0  0  0  0  0  0  0  0  0
    6.4390   -4.1900   20.2750 C   0  0  0  0  0  0  0  0  0  0  0  0
    5.3110   -4.6410   19.9150 O   0  0  0  0  0  0  0  0  0  0  0  0
    6.9790   -4.5900   21.5040 N   0  0  0  0  0  0  0  0  0  0  0  0
    7.7870   -3.5740   22.2220 C   0  0  0  0  0  0  0  0  0  0  0  0
    6.6180   -2.9370   23.0200 C   0  0  0  0  0  0  0  0  0  0  0  0
    6.1740   -4.1000   23.8540 C   0  0  0  0  0  0  0  0  0  0  0  0
    5.4340   -3.5590   25.1170 C   0  0  0  0  0  0  0  0  0  0  0  0
    4.2360   -3.7900   25.1670 O   0  0  0  0  0  0  0  0  0  0  0  0
    6.3740   -3.0200   25.7110 N   0  0  0  0  0  0  0  0  0  0  0  0
    7.6570   -2.7840   26.0090 C   0  0  0  0  0  0  0  0  0  0  0  0
    8.8660   -2.6180   25.3420 C   0  0  0  0  0  0  0  0  0  0  0  0
    9.0250   -1.6790   24.2310 C   0  0  0  0  0  0  0  0  0  0  0  0
   10.2460   -1.3540   23.4170 C   0  0  0  0  0  0  0  0  0  0  0  0
   11.2230   -2.2650   24.0950 C   0  0  0  0  0  0  0  0  0  0  0  0
   12.5630   -2.2940   23.6680 C   0  0  0  0  0  0  0  0  0  0  0  0
   11.4050   -3.2680   25.1500 C   0  0  0  0  0  0  0  0  0  0  0  0
   10.0680   -3.4600   25.8360 C   0  0  0  0  0  0  0  0  0  0  0  0
    5.8550   -2.0050   26.6190 C   0  0  0  0  0  0  0  0  0  0  0  0
    6.2080   -0.6880   26.3490 C   0  0  0  0  0  0  0  0  0  0  0  0
    5.9560    0.5880   26.8940 C   0  0  0  0  0  0  0  0  0  0  0  0
    5.1130    0.0480   27.9410 N   0  0  0  0  0  0  0  0  0  0  0  0
    4.7070   -1.2570   28.2840 C   0  0  0  0  0  0  0  0  0  0  0  0
    3.6560   -1.3760   29.6970 Cl  0  0  0  0  0  0  0  0  0  0  0  0
    5.0850   -2.3970   27.6010 N   0  0  0  0  0  0  0  0  0  0  0  0
    5.5320   -5.2300   23.1420 C   0  0  0  0  0  0  0  0  0  0  0  0
    6.4440   -5.7210   22.2130 C   0  0  0  0  0  0  0  0  0  0  0  0
  1  2  1  0
  2  3  2  0
  2  4  1  0
  4  5  1  0
  5  6  1  0
  6  7  1  0
  7  8  1  0
  8  9  2  0
  8 10  1  0
 10 11  1  0
 11 12  1  0
 12 13  2  0
 13 14  1  0
 14 15  2  0
 15 16  1  0
 15 17  1  0
 12 18  1  0
 17 18  2  0
 10 19  1  0
 19 20  2  0
 20 21  1  0
 21 22  2  0
 22 23  1  0
 23 24  1  0
 19 25  1  0
 23 25  2  0
  7 26  1  0
  4 27  1  0
 26 27  1  0
M  END
