piperidine-amides-211-covalent
     RDKit          3D

 16 17  0  0  0  0  0  0  0  0999 V2000
    7.1510   -3.3430   19.4190 C   0  0  0  0  0  0  0  0  0  0  0  0
    6.4470   -4.1750   20.3660 C   0  0  0  0  0  0  0  0  0  0  0  0
    5.4060   -4.7960   19.9760 O   0  0  0  0  0  0  0  0  0  0  0  0
    6.9140   -4.3490   21.6870 N   0  0  0  0  0  0  0  0  0  0  0  0
    7.7670   -3.2950   22.2850 C   0  0  0  0  0  0  0  0  0  0  0  0
    6.7840   -2.7780   23.3960 C   0  0  0  0  0  0  0  0  0  0  0  0
    6.5020   -3.9900   24.2520 C   0  0  0  0  0  0  0  0  0  0  0  0
    5.6710   -3.6150   25.5500 C   0  0  0  0  0  0  0  0  0  0  0  0
    4.7760   -4.4140   25.7450 O   0  0  0  0  0  0  0  0  0  0  0  0
    6.1390   -2.5540   26.0510 N   0  0  0  0  0  0  0  0  0  0  0  0
    6.5530   -1.3640   26.5420 C   0  0  1  0  0  0  0  0  0  0  0  0
    6.1820   -0.3830   27.1940 C   0  0  0  0  0  0  0  0  0  0  0  0
    6.8970   -1.3160   28.0680 C   0  0  1  0  0  0  0  0  0  0  0  0
    6.3660   -2.5470   28.6850 C   0  0  0  0  0  0  0  0  0  0  0  0
    5.8050   -5.1440   23.5400 C   0  0  0  0  0  0  0  0  0  0  0  0
    6.6160   -5.5260   22.4670 C   0  0  0  0  0  0  0  0  0  0  0  0
  1  2  1  0
  2  3  2  0
  2  4  1  0
  4  5  1  0
  5  6  1  0
  6  7  1  0
  7  8  1  0
  8  9  2  0
  8 10  1  0
 11 10  1  1
 11 12  1  0
 11 13  1  0
 12 13  1  0
 13 14  1  1
  7 15  1  0
  4 16  1  0
 15 16  1  0
M  END
