piperidine-amides-34114-covalent
     RDKit          3D

 26 28  0  0  0  0  0  0  0  0999 V2000
    7.0630   -3.3370   19.3510 C   0  0  0  0  0  0  0  0  0  0  0  0
    6.4100   -4.2050   20.3380 C   0  0  0  0  0  0  0  0  0  0  0  0
    5.4030   -4.8670   19.9960 O   0  0  0  0  0  0  0  0  0  0  0  0
    6.9290   -4.3520   21.6400 N   0  0  0  0  0  0  0  0  0  0  0  0
    6.7010   -5.6160   22.3210 C   0  0  0  0  0  0  0  0  0  0  0  0
    6.2550   -5.3060   23.7550 C   0  0  0  0  0  0  0  0  0  0  0  0
    5.9230   -3.8370   23.7550 C   0  0  0  0  0  0  0  0  0  0  0  0
    4.9520   -3.4590   24.8100 C   0  0  0  0  0  0  0  0  0  0  0  0
    3.7600   -3.4680   24.4640 O   0  0  0  0  0  0  0  0  0  0  0  0
    5.2320   -3.0850   26.1400 N   0  0  0  0  0  0  0  0  0  0  0  0
    6.5160   -3.0590   26.7710 C   0  0  0  0  0  0  0  0  0  0  0  0
    6.5410   -3.9210   28.1430 C   0  0  2  0  0  0  0  0  0  0  0  0
    6.0240   -5.2760   27.9460 N   0  0  0  0  0  0  0  0  0  0  0  0
    6.3080   -6.3560   28.8800 C   0  0  0  0  0  0  0  0  0  0  0  0
    5.5080   -5.6630   26.7010 C   0  0  0  0  0  0  0  0  0  0  0  0
    6.0050   -3.4330   29.4500 C   0  0  0  0  0  0  0  0  0  0  0  0
    4.6530   -3.1640   29.6740 C   0  0  0  0  0  0  0  0  0  0  0  0
    4.2600   -3.6760   28.4320 C   0  0  0  0  0  0  0  0  0  0  0  0
    5.0690   -2.7220   29.3580 C   0  0  0  0  0  0  0  0  0  0  0  0
    6.1090   -1.6150   29.3120 C   0  0  0  0  0  0  0  0  0  0  0  0
    7.0160   -0.4600   30.5510 Br  0  0  0  0  0  0  0  0  0  0  0  0
    6.1950   -1.7370   27.9050 C   0  0  0  0  0  0  0  0  0  0  0  0
    5.4640   -2.6270   27.1340 C   0  0  0  0  0  0  0  0  0  0  0  0
    4.5040   -3.6150   27.1490 C   0  0  0  0  0  0  0  0  0  0  0  0
    7.1820   -3.0180   23.6710 C   0  0  0  0  0  0  0  0  0  0  0  0
    7.6720   -3.2600   22.2630 C   0  0  0  0  0  0  0  0  0  0  0  0
  1  2  1  0
  2  3  2  0
  2  4  1  0
  4  5  1  0
  5  6  1  0
  6  7  1  0
  7  8  1  0
  8  9  2  0
  8 10  1  0
 10 11  1  0
 11 12  1  0
 12 13  1  6
 13 14  1  0
 13 15  1  0
 12 16  1  0
 16 17  1  0
 17 18  1  0
 18 19  1  0
 19 20  2  0
 20 21  1  0
 20 22  1  0
 22 23  2  0
 10 24  1  0
 18 24  2  0
 23 24  1  0
  7 25  1  0
  4 26  1  0
 25 26  1  0
M  END
