piperidine-amides-4354-covalent
     RDKit          3D

 26 27  0  0  0  0  0  0  0  0999 V2000
    7.1320   -3.2850   19.2150 C   0  0  0  0  0  0  0  0  0  0  0  0
    6.4000   -4.0760   20.2200 C   0  0  0  0  0  0  0  0  0  0  0  0
    5.2920   -4.5470   19.8810 O   0  0  0  0  0  0  0  0  0  0  0  0
    6.9640   -4.3430   21.4890 N   0  0  0  0  0  0  0  0  0  0  0  0
    6.3780   -5.3930   22.2320 C   0  0  0  0  0  0  0  0  0  0  0  0
    5.7560   -4.9550   23.4850 C   0  0  0  0  0  0  0  0  0  0  0  0
    6.3880   -3.8030   24.1840 C   0  0  0  0  0  0  0  0  0  0  0  0
    5.5180   -3.3340   25.3040 C   0  0  0  0  0  0  0  0  0  0  0  0
    4.3100   -3.1200   25.1010 O   0  0  0  0  0  0  0  0  0  0  0  0
    6.0410   -3.1310   26.5860 N   0  0  0  0  0  0  0  0  0  0  0  0
    7.2690   -3.5710   27.0890 C   0  0  2  0  0  0  0  0  0  0  0  0
    8.4830   -3.3290   26.3150 C   0  0  0  0  0  0  0  0  0  0  0  0
    9.7230   -4.2360   26.4850 C   0  0  0  0  0  0  0  0  0  0  0  0
   10.9250   -4.0200   25.7860 C   0  0  0  0  0  0  0  0  0  0  0  0
   10.9310   -2.8010   24.8220 C   0  0  0  0  0  0  0  0  0  0  0  0
   12.3230   -2.7960   24.2530 C   0  0  0  0  0  0  0  0  0  0  0  0
   11.9470   -1.6810   23.2950 C   0  0  0  0  0  0  0  0  0  0  0  0
   13.1040   -0.8580   22.7840 C   0  0  0  0  0  0  0  0  0  0  0  0
   11.1630   -2.1710   22.0920 C   0  0  0  0  0  0  0  0  0  0  0  0
    9.7660   -1.8870   24.5880 C   0  0  0  0  0  0  0  0  0  0  0  0
    8.5570   -2.1620   25.3380 C   0  0  0  0  0  0  0  0  0  0  0  0
    7.1260   -4.9720   27.4420 C   0  0  0  0  0  0  0  0  0  0  0  0
    7.6260   -5.9340   26.6410 C   0  0  0  0  0  0  0  0  0  0  0  0
    7.8520   -5.1220   28.5860 C   0  0  0  0  0  0  0  0  0  0  0  0
    6.7150   -2.6880   23.2350 C   0  0  0  0  0  0  0  0  0  0  0  0
    7.6000   -3.2610   22.1600 C   0  0  0  0  0  0  0  0  0  0  0  0
  1  2  1  0
  2  3  2  0
  2  4  1  0
  4  5  1  0
  5  6  1  0
  6  7  1  0
  7  8  1  0
  8  9  2  0
  8 10  1  0
 11 10  1  6
 11 12  1  0
 12 13  2  0
 13 14  1  0
 14 15  2  0
 15 16  1  0
 16 17  1  0
 17 18  1  0
 17 19  1  0
 15 20  1  0
 12 21  1  0
 20 21  2  0
 11 22  1  0
 22 23  1  0
 22 24  1  0
  7 25  1  0
  4 26  1  0
 25 26  1  0
M  END
