piperidine-amides-10607-covalent
     RDKit          3D

 23 25  0  0  0  0  0  0  0  0999 V2000
    7.1140   -3.2700   19.1910 C   0  0  0  0  0  0  0  0  0  0  0  0
    6.3670   -4.0190   20.2060 C   0  0  0  0  0  0  0  0  0  0  0  0
    5.2610   -4.4990   19.8580 O   0  0  0  0  0  0  0  0  0  0  0  0
    6.9110   -4.2250   21.4690 N   0  0  0  0  0  0  0  0  0  0  0  0
    7.6960   -3.2020   22.1220 C   0  0  0  0  0  0  0  0  0  0  0  0
    6.9310   -2.7310   23.3190 C   0  0  0  0  0  0  0  0  0  0  0  0
    6.5140   -3.8870   24.1860 C   0  0  0  0  0  0  0  0  0  0  0  0
    5.6670   -3.4000   25.2880 C   0  0  0  0  0  0  0  0  0  0  0  0
    4.5340   -2.9650   25.0020 O   0  0  0  0  0  0  0  0  0  0  0  0
    6.0680   -3.4180   26.6350 N   0  0  0  0  0  0  0  0  0  0  0  0
    5.9360   -2.2690   27.4840 C   0  0  0  0  0  0  0  0  0  0  0  0
    6.2970   -2.5290   28.9310 C   0  0  0  0  0  0  0  0  0  0  0  0
    6.5580   -1.4730   29.7680 C   0  0  0  0  0  0  0  0  0  0  0  0
    7.7900   -0.9160   30.0720 C   0  0  0  0  0  0  0  0  0  0  0  0
    8.0040    0.1570   30.9410 C   0  0  0  0  0  0  0  0  0  0  0  0
    6.9060    0.7280   31.5590 C   0  0  0  0  0  0  0  0  0  0  0  0
    5.6510    0.2390   31.3110 C   0  0  0  0  0  0  0  0  0  0  0  0
    5.4570   -0.9150   30.3740 C   0  0  0  0  0  0  0  0  0  0  0  0
    6.5180   -0.9930   27.0950 C   0  0  0  0  0  0  0  0  0  0  0  0
    5.2630   -0.3180   26.9890 C   0  0  0  0  0  0  0  0  0  0  0  0
    4.5140   -1.5840   27.3680 C   0  0  0  0  0  0  0  0  0  0  0  0
    5.7880   -4.9620   23.4540 C   0  0  0  0  0  0  0  0  0  0  0  0
    6.5200   -5.3900   22.2070 C   0  0  0  0  0  0  0  0  0  0  0  0
  1  2  1  0
  2  3  2  0
  2  4  1  0
  4  5  1  0
  5  6  1  0
  6  7  1  0
  7  8  1  0
  8  9  2  0
  8 10  1  0
 11 10  1  0
 11 12  1  0
 12 13  1  0
 13 14  2  0
 14 15  1  0
 15 16  2  0
 16 17  1  0
 13 18  1  0
 17 18  2  0
 11 19  1  0
 19 20  1  0
 11 21  1  0
 20 21  1  0
  7 22  1  0
  4 23  1  0
 22 23  1  0
M  END
