piperidine-amides-7146-covalent
     RDKit          3D

 21 22  0  0  0  0  0  0  0  0999 V2000
    7.0820   -3.2920   19.2660 C   0  0  0  0  0  0  0  0  0  0  0  0
    6.3340   -4.1010   20.2350 C   0  0  0  0  0  0  0  0  0  0  0  0
    5.2180   -4.5340   19.8640 O   0  0  0  0  0  0  0  0  0  0  0  0
    6.8800   -4.4180   21.4720 N   0  0  0  0  0  0  0  0  0  0  0  0
    7.7080   -3.4730   22.1700 C   0  0  0  0  0  0  0  0  0  0  0  0
    6.9060   -2.9620   23.3020 C   0  0  0  0  0  0  0  0  0  0  0  0
    6.4230   -4.0770   24.1620 C   0  0  0  0  0  0  0  0  0  0  0  0
    5.7170   -3.4960   25.3140 C   0  0  0  0  0  0  0  0  0  0  0  0
    4.4950   -3.7020   25.4560 O   0  0  0  0  0  0  0  0  0  0  0  0
    6.3940   -2.6940   26.2420 N   0  0  0  0  0  0  0  0  0  0  0  0
    6.6380   -1.2990   25.9620 C   0  0  0  0  0  0  0  0  0  0  0  0
    7.2340   -0.9910   24.5650 C   0  0  0  0  0  0  0  0  0  0  0  0
    6.5630   -0.2780   23.5880 C   0  0  0  0  0  0  0  0  0  0  0  0
    7.1000    0.0040   22.3420 C   0  0  0  0  0  0  0  0  0  0  0  0
    6.2420    0.9050   21.1170 Cl  0  0  0  0  0  0  0  0  0  0  0  0
    8.3750   -0.4420   22.0440 C   0  0  0  0  0  0  0  0  0  0  0  0
    9.0710   -1.1520   22.9980 C   0  0  0  0  0  0  0  0  0  0  0  0
   10.8550   -1.8210   22.7150 Br  0  0  0  0  0  0  0  0  0  0  0  0
    8.5130   -1.4220   24.2270 C   0  0  0  0  0  0  0  0  0  0  0  0
    5.5250   -5.0130   23.3620 C   0  0  0  0  0  0  0  0  0  0  0  0
    6.3540   -5.5510   22.1950 C   0  0  0  0  0  0  0  0  0  0  0  0
  1  2  1  0
  2  3  2  0
  2  4  1  0
  4  5  1  0
  5  6  1  0
  6  7  1  0
  7  8  1  0
  8  9  2  0
  8 10  1  0
 10 11  1  0
 11 12  1  0
 12 13  2  0
 13 14  1  0
 14 15  1  0
 14 16  2  0
 16 17  1  0
 17 18  1  0
 12 19  1  0
 17 19  2  0
  7 20  1  0
  4 21  1  0
 20 21  1  0
M  END
