piperidine-amides-35438-covalent
     RDKit          3D

 31 34  0  0  0  0  0  0  0  0999 V2000
    7.0500   -3.3120   19.3170 C   0  0  0  0  0  0  0  0  0  0  0  0
    6.3760   -4.1710   20.3210 C   0  0  0  0  0  0  0  0  0  0  0  0
    5.3650   -4.7770   19.9600 O   0  0  0  0  0  0  0  0  0  0  0  0
    6.9080   -4.3140   21.6040 N   0  0  0  0  0  0  0  0  0  0  0  0
    7.6970   -3.2940   22.2510 C   0  0  0  0  0  0  0  0  0  0  0  0
    7.0620   -2.8940   23.5540 C   0  0  0  0  0  0  0  0  0  0  0  0
    6.7070   -4.1220   24.4060 C   0  0  0  0  0  0  0  0  0  0  0  0
    5.9110   -3.6270   25.5450 C   0  0  0  0  0  0  0  0  0  0  0  0
    4.7690   -4.0780   25.7000 O   0  0  0  0  0  0  0  0  0  0  0  0
    6.3560   -2.6270   26.4310 N   0  0  0  0  0  0  0  0  0  0  0  0
    6.5690   -2.9670   27.8440 C   0  0  0  0  0  0  0  0  0  0  0  0
    6.1950   -1.7570   28.7040 C   0  0  2  0  0  0  0  0  0  0  0  0
    7.0980   -0.8560   29.2360 C   0  0  0  0  0  0  0  0  0  0  0  0
    6.5710   -0.3410   30.3810 C   0  0  0  0  0  0  0  0  0  0  0  0
    5.4130   -1.0030   30.5960 C   0  0  0  0  0  0  0  0  0  0  0  0
    5.4550   -2.1120   29.8250 O   0  0  0  0  0  0  0  0  0  0  0  0
    5.6860   -1.3720   26.7140 C   0  0  0  0  0  0  0  0  0  0  0  0
    4.3420   -1.3920   26.9560 N   0  0  0  0  0  0  0  0  0  0  0  0
    3.7190   -0.1960   27.2130 C   0  0  0  0  0  0  0  0  0  0  0  0
    2.2540    0.0190   27.5080 C   0  0  0  0  0  0  0  0  0  0  0  0
    1.7060   -0.9620   28.4830 C   0  0  0  0  0  0  0  0  0  0  0  0
    0.2710   -0.8220   28.8300 C   0  0  0  0  0  0  0  0  0  0  0  0
   -0.5760    0.2720   28.2140 C   0  0  0  0  0  0  0  0  0  0  0  0
   -2.2740    0.4980   28.5790 Cl  0  0  0  0  0  0  0  0  0  0  0  0
    0.1240    1.1810   27.2480 C   0  0  0  0  0  0  0  0  0  0  0  0
    1.5960    1.0510   26.8790 C   0  0  0  0  0  0  0  0  0  0  0  0
    2.2990    2.1850   25.7260 Cl  0  0  0  0  0  0  0  0  0  0  0  0
    4.4980    0.9480   27.2090 C   0  0  0  0  0  0  0  0  0  0  0  0
    6.1230    0.3430   26.8350 S   0  0  0  0  0  0  0  0  0  0  0  0
    5.9270   -5.1320   23.6030 C   0  0  0  0  0  0  0  0  0  0  0  0
    6.6980   -5.5500   22.3540 C   0  0  0  0  0  0  0  0  0  0  0  0
  1  2  1  0
  2  3  2  0
  2  4  1  0
  4  5  1  0
  5  6  1  0
  6  7  1  0
  7  8  1  0
  8  9  2  0
  8 10  1  0
 10 11  1  0
 12 11  1  1
 12 13  1  0
 13 14  1  0
 14 15  1  0
 12 16  1  0
 15 16  1  0
 10 17  1  0
 17 18  2  0
 18 19  1  0
 19 20  1  0
 20 21  2  0
 21 22  1  0
 22 23  2  0
 23 24  1  0
 23 25  1  0
 20 26  1  0
 25 26  2  0
 26 27  1  0
 19 28  2  0
 17 29  1  0
 28 29  1  0
  7 30  1  0
  4 31  1  0
 30 31  1  0
M  END
