piperidine-amides-5471-covalent
     RDKit          3D

 20 21  0  0  0  0  0  0  0  0999 V2000
    7.0970   -3.2600   19.1980 C   0  0  0  0  0  0  0  0  0  0  0  0
    6.3320   -4.0100   20.2010 C   0  0  0  0  0  0  0  0  0  0  0  0
    5.2560   -4.5260   19.8690 O   0  0  0  0  0  0  0  0  0  0  0  0
    6.7990   -4.2140   21.5060 N   0  0  0  0  0  0  0  0  0  0  0  0
    6.6090   -5.4510   22.2130 C   0  0  0  0  0  0  0  0  0  0  0  0
    5.8990   -5.0740   23.4820 C   0  0  0  0  0  0  0  0  0  0  0  0
    6.6530   -4.0300   24.2630 C   0  0  0  0  0  0  0  0  0  0  0  0
    5.8990   -3.6310   25.4690 C   0  0  0  0  0  0  0  0  0  0  0  0
    4.9590   -2.7790   25.3910 O   0  0  0  0  0  0  0  0  0  0  0  0
    6.1730   -4.1820   26.7390 N   0  0  0  0  0  0  0  0  0  0  0  0
    7.2200   -3.6160   27.6050 C   0  0  0  0  0  0  0  0  0  0  0  0
    6.6460   -2.3780   28.1860 C   0  0  0  0  0  0  0  0  0  0  0  0
    5.2380   -2.0030   28.2370 C   0  0  0  0  0  0  0  0  0  0  0  0
    4.9220   -0.6670   28.8880 C   0  0  0  0  0  0  0  0  0  0  0  0
    5.9950    0.2780   29.4760 C   0  0  0  0  0  0  0  0  0  0  0  0
    7.4320   -0.0820   29.4350 N   0  0  0  0  0  0  0  0  0  0  0  0
    7.5070   -1.3580   28.7960 C   0  0  0  0  0  0  0  0  0  0  0  0
    8.5250   -2.2060   28.4790 C   0  0  0  0  0  0  0  0  0  0  0  0
    6.9420   -2.7980   23.4370 C   0  0  0  0  0  0  0  0  0  0  0  0
    7.6330   -3.2170   22.1600 C   0  0  0  0  0  0  0  0  0  0  0  0
  1  2  1  0
  2  3  2  0
  2  4  1  0
  4  5  1  0
  5  6  1  0
  6  7  1  0
  7  8  1  0
  8  9  2  0
  8 10  1  0
 10 11  1  0
 11 12  1  0
 12 13  2  0
 13 14  1  0
 14 15  2  0
 15 16  1  0
 12 17  1  0
 16 17  2  0
 17 18  1  0
  7 19  1  0
  4 20  1  0
 19 20  1  0
M  END
