piperidine-amides-11381-covalent
     RDKit          3D

 18 19  0  0  0  0  0  0  0  0999 V2000
    7.1530   -3.2820   19.1950 C   0  0  0  0  0  0  0  0  0  0  0  0
    6.3330   -3.9810   20.1810 C   0  0  0  0  0  0  0  0  0  0  0  0
    5.2390   -4.4570   19.8430 O   0  0  0  0  0  0  0  0  0  0  0  0
    6.7910   -4.1850   21.4880 N   0  0  0  0  0  0  0  0  0  0  0  0
    6.4810   -5.3900   22.2030 C   0  0  0  0  0  0  0  0  0  0  0  0
    5.7970   -4.9090   23.4540 C   0  0  0  0  0  0  0  0  0  0  0  0
    6.5580   -3.7990   24.1330 C   0  0  0  0  0  0  0  0  0  0  0  0
    5.8430   -3.2830   25.3200 C   0  0  0  0  0  0  0  0  0  0  0  0
    4.8180   -2.5480   25.1980 O   0  0  0  0  0  0  0  0  0  0  0  0
    6.2600   -3.6050   26.6230 N   0  0  0  0  0  0  0  0  0  0  0  0
    6.1770   -5.0090   27.0740 C   0  0  0  0  0  0  0  0  0  0  0  0
    7.3040   -5.2450   27.9780 C   0  0  2  0  0  0  0  0  0  0  0  0
    8.2690   -4.3400   28.0870 C   0  0  0  0  0  0  0  0  0  0  0  0
    8.7040   -5.6050   27.3320 C   0  0  2  0  0  0  0  0  0  0  0  0
    9.0380   -5.3410   25.8850 C   0  0  0  0  0  0  0  0  0  0  0  0
    7.9620   -5.7420   25.0270 F   0  0  0  0  0  0  0  0  0  0  0  0
    6.8070   -2.6750   23.1870 C   0  0  0  0  0  0  0  0  0  0  0  0
    7.5020   -3.1020   22.0910 C   0  0  0  0  0  0  0  0  0  0  0  0
  1  2  1  0
  2  3  2  0
  2  4  1  0
  4  5  1  0
  5  6  1  0
  6  7  1  0
  7  8  1  0
  8  9  2  0
  8 10  1  0
 10 11  1  0
 12 11  1  6
 12 13  1  0
 12 14  1  0
 13 14  1  0
 14 15  1  6
 15 16  1  0
  7 17  1  0
  4 18  1  0
 17 18  1  0
M  END
