piperidine-amides-3102-covalent
     RDKit          3D

 23 24  0  0  0  0  0  0  0  0999 V2000
    7.1070   -3.2790   19.2050 C   0  0  0  0  0  0  0  0  0  0  0  0
    6.3380   -4.0220   20.1950 C   0  0  0  0  0  0  0  0  0  0  0  0
    5.2670   -4.5320   19.8790 O   0  0  0  0  0  0  0  0  0  0  0  0
    6.8560   -4.2200   21.5170 N   0  0  0  0  0  0  0  0  0  0  0  0
    6.5160   -5.4180   22.2270 C   0  0  0  0  0  0  0  0  0  0  0  0
    5.7720   -5.0550   23.4790 C   0  0  0  0  0  0  0  0  0  0  0  0
    6.5130   -3.9130   24.1520 C   0  0  0  0  0  0  0  0  0  0  0  0
    5.6960   -3.4630   25.3120 C   0  0  0  0  0  0  0  0  0  0  0  0
    4.5090   -3.1060   25.1940 O   0  0  0  0  0  0  0  0  0  0  0  0
    6.2920   -3.4490   26.5890 N   0  0  0  0  0  0  0  0  0  0  0  0
    6.0630   -4.5410   27.5140 C   0  0  2  0  0  0  0  0  0  0  0  0
    4.6360   -4.9500   27.5010 C   0  0  0  0  0  0  0  0  0  0  0  0
    4.4650   -6.0280   28.3500 O   0  0  0  0  0  0  0  0  0  0  0  0
    6.4310   -4.0780   28.8550 C   0  0  0  0  0  0  0  0  0  0  0  0
    6.0910   -2.8010   29.3280 C   0  0  0  0  0  0  0  0  0  0  0  0
    6.9830   -1.7210   29.2590 C   0  0  0  0  0  0  0  0  0  0  0  0
    6.5610   -0.4250   29.7770 C   0  0  0  0  0  0  0  0  0  0  0  0
    5.3310   -0.2390   30.3210 C   0  0  0  0  0  0  0  0  0  0  0  0
    4.8050    0.9340   30.8470 O   0  0  0  0  0  0  0  0  0  0  0  0
    4.4850   -1.3040   30.3750 C   0  0  0  0  0  0  0  0  0  0  0  0
    4.8450   -2.5560   29.8950 C   0  0  0  0  0  0  0  0  0  0  0  0
    6.8950   -2.7910   23.3070 C   0  0  0  0  0  0  0  0  0  0  0  0
    7.6160   -3.2090   22.2050 C   0  0  0  0  0  0  0  0  0  0  0  0
  1  2  1  0
  2  3  2  0
  2  4  1  0
  4  5  1  0
  5  6  1  0
  6  7  1  0
  7  8  1  0
  8  9  2  0
  8 10  1  0
 10 11  1  0
 11 12  1  1
 12 13  1  0
 11 14  1  0
 14 15  1  0
 15 16  2  0
 16 17  1  0
 17 18  2  0
 18 19  1  0
 18 20  1  0
 15 21  1  0
 20 21  2  0
  7 22  1  0
  4 23  1  0
 22 23  1  0
M  END
