piperidine-amides-13457-covalent
     RDKit          3D

 19 20  0  0  0  0  0  0  0  0999 V2000
    7.1600   -3.2590   19.1780 C   0  0  0  0  0  0  0  0  0  0  0  0
    6.3730   -4.0140   20.1900 C   0  0  0  0  0  0  0  0  0  0  0  0
    5.2800   -4.5090   19.8680 O   0  0  0  0  0  0  0  0  0  0  0  0
    6.9280   -4.1930   21.4680 N   0  0  0  0  0  0  0  0  0  0  0  0
    7.7880   -3.2020   22.0710 C   0  0  0  0  0  0  0  0  0  0  0  0
    7.0220   -2.6400   23.2530 C   0  0  0  0  0  0  0  0  0  0  0  0
    6.5330   -3.8140   24.0190 C   0  0  0  0  0  0  0  0  0  0  0  0
    5.7070   -3.4010   25.1510 C   0  0  0  0  0  0  0  0  0  0  0  0
    4.4890   -3.3140   24.9750 O   0  0  0  0  0  0  0  0  0  0  0  0
    6.3240   -3.1270   26.3500 N   0  0  0  0  0  0  0  0  0  0  0  0
    6.0280   -3.7410   27.5690 C   0  0  0  0  0  0  0  0  0  0  0  0
    6.4680   -3.2520   28.7400 C   0  0  0  0  0  0  0  0  0  0  0  0
    6.4890   -1.8600   28.9550 C   0  0  1  0  0  0  0  0  0  0  0  0
    5.3400   -1.4080   29.6440 C   0  0  0  0  0  0  0  0  0  0  0  0
    5.4480   -0.4380   30.7610 C   0  0  0  0  0  0  0  0  0  0  0  0
    6.8880   -0.0870   30.9060 C   0  0  0  0  0  0  0  0  0  0  0  0
    7.7870   -1.0280   29.7320 S   0  0  0  0  0  0  0  0  0  0  0  0
    5.7520   -4.8460   23.2540 C   0  0  0  0  0  0  0  0  0  0  0  0
    6.5340   -5.3370   22.2370 C   0  0  0  0  0  0  0  0  0  0  0  0
  1  2  1  0
  2  3  2  0
  2  4  1  0
  4  5  1  0
  5  6  1  0
  6  7  1  0
  7  8  1  0
  8  9  2  0
  8 10  1  0
 10 11  1  0
 11 12  1  0
 13 12  1  1
 13 14  1  0
 14 15  1  0
 15 16  1  0
 13 17  1  0
 16 17  1  0
  7 18  1  0
  4 19  1  0
 18 19  1  0
M  END
