piperidine-amides-15069-covalent
     RDKit          3D

 21 22  0  0  0  0  0  0  0  0999 V2000
    7.1040   -3.3520   19.3110 C   0  0  0  0  0  0  0  0  0  0  0  0
    6.3870   -4.1550   20.2920 C   0  0  0  0  0  0  0  0  0  0  0  0
    5.3260   -4.7020   19.9430 O   0  0  0  0  0  0  0  0  0  0  0  0
    6.9460   -4.3420   21.5760 N   0  0  0  0  0  0  0  0  0  0  0  0
    6.4040   -5.3780   22.3970 C   0  0  0  0  0  0  0  0  0  0  0  0
    5.5270   -4.7350   23.4280 C   0  0  0  0  0  0  0  0  0  0  0  0
    6.4200   -3.9000   24.3270 C   0  0  0  0  0  0  0  0  0  0  0  0
    5.6120   -3.3310   25.4520 C   0  0  0  0  0  0  0  0  0  0  0  0
    4.4020   -3.2430   25.2500 O   0  0  0  0  0  0  0  0  0  0  0  0
    6.2490   -2.9400   26.6270 N   0  0  0  0  0  0  0  0  0  0  0  0
    6.6830   -1.5950   26.8470 C   0  0  1  0  0  0  0  0  0  0  0  0
    5.7570   -0.5370   26.5450 C   0  0  0  0  0  0  0  0  0  0  0  0
    5.7140    0.2730   27.6270 C   0  0  0  0  0  0  0  0  0  0  0  0
    6.4590   -0.2060   28.6280 C   0  0  0  0  0  0  0  0  0  0  0  0
    6.4900    0.6180   29.8690 C   0  0  0  0  0  0  0  0  0  0  0  0
    7.7290    1.1450   30.1030 O   0  0  0  0  0  0  0  0  0  0  0  0
    5.4010    0.8560   30.7210 O   0  0  0  0  0  0  0  0  0  0  0  0
    5.3190    0.2230   31.9900 C   0  0  0  0  0  0  0  0  0  0  0  0
    7.0540   -1.3870   28.2520 C   0  0  0  0  0  0  0  0  0  0  0  0
    7.1610   -2.8570   23.5690 C   0  0  0  0  0  0  0  0  0  0  0  0
    7.6400   -3.2200   22.1590 C   0  0  0  0  0  0  0  0  0  0  0  0
  1  2  1  0
  2  3  2  0
  2  4  1  0
  4  5  1  0
  5  6  1  0
  6  7  1  0
  7  8  1  0
  8  9  2  0
  8 10  1  0
 11 10  1  1
 11 12  1  0
 12 13  1  0
 13 14  2  0
 14 15  1  0
 15 16  2  0
 15 17  1  0
 17 18  1  0
 11 19  1  0
 14 19  1  0
  7 20  1  0
  4 21  1  0
 20 21  1  0
M  END
