piperidine-amides-10379-covalent
     RDKit          3D

 25 27  0  0  0  0  0  0  0  0999 V2000
    7.1000   -3.3120   19.2780 C   0  0  0  0  0  0  0  0  0  0  0  0
    6.3390   -4.0450   20.2930 C   0  0  0  0  0  0  0  0  0  0  0  0
    5.2820   -4.6040   19.9040 O   0  0  0  0  0  0  0  0  0  0  0  0
    6.8170   -4.1380   21.6060 N   0  0  0  0  0  0  0  0  0  0  0  0
    7.7460   -3.1570   22.1200 C   0  0  0  0  0  0  0  0  0  0  0  0
    7.3700   -2.8600   23.5340 C   0  0  0  0  0  0  0  0  0  0  0  0
    6.0280   -3.4580   23.8420 C   0  0  0  0  0  0  0  0  0  0  0  0
    5.6810   -3.2090   25.2540 C   0  0  0  0  0  0  0  0  0  0  0  0
    4.4930   -3.3740   25.6040 O   0  0  0  0  0  0  0  0  0  0  0  0
    6.6270   -2.7960   26.2070 N   0  0  0  0  0  0  0  0  0  0  0  0
    6.3900   -1.6590   27.0600 C   0  0  0  0  0  0  0  0  0  0  0  0
    5.6470   -2.0450   28.3360 C   0  0  0  0  0  0  0  0  0  0  0  0
    5.4370   -1.0100   29.3220 N   0  0  0  0  0  0  0  0  0  0  0  0
    4.7950   -1.5900   30.2880 C   0  0  0  0  0  0  0  0  0  0  0  0
    4.3820   -0.9740   31.4530 C   0  0  0  0  0  0  0  0  0  0  0  0
    5.2090    0.0290   31.9450 C   0  0  0  0  0  0  0  0  0  0  0  0
    6.5720    0.0940   31.6530 C   0  0  0  0  0  0  0  0  0  0  0  0
    7.4180    1.0840   32.1330 C   0  0  0  0  0  0  0  0  0  0  0  0
    6.9930    2.2230   33.0310 C   0  0  0  0  0  0  0  0  0  0  0  0
    5.5110    2.1100   33.3180 C   0  0  0  0  0  0  0  0  0  0  0  0
    4.6600    1.0020   32.7580 C   0  0  0  0  0  0  0  0  0  0  0  0
    4.5490   -2.9070   30.0570 N   0  0  0  0  0  0  0  0  0  0  0  0
    5.0880   -3.1700   28.8400 N   0  0  0  0  0  0  0  0  0  0  0  0
    6.0050   -4.9440   23.5960 C   0  0  0  0  0  0  0  0  0  0  0  0
    6.6220   -5.3420   22.4220 C   0  0  0  0  0  0  0  0  0  0  0  0
  1  2  1  0
  2  3  2  0
  2  4  1  0
  4  5  1  0
  5  6  1  0
  6  7  1  0
  7  8  1  0
  8  9  2  0
  8 10  1  0
 10 11  1  0
 11 12  1  0
 12 13  2  0
 13 14  1  0
 14 15  1  0
 15 16  1  0
 16 17  2  0
 17 18  1  0
 18 19  2  0
 19 20  1  0
 16 21  1  0
 20 21  2  0
 14 22  2  0
 12 23  1  0
 22 23  1  0
  7 24  1  0
  4 25  1  0
 24 25  1  0
M  END
