piperidine-amides-27446-covalent
     RDKit          3D

 21 22  0  0  0  0  0  0  0  0999 V2000
    7.0570   -3.3480   19.3450 C   0  0  0  0  0  0  0  0  0  0  0  0
    6.3990   -4.2070   20.3360 C   0  0  0  0  0  0  0  0  0  0  0  0
    5.3390   -4.7670   19.9610 O   0  0  0  0  0  0  0  0  0  0  0  0
    6.9700   -4.4240   21.5990 N   0  0  0  0  0  0  0  0  0  0  0  0
    6.5960   -5.5570   22.4070 C   0  0  0  0  0  0  0  0  0  0  0  0
    5.9060   -5.0430   23.6450 C   0  0  0  0  0  0  0  0  0  0  0  0
    6.6490   -3.9010   24.3020 C   0  0  0  0  0  0  0  0  0  0  0  0
    5.8600   -3.3330   25.4220 C   0  0  0  0  0  0  0  0  0  0  0  0
    4.6560   -3.0510   25.2190 O   0  0  0  0  0  0  0  0  0  0  0  0
    6.3970   -3.1170   26.7110 N   0  0  0  0  0  0  0  0  0  0  0  0
    6.6330   -4.2800   27.5350 C   0  0  0  0  0  0  0  0  0  0  0  0
    6.2450   -1.8070   27.3380 C   0  0  0  0  0  0  0  0  0  0  0  0
    6.2290   -1.5130   28.7830 N   0  0  0  0  0  0  0  0  0  0  0  0
    6.0810   -0.2960   29.2350 C   0  0  0  0  0  0  0  0  0  0  0  0
    5.9290    0.7760   28.3960 C   0  0  0  0  0  0  0  0  0  0  0  0
    5.7150    2.5040   29.1760 Br  0  0  0  0  0  0  0  0  0  0  0  0
    5.9230    0.6590   27.0510 N   0  0  0  0  0  0  0  0  0  0  0  0
    6.0900   -0.6740   26.5530 C   0  0  0  0  0  0  0  0  0  0  0  0
    6.0790   -0.7260   25.1720 C   0  0  0  0  0  0  0  0  0  0  0  0
    6.8830   -2.7400   23.3390 C   0  0  0  0  0  0  0  0  0  0  0  0
    7.6790   -3.2970   22.2030 C   0  0  0  0  0  0  0  0  0  0  0  0
  1  2  1  0
  2  3  2  0
  2  4  1  0
  4  5  1  0
  5  6  1  0
  6  7  1  0
  7  8  1  0
  8  9  2  0
  8 10  1  0
 10 11  1  0
 10 12  1  0
 12 13  2  0
 13 14  1  0
 14 15  2  0
 15 16  1  0
 15 17  1  0
 12 18  1  0
 17 18  2  0
 18 19  1  0
  7 20  1  0
  4 21  1  0
 20 21  1  0
M  END
