piperidine-amides-14991-covalent
     RDKit          3D

 21 21  0  0  0  0  0  0  0  0999 V2000
    7.1590   -3.2510   19.1360 C   0  0  0  0  0  0  0  0  0  0  0  0
    6.3920   -3.9980   20.1300 C   0  0  0  0  0  0  0  0  0  0  0  0
    5.2610   -4.4140   19.8270 O   0  0  0  0  0  0  0  0  0  0  0  0
    6.9720   -4.2960   21.3760 N   0  0  0  0  0  0  0  0  0  0  0  0
    7.5810   -3.2220   22.1000 C   0  0  0  0  0  0  0  0  0  0  0  0
    6.6230   -2.7540   23.1470 C   0  0  0  0  0  0  0  0  0  0  0  0
    6.3950   -3.9380   24.0570 C   0  0  0  0  0  0  0  0  0  0  0  0
    5.6080   -3.5390   25.2420 C   0  0  0  0  0  0  0  0  0  0  0  0
    4.8470   -2.5760   25.1410 O   0  0  0  0  0  0  0  0  0  0  0  0
    5.7980   -4.3150   26.3600 N   0  0  0  0  0  0  0  0  0  0  0  0
    7.0950   -4.6120   26.8360 C   0  0  0  0  0  0  0  0  0  0  0  0
    7.9960   -5.2120   25.9200 C   0  0  0  0  0  0  0  0  0  0  0  0
    9.1290   -5.8130   26.4450 C   0  0  0  0  0  0  0  0  0  0  0  0
    6.8200   -5.6060   27.9260 C   0  0  0  0  0  0  0  0  0  0  0  0
    5.5520   -6.3860   27.7470 C   0  0  0  0  0  0  0  0  0  0  0  0
    7.4440   -3.3350   27.4050 C   0  0  0  0  0  0  0  0  0  0  0  0
    7.2430   -2.2560   26.7870 O   0  0  0  0  0  0  0  0  0  0  0  0
    7.9540   -3.4220   28.5670 O   0  0  0  0  0  0  0  0  0  0  0  0
    9.0400   -4.2350   28.4050 C   0  0  0  0  0  0  0  0  0  0  0  0
    5.7770   -5.0860   23.3480 C   0  0  0  0  0  0  0  0  0  0  0  0
    6.4780   -5.4650   22.0430 C   0  0  0  0  0  0  0  0  0  0  0  0
  1  2  1  0
  2  3  2  0
  2  4  1  0
  4  5  1  0
  5  6  1  0
  6  7  1  0
  7  8  1  0
  8  9  2  0
  8 10  1  0
 10 11  1  0
 11 12  1  0
 12 13  1  0
 11 14  1  0
 14 15  1  0
 11 16  1  0
 16 17  2  0
 16 18  1  0
 18 19  1  0
  7 20  1  0
  4 21  1  0
 20 21  1  0
M  END
