piperidine-amides-34141-covalent
     RDKit          3D

 31 33  0  0  0  0  0  0  0  0999 V2000
    7.0180   -3.2970   19.3130 C   0  0  0  0  0  0  0  0  0  0  0  0
    6.3170   -4.1080   20.3230 C   0  0  0  0  0  0  0  0  0  0  0  0
    5.3540   -4.8210   19.9740 O   0  0  0  0  0  0  0  0  0  0  0  0
    6.7240   -4.1390   21.6680 N   0  0  0  0  0  0  0  0  0  0  0  0
    6.6420   -5.4170   22.3440 C   0  0  0  0  0  0  0  0  0  0  0  0
    6.2290   -5.1970   23.8100 C   0  0  0  0  0  0  0  0  0  0  0  0
    5.9640   -3.7230   24.0020 C   0  0  0  0  0  0  0  0  0  0  0  0
    5.4330   -3.4130   25.3600 C   0  0  0  0  0  0  0  0  0  0  0  0
    4.1930   -3.3440   25.4660 O   0  0  0  0  0  0  0  0  0  0  0  0
    6.2590   -3.1940   26.5030 N   0  0  0  0  0  0  0  0  0  0  0  0
    6.6470   -1.8420   26.8030 C   0  0  0  0  0  0  0  0  0  0  0  0
    6.1880   -4.1350   27.6300 C   0  0  2  0  0  0  0  0  0  0  0  0
    5.9470   -5.3880   27.1210 C   0  0  0  0  0  0  0  0  0  0  0  0
    5.1740   -3.9850   28.7350 C   0  0  0  0  0  0  0  0  0  0  0  0
    4.5360   -2.8060   28.9370 C   0  0  0  0  0  0  0  0  0  0  0  0
    3.6160   -2.6710   29.9440 C   0  0  0  0  0  0  0  0  0  0  0  0
    3.0530   -3.6110   31.0290 C   0  0  0  0  0  0  0  0  0  0  0  0
    3.8980   -4.8290   30.6020 C   0  0  0  0  0  0  0  0  0  0  0  0
    3.6570   -6.0440   31.4430 C   0  0  0  0  0  0  0  0  0  0  0  0
    2.7590   -6.4890   30.4010 C   0  0  0  0  0  0  0  0  0  0  0  0
    2.1740   -7.7330   30.6890 C   0  0  0  0  0  0  0  0  0  0  0  0
    2.4970   -8.3730   31.8780 C   0  0  0  0  0  0  0  0  0  0  0  0
    1.8740   -9.5200   31.9990 O   0  0  0  0  0  0  0  0  0  0  0  0
    1.0850   -9.6380   33.1110 C   0  0  0  0  0  0  0  0  0  0  0  0
    0.1550  -10.8230   32.9910 C   0  0  0  0  0  0  0  0  0  0  0  0
    1.8380   -9.9250   34.2220 C   0  0  0  0  0  0  0  0  0  0  0  0
    3.3940   -7.8410   32.8330 C   0  0  0  0  0  0  0  0  0  0  0  0
    3.9950   -6.6410   32.6150 C   0  0  0  0  0  0  0  0  0  0  0  0
    4.8380   -4.9760   29.5780 C   0  0  0  0  0  0  0  0  0  0  0  0
    7.2980   -3.0210   23.7230 C   0  0  0  0  0  0  0  0  0  0  0  0
    7.6360   -3.1450   22.2540 C   0  0  0  0  0  0  0  0  0  0  0  0
  1  2  1  0
  2  3  2  0
  2  4  1  0
  4  5  1  0
  5  6  1  0
  6  7  1  0
  7  8  1  0
  8  9  2  0
  8 10  1  0
 10 11  1  0
 10 12  1  0
 12 13  1  6
 12 14  1  0
 14 15  2  0
 15 16  1  0
 16 17  2  0
 17 18  1  0
 18 19  1  0
 19 20  2  0
 20 21  1  0
 21 22  2  0
 22 23  1  0
 23 24  1  0
 24 25  1  0
 24 26  1  0
 22 27  1  0
 19 28  1  0
 27 28  2  0
 14 29  1  0
 18 29  2  0
  7 30  1  0
  4 31  1  0
 30 31  1  0
M  END
