piperidine-amides-17203-covalent
     RDKit          3D

 20 21  0  0  0  0  0  0  0  0999 V2000
    7.1070   -3.3570   19.3610 C   0  0  0  0  0  0  0  0  0  0  0  0
    6.4380   -4.2160   20.3420 C   0  0  0  0  0  0  0  0  0  0  0  0
    5.3730   -4.7730   19.9700 O   0  0  0  0  0  0  0  0  0  0  0  0
    7.0140   -4.4510   21.6170 N   0  0  0  0  0  0  0  0  0  0  0  0
    6.5020   -5.5080   22.4070 C   0  0  0  0  0  0  0  0  0  0  0  0
    5.8850   -5.0810   23.6650 C   0  0  0  0  0  0  0  0  0  0  0  0
    6.3440   -3.8000   24.2660 C   0  0  0  0  0  0  0  0  0  0  0  0
    5.2840   -3.2560   25.1840 C   0  0  0  0  0  0  0  0  0  0  0  0
    4.3370   -2.6460   24.6780 O   0  0  0  0  0  0  0  0  0  0  0  0
    5.3160   -3.4010   26.5860 N   0  0  0  0  0  0  0  0  0  0  0  0
    6.4380   -3.4220   27.3670 C   0  0  0  0  0  0  0  0  0  0  0  0
    6.6740   -4.5980   28.2170 C   0  0  2  0  0  0  0  0  0  0  0  0
    6.6340   -5.7650   27.7130 O   0  0  0  0  0  0  0  0  0  0  0  0
    5.4880   -4.5650   29.1030 C   0  0  0  0  0  0  0  0  0  0  0  0
    4.3300   -4.4730   28.4040 C   0  0  0  0  0  0  0  0  0  0  0  0
    3.7230   -3.5210   29.4440 C   0  0  0  0  0  0  0  0  0  0  0  0
    3.4440   -5.7260   28.2810 C   0  0  0  0  0  0  0  0  0  0  0  0
    4.1080   -3.4580   27.3360 C   0  0  0  0  0  0  0  0  0  0  0  0
    6.8110   -2.7430   23.2900 C   0  0  0  0  0  0  0  0  0  0  0  0
    7.7380   -3.4030   22.2980 C   0  0  0  0  0  0  0  0  0  0  0  0
  1  2  1  0
  2  3  2  0
  2  4  1  0
  4  5  1  0
  5  6  1  0
  6  7  1  0
  7  8  1  0
  8  9  2  0
  8 10  1  0
 10 11  1  0
 11 12  1  0
 12 13  1  6
 12 14  1  0
 14 15  1  0
 15 16  1  0
 15 17  1  0
 10 18  1  0
 15 18  1  0
  7 19  1  0
  4 20  1  0
 19 20  1  0
M  END
