piperidine-amides-34936-covalent
     RDKit          3D

 32 34  0  0  0  0  0  0  0  0999 V2000
    7.0230   -3.4040   19.3560 C   0  0  0  0  0  0  0  0  0  0  0  0
    6.3490   -4.2740   20.3500 C   0  0  0  0  0  0  0  0  0  0  0  0
    5.3410   -4.8720   19.9780 O   0  0  0  0  0  0  0  0  0  0  0  0
    6.8880   -4.4280   21.6290 N   0  0  0  0  0  0  0  0  0  0  0  0
    6.4490   -5.4940   22.4920 C   0  0  0  0  0  0  0  0  0  0  0  0
    5.6020   -4.9330   23.6240 C   0  0  0  0  0  0  0  0  0  0  0  0
    6.2700   -3.7160   24.3000 C   0  0  0  0  0  0  0  0  0  0  0  0
    5.3520   -3.1310   25.3470 C   0  0  0  0  0  0  0  0  0  0  0  0
    4.1230   -3.2710   25.1680 O   0  0  0  0  0  0  0  0  0  0  0  0
    5.8130   -2.4050   26.5380 N   0  0  0  0  0  0  0  0  0  0  0  0
    6.3230   -3.1780   27.6710 C   0  0  0  0  0  0  0  0  0  0  0  0
    5.3780   -4.0330   28.4930 C   0  0  0  0  0  0  0  0  0  0  0  0
    3.9860   -4.0800   28.4880 C   0  0  0  0  0  0  0  0  0  0  0  0
    3.2540   -4.9120   29.3260 C   0  0  0  0  0  0  0  0  0  0  0  0
    3.8850   -5.7440   30.2260 C   0  0  0  0  0  0  0  0  0  0  0  0
    3.2370   -6.5690   31.0850 O   0  0  0  0  0  0  0  0  0  0  0  0
    2.7840   -6.0720   32.2610 C   0  0  0  0  0  0  0  0  0  0  0  0
    5.3130   -5.7780   30.3070 C   0  0  0  0  0  0  0  0  0  0  0  0
    5.8820   -6.6250   31.2520 O   0  0  0  0  0  0  0  0  0  0  0  0
    5.1690   -7.7170   31.8320 C   0  0  0  0  0  0  0  0  0  0  0  0
    6.0920   -4.9100   29.4140 C   0  0  0  0  0  0  0  0  0  0  0  0
    6.7580   -1.2090   26.4830 C   0  0  0  0  0  0  0  0  0  0  0  0
    5.7640   -1.0260   27.5440 C   0  0  0  0  0  0  0  0  0  0  0  0
    4.7100   -1.2920   28.3450 N   0  0  0  0  0  0  0  0  0  0  0  0
    4.9200   -1.2440   29.7200 O   0  0  0  0  0  0  0  0  0  0  0  0
    3.4530   -0.7900   27.9640 O   0  0  0  0  0  0  0  0  0  0  0  0
    5.3570   -2.2610   27.0600 N   0  0  0  0  0  0  0  0  0  0  0  0
    6.0790   -2.8230   26.0000 C   0  0  0  0  0  0  0  0  0  0  0  0
    7.0800   -2.0220   25.6120 N   0  0  0  0  0  0  0  0  0  0  0  0
    8.0860   -2.1180   24.5990 C   0  0  0  0  0  0  0  0  0  0  0  0
    6.5130   -2.7040   23.2060 C   0  0  0  0  0  0  0  0  0  0  0  0
    7.4710   -3.2630   22.2010 C   0  0  0  0  0  0  0  0  0  0  0  0
  1  2  1  0
  2  3  2  0
  2  4  1  0
  4  5  1  0
  5  6  1  0
  6  7  1  0
  7  8  1  0
  8  9  2  0
  8 10  1  0
 10 11  1  0
 11 12  1  0
 12 13  2  0
 13 14  1  0
 14 15  2  0
 15 16  1  0
 16 17  1  0
 15 18  1  0
 18 19  1  0
 19 20  1  0
 12 21  1  0
 18 21  2  0
 10 22  1  0
 22 23  2  0
 23 24  1  0
 24 25  2  0
 24 26  1  0
 23 27  1  0
 27 28  2  0
 22 29  1  0
 28 29  1  0
 29 30  1  0
  7 31  1  0
  4 32  1  0
 31 32  1  0
M  CHG  2  24   1  26  -1
M  END
