piperidine-amides-25382-covalent
     RDKit          3D

 25 27  0  0  0  0  0  0  0  0999 V2000
    7.0680   -3.3880   19.4320 C   0  0  0  0  0  0  0  0  0  0  0  0
    6.3900   -4.2770   20.4070 C   0  0  0  0  0  0  0  0  0  0  0  0
    5.3990   -4.8840   19.9990 O   0  0  0  0  0  0  0  0  0  0  0  0
    6.9140   -4.4320   21.7010 N   0  0  0  0  0  0  0  0  0  0  0  0
    6.6260   -5.6210   22.4760 C   0  0  0  0  0  0  0  0  0  0  0  0
    6.1410   -5.2330   23.8580 C   0  0  0  0  0  0  0  0  0  0  0  0
    5.9530   -3.7190   23.9070 C   0  0  0  0  0  0  0  0  0  0  0  0
    5.2810   -3.2450   25.1490 C   0  0  0  0  0  0  0  0  0  0  0  0
    4.5200   -2.2840   25.0420 O   0  0  0  0  0  0  0  0  0  0  0  0
    5.4220   -3.7990   26.4330 N   0  0  0  0  0  0  0  0  0  0  0  0
    6.4260   -3.2180   27.2100 C   0  0  0  0  0  0  0  0  0  0  0  0
    6.6900   -4.2350   28.3080 C   0  0  0  0  0  0  0  0  0  0  0  0
    5.8110   -4.3600   29.2850 C   0  0  0  0  0  0  0  0  0  0  0  0
    5.3630   -3.1700   29.7460 C   0  0  0  0  0  0  0  0  0  0  0  0
    4.1560   -3.0080   30.2960 C   0  0  0  0  0  0  0  0  0  0  0  0
    3.7720   -1.6740   30.7720 C   0  0  0  0  0  0  0  0  0  0  0  0
    2.4770   -1.2880   31.4160 C   0  0  0  0  0  0  0  0  0  0  0  0
    4.3910   -0.3260   30.8240 C   0  0  0  0  0  0  0  0  0  0  0  0
    5.7450   -0.6110   30.1820 C   0  0  0  0  0  0  0  0  0  0  0  0
    6.7550    0.4720   30.0090 C   0  0  0  0  0  0  0  0  0  0  0  0
    6.1250   -2.0180   29.6900 C   0  0  0  0  0  0  0  0  0  0  0  0
    4.6430   -4.8720   28.4610 C   0  0  0  0  0  0  0  0  0  0  0  0
    4.3260   -3.8700   27.3760 C   0  0  0  0  0  0  0  0  0  0  0  0
    7.2910   -3.0840   23.6820 C   0  0  0  0  0  0  0  0  0  0  0  0
    7.6760   -3.3370   22.2520 C   0  0  0  0  0  0  0  0  0  0  0  0
  1  2  1  0
  2  3  2  0
  2  4  1  0
  4  5  1  0
  5  6  1  0
  6  7  1  0
  7  8  1  0
  8  9  2  0
  8 10  1  0
 10 11  1  0
 11 12  1  0
 12 13  1  0
 13 14  1  0
 14 15  2  0
 15 16  1  0
 16 17  1  0
 16 18  2  0
 18 19  1  0
 19 20  1  0
 14 21  1  0
 19 21  2  0
 13 22  1  0
 10 23  1  0
 22 23  1  0
  7 24  1  0
  4 25  1  0
 24 25  1  0
M  END
