piperidine-amides-1296-covalent
     RDKit          3D

 23 24  0  0  0  0  0  0  0  0999 V2000
    7.0740   -3.3240   19.3100 C   0  0  0  0  0  0  0  0  0  0  0  0
    6.3770   -4.1710   20.3120 C   0  0  0  0  0  0  0  0  0  0  0  0
    5.3620   -4.8020   19.9700 O   0  0  0  0  0  0  0  0  0  0  0  0
    6.9100   -4.2740   21.6140 N   0  0  0  0  0  0  0  0  0  0  0  0
    7.7570   -3.2500   22.1820 C   0  0  0  0  0  0  0  0  0  0  0  0
    6.9810   -2.6390   23.3370 C   0  0  0  0  0  0  0  0  0  0  0  0
    6.5640   -3.7730   24.1990 C   0  0  0  0  0  0  0  0  0  0  0  0
    5.7700   -3.2940   25.3490 C   0  0  0  0  0  0  0  0  0  0  0  0
    4.5450   -3.2290   25.1980 O   0  0  0  0  0  0  0  0  0  0  0  0
    6.4240   -2.9390   26.5290 N   0  0  0  0  0  0  0  0  0  0  0  0
    6.4020   -1.6870   27.1950 C   0  0  0  0  0  0  0  0  0  0  0  0
    5.8870   -0.5100   26.6970 C   0  0  0  0  0  0  0  0  0  0  0  0
    5.8950    0.7000   27.4250 C   0  0  0  0  0  0  0  0  0  0  0  0
    6.4260    0.7950   28.7010 C   0  0  0  0  0  0  0  0  0  0  0  0
    6.4110    2.0910   29.4360 C   0  0  0  0  0  0  0  0  0  0  0  0
    6.4520    3.2000   28.6980 O   0  0  0  0  0  0  0  0  0  0  0  0
    6.3900    4.5170   29.0090 C   0  0  0  0  0  0  0  0  0  0  0  0
    5.0090    4.8440   29.5820 C   0  0  0  0  0  0  0  0  0  0  0  0
    4.9870    5.9180   30.4550 O   0  0  0  0  0  0  0  0  0  0  0  0
    6.9600   -0.3100   29.2760 C   0  0  0  0  0  0  0  0  0  0  0  0
    6.9610   -1.5780   28.5360 C   0  0  0  0  0  0  0  0  0  0  0  0
    5.8200   -4.8800   23.5110 C   0  0  0  0  0  0  0  0  0  0  0  0
    6.5600   -5.3710   22.4650 C   0  0  0  0  0  0  0  0  0  0  0  0
  1  2  1  0
  2  3  2  0
  2  4  1  0
  4  5  1  0
  5  6  1  0
  6  7  1  0
  7  8  1  0
  8  9  2  0
  8 10  1  0
 10 11  1  0
 11 12  2  0
 12 13  1  0
 13 14  2  0
 14 15  1  0
 15 16  1  0
 16 17  1  0
 17 18  1  0
 18 19  1  0
 14 20  1  0
 11 21  1  0
 20 21  2  0
  7 22  1  0
  4 23  1  0
 22 23  1  0
M  END
