piperidine-amides-5499-covalent
     RDKit          3D

 20 21  0  0  0  0  0  0  0  0999 V2000
    7.0880   -3.2770   19.2430 C   0  0  0  0  0  0  0  0  0  0  0  0
    6.3400   -4.0350   20.2570 C   0  0  0  0  0  0  0  0  0  0  0  0
    5.3020   -4.6230   19.9130 O   0  0  0  0  0  0  0  0  0  0  0  0
    6.7840   -4.1530   21.5900 N   0  0  0  0  0  0  0  0  0  0  0  0
    6.6810   -5.3960   22.3300 C   0  0  0  0  0  0  0  0  0  0  0  0
    6.0520   -5.0560   23.6570 C   0  0  0  0  0  0  0  0  0  0  0  0
    6.0690   -3.5810   23.9160 C   0  0  0  0  0  0  0  0  0  0  0  0
    5.6320   -3.2420   25.2890 C   0  0  0  0  0  0  0  0  0  0  0  0
    4.3960   -3.1760   25.5530 O   0  0  0  0  0  0  0  0  0  0  0  0
    6.5160   -2.9860   26.3580 N   0  0  0  0  0  0  0  0  0  0  0  0
    6.2040   -3.5040   27.7070 C   0  0  0  0  0  0  0  0  0  0  0  0
    5.9620   -2.3410   28.5950 C   0  0  0  0  0  0  0  0  0  0  0  0
    4.6100   -1.7980   28.7390 C   0  0  0  0  0  0  0  0  0  0  0  0
    4.4190   -0.6150   29.6590 C   0  0  0  0  0  0  0  0  0  0  0  0
    5.4340    0.0580   30.4340 N   0  0  0  0  0  0  0  0  0  0  0  0
    6.7400   -0.5750   30.2050 C   0  0  0  0  0  0  0  0  0  0  0  0
    7.9580   -0.0720   30.8870 C   0  0  0  0  0  0  0  0  0  0  0  0
    6.9800   -1.7690   29.2820 C   0  0  0  0  0  0  0  0  0  0  0  0
    7.4220   -2.9950   23.6210 C   0  0  0  0  0  0  0  0  0  0  0  0
    7.6690   -3.1280   22.1350 C   0  0  0  0  0  0  0  0  0  0  0  0
  1  2  1  0
  2  3  2  0
  2  4  1  0
  4  5  1  0
  5  6  1  0
  6  7  1  0
  7  8  1  0
  8  9  2  0
  8 10  1  0
 10 11  1  0
 11 12  1  0
 12 13  2  0
 13 14  1  0
 14 15  2  0
 15 16  1  0
 16 17  1  0
 12 18  1  0
 16 18  2  0
  7 19  1  0
  4 20  1  0
 19 20  1  0
M  END
