piperidine-amides-29034-covalent
     RDKit          3D

 22 24  0  0  0  0  0  0  0  0999 V2000
    7.0850   -3.3590   19.3290 C   0  0  0  0  0  0  0  0  0  0  0  0
    6.3730   -4.1710   20.3080 C   0  0  0  0  0  0  0  0  0  0  0  0
    5.3310   -4.7460   19.9530 O   0  0  0  0  0  0  0  0  0  0  0  0
    6.9170   -4.3280   21.6050 N   0  0  0  0  0  0  0  0  0  0  0  0
    6.6350   -5.5190   22.3540 C   0  0  0  0  0  0  0  0  0  0  0  0
    5.8910   -5.1530   23.6050 C   0  0  0  0  0  0  0  0  0  0  0  0
    6.6260   -3.9930   24.2370 C   0  0  0  0  0  0  0  0  0  0  0  0
    5.7880   -3.4370   25.3450 C   0  0  0  0  0  0  0  0  0  0  0  0
    5.0920   -2.4630   25.0760 O   0  0  0  0  0  0  0  0  0  0  0  0
    5.8510   -4.0670   26.5800 N   0  0  0  0  0  0  0  0  0  0  0  0
    6.9910   -4.7190   27.0340 C   0  0  0  0  0  0  0  0  0  0  0  0
    6.8070   -5.7550   27.9100 C   0  0  0  0  0  0  0  0  0  0  0  0
    6.1030   -5.3590   29.0010 C   0  0  0  0  0  0  0  0  0  0  0  0
    5.0060   -4.5110   28.8400 C   0  0  0  0  0  0  0  0  0  0  0  0
    4.0480   -4.3180   29.8590 N   0  0  0  0  0  0  0  0  0  0  0  0
    2.8730   -3.4470   29.7650 C   0  0  0  0  0  0  0  0  0  0  0  0
    1.6610   -3.2800   31.2410 Br  0  0  0  0  0  0  0  0  0  0  0  0
    2.6900   -2.6910   28.4270 C   0  0  0  0  0  0  0  0  0  0  0  0
    3.7050   -2.9130   27.3740 C   0  0  0  0  0  0  0  0  0  0  0  0
    4.8640   -3.8340   27.5990 C   0  0  0  0  0  0  0  0  0  0  0  0
    6.9430   -2.8790   23.3370 C   0  0  0  0  0  0  0  0  0  0  0  0
    7.6710   -3.2790   22.2500 C   0  0  0  0  0  0  0  0  0  0  0  0
  1  2  1  0
  2  3  2  0
  2  4  1  0
  4  5  1  0
  5  6  1  0
  6  7  1  0
  7  8  1  0
  8  9  2  0
  8 10  1  0
 10 11  1  0
 11 12  1  0
 12 13  1  0
 13 14  1  0
 14 15  2  0
 15 16  1  0
 16 17  1  0
 16 18  2  0
 18 19  1  0
 10 20  1  0
 14 20  1  0
 19 20  2  0
  7 21  1  0
  4 22  1  0
 21 22  1  0
M  END
