piperidine-amides-3124-covalent
     RDKit          3D

 23 24  0  0  0  0  0  0  0  0999 V2000
    7.1450   -3.2570   19.2010 C   0  0  0  0  0  0  0  0  0  0  0  0
    6.3680   -4.0100   20.1800 C   0  0  0  0  0  0  0  0  0  0  0  0
    5.2880   -4.5120   19.8720 O   0  0  0  0  0  0  0  0  0  0  0  0
    6.9060   -4.2170   21.4930 N   0  0  0  0  0  0  0  0  0  0  0  0
    7.6880   -3.1720   22.1080 C   0  0  0  0  0  0  0  0  0  0  0  0
    6.9580   -2.6090   23.2880 C   0  0  0  0  0  0  0  0  0  0  0  0
    6.5930   -3.7610   24.2040 C   0  0  0  0  0  0  0  0  0  0  0  0
    5.7960   -3.2250   25.3330 C   0  0  0  0  0  0  0  0  0  0  0  0
    4.5650   -3.0550   25.2540 O   0  0  0  0  0  0  0  0  0  0  0  0
    6.4630   -2.9000   26.5330 N   0  0  0  0  0  0  0  0  0  0  0  0
    6.0630   -3.5850   27.7390 C   0  0  0  0  0  0  0  0  0  0  0  0
    5.8240   -2.5360   28.8050 C   0  0  0  0  0  0  0  0  0  0  0  0
    6.8510   -1.6180   29.1210 C   0  0  0  0  0  0  0  0  0  0  0  0
    6.7080   -0.6130   30.1050 C   0  0  0  0  0  0  0  0  0  0  0  0
    5.5260   -0.5340   30.7710 C   0  0  0  0  0  0  0  0  0  0  0  0
    4.5170   -1.4770   30.4210 C   0  0  0  0  0  0  0  0  0  0  0  0
    4.6030   -2.4630   29.4840 C   0  0  0  0  0  0  0  0  0  0  0  0
    3.5440   -3.3300   29.2350 C   0  0  0  0  0  0  0  0  0  0  0  0
    2.6340   -3.2730   30.2450 F   0  0  0  0  0  0  0  0  0  0  0  0
    4.0140   -4.6230   29.1530 F   0  0  0  0  0  0  0  0  0  0  0  0
    2.9470   -3.0320   28.0100 F   0  0  0  0  0  0  0  0  0  0  0  0
    5.9470   -4.9430   23.5720 C   0  0  0  0  0  0  0  0  0  0  0  0
    6.4420   -5.3180   22.2500 C   0  0  0  0  0  0  0  0  0  0  0  0
  1  2  1  0
  2  3  2  0
  2  4  1  0
  4  5  1  0
  5  6  1  0
  6  7  1  0
  7  8  1  0
  8  9  2  0
  8 10  1  0
 10 11  1  0
 11 12  1  0
 12 13  2  0
 13 14  1  0
 14 15  2  0
 15 16  1  0
 12 17  1  0
 16 17  2  0
 17 18  1  0
 18 19  1  0
 18 20  1  0
 18 21  1  0
  7 22  1  0
  4 23  1  0
 22 23  1  0
M  END
