piperidine-amides-2688-covalent
     RDKit          3D

 25 26  0  0  0  0  0  0  0  0999 V2000
    7.0960   -3.3730   19.2810 C   0  0  0  0  0  0  0  0  0  0  0  0
    6.3780   -4.1580   20.2730 C   0  0  0  0  0  0  0  0  0  0  0  0
    5.3380   -4.7320   19.9580 O   0  0  0  0  0  0  0  0  0  0  0  0
    6.9260   -4.3190   21.5960 N   0  0  0  0  0  0  0  0  0  0  0  0
    6.5350   -5.4380   22.4000 C   0  0  0  0  0  0  0  0  0  0  0  0
    5.7620   -4.9450   23.5970 C   0  0  0  0  0  0  0  0  0  0  0  0
    6.5490   -3.8370   24.2910 C   0  0  0  0  0  0  0  0  0  0  0  0
    5.7390   -3.2830   25.4100 C   0  0  0  0  0  0  0  0  0  0  0  0
    4.5290   -3.0180   25.2680 O   0  0  0  0  0  0  0  0  0  0  0  0
    6.3330   -3.0590   26.6730 N   0  0  0  0  0  0  0  0  0  0  0  0
    6.3060   -1.7090   27.2020 C   0  0  0  0  0  0  0  0  0  0  0  0
    7.0250   -1.5800   28.5130 C   0  0  0  0  0  0  0  0  0  0  0  0
    7.0990   -0.3730   29.1680 C   0  0  0  0  0  0  0  0  0  0  0  0
    6.4870    0.7540   28.5970 C   0  0  0  0  0  0  0  0  0  0  0  0
    6.5800    1.9670   29.2950 O   0  0  0  0  0  0  0  0  0  0  0  0
    5.4090    2.6410   29.7140 C   0  0  0  0  0  0  0  0  0  0  0  0
    5.1360    2.3490   31.1140 C   0  0  0  0  0  0  0  0  0  0  0  0
    4.8870    1.0370   31.2520 N   0  0  0  0  0  0  0  0  0  0  0  0
    5.7890    0.0090   31.6980 C   0  0  0  0  0  0  0  0  0  0  0  0
    3.8430    0.5590   30.3880 C   0  0  0  0  0  0  0  0  0  0  0  0
    5.8120    0.6950   27.3910 C   0  0  0  0  0  0  0  0  0  0  0  0
    5.7010   -0.5650   26.6430 C   0  0  0  0  0  0  0  0  0  0  0  0
    5.0250   -0.6340   25.4350 C   0  0  0  0  0  0  0  0  0  0  0  0
    6.8910   -2.7110   23.3600 C   0  0  0  0  0  0  0  0  0  0  0  0
    7.6180   -3.2260   22.1730 C   0  0  0  0  0  0  0  0  0  0  0  0
  1  2  1  0
  2  3  2  0
  2  4  1  0
  4  5  1  0
  5  6  1  0
  6  7  1  0
  7  8  1  0
  8  9  2  0
  8 10  1  0
 10 11  1  0
 11 12  2  0
 12 13  1  0
 13 14  2  0
 14 15  1  0
 15 16  1  0
 16 17  1  0
 17 18  1  0
 18 19  1  0
 18 20  1  0
 14 21  1  0
 11 22  1  0
 21 22  2  0
 22 23  1  0
  7 24  1  0
  4 25  1  0
 24 25  1  0
M  END
