piperidine-amides-12863-covalent
     RDKit          3D

 23 25  0  0  0  0  0  0  0  0999 V2000
    7.0460   -3.3410   19.3320 C   0  0  0  0  0  0  0  0  0  0  0  0
    6.3740   -4.2210   20.3170 C   0  0  0  0  0  0  0  0  0  0  0  0
    5.3140   -4.7590   19.9470 O   0  0  0  0  0  0  0  0  0  0  0  0
    6.9380   -4.4790   21.5740 N   0  0  0  0  0  0  0  0  0  0  0  0
    7.6070   -3.4370   22.2720 C   0  0  0  0  0  0  0  0  0  0  0  0
    6.9980   -3.1030   23.5440 C   0  0  0  0  0  0  0  0  0  0  0  0
    5.8110   -3.8910   23.9070 C   0  0  0  0  0  0  0  0  0  0  0  0
    5.4310   -3.6020   25.3090 C   0  0  0  0  0  0  0  0  0  0  0  0
    4.2210   -3.5480   25.5880 O   0  0  0  0  0  0  0  0  0  0  0  0
    6.3910   -3.3700   26.2960 N   0  0  0  0  0  0  0  0  0  0  0  0
    7.0150   -2.0430   26.4380 C   0  0  0  0  0  0  0  0  0  0  0  0
    7.8480   -1.6410   25.2570 C   0  0  0  0  0  0  0  0  0  0  0  0
    7.3930   -0.7670   24.1900 C   0  0  0  0  0  0  0  0  0  0  0  0
    8.2510   -0.4620   23.1690 C   0  0  0  0  0  0  0  0  0  0  0  0
    7.8440    0.3550   22.1640 F   0  0  0  0  0  0  0  0  0  0  0  0
    9.5440   -0.9610   23.1270 C   0  0  0  0  0  0  0  0  0  0  0  0
   10.0440   -1.7950   24.1070 C   0  0  0  0  0  0  0  0  0  0  0  0
   11.8380   -2.4260   23.9960 Br  0  0  0  0  0  0  0  0  0  0  0  0
    9.2710   -2.1820   25.1830 C   0  0  0  0  0  0  0  0  0  0  0  0
    6.8770   -1.2440   27.6950 C   0  0  0  0  0  0  0  0  0  0  0  0
    6.0000   -0.9760   26.8520 C   0  0  0  0  0  0  0  0  0  0  0  0
    5.9140   -5.3410   23.6370 C   0  0  0  0  0  0  0  0  0  0  0  0
    6.6220   -5.6790   22.3450 C   0  0  0  0  0  0  0  0  0  0  0  0
  1  2  1  0
  2  3  2  0
  2  4  1  0
  4  5  1  0
  5  6  1  0
  6  7  1  0
  7  8  1  0
  8  9  2  0
  8 10  1  0
 11 10  1  0
 11 12  1  0
 12 13  2  0
 13 14  1  0
 14 15  1  0
 14 16  2  0
 16 17  1  0
 17 18  1  0
 12 19  1  0
 17 19  2  0
 11 20  1  0
 11 21  1  0
 20 21  1  0
  7 22  1  0
  4 23  1  0
 22 23  1  0
M  END
