piperidine-amides-7291-covalent
     RDKit          3D

 20 20  0  0  0  0  0  0  0  0999 V2000
    7.1090   -3.2480   19.1620 C   0  0  0  0  0  0  0  0  0  0  0  0
    6.3970   -4.0230   20.1800 C   0  0  0  0  0  0  0  0  0  0  0  0
    5.2790   -4.4950   19.8580 O   0  0  0  0  0  0  0  0  0  0  0  0
    6.9840   -4.2660   21.4200 N   0  0  0  0  0  0  0  0  0  0  0  0
    7.7830   -3.2680   22.0870 C   0  0  0  0  0  0  0  0  0  0  0  0
    7.0460   -2.8470   23.3190 C   0  0  0  0  0  0  0  0  0  0  0  0
    6.5020   -4.0370   24.0670 C   0  0  0  0  0  0  0  0  0  0  0  0
    5.6930   -3.5750   25.2040 C   0  0  0  0  0  0  0  0  0  0  0  0
    4.5100   -3.2230   24.9950 O   0  0  0  0  0  0  0  0  0  0  0  0
    6.1990   -3.5030   26.5040 N   0  0  0  0  0  0  0  0  0  0  0  0
    6.1020   -4.5900   27.4470 C   0  0  1  0  0  0  0  0  0  0  0  0
    6.5900   -4.0300   28.7480 C   0  0  0  0  0  0  0  0  0  0  0  0
    6.7240   -2.6730   28.9450 C   0  0  0  0  0  0  0  0  0  0  0  0
    5.7390   -1.9320   29.5200 N   0  0  0  0  0  0  0  0  0  0  0  0
    4.7120   -5.1480   27.5550 C   0  0  0  0  0  0  0  0  0  0  0  0
    4.6130   -6.2540   26.7820 F   0  0  0  0  0  0  0  0  0  0  0  0
    3.7970   -4.1700   27.1410 F   0  0  0  0  0  0  0  0  0  0  0  0
    4.4270   -5.5330   28.8340 F   0  0  0  0  0  0  0  0  0  0  0  0
    5.6570   -4.8890   23.1460 C   0  0  0  0  0  0  0  0  0  0  0  0
    6.5040   -5.3900   22.1810 C   0  0  0  0  0  0  0  0  0  0  0  0
  1  2  1  0
  2  3  2  0
  2  4  1  0
  4  5  1  0
  5  6  1  0
  6  7  1  0
  7  8  1  0
  8  9  2  0
  8 10  1  0
 10 11  1  0
 11 12  1  1
 12 13  1  0
 13 14  3  0
 11 15  1  0
 15 16  1  0
 15 17  1  0
 15 18  1  0
  7 19  1  0
  4 20  1  0
 19 20  1  0
M  END
