piperidine-amides-6388-covalent
     RDKit          3D

 25 27  0  0  0  0  0  0  0  0999 V2000
    7.0780   -3.3230   19.3060 C   0  0  0  0  0  0  0  0  0  0  0  0
    6.3980   -4.1730   20.2930 C   0  0  0  0  0  0  0  0  0  0  0  0
    5.3630   -4.7970   19.9710 O   0  0  0  0  0  0  0  0  0  0  0  0
    6.9290   -4.3380   21.5770 N   0  0  0  0  0  0  0  0  0  0  0  0
    6.5010   -5.4800   22.3400 C   0  0  0  0  0  0  0  0  0  0  0  0
    5.6490   -4.9020   23.4710 C   0  0  0  0  0  0  0  0  0  0  0  0
    6.5320   -3.9100   24.1970 C   0  0  0  0  0  0  0  0  0  0  0  0
    5.7940   -3.3530   25.3500 C   0  0  0  0  0  0  0  0  0  0  0  0
    4.5560   -3.2260   25.2600 O   0  0  0  0  0  0  0  0  0  0  0  0
    6.5000   -2.9960   26.5190 N   0  0  0  0  0  0  0  0  0  0  0  0
    6.4190   -1.6860   27.1040 C   0  0  0  0  0  0  0  0  0  0  0  0
    7.0000   -1.5500   28.4940 C   0  0  0  0  0  0  0  0  0  0  0  0
    7.0150   -0.4080   29.2140 C   0  0  0  0  0  0  0  0  0  0  0  0
    6.4770    0.7230   28.6850 C   0  0  0  0  0  0  0  0  0  0  0  0
    6.5180    1.9030   29.4820 N   0  0  0  0  0  0  0  0  0  0  0  0
    6.3920    3.2010   29.1630 C   0  0  0  0  0  0  0  0  0  0  0  0
    6.5220    3.7970   30.3450 C   0  0  0  0  0  0  0  0  0  0  0  0
    6.7190    2.9740   31.3940 N   0  0  0  0  0  0  0  0  0  0  0  0
    6.7180    1.6990   30.8150 C   0  0  0  0  0  0  0  0  0  0  0  0
    5.9150    0.7570   27.4410 C   0  0  0  0  0  0  0  0  0  0  0  0
    5.8160   -0.4200   26.5040 C   0  0  0  0  0  0  0  0  0  0  0  0
    5.2460   -0.2070   25.3460 O   0  0  0  0  0  0  0  0  0  0  0  0
    3.9980   -0.8580   25.3380 C   0  0  0  0  0  0  0  0  0  0  0  0
    6.9040   -2.7820   23.2860 C   0  0  0  0  0  0  0  0  0  0  0  0
    7.5920   -3.2410   22.2080 C   0  0  0  0  0  0  0  0  0  0  0  0
  1  2  1  0
  2  3  2  0
  2  4  1  0
  4  5  1  0
  5  6  1  0
  6  7  1  0
  7  8  1  0
  8  9  2  0
  8 10  1  0
 10 11  1  0
 11 12  2  0
 12 13  1  0
 13 14  2  0
 14 15  1  0
 15 16  1  0
 16 17  2  0
 17 18  1  0
 15 19  1  0
 18 19  2  0
 14 20  1  0
 11 21  1  0
 20 21  2  0
 21 22  1  0
 22 23  1  0
  7 24  1  0
  4 25  1  0
 24 25  1  0
M  END
