piperidine-amides-10294-covalent
     RDKit          3D

 24 26  0  0  0  0  0  0  0  0999 V2000
    7.0770   -3.3370   19.3140 C   0  0  0  0  0  0  0  0  0  0  0  0
    6.4100   -4.1690   20.3190 C   0  0  0  0  0  0  0  0  0  0  0  0
    5.3610   -4.7650   19.9590 O   0  0  0  0  0  0  0  0  0  0  0  0
    6.9680   -4.3140   21.5890 N   0  0  0  0  0  0  0  0  0  0  0  0
    7.7580   -3.2700   22.2010 C   0  0  0  0  0  0  0  0  0  0  0  0
    7.0070   -2.7550   23.3860 C   0  0  0  0  0  0  0  0  0  0  0  0
    6.5170   -3.8760   24.2570 C   0  0  0  0  0  0  0  0  0  0  0  0
    5.7930   -3.3160   25.4160 C   0  0  0  0  0  0  0  0  0  0  0  0
    4.5660   -3.1050   25.2970 O   0  0  0  0  0  0  0  0  0  0  0  0
    6.4180   -3.0100   26.6380 N   0  0  0  0  0  0  0  0  0  0  0  0
    6.3880   -1.6800   27.1930 C   0  0  0  0  0  0  0  0  0  0  0  0
    6.9740   -1.5410   28.5730 C   0  0  0  0  0  0  0  0  0  0  0  0
    6.9950   -0.3350   29.2070 C   0  0  0  0  0  0  0  0  0  0  0  0
    6.4750    0.7960   28.5910 C   0  0  0  0  0  0  0  0  0  0  0  0
    5.9150    0.7210   27.2910 C   0  0  0  0  0  0  0  0  0  0  0  0
    5.8880   -0.5060   26.6310 C   0  0  0  0  0  0  0  0  0  0  0  0
    5.3740    1.7680   26.5780 C   0  0  0  0  0  0  0  0  0  0  0  0
    5.7220    3.1890   26.9130 C   0  0  0  0  0  0  0  0  0  0  0  0
    5.1800    3.2530   28.3290 C   0  0  0  0  0  0  0  0  0  0  0  0
    6.3880    2.4110   29.1830 S   0  0  0  0  0  0  0  0  0  0  0  0
    7.6840    3.1230   29.0210 O   0  0  0  0  0  0  0  0  0  0  0  0
    5.9450    2.3460   30.6020 O   0  0  0  0  0  0  0  0  0  0  0  0
    5.6480   -4.8730   23.4740 C   0  0  0  0  0  0  0  0  0  0  0  0
    6.5790   -5.4440   22.4170 C   0  0  0  0  0  0  0  0  0  0  0  0
  1  2  1  0
  2  3  2  0
  2  4  1  0
  4  5  1  0
  5  6  1  0
  6  7  1  0
  7  8  1  0
  8  9  2  0
  8 10  1  0
 10 11  1  0
 11 12  2  0
 12 13  1  0
 13 14  2  0
 14 15  1  0
 11 16  1  0
 15 16  2  0
 15 17  1  0
 17 18  1  0
 18 19  1  0
 14 20  1  0
 20 19  1  0
 20 21  2  0
 20 22  2  0
  7 23  1  0
  4 24  1  0
 23 24  1  0
M  END
