piperidine-amides-301-covalent
     RDKit          3D

 32 35  0  0  0  0  0  0  0  0999 V2000
    7.1050   -3.3210   19.1490 C   0  0  0  0  0  0  0  0  0  0  0  0
    6.3720   -3.9830   20.2070 C   0  0  0  0  0  0  0  0  0  0  0  0
    5.2880   -4.5660   19.8930 O   0  0  0  0  0  0  0  0  0  0  0  0
    6.8290   -4.0580   21.5340 N   0  0  0  0  0  0  0  0  0  0  0  0
    7.8030   -3.0150   21.9920 C   0  0  0  0  0  0  0  0  0  0  0  0
    7.4000   -2.8200   23.4970 C   0  0  0  0  0  0  0  0  0  0  0  0
    5.9650   -3.2400   23.5350 C   0  0  0  0  0  0  0  0  0  0  0  0
    5.1250   -2.4940   24.6530 C   0  0  0  0  0  0  0  0  0  0  0  0
    4.4150   -1.6340   24.1820 O   0  0  0  0  0  0  0  0  0  0  0  0
    5.4080   -3.0000   25.7520 N   0  0  0  0  0  0  0  0  0  0  0  0
    5.6860   -3.5910   26.9030 C   0  0  0  0  0  0  0  0  0  0  0  0
    6.1080   -4.7630   27.3630 C   0  0  2  0  0  0  0  0  0  0  0  0
    4.9870   -5.6340   27.4250 C   0  0  0  0  0  0  0  0  0  0  0  0
    4.4030   -6.2200   26.1960 C   0  0  0  0  0  0  0  0  0  0  0  0
    3.1820   -7.1390   26.3400 C   0  0  0  0  0  0  0  0  0  0  0  0
    2.6870   -7.3780   27.6210 C   0  0  0  0  0  0  0  0  0  0  0  0
    3.0850   -6.9410   28.8980 C   0  0  0  0  0  0  0  0  0  0  0  0
    4.2980   -6.0310   28.6980 C   0  0  0  0  0  0  0  0  0  0  0  0
    2.2360   -7.4710   30.0710 C   0  0  0  0  0  0  0  0  0  0  0  0
    0.9190   -7.7240   29.7810 C   0  0  0  0  0  0  0  0  0  0  0  0
    0.6060   -8.4590   28.6710 C   0  0  0  0  0  0  0  0  0  0  0  0
    1.5630   -8.2250   27.6460 N   0  0  0  0  0  0  0  0  0  0  0  0
    1.5960   -9.0290   26.4750 C   0  0  0  0  0  0  0  0  0  0  0  0
    6.9510   -4.8600   28.3570 N   0  0  0  0  0  0  0  0  0  0  0  0
    7.9680   -3.8610   28.2910 C   0  0  0  0  0  0  0  0  0  0  0  0
    8.3310   -3.7690   26.9610 C   0  0  0  0  0  0  0  0  0  0  0  0
    8.7990   -5.0130   26.4880 N   0  0  0  0  0  0  0  0  0  0  0  0
   10.1000   -5.0290   25.9780 C   0  0  0  0  0  0  0  0  0  0  0  0
    8.7530   -6.0520   27.4550 C   0  0  0  0  0  0  0  0  0  0  0  0
    7.4400   -6.1180   28.2170 C   0  0  0  0  0  0  0  0  0  0  0  0
    5.8370   -4.7580   23.5280 C   0  0  0  0  0  0  0  0  0  0  0  0
    6.5900   -5.2450   22.3170 C   0  0  0  0  0  0  0  0  0  0  0  0
  1  2  1  0
  2  3  2  0
  2  4  1  0
  4  5  1  0
  5  6  1  0
  6  7  1  0
  7  8  1  0
  8  9  2  0
  8 10  1  0
 10 11  1  0
 12 11  1  1
 12 13  1  0
 13 14  2  0
 14 15  1  0
 15 16  2  0
 16 17  1  0
 13 18  1  0
 17 18  2  0
 17 19  1  0
 19 20  1  0
 20 21  1  0
 16 22  1  0
 21 22  1  0
 22 23  1  0
 12 24  1  0
 24 25  1  0
 25 26  1  0
 26 27  1  0
 27 28  1  0
 27 29  1  0
 24 30  1  0
 29 30  1  0
  7 31  1  0
  4 32  1  0
 31 32  1  0
M  END
