piperidine-amides-12188-covalent
     RDKit          3D

 24 26  0  0  0  0  0  0  0  0999 V2000
    7.1390   -3.2580   19.1780 C   0  0  0  0  0  0  0  0  0  0  0  0
    6.3540   -4.0030   20.1570 C   0  0  0  0  0  0  0  0  0  0  0  0
    5.2700   -4.4900   19.8550 O   0  0  0  0  0  0  0  0  0  0  0  0
    6.8830   -4.2210   21.4670 N   0  0  0  0  0  0  0  0  0  0  0  0
    6.4400   -5.3620   22.2150 C   0  0  0  0  0  0  0  0  0  0  0  0
    5.6710   -4.8940   23.4170 C   0  0  0  0  0  0  0  0  0  0  0  0
    6.5510   -3.9030   24.1610 C   0  0  0  0  0  0  0  0  0  0  0  0
    5.8360   -3.3960   25.3550 C   0  0  0  0  0  0  0  0  0  0  0  0
    4.6160   -3.5690   25.5460 O   0  0  0  0  0  0  0  0  0  0  0  0
    6.5980   -2.6710   26.2890 N   0  0  0  0  0  0  0  0  0  0  0  0
    6.2770   -2.7720   27.6840 C   0  0  0  0  0  0  0  0  0  0  0  0
    6.5170   -1.3900   28.2540 C   0  0  0  0  0  0  0  0  0  0  0  0
    5.4590   -0.4990   28.2010 C   0  0  0  0  0  0  0  0  0  0  0  0
    5.5850    0.8020   28.7080 C   0  0  0  0  0  0  0  0  0  0  0  0
    6.3440    0.9350   29.8850 N   0  0  0  0  0  0  0  0  0  0  0  0
    6.3220    2.0490   30.7380 C   0  0  0  0  0  0  0  0  0  0  0  0
    6.2800    3.3300   30.0360 N   0  0  0  0  0  0  0  0  0  0  0  0
    6.2680    4.1620   31.0370 N   0  0  0  0  0  0  0  0  0  0  0  0
    6.2970    3.5770   32.3350 C   0  0  0  0  0  0  0  0  0  0  0  0
    6.3300    2.2550   32.0920 N   0  0  0  0  0  0  0  0  0  0  0  0
    6.3320   -0.3780   30.4720 C   0  0  0  0  0  0  0  0  0  0  0  0
    6.9630   -1.2940   29.6450 C   0  0  0  0  0  0  0  0  0  0  0  0
    7.1360   -2.7880   23.3840 C   0  0  0  0  0  0  0  0  0  0  0  0
    7.6290   -3.1730   22.0710 C   0  0  0  0  0  0  0  0  0  0  0  0
  1  2  1  0
  2  3  2  0
  2  4  1  0
  4  5  1  0
  5  6  1  0
  6  7  1  0
  7  8  1  0
  8  9  2  0
  8 10  1  0
 10 11  1  0
 11 12  1  0
 12 13  1  0
 13 14  1  0
 14 15  1  0
 15 16  1  0
 16 17  2  0
 17 18  1  0
 18 19  2  0
 16 20  1  0
 19 20  1  0
 15 21  1  0
 12 22  1  0
 21 22  1  0
  7 23  1  0
  4 24  1  0
 23 24  1  0
M  END
