piperidine-amides-29259-covalent
     RDKit          3D

 26 27  0  0  0  0  0  0  0  0999 V2000
    7.1160   -3.2630   19.2320 C   0  0  0  0  0  0  0  0  0  0  0  0
    6.4030   -4.0360   20.2430 C   0  0  0  0  0  0  0  0  0  0  0  0
    5.3400   -4.5920   19.9120 O   0  0  0  0  0  0  0  0  0  0  0  0
    6.9450   -4.1890   21.5470 N   0  0  0  0  0  0  0  0  0  0  0  0
    6.3150   -5.1550   22.3740 C   0  0  0  0  0  0  0  0  0  0  0  0
    5.2260   -4.4390   23.1070 C   0  0  0  0  0  0  0  0  0  0  0  0
    5.8770   -3.3990   24.0050 C   0  0  0  0  0  0  0  0  0  0  0  0
    5.7210   -3.9060   25.4000 C   0  0  0  0  0  0  0  0  0  0  0  0
    5.8550   -5.1060   25.4990 O   0  0  0  0  0  0  0  0  0  0  0  0
    5.4060   -3.0770   26.4720 N   0  0  0  0  0  0  0  0  0  0  0  0
    4.3320   -3.4900   27.2800 C   0  0  0  0  0  0  0  0  0  0  0  0
    4.7310   -4.2510   28.3810 C   0  0  0  0  0  0  0  0  0  0  0  0
    5.6130   -3.6740   29.2400 C   0  0  0  0  0  0  0  0  0  0  0  0
    5.3550   -2.4420   29.8410 C   0  0  0  0  0  0  0  0  0  0  0  0
    4.6150   -1.4180   29.2180 N   0  0  0  0  0  0  0  0  0  0  0  0
    4.2430   -0.2460   30.0110 C   0  0  0  0  0  0  0  0  0  0  0  0
    3.9150   -0.3200   31.3410 O   0  0  0  0  0  0  0  0  0  0  0  0
    4.2080    1.0330   29.4320 O   0  0  0  0  0  0  0  0  0  0  0  0
    4.5600    2.1960   30.1740 C   0  0  0  0  0  0  0  0  0  0  0  0
    3.5910    2.4100   31.2760 C   0  0  0  0  0  0  0  0  0  0  0  0
    5.9180    1.8880   30.7480 C   0  0  0  0  0  0  0  0  0  0  0  0
    4.7660    3.3000   29.3440 C   0  0  0  0  0  0  0  0  0  0  0  0
    6.6520   -3.7210   28.1700 C   0  0  0  0  0  0  0  0  0  0  0  0
    6.4790   -2.6650   27.2770 C   0  0  0  0  0  0  0  0  0  0  0  0
    7.3230   -3.1580   23.6840 C   0  0  0  0  0  0  0  0  0  0  0  0
    7.6090   -3.0910   22.2040 C   0  0  0  0  0  0  0  0  0  0  0  0
  1  2  1  0
  2  3  2  0
  2  4  1  0
  4  5  1  0
  5  6  1  0
  6  7  1  0
  7  8  1  0
  8  9  2  0
  8 10  1  0
 10 11  1  0
 11 12  1  0
 12 13  1  0
 13 14  1  0
 14 15  1  0
 15 16  1  0
 16 17  2  0
 16 18  1  0
 19 18  1  0
 19 20  1  0
 19 21  1  0
 19 22  1  0
 13 23  1  0
 10 24  1  0
 23 24  1  0
  7 25  1  0
  4 26  1  0
 25 26  1  0
M  END
