piperidine-amides-29613-covalent
     RDKit          3D

 27 29  0  0  0  0  0  0  0  0999 V2000
    7.1460   -3.2880   19.1960 C   0  0  0  0  0  0  0  0  0  0  0  0
    6.3120   -3.9950   20.1540 C   0  0  0  0  0  0  0  0  0  0  0  0
    5.2130   -4.4280   19.8280 O   0  0  0  0  0  0  0  0  0  0  0  0
    6.8120   -4.2580   21.4620 N   0  0  0  0  0  0  0  0  0  0  0  0
    6.3250   -5.3990   22.1800 C   0  0  0  0  0  0  0  0  0  0  0  0
    5.3400   -4.9450   23.2180 C   0  0  0  0  0  0  0  0  0  0  0  0
    6.0400   -3.8930   24.0550 C   0  0  0  0  0  0  0  0  0  0  0  0
    5.1210   -3.3460   25.0840 C   0  0  0  0  0  0  0  0  0  0  0  0
    3.9420   -3.0190   24.8670 O   0  0  0  0  0  0  0  0  0  0  0  0
    5.6530   -3.2100   26.3600 N   0  0  0  0  0  0  0  0  0  0  0  0
    5.7420   -1.8580   26.8680 C   0  0  0  0  0  0  0  0  0  0  0  0
    6.7990   -4.0080   26.4810 C   0  0  0  0  0  0  0  0  0  0  0  0
    7.8860   -3.2800   26.1430 C   0  0  0  0  0  0  0  0  0  0  0  0
    8.6370   -3.4370   24.9990 C   0  0  0  0  0  0  0  0  0  0  0  0
    9.5900   -2.4910   25.1180 C   0  0  0  0  0  0  0  0  0  0  0  0
   10.6820   -2.1750   24.2220 C   0  0  0  0  0  0  0  0  0  0  0  0
   11.8330   -1.5900   24.6300 C   0  0  0  0  0  0  0  0  0  0  0  0
   12.8900   -1.2600   23.8900 C   0  0  0  0  0  0  0  0  0  0  0  0
   12.8890   -1.5130   22.5850 C   0  0  0  0  0  0  0  0  0  0  0  0
   11.7480   -2.1420   21.9720 C   0  0  0  0  0  0  0  0  0  0  0  0
   11.7540   -2.3920   20.8270 O   0  0  0  0  0  0  0  0  0  0  0  0
   13.0160   -2.8290   20.6970 C   0  0  0  0  0  0  0  0  0  0  0  0
   10.6170   -2.4520   22.8930 C   0  0  0  0  0  0  0  0  0  0  0  0
    9.3640   -1.8090   26.3340 N   0  0  0  0  0  0  0  0  0  0  0  0
    8.2970   -2.3200   26.9380 N   0  0  0  0  0  0  0  0  0  0  0  0
    6.5260   -2.7310   23.2260 C   0  0  0  0  0  0  0  0  0  0  0  0
    7.5180   -3.2370   22.1840 C   0  0  0  0  0  0  0  0  0  0  0  0
  1  2  1  0
  2  3  2  0
  2  4  1  0
  4  5  1  0
  5  6  1  0
  6  7  1  0
  7  8  1  0
  8  9  2  0
  8 10  1  0
 10 11  1  0
 10 12  1  0
 12 13  1  0
 13 14  1  0
 14 15  2  0
 15 16  1  0
 16 17  2  0
 17 18  1  0
 18 19  2  0
 19 20  1  0
 20 21  1  0
 21 22  1  0
 16 23  1  0
 20 23  2  0
 15 24  1  0
 13 25  2  0
 24 25  1  0
  7 26  1  0
  4 27  1  0
 26 27  1  0
M  END
