piperidine-amides-1057-covalent
     RDKit          3D

 23 24  0  0  0  0  0  0  0  0999 V2000
    7.1580   -3.2520   19.1470 C   0  0  0  0  0  0  0  0  0  0  0  0
    6.3620   -4.0010   20.1630 C   0  0  0  0  0  0  0  0  0  0  0  0
    5.2690   -4.4970   19.8500 O   0  0  0  0  0  0  0  0  0  0  0  0
    6.8920   -4.1750   21.4470 N   0  0  0  0  0  0  0  0  0  0  0  0
    7.7580   -3.1770   22.0300 C   0  0  0  0  0  0  0  0  0  0  0  0
    6.8870   -2.3990   22.9970 C   0  0  0  0  0  0  0  0  0  0  0  0
    6.3550   -3.4320   23.9130 C   0  0  0  0  0  0  0  0  0  0  0  0
    5.6960   -2.8260   25.0840 C   0  0  0  0  0  0  0  0  0  0  0  0
    4.4580   -2.7910   25.1150 O   0  0  0  0  0  0  0  0  0  0  0  0
    6.5380   -2.3440   26.0760 N   0  0  0  0  0  0  0  0  0  0  0  0
    7.7260   -3.0320   26.3840 C   0  0  0  0  0  0  0  0  0  0  0  0
    7.7580   -4.3910   26.2970 C   0  0  2  0  0  0  0  0  0  0  0  0
    8.7030   -4.6300   25.2140 O   0  0  0  0  0  0  0  0  0  0  0  0
    6.6140   -5.0550   25.9840 C   0  0  0  0  0  0  0  0  0  0  0  0
    6.7570   -5.7240   27.1040 C   0  0  2  0  0  0  0  0  0  0  0  0
    5.8510   -5.5740   28.1280 O   0  0  0  0  0  0  0  0  0  0  0  0
    4.9730   -6.6190   28.5520 C   0  0  0  0  0  0  0  0  0  0  0  0
    5.7360   -7.4680   29.5680 C   0  0  0  0  0  0  0  0  0  0  0  0
    8.0360   -5.1920   27.3710 C   0  0  0  0  0  0  0  0  0  0  0  0
    9.1660   -5.9540   27.3430 C   0  0  0  0  0  0  0  0  0  0  0  0
    8.0370   -4.4480   28.6070 C   0  0  0  0  0  0  0  0  0  0  0  0
    5.5030   -4.4800   23.2650 C   0  0  0  0  0  0  0  0  0  0  0  0
    6.2880   -5.1240   22.3410 C   0  0  0  0  0  0  0  0  0  0  0  0
  1  2  1  0
  2  3  2  0
  2  4  1  0
  4  5  1  0
  5  6  1  0
  6  7  1  0
  7  8  1  0
  8  9  2  0
  8 10  1  0
 10 11  1  0
 11 12  1  0
 12 13  1  6
 12 14  1  0
 14 15  1  0
 15 16  1  1
 16 17  1  0
 17 18  1  0
 12 19  1  0
 15 19  1  0
 19 20  1  0
 19 21  1  0
  7 22  1  0
  4 23  1  0
 22 23  1  0
M  END
