piperidine-amides-19491-covalent
     RDKit          3D

 22 23  0  0  0  0  0  0  0  0999 V2000
    7.0750   -3.3690   19.3240 C   0  0  0  0  0  0  0  0  0  0  0  0
    6.3820   -4.1600   20.3160 C   0  0  0  0  0  0  0  0  0  0  0  0
    5.2950   -4.6970   19.9480 O   0  0  0  0  0  0  0  0  0  0  0  0
    6.8800   -4.4270   21.6160 N   0  0  0  0  0  0  0  0  0  0  0  0
    6.3650   -5.6060   22.3340 C   0  0  0  0  0  0  0  0  0  0  0  0
    5.3890   -4.8710   23.3260 C   0  0  0  0  0  0  0  0  0  0  0  0
    6.2440   -3.9120   24.1270 C   0  0  0  0  0  0  0  0  0  0  0  0
    5.3690   -3.1820   25.2430 C   0  0  0  0  0  0  0  0  0  0  0  0
    4.2680   -2.9250   24.7830 O   0  0  0  0  0  0  0  0  0  0  0  0
    5.9980   -3.0410   26.3420 N   0  0  0  0  0  0  0  0  0  0  0  0
    6.3850   -3.3340   27.6210 C   0  0  0  0  0  0  0  0  0  0  0  0
    6.4780   -1.7120   26.3160 C   0  0  0  0  0  0  0  0  0  0  0  0
    6.3330   -0.9540   25.1190 C   0  0  0  0  0  0  0  0  0  0  0  0
    5.0590   -0.3390   24.7340 C   0  0  0  0  0  0  0  0  0  0  0  0
    5.1460    0.4480   23.3930 C   0  0  0  0  0  0  0  0  0  0  0  0
    6.3980    0.4820   22.7190 C   0  0  0  0  0  0  0  0  0  0  0  0
    7.6600   -0.0740   23.0100 C   0  0  0  0  0  0  0  0  0  0  0  0
    8.7400    0.1040   22.1910 O   0  0  0  0  0  0  0  0  0  0  0  0
    9.3770   -1.0330   21.7330 C   0  0  0  0  0  0  0  0  0  0  0  0
    7.5790   -0.8440   24.3160 C   0  0  0  0  0  0  0  0  0  0  0  0
    6.9270   -2.8780   23.2150 C   0  0  0  0  0  0  0  0  0  0  0  0
    7.7480   -3.5320   22.3480 C   0  0  0  0  0  0  0  0  0  0  0  0
  1  2  1  0
  2  3  2  0
  2  4  1  0
  4  5  1  0
  5  6  1  0
  6  7  1  0
  7  8  1  0
  8  9  2  0
  8 10  1  0
 10 11  1  0
 10 12  1  0
 12 13  1  0
 13 14  2  0
 14 15  1  0
 15 16  2  0
 16 17  1  0
 17 18  1  0
 18 19  1  0
 13 20  1  0
 17 20  2  0
  7 21  1  0
  4 22  1  0
 21 22  1  0
M  END
