piperidine-amides-33837-covalent
     RDKit          3D

 22 24  0  0  0  0  0  0  0  0999 V2000
    7.0800   -3.3580   19.3210 C   0  0  0  0  0  0  0  0  0  0  0  0
    6.4110   -4.2020   20.3250 C   0  0  0  0  0  0  0  0  0  0  0  0
    5.3530   -4.7680   19.9600 O   0  0  0  0  0  0  0  0  0  0  0  0
    6.9590   -4.4250   21.6160 N   0  0  0  0  0  0  0  0  0  0  0  0
    6.3550   -5.4330   22.4080 C   0  0  0  0  0  0  0  0  0  0  0  0
    5.6530   -4.9220   23.5900 C   0  0  0  0  0  0  0  0  0  0  0  0
    6.2480   -3.7070   24.2020 C   0  0  0  0  0  0  0  0  0  0  0  0
    5.3740   -3.0990   25.2870 C   0  0  0  0  0  0  0  0  0  0  0  0
    4.2000   -2.7630   25.0710 O   0  0  0  0  0  0  0  0  0  0  0  0
    5.9590   -2.9540   26.5490 N   0  0  0  0  0  0  0  0  0  0  0  0
    5.4500   -2.4830   27.7700 C   0  0  0  0  0  0  0  0  0  0  0  0
    5.5660   -3.3440   28.9170 C   0  0  0  0  0  0  0  0  0  0  0  0
    5.6310   -4.7440   28.3350 C   0  0  0  0  0  0  0  0  0  0  0  0
    6.8420   -4.7150   27.5040 N   0  0  0  0  0  0  0  0  0  0  0  0
    7.9670   -5.6290   27.5180 N   0  0  0  0  0  0  0  0  0  0  0  0
    8.7710   -5.1080   26.5340 C   0  0  0  0  0  0  0  0  0  0  0  0
    9.7090   -6.1750   26.7720 C   0  0  0  0  0  0  0  0  0  0  0  0
    7.5590   -4.8580   27.1530 C   0  0  0  0  0  0  0  0  0  0  0  0
    6.7200   -6.0430   28.6780 I   0  0  0  0  0  0  0  0  0  0  0  0
    7.0970   -3.7410   26.5180 C   0  0  0  0  0  0  0  0  0  0  0  0
    6.7160   -2.6820   23.1970 C   0  0  0  0  0  0  0  0  0  0  0  0
    7.7140   -3.3840   22.2910 C   0  0  0  0  0  0  0  0  0  0  0  0
  1  2  1  0
  2  3  2  0
  2  4  1  0
  4  5  1  0
  5  6  1  0
  6  7  1  0
  7  8  1  0
  8  9  2  0
  8 10  1  0
 10 11  1  0
 11 12  1  0
 12 13  1  0
 13 14  1  0
 14 15  1  0
 15 16  2  0
 16 17  1  0
 16 18  1  0
 18 19  1  0
 10 20  1  0
 14 20  1  0
 18 20  2  0
  7 21  1  0
  4 22  1  0
 21 22  1  0
M  END
