piperidine-amides-12428-covalent
     RDKit          3D

 24 25  0  0  0  0  0  0  0  0999 V2000
    7.1470   -3.2820   19.1620 C   0  0  0  0  0  0  0  0  0  0  0  0
    6.3780   -4.0180   20.1570 C   0  0  0  0  0  0  0  0  0  0  0  0
    5.2830   -4.4960   19.8670 O   0  0  0  0  0  0  0  0  0  0  0  0
    6.9350   -4.2500   21.4560 N   0  0  0  0  0  0  0  0  0  0  0  0
    7.7010   -3.2100   22.0870 C   0  0  0  0  0  0  0  0  0  0  0  0
    6.9300   -2.6380   23.2320 C   0  0  0  0  0  0  0  0  0  0  0  0
    6.5290   -3.7890   24.1350 C   0  0  0  0  0  0  0  0  0  0  0  0
    5.6980   -3.2610   25.2300 C   0  0  0  0  0  0  0  0  0  0  0  0
    4.5130   -2.9130   25.0770 O   0  0  0  0  0  0  0  0  0  0  0  0
    6.2840   -3.1680   26.4920 N   0  0  0  0  0  0  0  0  0  0  0  0
    5.9660   -4.2090   27.4240 C   0  0  0  0  0  0  0  0  0  0  0  0
    6.5840   -3.7870   28.7070 C   0  0  0  0  0  0  0  0  0  0  0  0
    6.8510   -2.4290   28.6310 O   0  0  0  0  0  0  0  0  0  0  0  0
    6.6780   -1.4950   29.6120 C   0  0  0  0  0  0  0  0  0  0  0  0
    7.8920   -0.9460   30.1150 C   0  0  0  0  0  0  0  0  0  0  0  0
    7.8700    0.0180   31.1230 C   0  0  0  0  0  0  0  0  0  0  0  0
    6.5660    0.3990   31.5930 C   0  0  0  0  0  0  0  0  0  0  0  0
    6.4730    1.3260   32.5630 N   0  0  0  0  0  0  0  0  0  0  0  0
    7.1290    2.5220   32.4840 O   0  0  0  0  0  0  0  0  0  0  0  0
    5.6600    1.0770   33.6380 O   0  0  0  0  0  0  0  0  0  0  0  0
    5.4250   -0.1260   31.1100 C   0  0  0  0  0  0  0  0  0  0  0  0
    5.4510   -1.0720   30.1230 C   0  0  0  0  0  0  0  0  0  0  0  0
    5.9120   -4.9800   23.4960 C   0  0  0  0  0  0  0  0  0  0  0  0
    6.4540   -5.3540   22.1970 C   0  0  0  0  0  0  0  0  0  0  0  0
  1  2  1  0
  2  3  2  0
  2  4  1  0
  4  5  1  0
  5  6  1  0
  6  7  1  0
  7  8  1  0
  8  9  2  0
  8 10  1  0
 10 11  1  0
 11 12  1  0
 12 13  1  0
 13 14  1  0
 14 15  2  0
 15 16  1  0
 16 17  2  0
 17 18  1  0
 18 19  2  0
 18 20  1  0
 17 21  1  0
 14 22  1  0
 21 22  2  0
  7 23  1  0
  4 24  1  0
 23 24  1  0
M  CHG  2  18   1  20  -1
M  END
