piperidine-amides-7252-covalent
     RDKit          3D

 21 22  0  0  0  0  0  0  0  0999 V2000
    7.1290   -3.2940   19.2430 C   0  0  0  0  0  0  0  0  0  0  0  0
    6.3440   -4.0220   20.2420 C   0  0  0  0  0  0  0  0  0  0  0  0
    5.2460   -4.5020   19.8640 O   0  0  0  0  0  0  0  0  0  0  0  0
    6.8490   -4.2040   21.5250 N   0  0  0  0  0  0  0  0  0  0  0  0
    7.6740   -3.2030   22.1620 C   0  0  0  0  0  0  0  0  0  0  0  0
    6.9660   -2.7300   23.3980 C   0  0  0  0  0  0  0  0  0  0  0  0
    6.5170   -3.8840   24.2490 C   0  0  0  0  0  0  0  0  0  0  0  0
    5.7340   -3.4090   25.4140 C   0  0  0  0  0  0  0  0  0  0  0  0
    4.4890   -3.3900   25.3080 O   0  0  0  0  0  0  0  0  0  0  0  0
    6.3080   -2.9730   26.6240 N   0  0  0  0  0  0  0  0  0  0  0  0
    6.5470   -1.5670   26.8370 C   0  0  0  0  0  0  0  0  0  0  0  0
    6.3780   -1.1180   28.2860 C   0  0  0  0  0  0  0  0  0  0  0  0
    7.4120   -1.0850   29.1980 C   0  0  0  0  0  0  0  0  0  0  0  0
    7.2640   -0.6730   30.5040 C   0  0  0  0  0  0  0  0  0  0  0  0
    6.0230   -0.2680   30.9520 C   0  0  0  0  0  0  0  0  0  0  0  0
    5.8610    0.1410   32.2320 F   0  0  0  0  0  0  0  0  0  0  0  0
    4.9840   -0.2990   30.0530 C   0  0  0  0  0  0  0  0  0  0  0  0
    5.1380   -0.7110   28.7480 C   0  0  0  0  0  0  0  0  0  0  0  0
    4.0840   -0.7180   27.9090 F   0  0  0  0  0  0  0  0  0  0  0  0
    5.6430   -4.8580   23.4540 C   0  0  0  0  0  0  0  0  0  0  0  0
    6.4590   -5.3670   22.2730 C   0  0  0  0  0  0  0  0  0  0  0  0
  1  2  1  0
  2  3  2  0
  2  4  1  0
  4  5  1  0
  5  6  1  0
  6  7  1  0
  7  8  1  0
  8  9  2  0
  8 10  1  0
 10 11  1  0
 11 12  1  0
 12 13  2  0
 13 14  1  0
 14 15  2  0
 15 16  1  0
 15 17  1  0
 12 18  1  0
 17 18  2  0
 18 19  1  0
  7 20  1  0
  4 21  1  0
 20 21  1  0
M  END
