piperidine-amides-23428-covalent
     RDKit          3D

 24 26  0  0  0  0  0  0  0  0999 V2000
    7.0720   -3.3530   19.3070 C   0  0  0  0  0  0  0  0  0  0  0  0
    6.4140   -4.1860   20.3280 C   0  0  0  0  0  0  0  0  0  0  0  0
    5.3720   -4.7920   19.9720 O   0  0  0  0  0  0  0  0  0  0  0  0
    6.9650   -4.3390   21.6260 N   0  0  0  0  0  0  0  0  0  0  0  0
    6.5740   -5.4700   22.3970 C   0  0  0  0  0  0  0  0  0  0  0  0
    5.8670   -5.0790   23.5990 C   0  0  0  0  0  0  0  0  0  0  0  0
    6.0450   -3.6440   23.8820 C   0  0  0  0  0  0  0  0  0  0  0  0
    5.6130   -3.2740   25.2730 C   0  0  0  0  0  0  0  0  0  0  0  0
    4.5010   -2.7430   25.4400 O   0  0  0  0  0  0  0  0  0  0  0  0
    6.4200   -3.5230   26.3910 N   0  0  0  0  0  0  0  0  0  0  0  0
    7.4950   -4.3720   26.3540 C   0  0  0  0  0  0  0  0  0  0  0  0
    7.3330   -5.2510   27.4450 C   0  0  1  0  0  0  0  0  0  0  0  0
    8.7060   -5.4080   28.0310 C   0  0  0  0  0  0  0  0  0  0  0  0
    8.8390   -4.2110   28.6850 O   0  0  0  0  0  0  0  0  0  0  0  0
    6.3620   -4.7850   28.4550 C   0  0  2  0  0  0  0  0  0  0  0  0
    5.3320   -5.8420   28.8510 C   0  0  0  0  0  0  0  0  0  0  0  0
    4.5790   -6.1370   27.5980 C   0  0  0  0  0  0  0  0  0  0  0  0
    3.5280   -7.2040   27.9910 C   0  0  0  0  0  0  0  0  0  0  0  0
    3.2170   -7.8910   29.3190 C   0  0  0  0  0  0  0  0  0  0  0  0
    4.0910   -7.4640   30.4810 C   0  0  0  0  0  0  0  0  0  0  0  0
    5.1570   -6.4220   30.2130 C   0  0  0  0  0  0  0  0  0  0  0  0
    5.7600   -3.6110   27.6870 C   0  0  0  0  0  0  0  0  0  0  0  0
    7.4270   -3.1650   23.5600 C   0  0  0  0  0  0  0  0  0  0  0  0
    7.7310   -3.2540   22.2080 C   0  0  0  0  0  0  0  0  0  0  0  0
  1  2  1  0
  2  3  2  0
  2  4  1  0
  4  5  1  0
  5  6  1  0
  6  7  1  0
  7  8  1  0
  8  9  2  0
  8 10  1  0
 10 11  1  0
 11 12  1  0
 12 13  1  1
 13 14  1  0
 12 15  1  0
 15 16  1  6
 16 17  2  0
 17 18  1  0
 18 19  2  0
 19 20  1  0
 16 21  1  0
 20 21  2  0
 10 22  1  0
 15 22  1  0
  7 23  1  0
  4 24  1  0
 23 24  1  0
M  END
