piperidine-amides-1289-covalent
     RDKit          3D

 22 24  0  0  0  0  0  0  0  0999 V2000
    7.1120   -3.2480   19.2120 C   0  0  0  0  0  0  0  0  0  0  0  0
    6.3240   -4.0270   20.2160 C   0  0  0  0  0  0  0  0  0  0  0  0
    5.2470   -4.5310   19.8650 O   0  0  0  0  0  0  0  0  0  0  0  0
    6.8140   -4.2330   21.5180 N   0  0  0  0  0  0  0  0  0  0  0  0
    6.4470   -5.4000   22.2610 C   0  0  0  0  0  0  0  0  0  0  0  0
    6.3480   -4.9170   23.7080 C   0  0  0  0  0  0  0  0  0  0  0  0
    5.7580   -3.5380   23.6770 C   0  0  0  0  0  0  0  0  0  0  0  0
    5.1860   -3.1090   24.9840 C   0  0  0  0  0  0  0  0  0  0  0  0
    4.1650   -3.6930   25.3510 O   0  0  0  0  0  0  0  0  0  0  0  0
    5.7770   -2.0870   25.7400 N   0  0  0  0  0  0  0  0  0  0  0  0
    7.1470   -1.9160   25.9770 C   0  0  0  0  0  0  0  0  0  0  0  0
    8.0290   -2.9000   25.7300 C   0  0  0  0  0  0  0  0  0  0  0  0
    9.0570   -2.8530   24.7640 C   0  0  0  0  0  0  0  0  0  0  0  0
    9.7390   -4.1080   24.8590 N   0  0  0  0  0  0  0  0  0  0  0  0
    9.0920   -4.7160   25.7990 N   0  0  0  0  0  0  0  0  0  0  0  0
    9.3730   -5.9090   26.2580 C   0  0  0  0  0  0  0  0  0  0  0  0
    8.3270   -5.9830   27.2710 C   0  0  0  0  0  0  0  0  0  0  0  0
    7.5150   -4.9550   27.3540 N   0  0  0  0  0  0  0  0  0  0  0  0
    7.6870   -4.3550   28.6110 C   0  0  0  0  0  0  0  0  0  0  0  0
    8.0630   -4.0900   26.3690 C   0  0  0  0  0  0  0  0  0  0  0  0
    6.7450   -2.4830   23.1420 C   0  0  0  0  0  0  0  0  0  0  0  0
    7.5840   -3.1720   22.1310 C   0  0  0  0  0  0  0  0  0  0  0  0
  1  2  1  0
  2  3  2  0
  2  4  1  0
  4  5  1  0
  5  6  1  0
  6  7  1  0
  7  8  1  0
  8  9  2  0
  8 10  1  0
 10 11  1  0
 11 12  1  0
 12 13  1  0
 13 14  2  0
 14 15  1  0
 15 16  1  0
 16 17  2  0
 17 18  1  0
 18 19  1  0
 12 20  2  0
 15 20  1  0
 18 20  1  0
  7 21  1  0
  4 22  1  0
 21 22  1  0
M  END
