piperidine-amides-21548-covalent
     RDKit          3D

 21 22  0  0  0  0  0  0  0  0999 V2000
    7.0310   -3.3580   19.3860 C   0  0  0  0  0  0  0  0  0  0  0  0
    6.3640   -4.2110   20.3720 C   0  0  0  0  0  0  0  0  0  0  0  0
    5.3380   -4.8190   19.9750 O   0  0  0  0  0  0  0  0  0  0  0  0
    6.8710   -4.3860   21.6640 N   0  0  0  0  0  0  0  0  0  0  0  0
    6.5580   -5.5650   22.4290 C   0  0  0  0  0  0  0  0  0  0  0  0
    5.9570   -5.1270   23.7340 C   0  0  0  0  0  0  0  0  0  0  0  0
    6.7510   -4.0400   24.4260 C   0  0  0  0  0  0  0  0  0  0  0  0
    5.9830   -3.5860   25.6160 C   0  0  0  0  0  0  0  0  0  0  0  0
    4.9270   -2.9470   25.3980 O   0  0  0  0  0  0  0  0  0  0  0  0
    6.3470   -3.8250   26.9740 N   0  0  0  0  0  0  0  0  0  0  0  0
    7.1550   -4.9560   27.3500 C   0  0  0  0  0  0  0  0  0  0  0  0
    6.3510   -6.1480   27.7610 C   0  0  0  0  0  0  0  0  0  0  0  0
    4.8890   -5.6730   28.6420 S   0  0  0  0  0  0  0  0  0  0  0  0
    3.7480   -6.5300   28.2350 O   0  0  0  0  0  0  0  0  0  0  0  0
    5.1410   -5.7230   30.1020 O   0  0  0  0  0  0  0  0  0  0  0  0
    4.5840   -3.9660   28.2160 C   0  0  1  0  0  0  0  0  0  0  0  0
    3.6520   -3.5430   29.1400 C   0  0  0  0  0  0  0  0  0  0  0  0
    3.6290   -2.1700   29.2270 O   0  0  0  0  0  0  0  0  0  0  0  0
    5.6290   -3.1080   27.9870 C   0  0  0  0  0  0  0  0  0  0  0  0
    6.9570   -2.9260   23.4390 C   0  0  0  0  0  0  0  0  0  0  0  0
    7.6230   -3.3660   22.3240 C   0  0  0  0  0  0  0  0  0  0  0  0
  1  2  1  0
  2  3  2  0
  2  4  1  0
  4  5  1  0
  5  6  1  0
  6  7  1  0
  7  8  1  0
  8  9  2  0
  8 10  1  0
 10 11  1  0
 11 12  1  0
 13 12  1  0
 13 14  2  0
 13 15  2  0
 13 16  1  0
 16 17  1  1
 17 18  1  0
 10 19  1  0
 16 19  1  0
  7 20  1  0
  4 21  1  0
 20 21  1  0
M  END
