piperidine-amides-21769-covalent
     RDKit          3D

 23 25  0  0  0  0  0  0  0  0999 V2000
    7.0030   -3.3770   19.4560 C   0  0  0  0  0  0  0  0  0  0  0  0
    6.3740   -4.2730   20.4390 C   0  0  0  0  0  0  0  0  0  0  0  0
    5.4000   -4.9450   20.0040 O   0  0  0  0  0  0  0  0  0  0  0  0
    6.8540   -4.4030   21.7580 N   0  0  0  0  0  0  0  0  0  0  0  0
    6.5590   -5.5690   22.5720 C   0  0  0  0  0  0  0  0  0  0  0  0
    5.9820   -5.1360   23.9080 C   0  0  0  0  0  0  0  0  0  0  0  0
    5.8600   -3.6330   24.0070 C   0  0  0  0  0  0  0  0  0  0  0  0
    5.2260   -3.1120   25.2810 C   0  0  0  0  0  0  0  0  0  0  0  0
    4.6180   -2.0390   25.1690 O   0  0  0  0  0  0  0  0  0  0  0  0
    5.2240   -3.6870   26.5830 N   0  0  0  0  0  0  0  0  0  0  0  0
    4.9250   -2.8680   27.7250 C   0  0  0  0  0  0  0  0  0  0  0  0
    5.6400   -3.4470   28.9530 C   0  0  0  0  0  0  0  0  0  0  0  0
    5.8020   -4.7870   29.1590 C   0  0  0  0  0  0  0  0  0  0  0  0
    4.7880   -5.4420   29.8200 C   0  0  0  0  0  0  0  0  0  0  0  0
    3.7330   -4.7630   30.3840 N   0  0  0  0  0  0  0  0  0  0  0  0
    2.8890   -5.6390   30.9550 N   0  0  0  0  0  0  0  0  0  0  0  0
    3.4380   -6.9070   30.7420 C   0  0  0  0  0  0  0  0  0  0  0  0
    2.8280   -8.0580   31.1980 C   0  0  0  0  0  0  0  0  0  0  0  0
    4.5790   -6.7650   30.0630 N   0  0  0  0  0  0  0  0  0  0  0  0
    6.1350   -5.4400   28.0210 C   0  0  0  0  0  0  0  0  0  0  0  0
    6.2160   -4.5590   26.8150 C   0  0  0  0  0  0  0  0  0  0  0  0
    7.1780   -2.9850   23.7380 C   0  0  0  0  0  0  0  0  0  0  0  0
    7.6120   -3.2680   22.3140 C   0  0  0  0  0  0  0  0  0  0  0  0
  1  2  1  0
  2  3  2  0
  2  4  1  0
  4  5  1  0
  5  6  1  0
  6  7  1  0
  7  8  1  0
  8  9  2  0
  8 10  1  0
 10 11  1  0
 11 12  1  0
 12 13  1  0
 13 14  1  0
 14 15  2  0
 15 16  1  0
 16 17  1  0
 17 18  1  0
 14 19  1  0
 17 19  2  0
 13 20  1  0
 10 21  1  0
 20 21  1  0
  7 22  1  0
  4 23  1  0
 22 23  1  0
M  END
