piperidine-amides-30625-covalent
     RDKit          3D

 26 28  0  0  0  0  0  0  0  0999 V2000
    6.9350   -3.4670   19.5050 C   0  0  0  0  0  0  0  0  0  0  0  0
    6.2500   -4.3910   20.4130 C   0  0  0  0  0  0  0  0  0  0  0  0
    5.2970   -5.0430   19.9870 O   0  0  0  0  0  0  0  0  0  0  0  0
    6.6610   -4.6010   21.7410 N   0  0  0  0  0  0  0  0  0  0  0  0
    6.2900   -5.7310   22.5500 C   0  0  0  0  0  0  0  0  0  0  0  0
    6.2180   -5.1860   23.9760 C   0  0  0  0  0  0  0  0  0  0  0  0
    5.5930   -3.8100   24.0400 C   0  0  0  0  0  0  0  0  0  0  0  0
    5.3520   -3.1420   25.3950 C   0  0  0  0  0  0  0  0  0  0  0  0
    4.1940   -2.6900   25.6120 O   0  0  0  0  0  0  0  0  0  0  0  0
    6.2640   -2.9790   26.4930 N   0  0  0  0  0  0  0  0  0  0  0  0
    5.7030   -2.9840   27.8750 C   0  0  0  0  0  0  0  0  0  0  0  0
    5.3500   -4.3850   28.2860 C   0  0  1  0  0  0  0  0  0  0  0  0
    4.5960   -5.1530   27.2730 C   0  0  0  0  0  0  0  0  0  0  0  0
    6.5740   -5.2560   28.4570 C   0  0  0  0  0  0  0  0  0  0  0  0
    7.5590   -4.9960   27.3520 C   0  0  0  0  0  0  0  0  0  0  0  0
    8.7020   -5.8810   27.1770 C   0  0  0  0  0  0  0  0  0  0  0  0
    9.5760   -5.6220   26.1770 C   0  0  0  0  0  0  0  0  0  0  0  0
    9.4970   -4.5520   25.2960 C   0  0  0  0  0  0  0  0  0  0  0  0
    8.4070   -3.5740   25.3580 C   0  0  0  0  0  0  0  0  0  0  0  0
    8.5860   -2.3310   24.1640 S   0  0  0  0  0  0  0  0  0  0  0  0
    9.3790   -3.0240   22.8590 N   0  0  0  0  0  0  0  0  0  0  0  0
    9.4990   -1.2930   24.6060 O   0  0  0  0  0  0  0  0  0  0  0  0
    7.2740   -1.6920   23.7910 O   0  0  0  0  0  0  0  0  0  0  0  0
    7.3720   -3.8360   26.4250 C   0  0  0  0  0  0  0  0  0  0  0  0
    6.2180   -2.9080   22.9520 C   0  0  0  0  0  0  0  0  0  0  0  0
    7.1660   -3.4500   22.4400 C   0  0  0  0  0  0  0  0  0  0  0  0
  1  2  1  0
  2  3  2  0
  2  4  1  0
  4  5  1  0
  5  6  1  0
  6  7  1  0
  7  8  1  0
  8  9  2  0
  8 10  1  0
 10 11  1  0
 11 12  1  0
 12 13  1  6
 12 14  1  0
 14 15  1  0
 15 16  2  0
 16 17  1  0
 17 18  2  0
 18 19  1  0
 19 20  1  0
 20 21  1  0
 20 22  2  0
 20 23  2  0
 10 24  1  0
 15 24  1  0
 19 24  2  0
  7 25  1  0
  4 26  1  0
 25 26  1  0
M  END
