piperidine-amides-27320-covalent
     RDKit          3D

 21 23  0  0  0  0  0  0  0  0999 V2000
    7.0200   -3.3800   19.4060 C   0  0  0  0  0  0  0  0  0  0  0  0
    6.3960   -4.2590   20.4030 C   0  0  0  0  0  0  0  0  0  0  0  0
    5.4040   -4.9260   20.0000 O   0  0  0  0  0  0  0  0  0  0  0  0
    6.9100   -4.3710   21.7080 N   0  0  0  0  0  0  0  0  0  0  0  0
    6.7090   -5.5660   22.5100 C   0  0  0  0  0  0  0  0  0  0  0  0
    6.1230   -5.1670   23.8480 C   0  0  0  0  0  0  0  0  0  0  0  0
    6.0260   -3.6720   23.9310 C   0  0  0  0  0  0  0  0  0  0  0  0
    5.3710   -3.0980   25.1450 C   0  0  0  0  0  0  0  0  0  0  0  0
    4.7110   -2.0680   24.9520 O   0  0  0  0  0  0  0  0  0  0  0  0
    5.3760   -3.5610   26.4780 N   0  0  0  0  0  0  0  0  0  0  0  0
    4.1910   -3.2980   27.2350 C   0  0  0  0  0  0  0  0  0  0  0  0
    4.4930   -3.4740   28.6990 C   0  0  0  0  0  0  0  0  0  0  0  0
    5.5130   -4.4980   28.7370 N   0  0  0  0  0  0  0  0  0  0  0  0
    5.4000   -5.5860   29.5830 C   0  0  0  0  0  0  0  0  0  0  0  0
    6.4190   -6.4810   29.5440 C   0  0  0  0  0  0  0  0  0  0  0  0
    5.5900   -7.5360   30.8780 Br  0  0  0  0  0  0  0  0  0  0  0  0
    6.2290   -5.3720   28.8770 C   0  0  0  0  0  0  0  0  0  0  0  0
    6.6890   -4.5760   27.9940 C   0  0  0  0  0  0  0  0  0  0  0  0
    6.5090   -3.4040   27.2710 C   0  0  0  0  0  0  0  0  0  0  0  0
    7.3920   -3.0380   23.7010 C   0  0  0  0  0  0  0  0  0  0  0  0
    7.7330   -3.2940   22.2380 C   0  0  0  0  0  0  0  0  0  0  0  0
  1  2  1  0
  2  3  2  0
  2  4  1  0
  4  5  1  0
  5  6  1  0
  6  7  1  0
  7  8  1  0
  8  9  2  0
  8 10  1  0
 10 11  1  0
 11 12  1  0
 12 13  1  0
 13 14  1  0
 14 15  2  0
 15 16  1  0
 15 17  1  0
 13 18  1  0
 17 18  2  0
 10 19  1  0
 18 19  1  0
  7 20  1  0
  4 21  1  0
 20 21  1  0
M  END
