piperidine-amides-1330-covalent
     RDKit          3D

 22 23  0  0  0  0  0  0  0  0999 V2000
    7.0530   -3.3290   19.3060 C   0  0  0  0  0  0  0  0  0  0  0  0
    6.3410   -4.1800   20.3010 C   0  0  0  0  0  0  0  0  0  0  0  0
    5.3370   -4.8160   19.9580 O   0  0  0  0  0  0  0  0  0  0  0  0
    6.8460   -4.2800   21.6100 N   0  0  0  0  0  0  0  0  0  0  0  0
    7.6610   -3.2280   22.1530 C   0  0  0  0  0  0  0  0  0  0  0  0
    6.8470   -2.6640   23.2940 C   0  0  0  0  0  0  0  0  0  0  0  0
    6.8660   -3.7480   24.2990 C   0  0  0  0  0  0  0  0  0  0  0  0
    5.9560   -3.5100   25.4440 C   0  0  0  0  0  0  0  0  0  0  0  0
    4.8340   -4.0280   25.3850 O   0  0  0  0  0  0  0  0  0  0  0  0
    6.3690   -2.7090   26.5140 N   0  0  0  0  0  0  0  0  0  0  0  0
    6.1810   -1.2960   26.5330 C   0  0  0  0  0  0  0  0  0  0  0  0
    6.6820   -0.7900   27.8390 C   0  0  0  0  0  0  0  0  0  0  0  0
    7.1510   -1.7880   28.6130 N   0  0  0  0  0  0  0  0  0  0  0  0
    7.5770   -1.1580   29.7710 C   0  0  0  0  0  0  0  0  0  0  0  0
    6.6190   -1.6170   27.4470 N   0  0  0  0  0  0  0  0  0  0  0  0
    6.2920   -0.2210   27.1310 C   0  0  0  0  0  0  0  0  0  0  0  0
    5.6810    0.4330   25.9360 C   0  0  0  0  0  0  0  0  0  0  0  0
    5.4820    1.7520   25.9580 O   0  0  0  0  0  0  0  0  0  0  0  0
    5.3120   -0.3150   24.8310 O   0  0  0  0  0  0  0  0  0  0  0  0
    4.2100   -1.2110   24.8690 C   0  0  0  0  0  0  0  0  0  0  0  0
    6.6520   -5.1480   23.7790 C   0  0  0  0  0  0  0  0  0  0  0  0
    6.0890   -5.1120   22.5140 C   0  0  0  0  0  0  0  0  0  0  0  0
  1  2  1  0
  2  3  2  0
  2  4  1  0
  4  5  1  0
  5  6  1  0
  6  7  1  0
  7  8  1  0
  8  9  2  0
  8 10  1  0
 10 11  1  0
 11 12  2  0
 12 13  1  0
 13 14  1  0
 13 15  1  0
 11 16  1  0
 15 16  2  0
 16 17  1  0
 17 18  2  0
 17 19  1  0
 19 20  1  0
  7 21  1  0
  4 22  1  0
 21 22  1  0
M  END
