piperidine-amides-35308-covalent
     RDKit          3D

 33 37  0  0  0  0  0  0  0  0999 V2000
    7.0560   -3.3450   19.3840 C   0  0  0  0  0  0  0  0  0  0  0  0
    6.4060   -4.2300   20.3890 C   0  0  0  0  0  0  0  0  0  0  0  0
    5.4320   -4.8780   19.9970 O   0  0  0  0  0  0  0  0  0  0  0  0
    6.9180   -4.3370   21.6960 N   0  0  0  0  0  0  0  0  0  0  0  0
    6.7520   -5.5630   22.4540 C   0  0  0  0  0  0  0  0  0  0  0  0
    6.1320   -5.2480   23.7870 C   0  0  0  0  0  0  0  0  0  0  0  0
    6.2170   -3.7430   23.9700 C   0  0  0  0  0  0  0  0  0  0  0  0
    5.6360   -3.3200   25.2670 C   0  0  0  0  0  0  0  0  0  0  0  0
    4.7440   -2.4660   25.2370 O   0  0  0  0  0  0  0  0  0  0  0  0
    6.0030   -3.8330   26.5270 N   0  0  0  0  0  0  0  0  0  0  0  0
    6.3480   -2.8430   27.4990 C   0  0  0  0  0  0  0  0  0  0  0  0
    6.6570   -3.5110   28.8300 C   0  0  0  0  0  0  0  0  0  0  0  0
    5.7450   -4.6250   29.1340 N   0  0  0  0  0  0  0  0  0  0  0  0
    4.5340   -4.1980   29.8490 C   0  0  0  0  0  0  0  0  0  0  0  0
    4.5810   -5.5300   29.8700 N   0  0  0  0  0  0  0  0  0  0  0  0
    3.5350   -6.1300   30.5110 C   0  0  0  0  0  0  0  0  0  0  0  0
    3.0100   -7.3090   30.0880 C   0  0  0  0  0  0  0  0  0  0  0  0
    1.8630   -8.0750   30.7010 C   0  0  0  0  0  0  0  0  0  0  0  0
    1.2680   -7.4110   31.9160 C   0  0  0  0  0  0  0  0  0  0  0  0
    1.8390   -6.0930   32.4100 C   0  0  0  0  0  0  0  0  0  0  0  0
    2.9810   -5.5120   31.6470 C   0  0  0  0  0  0  0  0  0  0  0  0
    3.3740   -4.2990   32.2530 O   0  0  0  0  0  0  0  0  0  0  0  0
    3.2800   -3.1990   31.4620 C   0  0  0  0  0  0  0  0  0  0  0  0
    2.4890   -2.0340   32.0110 C   0  0  0  0  0  0  0  0  0  0  0  0
    2.3260   -0.7850   31.2260 C   0  0  0  0  0  0  0  0  0  0  0  0
    2.9840   -0.7340   29.8620 C   0  0  0  0  0  0  0  0  0  0  0  0
    2.8850    0.6670   28.8090 Cl  0  0  0  0  0  0  0  0  0  0  0  0
    3.6930   -1.8470   29.4320 C   0  0  0  0  0  0  0  0  0  0  0  0
    3.8480   -3.1090   30.2440 C   0  0  0  0  0  0  0  0  0  0  0  0
    5.7510   -5.5810   28.1010 C   0  0  0  0  0  0  0  0  0  0  0  0
    5.0550   -4.7850   27.0220 C   0  0  0  0  0  0  0  0  0  0  0  0
    7.5530   -3.1310   23.6860 C   0  0  0  0  0  0  0  0  0  0  0  0
    7.7690   -3.2430   22.1700 C   0  0  0  0  0  0  0  0  0  0  0  0
  1  2  1  0
  2  3  2  0
  2  4  1  0
  4  5  1  0
  5  6  1  0
  6  7  1  0
  7  8  1  0
  8  9  2  0
  8 10  1  0
 10 11  1  0
 11 12  1  0
 12 13  1  0
 13 14  1  0
 14 15  2  0
 15 16  1  0
 16 17  1  0
 17 18  2  0
 18 19  1  0
 19 20  2  0
 16 21  2  0
 20 21  1  0
 21 22  1  0
 22 23  1  0
 23 24  1  0
 24 25  2  0
 25 26  1  0
 26 27  1  0
 26 28  2  0
 14 29  1  0
 23 29  2  0
 28 29  1  0
 13 30  1  0
 10 31  1  0
 30 31  1  0
  7 32  1  0
  4 33  1  0
 32 33  1  0
M  END
