piperidine-amides-27706-covalent
     RDKit          3D

 26 28  0  0  0  0  0  0  0  0999 V2000
    7.0440   -3.3500   19.3350 C   0  0  0  0  0  0  0  0  0  0  0  0
    6.3910   -4.2160   20.3450 C   0  0  0  0  0  0  0  0  0  0  0  0
    5.3730   -4.8320   19.9740 O   0  0  0  0  0  0  0  0  0  0  0  0
    6.9360   -4.3610   21.6330 N   0  0  0  0  0  0  0  0  0  0  0  0
    6.5690   -5.4680   22.4500 C   0  0  0  0  0  0  0  0  0  0  0  0
    5.9680   -5.1020   23.7460 C   0  0  0  0  0  0  0  0  0  0  0  0
    6.3280   -3.7670   24.3040 C   0  0  0  0  0  0  0  0  0  0  0  0
    5.2270   -3.2840   25.1970 C   0  0  0  0  0  0  0  0  0  0  0  0
    4.1570   -2.9900   24.6530 O   0  0  0  0  0  0  0  0  0  0  0  0
    5.3480   -3.1530   26.6070 N   0  0  0  0  0  0  0  0  0  0  0  0
    4.5130   -3.8910   27.5630 C   0  0  2  0  0  0  0  0  0  0  0  0
    3.4040   -2.9870   28.0050 C   0  0  0  0  0  0  0  0  0  0  0  0
    3.2110   -2.5090   29.3600 C   0  0  0  0  0  0  0  0  0  0  0  0
    2.1570   -1.6850   29.6250 C   0  0  0  0  0  0  0  0  0  0  0  0
    1.2720   -1.2930   28.6410 C   0  0  0  0  0  0  0  0  0  0  0  0
    1.4080   -1.7160   27.3400 C   0  0  0  0  0  0  0  0  0  0  0  0
    2.4210   -2.5490   26.9290 C   0  0  0  0  0  0  0  0  0  0  0  0
    5.3170   -4.4560   28.5670 C   0  0  0  0  0  0  0  0  0  0  0  0
    6.6170   -4.1790   28.1540 C   0  0  0  0  0  0  0  0  0  0  0  0
    6.6170   -3.0360   27.1860 C   0  0  2  0  0  0  0  0  0  0  0  0
    6.8220   -1.7610   27.9790 C   0  0  0  0  0  0  0  0  0  0  0  0
    7.1280   -1.8870   29.3170 O   0  0  0  0  0  0  0  0  0  0  0  0
    6.6610   -0.5640   27.1800 N   0  0  0  0  0  0  0  0  0  0  0  0
    5.4060   -0.0050   26.7940 C   0  0  0  0  0  0  0  0  0  0  0  0
    6.7780   -2.7510   23.3430 C   0  0  0  0  0  0  0  0  0  0  0  0
    7.6860   -3.2970   22.2700 C   0  0  0  0  0  0  0  0  0  0  0  0
  1  2  1  0
  2  3  2  0
  2  4  1  0
  4  5  1  0
  5  6  1  0
  6  7  1  0
  7  8  1  0
  8  9  2  0
  8 10  1  0
 10 11  1  0
 11 12  1  1
 12 13  2  0
 13 14  1  0
 14 15  2  0
 15 16  1  0
 12 17  1  0
 16 17  2  0
 11 18  1  0
 18 19  1  0
 10 20  1  0
 19 20  1  0
 20 21  1  1
 21 22  2  0
 21 23  1  0
 23 24  1  0
  7 25  1  0
  4 26  1  0
 25 26  1  0
M  END
