piperidine-amides-9251-covalent
     RDKit          3D

 19 20  0  0  0  0  0  0  0  0999 V2000
    7.1100   -3.2520   19.1850 C   0  0  0  0  0  0  0  0  0  0  0  0
    6.3410   -3.9770   20.1970 C   0  0  0  0  0  0  0  0  0  0  0  0
    5.2720   -4.5170   19.8720 O   0  0  0  0  0  0  0  0  0  0  0  0
    6.8090   -4.1240   21.5070 N   0  0  0  0  0  0  0  0  0  0  0  0
    7.6980   -3.1600   22.1240 C   0  0  0  0  0  0  0  0  0  0  0  0
    6.9610   -2.6190   23.3100 C   0  0  0  0  0  0  0  0  0  0  0  0
    6.4950   -3.7390   24.1810 C   0  0  0  0  0  0  0  0  0  0  0  0
    5.7930   -3.2310   25.3840 C   0  0  0  0  0  0  0  0  0  0  0  0
    4.5490   -2.9810   25.3430 O   0  0  0  0  0  0  0  0  0  0  0  0
    6.4540   -2.9940   26.6120 N   0  0  0  0  0  0  0  0  0  0  0  0
    6.1330   -3.7720   27.8300 C   0  0  0  0  0  0  0  0  0  0  0  0
    5.1150   -4.7830   27.4660 C   0  0  0  0  0  0  0  0  0  0  0  0
    3.8320   -4.4450   27.6830 N   0  0  0  0  0  0  0  0  0  0  0  0
    2.8190   -5.3610   27.3530 C   0  0  0  0  0  0  0  0  0  0  0  0
    3.3640   -6.6340   26.7820 C   0  0  0  0  0  0  0  0  0  0  0  0
    2.3100   -7.9700   26.2700 Cl  0  0  0  0  0  0  0  0  0  0  0  0
    5.1450   -6.3590   26.8050 S   0  0  0  0  0  0  0  0  0  0  0  0
    5.7710   -4.8360   23.4850 C   0  0  0  0  0  0  0  0  0  0  0  0
    6.5060   -5.2900   22.2840 C   0  0  0  0  0  0  0  0  0  0  0  0
  1  2  1  0
  2  3  2  0
  2  4  1  0
  4  5  1  0
  5  6  1  0
  6  7  1  0
  7  8  1  0
  8  9  2  0
  8 10  1  0
 10 11  1  0
 11 12  1  0
 12 13  2  0
 13 14  1  0
 14 15  2  0
 15 16  1  0
 12 17  1  0
 15 17  1  0
  7 18  1  0
  4 19  1  0
 18 19  1  0
M  END
