piperidine-amides-11758-covalent
     RDKit          3D

 28 30  0  0  0  0  0  0  0  0999 V2000
    7.1070   -3.2890   19.1990 C   0  0  0  0  0  0  0  0  0  0  0  0
    6.3450   -4.0390   20.1920 C   0  0  0  0  0  0  0  0  0  0  0  0
    5.2680   -4.5400   19.8820 O   0  0  0  0  0  0  0  0  0  0  0  0
    6.8780   -4.2520   21.5050 N   0  0  0  0  0  0  0  0  0  0  0  0
    7.6820   -3.2410   22.1430 C   0  0  0  0  0  0  0  0  0  0  0  0
    6.9400   -2.6580   23.3040 C   0  0  0  0  0  0  0  0  0  0  0  0
    6.4770   -3.8030   24.1880 C   0  0  0  0  0  0  0  0  0  0  0  0
    5.7660   -3.2390   25.3640 C   0  0  0  0  0  0  0  0  0  0  0  0
    4.5920   -2.8220   25.3040 O   0  0  0  0  0  0  0  0  0  0  0  0
    6.4980   -3.1700   26.5690 N   0  0  0  0  0  0  0  0  0  0  0  0
    5.8680   -3.2380   27.8680 C   0  0  2  0  0  0  0  0  0  0  0  0
    6.5580   -4.2410   28.7530 C   0  0  0  0  0  0  0  0  0  0  0  0
    6.2970   -5.5850   28.6330 C   0  0  0  0  0  0  0  0  0  0  0  0
    6.3500   -6.1350   27.5130 O   0  0  0  0  0  0  0  0  0  0  0  0
    5.9700   -6.4020   29.6940 O   0  0  0  0  0  0  0  0  0  0  0  0
    5.6400   -7.7480   29.6100 C   0  0  0  0  0  0  0  0  0  0  0  0
    4.4010   -3.4630   27.7780 C   0  0  0  0  0  0  0  0  0  0  0  0
    3.7780   -4.2920   26.7430 C   0  0  0  0  0  0  0  0  0  0  0  0
    2.4260   -4.5110   26.6480 C   0  0  0  0  0  0  0  0  0  0  0  0
    1.6240   -3.9190   27.5810 C   0  0  0  0  0  0  0  0  0  0  0  0
    2.1450   -3.1250   28.5910 C   0  0  0  0  0  0  0  0  0  0  0  0
    1.3250   -2.4530   29.6400 C   0  0  0  0  0  0  0  0  0  0  0  0
    1.7980   -1.6460   30.6790 C   0  0  0  0  0  0  0  0  0  0  0  0
    3.1510   -1.4010   30.8070 C   0  0  0  0  0  0  0  0  0  0  0  0
    4.0590   -2.0090   29.8290 C   0  0  0  0  0  0  0  0  0  0  0  0
    3.5440   -2.8910   28.6960 C   0  0  0  0  0  0  0  0  0  0  0  0
    5.6690   -4.8160   23.4320 C   0  0  0  0  0  0  0  0  0  0  0  0
    6.4330   -5.3790   22.2820 C   0  0  0  0  0  0  0  0  0  0  0  0
  1  2  1  0
  2  3  2  0
  2  4  1  0
  4  5  1  0
  5  6  1  0
  6  7  1  0
  7  8  1  0
  8  9  2  0
  8 10  1  0
 10 11  1  0
 11 12  1  1
 12 13  1  0
 13 14  2  0
 13 15  1  0
 15 16  1  0
 11 17  1  0
 17 18  2  0
 18 19  1  0
 19 20  2  0
 20 21  1  0
 21 22  1  0
 22 23  2  0
 23 24  1  0
 24 25  2  0
 17 26  1  0
 21 26  2  0
 25 26  1  0
  7 27  1  0
  4 28  1  0
 27 28  1  0
M  END
