piperidine-amides-198-covalent
     RDKit          3D

 19 20  0  0  0  0  0  0  0  0999 V2000
    7.0880   -3.3580   19.2200 C   0  0  0  0  0  0  0  0  0  0  0  0
    6.3830   -4.0830   20.2560 C   0  0  0  0  0  0  0  0  0  0  0  0
    5.2950   -4.6490   19.9260 O   0  0  0  0  0  0  0  0  0  0  0  0
    6.8710   -4.2400   21.5720 N   0  0  0  0  0  0  0  0  0  0  0  0
    7.7970   -3.2170   22.1070 C   0  0  0  0  0  0  0  0  0  0  0  0
    6.8650   -2.6360   23.2150 C   0  0  0  0  0  0  0  0  0  0  0  0
    6.5830   -3.8210   24.0950 C   0  0  0  0  0  0  0  0  0  0  0  0
    5.8540   -3.3030   25.3990 C   0  0  0  0  0  0  0  0  0  0  0  0
    5.1110   -2.3700   25.1310 O   0  0  0  0  0  0  0  0  0  0  0  0
    6.2170   -4.0030   26.3980 N   0  0  0  0  0  0  0  0  0  0  0  0
    6.4410   -4.7330   27.5260 C   0  0  1  0  0  0  0  0  0  0  0  0
    7.4400   -5.4040   28.1870 C   0  0  0  0  0  0  0  0  0  0  0  0
    5.7120   -3.9320   28.5800 C   0  0  0  0  0  0  0  0  0  0  0  0
    6.2690   -2.6320   28.9500 C   0  0  0  0  0  0  0  0  0  0  0  0
    5.5930   -1.8620   29.9180 N   0  0  0  0  0  0  0  0  0  0  0  0
    4.2190   -2.8240   30.3550 S   0  0  0  0  0  0  0  0  0  0  0  0
    4.4650   -4.2670   29.3090 C   0  0  0  0  0  0  0  0  0  0  0  0
    5.8910   -5.0190   23.4630 C   0  0  0  0  0  0  0  0  0  0  0  0
    6.6180   -5.4400   22.3330 C   0  0  0  0  0  0  0  0  0  0  0  0
  1  2  1  0
  2  3  2  0
  2  4  1  0
  4  5  1  0
  5  6  1  0
  6  7  1  0
  7  8  1  0
  8  9  2  0
  8 10  1  0
 10 11  1  0
 11 12  1  1
 11 13  1  0
 13 14  1  0
 14 15  2  0
 15 16  1  0
 13 17  2  0
 16 17  1  0
  7 18  1  0
  4 19  1  0
 18 19  1  0
M  END
