piperidine-amides-6647-covalent
     RDKit          3D

 24 25  0  0  0  0  0  0  0  0999 V2000
    7.0870   -3.2590   19.2540 C   0  0  0  0  0  0  0  0  0  0  0  0
    6.3460   -4.0490   20.2540 C   0  0  0  0  0  0  0  0  0  0  0  0
    5.3240   -4.6910   19.9270 O   0  0  0  0  0  0  0  0  0  0  0  0
    6.7920   -4.1310   21.5740 N   0  0  0  0  0  0  0  0  0  0  0  0
    6.6600   -5.3880   22.2770 C   0  0  0  0  0  0  0  0  0  0  0  0
    6.0700   -5.1010   23.6640 C   0  0  0  0  0  0  0  0  0  0  0  0
    6.0100   -3.5960   23.8250 C   0  0  0  0  0  0  0  0  0  0  0  0
    5.6460   -3.2160   25.1940 C   0  0  0  0  0  0  0  0  0  0  0  0
    4.4370   -3.1720   25.5050 O   0  0  0  0  0  0  0  0  0  0  0  0
    6.6800   -2.9130   26.1010 N   0  0  0  0  0  0  0  0  0  0  0  0
    6.3990   -2.2250   27.3190 C   0  0  0  0  0  0  0  0  0  0  0  0
    5.7040   -3.1600   28.2780 C   0  0  0  0  0  0  0  0  0  0  0  0
    4.8620   -2.6870   29.2480 C   0  0  0  0  0  0  0  0  0  0  0  0
    4.2280   -3.5350   30.1220 C   0  0  0  0  0  0  0  0  0  0  0  0
    4.4060   -4.9180   30.0780 C   0  0  0  0  0  0  0  0  0  0  0  0
    3.7790   -5.7270   30.9520 O   0  0  0  0  0  0  0  0  0  0  0  0
    4.1380   -7.0300   31.1530 C   0  0  0  0  0  0  0  0  0  0  0  0
    5.1650   -7.2390   32.2520 C   0  0  0  0  0  0  0  0  0  0  0  0
    5.5090   -7.5010   30.8000 C   0  0  0  0  0  0  0  0  0  0  0  0
    3.2860   -8.0770   31.1400 C   0  0  0  0  0  0  0  0  0  0  0  0
    5.2540   -5.3740   29.0940 C   0  0  0  0  0  0  0  0  0  0  0  0
    5.8900   -4.5180   28.2130 C   0  0  0  0  0  0  0  0  0  0  0  0
    7.4010   -3.0390   23.5760 C   0  0  0  0  0  0  0  0  0  0  0  0
    7.6720   -3.1070   22.1060 C   0  0  0  0  0  0  0  0  0  0  0  0
  1  2  1  0
  2  3  2  0
  2  4  1  0
  4  5  1  0
  5  6  1  0
  6  7  1  0
  7  8  1  0
  8  9  2  0
  8 10  1  0
 10 11  1  0
 11 12  1  0
 12 13  2  0
 13 14  1  0
 14 15  2  0
 15 16  1  0
 17 16  1  0
 17 18  1  0
 17 19  1  0
 17 20  1  0
 15 21  1  0
 12 22  1  0
 21 22  2  0
  7 23  1  0
  4 24  1  0
 23 24  1  0
M  END
