piperidine-amides-35424-covalent
     RDKit          3D

 35 38  0  0  0  0  0  0  0  0999 V2000
    7.0540   -3.3400   19.3310 C   0  0  0  0  0  0  0  0  0  0  0  0
    6.3960   -4.1790   20.3650 C   0  0  0  0  0  0  0  0  0  0  0  0
    5.4280   -4.8470   19.9920 O   0  0  0  0  0  0  0  0  0  0  0  0
    6.9050   -4.2170   21.6740 N   0  0  0  0  0  0  0  0  0  0  0  0
    7.7990   -3.1820   22.1690 C   0  0  0  0  0  0  0  0  0  0  0  0
    7.5370   -2.9420   23.6220 C   0  0  0  0  0  0  0  0  0  0  0  0
    6.1950   -3.5840   23.9140 C   0  0  0  0  0  0  0  0  0  0  0  0
    5.6220   -3.0340   25.1600 C   0  0  0  0  0  0  0  0  0  0  0  0
    4.5130   -2.4880   25.0850 O   0  0  0  0  0  0  0  0  0  0  0  0
    6.2340   -3.1000   26.4250 N   0  0  0  0  0  0  0  0  0  0  0  0
    6.3320   -1.8200   27.1070 C   0  0  0  0  0  0  0  0  0  0  0  0
    6.9900   -1.6780   28.4770 C   0  0  0  0  0  0  0  0  0  0  0  0
    7.1010   -0.5040   29.1940 C   0  0  0  0  0  0  0  0  0  0  0  0
    6.5780    0.6190   28.6300 C   0  0  0  0  0  0  0  0  0  0  0  0
    6.5420    1.8980   29.1090 C   0  0  0  0  0  0  0  0  0  0  0  0
    5.2270    2.4030   29.6700 C   0  0  0  0  0  0  0  0  0  0  0  0
    5.2610    3.7140   30.0720 O   0  0  0  0  0  0  0  0  0  0  0  0
    5.9060    0.7650   27.3460 C   0  0  0  0  0  0  0  0  0  0  0  0
    5.7870   -0.4980   26.5720 C   0  0  0  0  0  0  0  0  0  0  0  0
    5.4960   -4.0710   27.2000 C   0  0  0  0  0  0  0  0  0  0  0  0
    4.9280   -3.4740   28.3470 N   0  0  0  0  0  0  0  0  0  0  0  0
    4.0800   -4.2270   29.1950 C   0  0  0  0  0  0  0  0  0  0  0  0
    3.3910   -3.7430   30.4160 N   0  0  0  0  0  0  0  0  0  0  0  0
    2.8970   -2.4220   30.4570 C   0  0  0  0  0  0  0  0  0  0  0  0
    3.8530   -1.3670   30.9000 C   0  0  0  0  0  0  0  0  0  0  0  0
    2.2930   -2.1620   29.2280 C   0  0  0  0  0  0  0  0  0  0  0  0
    1.7670   -2.3780   31.4500 C   0  0  0  0  0  0  0  0  0  0  0  0
    2.6260   -4.8480   30.6920 N   0  0  0  0  0  0  0  0  0  0  0  0
    2.9040   -5.9830   29.7990 C   0  0  0  0  0  0  0  0  0  0  0  0
    3.9060   -5.4840   28.8040 C   0  0  0  0  0  0  0  0  0  0  0  0
    4.6060   -6.1230   27.6260 C   0  0  0  0  0  0  0  0  0  0  0  0
    4.2860   -7.4920   27.5880 O   0  0  0  0  0  0  0  0  0  0  0  0
    5.3570   -5.3500   26.8380 N   0  0  0  0  0  0  0  0  0  0  0  0
    6.1300   -5.0830   23.8190 C   0  0  0  0  0  0  0  0  0  0  0  0
    6.6890   -5.4410   22.4270 C   0  0  0  0  0  0  0  0  0  0  0  0
  1  2  1  0
  2  3  2  0
  2  4  1  0
  4  5  1  0
  5  6  1  0
  6  7  1  0
  7  8  1  0
  8  9  2  0
  8 10  1  0
 10 11  1  0
 11 12  2  0
 12 13  1  0
 13 14  2  0
 14 15  1  0
 15 16  1  0
 16 17  1  0
 14 18  1  0
 11 19  1  0
 18 19  2  0
 10 20  1  0
 20 21  1  0
 21 22  2  0
 22 23  1  0
 23 24  1  0
 24 25  1  0
 24 26  1  0
 24 27  1  0
 23 28  1  0
 28 29  1  0
 22 30  1  0
 29 30  2  0
 30 31  1  0
 31 32  2  0
 20 33  2  0
 31 33  1  0
  7 34  1  0
  4 35  1  0
 34 35  1  0
M  END
