piperidine-amides-24212-covalent
     RDKit          3D

 24 25  0  0  0  0  0  0  0  0999 V2000
    7.1200   -3.2740   19.1890 C   0  0  0  0  0  0  0  0  0  0  0  0
    6.3840   -4.0300   20.2170 C   0  0  0  0  0  0  0  0  0  0  0  0
    5.3420   -4.6530   19.9250 O   0  0  0  0  0  0  0  0  0  0  0  0
    6.8740   -4.0930   21.5230 N   0  0  0  0  0  0  0  0  0  0  0  0
    7.7130   -3.0140   21.9930 C   0  0  0  0  0  0  0  0  0  0  0  0
    7.6350   -3.0180   23.5140 C   0  0  0  0  0  0  0  0  0  0  0  0
    6.1930   -3.3040   23.8700 C   0  0  0  0  0  0  0  0  0  0  0  0
    5.9350   -3.0390   25.3090 C   0  0  0  0  0  0  0  0  0  0  0  0
    4.7420   -2.8630   25.6610 O   0  0  0  0  0  0  0  0  0  0  0  0
    7.0200   -2.9710   26.2440 N   0  0  0  0  0  0  0  0  0  0  0  0
    8.1510   -2.1810   25.9120 C   0  0  0  0  0  0  0  0  0  0  0  0
    6.7540   -3.0670   27.6580 C   0  0  0  0  0  0  0  0  0  0  0  0
    7.5750   -4.0260   28.1740 C   0  0  0  0  0  0  0  0  0  0  0  0
    6.9370   -5.1020   28.7330 C   0  0  0  0  0  0  0  0  0  0  0  0
    5.9960   -5.6450   27.9110 C   0  0  0  0  0  0  0  0  0  0  0  0
    4.8140   -6.0390   28.3920 N   0  0  0  0  0  0  0  0  0  0  0  0
    4.1870   -6.4960   27.2180 C   0  0  0  0  0  0  0  0  0  0  0  0
    5.0570   -6.3540   25.9870 C   0  0  0  0  0  0  0  0  0  0  0  0
    6.1900   -5.8140   26.5160 N   0  0  0  0  0  0  0  0  0  0  0  0
    7.4640   -5.4230   25.8910 C   0  0  0  0  0  0  0  0  0  0  0  0
    8.4860   -5.7700   26.9530 C   0  0  0  0  0  0  0  0  0  0  0  0
    9.1420   -5.4520   25.7080 C   0  0  0  0  0  0  0  0  0  0  0  0
    5.8710   -4.7370   23.5310 C   0  0  0  0  0  0  0  0  0  0  0  0
    6.4520   -5.1540   22.3660 C   0  0  0  0  0  0  0  0  0  0  0  0
  1  2  1  0
  2  3  2  0
  2  4  1  0
  4  5  1  0
  5  6  1  0
  6  7  1  0
  7  8  1  0
  8  9  2  0
  8 10  1  0
 10 11  1  0
 10 12  1  0
 12 13  1  0
 13 14  1  0
 14 15  1  0
 15 16  2  0
 16 17  1  0
 17 18  2  0
 15 19  1  0
 18 19  1  0
 19 20  1  0
 20 21  1  0
 21 22  1  0
  7 23  1  0
  4 24  1  0
 23 24  1  0
M  END
