piperidine-amides-14044-covalent
     RDKit          3D

 25 27  0  0  0  0  0  0  0  0999 V2000
    7.0810   -3.3340   19.2950 C   0  0  0  0  0  0  0  0  0  0  0  0
    6.3230   -4.1330   20.2940 C   0  0  0  0  0  0  0  0  0  0  0  0
    5.2890   -4.7130   19.9350 O   0  0  0  0  0  0  0  0  0  0  0  0
    6.8200   -4.2510   21.6080 N   0  0  0  0  0  0  0  0  0  0  0  0
    6.5900   -5.4610   22.3650 C   0  0  0  0  0  0  0  0  0  0  0  0
    6.3090   -5.1160   23.8430 C   0  0  0  0  0  0  0  0  0  0  0  0
    6.1980   -3.6310   24.0190 C   0  0  0  0  0  0  0  0  0  0  0  0
    5.6500   -3.2470   25.3340 C   0  0  0  0  0  0  0  0  0  0  0  0
    4.4210   -3.2890   25.4500 O   0  0  0  0  0  0  0  0  0  0  0  0
    6.5040   -2.8540   26.3650 N   0  0  0  0  0  0  0  0  0  0  0  0
    6.4660   -1.6470   27.1050 C   0  0  0  0  0  0  0  0  0  0  0  0
    6.9810   -1.5900   28.3900 C   0  0  0  0  0  0  0  0  0  0  0  0
    7.0010   -0.4690   29.2260 C   0  0  0  0  0  0  0  0  0  0  0  0
    6.4900    0.7390   28.8400 C   0  0  0  0  0  0  0  0  0  0  0  0
    6.5500    2.2120   30.0200 Br  0  0  0  0  0  0  0  0  0  0  0  0
    5.8960    0.8760   27.4960 C   0  0  0  0  0  0  0  0  0  0  0  0
    5.2730    2.1320   26.8670 C   0  0  0  0  0  0  0  0  0  0  0  0
    5.4660    2.4330   25.5250 O   0  0  0  0  0  0  0  0  0  0  0  0
    4.4900    2.9780   27.7220 N   0  0  0  0  0  0  0  0  0  0  0  0
    3.1070    3.1820   27.4740 C   0  0  0  0  0  0  0  0  0  0  0  0
    2.6260    4.0220   28.2660 C   0  0  0  0  0  0  0  0  0  0  0  0
    2.7020    4.5860   26.8830 C   0  0  0  0  0  0  0  0  0  0  0  0
    5.9040   -0.3490   26.6530 C   0  0  0  0  0  0  0  0  0  0  0  0
    7.4930   -3.0640   23.6590 C   0  0  0  0  0  0  0  0  0  0  0  0
    7.6730   -3.2220   22.1540 C   0  0  0  0  0  0  0  0  0  0  0  0
  1  2  1  0
  2  3  2  0
  2  4  1  0
  4  5  1  0
  5  6  1  0
  6  7  1  0
  7  8  1  0
  8  9  2  0
  8 10  1  0
 10 11  1  0
 11 12  2  0
 12 13  1  0
 13 14  2  0
 14 15  1  0
 14 16  1  0
 16 17  1  0
 17 18  2  0
 17 19  1  0
 19 20  1  0
 20 21  1  0
 20 22  1  0
 21 22  1  0
 11 23  1  0
 16 23  2  0
  7 24  1  0
  4 25  1  0
 24 25  1  0
M  END
