piperidine-amides-30967-covalent
     RDKit          3D

 27 28  0  0  0  0  0  0  0  0999 V2000
    7.0230   -3.3110   19.3200 C   0  0  0  0  0  0  0  0  0  0  0  0
    6.3270   -4.1590   20.2900 C   0  0  0  0  0  0  0  0  0  0  0  0
    5.2940   -4.7430   19.9400 O   0  0  0  0  0  0  0  0  0  0  0  0
    6.8060   -4.3940   21.5890 N   0  0  0  0  0  0  0  0  0  0  0  0
    7.6500   -3.4520   22.3070 C   0  0  0  0  0  0  0  0  0  0  0  0
    7.0560   -3.2340   23.6850 C   0  0  0  0  0  0  0  0  0  0  0  0
    6.5430   -4.5000   24.3270 C   0  0  0  0  0  0  0  0  0  0  0  0
    5.6650   -4.2140   25.5130 C   0  0  0  0  0  0  0  0  0  0  0  0
    4.5970   -3.5580   25.3180 O   0  0  0  0  0  0  0  0  0  0  0  0
    5.9040   -4.5720   26.8900 N   0  0  0  0  0  0  0  0  0  0  0  0
    5.7500   -3.4280   27.8220 C   0  0  0  0  0  0  0  0  0  0  0  0
    5.6750   -3.9090   29.1930 C   0  0  0  0  0  0  0  0  0  0  0  0
    6.4230   -5.1320   29.4300 C   0  0  0  0  0  0  0  0  0  0  0  0
    5.8720   -6.2520   28.6830 C   0  0  2  0  0  0  0  0  0  0  0  0
    6.1360   -7.5400   29.6510 C   0  0  1  0  0  0  0  0  0  0  0  0
    4.8280   -7.5900   30.3400 C   0  0  0  0  0  0  0  0  0  0  0  0
    6.7880   -8.8230   29.1200 N   0  0  0  0  0  0  0  0  0  0  0  0
    7.6520   -9.8760   29.6480 C   0  0  0  0  0  0  0  0  0  0  0  0
    7.2820  -10.9200   30.1840 O   0  0  0  0  0  0  0  0  0  0  0  0
    8.8970   -9.8880   29.5850 O   0  0  0  0  0  0  0  0  0  0  0  0
    9.6030  -11.1190   29.6910 C   0  0  0  0  0  0  0  0  0  0  0  0
    8.9530  -12.1320   30.2750 C   0  0  0  0  0  0  0  0  0  0  0  0
   10.8850  -11.4430   30.3280 C   0  0  0  0  0  0  0  0  0  0  0  0
    9.9080  -11.5030   28.4200 C   0  0  0  0  0  0  0  0  0  0  0  0
    6.0110   -6.0340   27.2790 C   0  0  0  0  0  0  0  0  0  0  0  0
    5.8110   -5.3990   23.4300 C   0  0  0  0  0  0  0  0  0  0  0  0
    6.4730   -5.6040   22.2520 C   0  0  0  0  0  0  0  0  0  0  0  0
  1  2  1  0
  2  3  2  0
  2  4  1  0
  4  5  1  0
  5  6  1  0
  6  7  1  0
  7  8  1  0
  8  9  2  0
  8 10  1  0
 10 11  1  0
 11 12  1  0
 12 13  1  0
 14 13  1  1
 14 15  1  0
 15 16  1  6
 15 17  1  0
 17 18  1  0
 18 19  2  0
 18 20  1  0
 21 20  1  0
 21 22  1  0
 21 23  1  0
 21 24  1  0
 10 25  1  0
 14 25  1  0
  7 26  1  0
  4 27  1  0
 26 27  1  0
M  END
