piperidine-amides-14237-covalent
     RDKit          3D

 24 26  0  0  0  0  0  0  0  0999 V2000
    7.0610   -3.2810   19.2850 C   0  0  0  0  0  0  0  0  0  0  0  0
    6.3240   -4.0970   20.2920 C   0  0  0  0  0  0  0  0  0  0  0  0
    5.2950   -4.6910   19.9300 O   0  0  0  0  0  0  0  0  0  0  0  0
    6.8100   -4.2240   21.6130 N   0  0  0  0  0  0  0  0  0  0  0  0
    6.5640   -5.4440   22.3550 C   0  0  0  0  0  0  0  0  0  0  0  0
    6.3440   -5.1270   23.8500 C   0  0  0  0  0  0  0  0  0  0  0  0
    6.0910   -3.6630   24.0170 C   0  0  0  0  0  0  0  0  0  0  0  0
    5.4020   -3.2990   25.2850 C   0  0  0  0  0  0  0  0  0  0  0  0
    4.4240   -2.5560   25.1570 O   0  0  0  0  0  0  0  0  0  0  0  0
    5.8180   -3.7610   26.5440 N   0  0  0  0  0  0  0  0  0  0  0  0
    6.4620   -3.0090   27.5550 C   0  0  0  0  0  0  0  0  0  0  0  0
    5.9090   -2.0830   28.4130 C   0  0  0  0  0  0  0  0  0  0  0  0
    6.1960   -0.7350   27.9510 N   0  0  0  0  0  0  0  0  0  0  0  0
    5.7740    0.3770   28.6240 C   0  0  0  0  0  0  0  0  0  0  0  0
    6.0600    1.6440   28.1770 C   0  0  0  0  0  0  0  0  0  0  0  0
    4.9990    0.2210   29.8510 C   0  0  0  0  0  0  0  0  0  0  0  0
    4.4940    1.4330   30.6540 C   0  0  0  0  0  0  0  0  0  0  0  0
    3.7170    1.0020   31.8870 C   0  0  0  0  0  0  0  0  0  0  0  0
    3.4790   -0.2920   32.2590 C   0  0  0  0  0  0  0  0  0  0  0  0
    3.9000   -1.5390   31.5900 C   0  0  0  0  0  0  0  0  0  0  0  0
    4.6910   -1.1600   30.3390 C   0  0  0  0  0  0  0  0  0  0  0  0
    5.1700   -2.1910   29.5870 N   0  0  0  0  0  0  0  0  0  0  0  0
    7.3510   -2.9930   23.6970 C   0  0  0  0  0  0  0  0  0  0  0  0
    7.6350   -3.1930   22.2020 C   0  0  0  0  0  0  0  0  0  0  0  0
  1  2  1  0
  2  3  2  0
  2  4  1  0
  4  5  1  0
  5  6  1  0
  6  7  1  0
  7  8  1  0
  8  9  2  0
  8 10  1  0
 10 11  1  0
 11 12  1  0
 12 13  2  0
 13 14  1  0
 14 15  1  0
 14 16  2  0
 16 17  1  0
 17 18  2  0
 18 19  1  0
 19 20  2  0
 16 21  1  0
 20 21  1  0
 12 22  1  0
 21 22  2  0
  7 23  1  0
  4 24  1  0
 23 24  1  0
M  END
