piperidine-amides-29137-covalent
     RDKit          3D

 26 27  0  0  0  0  0  0  0  0999 V2000
    6.9650   -3.3710   19.4510 C   0  0  0  0  0  0  0  0  0  0  0  0
    6.3390   -4.2590   20.4380 C   0  0  0  0  0  0  0  0  0  0  0  0
    5.4350   -5.0080   20.0150 O   0  0  0  0  0  0  0  0  0  0  0  0
    6.7590   -4.2870   21.8080 N   0  0  0  0  0  0  0  0  0  0  0  0
    6.4820   -5.4670   22.5930 C   0  0  0  0  0  0  0  0  0  0  0  0
    5.9920   -5.1240   23.9930 C   0  0  0  0  0  0  0  0  0  0  0  0
    5.8720   -3.6130   24.1000 C   0  0  0  0  0  0  0  0  0  0  0  0
    5.1190   -3.0370   25.3190 C   0  0  0  0  0  0  0  0  0  0  0  0
    4.5100   -2.0170   25.0580 O   0  0  0  0  0  0  0  0  0  0  0  0
    5.1020   -3.6030   26.6230 N   0  0  0  0  0  0  0  0  0  0  0  0
    4.6470   -2.8940   27.7730 C   0  0  0  0  0  0  0  0  0  0  0  0
    4.8830   -3.5660   28.9980 C   0  0  0  0  0  0  0  0  0  0  0  0
    5.2370   -4.8760   28.8750 C   0  0  0  0  0  0  0  0  0  0  0  0
    5.0740   -5.7110   29.9680 C   0  0  0  0  0  0  0  0  0  0  0  0
    4.2220   -6.8400   29.4590 C   0  0  0  0  0  0  0  0  0  0  0  0
    2.7510   -6.8430   29.9490 C   0  0  0  0  0  0  0  0  0  0  0  0
    2.0240   -7.3330   29.0490 O   0  0  0  0  0  0  0  0  0  0  0  0
    2.3760   -6.3950   31.1270 O   0  0  0  0  0  0  0  0  0  0  0  0
    2.4390   -7.4010   32.0820 C   0  0  0  0  0  0  0  0  0  0  0  0
    2.1860   -6.8840   33.4700 C   0  0  0  0  0  0  0  0  0  0  0  0
    3.6360   -8.0630   31.9880 C   0  0  0  0  0  0  0  0  0  0  0  0
    1.5070   -8.3490   31.6850 C   0  0  0  0  0  0  0  0  0  0  0  0
    6.3840   -5.0290   28.2120 C   0  0  0  0  0  0  0  0  0  0  0  0
    6.2500   -4.2890   26.8970 C   0  0  0  0  0  0  0  0  0  0  0  0
    7.2690   -3.0260   23.8480 C   0  0  0  0  0  0  0  0  0  0  0  0
    7.5830   -3.2510   22.3760 C   0  0  0  0  0  0  0  0  0  0  0  0
  1  2  1  0
  2  3  2  0
  2  4  1  0
  4  5  1  0
  5  6  1  0
  6  7  1  0
  7  8  1  0
  8  9  2  0
  8 10  1  0
 10 11  1  0
 11 12  1  0
 12 13  1  0
 13 14  1  0
 14 15  1  0
 15 16  1  0
 16 17  2  0
 16 18  1  0
 19 18  1  0
 19 20  1  0
 19 21  1  0
 19 22  1  0
 13 23  1  0
 10 24  1  0
 23 24  1  0
  7 25  1  0
  4 26  1  0
 25 26  1  0
M  END
