piperidine-amides-23688-covalent
     RDKit          3D

 23 24  0  0  0  0  0  0  0  0999 V2000
    7.0390   -3.3790   19.3690 C   0  0  0  0  0  0  0  0  0  0  0  0
    6.3860   -4.2750   20.3400 C   0  0  0  0  0  0  0  0  0  0  0  0
    5.3370   -4.8440   19.9670 O   0  0  0  0  0  0  0  0  0  0  0  0
    6.9580   -4.5260   21.6100 N   0  0  0  0  0  0  0  0  0  0  0  0
    6.4590   -5.5870   22.4020 C   0  0  0  0  0  0  0  0  0  0  0  0
    5.9970   -5.1450   23.7190 C   0  0  0  0  0  0  0  0  0  0  0  0
    5.8100   -3.6790   23.8670 C   0  0  0  0  0  0  0  0  0  0  0  0
    5.4620   -3.2340   25.2570 C   0  0  0  0  0  0  0  0  0  0  0  0
    4.3670   -2.6610   25.3890 O   0  0  0  0  0  0  0  0  0  0  0  0
    6.2110   -3.4010   26.4420 N   0  0  0  0  0  0  0  0  0  0  0  0
    5.6310   -3.5480   27.7090 C   0  0  0  0  0  0  0  0  0  0  0  0
    6.0150   -4.7270   28.4320 C   0  0  0  0  0  0  0  0  0  0  0  0
    7.5190   -4.8910   28.1450 C   0  0  0  0  0  0  0  0  0  0  0  0
    8.2340   -3.8460   28.6530 F   0  0  0  0  0  0  0  0  0  0  0  0
    7.8490   -5.9990   28.8450 F   0  0  0  0  0  0  0  0  0  0  0  0
    7.8400   -5.1620   26.8300 C   0  0  0  0  0  0  0  0  0  0  0  0
    7.6630   -3.6670   26.4970 C   0  0  1  0  0  0  0  0  0  0  0  0
    8.3130   -3.8090   25.1440 C   0  0  0  0  0  0  0  0  0  0  0  0
    8.2460   -5.0900   24.5980 O   0  0  0  0  0  0  0  0  0  0  0  0
    8.9620   -2.7340   24.5020 O   0  0  0  0  0  0  0  0  0  0  0  0
    9.3110   -2.7580   23.1170 C   0  0  0  0  0  0  0  0  0  0  0  0
    6.8180   -2.7560   23.2250 C   0  0  0  0  0  0  0  0  0  0  0  0
    7.7220   -3.5050   22.2730 C   0  0  0  0  0  0  0  0  0  0  0  0
  1  2  1  0
  2  3  2  0
  2  4  1  0
  4  5  1  0
  5  6  1  0
  6  7  1  0
  7  8  1  0
  8  9  2  0
  8 10  1  0
 10 11  1  0
 11 12  1  0
 12 13  1  0
 13 14  1  0
 13 15  1  0
 13 16  1  0
 10 17  1  0
 16 17  1  0
 17 18  1  6
 18 19  2  0
 18 20  1  0
 20 21  1  0
  7 22  1  0
  4 23  1  0
 22 23  1  0
M  END
