piperidine-amides-24988-covalent
     RDKit          3D

 24 25  0  0  0  0  0  0  0  0999 V2000
    7.0500   -3.3530   19.4110 C   0  0  0  0  0  0  0  0  0  0  0  0
    6.3990   -4.2630   20.3650 C   0  0  0  0  0  0  0  0  0  0  0  0
    5.3930   -4.9150   20.0000 O   0  0  0  0  0  0  0  0  0  0  0  0
    6.9170   -4.4560   21.6610 N   0  0  0  0  0  0  0  0  0  0  0  0
    6.5440   -5.6180   22.4150 C   0  0  0  0  0  0  0  0  0  0  0  0
    5.6240   -5.1140   23.5350 C   0  0  0  0  0  0  0  0  0  0  0  0
    6.3490   -4.0050   24.2860 C   0  0  0  0  0  0  0  0  0  0  0  0
    5.4340   -3.3780   25.2870 C   0  0  0  0  0  0  0  0  0  0  0  0
    4.7040   -2.4720   24.8500 O   0  0  0  0  0  0  0  0  0  0  0  0
    5.3220   -3.7310   26.6750 N   0  0  0  0  0  0  0  0  0  0  0  0
    6.3700   -3.4380   27.5460 C   0  0  0  0  0  0  0  0  0  0  0  0
    6.6150   -4.6910   28.3630 C   0  0  0  0  0  0  0  0  0  0  0  0
    5.4010   -5.0160   29.0690 N   0  0  0  0  0  0  0  0  0  0  0  0
    5.1870   -6.3590   29.5930 C   0  0  0  0  0  0  0  0  0  0  0  0
    6.3610   -6.8710   29.1700 C   0  0  0  0  0  0  0  0  0  0  0  0
    4.0640   -7.0150   29.1820 C   0  0  0  0  0  0  0  0  0  0  0  0
    4.9920   -6.3370   30.9780 C   0  0  0  0  0  0  0  0  0  0  0  0
    3.8140   -5.7130   31.2160 O   0  0  0  0  0  0  0  0  0  0  0  0
    5.8990   -6.8730   31.8830 O   0  0  0  0  0  0  0  0  0  0  0  0
    5.5010   -7.8970   32.7870 C   0  0  0  0  0  0  0  0  0  0  0  0
    4.3160   -4.1270   28.9200 C   0  0  0  0  0  0  0  0  0  0  0  0
    4.5790   -3.1690   27.7800 C   0  0  0  0  0  0  0  0  0  0  0  0
    6.8110   -2.9100   23.3380 C   0  0  0  0  0  0  0  0  0  0  0  0
    7.6650   -3.4370   22.3610 C   0  0  0  0  0  0  0  0  0  0  0  0
  1  2  1  0
  2  3  2  0
  2  4  1  0
  4  5  1  0
  5  6  1  0
  6  7  1  0
  7  8  1  0
  8  9  2  0
  8 10  1  0
 10 11  1  0
 11 12  1  0
 12 13  1  0
 13 14  1  0
 14 15  1  0
 14 16  1  0
 14 17  1  0
 17 18  2  0
 17 19  1  0
 19 20  1  0
 13 21  1  0
 10 22  1  0
 21 22  1  0
  7 23  1  0
  4 24  1  0
 23 24  1  0
M  END
