piperidine-amides-5595-covalent
     RDKit          3D

 19 20  0  0  0  0  0  0  0  0999 V2000
    7.1040   -3.2800   19.2260 C   0  0  0  0  0  0  0  0  0  0  0  0
    6.3670   -4.0190   20.2570 C   0  0  0  0  0  0  0  0  0  0  0  0
    5.3480   -4.6520   19.9310 O   0  0  0  0  0  0  0  0  0  0  0  0
    6.8200   -4.0630   21.5920 N   0  0  0  0  0  0  0  0  0  0  0  0
    7.7620   -3.0840   22.1070 C   0  0  0  0  0  0  0  0  0  0  0  0
    7.4420   -2.9110   23.5620 C   0  0  0  0  0  0  0  0  0  0  0  0
    6.0920   -3.4740   23.8690 C   0  0  0  0  0  0  0  0  0  0  0  0
    5.5890   -3.1420   25.2190 C   0  0  0  0  0  0  0  0  0  0  0  0
    4.3570   -2.9040   25.3910 O   0  0  0  0  0  0  0  0  0  0  0  0
    6.4070   -3.0690   26.3650 N   0  0  0  0  0  0  0  0  0  0  0  0
    6.0260   -3.8190   27.5810 C   0  0  0  0  0  0  0  0  0  0  0  0
    5.6000   -5.1700   27.1470 C   0  0  2  0  0  0  0  0  0  0  0  0
    4.2810   -5.6250   27.6580 C   0  0  0  0  0  0  0  0  0  0  0  0
    4.2380   -5.9480   29.1370 C   0  0  0  0  0  0  0  0  0  0  0  0
    5.3960   -6.8230   29.5720 C   0  0  0  0  0  0  0  0  0  0  0  0
    6.5490   -6.3090   28.8140 C   0  0  0  0  0  0  0  0  0  0  0  0
    6.3490   -6.1090   27.4860 O   0  0  0  0  0  0  0  0  0  0  0  0
    6.1120   -4.9660   23.6160 C   0  0  0  0  0  0  0  0  0  0  0  0
    6.5990   -5.2870   22.3370 C   0  0  0  0  0  0  0  0  0  0  0  0
  1  2  1  0
  2  3  2  0
  2  4  1  0
  4  5  1  0
  5  6  1  0
  6  7  1  0
  7  8  1  0
  8  9  2  0
  8 10  1  0
 10 11  1  0
 12 11  1  1
 12 13  1  0
 13 14  1  0
 14 15  1  0
 15 16  1  0
 12 17  1  0
 16 17  1  0
  7 18  1  0
  4 19  1  0
 18 19  1  0
M  END
