piperidine-amides-23423-covalent
     RDKit          3D

 24 25  0  0  0  0  0  0  0  0999 V2000
    7.0340   -3.2530   19.2550 C   0  0  0  0  0  0  0  0  0  0  0  0
    6.3070   -4.0430   20.2650 C   0  0  0  0  0  0  0  0  0  0  0  0
    5.2460   -4.5890   19.8860 O   0  0  0  0  0  0  0  0  0  0  0  0
    6.7850   -4.2330   21.5820 N   0  0  0  0  0  0  0  0  0  0  0  0
    6.2430   -5.3150   22.3380 C   0  0  0  0  0  0  0  0  0  0  0  0
    5.9930   -5.0280   23.7490 C   0  0  0  0  0  0  0  0  0  0  0  0
    6.6430   -3.8200   24.2950 C   0  0  0  0  0  0  0  0  0  0  0  0
    5.8220   -3.2570   25.4350 C   0  0  0  0  0  0  0  0  0  0  0  0
    4.6220   -2.9810   25.2350 O   0  0  0  0  0  0  0  0  0  0  0  0
    6.3580   -3.0580   26.7330 N   0  0  0  0  0  0  0  0  0  0  0  0
    6.4090   -4.0860   27.7130 C   0  0  0  0  0  0  0  0  0  0  0  0
    6.5280   -5.4890   27.3430 C   0  0  0  0  0  0  0  0  0  0  0  0
    5.2650   -6.3640   27.4250 C   0  0  0  0  0  0  0  0  0  0  0  0
    6.3530   -1.7260   27.3190 C   0  0  0  0  0  0  0  0  0  0  0  0
    6.2530   -0.5160   26.3770 C   0  0  0  0  0  0  0  0  0  0  0  0
    6.2710   -1.1910   25.0610 C   0  0  0  0  0  0  0  0  0  0  0  0
    6.1800   -0.0620   24.0200 C   0  0  0  0  0  0  0  0  0  0  0  0
    6.0930    1.4350   24.2100 C   0  0  0  0  0  0  0  0  0  0  0  0
    6.0930    1.8850   25.6580 C   0  0  0  0  0  0  0  0  0  0  0  0
    6.0330    3.0950   25.9770 O   0  0  0  0  0  0  0  0  0  0  0  0
    7.2160    3.6770   26.4860 C   0  0  0  0  0  0  0  0  0  0  0  0
    6.1740    0.8400   26.7340 C   0  0  0  0  0  0  0  0  0  0  0  0
    6.8960   -2.7660   23.2560 C   0  0  0  0  0  0  0  0  0  0  0  0
    7.6360   -3.2560   22.2110 C   0  0  0  0  0  0  0  0  0  0  0  0
  1  2  1  0
  2  3  2  0
  2  4  1  0
  4  5  1  0
  5  6  1  0
  6  7  1  0
  7  8  1  0
  8  9  2  0
  8 10  1  0
 10 11  1  0
 11 12  1  0
 12 13  2  3
 10 14  1  0
 14 15  1  0
 15 16  2  0
 16 17  1  0
 17 18  2  0
 18 19  1  0
 19 20  1  0
 20 21  1  0
 15 22  1  0
 19 22  2  0
  7 23  1  0
  4 24  1  0
 23 24  1  0
M  END
