piperidine-amides-2870-covalent
     RDKit          3D

 24 26  0  0  0  0  0  0  0  0999 V2000
    7.0290   -3.3470   19.3280 C   0  0  0  0  0  0  0  0  0  0  0  0
    6.3520   -4.1710   20.3290 C   0  0  0  0  0  0  0  0  0  0  0  0
    5.3850   -4.8480   19.9850 O   0  0  0  0  0  0  0  0  0  0  0  0
    6.8250   -4.2320   21.6910 N   0  0  0  0  0  0  0  0  0  0  0  0
    7.7080   -3.2010   22.1960 C   0  0  0  0  0  0  0  0  0  0  0  0
    7.4400   -2.9790   23.6510 C   0  0  0  0  0  0  0  0  0  0  0  0
    6.1150   -3.6500   23.9360 C   0  0  0  0  0  0  0  0  0  0  0  0
    5.6310   -3.2750   25.2980 C   0  0  0  0  0  0  0  0  0  0  0  0
    4.4230   -3.3220   25.6180 O   0  0  0  0  0  0  0  0  0  0  0  0
    6.5750   -2.8380   26.2560 N   0  0  0  0  0  0  0  0  0  0  0  0
    6.3990   -1.5620   26.9250 C   0  0  0  0  0  0  0  0  0  0  0  0
    7.0110   -1.5660   28.2940 C   0  0  0  0  0  0  0  0  0  0  0  0
    6.9540   -0.4480   29.0950 C   0  0  0  0  0  0  0  0  0  0  0  0
    6.3110    0.7190   28.6350 C   0  0  0  0  0  0  0  0  0  0  0  0
    5.7180    0.7930   27.3780 C   0  0  0  0  0  0  0  0  0  0  0  0
    5.0600    1.9930   26.9420 N   0  0  0  0  0  0  0  0  0  0  0  0
    3.5730    2.1030   26.9680 C   0  0  0  0  0  0  0  0  0  0  0  0
    3.2030    2.3550   25.6310 C   0  0  0  0  0  0  0  0  0  0  0  0
    4.2710    2.4000   24.9470 O   0  0  0  0  0  0  0  0  0  0  0  0
    5.4640    2.2150   25.5830 C   0  0  0  0  0  0  0  0  0  0  0  0
    6.5850    2.2600   25.0190 O   0  0  0  0  0  0  0  0  0  0  0  0
    5.7910   -0.4280   26.5130 C   0  0  0  0  0  0  0  0  0  0  0  0
    6.0740   -5.0890   23.7070 C   0  0  0  0  0  0  0  0  0  0  0  0
    6.6600   -5.4260   22.4900 C   0  0  0  0  0  0  0  0  0  0  0  0
  1  2  1  0
  2  3  2  0
  2  4  1  0
  4  5  1  0
  5  6  1  0
  6  7  1  0
  7  8  1  0
  8  9  2  0
  8 10  1  0
 10 11  1  0
 11 12  2  0
 12 13  1  0
 13 14  2  0
 14 15  1  0
 15 16  1  0
 16 17  1  0
 17 18  1  0
 18 19  1  0
 16 20  1  0
 19 20  1  0
 20 21  2  0
 11 22  1  0
 15 22  2  0
  7 23  1  0
  4 24  1  0
 23 24  1  0
M  END
