piperidine-amides-11420-covalent
     RDKit          3D

 24 26  0  0  0  0  0  0  0  0999 V2000
    7.0860   -3.3820   19.3800 C   0  0  0  0  0  0  0  0  0  0  0  0
    6.3930   -4.1930   20.3770 C   0  0  0  0  0  0  0  0  0  0  0  0
    5.4330   -4.9000   20.0070 O   0  0  0  0  0  0  0  0  0  0  0  0
    6.8420   -4.2090   21.7160 N   0  0  0  0  0  0  0  0  0  0  0  0
    7.7190   -3.2140   22.2610 C   0  0  0  0  0  0  0  0  0  0  0  0
    7.0810   -2.7790   23.5550 C   0  0  0  0  0  0  0  0  0  0  0  0
    6.3520   -3.8560   24.3290 C   0  0  0  0  0  0  0  0  0  0  0  0
    5.3110   -3.2460   25.2190 C   0  0  0  0  0  0  0  0  0  0  0  0
    4.1390   -3.1220   24.7670 O   0  0  0  0  0  0  0  0  0  0  0  0
    5.4940   -2.7860   26.5540 N   0  0  0  0  0  0  0  0  0  0  0  0
    6.2170   -1.5280   26.8770 C   0  0  2  0  0  0  0  0  0  0  0  0
    7.0480   -1.9000   28.0120 C   0  0  1  0  0  0  0  0  0  0  0  0
    8.4230   -1.8900   27.6250 C   0  0  0  0  0  0  0  0  0  0  0  0
    8.6400   -2.0990   26.1890 N   0  0  0  0  0  0  0  0  0  0  0  0
    6.9400   -0.9040   29.1490 C   0  0  0  0  0  0  0  0  0  0  0  0
    6.0350    0.1960   28.6200 C   0  0  0  0  0  0  0  0  0  0  0  0
    5.4110   -0.4080   27.4140 C   0  0  0  0  0  0  0  0  0  0  0  0
    4.1000   -0.8210   27.5680 C   0  0  0  0  0  0  0  0  0  0  0  0
    3.1290    0.1790   27.7120 C   0  0  0  0  0  0  0  0  0  0  0  0
    3.0520    0.8250   26.4870 O   0  0  0  0  0  0  0  0  0  0  0  0
    4.1260    0.6210   25.6010 C   0  0  0  0  0  0  0  0  0  0  0  0
    5.3850    0.7930   26.4660 C   0  0  0  0  0  0  0  0  0  0  0  0
    5.6670   -4.8900   23.3770 C   0  0  0  0  0  0  0  0  0  0  0  0
    6.4680   -5.3100   22.5760 C   0  0  0  0  0  0  0  0  0  0  0  0
  1  2  1  0
  2  3  2  0
  2  4  1  0
  4  5  1  0
  5  6  1  0
  6  7  1  0
  7  8  1  0
  8  9  2  0
  8 10  1  0
 11 10  1  1
 11 12  1  0
 12 13  1  6
 13 14  3  0
 12 15  1  0
 15 16  1  0
 11 17  1  0
 17 16  1  0
 17 18  1  0
 18 19  1  0
 19 20  1  0
 20 21  1  0
 17 22  1  0
 21 22  1  0
  7 23  1  0
  4 24  1  0
 23 24  1  0
M  END
