piperidine-amides-24257-covalent
     RDKit          3D

 23 25  0  0  0  0  0  0  0  0999 V2000
    7.0410   -3.3920   19.4390 C   0  0  0  0  0  0  0  0  0  0  0  0
    6.3720   -4.2890   20.3930 C   0  0  0  0  0  0  0  0  0  0  0  0
    5.3730   -4.9320   20.0050 O   0  0  0  0  0  0  0  0  0  0  0  0
    6.8540   -4.4910   21.7060 N   0  0  0  0  0  0  0  0  0  0  0  0
    6.3530   -5.6220   22.4280 C   0  0  0  0  0  0  0  0  0  0  0  0
    5.4310   -5.0170   23.4940 C   0  0  0  0  0  0  0  0  0  0  0  0
    6.2910   -4.1450   24.3920 C   0  0  0  0  0  0  0  0  0  0  0  0
    5.4200   -3.4760   25.4240 C   0  0  0  0  0  0  0  0  0  0  0  0
    4.7710   -2.5010   25.0010 O   0  0  0  0  0  0  0  0  0  0  0  0
    5.2390   -3.8450   26.8350 N   0  0  0  0  0  0  0  0  0  0  0  0
    6.3600   -3.8510   27.7260 C   0  0  0  0  0  0  0  0  0  0  0  0
    6.6500   -5.2400   28.3420 C   0  0  0  0  0  0  0  0  0  0  0  0
    5.6960   -5.8930   29.0040 C   0  0  0  0  0  0  0  0  0  0  0  0
    4.4480   -5.5150   28.6450 C   0  0  0  0  0  0  0  0  0  0  0  0
    4.1990   -4.1470   28.4830 C   0  0  0  0  0  0  0  0  0  0  0  0
    3.6160   -3.0990   28.9650 C   0  0  0  0  0  0  0  0  0  0  0  0
    4.0140   -1.9180   27.9080 C   0  0  0  0  0  0  0  0  0  0  0  0
    4.3230   -3.4010   27.9930 C   0  0  0  0  0  0  0  0  0  0  0  0
    5.2350   -4.5820   27.0080 Cl  0  0  0  0  0  0  0  0  0  0  0  0
    3.5950   -3.3930   29.1060 C   0  0  0  0  0  0  0  0  0  0  0  0
    4.4090   -3.0870   27.7430 C   0  0  0  0  0  0  0  0  0  0  0  0
    6.9390   -3.0310   23.5730 C   0  0  0  0  0  0  0  0  0  0  0  0
    7.5450   -3.4540   22.4050 C   0  0  0  0  0  0  0  0  0  0  0  0
  1  2  1  0
  2  3  2  0
  2  4  1  0
  4  5  1  0
  5  6  1  0
  6  7  1  0
  7  8  1  0
  8  9  2  0
  8 10  1  0
 10 11  1  0
 11 12  1  0
 12 13  1  0
 13 14  1  0
 14 15  1  0
 15 16  1  0
 16 17  2  0
 17 18  1  0
 18 19  1  0
 18 20  2  0
 10 21  1  0
 15 21  2  0
 20 21  1  0
  7 22  1  0
  4 23  1  0
 22 23  1  0
M  END
