piperidine-amides-30856-covalent
     RDKit          3D

 23 24  0  0  0  0  0  0  0  0999 V2000
    7.1500   -3.2980   19.2560 C   0  0  0  0  0  0  0  0  0  0  0  0
    6.3520   -4.0420   20.2240 C   0  0  0  0  0  0  0  0  0  0  0  0
    5.2580   -4.5120   19.8730 O   0  0  0  0  0  0  0  0  0  0  0  0
    6.8260   -4.3010   21.5200 N   0  0  0  0  0  0  0  0  0  0  0  0
    6.5130   -5.5030   22.2340 C   0  0  0  0  0  0  0  0  0  0  0  0
    5.8470   -5.0100   23.4850 C   0  0  0  0  0  0  0  0  0  0  0  0
    6.5620   -3.8290   24.0890 C   0  0  0  0  0  0  0  0  0  0  0  0
    5.8100   -3.2670   25.2270 C   0  0  0  0  0  0  0  0  0  0  0  0
    4.6320   -2.8370   25.0570 O   0  0  0  0  0  0  0  0  0  0  0  0
    6.3170   -3.1990   26.5370 N   0  0  0  0  0  0  0  0  0  0  0  0
    6.6350   -1.8470   27.0700 C   0  0  0  0  0  0  0  0  0  0  0  0
    5.4310   -1.2750   27.6990 C   0  0  0  0  0  0  0  0  0  0  0  0
    4.8800   -1.9150   28.8950 C   0  0  0  0  0  0  0  0  0  0  0  0
    3.6610   -1.3250   29.5260 C   0  0  0  0  0  0  0  0  0  0  0  0
    3.0180   -0.0880   28.9310 C   0  0  0  0  0  0  0  0  0  0  0  0
    1.4530    0.7390   29.6770 Br  0  0  0  0  0  0  0  0  0  0  0  0
    3.7320    0.4110   27.7140 C   0  0  0  0  0  0  0  0  0  0  0  0
    4.8570   -0.1590   27.1570 C   0  0  0  0  0  0  0  0  0  0  0  0
    6.0400   -4.2420   27.4720 C   0  0  0  0  0  0  0  0  0  0  0  0
    6.7850   -4.2330   28.7610 C   0  0  0  0  0  0  0  0  0  0  0  0
    5.9670   -5.6510   26.9790 C   0  0  0  0  0  0  0  0  0  0  0  0
    6.8270   -2.7710   23.0060 C   0  0  0  0  0  0  0  0  0  0  0  0
    7.5740   -3.2400   22.1930 C   0  0  0  0  0  0  0  0  0  0  0  0
  1  2  1  0
  2  3  2  0
  2  4  1  0
  4  5  1  0
  5  6  1  0
  6  7  1  0
  7  8  1  0
  8  9  2  0
  8 10  1  0
 10 11  1  0
 11 12  1  0
 12 13  2  0
 13 14  1  0
 14 15  2  0
 15 16  1  0
 15 17  1  0
 12 18  1  0
 17 18  2  0
 10 19  1  0
 19 20  1  0
 19 21  1  0
  7 22  1  0
  4 23  1  0
 22 23  1  0
M  END
