piperidine-amides-8673-covalent
     RDKit          3D

 23 25  0  0  0  0  0  0  0  0999 V2000
    7.0730   -3.3580   19.3260 C   0  0  0  0  0  0  0  0  0  0  0  0
    6.4260   -4.2120   20.3140 C   0  0  0  0  0  0  0  0  0  0  0  0
    5.3850   -4.8080   19.9760 O   0  0  0  0  0  0  0  0  0  0  0  0
    7.0190   -4.3850   21.5930 N   0  0  0  0  0  0  0  0  0  0  0  0
    7.6510   -3.2540   22.1940 C   0  0  0  0  0  0  0  0  0  0  0  0
    6.7260   -2.7050   23.2330 C   0  0  0  0  0  0  0  0  0  0  0  0
    6.5540   -3.7870   24.2740 C   0  0  0  0  0  0  0  0  0  0  0  0
    5.7310   -3.2620   25.4160 C   0  0  0  0  0  0  0  0  0  0  0  0
    4.5160   -3.2370   25.2320 O   0  0  0  0  0  0  0  0  0  0  0  0
    6.3660   -2.8500   26.5830 N   0  0  0  0  0  0  0  0  0  0  0  0
    6.6190   -1.4710   26.8740 C   0  0  1  0  0  0  0  0  0  0  0  0
    5.4950   -0.6120   26.8750 C   0  0  0  0  0  0  0  0  0  0  0  0
    5.6930    0.6980   27.1910 C   0  0  0  0  0  0  0  0  0  0  0  0
    6.0990    0.8490   28.4570 C   0  0  0  0  0  0  0  0  0  0  0  0
    6.2370   -0.3910   29.0610 N   0  0  0  0  0  0  0  0  0  0  0  0
    5.9660   -0.4930   30.4950 C   0  0  0  0  0  0  0  0  0  0  0  0
    7.1920    0.0630   31.2210 C   0  0  0  0  0  0  0  0  0  0  0  0
    6.7930    0.6090   32.5330 C   0  0  0  0  0  0  0  0  0  0  0  0
    5.2850    0.5500   32.5290 C   0  0  0  0  0  0  0  0  0  0  0  0
    4.8230    0.1150   31.0990 C   0  0  0  0  0  0  0  0  0  0  0  0
    7.0050   -1.4290   28.3860 C   0  0  0  0  0  0  0  0  0  0  0  0
    5.8130   -4.9300   23.6400 C   0  0  0  0  0  0  0  0  0  0  0  0
    6.4810   -5.4520   22.3930 C   0  0  0  0  0  0  0  0  0  0  0  0
  1  2  1  0
  2  3  2  0
  2  4  1  0
  4  5  1  0
  5  6  1  0
  6  7  1  0
  7  8  1  0
  8  9  2  0
  8 10  1  0
 11 10  1  1
 11 12  1  0
 12 13  1  0
 13 14  1  0
 14 15  1  0
 15 16  1  0
 16 17  1  0
 17 18  1  0
 18 19  1  0
 16 20  1  0
 19 20  1  0
 11 21  1  0
 15 21  1  0
  7 22  1  0
  4 23  1  0
 22 23  1  0
M  END
