piperidine-amides-25974-covalent
     RDKit          3D

 23 24  0  0  0  0  0  0  0  0999 V2000
    7.0430   -3.3390   19.3160 C   0  0  0  0  0  0  0  0  0  0  0  0
    6.3610   -4.1590   20.3170 C   0  0  0  0  0  0  0  0  0  0  0  0
    5.3710   -4.8240   19.9760 O   0  0  0  0  0  0  0  0  0  0  0  0
    6.8330   -4.2420   21.6380 N   0  0  0  0  0  0  0  0  0  0  0  0
    7.6880   -3.2470   22.2400 C   0  0  0  0  0  0  0  0  0  0  0  0
    6.9480   -2.7680   23.4560 C   0  0  0  0  0  0  0  0  0  0  0  0
    6.5880   -3.9000   24.3740 C   0  0  0  0  0  0  0  0  0  0  0  0
    5.7890   -3.4250   25.5360 C   0  0  0  0  0  0  0  0  0  0  0  0
    4.5190   -3.3410   25.4810 O   0  0  0  0  0  0  0  0  0  0  0  0
    6.3760   -3.0420   26.7650 N   0  0  0  0  0  0  0  0  0  0  0  0
    6.6850   -4.0820   27.7830 C   0  0  0  0  0  0  0  0  0  0  0  0
    6.6900   -1.6110   27.0520 C   0  0  0  0  0  0  0  0  0  0  0  0
    7.2540   -1.5540   28.4240 C   0  0  0  0  0  0  0  0  0  0  0  0
    6.4690   -0.7460   29.4050 C   0  0  0  0  0  0  0  0  0  0  0  0
    5.6900    0.2650   28.7850 N   0  0  0  0  0  0  0  0  0  0  0  0
    6.0200    1.5530   29.6210 S   0  0  0  0  0  0  0  0  0  0  0  0
    5.4720    1.3010   31.2830 C   0  0  0  0  0  0  0  0  0  0  0  0
    5.3320    2.7230   29.0360 O   0  0  0  0  0  0  0  0  0  0  0  0
    7.5230    1.7430   29.6470 O   0  0  0  0  0  0  0  0  0  0  0  0
    5.7480    0.4760   27.3550 C   0  0  0  0  0  0  0  0  0  0  0  0
    5.6820   -0.7380   26.7040 C   0  0  0  0  0  0  0  0  0  0  0  0
    5.8140   -4.9800   23.6430 C   0  0  0  0  0  0  0  0  0  0  0  0
    6.5900   -5.4320   22.4220 C   0  0  0  0  0  0  0  0  0  0  0  0
  1  2  1  0
  2  3  2  0
  2  4  1  0
  4  5  1  0
  5  6  1  0
  6  7  1  0
  7  8  1  0
  8  9  2  0
  8 10  1  0
 10 11  1  0
 10 12  1  0
 12 13  1  0
 13 14  1  0
 14 15  1  0
 15 16  1  0
 16 17  1  0
 16 18  2  0
 16 19  2  0
 15 20  1  0
 12 21  1  0
 20 21  1  0
  7 22  1  0
  4 23  1  0
 22 23  1  0
M  END
