piperidine-amides-33853-covalent
     RDKit          3D

 30 33  0  0  0  0  0  0  0  0999 V2000
    7.0790   -3.3620   19.3540 C   0  0  0  0  0  0  0  0  0  0  0  0
    6.4720   -4.2490   20.3570 C   0  0  0  0  0  0  0  0  0  0  0  0
    5.4370   -4.8690   19.9980 O   0  0  0  0  0  0  0  0  0  0  0  0
    7.0700   -4.4350   21.6350 N   0  0  0  0  0  0  0  0  0  0  0  0
    6.6650   -5.5730   22.3940 C   0  0  0  0  0  0  0  0  0  0  0  0
    6.1340   -5.2000   23.7000 C   0  0  0  0  0  0  0  0  0  0  0  0
    6.0230   -3.7400   23.8370 C   0  0  0  0  0  0  0  0  0  0  0  0
    5.1810   -3.2740   24.9850 C   0  0  0  0  0  0  0  0  0  0  0  0
    4.2050   -2.5580   24.7280 O   0  0  0  0  0  0  0  0  0  0  0  0
    5.3840   -3.5830   26.3250 N   0  0  0  0  0  0  0  0  0  0  0  0
    6.4560   -3.1410   27.0560 C   0  0  0  0  0  0  0  0  0  0  0  0
    6.7820   -3.8600   28.2800 C   0  0  0  0  0  0  0  0  0  0  0  0
    5.5010   -3.9550   29.0260 C   0  0  0  0  0  0  0  0  0  0  0  0
    5.0890   -2.6880   29.4580 C   0  0  0  0  0  0  0  0  0  0  0  0
    4.2550   -2.3090   30.5460 N   0  0  0  0  0  0  0  0  0  0  0  0
    4.1760   -0.9160   30.5180 C   0  0  0  0  0  0  0  0  0  0  0  0
    5.0000   -0.5360   29.3650 C   0  0  0  0  0  0  0  0  0  0  0  0
    4.9550    0.9940   29.2700 C   0  0  0  0  0  0  0  0  0  0  0  0
    4.9420    1.8180   30.5320 C   0  0  0  0  0  0  0  0  0  0  0  0
    4.9000    3.3110   30.3980 C   0  0  0  0  0  0  0  0  0  0  0  0
    4.8700    3.9770   29.0310 C   0  0  0  0  0  0  0  0  0  0  0  0
    4.8290    5.3590   29.0000 F   0  0  0  0  0  0  0  0  0  0  0  0
    4.8880    3.0190   27.8870 C   0  0  0  0  0  0  0  0  0  0  0  0
    4.8590    3.6930   26.6610 F   0  0  0  0  0  0  0  0  0  0  0  0
    4.9280    1.6110   27.9920 C   0  0  0  0  0  0  0  0  0  0  0  0
    5.5340   -1.6040   28.7490 N   0  0  0  0  0  0  0  0  0  0  0  0
    4.5280   -4.5470   28.3220 C   0  0  0  0  0  0  0  0  0  0  0  0
    4.2070   -3.7020   27.1290 C   0  0  0  0  0  0  0  0  0  0  0  0
    7.3630   -3.1000   23.6820 C   0  0  0  0  0  0  0  0  0  0  0  0
    7.7810   -3.3300   22.2410 C   0  0  0  0  0  0  0  0  0  0  0  0
  1  2  1  0
  2  3  2  0
  2  4  1  0
  4  5  1  0
  5  6  1  0
  6  7  1  0
  7  8  1  0
  8  9  2  0
  8 10  1  0
 10 11  1  0
 11 12  1  0
 12 13  1  0
 13 14  1  0
 14 15  2  0
 15 16  1  0
 16 17  2  0
 17 18  1  0
 18 19  2  0
 19 20  1  0
 20 21  2  0
 21 22  1  0
 21 23  1  0
 23 24  1  0
 18 25  1  0
 23 25  2  0
 14 26  1  0
 17 26  1  0
 13 27  1  0
 10 28  1  0
 27 28  1  0
  7 29  1  0
  4 30  1  0
 29 30  1  0
M  END
