piperidine-amides-24353-covalent
     RDKit          3D

 24 26  0  0  0  0  0  0  0  0999 V2000
    7.0920   -3.2960   19.2720 C   0  0  0  0  0  0  0  0  0  0  0  0
    6.3960   -4.1090   20.2730 C   0  0  0  0  0  0  0  0  0  0  0  0
    5.3610   -4.7410   19.9560 O   0  0  0  0  0  0  0  0  0  0  0  0
    6.9010   -4.2480   21.5730 N   0  0  0  0  0  0  0  0  0  0  0  0
    6.6100   -5.4880   22.2440 C   0  0  0  0  0  0  0  0  0  0  0  0
    6.3140   -5.1690   23.7130 C   0  0  0  0  0  0  0  0  0  0  0  0
    6.1410   -3.6680   23.8370 C   0  0  0  0  0  0  0  0  0  0  0  0
    5.5500   -3.2700   25.1490 C   0  0  0  0  0  0  0  0  0  0  0  0
    4.3000   -3.2640   25.1730 O   0  0  0  0  0  0  0  0  0  0  0  0
    6.2350   -2.8950   26.3510 N   0  0  0  0  0  0  0  0  0  0  0  0
    7.6440   -3.1180   26.5890 C   0  0  0  0  0  0  0  0  0  0  0  0
    7.9140   -3.6500   27.9990 C   0  0  0  0  0  0  0  0  0  0  0  0
    6.9520   -4.0790   28.8530 C   0  0  0  0  0  0  0  0  0  0  0  0
    5.8660   -4.6460   28.3680 C   0  0  2  0  0  0  0  0  0  0  0  0
    6.3450   -5.5560   27.4370 N   0  0  0  0  0  0  0  0  0  0  0  0
    6.4900   -5.3620   26.1350 C   0  0  0  0  0  0  0  0  0  0  0  0
    7.8500   -5.4840   25.9590 C   0  0  0  0  0  0  0  0  0  0  0  0
    8.8380   -6.0500   26.9910 C   0  0  0  0  0  0  0  0  0  0  0  0
    7.5090   -6.2500   27.7360 C   0  0  0  0  0  0  0  0  0  0  0  0
    7.5550   -7.0700   28.6580 O   0  0  0  0  0  0  0  0  0  0  0  0
    5.0110   -3.6510   28.1170 C   0  0  0  0  0  0  0  0  0  0  0  0
    5.6070   -2.4450   27.5710 C   0  0  0  0  0  0  0  0  0  0  0  0
    7.4310   -3.0060   23.4980 C   0  0  0  0  0  0  0  0  0  0  0  0
    7.6740   -3.1880   22.1700 C   0  0  0  0  0  0  0  0  0  0  0  0
  1  2  1  0
  2  3  2  0
  2  4  1  0
  4  5  1  0
  5  6  1  0
  6  7  1  0
  7  8  1  0
  8  9  2  0
  8 10  1  0
 10 11  1  0
 11 12  1  0
 12 13  1  0
 13 14  1  0
 14 15  1  6
 15 16  1  0
 16 17  1  0
 17 18  1  0
 15 19  1  0
 18 19  1  0
 19 20  2  0
 14 21  1  0
 10 22  1  0
 21 22  1  0
  7 23  1  0
  4 24  1  0
 23 24  1  0
M  END
