piperidine-amides-12138-covalent
     RDKit          3D

 25 27  0  0  0  0  0  0  0  0999 V2000
    7.0940   -3.3490   19.2730 C   0  0  0  0  0  0  0  0  0  0  0  0
    6.3500   -4.1320   20.2470 C   0  0  0  0  0  0  0  0  0  0  0  0
    5.2930   -4.6710   19.9280 O   0  0  0  0  0  0  0  0  0  0  0  0
    6.8890   -4.3260   21.5560 N   0  0  0  0  0  0  0  0  0  0  0  0
    6.4810   -5.4570   22.3400 C   0  0  0  0  0  0  0  0  0  0  0  0
    5.7000   -4.9830   23.5350 C   0  0  0  0  0  0  0  0  0  0  0  0
    6.5280   -3.9140   24.2300 C   0  0  0  0  0  0  0  0  0  0  0  0
    5.7940   -3.3370   25.3870 C   0  0  0  0  0  0  0  0  0  0  0  0
    4.5470   -3.3750   25.5110 O   0  0  0  0  0  0  0  0  0  0  0  0
    6.5930   -2.7030   26.3670 N   0  0  0  0  0  0  0  0  0  0  0  0
    6.0080   -1.6960   27.2180 C   0  0  0  0  0  0  0  0  0  0  0  0
    4.8090   -2.4110   27.7820 C   0  0  0  0  0  0  0  0  0  0  0  0
    3.4750   -2.0200   27.5720 C   0  0  0  0  0  0  0  0  0  0  0  0
    2.3800   -2.7120   28.1250 C   0  0  0  0  0  0  0  0  0  0  0  0
    2.5060   -3.8250   28.9130 C   0  0  0  0  0  0  0  0  0  0  0  0
    1.5340   -4.4260   29.3970 O   0  0  0  0  0  0  0  0  0  0  0  0
    1.2580   -4.7220   30.7140 C   0  0  0  0  0  0  0  0  0  0  0  0
    3.7680   -4.2380   29.1390 C   0  0  0  0  0  0  0  0  0  0  0  0
    4.8740   -3.6110   28.6330 C   0  0  0  0  0  0  0  0  0  0  0  0
    5.7480   -0.4280   26.7460 C   0  0  0  0  0  0  0  0  0  0  0  0
    5.9310    0.5660   27.7970 C   0  0  0  0  0  0  0  0  0  0  0  0
    6.5500   -0.0850   28.8230 C   0  0  0  0  0  0  0  0  0  0  0  0
    6.8910   -1.3030   28.2650 C   0  0  0  0  0  0  0  0  0  0  0  0
    6.8480   -2.7720   23.3100 C   0  0  0  0  0  0  0  0  0  0  0  0
    7.7040   -3.3130   22.1740 C   0  0  0  0  0  0  0  0  0  0  0  0
  1  2  1  0
  2  3  2  0
  2  4  1  0
  4  5  1  0
  5  6  1  0
  6  7  1  0
  7  8  1  0
  8  9  2  0
  8 10  1  0
 11 10  1  0
 11 12  1  0
 12 13  2  0
 13 14  1  0
 14 15  2  0
 15 16  1  0
 16 17  1  0
 15 18  1  0
 12 19  1  0
 18 19  2  0
 11 20  1  0
 20 21  1  0
 21 22  1  0
 11 23  1  0
 22 23  1  0
  7 24  1  0
  4 25  1  0
 24 25  1  0
M  END
