piperidine-amides-28947-covalent
     RDKit          3D

 26 28  0  0  0  0  0  0  0  0999 V2000
    7.0140   -3.3690   19.3500 C   0  0  0  0  0  0  0  0  0  0  0  0
    6.3090   -4.2000   20.3260 C   0  0  0  0  0  0  0  0  0  0  0  0
    5.3080   -4.8240   19.9550 O   0  0  0  0  0  0  0  0  0  0  0  0
    6.7860   -4.3130   21.6480 N   0  0  0  0  0  0  0  0  0  0  0  0
    6.5680   -5.5580   22.3420 C   0  0  0  0  0  0  0  0  0  0  0  0
    6.0650   -5.3380   23.7500 C   0  0  0  0  0  0  0  0  0  0  0  0
    6.0080   -3.8520   24.0030 C   0  0  0  0  0  0  0  0  0  0  0  0
    5.5610   -3.4850   25.3970 C   0  0  0  0  0  0  0  0  0  0  0  0
    4.4920   -2.8820   25.4370 O   0  0  0  0  0  0  0  0  0  0  0  0
    6.3000   -3.8150   26.5460 N   0  0  0  0  0  0  0  0  0  0  0  0
    7.0210   -5.0330   26.6060 C   0  0  0  0  0  0  0  0  0  0  0  0
    6.9960   -5.4020   27.9470 C   0  0  0  0  0  0  0  0  0  0  0  0
    6.1190   -4.5590   28.5930 C   0  0  0  0  0  0  0  0  0  0  0  0
    5.6070   -3.5140   27.8120 C   0  0  1  0  0  0  0  0  0  0  0  0
    6.0130   -2.2920   28.5880 C   0  0  0  0  0  0  0  0  0  0  0  0
    7.3280   -2.2800   28.9500 O   0  0  0  0  0  0  0  0  0  0  0  0
    5.1520   -1.3090   28.9290 N   0  0  0  0  0  0  0  0  0  0  0  0
    5.2990   -0.6730   30.0950 C   0  0  0  0  0  0  0  0  0  0  0  0
    4.4290    0.5100   30.3040 C   0  0  0  0  0  0  0  0  0  0  0  0
    4.0910    0.5330   31.7750 C   0  0  0  0  0  0  0  0  0  0  0  0
    4.6960    1.8080   32.4100 C   0  0  0  0  0  0  0  0  0  0  0  0
    5.7170    2.3590   31.6980 O   0  0  0  0  0  0  0  0  0  0  0  0
    5.8950    2.2530   30.3280 C   0  0  0  0  0  0  0  0  0  0  0  0
    4.7810    1.7290   29.7030 C   0  0  0  0  0  0  0  0  0  0  0  0
    7.3130   -3.2540   23.6990 C   0  0  0  0  0  0  0  0  0  0  0  0
    7.5740   -3.2670   22.2370 C   0  0  0  0  0  0  0  0  0  0  0  0
  1  2  1  0
  2  3  2  0
  2  4  1  0
  4  5  1  0
  5  6  1  0
  6  7  1  0
  7  8  1  0
  8  9  2  0
  8 10  1  0
 10 11  1  0
 11 12  1  0
 12 13  1  0
 10 14  1  0
 13 14  1  0
 14 15  1  1
 15 16  2  0
 15 17  1  0
 17 18  1  0
 18 19  1  0
 19 20  1  0
 20 21  1  0
 21 22  1  0
 22 23  1  0
 19 24  1  0
 23 24  1  0
  7 25  1  0
  4 26  1  0
 25 26  1  0
M  END
