piperidine-amides-5503-covalent
     RDKit          3D

 20 21  0  0  0  0  0  0  0  0999 V2000
    7.0540   -3.3300   19.3160 C   0  0  0  0  0  0  0  0  0  0  0  0
    6.3700   -4.1390   20.3280 C   0  0  0  0  0  0  0  0  0  0  0  0
    5.3990   -4.8350   19.9820 O   0  0  0  0  0  0  0  0  0  0  0  0
    6.8180   -4.1720   21.6650 N   0  0  0  0  0  0  0  0  0  0  0  0
    7.7560   -3.1870   22.1660 C   0  0  0  0  0  0  0  0  0  0  0  0
    7.4570   -3.0350   23.6250 C   0  0  0  0  0  0  0  0  0  0  0  0
    6.1240   -3.6260   23.9520 C   0  0  0  0  0  0  0  0  0  0  0  0
    5.6660   -3.3090   25.3240 C   0  0  0  0  0  0  0  0  0  0  0  0
    4.4380   -3.4000   25.6200 O   0  0  0  0  0  0  0  0  0  0  0  0
    6.5450   -2.9020   26.3510 N   0  0  0  0  0  0  0  0  0  0  0  0
    6.4280   -1.5830   27.0140 C   0  0  0  0  0  0  0  0  0  0  0  0
    7.0010   -1.6110   28.3690 C   0  0  0  0  0  0  0  0  0  0  0  0
    6.9840   -0.4170   29.1910 C   0  0  0  0  0  0  0  0  0  0  0  0
    6.3790    0.8320   28.6390 C   0  0  0  0  0  0  0  0  0  0  0  0
    5.8050    0.9230   27.3280 N   0  0  0  0  0  0  0  0  0  0  0  0
    5.8720   -0.3470   26.5680 C   0  0  0  0  0  0  0  0  0  0  0  0
    5.3140   -0.2800   25.2690 O   0  0  0  0  0  0  0  0  0  0  0  0
    4.0790   -0.8880   25.2920 C   0  0  0  0  0  0  0  0  0  0  0  0
    6.1650   -5.1210   23.6970 C   0  0  0  0  0  0  0  0  0  0  0  0
    6.6410   -5.4090   22.4030 C   0  0  0  0  0  0  0  0  0  0  0  0
  1  2  1  0
  2  3  2  0
  2  4  1  0
  4  5  1  0
  5  6  1  0
  6  7  1  0
  7  8  1  0
  8  9  2  0
  8 10  1  0
 10 11  1  0
 11 12  2  0
 12 13  1  0
 13 14  2  0
 14 15  1  0
 11 16  1  0
 15 16  2  0
 16 17  1  0
 17 18  1  0
  7 19  1  0
  4 20  1  0
 19 20  1  0
M  END
