piperidine-amides-33005-covalent
     RDKit          3D

 29 30  0  0  0  0  0  0  0  0999 V2000
    7.0020   -3.3380   19.3530 C   0  0  0  0  0  0  0  0  0  0  0  0
    6.3160   -4.2290   20.3270 C   0  0  0  0  0  0  0  0  0  0  0  0
    5.3000   -4.8320   19.9620 O   0  0  0  0  0  0  0  0  0  0  0  0
    6.8540   -4.4140   21.6200 N   0  0  0  0  0  0  0  0  0  0  0  0
    7.5790   -3.3980   22.3250 C   0  0  0  0  0  0  0  0  0  0  0  0
    6.7300   -3.0590   23.5570 C   0  0  0  0  0  0  0  0  0  0  0  0
    6.5370   -4.3030   24.3700 C   0  0  0  0  0  0  0  0  0  0  0  0
    5.8800   -4.0500   25.6970 C   0  0  0  0  0  0  0  0  0  0  0  0
    4.6390   -4.0140   25.6750 O   0  0  0  0  0  0  0  0  0  0  0  0
    6.6330   -3.8190   26.8840 N   0  0  0  0  0  0  0  0  0  0  0  0
    6.6910   -4.6160   28.1120 C   0  0  0  0  0  0  0  0  0  0  0  0
    6.7220   -6.0190   28.1900 C   0  0  0  0  0  0  0  0  0  0  0  0
    6.6890   -6.4840   29.6230 O   0  0  0  0  0  0  0  0  0  0  0  0
    6.2670   -7.8250   29.9990 C   0  0  0  0  0  0  0  0  0  0  0  0
    6.8590   -9.0130   29.4650 C   0  0  0  0  0  0  0  0  0  0  0  0
    7.2640  -10.2780   30.0680 N   0  0  0  0  0  0  0  0  0  0  0  0
    7.6680  -10.3310   31.2490 C   0  0  0  0  0  0  0  0  0  0  0  0
    7.7370  -11.5930   32.1420 C   0  0  0  0  0  0  0  0  0  0  0  0
    8.2940  -11.0130   29.3900 C   0  0  0  0  0  0  0  0  0  0  0  0
    9.2830  -11.7130   30.0430 C   0  0  0  0  0  0  0  0  0  0  0  0
    7.0290   -2.4470   27.1810 C   0  0  0  0  0  0  0  0  0  0  0  0
    7.1610   -1.7150   25.8650 C   0  0  0  0  0  0  0  0  0  0  0  0
    6.1270   -0.7740   25.5420 C   0  0  0  0  0  0  0  0  0  0  0  0
    6.5930   -0.2270   24.1320 C   0  0  0  0  0  0  0  0  0  0  0  0
    7.7980   -0.5730   23.3090 C   0  0  0  0  0  0  0  0  0  0  0  0
    8.7150   -1.5800   23.8710 C   0  0  0  0  0  0  0  0  0  0  0  0
    8.3160   -2.1100   25.1710 C   0  0  0  0  0  0  0  0  0  0  0  0
    5.8020   -5.3420   23.5340 C   0  0  0  0  0  0  0  0  0  0  0  0
    6.4950   -5.5980   22.3780 C   0  0  0  0  0  0  0  0  0  0  0  0
  1  2  1  0
  2  3  2  0
  2  4  1  0
  4  5  1  0
  5  6  1  0
  6  7  1  0
  7  8  1  0
  8  9  2  0
  8 10  1  0
 10 11  1  0
 11 12  1  0
 12 13  1  0
 13 14  1  0
 14 15  1  0
 15 16  1  0
 16 17  1  0
 17 18  1  0
 16 19  1  0
 19 20  1  0
 10 21  1  0
 21 22  1  0
 22 23  2  0
 23 24  1  0
 24 25  2  0
 25 26  1  0
 22 27  1  0
 26 27  2  0
  7 28  1  0
  4 29  1  0
 28 29  1  0
M  END
