piperidine-amides-1448-covalent
     RDKit          3D

 21 23  0  0  0  0  0  0  0  0999 V2000
    7.0510   -3.3300   19.3640 C   0  0  0  0  0  0  0  0  0  0  0  0
    6.3470   -4.1920   20.3550 C   0  0  0  0  0  0  0  0  0  0  0  0
    5.3630   -4.8490   19.9780 O   0  0  0  0  0  0  0  0  0  0  0  0
    6.8240   -4.2810   21.6840 N   0  0  0  0  0  0  0  0  0  0  0  0
    6.7150   -5.5030   22.4510 C   0  0  0  0  0  0  0  0  0  0  0  0
    6.0910   -5.1800   23.8200 C   0  0  0  0  0  0  0  0  0  0  0  0
    6.0930   -3.6970   23.9880 C   0  0  0  0  0  0  0  0  0  0  0  0
    5.5600   -3.2320   25.2960 C   0  0  0  0  0  0  0  0  0  0  0  0
    4.3290   -3.1830   25.3810 O   0  0  0  0  0  0  0  0  0  0  0  0
    6.4020   -2.8740   26.3580 N   0  0  0  0  0  0  0  0  0  0  0  0
    6.6060   -1.5780   26.9170 C   0  0  2  0  0  0  0  0  0  0  0  0
    6.9030   -1.4190   28.2790 C   0  0  0  0  0  0  0  0  0  0  0  0
    6.1230   -0.2650   28.7340 N   0  0  0  0  0  0  0  0  0  0  0  0
    6.4860    0.6340   29.7360 C   0  0  0  0  0  0  0  0  0  0  0  0
    5.5380    0.9560   30.4650 C   0  0  0  0  0  0  0  0  0  0  0  0
    6.0250    2.1440   29.6830 C   0  0  0  0  0  0  0  0  0  0  0  0
    5.5610    0.4250   27.6210 C   0  0  0  0  0  0  0  0  0  0  0  0
    5.7180   -0.5660   26.4960 C   0  0  1  0  0  0  0  0  0  0  0  0
    6.2090   -0.0620   25.3060 C   0  0  0  0  0  0  0  0  0  0  0  0
    7.4000   -3.0660   23.6850 C   0  0  0  0  0  0  0  0  0  0  0  0
    7.6610   -3.2070   22.2000 C   0  0  0  0  0  0  0  0  0  0  0  0
  1  2  1  0
  2  3  2  0
  2  4  1  0
  4  5  1  0
  5  6  1  0
  6  7  1  0
  7  8  1  0
  8  9  2  0
  8 10  1  0
 11 10  1  1
 11 12  1  0
 12 13  1  0
 13 14  1  0
 14 15  1  0
 14 16  1  0
 15 16  1  0
 13 17  1  0
 11 18  1  0
 17 18  1  0
 18 19  1  6
  7 20  1  0
  4 21  1  0
 20 21  1  0
M  END
