piperidine-amides-30436-covalent
     RDKit          3D

 26 28  0  0  0  0  0  0  0  0999 V2000
    7.0630   -3.3610   19.3570 C   0  0  0  0  0  0  0  0  0  0  0  0
    6.3960   -4.2040   20.3480 C   0  0  0  0  0  0  0  0  0  0  0  0
    5.3990   -4.8600   19.9950 O   0  0  0  0  0  0  0  0  0  0  0  0
    6.8930   -4.3280   21.6660 N   0  0  0  0  0  0  0  0  0  0  0  0
    6.7050   -5.5420   22.4430 C   0  0  0  0  0  0  0  0  0  0  0  0
    6.1090   -5.1380   23.7760 C   0  0  0  0  0  0  0  0  0  0  0  0
    6.1480   -3.6500   23.9660 C   0  0  0  0  0  0  0  0  0  0  0  0
    5.7700   -3.1590   25.3180 C   0  0  0  0  0  0  0  0  0  0  0  0
    5.3840   -1.9690   25.4580 O   0  0  0  0  0  0  0  0  0  0  0  0
    5.7450   -3.9320   26.4930 N   0  0  0  0  0  0  0  0  0  0  0  0
    6.3030   -3.4370   27.7390 C   0  0  0  0  0  0  0  0  0  0  0  0
    6.5280   -4.6650   28.5400 C   0  0  0  0  0  0  0  0  0  0  0  0
    5.3410   -4.9250   29.1230 N   0  0  0  0  0  0  0  0  0  0  0  0
    5.1030   -5.7560   30.2260 C   0  0  0  0  0  0  0  0  0  0  0  0
    3.9310   -5.3500   31.0770 C   0  0  0  0  0  0  0  0  0  0  0  0
    3.6300   -6.2120   32.2950 C   0  0  0  0  0  0  0  0  0  0  0  0
    4.5290   -7.3810   32.5320 C   0  0  0  0  0  0  0  0  0  0  0  0
    4.3280   -8.4840   33.8920 Cl  0  0  0  0  0  0  0  0  0  0  0  0
    5.5530   -7.6040   31.6470 C   0  0  0  0  0  0  0  0  0  0  0  0
    5.8510   -6.8430   30.5270 C   0  0  0  0  0  0  0  0  0  0  0  0
    4.9510   -5.5020   27.9910 C   0  0  0  0  0  0  0  0  0  0  0  0
    4.5330   -4.6410   26.8080 C   0  0  0  0  0  0  0  0  0  0  0  0
    3.4840   -3.5910   27.0860 C   0  0  0  0  0  0  0  0  0  0  0  0
    4.0540   -5.3100   25.7200 C   0  0  0  0  0  0  0  0  0  0  0  0
    7.4040   -3.0130   23.5450 C   0  0  0  0  0  0  0  0  0  0  0  0
    7.7170   -3.3030   22.2450 C   0  0  0  0  0  0  0  0  0  0  0  0
  1  2  1  0
  2  3  2  0
  2  4  1  0
  4  5  1  0
  5  6  1  0
  6  7  1  0
  7  8  1  0
  8  9  2  0
  8 10  1  0
 10 11  1  0
 11 12  1  0
 12 13  1  0
 13 14  1  0
 14 15  2  0
 15 16  1  0
 16 17  2  0
 17 18  1  0
 17 19  1  0
 14 20  1  0
 19 20  2  0
 13 21  1  0
 10 22  1  0
 21 22  1  0
 22 23  1  0
 22 24  1  0
  7 25  1  0
  4 26  1  0
 25 26  1  0
M  END
