piperidine-amides-21570-covalent
     RDKit          3D

 23 24  0  0  0  0  0  0  0  0999 V2000
    7.0350   -3.3270   19.3200 C   0  0  0  0  0  0  0  0  0  0  0  0
    6.3680   -4.1440   20.3420 C   0  0  0  0  0  0  0  0  0  0  0  0
    5.3560   -4.7910   19.9640 O   0  0  0  0  0  0  0  0  0  0  0  0
    6.8710   -4.2170   21.6510 N   0  0  0  0  0  0  0  0  0  0  0  0
    7.7660   -3.1940   22.1600 C   0  0  0  0  0  0  0  0  0  0  0  0
    7.5610   -3.1010   23.6370 C   0  0  0  0  0  0  0  0  0  0  0  0
    6.2050   -3.6280   23.9810 C   0  0  0  0  0  0  0  0  0  0  0  0
    5.8990   -3.4310   25.4140 C   0  0  0  0  0  0  0  0  0  0  0  0
    4.7010   -3.5510   25.7570 O   0  0  0  0  0  0  0  0  0  0  0  0
    6.8480   -3.0890   26.4060 N   0  0  0  0  0  0  0  0  0  0  0  0
    7.4870   -4.1550   27.1710 C   0  0  0  0  0  0  0  0  0  0  0  0
    8.5130   -4.9540   26.3700 C   0  0  0  0  0  0  0  0  0  0  0  0
    6.7310   -1.8790   27.1460 C   0  0  0  0  0  0  0  0  0  0  0  0
    6.0660   -0.7080   26.6850 C   0  0  0  0  0  0  0  0  0  0  0  0
    5.9290    0.5150   27.4120 C   0  0  0  0  0  0  0  0  0  0  0  0
    6.4500    0.6940   28.6900 C   0  0  0  0  0  0  0  0  0  0  0  0
    6.3850    1.8300   29.5100 O   0  0  0  0  0  0  0  0  0  0  0  0
    6.4010    1.6140   30.9080 C   0  0  0  0  0  0  0  0  0  0  0  0
    5.8080    2.7030   31.7690 C   0  0  0  0  0  0  0  0  0  0  0  0
    7.1500   -0.4800   29.2150 C   0  0  0  0  0  0  0  0  0  0  0  0
    7.2450   -1.6980   28.3990 C   0  0  0  0  0  0  0  0  0  0  0  0
    6.0590   -5.0920   23.6520 C   0  0  0  0  0  0  0  0  0  0  0  0
    6.7140   -5.4230   22.4760 C   0  0  0  0  0  0  0  0  0  0  0  0
  1  2  1  0
  2  3  2  0
  2  4  1  0
  4  5  1  0
  5  6  1  0
  6  7  1  0
  7  8  1  0
  8  9  2  0
  8 10  1  0
 10 11  1  0
 11 12  1  0
 10 13  1  0
 13 14  2  0
 14 15  1  0
 15 16  2  0
 16 17  1  0
 17 18  1  0
 18 19  1  0
 16 20  1  0
 13 21  1  0
 20 21  2  0
  7 22  1  0
  4 23  1  0
 22 23  1  0
M  END
