piperidine-amides-31377-covalent
     RDKit          3D

 25 26  0  0  0  0  0  0  0  0999 V2000
    7.2370   -3.2950   19.3310 C   0  0  0  0  0  0  0  0  0  0  0  0
    6.4650   -4.0270   20.2990 C   0  0  0  0  0  0  0  0  0  0  0  0
    5.3770   -4.5710   19.9140 O   0  0  0  0  0  0  0  0  0  0  0  0
    6.9160   -4.1920   21.6280 N   0  0  0  0  0  0  0  0  0  0  0  0
    7.7350   -3.1200   22.2290 C   0  0  0  0  0  0  0  0  0  0  0  0
    6.6470   -2.3870   23.1080 C   0  0  0  0  0  0  0  0  0  0  0  0
    6.0320   -3.4330   24.0160 C   0  0  0  0  0  0  0  0  0  0  0  0
    5.0090   -2.7710   25.0790 C   0  0  0  0  0  0  0  0  0  0  0  0
    3.8600   -2.9990   24.7290 O   0  0  0  0  0  0  0  0  0  0  0  0
    5.6240   -2.1770   26.0300 N   0  0  0  0  0  0  0  0  0  0  0  0
    6.4020   -1.3030   26.7350 C   0  0  0  0  0  0  0  0  0  0  0  0
    6.2010   -0.3870   27.7340 C   0  0  0  0  0  0  0  0  0  0  0  0
    4.8480   -0.3460   28.1470 C   0  0  0  0  0  0  0  0  0  0  0  0
    5.3720   -2.8590   27.3370 C   0  0  1  0  0  0  0  0  0  0  0  0
    5.1610   -4.3930   27.3110 C   0  0  0  0  0  0  0  0  0  0  0  0
    6.2900   -3.9020   26.8940 C   0  0  0  0  0  0  0  0  0  0  0  0
    5.8370   -4.5850   25.7060 C   0  0  0  0  0  0  0  0  0  0  0  0
    7.0180   -5.5020   25.4920 C   0  0  0  0  0  0  0  0  0  0  0  0
    8.2150   -5.5440   26.4070 C   0  0  0  0  0  0  0  0  0  0  0  0
    9.5970   -6.4960   26.2790 Cl  0  0  0  0  0  0  0  0  0  0  0  0
    8.2900   -4.7960   27.4150 C   0  0  0  0  0  0  0  0  0  0  0  0
    9.7150   -5.0340   28.2520 Cl  0  0  0  0  0  0  0  0  0  0  0  0
    7.3700   -3.9530   27.7120 C   0  0  0  0  0  0  0  0  0  0  0  0
    5.4180   -4.6370   23.2660 C   0  0  0  0  0  0  0  0  0  0  0  0
    6.3970   -5.2040   22.4890 C   0  0  0  0  0  0  0  0  0  0  0  0
  1  2  1  0
  2  3  2  0
  2  4  1  0
  4  5  1  0
  5  6  1  0
  6  7  1  0
  7  8  1  0
  8  9  2  0
  8 10  1  0
 10 11  1  0
 11 12  1  0
 12 13  1  0
 10 14  1  0
 14 15  1  6
 14 16  1  0
 16 17  2  0
 17 18  1  0
 18 19  2  0
 19 20  1  0
 19 21  1  0
 21 22  1  0
 16 23  1  0
 21 23  2  0
  7 24  1  0
  4 25  1  0
 24 25  1  0
M  END
