piperidine-amides-14214-covalent
     RDKit          3D

 24 26  0  0  0  0  0  0  0  0999 V2000
    7.1390   -3.2570   19.1690 C   0  0  0  0  0  0  0  0  0  0  0  0
    6.3550   -4.0090   20.1900 C   0  0  0  0  0  0  0  0  0  0  0  0
    5.2660   -4.5100   19.8670 O   0  0  0  0  0  0  0  0  0  0  0  0
    6.8880   -4.1830   21.4790 N   0  0  0  0  0  0  0  0  0  0  0  0
    7.7390   -3.1790   22.0790 C   0  0  0  0  0  0  0  0  0  0  0  0
    6.9760   -2.6200   23.2700 C   0  0  0  0  0  0  0  0  0  0  0  0
    6.7080   -3.7710   24.1720 C   0  0  0  0  0  0  0  0  0  0  0  0
    6.2010   -3.3160   25.4740 C   0  0  0  0  0  0  0  0  0  0  0  0
    4.9950   -3.0310   25.5370 O   0  0  0  0  0  0  0  0  0  0  0  0
    7.1020   -3.2290   26.5450 N   0  0  0  0  0  0  0  0  0  0  0  0
    7.2560   -4.2010   27.5570 C   0  0  2  0  0  0  0  0  0  0  0  0
    8.1760   -5.2350   27.4210 C   0  0  0  0  0  0  0  0  0  0  0  0
    8.9480   -5.3620   26.2510 C   0  0  0  0  0  0  0  0  0  0  0  0
    6.0750   -4.8370   28.0330 C   0  0  0  0  0  0  0  0  0  0  0  0
    6.4440   -6.1140   28.8530 C   0  0  0  0  0  0  0  0  0  0  0  0
    5.4990   -6.1270   30.0200 C   0  0  0  0  0  0  0  0  0  0  0  0
    5.2520   -7.0210   31.1890 C   0  0  0  0  0  0  0  0  0  0  0  0
    4.1950   -6.5140   31.9770 C   0  0  0  0  0  0  0  0  0  0  0  0
    3.3320   -5.2450   31.7930 C   0  0  0  0  0  0  0  0  0  0  0  0
    3.7900   -4.5000   30.5140 C   0  0  0  0  0  0  0  0  0  0  0  0
    4.7970   -5.0340   29.8130 C   0  0  0  0  0  0  0  0  0  0  0  0
    5.0170   -4.1090   28.6610 C   0  0  0  0  0  0  0  0  0  0  0  0
    5.8450   -4.8310   23.5660 C   0  0  0  0  0  0  0  0  0  0  0  0
    6.5110   -5.3210   22.2820 C   0  0  0  0  0  0  0  0  0  0  0  0
  1  2  1  0
  2  3  2  0
  2  4  1  0
  4  5  1  0
  5  6  1  0
  6  7  1  0
  7  8  1  0
  8  9  2  0
  8 10  1  0
 10 11  1  0
 11 12  1  6
 12 13  1  0
 11 14  1  0
 14 15  1  0
 15 16  1  0
 16 17  1  0
 17 18  2  0
 18 19  1  0
 19 20  2  0
 16 21  2  0
 20 21  1  0
 14 22  1  0
 21 22  1  0
  7 23  1  0
  4 24  1  0
 23 24  1  0
M  END
