piperidine-amides-30881-covalent
     RDKit          3D

 28 31  0  0  0  0  0  0  0  0999 V2000
    7.0620   -3.3660   19.3810 C   0  0  0  0  0  0  0  0  0  0  0  0
    6.3900   -4.2320   20.3530 C   0  0  0  0  0  0  0  0  0  0  0  0
    5.3790   -4.8570   19.9870 O   0  0  0  0  0  0  0  0  0  0  0  0
    6.8840   -4.4260   21.6640 N   0  0  0  0  0  0  0  0  0  0  0  0
    6.5400   -5.5770   22.4530 C   0  0  0  0  0  0  0  0  0  0  0  0
    5.6890   -5.0450   23.5830 C   0  0  0  0  0  0  0  0  0  0  0  0
    6.3220   -3.8980   24.3390 C   0  0  0  0  0  0  0  0  0  0  0  0
    5.4130   -3.3520   25.4030 C   0  0  0  0  0  0  0  0  0  0  0  0
    4.5750   -2.4720   25.0700 O   0  0  0  0  0  0  0  0  0  0  0  0
    5.3750   -3.7200   26.7870 N   0  0  0  0  0  0  0  0  0  0  0  0
    4.1060   -3.5770   27.5350 C   0  0  0  0  0  0  0  0  0  0  0  0
    4.2640   -3.9890   28.9720 C   0  0  0  0  0  0  0  0  0  0  0  0
    5.1920   -4.9360   29.0480 N   0  0  0  0  0  0  0  0  0  0  0  0
    5.1350   -6.1220   29.7520 C   0  0  0  0  0  0  0  0  0  0  0  0
    4.0000   -6.6200   30.6100 C   0  0  0  0  0  0  0  0  0  0  0  0
    2.9870   -7.2250   29.6560 C   0  0  0  0  0  0  0  0  0  0  0  0
    2.2120   -8.2020   30.4700 C   0  0  0  0  0  0  0  0  0  0  0  0
    2.3920   -8.2890   31.8430 C   0  0  0  0  0  0  0  0  0  0  0  0
    1.7550   -9.1380   32.7220 C   0  0  0  0  0  0  0  0  0  0  0  0
    0.7560  -10.0850   32.1810 C   0  0  0  0  0  0  0  0  0  0  0  0
    0.5130  -10.0380   30.6830 C   0  0  0  0  0  0  0  0  0  0  0  0
    1.2250   -9.0910   29.7180 C   0  0  0  0  0  0  0  0  0  0  0  0
    6.2580   -6.7880   29.5670 N   0  0  0  0  0  0  0  0  0  0  0  0
    7.0360   -6.0470   28.7540 N   0  0  0  0  0  0  0  0  0  0  0  0
    6.3800   -4.9030   28.4350 C   0  0  0  0  0  0  0  0  0  0  0  0
    6.4120   -3.6190   27.6820 C   0  0  0  0  0  0  0  0  0  0  0  0
    6.8270   -2.7780   23.4360 C   0  0  0  0  0  0  0  0  0  0  0  0
    7.6510   -3.4050   22.3160 C   0  0  0  0  0  0  0  0  0  0  0  0
  1  2  1  0
  2  3  2  0
  2  4  1  0
  4  5  1  0
  5  6  1  0
  6  7  1  0
  7  8  1  0
  8  9  2  0
  8 10  1  0
 10 11  1  0
 11 12  1  0
 12 13  1  0
 13 14  1  0
 14 15  1  0
 15 16  1  0
 16 17  1  0
 17 18  2  0
 18 19  1  0
 19 20  2  0
 20 21  1  0
 17 22  1  0
 21 22  2  0
 14 23  2  0
 23 24  1  0
 13 25  1  0
 24 25  2  0
 10 26  1  0
 25 26  1  0
  7 27  1  0
  4 28  1  0
 27 28  1  0
M  END
