piperidine-amides-13019-covalent
     RDKit          3D

 20 20  0  0  0  0  0  0  0  0999 V2000
    7.1400   -3.2990   19.2420 C   0  0  0  0  0  0  0  0  0  0  0  0
    6.3810   -4.0470   20.2670 C   0  0  0  0  0  0  0  0  0  0  0  0
    5.3060   -4.5640   19.8950 O   0  0  0  0  0  0  0  0  0  0  0  0
    6.8910   -4.2000   21.5700 N   0  0  0  0  0  0  0  0  0  0  0  0
    7.6800   -3.1570   22.1420 C   0  0  0  0  0  0  0  0  0  0  0  0
    7.2420   -2.8220   23.4840 C   0  0  0  0  0  0  0  0  0  0  0  0
    5.9980   -3.5270   23.8530 C   0  0  0  0  0  0  0  0  0  0  0  0
    5.6290   -3.2090   25.2530 C   0  0  0  0  0  0  0  0  0  0  0  0
    4.4210   -3.0490   25.5150 O   0  0  0  0  0  0  0  0  0  0  0  0
    6.6030   -3.0740   26.2540 N   0  0  0  0  0  0  0  0  0  0  0  0
    6.3000   -3.1090   27.7030 C   0  0  0  0  0  0  0  0  0  0  0  0
    5.7590   -4.4100   28.1900 C   0  0  1  0  0  0  0  0  0  0  0  0
    6.6600   -5.3190   28.8840 C   0  0  0  0  0  0  0  0  0  0  0  0
    4.6490   -4.3440   28.9650 F   0  0  0  0  0  0  0  0  0  0  0  0
    5.9220   -5.7700   27.6910 C   0  0  0  0  0  0  0  0  0  0  0  0
    6.8830   -6.4860   28.3340 F   0  0  0  0  0  0  0  0  0  0  0  0
    4.7470   -6.3410   28.1300 F   0  0  0  0  0  0  0  0  0  0  0  0
    5.9500   -5.7880   26.3080 F   0  0  0  0  0  0  0  0  0  0  0  0
    6.0510   -5.0080   23.5890 C   0  0  0  0  0  0  0  0  0  0  0  0
    6.4830   -5.3430   22.3320 C   0  0  0  0  0  0  0  0  0  0  0  0
  1  2  1  0
  2  3  2  0
  2  4  1  0
  4  5  1  0
  5  6  1  0
  6  7  1  0
  7  8  1  0
  8  9  2  0
  8 10  1  0
 10 11  1  0
 11 12  1  0
 12 13  1  1
 12 14  1  0
 12 15  1  0
 15 16  1  0
 15 17  1  0
 15 18  1  0
  7 19  1  0
  4 20  1  0
 19 20  1  0
M  END
