piperidine-amides-17901-covalent
     RDKit          3D

 21 22  0  0  0  0  0  0  0  0999 V2000
    7.0440   -3.3930   19.3600 C   0  0  0  0  0  0  0  0  0  0  0  0
    6.3610   -4.1420   20.3940 C   0  0  0  0  0  0  0  0  0  0  0  0
    5.4170   -4.9070   20.0050 O   0  0  0  0  0  0  0  0  0  0  0  0
    6.7060   -4.0880   21.7690 N   0  0  0  0  0  0  0  0  0  0  0  0
    6.6410   -5.3730   22.5160 C   0  0  0  0  0  0  0  0  0  0  0  0
    5.8600   -4.9540   23.8320 C   0  0  0  0  0  0  0  0  0  0  0  0
    6.1920   -3.4970   24.0620 C   0  0  0  0  0  0  0  0  0  0  0  0
    5.6140   -2.8870   25.4380 C   0  0  0  0  0  0  0  0  0  0  0  0
    4.4590   -2.5170   25.2640 O   0  0  0  0  0  0  0  0  0  0  0  0
    6.4950   -2.9510   26.3800 N   0  0  0  0  0  0  0  0  0  0  0  0
    7.4400   -3.5930   27.1490 C   0  0  0  0  0  0  0  0  0  0  0  0
    7.4690   -4.8050   27.8060 C   0  0  0  0  0  0  0  0  0  0  0  0
    8.7730   -5.2870   27.9460 O   0  0  0  0  0  0  0  0  0  0  0  0
    6.3240   -1.5300   26.9410 C   0  0  0  0  0  0  0  0  0  0  0  0
    6.2390   -0.3830   26.0580 C   0  0  0  0  0  0  0  0  0  0  0  0
    6.1430   -0.1080   27.4430 C   0  0  0  0  0  0  0  0  0  0  0  0
    6.3050   -1.6160   27.5360 C   0  0  0  0  0  0  0  0  0  0  0  0
    6.3040   -2.2060   28.7720 N   0  0  0  0  0  0  0  0  0  0  0  0
    6.2060   -1.0780   28.3920 N   0  0  0  0  0  0  0  0  0  0  0  0
    7.6310   -3.1860   23.7530 C   0  0  0  0  0  0  0  0  0  0  0  0
    7.6440   -3.0520   22.2250 C   0  0  0  0  0  0  0  0  0  0  0  0
  1  2  1  0
  2  3  2  0
  2  4  1  0
  4  5  1  0
  5  6  1  0
  6  7  1  0
  7  8  1  0
  8  9  2  0
  8 10  1  0
 10 11  1  0
 11 12  1  0
 12 13  1  0
 10 14  1  0
 14 15  2  0
 15 16  1  0
 16 17  2  0
 17 18  1  0
 14 19  1  0
 18 19  2  0
  7 20  1  0
  4 21  1  0
 20 21  1  0
M  END
