piperidine-amides-32889-covalent
     RDKit          3D

 28 29  0  0  0  0  0  0  0  0999 V2000
    7.1130   -3.2670   19.2160 C   0  0  0  0  0  0  0  0  0  0  0  0
    6.3480   -4.0510   20.2240 C   0  0  0  0  0  0  0  0  0  0  0  0
    5.2750   -4.5760   19.8890 O   0  0  0  0  0  0  0  0  0  0  0  0
    6.8850   -4.2200   21.5140 N   0  0  0  0  0  0  0  0  0  0  0  0
    7.6990   -3.2210   22.1690 C   0  0  0  0  0  0  0  0  0  0  0  0
    6.8580   -2.6460   23.3080 C   0  0  0  0  0  0  0  0  0  0  0  0
    6.5410   -3.7870   24.2060 C   0  0  0  0  0  0  0  0  0  0  0  0
    5.7650   -3.3890   25.4060 C   0  0  0  0  0  0  0  0  0  0  0  0
    4.5370   -3.5180   25.3420 O   0  0  0  0  0  0  0  0  0  0  0  0
    6.4260   -2.8620   26.5200 N   0  0  0  0  0  0  0  0  0  0  0  0
    6.9450   -1.5440   26.4880 C   0  0  0  0  0  0  0  0  0  0  0  0
    6.2010   -3.3530   27.8490 C   0  0  0  0  0  0  0  0  0  0  0  0
    6.0790   -4.7120   28.2060 C   0  0  2  0  0  0  0  0  0  0  0  0
    7.1020   -5.1300   29.0300 O   0  0  0  0  0  0  0  0  0  0  0  0
    5.7710   -5.6480   27.2390 C   0  0  0  0  0  0  0  0  0  0  0  0
    4.7240   -6.5200   27.3880 O   0  0  0  0  0  0  0  0  0  0  0  0
    4.2550   -6.9350   28.6750 C   0  0  0  0  0  0  0  0  0  0  0  0
    2.7800   -7.3090   28.7950 C   0  0  0  0  0  0  0  0  0  0  0  0
    2.3450   -7.7330   30.1950 C   0  0  0  0  0  0  0  0  0  0  0  0
    3.2340   -7.7670   31.2560 C   0  0  0  0  0  0  0  0  0  0  0  0
    2.8300   -8.1710   32.6270 C   0  0  0  0  0  0  0  0  0  0  0  0
    1.9900   -9.2280   32.7420 F   0  0  0  0  0  0  0  0  0  0  0  0
    2.2850   -7.1720   33.3840 F   0  0  0  0  0  0  0  0  0  0  0  0
    4.0090   -8.5740   33.2340 F   0  0  0  0  0  0  0  0  0  0  0  0
    4.5770   -7.4010   31.0210 C   0  0  0  0  0  0  0  0  0  0  0  0
    5.0490   -7.0090   29.7910 C   0  0  0  0  0  0  0  0  0  0  0  0
    5.8040   -4.9150   23.5510 C   0  0  0  0  0  0  0  0  0  0  0  0
    6.5100   -5.3810   22.2980 C   0  0  0  0  0  0  0  0  0  0  0  0
  1  2  1  0
  2  3  2  0
  2  4  1  0
  4  5  1  0
  5  6  1  0
  6  7  1  0
  7  8  1  0
  8  9  2  0
  8 10  1  0
 10 11  1  0
 10 12  1  0
 12 13  1  0
 13 14  1  6
 13 15  1  0
 15 16  1  0
 16 17  1  0
 17 18  2  0
 18 19  1  0
 19 20  2  0
 20 21  1  0
 21 22  1  0
 21 23  1  0
 21 24  1  0
 20 25  1  0
 17 26  1  0
 25 26  2  0
  7 27  1  0
  4 28  1  0
 27 28  1  0
M  END
