piperidine-amides-4802-covalent
     RDKit          3D

 23 24  0  0  0  0  0  0  0  0999 V2000
    7.1620   -3.2630   19.1000 C   0  0  0  0  0  0  0  0  0  0  0  0
    6.3880   -3.9700   20.1440 C   0  0  0  0  0  0  0  0  0  0  0  0
    5.2670   -4.4060   19.8230 O   0  0  0  0  0  0  0  0  0  0  0  0
    6.9330   -4.1850   21.4070 N   0  0  0  0  0  0  0  0  0  0  0  0
    7.6780   -3.1360   22.0180 C   0  0  0  0  0  0  0  0  0  0  0  0
    7.1600   -2.7090   23.3060 C   0  0  0  0  0  0  0  0  0  0  0  0
    6.5410   -3.7780   24.1090 C   0  0  0  0  0  0  0  0  0  0  0  0
    5.7560   -3.1900   25.2000 C   0  0  0  0  0  0  0  0  0  0  0  0
    4.7280   -2.5460   24.9270 O   0  0  0  0  0  0  0  0  0  0  0  0
    6.1640   -3.3720   26.5090 N   0  0  0  0  0  0  0  0  0  0  0  0
    5.7910   -4.6050   27.2120 C   0  0  0  0  0  0  0  0  0  0  0  0
    5.9440   -4.4070   28.6520 C   0  0  0  0  0  0  0  0  0  0  0  0
    7.1140   -4.8980   29.0940 F   0  0  0  0  0  0  0  0  0  0  0  0
    4.9080   -5.1350   29.2690 F   0  0  0  0  0  0  0  0  0  0  0  0
    5.7340   -3.0240   29.0870 C   0  0  0  0  0  0  0  0  0  0  0  0
    6.7670   -2.1140   29.1780 C   0  0  0  0  0  0  0  0  0  0  0  0
    6.5810   -0.8110   29.5910 C   0  0  0  0  0  0  0  0  0  0  0  0
    5.3230   -0.4190   29.9180 C   0  0  0  0  0  0  0  0  0  0  0  0
    5.0510    1.2500   30.4530 Cl  0  0  0  0  0  0  0  0  0  0  0  0
    4.2870   -1.2980   29.8330 C   0  0  0  0  0  0  0  0  0  0  0  0
    4.4690   -2.5890   29.4250 C   0  0  0  0  0  0  0  0  0  0  0  0
    5.7180   -4.7390   23.2990 C   0  0  0  0  0  0  0  0  0  0  0  0
    6.5540   -5.3070   22.2280 C   0  0  0  0  0  0  0  0  0  0  0  0
  1  2  1  0
  2  3  2  0
  2  4  1  0
  4  5  1  0
  5  6  1  0
  6  7  1  0
  7  8  1  0
  8  9  2  0
  8 10  1  0
 10 11  1  0
 11 12  1  0
 12 13  1  0
 12 14  1  0
 12 15  1  0
 15 16  2  0
 16 17  1  0
 17 18  2  0
 18 19  1  0
 18 20  1  0
 15 21  1  0
 20 21  2  0
  7 22  1  0
  4 23  1  0
 22 23  1  0
M  END
