piperidine-amides-18802-covalent
     RDKit          3D

 21 22  0  0  0  0  0  0  0  0999 V2000
    7.0640   -3.4090   19.3300 C   0  0  0  0  0  0  0  0  0  0  0  0
    6.4240   -4.2040   20.3460 C   0  0  0  0  0  0  0  0  0  0  0  0
    5.3910   -4.8590   19.9980 O   0  0  0  0  0  0  0  0  0  0  0  0
    6.9290   -4.3330   21.6650 N   0  0  0  0  0  0  0  0  0  0  0  0
    6.6300   -5.5730   22.3850 C   0  0  0  0  0  0  0  0  0  0  0  0
    5.5360   -4.9930   23.3470 C   0  0  0  0  0  0  0  0  0  0  0  0
    6.1920   -3.9040   24.1830 C   0  0  0  0  0  0  0  0  0  0  0  0
    5.0890   -3.4780   25.2570 C   0  0  0  0  0  0  0  0  0  0  0  0
    4.0130   -3.3470   24.7050 O   0  0  0  0  0  0  0  0  0  0  0  0
    5.5930   -3.3740   26.4130 N   0  0  0  0  0  0  0  0  0  0  0  0
    6.4230   -3.2870   27.4130 C   0  0  0  0  0  0  0  0  0  0  0  0
    6.7470   -4.1150   28.4160 C   0  0  0  0  0  0  0  0  0  0  0  0
    5.6540   -4.0890   29.2360 O   0  0  0  0  0  0  0  0  0  0  0  0
    4.5010   -4.1770   28.4980 C   0  0  2  0  0  0  0  0  0  0  0  0
    4.5240   -5.5600   28.0060 C   0  0  0  0  0  0  0  0  0  0  0  0
    4.8970   -6.5120   28.9650 N   0  0  0  0  0  0  0  0  0  0  0  0
    6.2490   -6.6800   29.4830 C   0  0  0  0  0  0  0  0  0  0  0  0
    4.5290   -7.5250   28.0540 C   0  0  0  0  0  0  0  0  0  0  0  0
    4.6200   -3.0800   27.4500 C   0  0  0  0  0  0  0  0  0  0  0  0
    6.9560   -2.8480   23.5480 C   0  0  0  0  0  0  0  0  0  0  0  0
    7.7630   -3.4210   22.3390 C   0  0  0  0  0  0  0  0  0  0  0  0
  1  2  1  0
  2  3  2  0
  2  4  1  0
  4  5  1  0
  5  6  1  0
  6  7  1  0
  7  8  1  0
  8  9  2  0
  8 10  1  0
 10 11  1  0
 11 12  1  0
 12 13  1  0
 13 14  1  0
 14 15  1  6
 15 16  1  0
 16 17  1  0
 16 18  1  0
 10 19  1  0
 14 19  1  0
  7 20  1  0
  4 21  1  0
 20 21  1  0
M  END
