piperidine-amides-7115-covalent
     RDKit          3D

 21 22  0  0  0  0  0  0  0  0999 V2000
    7.0850   -3.3050   19.2940 C   0  0  0  0  0  0  0  0  0  0  0  0
    6.3970   -4.1430   20.2850 C   0  0  0  0  0  0  0  0  0  0  0  0
    5.3770   -4.7930   19.9680 O   0  0  0  0  0  0  0  0  0  0  0  0
    6.9070   -4.2590   21.5840 N   0  0  0  0  0  0  0  0  0  0  0  0
    6.5790   -5.4290   22.3610 C   0  0  0  0  0  0  0  0  0  0  0  0
    5.7120   -4.9340   23.5220 C   0  0  0  0  0  0  0  0  0  0  0  0
    6.5380   -3.8780   24.2270 C   0  0  0  0  0  0  0  0  0  0  0  0
    5.7650   -3.3720   25.3820 C   0  0  0  0  0  0  0  0  0  0  0  0
    4.5480   -3.1650   25.2140 O   0  0  0  0  0  0  0  0  0  0  0  0
    6.3830   -3.1520   26.6380 N   0  0  0  0  0  0  0  0  0  0  0  0
    6.3760   -1.8390   27.2350 C   0  0  0  0  0  0  0  0  0  0  0  0
    7.0730   -1.6330   28.5470 C   0  0  0  0  0  0  0  0  0  0  0  0
    7.0840   -0.4080   29.1570 C   0  0  0  0  0  0  0  0  0  0  0  0
    6.4490    0.6850   28.5780 C   0  0  0  0  0  0  0  0  0  0  0  0
    5.7720    0.5370   27.3260 N   0  0  0  0  0  0  0  0  0  0  0  0
    5.7060   -0.6510   26.6410 C   0  0  0  0  0  0  0  0  0  0  0  0
    5.0220   -0.6670   25.4560 C   0  0  0  0  0  0  0  0  0  0  0  0
    3.5650   -1.0830   25.3670 C   0  0  0  0  0  0  0  0  0  0  0  0
    3.9950    0.3670   25.1750 C   0  0  0  0  0  0  0  0  0  0  0  0
    6.9230   -2.7410   23.3830 C   0  0  0  0  0  0  0  0  0  0  0  0
    7.6270   -3.1850   22.1880 C   0  0  0  0  0  0  0  0  0  0  0  0
  1  2  1  0
  2  3  2  0
  2  4  1  0
  4  5  1  0
  5  6  1  0
  6  7  1  0
  7  8  1  0
  8  9  2  0
  8 10  1  0
 10 11  1  0
 11 12  2  0
 12 13  1  0
 13 14  2  0
 14 15  1  0
 11 16  1  0
 15 16  2  0
 16 17  1  0
 17 18  1  0
 17 19  1  0
  7 20  1  0
  4 21  1  0
 20 21  1  0
M  END
