piperidine-amides-6376-covalent
     RDKit          3D

 25 26  0  0  0  0  0  0  0  0999 V2000
    7.0840   -3.3230   19.3320 C   0  0  0  0  0  0  0  0  0  0  0  0
    6.4120   -4.1910   20.3100 C   0  0  0  0  0  0  0  0  0  0  0  0
    5.3870   -4.8300   19.9790 O   0  0  0  0  0  0  0  0  0  0  0  0
    6.9390   -4.3480   21.5970 N   0  0  0  0  0  0  0  0  0  0  0  0
    6.5720   -5.5010   22.3830 C   0  0  0  0  0  0  0  0  0  0  0  0
    5.7360   -4.9590   23.5450 C   0  0  0  0  0  0  0  0  0  0  0  0
    6.5400   -3.8390   24.1790 C   0  0  0  0  0  0  0  0  0  0  0  0
    5.8030   -3.2660   25.3190 C   0  0  0  0  0  0  0  0  0  0  0  0
    4.5880   -3.0130   25.1710 O   0  0  0  0  0  0  0  0  0  0  0  0
    6.4720   -3.0290   26.5400 N   0  0  0  0  0  0  0  0  0  0  0  0
    6.4100   -1.7370   27.1650 C   0  0  0  0  0  0  0  0  0  0  0  0
    7.0540   -1.5590   28.5180 C   0  0  0  0  0  0  0  0  0  0  0  0
    7.0440   -0.3780   29.1960 C   0  0  0  0  0  0  0  0  0  0  0  0
    6.4260    0.7220   28.6520 C   0  0  0  0  0  0  0  0  0  0  0  0
    5.7880    0.7140   27.4100 C   0  0  0  0  0  0  0  0  0  0  0  0
    5.2050    1.8600   26.9720 O   0  0  0  0  0  0  0  0  0  0  0  0
    4.0000    2.3460   27.4190 C   0  0  0  0  0  0  0  0  0  0  0  0
    4.1800    3.3730   28.5200 C   0  0  0  0  0  0  0  0  0  0  0  0
    2.6120    3.7410   29.2740 S   0  0  0  0  0  0  0  0  0  0  0  0
    1.4310    3.9920   28.0060 C   0  0  0  0  0  0  0  0  0  0  0  0
    2.8100    4.9770   30.1050 O   0  0  0  0  0  0  0  0  0  0  0  0
    2.1880    2.6140   30.1590 O   0  0  0  0  0  0  0  0  0  0  0  0
    5.7730   -0.4580   26.6830 C   0  0  0  0  0  0  0  0  0  0  0  0
    6.8350   -2.7430   23.1860 C   0  0  0  0  0  0  0  0  0  0  0  0
    7.6950   -3.2970   22.2400 C   0  0  0  0  0  0  0  0  0  0  0  0
  1  2  1  0
  2  3  2  0
  2  4  1  0
  4  5  1  0
  5  6  1  0
  6  7  1  0
  7  8  1  0
  8  9  2  0
  8 10  1  0
 10 11  1  0
 11 12  2  0
 12 13  1  0
 13 14  2  0
 14 15  1  0
 15 16  1  0
 16 17  1  0
 17 18  1  0
 19 18  1  0
 19 20  1  0
 19 21  2  0
 19 22  2  0
 11 23  1  0
 15 23  2  0
  7 24  1  0
  4 25  1  0
 24 25  1  0
M  END
