piperidine-amides-332-covalent
     RDKit          3D

 28 30  0  0  0  0  0  0  0  0999 V2000
    7.0650   -3.3110   19.3970 C   0  0  0  0  0  0  0  0  0  0  0  0
    6.3360   -4.1790   20.2900 C   0  0  0  0  0  0  0  0  0  0  0  0
    5.2350   -4.6580   19.8980 O   0  0  0  0  0  0  0  0  0  0  0  0
    6.8290   -4.5680   21.5430 N   0  0  0  0  0  0  0  0  0  0  0  0
    6.3040   -5.8150   22.1340 C   0  0  0  0  0  0  0  0  0  0  0  0
    5.1980   -5.2100   23.0800 C   0  0  0  0  0  0  0  0  0  0  0  0
    5.9660   -4.4690   24.1380 C   0  0  0  0  0  0  0  0  0  0  0  0
    5.0060   -3.9210   25.2930 C   0  0  0  0  0  0  0  0  0  0  0  0
    4.0410   -4.6170   25.5460 O   0  0  0  0  0  0  0  0  0  0  0  0
    5.5800   -2.8690   25.5930 N   0  0  0  0  0  0  0  0  0  0  0  0
    6.3730   -1.8260   25.6420 C   0  0  0  0  0  0  0  0  0  0  0  0
    7.4660   -1.4990   24.9560 C   0  0  0  0  0  0  0  0  0  0  0  0
    7.4670   -0.5460   23.8890 C   0  0  0  0  0  0  0  0  0  0  0  0
    8.6380   -0.1290   23.0400 C   0  0  0  0  0  0  0  0  0  0  0  0
    9.8750   -0.9250   23.5350 C   0  0  0  0  0  0  0  0  0  0  0  0
   11.1760   -0.8620   23.0410 O   0  0  0  0  0  0  0  0  0  0  0  0
   11.9160   -1.6850   23.8990 C   0  0  0  0  0  0  0  0  0  0  0  0
   13.2510   -1.2340   24.0640 C   0  0  0  0  0  0  0  0  0  0  0  0
   13.8170   -2.2980   25.0750 C   0  0  0  0  0  0  0  0  0  0  0  0
   12.9790   -3.4520   25.6240 C   0  0  0  0  0  0  0  0  0  0  0  0
   13.5720   -4.3440   26.5100 F   0  0  0  0  0  0  0  0  0  0  0  0
   11.7260   -3.5990   25.2610 C   0  0  0  0  0  0  0  0  0  0  0  0
   11.1670   -2.7490   24.4070 C   0  0  0  0  0  0  0  0  0  0  0  0
    9.6770   -1.8890   24.6850 C   0  0  0  0  0  0  0  0  0  0  0  0
   10.8430   -2.4990   25.0200 C   0  0  0  0  0  0  0  0  0  0  0  0
    8.5600   -2.1440   25.3200 C   0  0  0  0  0  0  0  0  0  0  0  0
    6.9720   -3.4550   23.6740 C   0  0  0  0  0  0  0  0  0  0  0  0
    7.6540   -3.7750   22.3880 C   0  0  0  0  0  0  0  0  0  0  0  0
  1  2  1  0
  2  3  2  0
  2  4  1  0
  4  5  1  0
  5  6  1  0
  6  7  1  0
  7  8  1  0
  8  9  2  0
  8 10  1  0
 10 11  1  0
 11 12  1  0
 12 13  2  0
 13 14  1  0
 14 15  2  0
 15 16  1  0
 16 17  1  0
 17 18  2  0
 18 19  1  0
 19 20  2  0
 20 21  1  0
 20 22  1  0
 17 23  1  0
 22 23  2  0
 15 24  1  0
 24 25  1  0
 12 26  1  0
 24 26  2  0
  7 27  1  0
  4 28  1  0
 27 28  1  0
M  END
