piperidine-amides-35336-covalent
     RDKit          3D

 32 34  0  0  0  0  0  0  0  0999 V2000
    7.0520   -3.3140   19.2920 C   0  0  0  0  0  0  0  0  0  0  0  0
    6.3770   -4.1540   20.3120 C   0  0  0  0  0  0  0  0  0  0  0  0
    5.3790   -4.7820   19.9620 O   0  0  0  0  0  0  0  0  0  0  0  0
    6.9040   -4.2480   21.6000 N   0  0  0  0  0  0  0  0  0  0  0  0
    7.7350   -3.2300   22.1900 C   0  0  0  0  0  0  0  0  0  0  0  0
    7.0750   -2.6990   23.4250 C   0  0  0  0  0  0  0  0  0  0  0  0
    6.7340   -3.8370   24.3950 C   0  0  0  0  0  0  0  0  0  0  0  0
    5.9710   -3.2160   25.5010 C   0  0  0  0  0  0  0  0  0  0  0  0
    4.7980   -2.8720   25.2770 O   0  0  0  0  0  0  0  0  0  0  0  0
    6.5260   -3.0090   26.7940 N   0  0  0  0  0  0  0  0  0  0  0  0
    6.0520   -1.7970   27.4760 C   0  0  2  0  0  0  0  0  0  0  0  0
    5.9280   -0.6740   26.4600 C   0  0  0  0  0  0  0  0  0  0  0  0
    5.6410    0.6370   26.8100 C   0  0  0  0  0  0  0  0  0  0  0  0
    6.1660    1.0080   28.0110 C   0  0  0  0  0  0  0  0  0  0  0  0
    6.1310    0.0280   28.9510 C   0  0  2  0  0  0  0  0  0  0  0  0
    7.1600   -0.2640   30.0140 C   0  0  0  0  0  0  0  0  0  0  0  0
    6.5850   -0.6700   31.2100 F   0  0  0  0  0  0  0  0  0  0  0  0
    8.1700   -1.1810   29.7150 F   0  0  0  0  0  0  0  0  0  0  0  0
    7.7790    0.9310   30.2960 F   0  0  0  0  0  0  0  0  0  0  0  0
    6.8020   -1.2380   28.6530 C   0  0  0  0  0  0  0  0  0  0  0  0
    6.5970   -4.1870   27.6550 C   0  0  2  0  0  0  0  0  0  0  0  0
    6.6430   -5.4180   26.7980 C   0  0  0  0  0  0  0  0  0  0  0  0
    5.2830   -5.9840   26.5780 C   0  0  0  0  0  0  0  0  0  0  0  0
    4.6530   -6.4370   27.8630 C   0  0  0  0  0  0  0  0  0  0  0  0
    5.1930   -5.7430   29.0480 C   0  0  2  0  0  0  0  0  0  0  0  0
    4.2400   -5.7450   30.2260 C   0  0  0  0  0  0  0  0  0  0  0  0
    3.8520   -4.4480   30.5120 F   0  0  0  0  0  0  0  0  0  0  0  0
    4.8560   -6.3200   31.3400 F   0  0  0  0  0  0  0  0  0  0  0  0
    3.1380   -6.5230   29.9360 F   0  0  0  0  0  0  0  0  0  0  0  0
    5.7310   -4.3700   28.7480 C   0  0  0  0  0  0  0  0  0  0  0  0
    5.9580   -4.9190   23.6790 C   0  0  0  0  0  0  0  0  0  0  0  0
    6.6640   -5.4300   22.4210 C   0  0  0  0  0  0  0  0  0  0  0  0
  1  2  1  0
  2  3  2  0
  2  4  1  0
  4  5  1  0
  5  6  1  0
  6  7  1  0
  7  8  1  0
  8  9  2  0
  8 10  1  0
 11 10  1  6
 11 12  1  0
 12 13  1  0
 13 14  1  0
 14 15  1  0
 15 16  1  1
 16 17  1  0
 16 18  1  0
 16 19  1  0
 11 20  1  0
 15 20  1  0
 21 10  1  6
 21 22  1  0
 22 23  1  0
 23 24  1  0
 24 25  1  0
 25 26  1  1
 26 27  1  0
 26 28  1  0
 26 29  1  0
 21 30  1  0
 25 30  1  0
  7 31  1  0
  4 32  1  0
 31 32  1  0
M  END
