piperidine-amides-11245-covalent
     RDKit          3D

 18 19  0  0  0  0  0  0  0  0999 V2000
    7.0800   -3.2750   19.2100 C   0  0  0  0  0  0  0  0  0  0  0  0
    6.3020   -4.0240   20.2040 C   0  0  0  0  0  0  0  0  0  0  0  0
    5.2320   -4.5500   19.8700 O   0  0  0  0  0  0  0  0  0  0  0  0
    6.7570   -4.2110   21.5140 N   0  0  0  0  0  0  0  0  0  0  0  0
    6.5890   -5.4610   22.2230 C   0  0  0  0  0  0  0  0  0  0  0  0
    5.9050   -5.1250   23.5270 C   0  0  0  0  0  0  0  0  0  0  0  0
    5.9530   -3.6580   23.8260 C   0  0  0  0  0  0  0  0  0  0  0  0
    5.6330   -3.3070   25.2270 C   0  0  0  0  0  0  0  0  0  0  0  0
    4.4790   -2.8800   25.5300 O   0  0  0  0  0  0  0  0  0  0  0  0
    6.5640   -3.4340   26.2770 N   0  0  0  0  0  0  0  0  0  0  0  0
    6.8950   -4.7670   26.8150 C   0  0  0  0  0  0  0  0  0  0  0  0
    5.6630   -5.5610   26.8030 C   0  0  0  0  0  0  0  0  0  0  0  0
    5.3510   -6.3400   27.9940 C   0  0  0  0  0  0  0  0  0  0  0  0
    4.2020   -7.2960   27.8720 C   0  0  0  0  0  0  0  0  0  0  0  0
    5.3690   -5.6780   29.3930 C   0  0  0  0  0  0  0  0  0  0  0  0
    6.2420   -6.8230   29.0670 C   0  0  0  0  0  0  0  0  0  0  0  0
    7.3200   -3.1480   23.4670 C   0  0  0  0  0  0  0  0  0  0  0  0
    7.5620   -3.1660   22.1010 C   0  0  0  0  0  0  0  0  0  0  0  0
  1  2  1  0
  2  3  2  0
  2  4  1  0
  4  5  1  0
  5  6  1  0
  6  7  1  0
  7  8  1  0
  8  9  2  0
  8 10  1  0
 10 11  1  0
 11 12  1  0
 13 12  1  0
 13 14  1  0
 13 15  1  0
 13 16  1  0
 15 16  1  0
  7 17  1  0
  4 18  1  0
 17 18  1  0
M  END
