piperidine-amides-34402-covalent
     RDKit          3D

 31 32  0  0  0  0  0  0  0  0999 V2000
    7.2560   -3.9270   19.6870 C   0  0  0  0  0  0  0  0  0  0  0  0
    5.9890   -3.7470   20.2590 C   0  0  0  0  0  0  0  0  0  0  0  0
    4.9970   -3.8450   19.5130 O   0  0  0  0  0  0  0  0  0  0  0  0
    5.9310   -3.5950   21.6200 N   0  0  0  0  0  0  0  0  0  0  0  0
    6.9900   -2.8040   22.2110 C   0  0  0  0  0  0  0  0  0  0  0  0
    6.9150   -3.0120   23.7310 C   0  0  0  0  0  0  0  0  0  0  0  0
    5.4400   -3.1460   24.0900 C   0  0  0  0  0  0  0  0  0  0  0  0
    5.1930   -3.3110   25.5380 C   0  0  0  0  0  0  0  0  0  0  0  0
    4.0270   -3.5610   25.9050 O   0  0  0  0  0  0  0  0  0  0  0  0
    6.2420   -3.1710   26.4630 N   0  0  0  0  0  0  0  0  0  0  0  0
    6.8540   -1.9100   26.4810 C   0  0  0  0  0  0  0  0  0  0  0  0
    5.8710   -0.8920   25.9250 C   0  0  0  0  0  0  0  0  0  0  0  0
    4.5450   -0.6890   26.3200 C   0  0  0  0  0  0  0  0  0  0  0  0
    3.7180    0.2710   25.7500 C   0  0  0  0  0  0  0  0  0  0  0  0
    4.1510    1.1070   24.7360 C   0  0  0  0  0  0  0  0  0  0  0  0
    5.4100    1.0040   24.2710 C   0  0  0  0  0  0  0  0  0  0  0  0
    6.3850    0.0100   24.8070 C   0  0  0  0  0  0  0  0  0  0  0  0
    6.2520   -3.6800   27.8280 C   0  0  1  0  0  0  0  0  0  0  0  0
    6.4430   -5.1590   27.9950 C   0  0  0  0  0  0  0  0  0  0  0  0
    7.5930   -4.1370   28.3890 C   0  0  0  0  0  0  0  0  0  0  0  0
    8.3030   -4.8850   27.4770 C   0  0  0  0  0  0  0  0  0  0  0  0
    8.3240   -4.3270   26.2440 C   0  0  0  0  0  0  0  0  0  0  0  0
    8.8490   -5.1480   25.1600 C   0  0  0  0  0  0  0  0  0  0  0  0
    7.7440   -5.9980   24.6280 C   0  0  0  0  0  0  0  0  0  0  0  0
    6.3510   -5.7540   25.2260 C   0  0  0  0  0  0  0  0  0  0  0  0
    5.3090   -6.5720   24.9020 C   0  0  0  0  0  0  0  0  0  0  0  0
    5.3110   -7.2050   23.7270 C   0  0  0  0  0  0  0  0  0  0  0  0
    6.4770   -7.6170   23.1080 C   0  0  0  0  0  0  0  0  0  0  0  0
    7.7440   -7.0930   23.5930 C   0  0  0  0  0  0  0  0  0  0  0  0
    4.6840   -4.2440   23.4200 C   0  0  0  0  0  0  0  0  0  0  0  0
    5.5240   -4.7770   22.3100 C   0  0  0  0  0  0  0  0  0  0  0  0
  1  2  1  0
  2  3  2  0
  2  4  1  0
  4  5  1  0
  5  6  1  0
  6  7  1  0
  7  8  1  0
  8  9  2  0
  8 10  1  0
 10 11  1  0
 11 12  1  0
 12 13  2  0
 13 14  1  0
 14 15  2  0
 15 16  1  0
 12 17  1  0
 16 17  2  0
 10 18  1  0
 18 19  1  6
 18 20  1  0
 20 21  1  0
 21 22  1  0
 22 23  1  0
 23 24  1  0
 24 25  1  0
 25 26  1  0
 26 27  1  0
 27 28  1  0
 28 29  1  0
  7 30  1  0
  4 31  1  0
 30 31  1  0
M  END
