piperidine-amides-33322-covalent
     RDKit          3D

 30 33  0  0  0  0  0  0  0  0999 V2000
    7.1690   -3.3310   19.2700 C   0  0  0  0  0  0  0  0  0  0  0  0
    6.3850   -4.1270   20.2210 C   0  0  0  0  0  0  0  0  0  0  0  0
    5.2510   -4.5120   19.8660 O   0  0  0  0  0  0  0  0  0  0  0  0
    6.9430   -4.5040   21.4570 N   0  0  0  0  0  0  0  0  0  0  0  0
    6.2570   -5.5220   22.1720 C   0  0  0  0  0  0  0  0  0  0  0  0
    5.5300   -5.0300   23.3400 C   0  0  0  0  0  0  0  0  0  0  0  0
    6.2220   -3.9430   24.0520 C   0  0  0  0  0  0  0  0  0  0  0  0
    5.4430   -3.3250   25.1500 C   0  0  0  0  0  0  0  0  0  0  0  0
    4.2180   -3.1200   25.0720 O   0  0  0  0  0  0  0  0  0  0  0  0
    6.1640   -2.9940   26.2730 N   0  0  0  0  0  0  0  0  0  0  0  0
    7.3090   -3.7960   26.5830 C   0  0  0  0  0  0  0  0  0  0  0  0
    8.6330   -3.4650   26.0390 C   0  0  0  0  0  0  0  0  0  0  0  0
    8.6870   -2.3220   24.9850 C   0  0  0  0  0  0  0  0  0  0  0  0
   10.0840   -2.2880   24.7180 N   0  0  0  0  0  0  0  0  0  0  0  0
   10.6870   -1.3830   23.7930 C   0  0  0  0  0  0  0  0  0  0  0  0
   12.2350   -1.3680   23.5390 C   0  0  0  0  0  0  0  0  0  0  0  0
   13.0580   -2.3810   24.3510 C   0  0  0  0  0  0  0  0  0  0  0  0
   12.1810   -3.2360   25.2700 C   0  0  0  0  0  0  0  0  0  0  0  0
   10.7280   -3.1820   25.4320 C   0  0  0  0  0  0  0  0  0  0  0  0
    9.9250   -3.9420   26.2490 N   0  0  0  0  0  0  0  0  0  0  0  0
    5.9800   -1.7070   26.9100 C   0  0  0  0  0  0  0  0  0  0  0  0
    5.3250   -1.6670   28.2920 C   0  0  0  0  0  0  0  0  0  0  0  0
    5.2430   -0.3100   28.8470 C   0  0  0  0  0  0  0  0  0  0  0  0
    5.6630    0.8190   28.2150 C   0  0  0  0  0  0  0  0  0  0  0  0
    5.5980    2.1040   28.7060 C   0  0  0  0  0  0  0  0  0  0  0  0
    6.2090    0.7670   26.9730 C   0  0  0  0  0  0  0  0  0  0  0  0
    6.6050    1.9790   26.3600 F   0  0  0  0  0  0  0  0  0  0  0  0
    6.3730   -0.4770   26.3260 C   0  0  0  0  0  0  0  0  0  0  0  0
    6.6250   -2.8770   23.0770 C   0  0  0  0  0  0  0  0  0  0  0  0
    7.6540   -3.4840   22.1740 C   0  0  0  0  0  0  0  0  0  0  0  0
  1  2  1  0
  2  3  2  0
  2  4  1  0
  4  5  1  0
  5  6  1  0
  6  7  1  0
  7  8  1  0
  8  9  2  0
  8 10  1  0
 10 11  1  0
 11 12  1  0
 12 13  2  0
 13 14  1  0
 14 15  1  0
 15 16  2  0
 16 17  1  0
 17 18  2  0
 14 19  1  0
 18 19  1  0
 12 20  1  0
 19 20  2  0
 10 21  1  0
 21 22  2  0
 22 23  1  0
 23 24  2  0
 24 25  1  0
 24 26  1  0
 26 27  1  0
 21 28  1  0
 26 28  2  0
  7 29  1  0
  4 30  1  0
 29 30  1  0
M  END
