piperidine-amides-11703-covalent
     RDKit          3D

 28 30  0  0  0  0  0  0  0  0999 V2000
    7.1320   -3.2660   19.2170 C   0  0  0  0  0  0  0  0  0  0  0  0
    6.3690   -4.0280   20.1980 C   0  0  0  0  0  0  0  0  0  0  0  0
    5.3040   -4.5560   19.8860 O   0  0  0  0  0  0  0  0  0  0  0  0
    6.8950   -4.2080   21.5190 N   0  0  0  0  0  0  0  0  0  0  0  0
    7.6780   -3.1680   22.1370 C   0  0  0  0  0  0  0  0  0  0  0  0
    6.9690   -2.6410   23.3450 C   0  0  0  0  0  0  0  0  0  0  0  0
    6.5420   -3.8480   24.1530 C   0  0  0  0  0  0  0  0  0  0  0  0
    5.7870   -3.3970   25.3520 C   0  0  0  0  0  0  0  0  0  0  0  0
    4.5760   -3.1090   25.3150 O   0  0  0  0  0  0  0  0  0  0  0  0
    6.4860   -3.2940   26.5810 N   0  0  0  0  0  0  0  0  0  0  0  0
    5.7980   -3.6680   27.7900 C   0  0  1  0  0  0  0  0  0  0  0  0
    6.2940   -5.0380   28.2040 C   0  0  0  0  0  0  0  0  0  0  0  0
    5.3640   -5.9850   28.5940 C   0  0  0  0  0  0  0  0  0  0  0  0
    5.0920   -6.2850   29.9330 C   0  0  0  0  0  0  0  0  0  0  0  0
    5.7670   -7.2990   30.6020 C   0  0  0  0  0  0  0  0  0  0  0  0
    5.4290   -7.5620   32.0010 C   0  0  0  0  0  0  0  0  0  0  0  0
    4.4790   -6.8640   32.6870 C   0  0  0  0  0  0  0  0  0  0  0  0
    4.1720   -7.1180   33.9730 F   0  0  0  0  0  0  0  0  0  0  0  0
    3.8440   -5.8790   31.9880 C   0  0  0  0  0  0  0  0  0  0  0  0
    4.1350   -5.5940   30.6570 C   0  0  0  0  0  0  0  0  0  0  0  0
    5.7650   -2.6940   28.8140 C   0  0  0  0  0  0  0  0  0  0  0  0
    4.6390   -2.6050   29.6670 C   0  0  0  0  0  0  0  0  0  0  0  0
    4.4990   -1.6750   30.7070 C   0  0  0  0  0  0  0  0  0  0  0  0
    5.5520   -0.6820   30.9980 C   0  0  0  0  0  0  0  0  0  0  0  0
    6.7770   -0.7300   30.1220 C   0  0  0  0  0  0  0  0  0  0  0  0
    6.8310   -1.7660   29.0350 C   0  0  0  0  0  0  0  0  0  0  0  0
    5.7310   -4.8570   23.4080 C   0  0  0  0  0  0  0  0  0  0  0  0
    6.4220   -5.3140   22.2910 C   0  0  0  0  0  0  0  0  0  0  0  0
  1  2  1  0
  2  3  2  0
  2  4  1  0
  4  5  1  0
  5  6  1  0
  6  7  1  0
  7  8  1  0
  8  9  2  0
  8 10  1  0
 10 11  1  0
 11 12  1  1
 12 13  1  0
 13 14  1  0
 14 15  2  0
 15 16  1  0
 16 17  2  0
 17 18  1  0
 17 19  1  0
 14 20  1  0
 19 20  2  0
 11 21  1  0
 21 22  2  0
 22 23  1  0
 23 24  2  0
 24 25  1  0
 21 26  1  0
 25 26  2  0
  7 27  1  0
  4 28  1  0
 27 28  1  0
M  END
