piperidine-amides-32422-covalent
     RDKit          3D

 28 30  0  0  0  0  0  0  0  0999 V2000
    6.9880   -3.3680   19.4550 C   0  0  0  0  0  0  0  0  0  0  0  0
    6.3290   -4.2900   20.4320 C   0  0  0  0  0  0  0  0  0  0  0  0
    5.3940   -4.9930   20.0090 O   0  0  0  0  0  0  0  0  0  0  0  0
    6.7810   -4.3740   21.7820 N   0  0  0  0  0  0  0  0  0  0  0  0
    6.5700   -5.5770   22.5690 C   0  0  0  0  0  0  0  0  0  0  0  0
    6.0580   -5.2060   23.9890 C   0  0  0  0  0  0  0  0  0  0  0  0
    5.8680   -3.7270   24.0730 C   0  0  0  0  0  0  0  0  0  0  0  0
    5.1590   -3.1520   25.2900 C   0  0  0  0  0  0  0  0  0  0  0  0
    4.4470   -2.1890   25.0310 O   0  0  0  0  0  0  0  0  0  0  0  0
    5.2570   -3.6370   26.6230 N   0  0  0  0  0  0  0  0  0  0  0  0
    6.3610   -4.2310   27.0750 C   0  0  0  0  0  0  0  0  0  0  0  0
    6.3800   -4.5120   28.3610 C   0  0  0  0  0  0  0  0  0  0  0  0
    5.1850   -3.9950   28.7950 C   0  0  0  0  0  0  0  0  0  0  0  0
    4.4840   -3.2760   27.7870 C   0  0  2  0  0  0  0  0  0  0  0  0
    3.0210   -3.5390   27.8080 C   0  0  0  0  0  0  0  0  0  0  0  0
    4.5430   -1.8890   27.9300 C   0  0  0  0  0  0  0  0  0  0  0  0
    5.4710   -1.3090   29.0060 C   0  0  0  0  0  0  0  0  0  0  0  0
    6.7860   -1.5400   28.8820 C   0  0  0  0  0  0  0  0  0  0  0  0
    7.8350   -1.1020   29.7610 C   0  0  0  0  0  0  0  0  0  0  0  0
    7.1870   -0.3120   30.8840 C   0  0  0  0  0  0  0  0  0  0  0  0
    5.8950    0.0800   31.2650 C   0  0  0  0  0  0  0  0  0  0  0  0
    5.0510   -0.5660   30.0940 C   0  0  0  0  0  0  0  0  0  0  0  0
    3.5630   -0.2990   30.2330 C   0  0  0  0  0  0  0  0  0  0  0  0
    2.9280   -1.4800   30.4570 F   0  0  0  0  0  0  0  0  0  0  0  0
    3.0760    0.3890   29.1360 F   0  0  0  0  0  0  0  0  0  0  0  0
    3.4030    0.5950   31.2980 F   0  0  0  0  0  0  0  0  0  0  0  0
    7.1770   -3.0130   23.7980 C   0  0  0  0  0  0  0  0  0  0  0  0
    7.5520   -3.2730   22.3740 C   0  0  0  0  0  0  0  0  0  0  0  0
  1  2  1  0
  2  3  2  0
  2  4  1  0
  4  5  1  0
  5  6  1  0
  6  7  1  0
  7  8  1  0
  8  9  2  0
  8 10  1  0
 10 11  1  0
 11 12  1  0
 12 13  1  0
 10 14  1  0
 13 14  1  0
 14 15  1  6
 14 16  1  0
 16 17  1  0
 17 18  2  0
 18 19  1  0
 19 20  2  0
 20 21  1  0
 17 22  1  0
 21 22  2  0
 22 23  1  0
 23 24  1  0
 23 25  1  0
 23 26  1  0
  7 27  1  0
  4 28  1  0
 27 28  1  0
M  END
