piperidine-amides-4076-covalent
     RDKit          3D

 28 29  0  0  0  0  0  0  0  0999 V2000
    7.1220   -3.2480   19.1540 C   0  0  0  0  0  0  0  0  0  0  0  0
    6.3730   -4.0010   20.1750 C   0  0  0  0  0  0  0  0  0  0  0  0
    5.2640   -4.4790   19.8470 O   0  0  0  0  0  0  0  0  0  0  0  0
    6.9200   -4.2240   21.4540 N   0  0  0  0  0  0  0  0  0  0  0  0
    6.4050   -5.3150   22.2100 C   0  0  0  0  0  0  0  0  0  0  0  0
    5.9030   -4.9350   23.5240 C   0  0  0  0  0  0  0  0  0  0  0  0
    6.5720   -3.7480   24.0950 C   0  0  0  0  0  0  0  0  0  0  0  0
    5.8220   -3.1750   25.2470 C   0  0  0  0  0  0  0  0  0  0  0  0
    4.5750   -3.2100   25.2620 O   0  0  0  0  0  0  0  0  0  0  0  0
    6.5130   -2.5830   26.3130 N   0  0  0  0  0  0  0  0  0  0  0  0
    6.1080   -2.4740   27.6530 C   0  0  0  0  0  0  0  0  0  0  0  0
    5.5770   -3.5920   28.4110 C   0  0  0  0  0  0  0  0  0  0  0  0
    6.6080   -4.6710   28.7180 C   0  0  0  0  0  0  0  0  0  0  0  0
    6.3740   -5.8280   29.4220 C   0  0  0  0  0  0  0  0  0  0  0  0
    4.9020   -5.7870   29.8260 C   0  0  0  0  0  0  0  0  0  0  0  0
    4.5860   -6.9030   30.5680 O   0  0  0  0  0  0  0  0  0  0  0  0
    4.6740   -7.9670   29.7120 C   0  0  0  0  0  0  0  0  0  0  0  0
    6.1460   -8.3400   29.3570 C   0  0  0  0  0  0  0  0  0  0  0  0
    7.1950   -9.2890   30.0820 C   0  0  0  0  0  0  0  0  0  0  0  0
    7.3320  -10.7030   30.1620 O   0  0  0  0  0  0  0  0  0  0  0  0
    8.6290  -11.3280   29.7990 C   0  0  0  0  0  0  0  0  0  0  0  0
    9.3440  -12.2900   30.8280 C   0  0  0  0  0  0  0  0  0  0  0  0
   10.0050  -13.2240   30.1460 O   0  0  0  0  0  0  0  0  0  0  0  0
   10.5810  -12.5960   29.1150 C   0  0  0  0  0  0  0  0  0  0  0  0
    3.9600   -4.8290   29.5530 C   0  0  0  0  0  0  0  0  0  0  0  0
    4.2670   -3.7110   28.8400 C   0  0  0  0  0  0  0  0  0  0  0  0
    6.8240   -2.6880   23.0940 C   0  0  0  0  0  0  0  0  0  0  0  0
    7.6630   -3.1850   22.1190 C   0  0  0  0  0  0  0  0  0  0  0  0
  1  2  1  0
  2  3  2  0
  2  4  1  0
  4  5  1  0
  5  6  1  0
  6  7  1  0
  7  8  1  0
  8  9  2  0
  8 10  1  0
 10 11  1  0
 11 12  1  0
 12 13  2  0
 13 14  1  0
 14 15  2  0
 15 16  1  0
 16 17  1  0
 17 18  1  0
 18 19  1  0
 19 20  1  0
 20 21  1  0
 21 22  1  0
 22 23  1  0
 23 24  1  0
 15 25  1  0
 12 26  1  0
 25 26  2  0
  7 27  1  0
  4 28  1  0
 27 28  1  0
M  END
