piperidine-amides-30490-covalent
     RDKit          3D

 26 28  0  0  0  0  0  0  0  0999 V2000
    6.9990   -3.3610   19.4120 C   0  0  0  0  0  0  0  0  0  0  0  0
    6.3530   -4.2300   20.4050 C   0  0  0  0  0  0  0  0  0  0  0  0
    5.4160   -4.9470   20.0060 O   0  0  0  0  0  0  0  0  0  0  0  0
    6.7610   -4.3220   21.7640 N   0  0  0  0  0  0  0  0  0  0  0  0
    6.4710   -5.4970   22.5590 C   0  0  0  0  0  0  0  0  0  0  0  0
    5.9680   -5.0330   23.9250 C   0  0  0  0  0  0  0  0  0  0  0  0
    5.7590   -3.5400   24.0270 C   0  0  0  0  0  0  0  0  0  0  0  0
    4.9390   -3.0600   25.2300 C   0  0  0  0  0  0  0  0  0  0  0  0
    3.7040   -2.8820   25.0780 O   0  0  0  0  0  0  0  0  0  0  0  0
    5.4200   -2.8030   26.5480 N   0  0  0  0  0  0  0  0  0  0  0  0
    6.5070   -3.5590   26.8680 C   0  0  0  0  0  0  0  0  0  0  0  0
    5.9420   -4.9270   26.9860 C   0  0  0  0  0  0  0  0  0  0  0  0
    5.6490   -5.3630   28.3270 C   0  0  0  0  0  0  0  0  0  0  0  0
    6.3990   -6.5150   28.8890 C   0  0  0  0  0  0  0  0  0  0  0  0
    6.0800   -7.0090   30.2850 C   0  0  0  0  0  0  0  0  0  0  0  0
    5.0290   -6.3040   31.0520 C   0  0  0  0  0  0  0  0  0  0  0  0
    4.8210   -6.9780   32.6060 S   0  0  0  0  0  0  0  0  0  0  0  0
    3.8580   -5.7790   33.3410 C   0  0  0  0  0  0  0  0  0  0  0  0
    6.1420   -6.9950   33.2580 O   0  0  0  0  0  0  0  0  0  0  0  0
    4.1530   -8.3350   32.6310 O   0  0  0  0  0  0  0  0  0  0  0  0
    4.3410   -5.1420   30.3810 C   0  0  0  0  0  0  0  0  0  0  0  0
    4.6980   -4.7060   28.9940 C   0  0  0  0  0  0  0  0  0  0  0  0
    3.9280   -3.5290   28.3880 C   0  0  0  0  0  0  0  0  0  0  0  0
    4.5970   -2.3660   27.6630 C   0  0  0  0  0  0  0  0  0  0  0  0
    7.0770   -2.8770   23.7420 C   0  0  0  0  0  0  0  0  0  0  0  0
    7.4660   -3.2030   22.3350 C   0  0  0  0  0  0  0  0  0  0  0  0
  1  2  1  0
  2  3  2  0
  2  4  1  0
  4  5  1  0
  5  6  1  0
  6  7  1  0
  7  8  1  0
  8  9  2  0
  8 10  1  0
 10 11  1  0
 11 12  1  0
 12 13  1  0
 13 14  1  0
 14 15  2  0
 15 16  1  0
 16 17  1  0
 17 18  1  0
 17 19  2  0
 17 20  2  0
 16 21  2  0
 13 22  2  0
 21 22  1  0
 22 23  1  0
 10 24  1  0
 23 24  1  0
  7 25  1  0
  4 26  1  0
 25 26  1  0
M  END
