piperidine-amides-15094-covalent
     RDKit          3D

 19 20  0  0  0  0  0  0  0  0999 V2000
    7.0690   -3.3050   19.3170 C   0  0  0  0  0  0  0  0  0  0  0  0
    6.3780   -4.1160   20.3190 C   0  0  0  0  0  0  0  0  0  0  0  0
    5.3700   -4.7530   19.9580 O   0  0  0  0  0  0  0  0  0  0  0  0
    6.8730   -4.1970   21.6510 N   0  0  0  0  0  0  0  0  0  0  0  0
    7.7090   -3.1370   22.1660 C   0  0  0  0  0  0  0  0  0  0  0  0
    7.4470   -2.9350   23.6310 C   0  0  0  0  0  0  0  0  0  0  0  0
    6.0820   -3.5230   23.8790 C   0  0  0  0  0  0  0  0  0  0  0  0
    5.5820   -3.2160   25.2660 C   0  0  0  0  0  0  0  0  0  0  0  0
    4.3700   -3.0310   25.3630 O   0  0  0  0  0  0  0  0  0  0  0  0
    6.4820   -3.1460   26.3260 N   0  0  0  0  0  0  0  0  0  0  0  0
    6.1440   -3.5750   27.6510 C   0  0  0  0  0  0  0  0  0  0  0  0
    5.6130   -4.8710   27.7470 C   0  0  0  0  0  0  0  0  0  0  0  0
    5.3230   -5.4620   26.6810 O   0  0  0  0  0  0  0  0  0  0  0  0
    4.7200   -6.6790   26.6760 C   0  0  0  0  0  0  0  0  0  0  0  0
    6.4210   -5.8570   28.4750 C   0  0  0  0  0  0  0  0  0  0  0  0
    5.4080   -6.3320   29.3490 C   0  0  0  0  0  0  0  0  0  0  0  0
    4.5450   -5.2390   28.6890 C   0  0  0  0  0  0  0  0  0  0  0  0
    6.0150   -5.0000   23.7050 C   0  0  0  0  0  0  0  0  0  0  0  0
    6.5730   -5.3930   22.3660 C   0  0  0  0  0  0  0  0  0  0  0  0
  1  2  1  0
  2  3  2  0
  2  4  1  0
  4  5  1  0
  5  6  1  0
  6  7  1  0
  7  8  1  0
  8  9  2  0
  8 10  1  0
 10 11  1  0
 11 12  1  0
 12 13  1  0
 13 14  1  0
 12 15  1  0
 15 16  1  0
 12 17  1  0
 16 17  1  0
  7 18  1  0
  4 19  1  0
 18 19  1  0
M  END
