piperidine-amides-11429-covalent
     RDKit          3D

 23 25  0  0  0  0  0  0  0  0999 V2000
    7.0760   -3.3360   19.3020 C   0  0  0  0  0  0  0  0  0  0  0  0
    6.4000   -4.1610   20.3010 C   0  0  0  0  0  0  0  0  0  0  0  0
    5.3840   -4.7990   19.9730 O   0  0  0  0  0  0  0  0  0  0  0  0
    6.9120   -4.2790   21.6030 N   0  0  0  0  0  0  0  0  0  0  0  0
    7.7510   -3.2710   22.2040 C   0  0  0  0  0  0  0  0  0  0  0  0
    7.0880   -2.9260   23.5010 C   0  0  0  0  0  0  0  0  0  0  0  0
    6.5500   -4.1400   24.2060 C   0  0  0  0  0  0  0  0  0  0  0  0
    5.7990   -3.7780   25.4370 C   0  0  0  0  0  0  0  0  0  0  0  0
    4.5320   -3.8200   25.4370 O   0  0  0  0  0  0  0  0  0  0  0  0
    6.4110   -3.3470   26.6390 N   0  0  0  0  0  0  0  0  0  0  0  0
    6.1820   -1.9470   27.0210 C   0  0  2  0  0  0  0  0  0  0  0  0
    6.5010   -1.1530   25.8410 C   0  0  0  0  0  0  0  0  0  0  0  0
    6.1830    0.2470   26.0490 C   0  0  0  0  0  0  0  0  0  0  0  0
    5.9890    0.5610   27.5150 C   0  0  0  0  0  0  0  0  0  0  0  0
    6.4970   -0.2320   28.7190 C   0  0  0  0  0  0  0  0  0  0  0  0
    7.0600   -1.4450   28.1050 C   0  0  0  0  0  0  0  0  0  0  0  0
    4.6870   -0.1400   27.7470 C   0  0  0  0  0  0  0  0  0  0  0  0
    4.0130    0.9100   27.3790 C   0  0  2  0  0  0  0  0  0  0  0  0
    3.6070    0.6480   26.0660 O   0  0  0  0  0  0  0  0  0  0  0  0
    2.9930    1.6700   25.3130 C   0  0  0  0  0  0  0  0  0  0  0  0
    5.1340    1.8470   27.6700 C   0  0  0  0  0  0  0  0  0  0  0  0
    5.6900   -4.9600   23.2270 C   0  0  0  0  0  0  0  0  0  0  0  0
    6.4460   -5.4040   22.4010 C   0  0  0  0  0  0  0  0  0  0  0  0
  1  2  1  0
  2  3  2  0
  2  4  1  0
  4  5  1  0
  5  6  1  0
  6  7  1  0
  7  8  1  0
  8  9  2  0
  8 10  1  0
 11 10  1  6
 11 12  1  0
 12 13  1  0
 14 13  1  0
 14 15  1  0
 11 16  1  0
 15 16  1  0
 14 17  1  0
 17 18  1  0
 18 19  1  6
 19 20  1  0
 14 21  1  0
 18 21  1  0
  7 22  1  0
  4 23  1  0
 22 23  1  0
M  END
