piperidine-amides-25026-covalent
     RDKit          3D

 24 25  0  0  0  0  0  0  0  0999 V2000
    7.0530   -3.3230   19.3230 C   0  0  0  0  0  0  0  0  0  0  0  0
    6.3670   -4.1870   20.3180 C   0  0  0  0  0  0  0  0  0  0  0  0
    5.3420   -4.7580   19.9520 O   0  0  0  0  0  0  0  0  0  0  0  0
    6.9050   -4.3750   21.5930 N   0  0  0  0  0  0  0  0  0  0  0  0
    6.5810   -5.5240   22.3920 C   0  0  0  0  0  0  0  0  0  0  0  0
    5.6580   -5.0930   23.4970 C   0  0  0  0  0  0  0  0  0  0  0  0
    6.3380   -3.9780   24.2960 C   0  0  0  0  0  0  0  0  0  0  0  0
    5.3630   -3.4570   25.2920 C   0  0  0  0  0  0  0  0  0  0  0  0
    4.5240   -2.6330   24.9180 O   0  0  0  0  0  0  0  0  0  0  0  0
    5.3560   -3.8610   26.6520 N   0  0  0  0  0  0  0  0  0  0  0  0
    6.4050   -3.4210   27.4540 C   0  0  0  0  0  0  0  0  0  0  0  0
    6.6740   -4.5930   28.3900 C   0  0  0  0  0  0  0  0  0  0  0  0
    5.4660   -4.7010   29.1910 N   0  0  0  0  0  0  0  0  0  0  0  0
    5.0680   -6.1120   29.0940 C   0  0  0  0  0  0  0  0  0  0  0  0
    4.5540   -6.4880   30.2910 C   0  0  0  0  0  0  0  0  0  0  0  0
    3.2760   -6.0140   30.5330 O   0  0  0  0  0  0  0  0  0  0  0  0
    3.1660   -5.3030   31.7120 C   0  0  0  0  0  0  0  0  0  0  0  0
    3.7210   -6.0270   32.9240 C   0  0  0  0  0  0  0  0  0  0  0  0
    4.5490   -3.7480   28.9500 C   0  0  1  0  0  0  0  0  0  0  0  0
    4.4960   -2.4110   29.6490 C   0  0  0  0  0  0  0  0  0  0  0  0
    5.9170   -1.9480   29.6080 C   0  0  0  0  0  0  0  0  0  0  0  0
    4.2360   -3.7250   27.5870 C   0  0  0  0  0  0  0  0  0  0  0  0
    6.9860   -2.9110   23.4990 C   0  0  0  0  0  0  0  0  0  0  0  0
    7.6590   -3.3140   22.2390 C   0  0  0  0  0  0  0  0  0  0  0  0
  1  2  1  0
  2  3  2  0
  2  4  1  0
  4  5  1  0
  5  6  1  0
  6  7  1  0
  7  8  1  0
  8  9  2  0
  8 10  1  0
 10 11  1  0
 11 12  1  0
 12 13  1  0
 13 14  1  0
 14 15  1  0
 15 16  1  0
 16 17  1  0
 17 18  1  0
 13 19  1  0
 19 20  1  6
 20 21  1  0
 10 22  1  0
 19 22  1  0
  7 23  1  0
  4 24  1  0
 23 24  1  0
M  END
