piperidine-amides-898-covalent
     RDKit          3D

 24 26  0  0  0  0  0  0  0  0999 V2000
    7.0510   -3.2480   19.2390 C   0  0  0  0  0  0  0  0  0  0  0  0
    6.2730   -4.0150   20.2560 C   0  0  0  0  0  0  0  0  0  0  0  0
    5.2520   -4.6160   19.8950 O   0  0  0  0  0  0  0  0  0  0  0  0
    6.7260   -4.0790   21.5910 N   0  0  0  0  0  0  0  0  0  0  0  0
    7.6210   -3.1050   22.1750 C   0  0  0  0  0  0  0  0  0  0  0  0
    7.0730   -2.6660   23.5420 C   0  0  0  0  0  0  0  0  0  0  0  0
    5.8160   -3.4270   23.8450 C   0  0  0  0  0  0  0  0  0  0  0  0
    5.2380   -3.1320   25.1830 C   0  0  0  0  0  0  0  0  0  0  0  0
    4.0080   -3.0460   25.2160 O   0  0  0  0  0  0  0  0  0  0  0  0
    6.0170   -2.9570   26.3410 N   0  0  0  0  0  0  0  0  0  0  0  0
    5.5180   -3.0000   27.6790 C   0  0  0  0  0  0  0  0  0  0  0  0
    5.9360   -3.8690   28.6610 C   0  0  0  0  0  0  0  0  0  0  0  0
    6.8400   -4.8120   28.2770 C   0  0  0  0  0  0  0  0  0  0  0  0
    7.6040   -4.6330   27.2360 C   0  0  0  0  0  0  0  0  0  0  0  0
    8.4010   -5.6020   26.9710 N   0  0  0  0  0  0  0  0  0  0  0  0
    9.2150   -5.5570   25.9510 C   0  0  2  0  0  0  0  0  0  0  0  0
   10.4870   -4.7720   26.1240 C   0  0  0  0  0  0  0  0  0  0  0  0
   10.3060   -3.5240   25.2770 C   0  0  0  0  0  0  0  0  0  0  0  0
    9.4020   -3.8780   24.3040 O   0  0  0  0  0  0  0  0  0  0  0  0
    8.5350   -4.8290   24.8260 C   0  0  0  0  0  0  0  0  0  0  0  0
    8.1350   -6.4860   27.9330 N   0  0  0  0  0  0  0  0  0  0  0  0
    7.1780   -6.0270   28.7500 N   0  0  0  0  0  0  0  0  0  0  0  0
    5.8620   -4.9120   23.6560 C   0  0  0  0  0  0  0  0  0  0  0  0
    6.4840   -5.2970   22.3280 C   0  0  0  0  0  0  0  0  0  0  0  0
  1  2  1  0
  2  3  2  0
  2  4  1  0
  4  5  1  0
  5  6  1  0
  6  7  1  0
  7  8  1  0
  8  9  2  0
  8 10  1  0
 10 11  1  0
 11 12  1  0
 12 13  1  0
 13 14  2  0
 14 15  1  0
 16 15  1  1
 16 17  1  0
 17 18  1  0
 18 19  1  0
 16 20  1  0
 19 20  1  0
 15 21  1  0
 13 22  1  0
 21 22  2  0
  7 23  1  0
  4 24  1  0
 23 24  1  0
M  END
