piperidine-amides-31155-covalent
     RDKit          3D

 28 30  0  0  0  0  0  0  0  0999 V2000
    7.0850   -3.2980   19.2660 C   0  0  0  0  0  0  0  0  0  0  0  0
    6.3630   -4.0860   20.2670 C   0  0  0  0  0  0  0  0  0  0  0  0
    5.3240   -4.6710   19.9330 O   0  0  0  0  0  0  0  0  0  0  0  0
    6.8480   -4.2320   21.5780 N   0  0  0  0  0  0  0  0  0  0  0  0
    7.7100   -3.2560   22.2010 C   0  0  0  0  0  0  0  0  0  0  0  0
    6.9250   -2.7140   23.3580 C   0  0  0  0  0  0  0  0  0  0  0  0
    6.4150   -3.8070   24.2530 C   0  0  0  0  0  0  0  0  0  0  0  0
    5.6660   -3.2880   25.4440 C   0  0  0  0  0  0  0  0  0  0  0  0
    4.4060   -3.1790   25.3690 O   0  0  0  0  0  0  0  0  0  0  0  0
    6.2390   -2.8820   26.6910 N   0  0  0  0  0  0  0  0  0  0  0  0
    6.2810   -3.8780   27.8010 C   0  0  0  0  0  0  0  0  0  0  0  0
    6.1300   -5.2630   27.3180 C   0  0  0  0  0  0  0  0  0  0  0  0
    6.0040   -6.3290   28.3270 C   0  0  0  0  0  0  0  0  0  0  0  0
    5.9860   -1.5550   27.1680 C   0  0  1  0  0  0  0  0  0  0  0  0
    6.8930   -1.1580   28.3150 C   0  0  0  0  0  0  0  0  0  0  0  0
    6.0970   -0.3850   26.1670 C   0  0  0  0  0  0  0  0  0  0  0  0
    6.1020   -0.8000   24.8540 C   0  0  0  0  0  0  0  0  0  0  0  0
    6.1980    0.0710   23.7820 C   0  0  0  0  0  0  0  0  0  0  0  0
    6.3070    1.5410   23.9580 C   0  0  0  0  0  0  0  0  0  0  0  0
    6.2970    1.9970   25.4010 C   0  0  0  0  0  0  0  0  0  0  0  0
    6.1890    1.0720   26.6080 C   0  0  0  0  0  0  0  0  0  0  0  0
    6.4060    3.4250   25.5280 N   0  0  0  0  0  0  0  0  0  0  0  0
    7.3210    3.9770   24.6450 C   0  0  0  0  0  0  0  0  0  0  0  0
    8.2710    4.7300   24.9640 O   0  0  0  0  0  0  0  0  0  0  0  0
    7.0300    3.5610   23.2390 C   0  0  0  0  0  0  0  0  0  0  0  0
    6.4030    2.3420   23.0000 O   0  0  0  0  0  0  0  0  0  0  0  0
    5.6150   -4.8420   23.4750 C   0  0  0  0  0  0  0  0  0  0  0  0
    6.4810   -5.3920   22.3370 C   0  0  0  0  0  0  0  0  0  0  0  0
  1  2  1  0
  2  3  2  0
  2  4  1  0
  4  5  1  0
  5  6  1  0
  6  7  1  0
  7  8  1  0
  8  9  2  0
  8 10  1  0
 10 11  1  0
 11 12  1  0
 12 13  3  0
 10 14  1  0
 14 15  1  1
 14 16  1  0
 16 17  2  0
 17 18  1  0
 18 19  2  0
 19 20  1  0
 16 21  1  0
 20 21  2  0
 20 22  1  0
 22 23  1  0
 23 24  2  0
 23 25  1  0
 19 26  1  0
 25 26  1  0
  7 27  1  0
  4 28  1  0
 27 28  1  0
M  END
