piperidine-amides-24776-covalent
     RDKit          3D

 24 25  0  0  0  0  0  0  0  0999 V2000
    7.0800   -3.3300   19.2570 C   0  0  0  0  0  0  0  0  0  0  0  0
    6.3700   -4.1380   20.2620 C   0  0  0  0  0  0  0  0  0  0  0  0
    5.3360   -4.7680   19.9550 O   0  0  0  0  0  0  0  0  0  0  0  0
    6.8690   -4.2510   21.5610 N   0  0  0  0  0  0  0  0  0  0  0  0
    7.6080   -3.1390   22.1140 C   0  0  0  0  0  0  0  0  0  0  0  0
    6.8110   -2.6670   23.3170 C   0  0  0  0  0  0  0  0  0  0  0  0
    6.6890   -3.8810   24.2060 C   0  0  0  0  0  0  0  0  0  0  0  0
    6.0710   -3.4520   25.4640 C   0  0  0  0  0  0  0  0  0  0  0  0
    4.8400   -3.6180   25.6290 O   0  0  0  0  0  0  0  0  0  0  0  0
    6.9000   -2.8300   26.4270 N   0  0  0  0  0  0  0  0  0  0  0  0
    7.5250   -3.5550   27.5110 C   0  0  0  0  0  0  0  0  0  0  0  0
    7.8990   -4.9640   27.1080 C   0  0  0  0  0  0  0  0  0  0  0  0
    8.6350   -5.7150   27.9620 C   0  0  0  0  0  0  0  0  0  0  0  0
    8.7750   -4.8610   25.8860 C   0  0  0  0  0  0  0  0  0  0  0  0
    6.7640   -1.6630   27.2970 C   0  0  0  0  0  0  0  0  0  0  0  0
    6.0820   -0.7440   26.6270 C   0  0  0  0  0  0  0  0  0  0  0  0
    5.6500    0.6350   27.0290 C   0  0  0  0  0  0  0  0  0  0  0  0
    4.9530    1.6030   26.3760 F   0  0  0  0  0  0  0  0  0  0  0  0
    6.2680    0.6050   28.4690 C   0  0  0  0  0  0  0  0  0  0  0  0
    7.0720   -0.3330   29.4090 C   0  0  0  0  0  0  0  0  0  0  0  0
    7.5160   -0.1400   30.6650 F   0  0  0  0  0  0  0  0  0  0  0  0
    7.2130   -1.4900   28.5380 C   0  0  0  0  0  0  0  0  0  0  0  0
    5.8320   -4.9090   23.5250 C   0  0  0  0  0  0  0  0  0  0  0  0
    6.4150   -5.3420   22.3650 C   0  0  0  0  0  0  0  0  0  0  0  0
  1  2  1  0
  2  3  2  0
  2  4  1  0
  4  5  1  0
  5  6  1  0
  6  7  1  0
  7  8  1  0
  8  9  2  0
  8 10  1  0
 10 11  1  0
 11 12  1  0
 12 13  1  0
 12 14  1  0
 10 15  1  0
 15 16  2  0
 16 17  1  0
 17 18  1  0
 17 19  2  0
 19 20  1  0
 20 21  1  0
 15 22  1  0
 20 22  2  0
  7 23  1  0
  4 24  1  0
 23 24  1  0
M  END
