piperidine-amides-32395-covalent
     RDKit          3D

 24 25  0  0  0  0  0  0  0  0999 V2000
    7.0660   -3.2940   19.3230 C   0  0  0  0  0  0  0  0  0  0  0  0
    6.3550   -4.1170   20.3420 C   0  0  0  0  0  0  0  0  0  0  0  0
    5.3800   -4.7990   19.9740 O   0  0  0  0  0  0  0  0  0  0  0  0
    6.8200   -4.1330   21.6820 N   0  0  0  0  0  0  0  0  0  0  0  0
    7.6990   -3.0880   22.1900 C   0  0  0  0  0  0  0  0  0  0  0  0
    7.5090   -2.9870   23.7070 C   0  0  0  0  0  0  0  0  0  0  0  0
    6.1830   -3.5980   23.9870 C   0  0  0  0  0  0  0  0  0  0  0  0
    5.6070   -3.3470   25.3380 C   0  0  0  0  0  0  0  0  0  0  0  0
    4.3840   -3.5020   25.4010 O   0  0  0  0  0  0  0  0  0  0  0  0
    6.3560   -2.9530   26.4680 N   0  0  0  0  0  0  0  0  0  0  0  0
    6.8770   -1.6310   26.5750 C   0  0  0  0  0  0  0  0  0  0  0  0
    6.0120   -3.5840   27.7190 C   0  0  1  0  0  0  0  0  0  0  0  0
    6.8550   -4.5200   28.3190 C   0  0  0  0  0  0  0  0  0  0  0  0
    6.0690   -5.4310   29.1330 N   0  0  0  0  0  0  0  0  0  0  0  0
    5.5500   -2.5350   28.7070 C   0  0  0  0  0  0  0  0  0  0  0  0
    6.6270   -1.7290   29.3320 C   0  0  0  0  0  0  0  0  0  0  0  0
    6.3580   -0.6180   30.3620 C   0  0  0  0  0  0  0  0  0  0  0  0
    7.6600    0.4620   31.2100 Br  0  0  0  0  0  0  0  0  0  0  0  0
    4.8550   -0.4770   30.6350 C   0  0  0  0  0  0  0  0  0  0  0  0
    3.8880   -1.2550   30.0260 C   0  0  0  0  0  0  0  0  0  0  0  0
    4.2420   -2.3040   29.0420 C   0  0  0  0  0  0  0  0  0  0  0  0
    3.2530   -3.0380   28.4750 F   0  0  0  0  0  0  0  0  0  0  0  0
    6.0840   -5.0630   23.6780 C   0  0  0  0  0  0  0  0  0  0  0  0
    6.6910   -5.3290   22.4720 C   0  0  0  0  0  0  0  0  0  0  0  0
  1  2  1  0
  2  3  2  0
  2  4  1  0
  4  5  1  0
  5  6  1  0
  6  7  1  0
  7  8  1  0
  8  9  2  0
  8 10  1  0
 10 11  1  0
 10 12  1  0
 12 13  1  1
 13 14  3  0
 12 15  1  0
 15 16  2  0
 16 17  1  0
 17 18  1  0
 17 19  2  0
 19 20  1  0
 15 21  1  0
 20 21  2  0
 21 22  1  0
  7 23  1  0
  4 24  1  0
 23 24  1  0
M  END
