piperidine-amides-9052-covalent
     RDKit          3D

 21 22  0  0  0  0  0  0  0  0999 V2000
    7.0580   -3.3370   19.3240 C   0  0  0  0  0  0  0  0  0  0  0  0
    6.3810   -4.1630   20.3290 C   0  0  0  0  0  0  0  0  0  0  0  0
    5.3890   -4.8290   19.9800 O   0  0  0  0  0  0  0  0  0  0  0  0
    6.8440   -4.2600   21.6590 N   0  0  0  0  0  0  0  0  0  0  0  0
    6.7130   -5.4880   22.4200 C   0  0  0  0  0  0  0  0  0  0  0  0
    6.0490   -5.1090   23.7180 C   0  0  0  0  0  0  0  0  0  0  0  0
    6.0830   -3.6290   23.9450 C   0  0  0  0  0  0  0  0  0  0  0  0
    5.6370   -3.2140   25.2970 C   0  0  0  0  0  0  0  0  0  0  0  0
    4.4020   -3.1260   25.5540 O   0  0  0  0  0  0  0  0  0  0  0  0
    6.5280   -2.9120   26.3440 N   0  0  0  0  0  0  0  0  0  0  0  0
    6.4620   -1.6360   27.0890 C   0  0  0  0  0  0  0  0  0  0  0  0
    7.0760   -1.6360   28.4530 C   0  0  0  0  0  0  0  0  0  0  0  0
    7.0280   -0.3960   29.2100 C   0  0  0  0  0  0  0  0  0  0  0  0
    7.6250   -0.3040   30.5900 C   0  0  0  0  0  0  0  0  0  0  0  0
    6.3880    0.7800   28.6130 C   0  0  0  0  0  0  0  0  0  0  0  0
    6.4430    1.9340   29.5430 C   0  0  0  0  0  0  0  0  0  0  0  0
    5.7640    0.7800   27.2290 C   0  0  0  0  0  0  0  0  0  0  0  0
    5.1920    1.7750   26.6620 O   0  0  0  0  0  0  0  0  0  0  0  0
    5.7960   -0.4090   26.4660 C   0  0  0  0  0  0  0  0  0  0  0  0
    7.4640   -3.0350   23.6650 C   0  0  0  0  0  0  0  0  0  0  0  0
    7.6990   -3.1940   22.1610 C   0  0  0  0  0  0  0  0  0  0  0  0
  1  2  1  0
  2  3  2  0
  2  4  1  0
  4  5  1  0
  5  6  1  0
  6  7  1  0
  7  8  1  0
  8  9  2  0
  8 10  1  0
 10 11  1  0
 11 12  2  0
 12 13  1  0
 13 14  1  0
 13 15  2  0
 15 16  1  0
 15 17  1  0
 17 18  1  0
 11 19  1  0
 17 19  2  0
  7 20  1  0
  4 21  1  0
 20 21  1  0
M  END
