piperidine-amides-5574-covalent
     RDKit          3D

 19 20  0  0  0  0  0  0  0  0999 V2000
    6.9340   -3.3130   19.4300 C   0  0  0  0  0  0  0  0  0  0  0  0
    6.2650   -4.1760   20.4200 C   0  0  0  0  0  0  0  0  0  0  0  0
    5.3930   -4.9490   19.9980 O   0  0  0  0  0  0  0  0  0  0  0  0
    6.5560   -4.2110   21.8140 N   0  0  0  0  0  0  0  0  0  0  0  0
    7.3750   -3.2330   22.5280 C   0  0  0  0  0  0  0  0  0  0  0  0
    6.6790   -2.8010   23.8390 C   0  0  0  0  0  0  0  0  0  0  0  0
    6.0250   -3.9230   24.6450 C   0  0  0  0  0  0  0  0  0  0  0  0
    5.1310   -3.4680   25.8200 C   0  0  0  0  0  0  0  0  0  0  0  0
    3.9990   -2.9930   25.5150 O   0  0  0  0  0  0  0  0  0  0  0  0
    5.4100   -3.4860   27.2810 N   0  0  0  0  0  0  0  0  0  0  0  0
    5.0480   -4.6350   28.2630 C   0  0  0  0  0  0  0  0  0  0  0  0
    5.8850   -5.5580   27.6110 C   0  0  0  0  0  0  0  0  0  0  0  0
    7.1380   -6.1740   28.0460 C   0  0  0  0  0  0  0  0  0  0  0  0
    7.6740   -6.8400   26.8140 N   0  0  0  0  0  0  0  0  0  0  0  0
    9.3120   -7.4680   26.5210 C   0  0  0  0  0  0  0  0  0  0  0  0
    6.6600   -6.6110   25.9830 N   0  0  0  0  0  0  0  0  0  0  0  0
    5.6610   -5.9360   26.4000 N   0  0  0  0  0  0  0  0  0  0  0  0
    5.3700   -4.9360   23.7610 C   0  0  0  0  0  0  0  0  0  0  0  0
    6.2050   -5.3540   22.6000 C   0  0  0  0  0  0  0  0  0  0  0  0
  1  2  1  0
  2  3  2  0
  2  4  1  0
  4  5  1  0
  5  6  1  0
  6  7  1  0
  7  8  1  0
  8  9  2  0
  8 10  1  0
 10 11  1  0
 11 12  1  0
 12 13  2  0
 13 14  1  0
 14 15  1  0
 14 16  1  0
 12 17  1  0
 16 17  2  0
  7 18  1  0
  4 19  1  0
 18 19  1  0
M  END
