piperidine-amides-28613-covalent
     RDKit          3D

 26 28  0  0  0  0  0  0  0  0999 V2000
    6.9590   -3.3750   19.4400 C   0  0  0  0  0  0  0  0  0  0  0  0
    6.3360   -4.2660   20.4260 C   0  0  0  0  0  0  0  0  0  0  0  0
    5.4190   -5.0010   20.0110 O   0  0  0  0  0  0  0  0  0  0  0  0
    6.7720   -4.3080   21.7890 N   0  0  0  0  0  0  0  0  0  0  0  0
    6.6130   -5.5300   22.5380 C   0  0  0  0  0  0  0  0  0  0  0  0
    6.0200   -5.2290   23.8930 C   0  0  0  0  0  0  0  0  0  0  0  0
    5.8960   -3.7270   23.9320 C   0  0  0  0  0  0  0  0  0  0  0  0
    5.2930   -3.1320   25.2070 C   0  0  0  0  0  0  0  0  0  0  0  0
    4.9630   -1.9650   25.0940 O   0  0  0  0  0  0  0  0  0  0  0  0
    5.0970   -3.8440   26.4070 N   0  0  0  0  0  0  0  0  0  0  0  0
    4.2740   -3.3340   27.4440 C   0  0  0  0  0  0  0  0  0  0  0  0
    4.3850   -3.9930   28.6710 C   0  0  0  0  0  0  0  0  0  0  0  0
    5.6200   -3.9620   29.1970 C   0  0  0  0  0  0  0  0  0  0  0  0
    5.9180   -2.6130   29.5840 N   0  0  0  0  0  0  0  0  0  0  0  0
    4.9590   -1.9980   30.3540 C   0  0  0  0  0  0  0  0  0  0  0  0
    5.4140   -0.6370   30.6590 C   0  0  0  0  0  0  0  0  0  0  0  0
    4.6420    0.4060   31.5030 C   0  0  0  0  0  0  0  0  0  0  0  0
    5.3500    1.4380   31.6140 O   0  0  0  0  0  0  0  0  0  0  0  0
    3.4460    0.1940   31.9990 O   0  0  0  0  0  0  0  0  0  0  0  0
    3.4810    0.2190   33.3860 C   0  0  0  0  0  0  0  0  0  0  0  0
    6.6100   -0.6520   30.0030 N   0  0  0  0  0  0  0  0  0  0  0  0
    6.9380   -1.8050   29.3540 N   0  0  0  0  0  0  0  0  0  0  0  0
    6.5400   -4.5880   28.4550 C   0  0  0  0  0  0  0  0  0  0  0  0
    6.2970   -4.3730   26.9400 C   0  0  0  0  0  0  0  0  0  0  0  0
    7.2750   -3.1420   23.7080 C   0  0  0  0  0  0  0  0  0  0  0  0
    7.5730   -3.2300   22.3530 C   0  0  0  0  0  0  0  0  0  0  0  0
  1  2  1  0
  2  3  2  0
  2  4  1  0
  4  5  1  0
  5  6  1  0
  6  7  1  0
  7  8  1  0
  8  9  2  0
  8 10  1  0
 10 11  1  0
 11 12  1  0
 12 13  1  0
 13 14  1  0
 14 15  1  0
 15 16  2  0
 16 17  1  0
 17 18  2  0
 17 19  1  0
 19 20  1  0
 16 21  1  0
 14 22  1  0
 21 22  2  0
 13 23  1  0
 10 24  1  0
 23 24  1  0
  7 25  1  0
  4 26  1  0
 25 26  1  0
M  END
