piperidine-amides-17056-covalent
     RDKit          3D

 20 22  0  0  0  0  0  0  0  0999 V2000
    7.1410   -3.3580   19.3220 C   0  0  0  0  0  0  0  0  0  0  0  0
    6.4140   -4.1560   20.3120 C   0  0  0  0  0  0  0  0  0  0  0  0
    5.3320   -4.6760   19.9420 O   0  0  0  0  0  0  0  0  0  0  0  0
    6.9690   -4.3720   21.5990 N   0  0  0  0  0  0  0  0  0  0  0  0
    6.4910   -5.4420   22.3880 C   0  0  0  0  0  0  0  0  0  0  0  0
    6.0490   -5.0480   23.7290 C   0  0  0  0  0  0  0  0  0  0  0  0
    6.7610   -3.9170   24.3830 C   0  0  0  0  0  0  0  0  0  0  0  0
    5.9730   -3.3360   25.5160 C   0  0  0  0  0  0  0  0  0  0  0  0
    5.2120   -2.3800   25.2690 O   0  0  0  0  0  0  0  0  0  0  0  0
    6.0300   -3.8160   26.8450 N   0  0  0  0  0  0  0  0  0  0  0  0
    7.0040   -4.7240   27.4400 C   0  0  0  0  0  0  0  0  0  0  0  0
    6.6100   -5.9050   28.3100 C   0  0  0  0  0  0  0  0  0  0  0  0
    5.6360   -5.6580   29.1460 O   0  0  0  0  0  0  0  0  0  0  0  0
    5.4620   -4.3770   28.8490 C   0  0  1  0  0  0  0  0  0  0  0  0
    6.6670   -4.3520   28.2540 C   0  0  0  0  0  0  0  0  0  0  0  0
    6.4400   -5.4500   27.6400 O   0  0  0  0  0  0  0  0  0  0  0  0
    5.0460   -5.6140   27.3780 C   0  0  0  0  0  0  0  0  0  0  0  0
    4.8610   -4.1840   27.5260 C   0  0  2  0  0  0  0  0  0  0  0  0
    7.0220   -2.7920   23.3800 C   0  0  0  0  0  0  0  0  0  0  0  0
    7.8050   -3.3990   22.2560 C   0  0  0  0  0  0  0  0  0  0  0  0
  1  2  1  0
  2  3  2  0
  2  4  1  0
  4  5  1  0
  5  6  1  0
  6  7  1  0
  7  8  1  0
  8  9  2  0
  8 10  1  0
 10 11  1  0
 11 12  1  0
 12 13  1  0
 13 14  1  0
 14 15  1  6
 15 16  1  0
 16 17  1  0
 10 18  1  0
 14 18  1  0
 18 17  1  6
  7 19  1  0
  4 20  1  0
 19 20  1  0
M  END
