piperidine-amides-32994-covalent
     RDKit          3D

 29 31  0  0  0  0  0  0  0  0999 V2000
    7.2020   -3.9830   19.6220 C   0  0  0  0  0  0  0  0  0  0  0  0
    5.9850   -3.8680   20.3250 C   0  0  0  0  0  0  0  0  0  0  0  0
    4.9660   -4.1210   19.6790 O   0  0  0  0  0  0  0  0  0  0  0  0
    6.1180   -3.5920   21.6690 N   0  0  0  0  0  0  0  0  0  0  0  0
    7.2820   -2.8160   22.0530 C   0  0  0  0  0  0  0  0  0  0  0  0
    7.3240   -2.7330   23.5770 C   0  0  0  0  0  0  0  0  0  0  0  0
    5.9160   -2.8680   24.0430 C   0  0  0  0  0  0  0  0  0  0  0  0
    5.6940   -2.6850   25.4970 C   0  0  0  0  0  0  0  0  0  0  0  0
    4.5530   -2.9770   25.8790 O   0  0  0  0  0  0  0  0  0  0  0  0
    6.6910   -2.1920   26.3710 N   0  0  0  0  0  0  0  0  0  0  0  0
    8.0790   -2.1570   26.1140 C   0  0  0  0  0  0  0  0  0  0  0  0
    6.3240   -1.8280   27.6980 C   0  0  0  0  0  0  0  0  0  0  0  0
    5.5360   -2.7610   28.3450 C   0  0  0  0  0  0  0  0  0  0  0  0
    4.3780   -2.6850   29.0910 C   0  0  0  0  0  0  0  0  0  0  0  0
    3.7160   -3.8760   29.6810 C   0  0  0  0  0  0  0  0  0  0  0  0
    4.2970   -5.2740   29.4750 C   0  0  0  0  0  0  0  0  0  0  0  0
    3.7080   -6.4170   30.0030 O   0  0  0  0  0  0  0  0  0  0  0  0
    4.4550   -7.5910   30.2400 C   0  0  0  0  0  0  0  0  0  0  0  0
    5.4750   -5.3170   28.7180 C   0  0  0  0  0  0  0  0  0  0  0  0
    6.2250   -6.5240   28.3790 C   0  0  0  0  0  0  0  0  0  0  0  0
    7.1440   -6.2070   27.3040 N   0  0  0  0  0  0  0  0  0  0  0  0
    6.5940   -5.5900   26.1650 C   0  0  0  0  0  0  0  0  0  0  0  0
    7.5890   -5.2470   25.2900 C   0  0  0  0  0  0  0  0  0  0  0  0
    8.5740   -6.0340   25.2660 O   0  0  0  0  0  0  0  0  0  0  0  0
    9.3420   -6.0450   26.4120 C   0  0  0  0  0  0  0  0  0  0  0  0
    8.4830   -5.7730   27.6360 C   0  0  0  0  0  0  0  0  0  0  0  0
    6.0290   -4.1610   28.2120 C   0  0  0  0  0  0  0  0  0  0  0  0
    5.2900   -4.2150   23.7280 C   0  0  0  0  0  0  0  0  0  0  0  0
    5.6930   -4.6610   22.4990 C   0  0  0  0  0  0  0  0  0  0  0  0
  1  2  1  0
  2  3  2  0
  2  4  1  0
  4  5  1  0
  5  6  1  0
  6  7  1  0
  7  8  1  0
  8  9  2  0
  8 10  1  0
 10 11  1  0
 10 12  1  0
 12 13  1  0
 13 14  2  0
 14 15  1  0
 15 16  2  0
 16 17  1  0
 17 18  1  0
 16 19  1  0
 19 20  1  0
 20 21  1  0
 21 22  1  0
 22 23  1  0
 23 24  1  0
 24 25  1  0
 21 26  1  0
 25 26  1  0
 13 27  1  0
 19 27  2  0
  7 28  1  0
  4 29  1  0
 28 29  1  0
M  END
