piperidine-amides-29142-covalent
     RDKit          3D

 26 28  0  0  0  0  0  0  0  0999 V2000
    7.0940   -3.3420   19.3040 C   0  0  0  0  0  0  0  0  0  0  0  0
    6.4270   -4.1690   20.3010 C   0  0  0  0  0  0  0  0  0  0  0  0
    5.3920   -4.7820   19.9720 O   0  0  0  0  0  0  0  0  0  0  0  0
    7.0020   -4.2940   21.5880 N   0  0  0  0  0  0  0  0  0  0  0  0
    6.6010   -5.3900   22.4180 C   0  0  0  0  0  0  0  0  0  0  0  0
    5.8120   -4.8630   23.5880 C   0  0  0  0  0  0  0  0  0  0  0  0
    6.6330   -3.7640   24.2540 C   0  0  0  0  0  0  0  0  0  0  0  0
    5.8700   -3.1090   25.3690 C   0  0  0  0  0  0  0  0  0  0  0  0
    5.4990   -1.9590   25.1790 O   0  0  0  0  0  0  0  0  0  0  0  0
    5.5840   -3.8240   26.5130 N   0  0  0  0  0  0  0  0  0  0  0  0
    4.6760   -4.8570   26.5270 C   0  0  0  0  0  0  0  0  0  0  0  0
    5.0730   -5.6300   27.5780 C   0  0  0  0  0  0  0  0  0  0  0  0
    6.0480   -4.9650   28.2320 C   0  0  2  0  0  0  0  0  0  0  0  0
    5.9670   -5.1040   29.5670 C   0  0  0  0  0  0  0  0  0  0  0  0
    4.8970   -5.7620   30.2080 N   0  0  0  0  0  0  0  0  0  0  0  0
    3.6400   -5.0260   30.3980 C   0  0  0  0  0  0  0  0  0  0  0  0
    2.8050   -5.6350   31.5510 C   0  0  0  0  0  0  0  0  0  0  0  0
    3.2640   -6.7540   32.0910 N   0  0  0  0  0  0  0  0  0  0  0  0
    2.4430   -7.9160   32.0350 C   0  0  0  0  0  0  0  0  0  0  0  0
    2.4990   -8.8100   33.2440 C   0  0  0  0  0  0  0  0  0  0  0  0
    1.5700   -9.6560   33.3050 O   0  0  0  0  0  0  0  0  0  0  0  0
    4.5050   -7.2190   31.8980 C   0  0  0  0  0  0  0  0  0  0  0  0
    5.0900   -7.1250   30.6540 C   0  0  0  0  0  0  0  0  0  0  0  0
    6.2010   -3.6500   27.7950 C   0  0  0  0  0  0  0  0  0  0  0  0
    7.0300   -2.6820   23.3210 C   0  0  0  0  0  0  0  0  0  0  0  0
    7.7750   -3.2230   22.1580 C   0  0  0  0  0  0  0  0  0  0  0  0
  1  2  1  0
  2  3  2  0
  2  4  1  0
  4  5  1  0
  5  6  1  0
  6  7  1  0
  7  8  1  0
  8  9  2  0
  8 10  1  0
 10 11  1  0
 11 12  1  0
 12 13  1  0
 13 14  1  1
 14 15  1  0
 15 16  1  0
 16 17  1  0
 17 18  1  0
 18 19  1  0
 19 20  1  0
 20 21  1  0
 18 22  1  0
 15 23  1  0
 22 23  1  0
 10 24  1  0
 13 24  1  0
  7 25  1  0
  4 26  1  0
 25 26  1  0
M  END
