piperidine-amides-19240-covalent
     RDKit          3D

 22 23  0  0  0  0  0  0  0  0999 V2000
    7.0890   -3.3970   19.2700 C   0  0  0  0  0  0  0  0  0  0  0  0
    6.4330   -4.1670   20.3040 C   0  0  0  0  0  0  0  0  0  0  0  0
    5.3710   -4.7830   19.9760 O   0  0  0  0  0  0  0  0  0  0  0  0
    6.9510   -4.3120   21.6090 N   0  0  0  0  0  0  0  0  0  0  0  0
    7.8850   -3.2880   22.1370 C   0  0  0  0  0  0  0  0  0  0  0  0
    6.9220   -2.5930   23.1450 C   0  0  0  0  0  0  0  0  0  0  0  0
    6.5340   -3.7000   24.0850 C   0  0  0  0  0  0  0  0  0  0  0  0
    5.7580   -3.0950   25.3220 C   0  0  0  0  0  0  0  0  0  0  0  0
    4.6960   -2.5940   24.9950 O   0  0  0  0  0  0  0  0  0  0  0  0
    6.4690   -3.3190   26.3250 N   0  0  0  0  0  0  0  0  0  0  0  0
    7.1960   -4.0860   27.1860 C   0  0  0  0  0  0  0  0  0  0  0  0
    7.3780   -5.4330   27.4080 C   0  0  0  0  0  0  0  0  0  0  0  0
    6.4170   -1.9880   26.9880 C   0  0  0  0  0  0  0  0  0  0  0  0
    5.5390   -0.8900   26.4200 C   0  0  0  0  0  0  0  0  0  0  0  0
    5.7200    0.2730   27.3560 C   0  0  0  0  0  0  0  0  0  0  0  0
    5.0540    1.4860   27.1510 C   0  0  0  0  0  0  0  0  0  0  0  0
    6.4110    0.7040   28.5700 C   0  0  0  0  0  0  0  0  0  0  0  0
    7.2370   -0.4700   29.0050 C   0  0  0  0  0  0  0  0  0  0  0  0
    7.2910   -1.8570   28.2440 C   0  0  0  0  0  0  0  0  0  0  0  0
    7.9980   -2.9650   28.5290 C   0  0  0  0  0  0  0  0  0  0  0  0
    5.7950   -4.8870   23.4640 C   0  0  0  0  0  0  0  0  0  0  0  0
    6.5410   -5.4030   22.4530 C   0  0  0  0  0  0  0  0  0  0  0  0
  1  2  1  0
  2  3  2  0
  2  4  1  0
  4  5  1  0
  5  6  1  0
  6  7  1  0
  7  8  1  0
  8  9  2  0
  8 10  1  0
 10 11  1  0
 11 12  1  0
 10 13  1  0
 13 14  2  0
 14 15  1  0
 15 16  1  0
 15 17  2  0
 17 18  1  0
 13 19  1  0
 18 19  2  0
 19 20  1  0
  7 21  1  0
  4 22  1  0
 21 22  1  0
M  END
