piperidine-amides-32930-covalent
     RDKit          3D

 29 31  0  0  0  0  0  0  0  0999 V2000
    7.1220   -3.2740   19.2130 C   0  0  0  0  0  0  0  0  0  0  0  0
    6.3670   -4.0570   20.2260 C   0  0  0  0  0  0  0  0  0  0  0  0
    5.3000   -4.5980   19.9030 O   0  0  0  0  0  0  0  0  0  0  0  0
    6.9130   -4.2060   21.5160 N   0  0  0  0  0  0  0  0  0  0  0  0
    7.6450   -3.1460   22.1560 C   0  0  0  0  0  0  0  0  0  0  0  0
    6.7240   -2.6010   23.2470 C   0  0  0  0  0  0  0  0  0  0  0  0
    6.4820   -3.7160   24.2020 C   0  0  0  0  0  0  0  0  0  0  0  0
    5.6920   -3.2930   25.3870 C   0  0  0  0  0  0  0  0  0  0  0  0
    4.4650   -3.2970   25.2480 O   0  0  0  0  0  0  0  0  0  0  0  0
    6.3170   -2.9010   26.5780 N   0  0  0  0  0  0  0  0  0  0  0  0
    6.7640   -1.5760   26.8120 C   0  0  0  0  0  0  0  0  0  0  0  0
    6.3320   -3.7790   27.7060 C   0  0  0  0  0  0  0  0  0  0  0  0
    5.2510   -3.7790   28.5850 C   0  0  0  0  0  0  0  0  0  0  0  0
    4.3490   -2.7170   28.5650 C   0  0  0  0  0  0  0  0  0  0  0  0
    3.2020   -2.6570   29.4610 C   0  0  0  0  0  0  0  0  0  0  0  0
    3.1010   -3.8270   30.3780 C   0  0  0  0  0  0  0  0  0  0  0  0
    2.0660   -4.0050   31.3550 N   0  0  0  0  0  0  0  0  0  0  0  0
    0.6980   -4.0570   30.9800 C   0  0  0  0  0  0  0  0  0  0  0  0
    0.4150   -5.3090   30.4900 C   0  0  0  0  0  0  0  0  0  0  0  0
    0.9140   -6.4310   31.0330 N   0  0  0  0  0  0  0  0  0  0  0  0
    0.6830   -7.5860   30.1910 C   0  0  0  0  0  0  0  0  0  0  0  0
    2.0390   -8.2630   30.0670 C   0  0  0  0  0  0  0  0  0  0  0  0
    3.0490   -7.6130   29.4010 C   0  0  0  0  0  0  0  0  0  0  0  0
    1.7190   -6.2790   32.0810 C   0  0  0  0  0  0  0  0  0  0  0  0
    2.2140   -4.9000   32.4820 C   0  0  0  0  0  0  0  0  0  0  0  0
    4.0050   -4.8190   30.3460 N   0  0  0  0  0  0  0  0  0  0  0  0
    5.1030   -4.8440   29.4670 N   0  0  0  0  0  0  0  0  0  0  0  0
    5.7550   -4.8770   23.5430 C   0  0  0  0  0  0  0  0  0  0  0  0
    6.4870   -5.3360   22.3290 C   0  0  0  0  0  0  0  0  0  0  0  0
  1  2  1  0
  2  3  2  0
  2  4  1  0
  4  5  1  0
  5  6  1  0
  6  7  1  0
  7  8  1  0
  8  9  2  0
  8 10  1  0
 10 11  1  0
 10 12  1  0
 12 13  1  0
 13 14  2  0
 14 15  1  0
 15 16  2  0
 16 17  1  0
 17 18  1  0
 18 19  1  0
 19 20  1  0
 20 21  1  0
 21 22  1  0
 22 23  1  0
 20 24  1  0
 17 25  1  0
 24 25  1  0
 16 26  1  0
 13 27  1  0
 26 27  2  0
  7 28  1  0
  4 29  1  0
 28 29  1  0
M  END
