piperidine-amides-3925-covalent
     RDKit          3D

 26 28  0  0  0  0  0  0  0  0999 V2000
    7.0940   -3.2990   19.2190 C   0  0  0  0  0  0  0  0  0  0  0  0
    6.3760   -4.0580   20.2590 C   0  0  0  0  0  0  0  0  0  0  0  0
    5.3040   -4.6050   19.9090 O   0  0  0  0  0  0  0  0  0  0  0  0
    6.9000   -4.2050   21.5710 N   0  0  0  0  0  0  0  0  0  0  0  0
    6.5210   -5.3540   22.3200 C   0  0  0  0  0  0  0  0  0  0  0  0
    6.1080   -5.0370   23.6830 C   0  0  0  0  0  0  0  0  0  0  0  0
    6.1210   -3.5920   24.0000 C   0  0  0  0  0  0  0  0  0  0  0  0
    5.6070   -3.2930   25.3800 C   0  0  0  0  0  0  0  0  0  0  0  0
    4.3990   -3.0430   25.5210 O   0  0  0  0  0  0  0  0  0  0  0  0
    6.4390   -3.2780   26.5180 N   0  0  0  0  0  0  0  0  0  0  0  0
    6.1830   -3.7840   27.8220 C   0  0  0  0  0  0  0  0  0  0  0  0
    5.0380   -4.6310   28.1590 C   0  0  0  0  0  0  0  0  0  0  0  0
    3.7540   -4.3460   27.9200 N   0  0  0  0  0  0  0  0  0  0  0  0
    3.1360   -5.4690   28.4450 C   0  0  0  0  0  0  0  0  0  0  0  0
    1.7570   -5.5440   28.3870 N   0  0  0  0  0  0  0  0  0  0  0  0
    1.0540   -6.6120   28.8860 C   0  0  0  0  0  0  0  0  0  0  0  0
    1.9130   -7.6890   29.4970 C   0  0  0  0  0  0  0  0  0  0  0  0
    1.0000   -8.7660   29.9980 C   0  0  0  0  0  0  0  0  0  0  0  0
    0.8440   -8.7640   31.3890 O   0  0  0  0  0  0  0  0  0  0  0  0
    0.3510   -9.6890   29.1700 O   0  0  0  0  0  0  0  0  0  0  0  0
    0.5450  -11.0740   29.3940 C   0  0  0  0  0  0  0  0  0  0  0  0
    3.3740   -7.5760   29.5330 C   0  0  0  0  0  0  0  0  0  0  0  0
    3.8800   -6.4360   28.9890 N   0  0  0  0  0  0  0  0  0  0  0  0
    5.1210   -5.8740   28.7930 N   0  0  0  0  0  0  0  0  0  0  0  0
    7.4620   -2.9890   23.6580 C   0  0  0  0  0  0  0  0  0  0  0  0
    7.6510   -3.1120   22.1360 C   0  0  0  0  0  0  0  0  0  0  0  0
  1  2  1  0
  2  3  2  0
  2  4  1  0
  4  5  1  0
  5  6  1  0
  6  7  1  0
  7  8  1  0
  8  9  2  0
  8 10  1  0
 10 11  1  0
 11 12  1  0
 12 13  1  0
 13 14  2  0
 14 15  1  0
 15 16  2  0
 16 17  1  0
 17 18  1  0
 18 19  2  0
 18 20  1  0
 20 21  1  0
 17 22  2  0
 14 23  1  0
 22 23  1  0
 12 24  2  0
 23 24  1  0
  7 25  1  0
  4 26  1  0
 25 26  1  0
M  END
