piperidine-amides-35075-covalent
     RDKit          3D

 32 35  0  0  0  0  0  0  0  0999 V2000
    7.0790   -3.2820   19.2360 C   0  0  0  0  0  0  0  0  0  0  0  0
    6.3680   -4.0690   20.2830 C   0  0  0  0  0  0  0  0  0  0  0  0
    5.3360   -4.6370   19.9240 O   0  0  0  0  0  0  0  0  0  0  0  0
    6.8760   -4.1870   21.5900 N   0  0  0  0  0  0  0  0  0  0  0  0
    6.7150   -5.4210   22.3240 C   0  0  0  0  0  0  0  0  0  0  0  0
    6.0320   -5.1210   23.6220 C   0  0  0  0  0  0  0  0  0  0  0  0
    6.1410   -3.6230   23.8610 C   0  0  0  0  0  0  0  0  0  0  0  0
    5.6250   -3.3330   25.2090 C   0  0  0  0  0  0  0  0  0  0  0  0
    4.4080   -3.4310   25.3990 O   0  0  0  0  0  0  0  0  0  0  0  0
    6.4520   -2.9530   26.2800 N   0  0  0  0  0  0  0  0  0  0  0  0
    6.9680   -1.6110   26.1970 C   0  0  0  0  0  0  0  0  0  0  0  0
    6.0600   -3.4410   27.5650 C   0  0  0  0  0  0  0  0  0  0  0  0
    4.9060   -2.7780   27.8890 C   0  0  0  0  0  0  0  0  0  0  0  0
    4.2540   -1.7290   27.4550 C   0  0  0  0  0  0  0  0  0  0  0  0
    3.1010   -1.5660   28.2450 N   0  0  0  0  0  0  0  0  0  0  0  0
    2.1110   -0.5330   28.1130 C   0  0  0  0  0  0  0  0  0  0  0  0
    2.1520    0.3640   26.8910 C   0  0  0  0  0  0  0  0  0  0  0  0
    1.0800    1.4160   26.8350 C   0  0  0  0  0  0  0  0  0  0  0  0
    0.0570    1.5360   27.9410 C   0  0  0  0  0  0  0  0  0  0  0  0
    0.1740    0.5620   29.0650 C   0  0  0  0  0  0  0  0  0  0  0  0
    1.1630   -0.5260   29.2700 C   0  0  0  0  0  0  0  0  0  0  0  0
    2.9590   -2.4830   29.1990 N   0  0  0  0  0  0  0  0  0  0  0  0
    4.1230   -3.3510   29.0510 C   0  0  0  0  0  0  0  0  0  0  0  0
    4.3780   -4.5210   29.9290 C   0  0  0  0  0  0  0  0  0  0  0  0
    5.4560   -5.5620   29.6340 C   0  0  0  0  0  0  0  0  0  0  0  0
    5.6590   -6.6330   30.5070 C   0  0  0  0  0  0  0  0  0  0  0  0
    4.8260   -6.7960   31.7700 C   0  0  0  0  0  0  0  0  0  0  0  0
    5.0740   -8.1140   32.8890 Cl  0  0  0  0  0  0  0  0  0  0  0  0
    3.7580   -5.7430   32.0210 C   0  0  0  0  0  0  0  0  0  0  0  0
    3.5980   -4.6230   31.0360 C   0  0  0  0  0  0  0  0  0  0  0  0
    7.4850   -3.0170   23.5970 C   0  0  0  0  0  0  0  0  0  0  0  0
    7.7310   -3.1110   22.0840 C   0  0  0  0  0  0  0  0  0  0  0  0
  1  2  1  0
  2  3  2  0
  2  4  1  0
  4  5  1  0
  5  6  1  0
  6  7  1  0
  7  8  1  0
  8  9  2  0
  8 10  1  0
 10 11  1  0
 10 12  1  0
 12 13  1  0
 13 14  2  0
 14 15  1  0
 15 16  1  0
 16 17  2  0
 17 18  1  0
 18 19  2  0
 19 20  1  0
 16 21  1  0
 20 21  2  0
 15 22  1  0
 13 23  1  0
 22 23  2  0
 23 24  1  0
 24 25  2  0
 25 26  1  0
 26 27  2  0
 27 28  1  0
 27 29  1  0
 24 30  1  0
 29 30  2  0
  7 31  1  0
  4 32  1  0
 31 32  1  0
M  END
