piperidine-amides-32911-covalent
     RDKit          3D

 29 31  0  0  0  0  0  0  0  0999 V2000
    7.0570   -3.3420   19.3540 C   0  0  0  0  0  0  0  0  0  0  0  0
    6.3780   -4.2210   20.3490 C   0  0  0  0  0  0  0  0  0  0  0  0
    5.3810   -4.8650   19.9860 O   0  0  0  0  0  0  0  0  0  0  0  0
    6.9000   -4.3470   21.6630 N   0  0  0  0  0  0  0  0  0  0  0  0
    6.6580   -5.5550   22.4350 C   0  0  0  0  0  0  0  0  0  0  0  0
    6.3390   -5.1900   23.9040 C   0  0  0  0  0  0  0  0  0  0  0  0
    6.3080   -3.7040   24.0200 C   0  0  0  0  0  0  0  0  0  0  0  0
    6.0860   -3.1180   25.3670 C   0  0  0  0  0  0  0  0  0  0  0  0
    5.9010   -1.9070   25.3870 O   0  0  0  0  0  0  0  0  0  0  0  0
    6.0140   -3.8770   26.5290 N   0  0  0  0  0  0  0  0  0  0  0  0
    4.7510   -4.2750   26.9880 C   0  0  0  0  0  0  0  0  0  0  0  0
    4.4320   -4.6880   28.2410 C   0  0  0  0  0  0  0  0  0  0  0  0
    5.2300   -5.1140   29.2690 C   0  0  0  0  0  0  0  0  0  0  0  0
    4.7380   -5.5050   30.5130 C   0  0  0  0  0  0  0  0  0  0  0  0
    3.5290   -4.8310   31.0830 C   0  0  0  0  0  0  0  0  0  0  0  0
    2.9890   -3.8690   30.3350 O   0  0  0  0  0  0  0  0  0  0  0  0
    1.7500   -3.6850   29.8270 C   0  0  0  0  0  0  0  0  0  0  0  0
    3.0330   -5.1990   32.2990 C   0  0  0  0  0  0  0  0  0  0  0  0
    3.6220   -6.1970   33.0400 C   0  0  0  0  0  0  0  0  0  0  0  0
    3.0930   -6.5380   34.2630 O   0  0  0  0  0  0  0  0  0  0  0  0
    3.8530   -6.6880   35.4290 C   0  0  0  0  0  0  0  0  0  0  0  0
    4.7420   -6.8390   32.5350 C   0  0  0  0  0  0  0  0  0  0  0  0
    5.3470   -6.5810   31.3450 C   0  0  0  0  0  0  0  0  0  0  0  0
    6.3680   -7.2200   30.9710 O   0  0  0  0  0  0  0  0  0  0  0  0
    6.1840   -7.9340   29.7890 C   0  0  0  0  0  0  0  0  0  0  0  0
    6.4870   -5.0030   28.7060 C   0  0  0  0  0  0  0  0  0  0  0  0
    6.3620   -3.6820   27.9200 C   0  0  0  0  0  0  0  0  0  0  0  0
    7.5720   -3.0650   23.5230 C   0  0  0  0  0  0  0  0  0  0  0  0
    7.6810   -3.2550   22.1700 C   0  0  0  0  0  0  0  0  0  0  0  0
  1  2  1  0
  2  3  2  0
  2  4  1  0
  4  5  1  0
  5  6  1  0
  6  7  1  0
  7  8  1  0
  8  9  2  0
  8 10  1  0
 10 11  1  0
 11 12  1  0
 12 13  2  0
 13 14  1  0
 14 15  2  0
 15 16  1  0
 16 17  1  0
 15 18  1  0
 18 19  2  0
 19 20  1  0
 20 21  1  0
 19 22  1  0
 14 23  1  0
 22 23  2  0
 23 24  1  0
 24 25  1  0
 13 26  1  0
 10 27  1  0
 26 27  1  0
  7 28  1  0
  4 29  1  0
 28 29  1  0
M  END
