piperidine-amides-25034-covalent
     RDKit          3D

 23 24  0  0  0  0  0  0  0  0999 V2000
    7.0700   -3.3860   19.3590 C   0  0  0  0  0  0  0  0  0  0  0  0
    6.3930   -4.2170   20.3810 C   0  0  0  0  0  0  0  0  0  0  0  0
    5.4140   -4.8690   19.9990 O   0  0  0  0  0  0  0  0  0  0  0  0
    6.9070   -4.2680   21.6890 N   0  0  0  0  0  0  0  0  0  0  0  0
    7.7480   -3.2070   22.2210 C   0  0  0  0  0  0  0  0  0  0  0  0
    7.3670   -2.8880   23.6450 C   0  0  0  0  0  0  0  0  0  0  0  0
    5.9930   -3.4910   23.9080 C   0  0  0  0  0  0  0  0  0  0  0  0
    5.4330   -2.9890   25.1840 C   0  0  0  0  0  0  0  0  0  0  0  0
    4.2670   -2.5760   25.1640 O   0  0  0  0  0  0  0  0  0  0  0  0
    6.1310   -2.9670   26.4090 N   0  0  0  0  0  0  0  0  0  0  0  0
    6.0080   -4.1980   27.1590 C   0  0  0  0  0  0  0  0  0  0  0  0
    6.2080   -1.7140   27.1380 C   0  0  0  0  0  0  0  0  0  0  0  0
    6.1890   -0.6050   26.3190 C   0  0  0  0  0  0  0  0  0  0  0  0
    6.2460    0.6440   26.8090 C   0  0  0  0  0  0  0  0  0  0  0  0
    6.3340    0.8030   28.1300 C   0  0  0  0  0  0  0  0  0  0  0  0
    6.4130    2.4200   28.8010 Cl  0  0  0  0  0  0  0  0  0  0  0  0
    6.3710   -0.2820   29.1500 C   0  0  0  0  0  0  0  0  0  0  0  0
    6.2900   -1.6970   28.6350 C   0  0  0  0  0  0  0  0  0  0  0  0
    6.2600   -2.9640   29.3200 N   0  0  0  0  0  0  0  0  0  0  0  0
    7.1120   -3.8260   28.7680 O   0  0  0  0  0  0  0  0  0  0  0  0
    5.0600   -3.4150   29.7070 O   0  0  0  0  0  0  0  0  0  0  0  0
    5.9850   -4.9590   23.8090 C   0  0  0  0  0  0  0  0  0  0  0  0
    6.5410   -5.3990   22.5000 C   0  0  0  0  0  0  0  0  0  0  0  0
  1  2  1  0
  2  3  2  0
  2  4  1  0
  4  5  1  0
  5  6  1  0
  6  7  1  0
  7  8  1  0
  8  9  2  0
  8 10  1  0
 10 11  1  0
 10 12  1  0
 12 13  2  0
 13 14  1  0
 14 15  2  0
 15 16  1  0
 15 17  1  0
 12 18  1  0
 17 18  2  0
 18 19  1  0
 19 20  2  0
 19 21  1  0
  7 22  1  0
  4 23  1  0
 22 23  1  0
M  CHG  2  19   1  21  -1
M  END
