piperidine-amides-3949-covalent
     RDKit          3D

 19 20  0  0  0  0  0  0  0  0999 V2000
    7.0660   -3.3220   19.3440 C   0  0  0  0  0  0  0  0  0  0  0  0
    6.3760   -4.1500   20.3510 C   0  0  0  0  0  0  0  0  0  0  0  0
    5.3520   -4.7620   19.9600 O   0  0  0  0  0  0  0  0  0  0  0  0
    6.8650   -4.3010   21.6810 N   0  0  0  0  0  0  0  0  0  0  0  0
    7.6670   -3.2700   22.2520 C   0  0  0  0  0  0  0  0  0  0  0  0
    7.3520   -3.0190   23.6470 C   0  0  0  0  0  0  0  0  0  0  0  0
    6.0730   -3.6300   24.0400 C   0  0  0  0  0  0  0  0  0  0  0  0
    5.5600   -3.2310   25.4030 C   0  0  0  0  0  0  0  0  0  0  0  0
    4.3310   -3.2670   25.5940 O   0  0  0  0  0  0  0  0  0  0  0  0
    6.3910   -2.8210   26.4730 N   0  0  0  0  0  0  0  0  0  0  0  0
    6.6600   -1.5140   26.9810 C   0  0  2  0  0  0  0  0  0  0  0  0
    7.0780   -1.4040   28.3890 C   0  0  0  0  0  0  0  0  0  0  0  0
    6.6460   -0.0650   28.9930 C   0  0  0  0  0  0  0  0  0  0  0  0
    5.3600    0.2980   28.7170 C   0  0  0  0  0  0  0  0  0  0  0  0
    5.8040    0.7750   27.3340 C   0  0  0  0  0  0  0  0  0  0  0  0
    5.4950   -0.5810   26.7760 C   0  0  1  0  0  0  0  0  0  0  0  0
    5.3300   -0.3640   25.4060 O   0  0  0  0  0  0  0  0  0  0  0  0
    6.1330   -5.1540   23.8700 C   0  0  0  0  0  0  0  0  0  0  0  0
    6.6360   -5.4960   22.4710 C   0  0  0  0  0  0  0  0  0  0  0  0
  1  2  1  0
  2  3  2  0
  2  4  1  0
  4  5  1  0
  5  6  1  0
  6  7  1  0
  7  8  1  0
  8  9  2  0
  8 10  1  0
 11 10  1  1
 11 12  1  0
 12 13  1  0
 13 14  1  0
 14 15  1  0
 11 16  1  0
 15 16  1  0
 16 17  1  6
  7 18  1  0
  4 19  1  0
 18 19  1  0
M  END
