piperidine-amides-8205-covalent
     RDKit          3D

 25 27  0  0  0  0  0  0  0  0999 V2000
    7.0760   -3.2790   19.2710 C   0  0  0  0  0  0  0  0  0  0  0  0
    6.3630   -4.0620   20.2820 C   0  0  0  0  0  0  0  0  0  0  0  0
    5.3350   -4.6700   19.9290 O   0  0  0  0  0  0  0  0  0  0  0  0
    6.8530   -4.1580   21.6110 N   0  0  0  0  0  0  0  0  0  0  0  0
    6.6060   -5.3800   22.3300 C   0  0  0  0  0  0  0  0  0  0  0  0
    6.1430   -5.0980   23.7360 C   0  0  0  0  0  0  0  0  0  0  0  0
    6.0650   -3.5970   23.9100 C   0  0  0  0  0  0  0  0  0  0  0  0
    5.5730   -3.2200   25.2730 C   0  0  0  0  0  0  0  0  0  0  0  0
    4.3810   -2.9300   25.3490 O   0  0  0  0  0  0  0  0  0  0  0  0
    6.4490   -3.2230   26.3520 N   0  0  0  0  0  0  0  0  0  0  0  0
    6.1660   -3.9430   27.5550 C   0  0  0  0  0  0  0  0  0  0  0  0
    5.7290   -5.2620   27.3580 C   0  0  0  0  0  0  0  0  0  0  0  0
    5.5030   -6.0690   28.4450 C   0  0  0  0  0  0  0  0  0  0  0  0
    6.6010   -6.7880   29.0100 N   0  0  0  0  0  0  0  0  0  0  0  0
    5.9790   -7.4560   30.0420 C   0  0  0  0  0  0  0  0  0  0  0  0
    4.5500   -7.1840   30.1500 C   0  0  0  0  0  0  0  0  0  0  0  0
    3.6580   -7.8230   31.2380 C   0  0  0  0  0  0  0  0  0  0  0  0
    4.2660   -8.0020   32.5870 C   0  0  0  0  0  0  0  0  0  0  0  0
    3.4320   -8.6280   33.6780 C   0  0  0  0  0  0  0  0  0  0  0  0
    1.9990   -9.0140   33.2280 C   0  0  0  0  0  0  0  0  0  0  0  0
    1.5970   -8.7770   31.9400 C   0  0  0  0  0  0  0  0  0  0  0  0
    2.3590   -8.2080   30.9540 C   0  0  0  0  0  0  0  0  0  0  0  0
    4.3250   -6.3210   29.1330 N   0  0  0  0  0  0  0  0  0  0  0  0
    7.3620   -2.9280   23.6190 C   0  0  0  0  0  0  0  0  0  0  0  0
    7.7040   -3.1380   22.1810 C   0  0  0  0  0  0  0  0  0  0  0  0
  1  2  1  0
  2  3  2  0
  2  4  1  0
  4  5  1  0
  5  6  1  0
  6  7  1  0
  7  8  1  0
  8  9  2  0
  8 10  1  0
 10 11  1  0
 11 12  1  0
 12 13  1  0
 13 14  2  0
 14 15  1  0
 15 16  2  0
 16 17  1  0
 17 18  2  0
 18 19  1  0
 19 20  2  0
 20 21  1  0
 17 22  1  0
 21 22  2  0
 13 23  1  0
 16 23  1  0
  7 24  1  0
  4 25  1  0
 24 25  1  0
M  END
