piperidine-amides-3563-covalent
     RDKit          3D

 19 20  0  0  0  0  0  0  0  0999 V2000
    7.0630   -3.3290   19.3360 C   0  0  0  0  0  0  0  0  0  0  0  0
    6.3620   -4.1700   20.2990 C   0  0  0  0  0  0  0  0  0  0  0  0
    5.3560   -4.7920   19.9620 O   0  0  0  0  0  0  0  0  0  0  0  0
    6.8720   -4.3150   21.6270 N   0  0  0  0  0  0  0  0  0  0  0  0
    7.6680   -3.2700   22.2280 C   0  0  0  0  0  0  0  0  0  0  0  0
    6.9580   -2.7020   23.4160 C   0  0  0  0  0  0  0  0  0  0  0  0
    6.5160   -3.8630   24.2800 C   0  0  0  0  0  0  0  0  0  0  0  0
    5.7240   -3.3670   25.4410 C   0  0  0  0  0  0  0  0  0  0  0  0
    4.4740   -3.3640   25.4990 O   0  0  0  0  0  0  0  0  0  0  0  0
    6.4560   -2.8610   26.5430 N   0  0  0  0  0  0  0  0  0  0  0  0
    5.9460   -1.7740   27.3470 C   0  0  2  0  0  0  0  0  0  0  0  0
    5.8860   -0.4680   26.5900 C   0  0  0  0  0  0  0  0  0  0  0  0
    5.9470    0.7420   27.2700 C   0  0  0  0  0  0  0  0  0  0  0  0
    5.5930    0.8810   28.6170 C   0  0  0  0  0  0  0  0  0  0  0  0
    6.4050    0.3790   29.6020 C   0  0  0  0  0  0  0  0  0  0  0  0
    6.6670   -0.9990   29.6430 N   0  0  0  0  0  0  0  0  0  0  0  0
    6.9910   -1.6680   28.4390 C   0  0  0  0  0  0  0  0  0  0  0  0
    5.7620   -4.9460   23.5320 C   0  0  0  0  0  0  0  0  0  0  0  0
    6.5050   -5.4410   22.4810 C   0  0  0  0  0  0  0  0  0  0  0  0
  1  2  1  0
  2  3  2  0
  2  4  1  0
  4  5  1  0
  5  6  1  0
  6  7  1  0
  7  8  1  0
  8  9  2  0
  8 10  1  0
 11 10  1  6
 11 12  1  0
 12 13  1  0
 13 14  1  0
 14 15  1  0
 15 16  1  0
 11 17  1  0
 16 17  1  0
  7 18  1  0
  4 19  1  0
 18 19  1  0
M  END
