piperidine-amides-29945-covalent
     RDKit          3D

 24 25  0  0  0  0  0  0  0  0999 V2000
    7.1540   -3.2630   19.2120 C   0  0  0  0  0  0  0  0  0  0  0  0
    6.3830   -4.0250   20.1870 C   0  0  0  0  0  0  0  0  0  0  0  0
    5.3030   -4.5230   19.8780 O   0  0  0  0  0  0  0  0  0  0  0  0
    6.9200   -4.2470   21.4970 N   0  0  0  0  0  0  0  0  0  0  0  0
    7.6930   -3.2080   22.1310 C   0  0  0  0  0  0  0  0  0  0  0  0
    6.9350   -2.6490   23.2980 C   0  0  0  0  0  0  0  0  0  0  0  0
    6.5390   -3.8000   24.2040 C   0  0  0  0  0  0  0  0  0  0  0  0
    5.6970   -3.2820   25.3120 C   0  0  0  0  0  0  0  0  0  0  0  0
    4.4540   -3.2230   25.2390 O   0  0  0  0  0  0  0  0  0  0  0  0
    6.3350   -2.8380   26.4900 N   0  0  0  0  0  0  0  0  0  0  0  0
    6.1510   -3.5310   27.7440 C   0  0  0  0  0  0  0  0  0  0  0  0
    5.5770   -4.8920   27.4490 C   0  0  0  0  0  0  0  0  0  0  0  0
    4.3150   -4.8370   26.8830 O   0  0  0  0  0  0  0  0  0  0  0  0
    6.1130   -6.1170   27.6830 O   0  0  0  0  0  0  0  0  0  0  0  0
    6.6180   -6.5200   28.9110 C   0  0  0  0  0  0  0  0  0  0  0  0
    6.9130   -1.4660   26.5410 C   0  0  0  0  0  0  0  0  0  0  0  0
    6.1180   -0.4770   25.9910 C   0  0  0  0  0  0  0  0  0  0  0  0
    5.9620    0.7420   26.7260 C   0  0  0  0  0  0  0  0  0  0  0  0
    5.1820    1.6690   26.1180 C   0  0  0  0  0  0  0  0  0  0  0  0
    4.6910    1.2410   24.8960 C   0  0  0  0  0  0  0  0  0  0  0  0
    3.6650    2.3280   23.9720 Cl  0  0  0  0  0  0  0  0  0  0  0  0
    5.2410   -0.4040   24.5160 S   0  0  0  0  0  0  0  0  0  0  0  0
    5.9290   -4.9930   23.5530 C   0  0  0  0  0  0  0  0  0  0  0  0
    6.4490   -5.3520   22.2370 C   0  0  0  0  0  0  0  0  0  0  0  0
  1  2  1  0
  2  3  2  0
  2  4  1  0
  4  5  1  0
  5  6  1  0
  6  7  1  0
  7  8  1  0
  8  9  2  0
  8 10  1  0
 10 11  1  0
 11 12  1  0
 12 13  2  0
 12 14  1  0
 14 15  1  0
 10 16  1  0
 16 17  1  0
 17 18  2  0
 18 19  1  0
 19 20  2  0
 20 21  1  0
 17 22  1  0
 20 22  1  0
  7 23  1  0
  4 24  1  0
 23 24  1  0
M  END
