piperidine-amides-27148-covalent
     RDKit          3D

 25 26  0  0  0  0  0  0  0  0999 V2000
    7.0670   -3.3640   19.3770 C   0  0  0  0  0  0  0  0  0  0  0  0
    6.4300   -4.2390   20.3600 C   0  0  0  0  0  0  0  0  0  0  0  0
    5.3810   -4.8260   19.9800 O   0  0  0  0  0  0  0  0  0  0  0  0
    7.0060   -4.4480   21.6250 N   0  0  0  0  0  0  0  0  0  0  0  0
    6.7760   -5.6850   22.3480 C   0  0  0  0  0  0  0  0  0  0  0  0
    6.1900   -5.3570   23.6940 C   0  0  0  0  0  0  0  0  0  0  0  0
    5.9230   -3.8870   23.7830 C   0  0  0  0  0  0  0  0  0  0  0  0
    5.1000   -3.5460   24.9590 C   0  0  0  0  0  0  0  0  0  0  0  0
    3.9450   -3.1610   24.7230 O   0  0  0  0  0  0  0  0  0  0  0  0
    5.4790   -3.6100   26.2970 N   0  0  0  0  0  0  0  0  0  0  0  0
    6.5080   -2.7470   26.6900 C   0  0  0  0  0  0  0  0  0  0  0  0
    6.8360   -3.0990   28.1120 C   0  0  0  0  0  0  0  0  0  0  0  0
    5.9830   -2.9420   29.0700 C   0  0  1  0  0  0  0  0  0  0  0  0
    5.7060   -1.6440   29.4810 C   0  0  0  0  0  0  0  0  0  0  0  0
    4.7290   -1.4540   30.4520 C   0  0  0  0  0  0  0  0  0  0  0  0
    5.3490   -0.7000   28.3660 C   0  0  0  0  0  0  0  0  0  0  0  0
    6.9400   -0.9600   30.0660 C   0  0  0  0  0  0  0  0  0  0  0  0
    4.9800   -3.8050   28.7640 C   0  0  0  0  0  0  0  0  0  0  0  0
    4.4900   -3.7980   27.3220 C   0  0  1  0  0  0  0  0  0  0  0  0
    3.2960   -2.8910   27.0700 C   0  0  0  0  0  0  0  0  0  0  0  0
    3.6190   -1.8320   26.2050 O   0  0  0  0  0  0  0  0  0  0  0  0
    2.1450   -3.2410   27.7200 O   0  0  0  0  0  0  0  0  0  0  0  0
    1.5100   -2.2590   28.4030 C   0  0  0  0  0  0  0  0  0  0  0  0
    7.1620   -3.0900   23.6490 C   0  0  0  0  0  0  0  0  0  0  0  0
    7.7190   -3.3630   22.2730 C   0  0  0  0  0  0  0  0  0  0  0  0
  1  2  1  0
  2  3  2  0
  2  4  1  0
  4  5  1  0
  5  6  1  0
  6  7  1  0
  7  8  1  0
  8  9  2  0
  8 10  1  0
 10 11  1  0
 11 12  1  0
 12 13  1  0
 13 14  1  6
 14 15  1  0
 14 16  1  0
 14 17  1  0
 13 18  1  0
 10 19  1  0
 18 19  1  0
 19 20  1  1
 20 21  2  0
 20 22  1  0
 22 23  1  0
  7 24  1  0
  4 25  1  0
 24 25  1  0
M  END
