piperidine-amides-34284-covalent
     RDKit          3D

 30 31  0  0  0  0  0  0  0  0999 V2000
    7.0640   -3.2970   19.2560 C   0  0  0  0  0  0  0  0  0  0  0  0
    6.3790   -4.1050   20.2800 C   0  0  0  0  0  0  0  0  0  0  0  0
    5.3700   -4.7770   19.9650 O   0  0  0  0  0  0  0  0  0  0  0  0
    6.8630   -4.1720   21.5960 N   0  0  0  0  0  0  0  0  0  0  0  0
    6.5340   -5.3110   22.4150 C   0  0  0  0  0  0  0  0  0  0  0  0
    5.7360   -4.7620   23.6070 C   0  0  0  0  0  0  0  0  0  0  0  0
    6.5680   -3.6640   24.2560 C   0  0  0  0  0  0  0  0  0  0  0  0
    5.8490   -3.0840   25.4220 C   0  0  0  0  0  0  0  0  0  0  0  0
    5.2220   -2.0190   25.2630 O   0  0  0  0  0  0  0  0  0  0  0  0
    5.8450   -3.7650   26.6700 N   0  0  0  0  0  0  0  0  0  0  0  0
    6.3360   -3.3190   27.9170 C   0  0  0  0  0  0  0  0  0  0  0  0
    6.5810   -4.6610   28.6300 C   0  0  0  0  0  0  0  0  0  0  0  0
    5.6030   -5.2240   29.4220 C   0  0  0  0  0  0  0  0  0  0  0  0
    4.4500   -4.5180   29.7340 C   0  0  0  0  0  0  0  0  0  0  0  0
    3.4650   -5.4640   30.1470 N   0  0  0  0  0  0  0  0  0  0  0  0
    2.1970   -5.0350   30.5100 C   0  0  0  0  0  0  0  0  0  0  0  0
    1.2830   -4.3730   29.7540 O   0  0  0  0  0  0  0  0  0  0  0  0
    1.9550   -5.3850   31.8250 O   0  0  0  0  0  0  0  0  0  0  0  0
    2.0980   -4.4640   32.8970 C   0  0  0  0  0  0  0  0  0  0  0  0
    2.5060   -5.1790   34.1700 C   0  0  0  0  0  0  0  0  0  0  0  0
    3.4190   -4.1630   33.4990 C   0  0  0  0  0  0  0  0  0  0  0  0
    1.2280   -3.4680   33.2110 C   0  0  0  0  0  0  0  0  0  0  0  0
    5.7210   -6.3980   30.2150 C   0  0  0  0  0  0  0  0  0  0  0  0
    5.6050   -7.6300   29.5750 O   0  0  0  0  0  0  0  0  0  0  0  0
    5.9520   -6.4460   31.5720 O   0  0  0  0  0  0  0  0  0  0  0  0
    5.5120   -7.4980   32.4070 C   0  0  0  0  0  0  0  0  0  0  0  0
    5.6680   -5.6730   28.1220 C   0  0  0  0  0  0  0  0  0  0  0  0
    5.1180   -4.8870   26.9600 C   0  0  0  0  0  0  0  0  0  0  0  0
    6.8820   -2.5260   23.3090 C   0  0  0  0  0  0  0  0  0  0  0  0
    7.6860   -3.1220   22.1490 C   0  0  0  0  0  0  0  0  0  0  0  0
  1  2  1  0
  2  3  2  0
  2  4  1  0
  4  5  1  0
  5  6  1  0
  6  7  1  0
  7  8  1  0
  8  9  2  0
  8 10  1  0
 10 11  1  0
 11 12  1  0
 12 13  1  0
 13 14  1  0
 14 15  1  0
 15 16  1  0
 16 17  2  0
 16 18  1  0
 19 18  1  0
 19 20  1  0
 19 21  1  0
 19 22  1  0
 13 23  1  0
 23 24  2  0
 23 25  1  0
 25 26  1  0
 13 27  1  0
 10 28  1  0
 27 28  1  0
  7 29  1  0
  4 30  1  0
 29 30  1  0
M  END
