piperidine-amides-25628-covalent
     RDKit          3D

 25 27  0  0  0  0  0  0  0  0999 V2000
    7.0730   -3.3020   19.3020 C   0  0  0  0  0  0  0  0  0  0  0  0
    6.2960   -4.0900   20.2950 C   0  0  0  0  0  0  0  0  0  0  0  0
    5.2620   -4.6200   19.9020 O   0  0  0  0  0  0  0  0  0  0  0  0
    6.7710   -4.2410   21.6040 N   0  0  0  0  0  0  0  0  0  0  0  0
    6.6150   -5.4880   22.3170 C   0  0  0  0  0  0  0  0  0  0  0  0
    6.1370   -5.2300   23.7230 C   0  0  0  0  0  0  0  0  0  0  0  0
    5.9380   -3.7290   23.9260 C   0  0  0  0  0  0  0  0  0  0  0  0
    5.4230   -3.4430   25.2840 C   0  0  0  0  0  0  0  0  0  0  0  0
    5.3370   -2.2620   25.6320 O   0  0  0  0  0  0  0  0  0  0  0  0
    4.9950   -4.4460   26.1930 N   0  0  0  0  0  0  0  0  0  0  0  0
    5.9010   -4.8390   27.2290 C   0  0  0  0  0  0  0  0  0  0  0  0
    4.9880   -4.3830   28.3080 C   0  0  0  0  0  0  0  0  0  0  0  0
    5.2240   -3.2420   29.0340 C   0  0  0  0  0  0  0  0  0  0  0  0
    6.3900   -2.6580   28.6830 C   0  0  0  0  0  0  0  0  0  0  0  0
    6.7860   -1.5450   29.2690 C   0  0  0  0  0  0  0  0  0  0  0  0
    6.0210   -0.8500   30.3290 C   0  0  0  0  0  0  0  0  0  0  0  0
    4.7320   -1.5460   30.6810 C   0  0  0  0  0  0  0  0  0  0  0  0
    4.1670   -2.8480   30.0690 C   0  0  0  0  0  0  0  0  0  0  0  0
    2.8600   -3.3180   30.6110 C   0  0  0  0  0  0  0  0  0  0  0  0
    1.7740   -2.9800   29.7900 O   0  0  0  0  0  0  0  0  0  0  0  0
    2.7370   -3.9440   31.6940 O   0  0  0  0  0  0  0  0  0  0  0  0
    1.6380   -3.7130   32.5330 C   0  0  0  0  0  0  0  0  0  0  0  0
    3.9300   -4.1660   27.2070 C   0  0  0  0  0  0  0  0  0  0  0  0
    7.2390   -2.9990   23.6570 C   0  0  0  0  0  0  0  0  0  0  0  0
    7.6050   -3.2270   22.2160 C   0  0  0  0  0  0  0  0  0  0  0  0
  1  2  1  0
  2  3  2  0
  2  4  1  0
  4  5  1  0
  5  6  1  0
  6  7  1  0
  7  8  1  0
  8  9  2  0
  8 10  1  0
 10 11  1  0
 11 12  1  0
 12 13  1  0
 13 14  2  0
 14 15  1  0
 15 16  2  0
 16 17  1  0
 13 18  1  0
 17 18  2  0
 18 19  1  0
 19 20  2  0
 19 21  1  0
 21 22  1  0
 10 23  1  0
 12 23  1  0
  7 24  1  0
  4 25  1  0
 24 25  1  0
M  END
