piperidine-amides-15064-covalent
     RDKit          3D

 21 23  0  0  0  0  0  0  0  0999 V2000
    7.0230   -3.3650   19.3310 C   0  0  0  0  0  0  0  0  0  0  0  0
    6.3720   -4.2470   20.2990 C   0  0  0  0  0  0  0  0  0  0  0  0
    5.3250   -4.8160   19.9600 O   0  0  0  0  0  0  0  0  0  0  0  0
    6.9580   -4.4880   21.5600 N   0  0  0  0  0  0  0  0  0  0  0  0
    6.4850   -5.6110   22.3130 C   0  0  0  0  0  0  0  0  0  0  0  0
    5.6070   -5.1280   23.4360 C   0  0  0  0  0  0  0  0  0  0  0  0
    6.4410   -4.2330   24.3300 C   0  0  0  0  0  0  0  0  0  0  0  0
    5.6410   -3.7550   25.4980 C   0  0  0  0  0  0  0  0  0  0  0  0
    4.4170   -3.7750   25.3860 O   0  0  0  0  0  0  0  0  0  0  0  0
    6.3410   -3.3000   26.6040 N   0  0  0  0  0  0  0  0  0  0  0  0
    6.9150   -2.0060   26.5610 C   0  0  0  0  0  0  0  0  0  0  0  0
    7.4120   -1.4990   25.3570 C   0  0  0  0  0  0  0  0  0  0  0  0
    8.6400   -1.8640   24.7280 C   0  0  0  0  0  0  0  0  0  0  0  0
    9.0570   -1.2820   23.5070 C   0  0  0  0  0  0  0  0  0  0  0  0
    7.9840   -0.3250   23.1440 C   0  0  0  0  0  0  0  0  0  0  0  0
    8.1260    0.7130   21.5450 Br  0  0  0  0  0  0  0  0  0  0  0  0
    6.7510   -0.3360   24.3020 S   0  0  0  0  0  0  0  0  0  0  0  0
    7.0560   -1.4240   27.9470 C   0  0  0  0  0  0  0  0  0  0  0  0
    6.0880   -0.9140   27.2060 C   0  0  0  0  0  0  0  0  0  0  0  0
    6.9880   -3.0860   23.5720 C   0  0  0  0  0  0  0  0  0  0  0  0
    7.5970   -3.3810   22.2040 C   0  0  0  0  0  0  0  0  0  0  0  0
  1  2  1  0
  2  3  2  0
  2  4  1  0
  4  5  1  0
  5  6  1  0
  6  7  1  0
  7  8  1  0
  8  9  2  0
  8 10  1  0
 11 10  1  0
 11 12  1  0
 12 13  2  0
 13 14  1  0
 14 15  2  0
 15 16  1  0
 12 17  1  0
 15 17  1  0
 11 18  1  0
 11 19  1  0
 18 19  1  0
  7 20  1  0
  4 21  1  0
 20 21  1  0
M  END
