piperidine-amides-31582-covalent
     RDKit          3D

 28 31  0  0  0  0  0  0  0  0999 V2000
    7.1090   -3.3740   19.5070 C   0  0  0  0  0  0  0  0  0  0  0  0
    6.3850   -4.2050   20.4390 C   0  0  0  0  0  0  0  0  0  0  0  0
    5.4100   -4.8940   19.9940 O   0  0  0  0  0  0  0  0  0  0  0  0
    6.7470   -4.3030   21.8020 N   0  0  0  0  0  0  0  0  0  0  0  0
    6.6360   -5.6660   22.4020 C   0  0  0  0  0  0  0  0  0  0  0  0
    6.1780   -5.3690   23.8910 C   0  0  0  0  0  0  0  0  0  0  0  0
    5.9570   -3.8880   23.9590 C   0  0  0  0  0  0  0  0  0  0  0  0
    4.9560   -3.4450   25.1310 C   0  0  0  0  0  0  0  0  0  0  0  0
    3.8690   -3.1750   24.6550 O   0  0  0  0  0  0  0  0  0  0  0  0
    5.5160   -3.4690   26.2600 N   0  0  0  0  0  0  0  0  0  0  0  0
    6.4290   -3.3540   27.1780 C   0  0  0  0  0  0  0  0  0  0  0  0
    6.6510   -4.0770   28.2830 C   0  0  0  0  0  0  0  0  0  0  0  0
    5.3550   -4.0460   28.6170 C   0  0  1  0  0  0  0  0  0  0  0  0
    4.5200   -3.7850   27.3970 C   0  0  0  0  0  0  0  0  0  0  0  0
    4.9490   -5.1640   29.3690 O   0  0  0  0  0  0  0  0  0  0  0  0
    3.7570   -4.8330   30.0040 C   0  0  0  0  0  0  0  0  0  0  0  0
    3.0120   -5.7960   30.3230 O   0  0  0  0  0  0  0  0  0  0  0  0
    3.3730   -3.4590   30.3000 N   0  0  0  0  0  0  0  0  0  0  0  0
    4.4610   -2.5480   30.2850 C   0  0  0  0  0  0  0  0  0  0  0  0
    4.2860   -1.4300   31.2090 C   0  0  0  0  0  0  0  0  0  0  0  0
    5.5850   -0.6000   31.0000 C   0  0  0  0  0  0  0  0  0  0  0  0
    6.8090   -0.8070   30.0840 C   0  0  0  0  0  0  0  0  0  0  0  0
    7.9020    0.0570   30.0340 O   0  0  0  0  0  0  0  0  0  0  0  0
    8.6460    0.3410   31.2070 C   0  0  0  0  0  0  0  0  0  0  0  0
    6.7010   -1.9800   29.2950 C   0  0  0  0  0  0  0  0  0  0  0  0
    5.6320   -2.7740   29.3870 C   0  0  0  0  0  0  0  0  0  0  0  0
    7.1540   -3.0400   23.6920 C   0  0  0  0  0  0  0  0  0  0  0  0
    7.6250   -3.3260   22.4110 C   0  0  0  0  0  0  0  0  0  0  0  0
  1  2  1  0
  2  3  2  0
  2  4  1  0
  4  5  1  0
  5  6  1  0
  6  7  1  0
  7  8  1  0
  8  9  2  0
  8 10  1  0
 10 11  1  0
 11 12  1  0
 13 12  1  6
 10 14  1  0
 13 14  1  0
 13 15  1  0
 15 16  1  0
 16 17  2  0
 16 18  1  0
 18 19  1  0
 19 20  2  0
 20 21  1  0
 21 22  2  0
 22 23  1  0
 23 24  1  0
 22 25  1  0
 13 26  1  0
 19 26  1  0
 25 26  2  0
  7 27  1  0
  4 28  1  0
 27 28  1  0
M  END
