piperidine-amides-19454-covalent
     RDKit          3D

 22 23  0  0  0  0  0  0  0  0999 V2000
    7.1580   -3.3530   19.4230 C   0  0  0  0  0  0  0  0  0  0  0  0
    6.4630   -4.1900   20.3700 C   0  0  0  0  0  0  0  0  0  0  0  0
    5.4210   -4.8170   19.9830 O   0  0  0  0  0  0  0  0  0  0  0  0
    6.9400   -4.3630   21.6860 N   0  0  0  0  0  0  0  0  0  0  0  0
    7.8790   -3.3590   22.2330 C   0  0  0  0  0  0  0  0  0  0  0  0
    6.9150   -2.6440   23.2340 C   0  0  0  0  0  0  0  0  0  0  0  0
    6.4890   -3.7260   24.1910 C   0  0  0  0  0  0  0  0  0  0  0  0
    5.6250   -3.1110   25.3730 C   0  0  0  0  0  0  0  0  0  0  0  0
    4.6530   -2.5080   24.9450 O   0  0  0  0  0  0  0  0  0  0  0  0
    6.1880   -3.4430   26.4470 N   0  0  0  0  0  0  0  0  0  0  0  0
    6.7280   -4.3270   27.3340 C   0  0  0  0  0  0  0  0  0  0  0  0
    6.3820   -5.4980   27.9410 C   0  0  0  0  0  0  0  0  0  0  0  0
    6.3270   -2.1230   27.1370 C   0  0  0  0  0  0  0  0  0  0  0  0
    6.9320   -1.9730   28.4720 C   0  0  0  0  0  0  0  0  0  0  0  0
    7.0150   -0.5850   29.0820 C   0  0  0  0  0  0  0  0  0  0  0  0
    6.5160    0.4930   28.3580 C   0  0  0  0  0  0  0  0  0  0  0  0
    5.9010    0.7090   27.1100 C   0  0  0  0  0  0  0  0  0  0  0  0
    5.8860   -0.7550   26.6170 C   0  0  0  0  0  0  0  0  0  0  0  0
    5.3520   -0.6890   25.4890 O   0  0  0  0  0  0  0  0  0  0  0  0
    4.0030   -0.3720   25.6240 C   0  0  0  0  0  0  0  0  0  0  0  0
    5.7050   -4.8530   23.4770 C   0  0  0  0  0  0  0  0  0  0  0  0
    6.5240   -5.4470   22.5460 C   0  0  0  0  0  0  0  0  0  0  0  0
  1  2  1  0
  2  3  2  0
  2  4  1  0
  4  5  1  0
  5  6  1  0
  6  7  1  0
  7  8  1  0
  8  9  2  0
  8 10  1  0
 10 11  1  0
 11 12  1  0
 10 13  1  0
 13 14  2  0
 14 15  1  0
 15 16  2  0
 16 17  1  0
 13 18  1  0
 17 18  2  0
 18 19  1  0
 19 20  1  0
  7 21  1  0
  4 22  1  0
 21 22  1  0
M  END
