piperidine-amides-166-covalent
     RDKit          3D

 21 22  0  0  0  0  0  0  0  0999 V2000
    7.0410   -3.3490   19.2850 C   0  0  0  0  0  0  0  0  0  0  0  0
    6.3570   -4.0640   20.3420 C   0  0  0  0  0  0  0  0  0  0  0  0
    5.3750   -4.7860   19.9790 O   0  0  0  0  0  0  0  0  0  0  0  0
    6.7450   -4.0530   21.7110 N   0  0  0  0  0  0  0  0  0  0  0  0
    6.5040   -5.3680   22.3710 C   0  0  0  0  0  0  0  0  0  0  0  0
    6.6980   -5.0400   23.9010 C   0  0  0  0  0  0  0  0  0  0  0  0
    6.3110   -3.5970   24.0620 C   0  0  0  0  0  0  0  0  0  0  0  0
    5.3370   -3.4320   25.3190 C   0  0  0  0  0  0  0  0  0  0  0  0
    4.3830   -4.1720   25.1530 O   0  0  0  0  0  0  0  0  0  0  0  0
    5.6850   -2.5820   26.2160 N   0  0  0  0  0  0  0  0  0  0  0  0
    5.7350   -1.7280   27.2930 C   0  0  1  0  0  0  0  0  0  0  0  0
    5.2010   -1.7550   28.5550 C   0  0  0  0  0  0  0  0  0  0  0  0
    7.0310   -1.0550   27.4440 C   0  0  0  0  0  0  0  0  0  0  0  0
    7.2110   -0.8310   28.8870 C   0  0  0  0  0  0  0  0  0  0  0  0
    6.5890    0.5840   28.7320 C   0  0  0  0  0  0  0  0  0  0  0  0
    6.9530    1.6640   29.5670 O   0  0  0  0  0  0  0  0  0  0  0  0
    5.6000    0.6870   27.6430 N   0  0  0  0  0  0  0  0  0  0  0  0
    5.7200    1.9100   26.9210 C   0  0  0  0  0  0  0  0  0  0  0  0
    4.9240   -0.4750   27.0630 C   0  0  0  0  0  0  0  0  0  0  0  0
    7.2840   -2.6440   23.6630 C   0  0  0  0  0  0  0  0  0  0  0  0
    7.7490   -3.1900   22.2630 C   0  0  0  0  0  0  0  0  0  0  0  0
  1  2  1  0
  2  3  2  0
  2  4  1  0
  4  5  1  0
  5  6  1  0
  6  7  1  0
  7  8  1  0
  8  9  2  0
  8 10  1  0
 11 10  1  0
 11 12  1  1
 11 13  1  0
 13 14  1  0
 14 15  1  0
 15 16  2  0
 15 17  1  0
 17 18  1  0
 11 19  1  0
 17 19  1  0
  7 20  1  0
  4 21  1  0
 20 21  1  0
M  END
