piperidine-amides-2387-covalent
     RDKit          3D

 27 30  0  0  0  0  0  0  0  0999 V2000
    7.1750   -3.2410   19.1300 C   0  0  0  0  0  0  0  0  0  0  0  0
    6.3960   -3.9930   20.1420 C   0  0  0  0  0  0  0  0  0  0  0  0
    5.2850   -4.4130   19.8270 O   0  0  0  0  0  0  0  0  0  0  0  0
    6.9750   -4.2520   21.3760 N   0  0  0  0  0  0  0  0  0  0  0  0
    7.7330   -3.2490   22.0760 C   0  0  0  0  0  0  0  0  0  0  0  0
    6.9080   -2.7480   23.2110 C   0  0  0  0  0  0  0  0  0  0  0  0
    6.4520   -3.9500   24.0260 C   0  0  0  0  0  0  0  0  0  0  0  0
    5.6870   -3.4330   25.1440 C   0  0  0  0  0  0  0  0  0  0  0  0
    4.8900   -2.4980   25.0030 O   0  0  0  0  0  0  0  0  0  0  0  0
    5.8690   -4.0310   26.3670 N   0  0  0  0  0  0  0  0  0  0  0  0
    6.1210   -3.1990   27.4800 C   0  0  0  0  0  0  0  0  0  0  0  0
    6.2750   -4.1730   28.6000 C   0  0  0  0  0  0  0  0  0  0  0  0
    4.9310   -4.2420   29.2050 N   0  0  0  0  0  0  0  0  0  0  0  0
    4.2600   -2.9820   29.6140 C   0  0  0  0  0  0  0  0  0  0  0  0
    4.8050   -1.7700   29.4710 C   0  0  0  0  0  0  0  0  0  0  0  0
    4.0660   -0.7340   29.8930 C   0  0  0  0  0  0  0  0  0  0  0  0
    2.6900   -0.8800   30.5030 C   0  0  0  0  0  0  0  0  0  0  0  0
    2.2220   -2.3270   30.5940 C   0  0  0  0  0  0  0  0  0  0  0  0
    3.0480   -3.5250   30.1180 C   0  0  0  0  0  0  0  0  0  0  0  0
    2.9190   -4.9550   30.0580 C   0  0  0  0  0  0  0  0  0  0  0  0
    1.8250   -5.7880   30.4860 C   0  0  0  0  0  0  0  0  0  0  0  0
    2.1080   -7.2070   30.2420 C   0  0  0  0  0  0  0  0  0  0  0  0
    3.4280   -7.5420   29.6180 C   0  0  0  0  0  0  0  0  0  0  0  0
    4.6560   -6.7180   29.1260 C   0  0  0  0  0  0  0  0  0  0  0  0
    4.1010   -5.4580   29.4810 C   0  0  0  0  0  0  0  0  0  0  0  0
    5.6790   -4.9340   23.2080 C   0  0  0  0  0  0  0  0  0  0  0  0
    6.5990   -5.4540   22.1150 C   0  0  0  0  0  0  0  0  0  0  0  0
  1  2  1  0
  2  3  2  0
  2  4  1  0
  4  5  1  0
  5  6  1  0
  6  7  1  0
  7  8  1  0
  8  9  2  0
  8 10  1  0
 10 11  1  0
 11 12  1  0
 12 13  1  0
 13 14  1  0
 14 15  2  0
 15 16  1  0
 16 17  2  0
 17 18  1  0
 14 19  1  0
 18 19  2  0
 19 20  1  0
 20 21  1  0
 21 22  2  0
 22 23  1  0
 23 24  2  0
 13 25  1  0
 20 25  2  0
 24 25  1  0
  7 26  1  0
  4 27  1  0
 26 27  1  0
M  END
