piperidine-amides-33736-covalent
     RDKit          3D

 28 30  0  0  0  0  0  0  0  0999 V2000
    7.0360   -3.3650   19.3910 C   0  0  0  0  0  0  0  0  0  0  0  0
    6.3970   -4.2380   20.3910 C   0  0  0  0  0  0  0  0  0  0  0  0
    5.3950   -4.8860   19.9950 O   0  0  0  0  0  0  0  0  0  0  0  0
    6.9130   -4.3840   21.7130 N   0  0  0  0  0  0  0  0  0  0  0  0
    6.4580   -5.4570   22.5150 C   0  0  0  0  0  0  0  0  0  0  0  0
    5.9450   -5.0690   23.8410 C   0  0  0  0  0  0  0  0  0  0  0  0
    6.3270   -3.7290   24.3760 C   0  0  0  0  0  0  0  0  0  0  0  0
    5.3250   -3.2320   25.4160 C   0  0  0  0  0  0  0  0  0  0  0  0
    4.4500   -2.4350   25.0510 O   0  0  0  0  0  0  0  0  0  0  0  0
    5.3280   -3.6430   26.7890 N   0  0  0  0  0  0  0  0  0  0  0  0
    4.6620   -3.1090   27.9000 C   0  0  0  0  0  0  0  0  0  0  0  0
    4.7900   -3.8550   29.1590 C   0  0  0  0  0  0  0  0  0  0  0  0
    5.4900   -5.0030   29.2800 N   0  0  0  0  0  0  0  0  0  0  0  0
    5.0570   -6.2250   29.9400 C   0  0  0  0  0  0  0  0  0  0  0  0
    3.9560   -6.0060   30.7540 C   0  0  0  0  0  0  0  0  0  0  0  0
    2.7480   -5.6340   30.2020 O   0  0  0  0  0  0  0  0  0  0  0  0
    4.2980   -6.2230   32.0410 N   0  0  0  0  0  0  0  0  0  0  0  0
    3.9990   -7.5200   32.6450 C   0  0  2  0  0  0  0  0  0  0  0  0
    3.0660   -7.1620   33.7900 C   0  0  0  0  0  0  0  0  0  0  0  0
    4.1710   -6.4250   34.6080 C   0  0  0  0  0  0  0  0  0  0  0  0
    5.4390   -7.5430   34.5930 S   0  0  0  0  0  0  0  0  0  0  0  0
    6.7460   -6.8380   34.5890 O   0  0  0  0  0  0  0  0  0  0  0  0
    5.4100   -8.4810   35.7620 O   0  0  0  0  0  0  0  0  0  0  0  0
    5.1440   -8.3740   33.1100 C   0  0  0  0  0  0  0  0  0  0  0  0
    6.5610   -5.0960   28.5000 C   0  0  0  0  0  0  0  0  0  0  0  0
    6.3770   -4.4950   27.1040 C   0  0  0  0  0  0  0  0  0  0  0  0
    6.5840   -2.7530   23.2660 C   0  0  0  0  0  0  0  0  0  0  0  0
    7.5550   -3.2900   22.4100 C   0  0  0  0  0  0  0  0  0  0  0  0
  1  2  1  0
  2  3  2  0
  2  4  1  0
  4  5  1  0
  5  6  1  0
  6  7  1  0
  7  8  1  0
  8  9  2  0
  8 10  1  0
 10 11  1  0
 11 12  1  0
 12 13  1  0
 13 14  1  0
 14 15  1  0
 15 16  2  0
 15 17  1  0
 18 17  1  1
 18 19  1  0
 19 20  1  0
 21 20  1  0
 21 22  2  0
 21 23  2  0
 18 24  1  0
 21 24  1  0
 13 25  1  0
 10 26  1  0
 25 26  1  0
  7 27  1  0
  4 28  1  0
 27 28  1  0
M  END
