piperidine-amides-31634-covalent
     RDKit          3D

 28 31  0  0  0  0  0  0  0  0999 V2000
    7.2040   -4.1000   19.6530 C   0  0  0  0  0  0  0  0  0  0  0  0
    6.0820   -4.0920   20.4280 C   0  0  0  0  0  0  0  0  0  0  0  0
    5.0200   -4.2490   19.7670 O   0  0  0  0  0  0  0  0  0  0  0  0
    6.2260   -4.0470   21.8050 N   0  0  0  0  0  0  0  0  0  0  0  0
    6.2740   -5.4330   22.3740 C   0  0  0  0  0  0  0  0  0  0  0  0
    5.8080   -5.2210   23.8560 C   0  0  0  0  0  0  0  0  0  0  0  0
    6.0080   -3.7570   24.0790 C   0  0  0  0  0  0  0  0  0  0  0  0
    5.4440   -3.1940   25.4540 C   0  0  0  0  0  0  0  0  0  0  0  0
    4.5420   -2.4130   25.2090 O   0  0  0  0  0  0  0  0  0  0  0  0
    6.0340   -3.6690   26.4790 N   0  0  0  0  0  0  0  0  0  0  0  0
    6.6090   -3.7430   27.6840 C   0  0  0  0  0  0  0  0  0  0  0  0
    6.3080   -4.2830   28.8830 C   0  0  0  0  0  0  0  0  0  0  0  0
    5.5220   -5.4040   28.7140 O   0  0  0  0  0  0  0  0  0  0  0  0
    4.8220   -5.2460   27.5730 C   0  0  2  0  0  0  0  0  0  0  0  0
    3.8030   -6.3300   27.5190 C   0  0  0  0  0  0  0  0  0  0  0  0
    3.9070   -6.8650   26.0610 C   0  0  0  0  0  0  0  0  0  0  0  0
    2.9400   -7.8980   25.9070 C   0  0  0  0  0  0  0  0  0  0  0  0
    2.0460   -8.3630   26.8910 N   0  0  0  0  0  0  0  0  0  0  0  0
    2.1030   -7.7520   28.1840 C   0  0  0  0  0  0  0  0  0  0  0  0
    1.2050   -8.2100   29.2220 N   0  0  0  0  0  0  0  0  0  0  0  0
    1.6850   -7.9860   30.5610 C   0  0  0  0  0  0  0  0  0  0  0  0
    1.0420   -9.1770   31.3140 C   0  0  0  0  0  0  0  0  0  0  0  0
    0.4150   -9.9660   30.4000 C   0  0  0  0  0  0  0  0  0  0  0  0
    0.5560   -9.4090   29.1420 C   0  0  0  0  0  0  0  0  0  0  0  0
    2.9560   -6.7620   28.4930 N   0  0  0  0  0  0  0  0  0  0  0  0
    5.7300   -5.0800   26.3790 C   0  0  0  0  0  0  0  0  0  0  0  0
    7.2860   -3.2070   23.6170 C   0  0  0  0  0  0  0  0  0  0  0  0
    7.2770   -3.1650   22.2460 C   0  0  0  0  0  0  0  0  0  0  0  0
  1  2  1  0
  2  3  2  0
  2  4  1  0
  4  5  1  0
  5  6  1  0
  6  7  1  0
  7  8  1  0
  8  9  2  0
  8 10  1  0
 10 11  1  0
 11 12  1  0
 12 13  1  0
 13 14  1  0
 14 15  1  6
 15 16  2  0
 16 17  1  0
 17 18  2  0
 18 19  1  0
 19 20  1  0
 20 21  1  0
 21 22  1  0
 22 23  1  0
 20 24  1  0
 23 24  1  0
 15 25  1  0
 19 25  2  0
 10 26  1  0
 14 26  1  0
  7 27  1  0
  4 28  1  0
 27 28  1  0
M  END
