piperidine-amides-10895-covalent
     RDKit          3D

 21 22  0  0  0  0  0  0  0  0999 V2000
    7.0970   -3.2770   19.2410 C   0  0  0  0  0  0  0  0  0  0  0  0
    6.3430   -4.0460   20.2330 C   0  0  0  0  0  0  0  0  0  0  0  0
    5.2730   -4.5720   19.8930 O   0  0  0  0  0  0  0  0  0  0  0  0
    6.8240   -4.2570   21.5360 N   0  0  0  0  0  0  0  0  0  0  0  0
    6.5650   -5.4640   22.2770 C   0  0  0  0  0  0  0  0  0  0  0  0
    5.9010   -5.0230   23.5600 C   0  0  0  0  0  0  0  0  0  0  0  0
    6.6510   -3.9230   24.2620 C   0  0  0  0  0  0  0  0  0  0  0  0
    5.9310   -3.4220   25.4550 C   0  0  0  0  0  0  0  0  0  0  0  0
    4.7830   -2.8840   25.3360 O   0  0  0  0  0  0  0  0  0  0  0  0
    6.4690   -3.5120   26.7580 N   0  0  0  0  0  0  0  0  0  0  0  0
    6.8550   -4.8270   27.3320 C   0  0  0  0  0  0  0  0  0  0  0  0
    5.6170   -5.5820   27.5770 C   0  0  0  0  0  0  0  0  0  0  0  0
    5.6170   -6.7100   28.5280 C   0  0  0  0  0  0  0  0  0  0  0  0
    4.6600   -6.5460   29.6820 C   0  0  0  0  0  0  0  0  0  0  0  0
    4.9750   -7.2370   30.9580 C   0  0  0  0  0  0  0  0  0  0  0  0
    3.8610   -6.8630   31.8180 C   0  0  0  0  0  0  0  0  0  0  0  0
    3.6780   -7.2430   33.1220 O   0  0  0  0  0  0  0  0  0  0  0  0
    3.0190   -6.0170   30.9990 N   0  0  0  0  0  0  0  0  0  0  0  0
    3.4510   -5.8040   29.7360 N   0  0  0  0  0  0  0  0  0  0  0  0
    6.8880   -2.7870   23.2920 C   0  0  0  0  0  0  0  0  0  0  0  0
    7.5960   -3.2160   22.1720 C   0  0  0  0  0  0  0  0  0  0  0  0
  1  2  1  0
  2  3  2  0
  2  4  1  0
  4  5  1  0
  5  6  1  0
  6  7  1  0
  7  8  1  0
  8  9  2  0
  8 10  1  0
 10 11  1  0
 11 12  1  0
 12 13  1  0
 13 14  1  0
 14 15  2  0
 15 16  1  0
 16 17  2  0
 16 18  1  0
 14 19  1  0
 18 19  1  0
  7 20  1  0
  4 21  1  0
 20 21  1  0
M  END
