piperidine-amides-29394-covalent
     RDKit          3D

 27 30  0  0  0  0  0  0  0  0999 V2000
    7.0410   -3.3790   19.3730 C   0  0  0  0  0  0  0  0  0  0  0  0
    6.3260   -4.2180   20.3300 C   0  0  0  0  0  0  0  0  0  0  0  0
    5.3010   -4.8030   19.9530 O   0  0  0  0  0  0  0  0  0  0  0  0
    6.8320   -4.3820   21.6370 N   0  0  0  0  0  0  0  0  0  0  0  0
    7.5850   -3.3080   22.2110 C   0  0  0  0  0  0  0  0  0  0  0  0
    7.3750   -3.2910   23.6880 C   0  0  0  0  0  0  0  0  0  0  0  0
    6.0110   -3.8400   23.9370 C   0  0  0  0  0  0  0  0  0  0  0  0
    5.5380   -3.5420   25.3330 C   0  0  0  0  0  0  0  0  0  0  0  0
    4.4320   -3.0140   25.3910 O   0  0  0  0  0  0  0  0  0  0  0  0
    6.3030   -3.8510   26.4600 N   0  0  0  0  0  0  0  0  0  0  0  0
    6.9370   -5.1080   26.5960 C   0  0  0  0  0  0  0  0  0  0  0  0
    7.0260   -5.3120   27.9720 C   0  0  0  0  0  0  0  0  0  0  0  0
    6.2930   -4.3100   28.5810 C   0  0  0  0  0  0  0  0  0  0  0  0
    5.7130   -3.3840   27.7150 C   0  0  1  0  0  0  0  0  0  0  0  0
    6.1790   -2.0460   28.2030 C   0  0  0  0  0  0  0  0  0  0  0  0
    5.4870   -1.5490   29.4930 C   0  0  2  0  0  0  0  0  0  0  0  0
    4.0120   -1.3910   29.3070 C   0  0  0  0  0  0  0  0  0  0  0  0
    3.5610    0.0090   29.6130 C   0  0  0  0  0  0  0  0  0  0  0  0
    4.1890    0.4330   30.9510 C   0  0  0  0  0  0  0  0  0  0  0  0
    5.5530    0.3720   31.0070 C   0  0  0  0  0  0  0  0  0  0  0  0
    6.2700    1.2850   31.7820 C   0  0  0  0  0  0  0  0  0  0  0  0
    7.7730    1.2630   31.8720 C   0  0  0  0  0  0  0  0  0  0  0  0
    8.5360    0.2440   31.1170 C   0  0  0  0  0  0  0  0  0  0  0  0
    7.7500   -0.7260   30.2920 C   0  0  0  0  0  0  0  0  0  0  0  0
    6.2160   -0.6190   30.2720 C   0  0  0  0  0  0  0  0  0  0  0  0
    5.8460   -5.2820   23.6000 C   0  0  0  0  0  0  0  0  0  0  0  0
    6.6060   -5.6210   22.3380 C   0  0  0  0  0  0  0  0  0  0  0  0
  1  2  1  0
  2  3  2  0
  2  4  1  0
  4  5  1  0
  5  6  1  0
  6  7  1  0
  7  8  1  0
  8  9  2  0
  8 10  1  0
 10 11  1  0
 11 12  1  0
 12 13  1  0
 10 14  1  0
 13 14  1  0
 14 15  1  1
 16 15  1  6
 16 17  1  0
 17 18  1  0
 18 19  1  0
 19 20  1  0
 20 21  2  0
 21 22  1  0
 22 23  2  0
 23 24  1  0
 16 25  1  0
 20 25  1  0
 24 25  2  0
  7 26  1  0
  4 27  1  0
 26 27  1  0
M  END
