piperidine-amides-25195-covalent
     RDKit          3D

 25 27  0  0  0  0  0  0  0  0999 V2000
    6.9870   -3.3570   19.3710 C   0  0  0  0  0  0  0  0  0  0  0  0
    6.3510   -4.2340   20.3940 C   0  0  0  0  0  0  0  0  0  0  0  0
    5.4060   -4.9150   19.9990 O   0  0  0  0  0  0  0  0  0  0  0  0
    6.8330   -4.2930   21.7180 N   0  0  0  0  0  0  0  0  0  0  0  0
    6.6590   -5.4730   22.5440 C   0  0  0  0  0  0  0  0  0  0  0  0
    6.0110   -5.1030   23.8600 C   0  0  0  0  0  0  0  0  0  0  0  0
    6.0100   -3.5840   24.0060 C   0  0  0  0  0  0  0  0  0  0  0  0
    5.3460   -3.1870   25.3110 C   0  0  0  0  0  0  0  0  0  0  0  0
    4.1130   -3.0970   25.2780 O   0  0  0  0  0  0  0  0  0  0  0  0
    5.9900   -2.8930   26.5890 N   0  0  0  0  0  0  0  0  0  0  0  0
    6.1970   -3.9970   27.5240 C   0  0  0  0  0  0  0  0  0  0  0  0
    6.8550   -1.7490   26.6430 C   0  0  0  0  0  0  0  0  0  0  0  0
    6.1520   -1.7690   27.6890 C   0  0  0  0  0  0  0  0  0  0  0  0
    5.3890   -2.8680   27.4560 N   0  0  0  0  0  0  0  0  0  0  0  0
    4.3500   -3.3770   28.3550 C   0  0  0  0  0  0  0  0  0  0  0  0
    4.3830   -4.7490   28.3070 C   0  0  0  0  0  0  0  0  0  0  0  0
    3.5680   -5.7940   27.5730 C   0  0  0  0  0  0  0  0  0  0  0  0
    3.9870   -7.2110   27.8510 C   0  0  0  0  0  0  0  0  0  0  0  0
    5.1310   -7.5030   28.7920 C   0  0  0  0  0  0  0  0  0  0  0  0
    5.8120   -6.3370   29.4170 C   0  0  0  0  0  0  0  0  0  0  0  0
    5.5290   -4.8890   29.2540 C   0  0  0  0  0  0  0  0  0  0  0  0
    5.8720   -3.3130   26.1880 N   0  0  0  0  0  0  0  0  0  0  0  0
    6.9120   -2.4860   25.6460 N   0  0  0  0  0  0  0  0  0  0  0  0
    7.2930   -2.9340   23.6310 C   0  0  0  0  0  0  0  0  0  0  0  0
    7.7060   -3.2490   22.2360 C   0  0  0  0  0  0  0  0  0  0  0  0
  1  2  1  0
  2  3  2  0
  2  4  1  0
  4  5  1  0
  5  6  1  0
  6  7  1  0
  7  8  1  0
  8  9  2  0
  8 10  1  0
 10 11  1  0
 10 12  1  0
 12 13  2  0
 13 14  1  0
 14 15  1  0
 15 16  1  0
 16 17  2  0
 17 18  1  0
 18 19  2  0
 19 20  1  0
 16 21  1  0
 20 21  2  0
 14 22  1  0
 12 23  1  0
 22 23  2  0
  7 24  1  0
  4 25  1  0
 24 25  1  0
M  END
