piperidine-amides-20573-covalent
     RDKit          3D

 21 23  0  0  0  0  0  0  0  0999 V2000
    7.0810   -3.3040   19.3350 C   0  0  0  0  0  0  0  0  0  0  0  0
    6.4080   -4.1570   20.3230 C   0  0  0  0  0  0  0  0  0  0  0  0
    5.4020   -4.8260   19.9860 O   0  0  0  0  0  0  0  0  0  0  0  0
    6.9090   -4.2720   21.6330 N   0  0  0  0  0  0  0  0  0  0  0  0
    6.6710   -5.4980   22.3630 C   0  0  0  0  0  0  0  0  0  0  0  0
    6.0160   -5.1570   23.7200 C   0  0  0  0  0  0  0  0  0  0  0  0
    6.1430   -3.6640   23.9710 C   0  0  0  0  0  0  0  0  0  0  0  0
    5.6290   -3.3420   25.3320 C   0  0  0  0  0  0  0  0  0  0  0  0
    4.4040   -3.5540   25.4860 O   0  0  0  0  0  0  0  0  0  0  0  0
    6.3660   -2.7970   26.4360 N   0  0  0  0  0  0  0  0  0  0  0  0
    5.5160   -2.3500   27.5110 C   0  0  0  0  0  0  0  0  0  0  0  0
    5.2600   -3.5340   28.4120 C   0  0  0  0  0  0  0  0  0  0  0  0
    6.3710   -4.1690   28.7980 C   0  0  0  0  0  0  0  0  0  0  0  0
    7.2260   -4.4660   27.7970 C   0  0  2  0  0  0  0  0  0  0  0  0
    6.6890   -5.3550   26.8910 C   0  0  0  0  0  0  0  0  0  0  0  0
    7.7140   -5.9240   26.2310 C   0  0  0  0  0  0  0  0  0  0  0  0
    9.2080   -5.5320   26.9480 S   0  0  0  0  0  0  0  0  0  0  0  0
    8.4310   -4.8510   28.3470 C   0  0  0  0  0  0  0  0  0  0  0  0
    7.5510   -3.3620   27.0680 C   0  0  0  0  0  0  0  0  0  0  0  0
    7.4550   -3.0910   23.6590 C   0  0  0  0  0  0  0  0  0  0  0  0
    7.7150   -3.2490   22.2330 C   0  0  0  0  0  0  0  0  0  0  0  0
  1  2  1  0
  2  3  2  0
  2  4  1  0
  4  5  1  0
  5  6  1  0
  6  7  1  0
  7  8  1  0
  8  9  2  0
  8 10  1  0
 10 11  1  0
 11 12  1  0
 12 13  1  0
 14 13  1  1
 14 15  1  0
 15 16  1  0
 16 17  1  0
 14 18  1  0
 17 18  1  0
 10 19  1  0
 14 19  1  0
  7 20  1  0
  4 21  1  0
 20 21  1  0
M  END
