piperidine-amides-4751-covalent
     RDKit          3D

 24 25  0  0  0  0  0  0  0  0999 V2000
    7.1410   -3.2550   19.1770 C   0  0  0  0  0  0  0  0  0  0  0  0
    6.3520   -3.9890   20.1930 C   0  0  0  0  0  0  0  0  0  0  0  0
    5.2510   -4.4500   19.8340 O   0  0  0  0  0  0  0  0  0  0  0  0
    6.8530   -4.1950   21.4770 N   0  0  0  0  0  0  0  0  0  0  0  0
    7.5950   -3.1590   22.1280 C   0  0  0  0  0  0  0  0  0  0  0  0
    7.1000   -2.7710   23.4460 C   0  0  0  0  0  0  0  0  0  0  0  0
    6.4960   -3.8730   24.2200 C   0  0  0  0  0  0  0  0  0  0  0  0
    5.8010   -3.3450   25.4200 C   0  0  0  0  0  0  0  0  0  0  0  0
    4.5740   -3.1330   25.3380 O   0  0  0  0  0  0  0  0  0  0  0  0
    6.4900   -3.0890   26.6200 N   0  0  0  0  0  0  0  0  0  0  0  0
    5.9690   -3.5110   27.9420 C   0  0  1  0  0  0  0  0  0  0  0  0
    6.6830   -4.6760   28.5420 C   0  0  0  0  0  0  0  0  0  0  0  0
    5.9120   -2.3650   28.8820 C   0  0  0  0  0  0  0  0  0  0  0  0
    4.7440   -1.9130   29.4510 C   0  0  0  0  0  0  0  0  0  0  0  0
    4.6250   -0.8530   30.3310 C   0  0  0  0  0  0  0  0  0  0  0  0
    5.7730   -0.2000   30.6630 C   0  0  0  0  0  0  0  0  0  0  0  0
    5.5610    0.8660   31.5620 O   0  0  0  0  0  0  0  0  0  0  0  0
    4.5720    0.8150   32.5500 C   0  0  0  0  0  0  0  0  0  0  0  0
    5.0940    1.3620   33.7350 F   0  0  0  0  0  0  0  0  0  0  0  0
    3.4870    1.5680   32.2010 F   0  0  0  0  0  0  0  0  0  0  0  0
    6.9980   -0.5780   30.1450 C   0  0  0  0  0  0  0  0  0  0  0  0
    7.0300   -1.6560   29.2630 C   0  0  0  0  0  0  0  0  0  0  0  0
    5.6500   -4.8100   23.4530 C   0  0  0  0  0  0  0  0  0  0  0  0
    6.4400   -5.3330   22.2870 C   0  0  0  0  0  0  0  0  0  0  0  0
  1  2  1  0
  2  3  2  0
  2  4  1  0
  4  5  1  0
  5  6  1  0
  6  7  1  0
  7  8  1  0
  8  9  2  0
  8 10  1  0
 10 11  1  0
 11 12  1  1
 11 13  1  0
 13 14  2  0
 14 15  1  0
 15 16  2  0
 16 17  1  0
 17 18  1  0
 18 19  1  0
 18 20  1  0
 16 21  1  0
 13 22  1  0
 21 22  2  0
  7 23  1  0
  4 24  1  0
 23 24  1  0
M  END
