piperidine-amides-35697-covalent
     RDKit          3D

 48 53  0  0  0  0  0  0  0  0999 V2000
    7.1050   -3.3550   19.3820 C   0  0  0  0  0  0  0  0  0  0  0  0
    6.4040   -4.1950   20.3800 C   0  0  0  0  0  0  0  0  0  0  0  0
    5.4140   -4.8170   19.9850 O   0  0  0  0  0  0  0  0  0  0  0  0
    6.9100   -4.2890   21.6850 N   0  0  0  0  0  0  0  0  0  0  0  0
    7.7670   -3.2880   22.2560 C   0  0  0  0  0  0  0  0  0  0  0  0
    7.0600   -2.5940   23.3860 C   0  0  0  0  0  0  0  0  0  0  0  0
    6.4240   -3.5820   24.3830 C   0  0  0  0  0  0  0  0  0  0  0  0
    5.4140   -2.7760   25.1320 C   0  0  0  0  0  0  0  0  0  0  0  0
    4.4450   -2.3440   24.5060 O   0  0  0  0  0  0  0  0  0  0  0  0
    5.4860   -2.4960   26.5210 N   0  0  0  0  0  0  0  0  0  0  0  0
    5.8250   -1.1970   27.0540 C   0  0  0  0  0  0  0  0  0  0  0  0
    6.6880   -1.3270   28.2940 C   0  0  0  0  0  0  0  0  0  0  0  0
    7.1150   -0.2440   29.0140 C   0  0  0  0  0  0  0  0  0  0  0  0
    6.7210    0.9780   28.5560 C   0  0  0  0  0  0  0  0  0  0  0  0
    7.0400    2.2600   29.1480 N   0  0  0  0  0  0  0  0  0  0  0  0
    7.4520    3.2290   28.1720 C   0  0  0  0  0  0  0  0  0  0  0  0
    6.9600    4.5320   28.7370 C   0  0  0  0  0  0  0  0  0  0  0  0
    6.0850    4.4570   29.8390 N   0  0  0  0  0  0  0  0  0  0  0  0
    4.9330    5.3240   29.8390 C   0  0  0  0  0  0  0  0  0  0  0  0
    4.8540    6.3150   28.9040 O   0  0  0  0  0  0  0  0  0  0  0  0
    3.9620    5.1120   30.7930 O   0  0  0  0  0  0  0  0  0  0  0  0
    2.9170    4.1520   30.5710 C   0  0  0  0  0  0  0  0  0  0  0  0
    1.8160    4.6970   29.7250 C   0  0  0  0  0  0  0  0  0  0  0  0
    2.3320    3.8080   31.9240 C   0  0  0  0  0  0  0  0  0  0  0  0
    3.4230    2.8690   29.9540 C   0  0  0  0  0  0  0  0  0  0  0  0
    6.3060    3.7710   30.9560 C   0  0  0  0  0  0  0  0  0  0  0  0
    7.0830    2.5310   30.5340 C   0  0  0  0  0  0  0  0  0  0  0  0
    5.9480    1.1010   27.4300 C   0  0  0  0  0  0  0  0  0  0  0  0
    5.4830    0.0230   26.6490 N   0  0  0  0  0  0  0  0  0  0  0  0
    4.6580   -3.2500   27.4080 C   0  0  0  0  0  0  0  0  0  0  0  0
    3.3010   -3.1050   27.4430 N   0  0  0  0  0  0  0  0  0  0  0  0
    2.5800   -3.8580   28.3210 C   0  0  0  0  0  0  0  0  0  0  0  0
    3.2650   -4.8510   29.2530 C   0  0  0  0  0  0  0  0  0  0  0  0
    2.6800   -5.6780   30.1700 C   0  0  0  0  0  0  0  0  0  0  0  0
    1.1570   -5.7680   30.3310 C   0  0  0  0  0  0  0  0  0  0  0  0
    3.5270   -6.4290   30.9380 C   0  0  0  0  0  0  0  0  0  0  0  0
    5.0440   -6.3540   30.8090 C   0  0  0  0  0  0  0  0  0  0  0  0
    5.8590   -6.9420   31.7610 O   0  0  0  0  0  0  0  0  0  0  0  0
    5.4940   -5.6450   29.7520 N   0  0  0  0  0  0  0  0  0  0  0  0
    6.5060   -6.0400   28.8810 C   0  0  0  0  0  0  0  0  0  0  0  0
    7.5540   -4.9160   28.6300 C   0  0  0  0  0  0  0  0  0  0  0  0
    7.8390   -4.7350   27.2010 C   0  0  0  0  0  0  0  0  0  0  0  0
    7.1150   -5.8490   26.6160 C   0  0  0  0  0  0  0  0  0  0  0  0
    6.0210   -6.3600   27.5590 C   0  0  0  0  0  0  0  0  0  0  0  0
    4.6220   -4.9090   29.1340 C   0  0  0  0  0  0  0  0  0  0  0  0
    5.2340   -4.1440   28.2640 N   0  0  0  0  0  0  0  0  0  0  0  0
    5.7450   -4.7730   23.7240 C   0  0  0  0  0  0  0  0  0  0  0  0
    6.4530   -5.3500   22.5250 C   0  0  0  0  0  0  0  0  0  0  0  0
  1  2  1  0
  2  3  2  0
  2  4  1  0
  4  5  1  0
  5  6  1  0
  6  7  1  0
  7  8  1  0
  8  9  2  0
  8 10  1  0
 10 11  1  0
 11 12  2  0
 12 13  1  0
 13 14  2  0
 14 15  1  0
 15 16  1  0
 16 17  1  0
 17 18  1  0
 18 19  1  0
 19 20  2  0
 19 21  1  0
 22 21  1  0
 22 23  1  0
 22 24  1  0
 22 25  1  0
 18 26  1  0
 15 27  1  0
 26 27  1  0
 14 28  1  0
 11 29  1  0
 28 29  2  0
 10 30  1  0
 30 31  2  0
 31 32  1  0
 32 33  2  0
 33 34  1  0
 34 35  1  0
 34 36  2  0
 36 37  1  0
 37 38  2  0
 37 39  1  0
 39 40  1  0
 40 41  1  0
 41 42  1  0
 42 43  1  0
 40 44  1  0
 43 44  1  0
 33 45  1  0
 39 45  1  0
 30 46  1  0
 45 46  2  0
  7 47  1  0
  4 48  1  0
 47 48  1  0
M  END
