piperidine-amides-4924-covalent
     RDKit          3D

 23 24  0  0  0  0  0  0  0  0999 V2000
    7.0650   -3.3290   19.2430 C   0  0  0  0  0  0  0  0  0  0  0  0
    6.3620   -4.1210   20.2750 C   0  0  0  0  0  0  0  0  0  0  0  0
    5.3040   -4.6750   19.9270 O   0  0  0  0  0  0  0  0  0  0  0  0
    6.9010   -4.2820   21.5570 N   0  0  0  0  0  0  0  0  0  0  0  0
    7.6340   -3.2150   22.1550 C   0  0  0  0  0  0  0  0  0  0  0  0
    7.1080   -2.7900   23.4420 C   0  0  0  0  0  0  0  0  0  0  0  0
    6.6630   -3.8950   24.3070 C   0  0  0  0  0  0  0  0  0  0  0  0
    5.9420   -3.3240   25.4620 C   0  0  0  0  0  0  0  0  0  0  0  0
    4.7090   -3.1540   25.3840 O   0  0  0  0  0  0  0  0  0  0  0  0
    6.6620   -2.9990   26.6190 N   0  0  0  0  0  0  0  0  0  0  0  0
    6.6130   -1.6930   27.3220 C   0  0  0  0  0  0  0  0  0  0  0  0
    7.1990   -1.6460   28.6560 C   0  0  0  0  0  0  0  0  0  0  0  0
    7.1770   -0.4170   29.4170 C   0  0  0  0  0  0  0  0  0  0  0  0
    6.5890    0.6980   28.8370 C   0  0  0  0  0  0  0  0  0  0  0  0
    6.5610    2.1860   29.7580 Cl  0  0  0  0  0  0  0  0  0  0  0  0
    6.0310    0.6730   27.5610 C   0  0  0  0  0  0  0  0  0  0  0  0
    6.0360   -0.4770   26.8160 C   0  0  0  0  0  0  0  0  0  0  0  0
    5.4340   -0.3420   25.5750 O   0  0  0  0  0  0  0  0  0  0  0  0
    4.1500    0.1600   25.5700 C   0  0  0  0  0  0  0  0  0  0  0  0
    3.8930    1.0010   24.5300 C   0  0  0  0  0  0  0  0  0  0  0  0
    3.0920   -0.7270   25.6770 C   0  0  0  0  0  0  0  0  0  0  0  0
    5.8770   -4.9630   23.6310 C   0  0  0  0  0  0  0  0  0  0  0  0
    6.6110   -5.4390   22.3980 C   0  0  0  0  0  0  0  0  0  0  0  0
  1  2  1  0
  2  3  2  0
  2  4  1  0
  4  5  1  0
  5  6  1  0
  6  7  1  0
  7  8  1  0
  8  9  2  0
  8 10  1  0
 10 11  1  0
 11 12  2  0
 12 13  1  0
 13 14  2  0
 14 15  1  0
 14 16  1  0
 11 17  1  0
 16 17  2  0
 17 18  1  0
 18 19  1  0
 19 20  1  0
 19 21  1  0
  7 22  1  0
  4 23  1  0
 22 23  1  0
M  END
