piperidine-amides-19853-covalent
     RDKit          3D

 22 24  0  0  0  0  0  0  0  0999 V2000
    6.9980   -3.3660   19.3920 C   0  0  0  0  0  0  0  0  0  0  0  0
    6.3750   -4.2670   20.4030 C   0  0  0  0  0  0  0  0  0  0  0  0
    5.4130   -4.9250   20.0020 O   0  0  0  0  0  0  0  0  0  0  0  0
    6.8870   -4.3830   21.7160 N   0  0  0  0  0  0  0  0  0  0  0  0
    6.6640   -5.5720   22.5170 C   0  0  0  0  0  0  0  0  0  0  0  0
    6.0470   -5.2180   23.8570 C   0  0  0  0  0  0  0  0  0  0  0  0
    5.8710   -3.7040   23.9550 C   0  0  0  0  0  0  0  0  0  0  0  0
    5.0470   -3.3070   25.1520 C   0  0  0  0  0  0  0  0  0  0  0  0
    3.9740   -2.7540   24.9170 O   0  0  0  0  0  0  0  0  0  0  0  0
    5.3640   -3.4920   26.5220 N   0  0  0  0  0  0  0  0  0  0  0  0
    4.6400   -2.6690   27.4950 C   0  0  0  0  0  0  0  0  0  0  0  0
    4.5800   -3.3310   28.8720 C   0  0  0  0  0  0  0  0  0  0  0  0
    5.8230   -3.7010   29.2610 O   0  0  0  0  0  0  0  0  0  0  0  0
    6.5820   -4.2220   28.3610 C   0  0  1  0  0  0  0  0  0  0  0  0
    5.9530   -5.3880   28.0780 C   0  0  0  0  0  0  0  0  0  0  0  0
    5.6040   -6.4410   28.9490 N   0  0  0  0  0  0  0  0  0  0  0  0
    4.9510   -7.3450   28.0890 C   0  0  0  0  0  0  0  0  0  0  0  0
    4.9240   -6.8650   26.8230 N   0  0  0  0  0  0  0  0  0  0  0  0
    5.5470   -5.6610   26.8190 N   0  0  0  0  0  0  0  0  0  0  0  0
    6.5300   -3.2120   27.2320 C   0  0  0  0  0  0  0  0  0  0  0  0
    7.1610   -2.9940   23.7140 C   0  0  0  0  0  0  0  0  0  0  0  0
    7.6410   -3.2880   22.3180 C   0  0  0  0  0  0  0  0  0  0  0  0
  1  2  1  0
  2  3  2  0
  2  4  1  0
  4  5  1  0
  5  6  1  0
  6  7  1  0
  7  8  1  0
  8  9  2  0
  8 10  1  0
 10 11  1  0
 11 12  1  0
 12 13  1  0
 13 14  1  0
 14 15  1  6
 15 16  1  0
 16 17  2  0
 17 18  1  0
 15 19  2  0
 18 19  1  0
 10 20  1  0
 14 20  1  0
  7 21  1  0
  4 22  1  0
 21 22  1  0
M  END
