piperidine-amides-24254-covalent
     RDKit          3D

 23 25  0  0  0  0  0  0  0  0999 V2000
    7.0910   -3.3480   19.3320 C   0  0  0  0  0  0  0  0  0  0  0  0
    6.4230   -4.2160   20.3080 C   0  0  0  0  0  0  0  0  0  0  0  0
    5.3830   -4.8300   19.9860 O   0  0  0  0  0  0  0  0  0  0  0  0
    6.9850   -4.4170   21.5790 N   0  0  0  0  0  0  0  0  0  0  0  0
    6.6330   -5.5990   22.3080 C   0  0  0  0  0  0  0  0  0  0  0  0
    5.7790   -5.1110   23.4810 C   0  0  0  0  0  0  0  0  0  0  0  0
    6.5420   -4.0130   24.2170 C   0  0  0  0  0  0  0  0  0  0  0  0
    5.6420   -3.4750   25.2570 C   0  0  0  0  0  0  0  0  0  0  0  0
    4.9540   -2.4680   25.0020 O   0  0  0  0  0  0  0  0  0  0  0  0
    5.5820   -4.1030   26.5120 N   0  0  0  0  0  0  0  0  0  0  0  0
    6.8080   -4.3630   27.1170 C   0  0  0  0  0  0  0  0  0  0  0  0
    6.4630   -5.1650   28.3050 C   0  0  0  0  0  0  0  0  0  0  0  0
    5.2050   -4.7960   28.6110 C   0  0  2  0  0  0  0  0  0  0  0  0
    4.2570   -5.7710   28.7610 C   0  0  0  0  0  0  0  0  0  0  0  0
    3.8540   -6.6980   27.8600 C   0  0  0  0  0  0  0  0  0  0  0  0
    2.8960   -7.6680   28.0210 C   0  0  0  0  0  0  0  0  0  0  0  0
    1.9840   -8.0380   29.2150 C   0  0  0  0  0  0  0  0  0  0  0  0
    0.7560   -9.2450   29.4840 Cl  0  0  0  0  0  0  0  0  0  0  0  0
    2.5370   -6.9340   30.1430 C   0  0  0  0  0  0  0  0  0  0  0  0
    3.5900   -5.9000   29.9020 C   0  0  0  0  0  0  0  0  0  0  0  0
    4.6660   -3.9310   27.6370 C   0  0  0  0  0  0  0  0  0  0  0  0
    6.8770   -2.8790   23.2870 C   0  0  0  0  0  0  0  0  0  0  0  0
    7.6230   -3.3310   22.2450 C   0  0  0  0  0  0  0  0  0  0  0  0
  1  2  1  0
  2  3  2  0
  2  4  1  0
  4  5  1  0
  5  6  1  0
  6  7  1  0
  7  8  1  0
  8  9  2  0
  8 10  1  0
 10 11  1  0
 11 12  1  0
 12 13  1  0
 13 14  1  6
 14 15  2  0
 15 16  1  0
 16 17  2  0
 17 18  1  0
 17 19  1  0
 14 20  1  0
 19 20  2  0
 10 21  1  0
 13 21  1  0
  7 22  1  0
  4 23  1  0
 22 23  1  0
M  END
