piperidine-amides-30295-covalent
     RDKit          3D

 27 29  0  0  0  0  0  0  0  0999 V2000
    7.0450   -3.3500   19.2680 C   0  0  0  0  0  0  0  0  0  0  0  0
    6.3810   -4.1740   20.2700 C   0  0  0  0  0  0  0  0  0  0  0  0
    5.3640   -4.7950   19.9700 O   0  0  0  0  0  0  0  0  0  0  0  0
    6.9400   -4.3080   21.5860 N   0  0  0  0  0  0  0  0  0  0  0  0
    7.7620   -3.2660   22.1390 C   0  0  0  0  0  0  0  0  0  0  0  0
    7.1670   -2.7440   23.4050 C   0  0  0  0  0  0  0  0  0  0  0  0
    6.5490   -3.8910   24.1950 C   0  0  0  0  0  0  0  0  0  0  0  0
    5.7210   -3.2910   25.2790 C   0  0  0  0  0  0  0  0  0  0  0  0
    4.4890   -3.1250   25.1890 O   0  0  0  0  0  0  0  0  0  0  0  0
    6.3910   -2.9010   26.4610 N   0  0  0  0  0  0  0  0  0  0  0  0
    5.6040   -2.4900   27.6420 C   0  0  0  0  0  0  0  0  0  0  0  0
    5.9140   -3.3180   28.8930 C   0  0  0  0  0  0  0  0  0  0  0  0
    6.9800   -4.1660   28.8500 C   0  0  0  0  0  0  0  0  0  0  0  0
    7.3180   -4.5230   27.6160 C   0  0  1  0  0  0  0  0  0  0  0  0
    6.2660   -5.1230   26.9970 C   0  0  0  0  0  0  0  0  0  0  0  0
    5.7570   -6.1460   27.8250 N   0  0  0  0  0  0  0  0  0  0  0  0
    6.7430   -6.8030   28.5700 C   0  0  0  0  0  0  0  0  0  0  0  0
    6.1050   -7.7420   29.2640 C   0  0  0  0  0  0  0  0  0  0  0  0
    6.6390   -8.6510   30.1160 C   0  0  0  0  0  0  0  0  0  0  0  0
    6.1250   -8.4480   31.3880 O   0  0  0  0  0  0  0  0  0  0  0  0
    7.6130   -9.5690   29.6700 N   0  0  0  0  0  0  0  0  0  0  0  0
    7.9560  -10.9160   29.8500 C   0  0  0  0  0  0  0  0  0  0  0  0
    4.7090   -7.5850   28.8990 N   0  0  0  0  0  0  0  0  0  0  0  0
    4.5300   -6.5900   28.0100 N   0  0  0  0  0  0  0  0  0  0  0  0
    7.6410   -3.4610   26.8430 C   0  0  0  0  0  0  0  0  0  0  0  0
    5.7360   -4.8840   23.3640 C   0  0  0  0  0  0  0  0  0  0  0  0
    6.6040   -5.4230   22.4200 C   0  0  0  0  0  0  0  0  0  0  0  0
  1  2  1  0
  2  3  2  0
  2  4  1  0
  4  5  1  0
  5  6  1  0
  6  7  1  0
  7  8  1  0
  8  9  2  0
  8 10  1  0
 10 11  1  0
 11 12  1  0
 12 13  1  0
 13 14  1  0
 14 15  1  6
 15 16  1  0
 16 17  1  0
 17 18  2  0
 18 19  1  0
 19 20  2  0
 19 21  1  0
 21 22  1  0
 18 23  1  0
 16 24  1  0
 23 24  2  0
 10 25  1  0
 14 25  1  0
  7 26  1  0
  4 27  1  0
 26 27  1  0
M  END
