piperidine-amides-21460-covalent
     RDKit          3D

 23 25  0  0  0  0  0  0  0  0999 V2000
    7.0210   -3.3810   19.4480 C   0  0  0  0  0  0  0  0  0  0  0  0
    6.4080   -4.2780   20.4360 C   0  0  0  0  0  0  0  0  0  0  0  0
    5.4230   -4.9440   20.0110 O   0  0  0  0  0  0  0  0  0  0  0  0
    6.9150   -4.4140   21.7500 N   0  0  0  0  0  0  0  0  0  0  0  0
    6.6590   -5.6000   22.5490 C   0  0  0  0  0  0  0  0  0  0  0  0
    6.0630   -5.1910   23.8820 C   0  0  0  0  0  0  0  0  0  0  0  0
    5.8480   -3.7040   23.9440 C   0  0  0  0  0  0  0  0  0  0  0  0
    5.0400   -3.2550   25.1380 C   0  0  0  0  0  0  0  0  0  0  0  0
    3.8720   -2.9270   24.8790 O   0  0  0  0  0  0  0  0  0  0  0  0
    5.3810   -3.1550   26.5130 N   0  0  0  0  0  0  0  0  0  0  0  0
    6.6670   -2.9690   26.9200 C   0  0  0  0  0  0  0  0  0  0  0  0
    6.5470   -3.8030   28.1750 C   0  0  0  0  0  0  0  0  0  0  0  0
    5.2620   -3.9270   28.6130 C   0  0  2  0  0  0  0  0  0  0  0  0
    4.7830   -5.0830   29.1860 C   0  0  0  0  0  0  0  0  0  0  0  0
    5.0220   -6.2800   28.6010 N   0  0  0  0  0  0  0  0  0  0  0  0
    4.5790   -7.4310   29.0800 C   0  0  0  0  0  0  0  0  0  0  0  0
    3.7210   -7.4290   30.1400 C   0  0  0  0  0  0  0  0  0  0  0  0
    3.3420   -6.2480   30.7010 C   0  0  0  0  0  0  0  0  0  0  0  0
    2.2890   -6.1760   31.6230 O   0  0  0  0  0  0  0  0  0  0  0  0
    4.0410   -5.1550   30.3280 N   0  0  0  0  0  0  0  0  0  0  0  0
    4.4450   -3.4550   27.5570 C   0  0  0  0  0  0  0  0  0  0  0  0
    7.1390   -2.9910   23.7370 C   0  0  0  0  0  0  0  0  0  0  0  0
    7.6290   -3.2540   22.3240 C   0  0  0  0  0  0  0  0  0  0  0  0
  1  2  1  0
  2  3  2  0
  2  4  1  0
  4  5  1  0
  5  6  1  0
  6  7  1  0
  7  8  1  0
  8  9  2  0
  8 10  1  0
 10 11  1  0
 11 12  1  0
 12 13  1  0
 13 14  1  6
 14 15  2  0
 15 16  1  0
 16 17  2  0
 17 18  1  0
 18 19  2  0
 14 20  1  0
 18 20  1  0
 10 21  1  0
 13 21  1  0
  7 22  1  0
  4 23  1  0
 22 23  1  0
M  END
