piperidine-amides-10975-covalent
     RDKit          3D

 21 22  0  0  0  0  0  0  0  0999 V2000
    7.1050   -3.2750   19.1940 C   0  0  0  0  0  0  0  0  0  0  0  0
    6.3510   -4.0220   20.2060 C   0  0  0  0  0  0  0  0  0  0  0  0
    5.2800   -4.5590   19.8860 O   0  0  0  0  0  0  0  0  0  0  0  0
    6.8330   -4.1990   21.5120 N   0  0  0  0  0  0  0  0  0  0  0  0
    6.6380   -5.4320   22.2360 C   0  0  0  0  0  0  0  0  0  0  0  0
    5.8200   -5.0520   23.4370 C   0  0  0  0  0  0  0  0  0  0  0  0
    5.9770   -3.5910   23.7420 C   0  0  0  0  0  0  0  0  0  0  0  0
    5.5380   -3.2200   25.1000 C   0  0  0  0  0  0  0  0  0  0  0  0
    4.4110   -2.6760   25.2910 O   0  0  0  0  0  0  0  0  0  0  0  0
    6.3350   -3.4540   26.2230 N   0  0  0  0  0  0  0  0  0  0  0  0
    6.6740   -4.8410   26.5920 C   0  0  1  0  0  0  0  0  0  0  0  0
    7.5490   -4.7890   27.7920 C   0  0  0  0  0  0  0  0  0  0  0  0
    7.9540   -3.4750   28.3070 C   0  0  0  0  0  0  0  0  0  0  0  0
    8.7600   -5.6780   27.6830 C   0  0  0  0  0  0  0  0  0  0  0  0
    6.4990   -5.3440   28.7050 C   0  0  2  0  0  0  0  0  0  0  0  0
    6.5080   -6.6250   29.2930 O   0  0  0  0  0  0  0  0  0  0  0  0
    5.6900   -5.4540   27.4980 C   0  0  0  0  0  0  0  0  0  0  0  0
    4.3710   -5.1080   27.3740 C   0  0  0  0  0  0  0  0  0  0  0  0
    4.8760   -6.7320   27.3640 C   0  0  0  0  0  0  0  0  0  0  0  0
    7.4220   -3.1090   23.5670 C   0  0  0  0  0  0  0  0  0  0  0  0
    7.6900   -3.1600   22.0640 C   0  0  0  0  0  0  0  0  0  0  0  0
  1  2  1  0
  2  3  2  0
  2  4  1  0
  4  5  1  0
  5  6  1  0
  6  7  1  0
  7  8  1  0
  8  9  2  0
  8 10  1  0
 11 10  1  1
 11 12  1  0
 12 13  1  0
 12 14  1  0
 12 15  1  0
 15 16  1  6
 11 17  1  0
 15 17  1  0
 17 18  1  0
 17 19  1  0
  7 20  1  0
  4 21  1  0
 20 21  1  0
M  END
