piperidine-amides-14401-covalent
     RDKit          3D

 23 24  0  0  0  0  0  0  0  0999 V2000
    7.1090   -3.2580   19.1870 C   0  0  0  0  0  0  0  0  0  0  0  0
    6.3820   -3.9930   20.2250 C   0  0  0  0  0  0  0  0  0  0  0  0
    5.3370   -4.5950   19.9030 O   0  0  0  0  0  0  0  0  0  0  0  0
    6.8860   -4.0520   21.5490 N   0  0  0  0  0  0  0  0  0  0  0  0
    7.7890   -3.0280   22.0270 C   0  0  0  0  0  0  0  0  0  0  0  0
    7.7000   -2.8670   23.5120 C   0  0  0  0  0  0  0  0  0  0  0  0
    6.3440   -3.3800   23.9120 C   0  0  0  0  0  0  0  0  0  0  0  0
    6.1460   -3.2160   25.3850 C   0  0  0  0  0  0  0  0  0  0  0  0
    4.9850   -3.0140   25.7530 O   0  0  0  0  0  0  0  0  0  0  0  0
    7.2720   -3.2920   26.2150 N   0  0  0  0  0  0  0  0  0  0  0  0
    7.2940   -4.0650   27.4140 C   0  0  0  0  0  0  0  0  0  0  0  0
    7.0370   -5.4320   27.2330 C   0  0  0  0  0  0  0  0  0  0  0  0
    5.8010   -5.9390   27.6000 C   0  0  0  0  0  0  0  0  0  0  0  0
    5.0000   -6.1260   26.4860 O   0  0  0  0  0  0  0  0  0  0  0  0
    4.0580   -6.9920   26.0730 C   0  0  0  0  0  0  0  0  0  0  0  0
    3.2110   -7.7780   26.9480 C   0  0  0  0  0  0  0  0  0  0  0  0
    2.3740   -8.5620   25.9640 C   0  0  0  0  0  0  0  0  0  0  0  0
    1.3310   -9.5510   26.3200 C   0  0  0  0  0  0  0  0  0  0  0  0
    2.7310   -8.2240   24.6320 N   0  0  0  0  0  0  0  0  0  0  0  0
    3.7350   -7.2910   24.7370 N   0  0  0  0  0  0  0  0  0  0  0  0
    4.2840   -6.7830   23.5060 C   0  0  0  0  0  0  0  0  0  0  0  0
    6.0620   -4.7770   23.5700 C   0  0  0  0  0  0  0  0  0  0  0  0
    6.6460   -5.1910   22.3990 C   0  0  0  0  0  0  0  0  0  0  0  0
  1  2  1  0
  2  3  2  0
  2  4  1  0
  4  5  1  0
  5  6  1  0
  6  7  1  0
  7  8  1  0
  8  9  2  0
  8 10  1  0
 10 11  1  0
 11 12  1  0
 12 13  1  0
 13 14  1  0
 14 15  1  0
 15 16  2  0
 16 17  1  0
 17 18  1  0
 17 19  2  0
 15 20  1  0
 19 20  1  0
 20 21  1  0
  7 22  1  0
  4 23  1  0
 22 23  1  0
M  END
