piperidine-amides-4740-covalent
     RDKit          3D

 24 26  0  0  0  0  0  0  0  0999 V2000
    7.1370   -3.3110   19.2570 C   0  0  0  0  0  0  0  0  0  0  0  0
    6.3520   -4.0760   20.2470 C   0  0  0  0  0  0  0  0  0  0  0  0
    5.2640   -4.5450   19.8740 O   0  0  0  0  0  0  0  0  0  0  0  0
    6.8590   -4.3040   21.5240 N   0  0  0  0  0  0  0  0  0  0  0  0
    7.6440   -3.2890   22.1480 C   0  0  0  0  0  0  0  0  0  0  0  0
    7.2760   -2.9550   23.5190 C   0  0  0  0  0  0  0  0  0  0  0  0
    6.5270   -3.9880   24.2610 C   0  0  0  0  0  0  0  0  0  0  0  0
    5.8270   -3.3220   25.3820 C   0  0  0  0  0  0  0  0  0  0  0  0
    4.9880   -3.9560   26.0410 O   0  0  0  0  0  0  0  0  0  0  0  0
    6.1000   -1.9690   25.6520 N   0  0  0  0  0  0  0  0  0  0  0  0
    6.6140   -1.4070   26.9190 C   0  0  2  0  0  0  0  0  0  0  0  0
    6.3050   -2.1970   28.1370 C   0  0  0  0  0  0  0  0  0  0  0  0
    6.1850   -1.5010   29.4060 C   0  0  0  0  0  0  0  0  0  0  0  0
    7.0820   -0.5280   29.7100 C   0  0  0  0  0  0  0  0  0  0  0  0
    7.3820    0.2980   28.8450 O   0  0  0  0  0  0  0  0  0  0  0  0
    6.3540    0.7760   28.1940 C   0  0  0  0  0  0  0  0  0  0  0  0
    5.7340    1.9480   28.4240 C   0  0  0  0  0  0  0  0  0  0  0  0
    4.6600    2.3500   27.6720 C   0  0  0  0  0  0  0  0  0  0  0  0
    4.1670    1.5840   26.6520 C   0  0  0  0  0  0  0  0  0  0  0  0
    2.6660    2.1940   25.6280 Br  0  0  0  0  0  0  0  0  0  0  0  0
    4.7820    0.3620   26.3830 C   0  0  0  0  0  0  0  0  0  0  0  0
    5.9370   -0.0680   27.1970 C   0  0  0  0  0  0  0  0  0  0  0  0
    5.5970   -4.8060   23.4480 C   0  0  0  0  0  0  0  0  0  0  0  0
    6.3720   -5.4050   22.3180 C   0  0  0  0  0  0  0  0  0  0  0  0
  1  2  1  0
  2  3  2  0
  2  4  1  0
  4  5  1  0
  5  6  1  0
  6  7  1  0
  7  8  1  0
  8  9  2  0
  8 10  1  0
 11 10  1  6
 11 12  1  0
 12 13  1  0
 13 14  1  0
 14 15  1  0
 15 16  1  0
 16 17  1  0
 17 18  2  0
 18 19  1  0
 19 20  1  0
 19 21  2  0
 11 22  1  0
 16 22  2  0
 21 22  1  0
  7 23  1  0
  4 24  1  0
 23 24  1  0
M  END
