piperidine-amides-23823-covalent
     RDKit          3D

 22 23  0  0  0  0  0  0  0  0999 V2000
    6.9890   -3.3920   19.3980 C   0  0  0  0  0  0  0  0  0  0  0  0
    6.3680   -4.2640   20.4150 C   0  0  0  0  0  0  0  0  0  0  0  0
    5.4180   -4.9780   20.0130 O   0  0  0  0  0  0  0  0  0  0  0  0
    6.8520   -4.3220   21.7630 N   0  0  0  0  0  0  0  0  0  0  0  0
    6.5650   -5.4740   22.5640 C   0  0  0  0  0  0  0  0  0  0  0  0
    6.0710   -5.1420   23.9050 C   0  0  0  0  0  0  0  0  0  0  0  0
    5.9890   -3.6850   24.1190 C   0  0  0  0  0  0  0  0  0  0  0  0
    5.3060   -3.1530   25.3840 C   0  0  0  0  0  0  0  0  0  0  0  0
    4.6260   -2.1320   25.2210 O   0  0  0  0  0  0  0  0  0  0  0  0
    5.3300   -3.6710   26.7210 N   0  0  0  0  0  0  0  0  0  0  0  0
    6.4490   -3.7910   27.4910 C   0  0  0  0  0  0  0  0  0  0  0  0
    6.6770   -5.0840   28.1410 C   0  0  0  0  0  0  0  0  0  0  0  0
    5.0890   -5.4920   28.8070 S   0  0  0  0  0  0  0  0  0  0  0  0
    4.3680   -6.4340   27.8830 O   0  0  0  0  0  0  0  0  0  0  0  0
    5.2420   -6.1200   30.1440 O   0  0  0  0  0  0  0  0  0  0  0  0
    4.3420   -3.9000   28.8670 C   0  0  0  0  0  0  0  0  0  0  0  0
    4.1440   -3.5210   27.5270 C   0  0  1  0  0  0  0  0  0  0  0  0
    3.9870   -2.0900   28.0730 C   0  0  0  0  0  0  0  0  0  0  0  0
    2.5000   -2.1390   27.9190 C   0  0  0  0  0  0  0  0  0  0  0  0
    1.8770   -1.2120   28.5310 O   0  0  0  0  0  0  0  0  0  0  0  0
    7.3510   -3.0540   23.8260 C   0  0  0  0  0  0  0  0  0  0  0  0
    7.6580   -3.2600   22.3480 C   0  0  0  0  0  0  0  0  0  0  0  0
  1  2  1  0
  2  3  2  0
  2  4  1  0
  4  5  1  0
  5  6  1  0
  6  7  1  0
  7  8  1  0
  8  9  2  0
  8 10  1  0
 10 11  1  0
 11 12  1  0
 13 12  1  0
 13 14  2  0
 13 15  2  0
 13 16  1  0
 10 17  1  0
 16 17  1  0
 17 18  1  1
 18 19  1  0
 19 20  1  0
  7 21  1  0
  4 22  1  0
 21 22  1  0
M  END
