piperidine-amides-33038-covalent
     RDKit          3D

 29 31  0  0  0  0  0  0  0  0999 V2000
    7.0680   -3.3460   19.3590 C   0  0  0  0  0  0  0  0  0  0  0  0
    6.3820   -4.2370   20.3330 C   0  0  0  0  0  0  0  0  0  0  0  0
    5.3490   -4.8200   19.9730 O   0  0  0  0  0  0  0  0  0  0  0  0
    6.9380   -4.4550   21.6130 N   0  0  0  0  0  0  0  0  0  0  0  0
    6.5070   -5.5660   22.4060 C   0  0  0  0  0  0  0  0  0  0  0  0
    5.5320   -4.9720   23.4290 C   0  0  0  0  0  0  0  0  0  0  0  0
    6.3140   -4.0410   24.2960 C   0  0  0  0  0  0  0  0  0  0  0  0
    5.5100   -3.4360   25.3990 C   0  0  0  0  0  0  0  0  0  0  0  0
    4.8560   -2.4410   25.0880 O   0  0  0  0  0  0  0  0  0  0  0  0
    5.4750   -3.9680   26.7050 N   0  0  0  0  0  0  0  0  0  0  0  0
    4.3500   -4.3460   27.4500 C   0  0  0  0  0  0  0  0  0  0  0  0
    4.3750   -4.3730   28.8340 C   0  0  0  0  0  0  0  0  0  0  0  0
    5.5730   -5.0770   29.2490 N   0  0  0  0  0  0  0  0  0  0  0  0
    5.5980   -6.4290   29.6010 C   0  0  0  0  0  0  0  0  0  0  0  0
    4.7130   -6.6790   30.6320 C   0  0  0  0  0  0  0  0  0  0  0  0
    5.1510   -7.6460   31.5880 N   0  0  0  0  0  0  0  0  0  0  0  0
    4.6110   -7.5670   32.9080 C   0  0  0  0  0  0  0  0  0  0  0  0
    3.2960   -7.4220   33.0840 O   0  0  0  0  0  0  0  0  0  0  0  0
    5.4260   -7.6340   34.2100 C   0  0  0  0  0  0  0  0  0  0  0  0
    5.3220   -6.3940   35.0350 C   0  0  0  0  0  0  0  0  0  0  0  0
    5.9910   -6.2950   36.2230 C   0  0  0  0  0  0  0  0  0  0  0  0
    6.8750   -7.3380   36.8450 C   0  0  0  0  0  0  0  0  0  0  0  0
    6.8750   -8.5520   35.8730 C   0  0  0  0  0  0  0  0  0  0  0  0
    6.2390   -8.7560   34.6600 C   0  0  0  0  0  0  0  0  0  0  0  0
    6.3570   -9.8960   33.9440 F   0  0  0  0  0  0  0  0  0  0  0  0
    6.7280   -4.7250   28.5010 C   0  0  0  0  0  0  0  0  0  0  0  0
    6.3930   -3.4740   27.6980 C   0  0  0  0  0  0  0  0  0  0  0  0
    6.9280   -2.8950   23.5010 C   0  0  0  0  0  0  0  0  0  0  0  0
    7.6540   -3.3730   22.2890 C   0  0  0  0  0  0  0  0  0  0  0  0
  1  2  1  0
  2  3  2  0
  2  4  1  0
  4  5  1  0
  5  6  1  0
  6  7  1  0
  7  8  1  0
  8  9  2  0
  8 10  1  0
 10 11  1  0
 11 12  1  0
 12 13  1  0
 13 14  1  0
 14 15  1  0
 15 16  1  0
 16 17  1  0
 17 18  2  0
 17 19  1  0
 19 20  2  0
 20 21  1  0
 21 22  2  0
 22 23  1  0
 19 24  1  0
 23 24  2  0
 24 25  1  0
 13 26  1  0
 10 27  1  0
 26 27  1  0
  7 28  1  0
  4 29  1  0
 28 29  1  0
M  END
