piperidine-amides-6856-covalent
     RDKit          3D

 23 24  0  0  0  0  0  0  0  0999 V2000
    7.0290   -3.3300   19.3330 C   0  0  0  0  0  0  0  0  0  0  0  0
    6.3470   -4.1660   20.3330 C   0  0  0  0  0  0  0  0  0  0  0  0
    5.3780   -4.8780   19.9850 O   0  0  0  0  0  0  0  0  0  0  0  0
    6.7800   -4.2160   21.6650 N   0  0  0  0  0  0  0  0  0  0  0  0
    7.6740   -3.1870   22.1820 C   0  0  0  0  0  0  0  0  0  0  0  0
    7.5010   -3.1110   23.7040 C   0  0  0  0  0  0  0  0  0  0  0  0
    6.0860   -3.5440   23.9870 C   0  0  0  0  0  0  0  0  0  0  0  0
    5.6360   -3.2250   25.3620 C   0  0  0  0  0  0  0  0  0  0  0  0
    4.4120   -3.2960   25.6180 O   0  0  0  0  0  0  0  0  0  0  0  0
    6.5700   -2.8460   26.3530 N   0  0  0  0  0  0  0  0  0  0  0  0
    6.4970   -1.5590   27.0120 C   0  0  0  0  0  0  0  0  0  0  0  0
    5.8440   -0.4740   26.1460 C   0  0  0  0  0  0  0  0  0  0  0  0
    6.1320    0.2950   27.3380 N   0  0  0  0  0  0  0  0  0  0  0  0
    5.8560    1.7080   27.5710 C   0  0  0  0  0  0  0  0  0  0  0  0
    4.5070    1.6800   27.8410 C   0  0  0  0  0  0  0  0  0  0  0  0
    3.7570    1.4640   26.6940 F   0  0  0  0  0  0  0  0  0  0  0  0
    4.1250    2.9120   28.3490 F   0  0  0  0  0  0  0  0  0  0  0  0
    4.2710    0.6440   28.7030 F   0  0  0  0  0  0  0  0  0  0  0  0
    6.7040   -0.2110   28.3910 N   0  0  0  0  0  0  0  0  0  0  0  0
    7.0900   -1.5970   28.4130 C   0  0  0  0  0  0  0  0  0  0  0  0
    7.4550   -1.0680   29.6310 C   0  0  0  0  0  0  0  0  0  0  0  0
    6.0370   -5.0560   23.7750 C   0  0  0  0  0  0  0  0  0  0  0  0
    6.6560   -5.4250   22.4540 C   0  0  0  0  0  0  0  0  0  0  0  0
  1  2  1  0
  2  3  2  0
  2  4  1  0
  4  5  1  0
  5  6  1  0
  6  7  1  0
  7  8  1  0
  8  9  2  0
  8 10  1  0
 10 11  1  0
 11 12  2  0
 12 13  1  0
 13 14  1  0
 14 15  1  0
 15 16  1  0
 15 17  1  0
 15 18  1  0
 13 19  1  0
 11 20  1  0
 19 20  2  0
 20 21  1  0
  7 22  1  0
  4 23  1  0
 22 23  1  0
M  END
