piperidine-amides-30846-covalent
     RDKit          3D

 23 25  0  0  0  0  0  0  0  0999 V2000
    7.0000   -3.3730   19.4330 C   0  0  0  0  0  0  0  0  0  0  0  0
    6.3560   -4.2490   20.4260 C   0  0  0  0  0  0  0  0  0  0  0  0
    5.4360   -4.9810   20.0190 O   0  0  0  0  0  0  0  0  0  0  0  0
    6.7640   -4.3140   21.7880 N   0  0  0  0  0  0  0  0  0  0  0  0
    6.6060   -5.5270   22.5870 C   0  0  0  0  0  0  0  0  0  0  0  0
    6.0160   -5.1370   23.9340 C   0  0  0  0  0  0  0  0  0  0  0  0
    5.9410   -3.6510   24.0780 C   0  0  0  0  0  0  0  0  0  0  0  0
    5.2990   -3.0580   25.3210 C   0  0  0  0  0  0  0  0  0  0  0  0
    4.6280   -2.0080   25.1760 O   0  0  0  0  0  0  0  0  0  0  0  0
    5.3180   -3.5330   26.6720 N   0  0  0  0  0  0  0  0  0  0  0  0
    4.7760   -2.7190   27.7680 C   0  0  0  0  0  0  0  0  0  0  0  0
    4.1010   -3.6220   28.7450 C   0  0  0  0  0  0  0  0  0  0  0  0
    4.7500   -4.8970   29.0780 C   0  0  0  0  0  0  0  0  0  0  0  0
    5.8930   -5.1990   28.1900 C   0  0  0  0  0  0  0  0  0  0  0  0
    6.6400   -6.4760   28.4580 C   0  0  0  0  0  0  0  0  0  0  0  0
    6.1050   -7.2750   29.5850 C   0  0  0  0  0  0  0  0  0  0  0  0
    5.0400   -6.9150   30.3280 C   0  0  0  0  0  0  0  0  0  0  0  0
    4.6110   -7.6400   31.2880 O   0  0  0  0  0  0  0  0  0  0  0  0
    4.3430   -5.7360   30.0980 C   0  0  0  0  0  0  0  0  0  0  0  0
    2.8310   -5.3000   31.2010 Br  0  0  0  0  0  0  0  0  0  0  0  0
    6.2310   -4.3800   27.1870 C   0  0  0  0  0  0  0  0  0  0  0  0
    7.2420   -2.9700   23.7600 C   0  0  0  0  0  0  0  0  0  0  0  0
    7.6490   -3.2870   22.3370 C   0  0  0  0  0  0  0  0  0  0  0  0
  1  2  1  0
  2  3  2  0
  2  4  1  0
  4  5  1  0
  5  6  1  0
  6  7  1  0
  7  8  1  0
  8  9  2  0
  8 10  1  0
 10 11  1  0
 11 12  1  0
 12 13  1  0
 13 14  2  0
 14 15  1  0
 15 16  2  0
 16 17  1  0
 17 18  1  0
 13 19  1  0
 17 19  2  0
 19 20  1  0
 10 21  1  0
 14 21  1  0
  7 22  1  0
  4 23  1  0
 22 23  1  0
M  END
