piperidine-amides-8374-covalent
     RDKit          3D

 24 25  0  0  0  0  0  0  0  0999 V2000
    7.0740   -3.3160   19.2980 C   0  0  0  0  0  0  0  0  0  0  0  0
    6.3820   -4.1290   20.2980 C   0  0  0  0  0  0  0  0  0  0  0  0
    5.3600   -4.7490   19.9530 O   0  0  0  0  0  0  0  0  0  0  0  0
    6.9000   -4.2360   21.6100 N   0  0  0  0  0  0  0  0  0  0  0  0
    7.7820   -3.2090   22.1110 C   0  0  0  0  0  0  0  0  0  0  0  0
    7.6040   -3.0720   23.5810 C   0  0  0  0  0  0  0  0  0  0  0  0
    6.1990   -3.5530   23.8370 C   0  0  0  0  0  0  0  0  0  0  0  0
    5.8500   -3.3320   25.2700 C   0  0  0  0  0  0  0  0  0  0  0  0
    4.6530   -3.4190   25.5530 O   0  0  0  0  0  0  0  0  0  0  0  0
    6.8960   -3.0170   26.1690 N   0  0  0  0  0  0  0  0  0  0  0  0
    6.7550   -1.8800   27.0290 C   0  0  0  0  0  0  0  0  0  0  0  0
    6.5430   -0.7570   26.5100 C   0  0  0  0  0  0  0  0  0  0  0  0
    6.7750   -2.2020   26.0780 N   0  0  0  0  0  0  0  0  0  0  0  0
    6.9810   -3.0730   27.2320 N   0  0  0  0  0  0  0  0  0  0  0  0
    7.2480   -4.5200   27.2530 C   0  0  0  0  0  0  0  0  0  0  0  0
    7.9010   -5.1900   26.2220 C   0  0  0  0  0  0  0  0  0  0  0  0
    8.2300   -4.8630   28.3970 C   0  0  0  0  0  0  0  0  0  0  0  0
    6.0080   -5.3570   27.5100 C   0  0  0  0  0  0  0  0  0  0  0  0
    5.5730   -5.7070   26.3850 O   0  0  0  0  0  0  0  0  0  0  0  0
    5.5200   -5.6500   28.6980 O   0  0  0  0  0  0  0  0  0  0  0  0
    5.6040   -7.0190   28.9210 C   0  0  0  0  0  0  0  0  0  0  0  0
    6.8660   -2.1740   28.3940 C   0  0  0  0  0  0  0  0  0  0  0  0
    5.9020   -4.9520   23.4830 C   0  0  0  0  0  0  0  0  0  0  0  0
    6.6670   -5.4070   22.4310 C   0  0  0  0  0  0  0  0  0  0  0  0
  1  2  1  0
  2  3  2  0
  2  4  1  0
  4  5  1  0
  5  6  1  0
  6  7  1  0
  7  8  1  0
  8  9  2  0
  8 10  1  0
 10 11  1  0
 11 12  1  0
 12 13  2  0
 13 14  1  0
 14 15  1  0
 15 16  1  0
 15 17  1  0
 15 18  1  0
 18 19  2  0
 18 20  1  0
 20 21  1  0
 11 22  2  0
 14 22  1  0
  7 23  1  0
  4 24  1  0
 23 24  1  0
M  END
