piperidine-amides-33286-covalent
     RDKit          3D

 29 31  0  0  0  0  0  0  0  0999 V2000
    7.1090   -3.3560   19.2830 C   0  0  0  0  0  0  0  0  0  0  0  0
    6.4500   -4.1820   20.3010 C   0  0  0  0  0  0  0  0  0  0  0  0
    5.3820   -4.7540   19.9670 O   0  0  0  0  0  0  0  0  0  0  0  0
    7.0460   -4.3740   21.5780 N   0  0  0  0  0  0  0  0  0  0  0  0
    6.6560   -5.5180   22.3280 C   0  0  0  0  0  0  0  0  0  0  0  0
    6.2830   -5.1890   23.7010 C   0  0  0  0  0  0  0  0  0  0  0  0
    6.2470   -3.7350   23.9500 C   0  0  0  0  0  0  0  0  0  0  0  0
    5.6070   -3.3440   25.2430 C   0  0  0  0  0  0  0  0  0  0  0  0
    4.4340   -2.9350   25.1950 O   0  0  0  0  0  0  0  0  0  0  0  0
    6.2070   -3.4000   26.5090 N   0  0  0  0  0  0  0  0  0  0  0  0
    6.2470   -2.2770   27.3400 C   0  0  0  0  0  0  0  0  0  0  0  0
    5.0490   -2.0070   28.1170 C   0  0  0  0  0  0  0  0  0  0  0  0
    4.6060   -2.8110   29.0640 N   0  0  0  0  0  0  0  0  0  0  0  0
    3.5030   -2.4520   29.9270 C   0  0  0  0  0  0  0  0  0  0  0  0
    2.3850   -3.2540   29.8470 O   0  0  0  0  0  0  0  0  0  0  0  0
    3.6770   -1.4550   30.6560 O   0  0  0  0  0  0  0  0  0  0  0  0
    3.2790   -1.2930   31.9150 C   0  0  0  0  0  0  0  0  0  0  0  0
    4.3500   -0.6280   32.7840 C   0  0  0  0  0  0  0  0  0  0  0  0
    1.9260   -0.5750   32.0660 C   0  0  0  0  0  0  0  0  0  0  0  0
    3.3280   -2.5290   32.7400 C   0  0  0  0  0  0  0  0  0  0  0  0
    5.5420   -3.7090   29.5290 C   0  0  0  0  0  0  0  0  0  0  0  0
    6.3120   -4.5700   28.5550 C   0  0  1  0  0  0  0  0  0  0  0  0
    6.4270   -6.0140   29.0520 C   0  0  0  0  0  0  0  0  0  0  0  0
    5.2290   -6.7730   28.5700 C   0  0  0  0  0  0  0  0  0  0  0  0
    4.8740   -6.6520   27.2310 C   0  0  0  0  0  0  0  0  0  0  0  0
    5.4950   -5.6750   26.5190 C   0  0  0  0  0  0  0  0  0  0  0  0
    5.7440   -4.4540   27.3310 C   0  0  2  0  0  0  0  0  0  0  0  0
    7.5710   -3.1260   23.6500 C   0  0  0  0  0  0  0  0  0  0  0  0
    7.7950   -3.2880   22.1610 C   0  0  0  0  0  0  0  0  0  0  0  0
  1  2  1  0
  2  3  2  0
  2  4  1  0
  4  5  1  0
  5  6  1  0
  6  7  1  0
  7  8  1  0
  8  9  2  0
  8 10  1  0
 10 11  1  0
 11 12  1  0
 12 13  1  0
 13 14  1  0
 14 15  2  0
 14 16  1  0
 17 16  1  0
 17 18  1  0
 17 19  1  0
 17 20  1  0
 13 21  1  0
 22 21  1  1
 22 23  1  0
 23 24  1  0
 24 25  1  0
 25 26  1  0
 10 27  1  0
 22 27  1  0
 27 26  1  6
  7 28  1  0
  4 29  1  0
 28 29  1  0
M  END
