piperidine-amides-33235-covalent
     RDKit          3D

 28 30  0  0  0  0  0  0  0  0999 V2000
    7.1420   -3.3780   19.3400 C   0  0  0  0  0  0  0  0  0  0  0  0
    6.4570   -4.2130   20.3340 C   0  0  0  0  0  0  0  0  0  0  0  0
    5.3950   -4.7820   19.9760 O   0  0  0  0  0  0  0  0  0  0  0  0
    7.0370   -4.4040   21.6120 N   0  0  0  0  0  0  0  0  0  0  0  0
    6.6440   -5.5410   22.3840 C   0  0  0  0  0  0  0  0  0  0  0  0
    6.1820   -5.1880   23.7200 C   0  0  0  0  0  0  0  0  0  0  0  0
    6.2020   -3.7290   23.9250 C   0  0  0  0  0  0  0  0  0  0  0  0
    5.5550   -3.2700   25.1770 C   0  0  0  0  0  0  0  0  0  0  0  0
    4.6940   -2.3810   25.0880 O   0  0  0  0  0  0  0  0  0  0  0  0
    5.8300   -3.7750   26.4420 N   0  0  0  0  0  0  0  0  0  0  0  0
    4.9290   -4.6290   27.0990 C   0  0  0  0  0  0  0  0  0  0  0  0
    5.1680   -5.1280   28.4340 C   0  0  0  0  0  0  0  0  0  0  0  0
    5.7330   -3.9960   29.2670 C   0  0  0  0  0  0  0  0  0  0  0  0
    4.5030   -2.8860   29.6930 S   0  0  0  0  0  0  0  0  0  0  0  0
    3.9930   -3.3040   31.0410 O   0  0  0  0  0  0  0  0  0  0  0  0
    3.3720   -2.9980   28.7350 O   0  0  0  0  0  0  0  0  0  0  0  0
    4.8990   -1.3820   29.8390 N   0  0  0  0  0  0  0  0  0  0  0  0
    6.2890   -1.0260   29.7550 C   0  0  0  0  0  0  0  0  0  0  0  0
    6.4810    0.2070   30.6400 C   0  0  0  0  0  0  0  0  0  0  0  0
    5.6360    1.2640   30.0010 C   0  0  0  0  0  0  0  0  0  0  0  0
    5.8220    2.5200   30.8920 C   0  0  0  0  0  0  0  0  0  0  0  0
    6.6530    2.7240   32.1480 C   0  0  0  0  0  0  0  0  0  0  0  0
    7.4520    1.5490   32.6640 C   0  0  0  0  0  0  0  0  0  0  0  0
    7.3430    0.2650   31.8650 C   0  0  0  0  0  0  0  0  0  0  0  0
    6.8090   -3.5730   28.5830 C   0  0  0  0  0  0  0  0  0  0  0  0
    6.3240   -2.9180   27.4660 C   0  0  0  0  0  0  0  0  0  0  0  0
    7.5100   -3.1150   23.6360 C   0  0  0  0  0  0  0  0  0  0  0  0
    7.8110   -3.3140   22.1830 C   0  0  0  0  0  0  0  0  0  0  0  0
  1  2  1  0
  2  3  2  0
  2  4  1  0
  4  5  1  0
  5  6  1  0
  6  7  1  0
  7  8  1  0
  8  9  2  0
  8 10  1  0
 10 11  1  0
 11 12  1  0
 12 13  1  0
 13 14  1  0
 14 15  2  0
 14 16  2  0
 14 17  1  0
 17 18  1  0
 18 19  1  0
 19 20  2  0
 20 21  1  0
 21 22  2  0
 22 23  1  0
 19 24  1  0
 23 24  2  0
 13 25  1  0
 10 26  1  0
 25 26  1  0
  7 27  1  0
  4 28  1  0
 27 28  1  0
M  END
