piperidine-amides-3822-covalent
     RDKit          3D

 22 22  0  0  0  0  0  0  0  0999 V2000
    7.1960   -3.2920   19.1590 C   0  0  0  0  0  0  0  0  0  0  0  0
    6.3930   -3.9920   20.1650 C   0  0  0  0  0  0  0  0  0  0  0  0
    5.2560   -4.3980   19.8250 O   0  0  0  0  0  0  0  0  0  0  0  0
    6.9340   -4.2670   21.4350 N   0  0  0  0  0  0  0  0  0  0  0  0
    6.4160   -5.3680   22.1540 C   0  0  0  0  0  0  0  0  0  0  0  0
    5.8200   -4.9940   23.4320 C   0  0  0  0  0  0  0  0  0  0  0  0
    6.4840   -3.8770   24.1360 C   0  0  0  0  0  0  0  0  0  0  0  0
    5.6420   -3.4170   25.2730 C   0  0  0  0  0  0  0  0  0  0  0  0
    4.5080   -2.9530   25.0510 O   0  0  0  0  0  0  0  0  0  0  0  0
    6.1100   -3.4980   26.5840 N   0  0  0  0  0  0  0  0  0  0  0  0
    6.0070   -4.5610   27.5080 C   0  0  1  0  0  0  0  0  0  0  0  0
    6.3160   -4.2880   28.8830 C   0  0  0  0  0  0  0  0  0  0  0  0
    5.8480   -2.8330   29.1510 C   0  0  0  0  0  0  0  0  0  0  0  0
    4.5590   -2.5500   29.5560 C   0  0  0  0  0  0  0  0  0  0  0  0
    7.0130   -1.5200   28.9330 Cl  0  0  0  0  0  0  0  0  0  0  0  0
    4.5940   -5.1110   27.5520 C   0  0  0  0  0  0  0  0  0  0  0  0
    3.6170   -4.3060   28.1240 O   0  0  0  0  0  0  0  0  0  0  0  0
    4.2190   -6.3360   27.0520 O   0  0  0  0  0  0  0  0  0  0  0  0
    3.6100   -7.0080   27.9840 C   0  0  0  0  0  0  0  0  0  0  0  0
    4.5990   -7.4980   29.0480 C   0  0  0  0  0  0  0  0  0  0  0  0
    6.8910   -2.7150   23.2720 C   0  0  0  0  0  0  0  0  0  0  0  0
    7.7010   -3.2570   22.1250 C   0  0  0  0  0  0  0  0  0  0  0  0
  1  2  1  0
  2  3  2  0
  2  4  1  0
  4  5  1  0
  5  6  1  0
  6  7  1  0
  7  8  1  0
  8  9  2  0
  8 10  1  0
 10 11  1  0
 11 12  1  1
 12 13  1  0
 13 14  2  3
 13 15  1  0
 11 16  1  0
 16 17  2  0
 16 18  1  0
 18 19  1  0
 19 20  1  0
  7 21  1  0
  4 22  1  0
 21 22  1  0
M  END
