piperidine-amides-23602-covalent
     RDKit          3D

 24 25  0  0  0  0  0  0  0  0999 V2000
    7.1330   -3.2680   19.2330 C   0  0  0  0  0  0  0  0  0  0  0  0
    6.3770   -4.0320   20.2380 C   0  0  0  0  0  0  0  0  0  0  0  0
    5.2800   -4.5170   19.8750 O   0  0  0  0  0  0  0  0  0  0  0  0
    6.8960   -4.2660   21.5360 N   0  0  0  0  0  0  0  0  0  0  0  0
    7.5940   -3.2090   22.1820 C   0  0  0  0  0  0  0  0  0  0  0  0
    7.3220   -3.0460   23.6080 C   0  0  0  0  0  0  0  0  0  0  0  0
    6.4560   -4.0640   24.2510 C   0  0  0  0  0  0  0  0  0  0  0  0
    5.6790   -3.4640   25.3910 C   0  0  0  0  0  0  0  0  0  0  0  0
    4.4850   -3.1660   25.2000 O   0  0  0  0  0  0  0  0  0  0  0  0
    6.2320   -3.2140   26.6720 N   0  0  0  0  0  0  0  0  0  0  0  0
    6.5360   -1.9170   27.1460 C   0  0  0  0  0  0  0  0  0  0  0  0
    5.7360   -4.0800   27.7310 C   0  0  0  0  0  0  0  0  0  0  0  0
    6.6440   -5.1570   28.3490 C   0  0  0  0  0  0  0  0  0  0  0  0
    6.7180   -6.3360   29.0480 O   0  0  0  0  0  0  0  0  0  0  0  0
    5.1930   -5.3430   28.4730 N   0  0  0  0  0  0  0  0  0  0  0  0
    4.8470   -5.2910   29.8560 C   0  0  0  0  0  0  0  0  0  0  0  0
    3.7600   -6.3340   30.1180 C   0  0  0  0  0  0  0  0  0  0  0  0
    4.2490   -7.0590   31.3380 C   0  0  0  0  0  0  0  0  0  0  0  0
    3.1620   -8.1230   31.6340 C   0  0  0  0  0  0  0  0  0  0  0  0
    1.8640   -8.4370   30.9110 C   0  0  0  0  0  0  0  0  0  0  0  0
    1.5150   -7.6100   29.6910 C   0  0  0  0  0  0  0  0  0  0  0  0
    2.5150   -6.5290   29.3050 C   0  0  0  0  0  0  0  0  0  0  0  0
    5.5520   -4.7390   23.2660 C   0  0  0  0  0  0  0  0  0  0  0  0
    6.4070   -5.3470   22.3520 C   0  0  0  0  0  0  0  0  0  0  0  0
  1  2  1  0
  2  3  2  0
  2  4  1  0
  4  5  1  0
  5  6  1  0
  6  7  1  0
  7  8  1  0
  8  9  2  0
  8 10  1  0
 10 11  1  0
 10 12  1  0
 12 13  1  0
 13 14  2  0
 13 15  1  0
 15 16  1  0
 16 17  1  0
 17 18  2  0
 18 19  1  0
 19 20  2  0
 20 21  1  0
 17 22  1  0
 21 22  2  0
  7 23  1  0
  4 24  1  0
 23 24  1  0
M  END
