piperidine-amides-23292-covalent
     RDKit          3D

 24 26  0  0  0  0  0  0  0  0999 V2000
    7.1240   -3.3500   19.3610 C   0  0  0  0  0  0  0  0  0  0  0  0
    6.4530   -4.2190   20.3420 C   0  0  0  0  0  0  0  0  0  0  0  0
    5.3800   -4.7480   19.9640 O   0  0  0  0  0  0  0  0  0  0  0  0
    7.0170   -4.5090   21.6190 N   0  0  0  0  0  0  0  0  0  0  0  0
    6.4300   -5.5470   22.3660 C   0  0  0  0  0  0  0  0  0  0  0  0
    5.8990   -5.0550   23.6320 C   0  0  0  0  0  0  0  0  0  0  0  0
    5.9000   -3.5770   23.7830 C   0  0  0  0  0  0  0  0  0  0  0  0
    5.7830   -3.0770   25.2040 C   0  0  0  0  0  0  0  0  0  0  0  0
    5.2590   -1.9670   25.3720 O   0  0  0  0  0  0  0  0  0  0  0  0
    6.1700   -3.7790   26.3580 N   0  0  0  0  0  0  0  0  0  0  0  0
    5.2740   -3.8180   27.4640 C   0  0  0  0  0  0  0  0  0  0  0  0
    4.0970   -3.2530   27.7760 C   0  0  0  0  0  0  0  0  0  0  0  0
    4.4970   -4.2400   29.0510 C   0  0  0  0  0  0  0  0  0  0  0  0
    5.7900   -5.0610   29.0810 C   0  0  0  0  0  0  0  0  0  0  0  0
    6.5500   -4.7830   27.7960 C   0  0  0  0  0  0  0  0  0  0  0  0
    5.4290   -4.5660   28.6060 C   0  0  0  0  0  0  0  0  0  0  0  0
    6.1580   -5.4290   29.3040 N   0  0  0  0  0  0  0  0  0  0  0  0
    5.9190   -6.7560   29.3520 C   0  0  0  0  0  0  0  0  0  0  0  0
    7.3740   -5.3020   28.5920 C   0  0  0  0  0  0  0  0  0  0  0  0
    7.4570   -5.8540   27.1920 C   0  0  0  0  0  0  0  0  0  0  0  0
    6.9160   -4.9910   26.0570 C   0  0  2  0  0  0  0  0  0  0  0  0
    7.9440   -5.0460   24.9800 C   0  0  0  0  0  0  0  0  0  0  0  0
    6.9260   -2.7680   23.0340 C   0  0  0  0  0  0  0  0  0  0  0  0
    7.8190   -3.5660   22.3450 C   0  0  0  0  0  0  0  0  0  0  0  0
  1  2  1  0
  2  3  2  0
  2  4  1  0
  4  5  1  0
  5  6  1  0
  6  7  1  0
  7  8  1  0
  8  9  2  0
  8 10  1  0
 10 11  1  0
 11 12  2  0
 12 13  1  0
 13 14  2  0
 14 15  1  0
 11 16  1  0
 15 16  2  0
 16 17  1  0
 17 18  1  0
 17 19  1  0
 19 20  1  0
 10 21  1  0
 20 21  1  0
 21 22  1  6
  7 23  1  0
  4 24  1  0
 23 24  1  0
M  END
