piperidine-amides-13923-covalent
     RDKit          3D

 26 28  0  0  0  0  0  0  0  0999 V2000
    7.1420   -3.0960   18.9630 C   0  0  0  0  0  0  0  0  0  0  0  0
    6.2090   -3.6190   20.0080 C   0  0  0  0  0  0  0  0  0  0  0  0
    5.2250   -4.2970   19.7040 O   0  0  0  0  0  0  0  0  0  0  0  0
    6.3770   -3.3790   21.3630 N   0  0  0  0  0  0  0  0  0  0  0  0
    7.1510   -2.2300   21.8330 C   0  0  0  0  0  0  0  0  0  0  0  0
    7.1700   -2.0650   23.3840 C   0  0  0  0  0  0  0  0  0  0  0  0
    5.8660   -2.5060   23.9730 C   0  0  0  0  0  0  0  0  0  0  0  0
    5.6850   -2.3290   25.4520 C   0  0  0  0  0  0  0  0  0  0  0  0
    4.5670   -1.9100   25.7750 O   0  0  0  0  0  0  0  0  0  0  0  0
    6.6850   -2.6300   26.4200 N   0  0  0  0  0  0  0  0  0  0  0  0
    6.5370   -2.6260   27.8670 C   0  0  0  0  0  0  0  0  0  0  0  0
    6.2190   -3.6600   28.7620 C   0  0  0  0  0  0  0  0  0  0  0  0
    6.6450   -4.9880   28.6540 C   0  0  0  0  0  0  0  0  0  0  0  0
    6.1220   -5.6620   27.5720 C   0  0  0  0  0  0  0  0  0  0  0  0
    5.3010   -4.9430   26.7740 N   0  0  0  0  0  0  0  0  0  0  0  0
    5.7950   -4.1850   25.7800 C   0  0  0  0  0  0  0  0  0  0  0  0
    6.2830   -4.7260   24.4210 C   0  0  0  0  0  0  0  0  0  0  0  0
    7.4300   -3.8860   23.8890 C   0  0  0  0  0  0  0  0  0  0  0  0
    7.9490   -4.2380   22.6850 C   0  0  0  0  0  0  0  0  0  0  0  0
    7.5800   -5.2510   21.8840 N   0  0  0  0  0  0  0  0  0  0  0  0
    6.4770   -6.0800   22.3810 C   0  0  0  0  0  0  0  0  0  0  0  0
    5.7960   -5.7950   23.7230 C   0  0  0  0  0  0  0  0  0  0  0  0
    4.3110   -4.3740   27.4590 C   0  0  0  0  0  0  0  0  0  0  0  0
    4.7670   -3.7230   28.7550 C   0  0  0  0  0  0  0  0  0  0  0  0
    5.4580   -3.8740   23.5790 C   0  0  0  0  0  0  0  0  0  0  0  0
    5.2460   -3.8730   22.0980 C   0  0  0  0  0  0  0  0  0  0  0  0
  1  2  1  0
  2  3  2  0
  2  4  1  0
  4  5  1  0
  5  6  1  0
  6  7  1  0
  7  8  1  0
  8  9  2  0
  8 10  1  0
 10 11  1  0
 11 12  1  0
 12 13  1  0
 13 14  1  0
 14 15  1  0
 15 16  1  0
 16 17  1  0
 17 18  2  0
 18 19  1  0
 19 20  2  0
 20 21  1  0
 17 22  1  0
 21 22  2  0
 15 23  1  0
 12 24  1  0
 23 24  1  0
  7 25  1  0
  4 26  1  0
 25 26  1  0
M  END
