piperidine-amides-26056-covalent
     RDKit          3D

 25 27  0  0  0  0  0  0  0  0999 V2000
    7.0750   -3.3680   19.4080 C   0  0  0  0  0  0  0  0  0  0  0  0
    6.3560   -4.1920   20.3810 C   0  0  0  0  0  0  0  0  0  0  0  0
    5.3720   -4.8390   19.9850 O   0  0  0  0  0  0  0  0  0  0  0  0
    6.7730   -4.3160   21.7240 N   0  0  0  0  0  0  0  0  0  0  0  0
    6.5620   -5.5490   22.4500 C   0  0  0  0  0  0  0  0  0  0  0  0
    6.3390   -5.2130   23.9150 C   0  0  0  0  0  0  0  0  0  0  0  0
    6.2460   -3.7380   24.2070 C   0  0  0  0  0  0  0  0  0  0  0  0
    5.7970   -3.3580   25.6020 C   0  0  0  0  0  0  0  0  0  0  0  0
    5.0190   -2.3710   25.7280 O   0  0  0  0  0  0  0  0  0  0  0  0
    6.1380   -4.0350   26.8210 N   0  0  0  0  0  0  0  0  0  0  0  0
    6.1040   -5.4940   26.7890 C   0  0  0  0  0  0  0  0  0  0  0  0
    4.7370   -5.8340   27.0450 C   0  0  0  0  0  0  0  0  0  0  0  0
    4.0250   -4.8810   27.4350 O   0  0  0  0  0  0  0  0  0  0  0  0
    4.5270   -4.2760   28.5120 C   0  0  1  0  0  0  0  0  0  0  0  0
    4.6520   -5.1460   29.7400 C   0  0  0  0  0  0  0  0  0  0  0  0
    5.6900   -6.2570   29.6670 C   0  0  0  0  0  0  0  0  0  0  0  0
    5.7930   -7.1340   30.8580 C   0  0  0  0  0  0  0  0  0  0  0  0
    5.0260   -6.9870   31.9770 C   0  0  0  0  0  0  0  0  0  0  0  0
    4.0900   -5.9580   32.0070 C   0  0  0  0  0  0  0  0  0  0  0  0
    3.8740   -4.9880   30.8610 C   0  0  0  0  0  0  0  0  0  0  0  0
    2.9920   -4.1140   31.0220 O   0  0  0  0  0  0  0  0  0  0  0  0
    1.6650   -4.2840   30.6370 C   0  0  0  0  0  0  0  0  0  0  0  0
    5.7170   -3.4590   28.1010 C   0  0  0  0  0  0  0  0  0  0  0  0
    7.5010   -3.0850   23.7310 C   0  0  0  0  0  0  0  0  0  0  0  0
    7.5750   -3.2450   22.2560 C   0  0  0  0  0  0  0  0  0  0  0  0
  1  2  1  0
  2  3  2  0
  2  4  1  0
  4  5  1  0
  5  6  1  0
  6  7  1  0
  7  8  1  0
  8  9  2  0
  8 10  1  0
 10 11  1  0
 11 12  1  0
 12 13  1  0
 13 14  1  0
 14 15  1  1
 15 16  2  0
 16 17  1  0
 17 18  2  0
 18 19  1  0
 15 20  1  0
 19 20  2  0
 20 21  1  0
 21 22  1  0
 10 23  1  0
 14 23  1  0
  7 24  1  0
  4 25  1  0
 24 25  1  0
M  END
