piperidine-amides-27215-covalent
     RDKit          3D

 23 24  0  0  0  0  0  0  0  0999 V2000
    6.9890   -3.3830   19.4260 C   0  0  0  0  0  0  0  0  0  0  0  0
    6.3750   -4.2750   20.4220 C   0  0  0  0  0  0  0  0  0  0  0  0
    5.4030   -4.9590   20.0040 O   0  0  0  0  0  0  0  0  0  0  0  0
    6.8710   -4.3830   21.7390 N   0  0  0  0  0  0  0  0  0  0  0  0
    6.6660   -5.5870   22.5240 C   0  0  0  0  0  0  0  0  0  0  0  0
    6.1000   -5.2050   23.8730 C   0  0  0  0  0  0  0  0  0  0  0  0
    6.0110   -3.7110   24.0050 C   0  0  0  0  0  0  0  0  0  0  0  0
    5.4040   -3.2250   25.2930 C   0  0  0  0  0  0  0  0  0  0  0  0
    4.7610   -2.1660   25.2110 O   0  0  0  0  0  0  0  0  0  0  0  0
    5.4490   -3.8160   26.5860 N   0  0  0  0  0  0  0  0  0  0  0  0
    6.4430   -3.4370   27.4740 C   0  0  0  0  0  0  0  0  0  0  0  0
    6.6360   -4.6310   28.4170 C   0  0  0  0  0  0  0  0  0  0  0  0
    5.3660   -4.7570   29.1490 N   0  0  0  0  0  0  0  0  0  0  0  0
    5.1090   -6.2890   29.7940 S   0  0  0  0  0  0  0  0  0  0  0  0
    4.8400   -6.1170   31.2440 O   0  0  0  0  0  0  0  0  0  0  0  0
    6.3770   -7.0130   29.5530 O   0  0  0  0  0  0  0  0  0  0  0  0
    3.8260   -7.3070   29.0760 C   0  0  0  0  0  0  0  0  0  0  0  0
    3.0850   -6.4980   28.2670 F   0  0  0  0  0  0  0  0  0  0  0  0
    3.0620   -7.8910   30.0430 F   0  0  0  0  0  0  0  0  0  0  0  0
    4.3250   -4.0590   28.6720 C   0  0  0  0  0  0  0  0  0  0  0  0
    4.2270   -4.0470   27.2750 C   0  0  0  0  0  0  0  0  0  0  0  0
    7.3560   -3.1460   23.6680 C   0  0  0  0  0  0  0  0  0  0  0  0
    7.6390   -3.3160   22.3270 C   0  0  0  0  0  0  0  0  0  0  0  0
  1  2  1  0
  2  3  2  0
  2  4  1  0
  4  5  1  0
  5  6  1  0
  6  7  1  0
  7  8  1  0
  8  9  2  0
  8 10  1  0
 10 11  1  0
 11 12  1  0
 12 13  1  0
 14 13  1  0
 14 15  2  0
 14 16  2  0
 14 17  1  0
 17 18  1  0
 17 19  1  0
 13 20  1  0
 10 21  1  0
 20 21  1  0
  7 22  1  0
  4 23  1  0
 22 23  1  0
M  END
