piperidine-amides-15207-covalent
     RDKit          3D

 20 21  0  0  0  0  0  0  0  0999 V2000
    7.1720   -3.2340   19.1400 C   0  0  0  0  0  0  0  0  0  0  0  0
    6.3920   -3.9690   20.1460 C   0  0  0  0  0  0  0  0  0  0  0  0
    5.2940   -4.4920   19.8610 O   0  0  0  0  0  0  0  0  0  0  0  0
    6.9130   -4.1320   21.4270 N   0  0  0  0  0  0  0  0  0  0  0  0
    6.4440   -5.2170   22.2480 C   0  0  0  0  0  0  0  0  0  0  0  0
    5.6410   -4.5480   23.3620 C   0  0  0  0  0  0  0  0  0  0  0  0
    6.6630   -3.7650   24.1620 C   0  0  0  0  0  0  0  0  0  0  0  0
    6.0980   -3.1980   25.3900 C   0  0  0  0  0  0  0  0  0  0  0  0
    4.9280   -2.7470   25.3720 O   0  0  0  0  0  0  0  0  0  0  0  0
    6.9240   -3.1870   26.5420 N   0  0  0  0  0  0  0  0  0  0  0  0
    6.3470   -3.1070   27.8480 C   0  0  0  0  0  0  0  0  0  0  0  0
    5.7910   -4.4590   28.2630 C   0  0  0  0  0  0  0  0  0  0  0  0
    4.7310   -4.1470   29.1500 O   0  0  0  0  0  0  0  0  0  0  0  0
    6.6580   -5.3770   28.7820 C   0  0  0  0  0  0  0  0  0  0  0  0
    7.8630   -5.4800   28.1400 C   0  0  0  0  0  0  0  0  0  0  0  0
    7.7060   -5.6280   26.4060 S   0  0  0  0  0  0  0  0  0  0  0  0
    5.9580   -5.7420   26.1790 C   0  0  0  0  0  0  0  0  0  0  0  0
    5.1640   -5.0340   27.0430 C   0  0  0  0  0  0  0  0  0  0  0  0
    7.1370   -2.6060   23.2970 C   0  0  0  0  0  0  0  0  0  0  0  0
    7.7680   -3.1400   22.0490 C   0  0  0  0  0  0  0  0  0  0  0  0
  1  2  1  0
  2  3  2  0
  2  4  1  0
  4  5  1  0
  5  6  1  0
  6  7  1  0
  7  8  1  0
  8  9  2  0
  8 10  1  0
 10 11  1  0
 11 12  1  0
 12 13  1  0
 12 14  1  0
 14 15  1  0
 15 16  1  0
 16 17  1  0
 12 18  1  0
 17 18  1  0
  7 19  1  0
  4 20  1  0
 19 20  1  0
M  END
