piperidine-amides-10782-covalent
     RDKit          3D

 22 23  0  0  0  0  0  0  0  0999 V2000
    7.1050   -3.2980   19.2510 C   0  0  0  0  0  0  0  0  0  0  0  0
    6.3170   -4.0120   20.2570 C   0  0  0  0  0  0  0  0  0  0  0  0
    5.2810   -4.6010   19.9060 O   0  0  0  0  0  0  0  0  0  0  0  0
    6.7400   -4.0820   21.5930 N   0  0  0  0  0  0  0  0  0  0  0  0
    7.7090   -3.1450   22.1290 C   0  0  0  0  0  0  0  0  0  0  0  0
    7.3960   -2.9880   23.5880 C   0  0  0  0  0  0  0  0  0  0  0  0
    6.0690   -3.5950   23.9260 C   0  0  0  0  0  0  0  0  0  0  0  0
    5.6370   -3.3010   25.3130 C   0  0  0  0  0  0  0  0  0  0  0  0
    4.4110   -3.1080   25.5580 O   0  0  0  0  0  0  0  0  0  0  0  0
    6.5280   -3.2040   26.4060 N   0  0  0  0  0  0  0  0  0  0  0  0
    6.2110   -3.7920   27.7330 C   0  0  0  0  0  0  0  0  0  0  0  0
    5.9480   -5.2520   27.6050 C   0  0  0  0  0  0  0  0  0  0  0  0
    4.9110   -5.8650   28.4580 C   0  0  0  0  0  0  0  0  0  0  0  0
    4.9170   -7.3420   28.6190 N   0  0  0  0  0  0  0  0  0  0  0  0
    3.7900   -7.8080   29.5180 C   0  0  0  0  0  0  0  0  0  0  0  0
    2.7850   -6.8860   30.1710 C   0  0  0  0  0  0  0  0  0  0  0  0
    1.7440   -7.4090   31.0170 F   0  0  0  0  0  0  0  0  0  0  0  0
    2.9750   -5.4780   29.8730 C   0  0  0  0  0  0  0  0  0  0  0  0
    3.9700   -5.0330   29.0750 C   0  0  0  0  0  0  0  0  0  0  0  0
    3.9700   -3.6710   28.9200 F   0  0  0  0  0  0  0  0  0  0  0  0
    6.0600   -5.0830   23.6710 C   0  0  0  0  0  0  0  0  0  0  0  0
    6.6200   -5.3540   22.2880 C   0  0  0  0  0  0  0  0  0  0  0  0
  1  2  1  0
  2  3  2  0
  2  4  1  0
  4  5  1  0
  5  6  1  0
  6  7  1  0
  7  8  1  0
  8  9  2  0
  8 10  1  0
 10 11  1  0
 11 12  1  0
 12 13  1  0
 13 14  2  0
 14 15  1  0
 15 16  2  0
 16 17  1  0
 16 18  1  0
 13 19  1  0
 18 19  2  0
 19 20  1  0
  7 21  1  0
  4 22  1  0
 21 22  1  0
M  END
