piperidine-amides-1342-covalent
     RDKit          3D

 22 24  0  0  0  0  0  0  0  0999 V2000
    7.1140   -3.3590   19.3450 C   0  0  0  0  0  0  0  0  0  0  0  0
    6.3850   -4.1980   20.3280 C   0  0  0  0  0  0  0  0  0  0  0  0
    5.3580   -4.7980   19.9710 O   0  0  0  0  0  0  0  0  0  0  0  0
    6.9310   -4.3240   21.6210 N   0  0  0  0  0  0  0  0  0  0  0  0
    7.6780   -3.2530   22.2170 C   0  0  0  0  0  0  0  0  0  0  0  0
    6.7760   -2.7090   23.3150 C   0  0  0  0  0  0  0  0  0  0  0  0
    6.4320   -3.8590   24.1980 C   0  0  0  0  0  0  0  0  0  0  0  0
    5.7220   -3.4040   25.4170 C   0  0  0  0  0  0  0  0  0  0  0  0
    4.4790   -3.4750   25.4390 O   0  0  0  0  0  0  0  0  0  0  0  0
    6.4630   -2.9030   26.4830 N   0  0  0  0  0  0  0  0  0  0  0  0
    6.4020   -1.6220   27.0910 C   0  0  0  0  0  0  0  0  0  0  0  0
    6.0330   -0.4240   26.4770 C   0  0  0  0  0  0  0  0  0  0  0  0
    6.0040    0.7950   27.1770 C   0  0  0  0  0  0  0  0  0  0  0  0
    5.6510    2.0790   26.6900 N   0  0  0  0  0  0  0  0  0  0  0  0
    5.7460    3.0230   27.6730 C   0  0  0  0  0  0  0  0  0  0  0  0
    6.1910    2.2610   28.8480 N   0  0  0  0  0  0  0  0  0  0  0  0
    6.3570    0.8610   28.5550 C   0  0  0  0  0  0  0  0  0  0  0  0
    6.7750   -0.3720   29.3260 C   0  0  0  0  0  0  0  0  0  0  0  0
    6.7580   -1.6210   28.4500 C   0  0  0  0  0  0  0  0  0  0  0  0
    7.0880   -2.8150   28.9760 F   0  0  0  0  0  0  0  0  0  0  0  0
    5.5980   -4.9170   23.4470 C   0  0  0  0  0  0  0  0  0  0  0  0
    6.5000   -5.4500   22.3980 C   0  0  0  0  0  0  0  0  0  0  0  0
  1  2  1  0
  2  3  2  0
  2  4  1  0
  4  5  1  0
  5  6  1  0
  6  7  1  0
  7  8  1  0
  8  9  2  0
  8 10  1  0
 10 11  1  0
 11 12  2  0
 12 13  1  0
 13 14  1  0
 14 15  1  0
 15 16  2  0
 13 17  2  0
 16 17  1  0
 17 18  1  0
 11 19  1  0
 18 19  2  0
 19 20  1  0
  7 21  1  0
  4 22  1  0
 21 22  1  0
M  END
