piperidine-amides-32450-covalent
     RDKit          3D

 29 31  0  0  0  0  0  0  0  0999 V2000
    7.1410   -3.3530   19.3180 C   0  0  0  0  0  0  0  0  0  0  0  0
    6.3990   -4.1740   20.3030 C   0  0  0  0  0  0  0  0  0  0  0  0
    5.3410   -4.7240   19.9540 O   0  0  0  0  0  0  0  0  0  0  0  0
    6.9610   -4.3460   21.5810 N   0  0  0  0  0  0  0  0  0  0  0  0
    7.7250   -3.3150   22.2280 C   0  0  0  0  0  0  0  0  0  0  0  0
    6.8110   -2.7220   23.2960 C   0  0  0  0  0  0  0  0  0  0  0  0
    6.4350   -3.8200   24.2420 C   0  0  0  0  0  0  0  0  0  0  0  0
    5.6430   -3.2850   25.3730 C   0  0  0  0  0  0  0  0  0  0  0  0
    4.4590   -3.0560   25.1190 O   0  0  0  0  0  0  0  0  0  0  0  0
    6.1890   -3.0540   26.6370 N   0  0  0  0  0  0  0  0  0  0  0  0
    6.2950   -1.7220   27.1490 C   0  0  0  0  0  0  0  0  0  0  0  0
    5.8470   -0.5690   26.5170 C   0  0  0  0  0  0  0  0  0  0  0  0
    5.9410    0.7420   27.0440 C   0  0  0  0  0  0  0  0  0  0  0  0
    5.5200    1.9150   26.4730 C   0  0  0  0  0  0  0  0  0  0  0  0
    6.5670    0.8920   28.3760 C   0  0  0  0  0  0  0  0  0  0  0  0
    7.0880   -0.3100   29.1360 C   0  0  0  0  0  0  0  0  0  0  0  0
    6.8940   -1.6180   28.4050 C   0  0  0  0  0  0  0  0  0  0  0  0
    7.3040   -2.7550   28.9730 F   0  0  0  0  0  0  0  0  0  0  0  0
    5.9440   -4.0990   27.5980 C   0  0  2  0  0  0  0  0  0  0  0  0
    5.8730   -5.4910   27.0610 C   0  0  0  0  0  0  0  0  0  0  0  0
    4.7130   -3.6910   28.1380 C   0  0  0  0  0  0  0  0  0  0  0  0
    4.8230   -2.7660   29.2020 C   0  0  0  0  0  0  0  0  0  0  0  0
    3.2990   -2.5770   29.5010 C   0  0  0  0  0  0  0  0  0  0  0  0
    2.0620   -3.1620   28.8890 C   0  0  0  0  0  0  0  0  0  0  0  0
    0.6580   -2.7960   29.3860 C   0  0  0  0  0  0  0  0  0  0  0  0
    2.2170   -4.0250   27.8830 C   0  0  0  0  0  0  0  0  0  0  0  0
    3.5240   -4.2430   27.5610 C   0  0  0  0  0  0  0  0  0  0  0  0
    5.8230   -5.0370   23.6000 C   0  0  0  0  0  0  0  0  0  0  0  0
    6.5090   -5.4530   22.3340 C   0  0  0  0  0  0  0  0  0  0  0  0
  1  2  1  0
  2  3  2  0
  2  4  1  0
  4  5  1  0
  5  6  1  0
  6  7  1  0
  7  8  1  0
  8  9  2  0
  8 10  1  0
 10 11  1  0
 11 12  2  0
 12 13  1  0
 13 14  1  0
 13 15  2  0
 15 16  1  0
 11 17  1  0
 16 17  2  0
 17 18  1  0
 10 19  1  0
 19 20  1  6
 19 21  1  0
 21 22  2  0
 22 23  1  0
 23 24  2  0
 24 25  1  0
 24 26  1  0
 21 27  1  0
 26 27  2  0
  7 28  1  0
  4 29  1  0
 28 29  1  0
M  END
