piperidine-amides-5252-covalent
     RDKit          3D

 21 23  0  0  0  0  0  0  0  0999 V2000
    7.0790   -3.2910   19.2580 C   0  0  0  0  0  0  0  0  0  0  0  0
    6.3450   -4.0860   20.2690 C   0  0  0  0  0  0  0  0  0  0  0  0
    5.2840   -4.6230   19.9020 O   0  0  0  0  0  0  0  0  0  0  0  0
    6.8630   -4.2560   21.5550 N   0  0  0  0  0  0  0  0  0  0  0  0
    6.4760   -5.3950   22.3230 C   0  0  0  0  0  0  0  0  0  0  0  0
    5.9610   -5.0580   23.6510 C   0  0  0  0  0  0  0  0  0  0  0  0
    6.5290   -3.8170   24.2210 C   0  0  0  0  0  0  0  0  0  0  0  0
    5.7720   -3.3670   25.4210 C   0  0  0  0  0  0  0  0  0  0  0  0
    4.5230   -3.3050   25.3900 O   0  0  0  0  0  0  0  0  0  0  0  0
    6.4480   -3.0290   26.6050 N   0  0  0  0  0  0  0  0  0  0  0  0
    6.4220   -1.6860   27.2360 C   0  0  0  0  0  0  0  0  0  0  0  0
    7.0410   -1.5560   28.5680 C   0  0  0  0  0  0  0  0  0  0  0  0
    7.0500   -0.2790   29.2590 C   0  0  0  0  0  0  0  0  0  0  0  0
    6.4570    0.7950   28.6130 C   0  0  0  0  0  0  0  0  0  0  0  0
    5.8810    0.6540   27.3570 C   0  0  0  0  0  0  0  0  0  0  0  0
    5.2410    1.6000   26.5470 N   0  0  0  0  0  0  0  0  0  0  0  0
    4.8310    1.0840   25.4350 N   0  0  0  0  0  0  0  0  0  0  0  0
    5.1940   -0.2320   25.4850 N   0  0  0  0  0  0  0  0  0  0  0  0
    5.8360   -0.4970   26.6600 C   0  0  0  0  0  0  0  0  0  0  0  0
    6.8140   -2.7220   23.2520 C   0  0  0  0  0  0  0  0  0  0  0  0
    7.5860   -3.2210   22.2490 C   0  0  0  0  0  0  0  0  0  0  0  0
  1  2  1  0
  2  3  2  0
  2  4  1  0
  4  5  1  0
  5  6  1  0
  6  7  1  0
  7  8  1  0
  8  9  2  0
  8 10  1  0
 10 11  1  0
 11 12  2  0
 12 13  1  0
 13 14  2  0
 14 15  1  0
 15 16  1  0
 16 17  1  0
 17 18  2  0
 11 19  1  0
 15 19  2  0
 18 19  1  0
  7 20  1  0
  4 21  1  0
 20 21  1  0
M  END
