piperidine-amides-6819-covalent
     RDKit          3D

 23 24  0  0  0  0  0  0  0  0999 V2000
    7.1900   -3.2880   19.2340 C   0  0  0  0  0  0  0  0  0  0  0  0
    6.4180   -4.0550   20.2150 C   0  0  0  0  0  0  0  0  0  0  0  0
    5.3270   -4.5750   19.9030 O   0  0  0  0  0  0  0  0  0  0  0  0
    6.9470   -4.2610   21.4920 N   0  0  0  0  0  0  0  0  0  0  0  0
    7.7460   -3.2140   22.0780 C   0  0  0  0  0  0  0  0  0  0  0  0
    6.8900   -2.6490   23.1990 C   0  0  0  0  0  0  0  0  0  0  0  0
    6.5720   -3.8170   24.1030 C   0  0  0  0  0  0  0  0  0  0  0  0
    5.7420   -3.3090   25.1920 C   0  0  0  0  0  0  0  0  0  0  0  0
    4.5520   -3.0100   24.9630 O   0  0  0  0  0  0  0  0  0  0  0  0
    6.3130   -3.1770   26.4580 N   0  0  0  0  0  0  0  0  0  0  0  0
    5.8430   -4.0420   27.4800 C   0  0  0  0  0  0  0  0  0  0  0  0
    6.1980   -3.4110   28.7910 C   0  0  1  0  0  0  0  0  0  0  0  0
    7.1350   -2.3890   28.5660 O   0  0  0  0  0  0  0  0  0  0  0  0
    6.8500   -1.2240   27.9080 C   0  0  0  0  0  0  0  0  0  0  0  0
    4.9480   -2.7850   29.3800 C   0  0  0  0  0  0  0  0  0  0  0  0
    5.1770   -1.5500   30.0700 C   0  0  0  0  0  0  0  0  0  0  0  0
    4.1330   -0.8850   30.6480 C   0  0  0  0  0  0  0  0  0  0  0  0
    2.8110   -1.5100   30.5100 C   0  0  0  0  0  0  0  0  0  0  0  0
    2.2980   -0.3270   31.3010 C   0  0  0  0  0  0  0  0  0  0  0  0
    2.4670   -2.7270   29.8500 C   0  0  0  0  0  0  0  0  0  0  0  0
    3.6590   -3.3700   29.2590 C   0  0  0  0  0  0  0  0  0  0  0  0
    5.7840   -4.8810   23.3820 C   0  0  0  0  0  0  0  0  0  0  0  0
    6.4380   -5.3260   22.2720 C   0  0  0  0  0  0  0  0  0  0  0  0
  1  2  1  0
  2  3  2  0
  2  4  1  0
  4  5  1  0
  5  6  1  0
  6  7  1  0
  7  8  1  0
  8  9  2  0
  8 10  1  0
 10 11  1  0
 12 11  1  6
 12 13  1  0
 13 14  1  0
 12 15  1  0
 15 16  2  0
 16 17  1  0
 17 18  2  0
 18 19  1  0
 18 20  1  0
 15 21  1  0
 20 21  2  0
  7 22  1  0
  4 23  1  0
 22 23  1  0
M  END
