piperidine-amides-34362-covalent
     RDKit          3D

 31 34  0  0  0  0  0  0  0  0999 V2000
    7.0770   -3.3460   19.3850 C   0  0  0  0  0  0  0  0  0  0  0  0
    6.4260   -4.2300   20.3630 C   0  0  0  0  0  0  0  0  0  0  0  0
    5.4400   -4.9210   20.0100 O   0  0  0  0  0  0  0  0  0  0  0  0
    6.9420   -4.3340   21.6730 N   0  0  0  0  0  0  0  0  0  0  0  0
    7.7890   -3.2520   22.1870 C   0  0  0  0  0  0  0  0  0  0  0  0
    7.5340   -3.1070   23.6910 C   0  0  0  0  0  0  0  0  0  0  0  0
    6.1600   -3.6730   23.8600 C   0  0  0  0  0  0  0  0  0  0  0  0
    5.4600   -3.1660   25.0580 C   0  0  0  0  0  0  0  0  0  0  0  0
    4.5910   -2.3040   24.8530 O   0  0  0  0  0  0  0  0  0  0  0  0
    5.6860   -3.5900   26.3740 N   0  0  0  0  0  0  0  0  0  0  0  0
    4.4500   -3.8050   27.1260 C   0  0  0  0  0  0  0  0  0  0  0  0
    4.6420   -5.1210   27.8040 C   0  0  0  0  0  0  0  0  0  0  0  0
    4.0050   -6.3490   27.9280 C   0  0  0  0  0  0  0  0  0  0  0  0
    4.5840   -7.3830   28.7010 C   0  0  0  0  0  0  0  0  0  0  0  0
    5.8180   -7.2510   29.3760 C   0  0  0  0  0  0  0  0  0  0  0  0
    6.4770   -6.0830   29.2920 C   0  0  0  0  0  0  0  0  0  0  0  0
    5.8500   -5.0450   28.5070 C   0  0  0  0  0  0  0  0  0  0  0  0
    6.8020   -3.9630   28.6670 C   0  0  0  0  0  0  0  0  0  0  0  0
    6.4540   -3.0580   27.5080 C   0  0  2  0  0  0  0  0  0  0  0  0
    5.7920   -2.6350   28.7630 C   0  0  0  0  0  0  0  0  0  0  0  0
    4.9510   -3.3290   29.4030 O   0  0  0  0  0  0  0  0  0  0  0  0
    6.1690   -1.3650   29.2120 N   0  0  0  0  0  0  0  0  0  0  0  0
    6.9800   -0.5320   28.4110 C   0  0  0  0  0  0  0  0  0  0  0  0
    5.6160   -0.8070   30.4090 C   0  0  0  0  0  0  0  0  0  0  0  0
    6.5790    0.1350   31.0940 C   0  0  0  0  0  0  0  0  0  0  0  0
    5.9510    1.2920   31.8100 C   0  0  0  0  0  0  0  0  0  0  0  0
    4.6850    1.5460   31.7950 O   0  0  0  0  0  0  0  0  0  0  0  0
    3.9110    0.6720   31.0310 C   0  0  0  0  0  0  0  0  0  0  0  0
    4.4930   -0.0590   29.9910 C   0  0  0  0  0  0  0  0  0  0  0  0
    6.1650   -5.1510   23.7350 C   0  0  0  0  0  0  0  0  0  0  0  0
    6.6700   -5.4840   22.4930 C   0  0  0  0  0  0  0  0  0  0  0  0
  1  2  1  0
  2  3  2  0
  2  4  1  0
  4  5  1  0
  5  6  1  0
  6  7  1  0
  7  8  1  0
  8  9  2  0
  8 10  1  0
 10 11  1  0
 11 12  1  0
 12 13  2  0
 13 14  1  0
 14 15  2  0
 15 16  1  0
 12 17  1  0
 16 17  2  0
 17 18  1  0
 10 19  1  0
 18 19  1  0
 19 20  1  1
 20 21  2  0
 20 22  1  0
 22 23  1  0
 22 24  1  0
 24 25  1  0
 25 26  1  0
 26 27  1  0
 27 28  1  0
 24 29  1  0
 28 29  1  0
  7 30  1  0
  4 31  1  0
 30 31  1  0
M  END
