piperidine-amides-32720-covalent
     RDKit          3D

 28 30  0  0  0  0  0  0  0  0999 V2000
    7.0920   -3.2870   19.2400 C   0  0  0  0  0  0  0  0  0  0  0  0
    6.2880   -4.1220   20.1840 C   0  0  0  0  0  0  0  0  0  0  0  0
    5.1700   -4.5180   19.8480 O   0  0  0  0  0  0  0  0  0  0  0  0
    6.8460   -4.4850   21.4150 N   0  0  0  0  0  0  0  0  0  0  0  0
    6.4410   -5.6670   22.1600 C   0  0  0  0  0  0  0  0  0  0  0  0
    5.5440   -5.2290   23.3380 C   0  0  0  0  0  0  0  0  0  0  0  0
    5.9670   -3.8500   23.6890 C   0  0  0  0  0  0  0  0  0  0  0  0
    5.6180   -3.3710   25.0250 C   0  0  0  0  0  0  0  0  0  0  0  0
    4.4480   -3.5170   25.3950 O   0  0  0  0  0  0  0  0  0  0  0  0
    6.6040   -2.7670   25.7930 N   0  0  0  0  0  0  0  0  0  0  0  0
    7.3480   -1.6150   25.2990 C   0  0  0  0  0  0  0  0  0  0  0  0
    8.3630   -1.6040   24.2820 C   0  0  0  0  0  0  0  0  0  0  0  0
    8.0500   -1.6600   22.8940 C   0  0  0  0  0  0  0  0  0  0  0  0
    9.0160   -1.6640   21.8680 C   0  0  0  0  0  0  0  0  0  0  0  0
   10.4650   -1.6060   22.1960 C   0  0  0  0  0  0  0  0  0  0  0  0
   10.8700   -1.5270   23.5820 C   0  0  0  0  0  0  0  0  0  0  0  0
    9.7080   -1.5330   24.5130 C   0  0  0  0  0  0  0  0  0  0  0  0
   12.1910   -1.4570   23.9130 O   0  0  0  0  0  0  0  0  0  0  0  0
   13.2510   -1.3530   23.0410 C   0  0  0  0  0  0  0  0  0  0  0  0
   12.8150   -1.8420   21.6880 C   0  0  0  0  0  0  0  0  0  0  0  0
   11.4710   -1.6190   21.2720 O   0  0  0  0  0  0  0  0  0  0  0  0
    6.2810   -3.0820   27.2110 C   0  0  0  0  0  0  0  0  0  0  0  0
    5.9400   -4.4000   27.5190 C   0  0  0  0  0  0  0  0  0  0  0  0
    6.7000   -5.0740   28.4070 F   0  0  0  0  0  0  0  0  0  0  0  0
    4.7300   -4.5160   28.0860 F   0  0  0  0  0  0  0  0  0  0  0  0
    5.9360   -5.1960   26.3870 F   0  0  0  0  0  0  0  0  0  0  0  0
    7.4190   -3.6620   23.5350 C   0  0  0  0  0  0  0  0  0  0  0  0
    7.6830   -3.5310   22.0870 C   0  0  0  0  0  0  0  0  0  0  0  0
  1  2  1  0
  2  3  2  0
  2  4  1  0
  4  5  1  0
  5  6  1  0
  6  7  1  0
  7  8  1  0
  8  9  2  0
  8 10  1  0
 10 11  1  0
 11 12  1  0
 12 13  2  0
 13 14  1  0
 14 15  2  0
 15 16  1  0
 12 17  1  0
 16 17  2  0
 16 18  1  0
 18 19  1  0
 19 20  1  0
 15 21  1  0
 20 21  1  0
 10 22  1  0
 22 23  1  0
 23 24  1  0
 23 25  1  0
 23 26  1  0
  7 27  1  0
  4 28  1  0
 27 28  1  0
M  END
