piperidine-amides-25216-covalent
     RDKit          3D

 25 27  0  0  0  0  0  0  0  0999 V2000
    7.0290   -3.3970   19.4010 C   0  0  0  0  0  0  0  0  0  0  0  0
    6.3530   -4.2530   20.4100 C   0  0  0  0  0  0  0  0  0  0  0  0
    5.4040   -4.9250   20.0030 O   0  0  0  0  0  0  0  0  0  0  0  0
    6.8230   -4.3030   21.7330 N   0  0  0  0  0  0  0  0  0  0  0  0
    6.6770   -5.4870   22.5620 C   0  0  0  0  0  0  0  0  0  0  0  0
    6.1010   -5.1240   23.9170 C   0  0  0  0  0  0  0  0  0  0  0  0
    6.2270   -3.6120   24.0980 C   0  0  0  0  0  0  0  0  0  0  0  0
    5.7970   -3.1320   25.4430 C   0  0  0  0  0  0  0  0  0  0  0  0
    5.5110   -1.9400   25.5460 O   0  0  0  0  0  0  0  0  0  0  0  0
    5.6270   -3.9220   26.5970 N   0  0  0  0  0  0  0  0  0  0  0  0
    4.2450   -4.0050   27.0230 C   0  0  0  0  0  0  0  0  0  0  0  0
    4.1110   -4.4790   28.4660 C   0  0  0  0  0  0  0  0  0  0  0  0
    5.0360   -5.5820   28.6800 N   0  0  0  0  0  0  0  0  0  0  0  0
    4.8970   -5.9350   30.0910 C   0  0  0  0  0  0  0  0  0  0  0  0
    3.8140   -5.3550   30.7150 C   0  0  0  0  0  0  0  0  0  0  0  0
    3.7060   -5.6930   32.0290 C   0  0  0  0  0  0  0  0  0  0  0  0
    4.6560   -6.5910   32.7520 C   0  0  0  0  0  0  0  0  0  0  0  0
    4.0990   -6.6270   34.1410 C   0  0  0  0  0  0  0  0  0  0  0  0
    3.0010   -7.4090   34.0860 N   0  0  0  0  0  0  0  0  0  0  0  0
    5.7550   -7.1820   32.1610 N   0  0  0  0  0  0  0  0  0  0  0  0
    5.8750   -6.8550   30.7660 C   0  0  0  0  0  0  0  0  0  0  0  0
    6.3770   -5.0890   28.4990 C   0  0  0  0  0  0  0  0  0  0  0  0
    6.2920   -3.7420   27.8800 C   0  0  0  0  0  0  0  0  0  0  0  0
    7.5050   -3.0440   23.6430 C   0  0  0  0  0  0  0  0  0  0  0  0
    7.7420   -3.2690   22.2000 C   0  0  0  0  0  0  0  0  0  0  0  0
  1  2  1  0
  2  3  2  0
  2  4  1  0
  4  5  1  0
  5  6  1  0
  6  7  1  0
  7  8  1  0
  8  9  2  0
  8 10  1  0
 10 11  1  0
 11 12  1  0
 12 13  1  0
 13 14  1  0
 14 15  2  0
 15 16  1  0
 16 17  2  0
 17 18  1  0
 18 19  3  0
 17 20  1  0
 14 21  1  0
 20 21  2  0
 13 22  1  0
 10 23  1  0
 22 23  1  0
  7 24  1  0
  4 25  1  0
 24 25  1  0
M  END
