piperidine-amides-19674-covalent
     RDKit          3D

 22 24  0  0  0  0  0  0  0  0999 V2000
    7.1160   -3.2950   19.2590 C   0  0  0  0  0  0  0  0  0  0  0  0
    6.3880   -4.1280   20.2480 C   0  0  0  0  0  0  0  0  0  0  0  0
    5.3100   -4.6020   19.9010 O   0  0  0  0  0  0  0  0  0  0  0  0
    6.9550   -4.3970   21.4870 N   0  0  0  0  0  0  0  0  0  0  0  0
    6.5530   -5.5620   22.2200 C   0  0  0  0  0  0  0  0  0  0  0  0
    5.6970   -5.1050   23.3560 C   0  0  0  0  0  0  0  0  0  0  0  0
    6.4890   -4.0980   24.1820 C   0  0  0  0  0  0  0  0  0  0  0  0
    5.5910   -3.6110   25.2380 C   0  0  0  0  0  0  0  0  0  0  0  0
    4.4850   -3.1440   24.9430 O   0  0  0  0  0  0  0  0  0  0  0  0
    5.9730   -3.6640   26.5720 N   0  0  0  0  0  0  0  0  0  0  0  0
    5.2130   -4.4570   27.5010 C   0  0  0  0  0  0  0  0  0  0  0  0
    5.7760   -3.9230   28.7750 C   0  0  0  0  0  0  0  0  0  0  0  0
    6.7390   -2.9940   28.5660 C   0  0  2  0  0  0  0  0  0  0  0  0
    6.7010   -1.8220   29.2600 C   0  0  0  0  0  0  0  0  0  0  0  0
    5.8280   -1.4320   30.3090 N   0  0  0  0  0  0  0  0  0  0  0  0
    6.2640   -0.1280   30.6360 C   0  0  0  0  0  0  0  0  0  0  0  0
    5.7430    0.8340   31.6840 C   0  0  0  0  0  0  0  0  0  0  0  0
    7.2980    0.2460   29.8630 N   0  0  0  0  0  0  0  0  0  0  0  0
    7.5810   -0.7320   29.0420 O   0  0  0  0  0  0  0  0  0  0  0  0
    6.5310   -2.5270   27.1720 C   0  0  0  0  0  0  0  0  0  0  0  0
    7.0420   -2.9460   23.4450 C   0  0  0  0  0  0  0  0  0  0  0  0
    7.6380   -3.3150   22.1430 C   0  0  0  0  0  0  0  0  0  0  0  0
  1  2  1  0
  2  3  2  0
  2  4  1  0
  4  5  1  0
  5  6  1  0
  6  7  1  0
  7  8  1  0
  8  9  2  0
  8 10  1  0
 10 11  1  0
 11 12  1  0
 12 13  1  0
 13 14  1  1
 14 15  2  0
 15 16  1  0
 16 17  1  0
 16 18  2  0
 14 19  1  0
 18 19  1  0
 10 20  1  0
 13 20  1  0
  7 21  1  0
  4 22  1  0
 21 22  1  0
M  END
