piperidine-amides-3870-covalent
     RDKit          3D

 21 22  0  0  0  0  0  0  0  0999 V2000
    7.0930   -3.3260   19.2760 C   0  0  0  0  0  0  0  0  0  0  0  0
    6.3960   -4.1360   20.2830 C   0  0  0  0  0  0  0  0  0  0  0  0
    5.3180   -4.6670   19.9320 O   0  0  0  0  0  0  0  0  0  0  0  0
    6.9600   -4.3590   21.5610 N   0  0  0  0  0  0  0  0  0  0  0  0
    6.4410   -5.4330   22.3320 C   0  0  0  0  0  0  0  0  0  0  0  0
    5.8450   -5.0270   23.5980 C   0  0  0  0  0  0  0  0  0  0  0  0
    6.4930   -3.8710   24.2640 C   0  0  0  0  0  0  0  0  0  0  0  0
    5.7430   -3.3830   25.4660 C   0  0  0  0  0  0  0  0  0  0  0  0
    4.4940   -3.3130   25.4660 O   0  0  0  0  0  0  0  0  0  0  0  0
    6.4360   -3.0070   26.6280 N   0  0  0  0  0  0  0  0  0  0  0  0
    6.4430   -1.7660   27.3070 C   0  0  0  0  0  0  0  0  0  0  0  0
    7.0120   -1.5710   28.6040 C   0  0  0  0  0  0  0  0  0  0  0  0
    6.9580   -0.2020   29.2580 C   0  0  0  0  0  0  0  0  0  0  0  0
    6.3870    0.9390   28.7040 C   0  0  0  0  0  0  0  0  0  0  0  0
    6.4320    2.0970   29.4440 F   0  0  0  0  0  0  0  0  0  0  0  0
    5.7550    0.7900   27.2940 C   0  0  0  0  0  0  0  0  0  0  0  0
    5.1360    1.8160   26.5800 O   0  0  0  0  0  0  0  0  0  0  0  0
    5.8240   -0.5790   26.6710 C   0  0  0  0  0  0  0  0  0  0  0  0
    5.2520   -0.6470   25.4510 F   0  0  0  0  0  0  0  0  0  0  0  0
    6.7100   -2.7360   23.2770 C   0  0  0  0  0  0  0  0  0  0  0  0
    7.6660   -3.3200   22.2770 C   0  0  0  0  0  0  0  0  0  0  0  0
  1  2  1  0
  2  3  2  0
  2  4  1  0
  4  5  1  0
  5  6  1  0
  6  7  1  0
  7  8  1  0
  8  9  2  0
  8 10  1  0
 10 11  1  0
 11 12  2  0
 12 13  1  0
 13 14  2  0
 14 15  1  0
 14 16  1  0
 16 17  1  0
 11 18  1  0
 16 18  2  0
 18 19  1  0
  7 20  1  0
  4 21  1  0
 20 21  1  0
M  END
