piperidine-amides-6895-covalent
     RDKit          3D

 23 24  0  0  0  0  0  0  0  0999 V2000
    7.1060   -3.2810   19.2250 C   0  0  0  0  0  0  0  0  0  0  0  0
    6.3220   -4.0110   20.2380 C   0  0  0  0  0  0  0  0  0  0  0  0
    5.2850   -4.6240   19.9060 O   0  0  0  0  0  0  0  0  0  0  0  0
    6.7440   -4.0640   21.5720 N   0  0  0  0  0  0  0  0  0  0  0  0
    7.6680   -3.0660   22.0610 C   0  0  0  0  0  0  0  0  0  0  0  0
    7.5360   -3.0900   23.5800 C   0  0  0  0  0  0  0  0  0  0  0  0
    6.0940   -3.4520   23.8360 C   0  0  0  0  0  0  0  0  0  0  0  0
    5.7030   -3.2010   25.2420 C   0  0  0  0  0  0  0  0  0  0  0  0
    4.4840   -3.1740   25.5130 O   0  0  0  0  0  0  0  0  0  0  0  0
    6.6930   -2.9900   26.2390 N   0  0  0  0  0  0  0  0  0  0  0  0
    7.2170   -4.1110   26.9620 C   0  0  2  0  0  0  0  0  0  0  0  0
    7.5490   -5.1410   25.9060 C   0  0  0  0  0  0  0  0  0  0  0  0
    8.5700   -5.9450   25.3650 O   0  0  0  0  0  0  0  0  0  0  0  0
    8.6860   -4.8570   26.7120 N   0  0  0  0  0  0  0  0  0  0  0  0
    8.9800   -5.6170   27.8980 C   0  0  0  0  0  0  0  0  0  0  0  0
    6.3510   -4.6340   28.0230 C   0  0  0  0  0  0  0  0  0  0  0  0
    6.4080   -5.9610   28.3470 C   0  0  0  0  0  0  0  0  0  0  0  0
    5.6360   -6.5480   29.3250 C   0  0  0  0  0  0  0  0  0  0  0  0
    4.5680   -5.9910   30.2810 C   0  0  0  0  0  0  0  0  0  0  0  0
    4.6100   -4.5280   29.8140 C   0  0  0  0  0  0  0  0  0  0  0  0
    5.4690   -3.9420   28.7480 C   0  0  0  0  0  0  0  0  0  0  0  0
    5.8010   -4.8980   23.4650 C   0  0  0  0  0  0  0  0  0  0  0  0
    6.5760   -5.2690   22.3490 C   0  0  0  0  0  0  0  0  0  0  0  0
  1  2  1  0
  2  3  2  0
  2  4  1  0
  4  5  1  0
  5  6  1  0
  6  7  1  0
  7  8  1  0
  8  9  2  0
  8 10  1  0
 11 10  1  6
 11 12  1  0
 12 13  2  0
 12 14  1  0
 14 15  1  0
 11 16  1  0
 16 17  2  0
 17 18  1  0
 18 19  2  0
 19 20  1  0
 16 21  1  0
 20 21  2  0
  7 22  1  0
  4 23  1  0
 22 23  1  0
M  END
