piperidine-amides-28868-covalent
     RDKit          3D

 25 27  0  0  0  0  0  0  0  0999 V2000
    7.0010   -3.3740   19.4230 C   0  0  0  0  0  0  0  0  0  0  0  0
    6.3800   -4.2750   20.3990 C   0  0  0  0  0  0  0  0  0  0  0  0
    5.4050   -4.9420   20.0020 O   0  0  0  0  0  0  0  0  0  0  0  0
    6.8890   -4.4110   21.7250 N   0  0  0  0  0  0  0  0  0  0  0  0
    6.5390   -5.5970   22.4750 C   0  0  0  0  0  0  0  0  0  0  0  0
    6.3220   -5.2870   23.9440 C   0  0  0  0  0  0  0  0  0  0  0  0
    6.0980   -3.7960   24.0670 C   0  0  0  0  0  0  0  0  0  0  0  0
    5.5180   -3.2920   25.3840 C   0  0  0  0  0  0  0  0  0  0  0  0
    4.8750   -2.2580   25.2490 O   0  0  0  0  0  0  0  0  0  0  0  0
    5.6420   -3.9110   26.6440 N   0  0  0  0  0  0  0  0  0  0  0  0
    4.6160   -3.6460   27.6250 C   0  0  0  0  0  0  0  0  0  0  0  0
    4.1990   -4.6550   28.5490 C   0  0  0  0  0  0  0  0  0  0  0  0
    5.3800   -5.3980   29.0080 N   0  0  0  0  0  0  0  0  0  0  0  0
    5.4900   -6.7400   29.4260 C   0  0  0  0  0  0  0  0  0  0  0  0
    4.5320   -7.2670   30.2670 C   0  0  0  0  0  0  0  0  0  0  0  0
    5.0510   -7.3060   31.6460 C   0  0  0  0  0  0  0  0  0  0  0  0
    4.1890   -7.8540   32.7980 C   0  0  0  0  0  0  0  0  0  0  0  0
    2.8040   -8.3500   32.4900 C   0  0  0  0  0  0  0  0  0  0  0  0
    1.7380   -8.9950   33.7160 Cl  0  0  0  0  0  0  0  0  0  0  0  0
    2.4730   -8.2210   31.0420 N   0  0  0  0  0  0  0  0  0  0  0  0
    3.2580   -7.7120   29.9270 C   0  0  0  0  0  0  0  0  0  0  0  0
    6.5820   -4.9890   28.4390 C   0  0  0  0  0  0  0  0  0  0  0  0
    6.3730   -3.7740   27.8550 C   0  0  0  0  0  0  0  0  0  0  0  0
    7.4040   -3.1360   23.7510 C   0  0  0  0  0  0  0  0  0  0  0  0
    7.6410   -3.3000   22.2770 C   0  0  0  0  0  0  0  0  0  0  0  0
  1  2  1  0
  2  3  2  0
  2  4  1  0
  4  5  1  0
  5  6  1  0
  6  7  1  0
  7  8  1  0
  8  9  2  0
  8 10  1  0
 10 11  1  0
 11 12  1  0
 12 13  1  0
 13 14  1  0
 14 15  1  0
 15 16  2  0
 16 17  1  0
 17 18  2  0
 18 19  1  0
 18 20  1  0
 15 21  1  0
 20 21  2  0
 13 22  1  0
 10 23  1  0
 22 23  1  0
  7 24  1  0
  4 25  1  0
 24 25  1  0
M  END
