piperidine-amides-11789-covalent
     RDKit          3D

 27 30  0  0  0  0  0  0  0  0999 V2000
    7.0130   -3.3530   19.3890 C   0  0  0  0  0  0  0  0  0  0  0  0
    6.3500   -4.1820   20.3940 C   0  0  0  0  0  0  0  0  0  0  0  0
    5.4440   -4.9310   20.0150 O   0  0  0  0  0  0  0  0  0  0  0  0
    6.7560   -4.1680   21.7890 N   0  0  0  0  0  0  0  0  0  0  0  0
    7.6560   -3.1370   22.2870 C   0  0  0  0  0  0  0  0  0  0  0  0
    7.5510   -2.9670   23.7900 C   0  0  0  0  0  0  0  0  0  0  0  0
    6.1820   -3.4600   24.2100 C   0  0  0  0  0  0  0  0  0  0  0  0
    5.7950   -3.2510   25.6690 C   0  0  0  0  0  0  0  0  0  0  0  0
    4.7260   -3.7340   26.0800 O   0  0  0  0  0  0  0  0  0  0  0  0
    6.5800   -2.4970   26.6240 N   0  0  0  0  0  0  0  0  0  0  0  0
    5.9510   -1.3000   27.2110 C   0  0  2  0  0  0  0  0  0  0  0  0
    5.8450   -0.4690   25.9110 C   0  0  0  0  0  0  0  0  0  0  0  0
    5.9900    0.8050   26.2030 C   0  0  0  0  0  0  0  0  0  0  0  0
    6.1380    0.5700   27.4830 C   0  0  0  0  0  0  0  0  0  0  0  0
    6.3730   -0.4960   28.4910 N   0  0  0  0  0  0  0  0  0  0  0  0
    6.3540    0.3330   29.8340 C   0  0  0  0  0  0  0  0  0  0  0  0
    6.4800    0.0840   31.2750 C   0  0  0  0  0  0  0  0  0  0  0  0
    5.4330   -0.1830   32.1640 C   0  0  0  0  0  0  0  0  0  0  0  0
    5.5570   -0.3760   33.5280 C   0  0  0  0  0  0  0  0  0  0  0  0
    6.8020   -0.3100   34.1070 C   0  0  0  0  0  0  0  0  0  0  0  0
    7.9180   -0.0380   33.2250 C   0  0  0  0  0  0  0  0  0  0  0  0
    7.7530    0.1500   31.8540 C   0  0  0  0  0  0  0  0  0  0  0  0
    6.1490    1.5920   29.4220 C   0  0  0  0  0  0  0  0  0  0  0  0
    6.1800    0.8480   28.4720 N   0  0  0  0  0  0  0  0  0  0  0  0
    6.4030   -0.6190   28.5460 C   0  0  0  0  0  0  0  0  0  0  0  0
    5.9740   -4.9230   23.9220 C   0  0  0  0  0  0  0  0  0  0  0  0
    6.5740   -5.3470   22.5870 C   0  0  0  0  0  0  0  0  0  0  0  0
  1  2  1  0
  2  3  2  0
  2  4  1  0
  4  5  1  0
  5  6  1  0
  6  7  1  0
  7  8  1  0
  8  9  2  0
  8 10  1  0
 11 10  1  6
 11 12  1  0
 12 13  1  0
 13 14  1  0
 14 15  2  0
 15 16  1  0
 16 17  1  0
 17 18  2  0
 18 19  1  0
 19 20  2  0
 20 21  1  0
 17 22  1  0
 21 22  2  0
 16 23  2  0
 14 24  1  0
 23 24  1  0
 11 25  1  0
 24 25  1  0
  7 26  1  0
  4 27  1  0
 26 27  1  0
M  END
