piperidine-amides-29840-covalent
     RDKit          3D

 27 30  0  0  0  0  0  0  0  0999 V2000
    7.1230   -3.3200   19.2930 C   0  0  0  0  0  0  0  0  0  0  0  0
    6.3990   -4.1570   20.2350 C   0  0  0  0  0  0  0  0  0  0  0  0
    5.3270   -4.6710   19.9270 O   0  0  0  0  0  0  0  0  0  0  0  0
    6.9810   -4.4410   21.5060 N   0  0  0  0  0  0  0  0  0  0  0  0
    7.7060   -3.4150   22.2080 C   0  0  0  0  0  0  0  0  0  0  0  0
    6.9030   -2.9320   23.3700 C   0  0  0  0  0  0  0  0  0  0  0  0
    6.4450   -4.1420   24.1700 C   0  0  0  0  0  0  0  0  0  0  0  0
    5.4640   -3.6940   25.1850 C   0  0  0  0  0  0  0  0  0  0  0  0
    4.6830   -2.7410   24.9950 O   0  0  0  0  0  0  0  0  0  0  0  0
    5.4110   -4.3760   26.4150 N   0  0  0  0  0  0  0  0  0  0  0  0
    6.1100   -5.6210   26.5250 C   0  0  0  0  0  0  0  0  0  0  0  0
    5.9090   -6.0630   27.9460 C   0  0  0  0  0  0  0  0  0  0  0  0
    5.1140   -7.2090   28.2340 C   0  0  0  0  0  0  0  0  0  0  0  0
    4.8180   -7.7540   29.5390 C   0  0  0  0  0  0  0  0  0  0  0  0
    5.5610   -6.7260   29.7380 C   0  0  0  0  0  0  0  0  0  0  0  0
    6.3120   -5.7120   30.1860 N   0  0  0  0  0  0  0  0  0  0  0  0
    6.5280   -5.2830   28.8960 C   0  0  0  0  0  0  0  0  0  0  0  0
    7.2420   -4.2460   28.6100 N   0  0  0  0  0  0  0  0  0  0  0  0
    8.3620   -4.7330   28.0220 C   0  0  0  0  0  0  0  0  0  0  0  0
    8.5060   -4.2390   26.7720 C   0  0  1  0  0  0  0  0  0  0  0  0
    8.6330   -5.3190   25.9440 O   0  0  0  0  0  0  0  0  0  0  0  0
    9.8040   -5.9530   26.3130 C   0  0  0  0  0  0  0  0  0  0  0  0
    7.3120   -3.4550   26.5560 C   0  0  0  0  0  0  0  0  0  0  0  0
    6.5910   -3.3680   27.7680 C   0  0  1  0  0  0  0  0  0  0  0  0
    5.2920   -3.7530   27.6820 C   0  0  0  0  0  0  0  0  0  0  0  0
    5.7300   -5.1720   23.3250 C   0  0  0  0  0  0  0  0  0  0  0  0
    6.6510   -5.6430   22.2060 C   0  0  0  0  0  0  0  0  0  0  0  0
  1  2  1  0
  2  3  2  0
  2  4  1  0
  4  5  1  0
  5  6  1  0
  6  7  1  0
  7  8  1  0
  8  9  2  0
  8 10  1  0
 10 11  1  0
 11 12  1  0
 12 13  1  0
 13 14  2  0
 14 15  1  0
 15 16  2  0
 12 17  2  0
 16 17  1  0
 17 18  1  0
 18 19  1  0
 19 20  1  0
 20 21  1  6
 21 22  1  0
 20 23  1  0
 18 24  1  0
 24 23  1  6
 10 25  1  0
 24 25  1  0
  7 26  1  0
  4 27  1  0
 26 27  1  0
M  END
