piperidine-amides-31561-covalent
     RDKit          3D

 28 30  0  0  0  0  0  0  0  0999 V2000
    7.1400   -3.3470   19.3940 C   0  0  0  0  0  0  0  0  0  0  0  0
    6.4540   -4.2050   20.3300 C   0  0  0  0  0  0  0  0  0  0  0  0
    5.3820   -4.7840   19.9650 O   0  0  0  0  0  0  0  0  0  0  0  0
    6.9880   -4.4450   21.6080 N   0  0  0  0  0  0  0  0  0  0  0  0
    7.7220   -3.3140   22.1990 C   0  0  0  0  0  0  0  0  0  0  0  0
    6.5130   -2.7420   22.9950 C   0  0  0  0  0  0  0  0  0  0  0  0
    6.3250   -3.7750   24.0600 C   0  0  0  0  0  0  0  0  0  0  0  0
    5.3760   -3.2280   25.2090 C   0  0  0  0  0  0  0  0  0  0  0  0
    4.2420   -3.1050   24.7700 O   0  0  0  0  0  0  0  0  0  0  0  0
    6.0010   -3.0480   26.3070 N   0  0  0  0  0  0  0  0  0  0  0  0
    6.3870   -3.2160   27.6090 C   0  0  0  0  0  0  0  0  0  0  0  0
    6.5920   -4.2270   28.5190 C   0  0  0  0  0  0  0  0  0  0  0  0
    5.8210   -5.3850   28.2690 C   0  0  0  0  0  0  0  0  0  0  0  0
    6.4790   -6.2430   27.3720 O   0  0  0  0  0  0  0  0  0  0  0  0
    4.4320   -5.2290   27.7720 C   0  0  0  0  0  0  0  0  0  0  0  0
    4.2630   -6.7530   27.5970 C   0  0  0  0  0  0  0  0  0  0  0  0
    4.0650   -6.9430   28.9680 C   0  0  0  0  0  0  0  0  0  0  0  0
    5.1330   -7.5190   29.6650 C   0  0  0  0  0  0  0  0  0  0  0  0
    5.2670   -6.0060   29.5280 C   0  0  0  0  0  0  0  0  0  0  0  0
    6.5210   -1.7070   26.4070 C   0  0  0  0  0  0  0  0  0  0  0  0
    6.9160   -1.1350   25.2150 C   0  0  0  0  0  0  0  0  0  0  0  0
    6.2930   -0.0400   24.7010 C   0  0  0  0  0  0  0  0  0  0  0  0
    6.6610    0.5410   23.5530 C   0  0  0  0  0  0  0  0  0  0  0  0
    7.7090    0.0630   22.8120 C   0  0  0  0  0  0  0  0  0  0  0  0
    8.4970   -1.0510   23.1410 C   0  0  0  0  0  0  0  0  0  0  0  0
    7.9790   -1.6210   24.4570 C   0  0  0  0  0  0  0  0  0  0  0  0
    5.8160   -5.1310   23.5920 C   0  0  0  0  0  0  0  0  0  0  0  0
    6.5870   -5.6090   22.3530 C   0  0  0  0  0  0  0  0  0  0  0  0
  1  2  1  0
  2  3  2  0
  2  4  1  0
  4  5  1  0
  5  6  1  0
  6  7  1  0
  7  8  1  0
  8  9  2  0
  8 10  1  0
 10 11  1  0
 11 12  1  0
 12 13  1  0
 13 14  1  0
 13 15  1  0
 15 16  1  0
 16 17  1  0
 17 18  1  0
 13 19  1  0
 18 19  1  0
 10 20  1  0
 20 21  1  0
 21 22  2  0
 22 23  1  0
 23 24  2  0
 24 25  1  0
 21 26  1  0
 25 26  2  0
  7 27  1  0
  4 28  1  0
 27 28  1  0
M  END
