piperidine-amides-30982-covalent
     RDKit          3D

 26 28  0  0  0  0  0  0  0  0999 V2000
    7.0490   -3.3650   19.4040 C   0  0  0  0  0  0  0  0  0  0  0  0
    6.3970   -4.2430   20.3790 C   0  0  0  0  0  0  0  0  0  0  0  0
    5.4040   -4.8930   20.0010 O   0  0  0  0  0  0  0  0  0  0  0  0
    6.8820   -4.4200   21.7000 N   0  0  0  0  0  0  0  0  0  0  0  0
    6.4780   -5.5340   22.5060 C   0  0  0  0  0  0  0  0  0  0  0  0
    5.5860   -4.9380   23.5780 C   0  0  0  0  0  0  0  0  0  0  0  0
    6.2090   -3.8140   24.3850 C   0  0  0  0  0  0  0  0  0  0  0  0
    5.2480   -3.2430   25.4050 C   0  0  0  0  0  0  0  0  0  0  0  0
    4.5030   -2.2860   25.0700 O   0  0  0  0  0  0  0  0  0  0  0  0
    5.0890   -3.7110   26.7550 N   0  0  0  0  0  0  0  0  0  0  0  0
    4.4550   -2.8780   27.8170 C   0  0  0  0  0  0  0  0  0  0  0  0
    4.5120   -3.5010   29.2040 C   0  0  0  0  0  0  0  0  0  0  0  0
    4.7450   -4.8220   29.1570 N   0  0  0  0  0  0  0  0  0  0  0  0
    4.6270   -5.7360   30.2380 C   0  0  0  0  0  0  0  0  0  0  0  0
    3.5300   -6.7460   29.9830 C   0  0  0  0  0  0  0  0  0  0  0  0
    3.0890   -6.9490   28.5400 C   0  0  0  0  0  0  0  0  0  0  0  0
    3.6950   -6.2050   27.4720 F   0  0  0  0  0  0  0  0  0  0  0  0
    2.0080   -7.9510   28.3320 C   0  0  0  0  0  0  0  0  0  0  0  0
    1.4130   -8.6720   29.3360 C   0  0  0  0  0  0  0  0  0  0  0  0
    1.8430   -8.4610   30.6410 C   0  0  0  0  0  0  0  0  0  0  0  0
    2.9300   -7.4740   30.9790 C   0  0  0  0  0  0  0  0  0  0  0  0
    3.4200   -7.2670   32.6550 Cl  0  0  0  0  0  0  0  0  0  0  0  0
    5.8170   -5.2710   28.3520 C   0  0  0  0  0  0  0  0  0  0  0  0
    6.1450   -4.5120   27.1470 C   0  0  0  0  0  0  0  0  0  0  0  0
    6.7830   -2.7510   23.4760 C   0  0  0  0  0  0  0  0  0  0  0  0
    7.5380   -3.3170   22.3250 C   0  0  0  0  0  0  0  0  0  0  0  0
  1  2  1  0
  2  3  2  0
  2  4  1  0
  4  5  1  0
  5  6  1  0
  6  7  1  0
  7  8  1  0
  8  9  2  0
  8 10  1  0
 10 11  1  0
 11 12  1  0
 12 13  1  0
 13 14  1  0
 14 15  1  0
 15 16  2  0
 16 17  1  0
 16 18  1  0
 18 19  2  0
 19 20  1  0
 15 21  1  0
 20 21  2  0
 21 22  1  0
 13 23  1  0
 10 24  1  0
 23 24  1  0
  7 25  1  0
  4 26  1  0
 25 26  1  0
M  END
