piperidine-amides-10836-covalent
     RDKit          3D

 22 23  0  0  0  0  0  0  0  0999 V2000
    7.0730   -3.2870   19.2640 C   0  0  0  0  0  0  0  0  0  0  0  0
    6.3360   -4.0480   20.2770 C   0  0  0  0  0  0  0  0  0  0  0  0
    5.3240   -4.6790   19.9340 O   0  0  0  0  0  0  0  0  0  0  0  0
    6.7780   -4.1090   21.6130 N   0  0  0  0  0  0  0  0  0  0  0  0
    7.7090   -3.1290   22.1380 C   0  0  0  0  0  0  0  0  0  0  0  0
    7.4250   -3.0170   23.6020 C   0  0  0  0  0  0  0  0  0  0  0  0
    6.0800   -3.5840   23.9250 C   0  0  0  0  0  0  0  0  0  0  0  0
    5.6290   -3.3110   25.3110 C   0  0  0  0  0  0  0  0  0  0  0  0
    4.4030   -3.0800   25.5430 O   0  0  0  0  0  0  0  0  0  0  0  0
    6.5030   -3.2810   26.4190 N   0  0  0  0  0  0  0  0  0  0  0  0
    6.2200   -4.0460   27.6590 C   0  0  0  0  0  0  0  0  0  0  0  0
    5.9020   -5.4600   27.3210 C   0  0  0  0  0  0  0  0  0  0  0  0
    5.1120   -6.2280   28.2910 C   0  0  0  0  0  0  0  0  0  0  0  0
    5.8400   -6.5190   29.5790 C   0  0  0  0  0  0  0  0  0  0  0  0
    5.0640   -7.3070   30.6230 C   0  0  0  0  0  0  0  0  0  0  0  0
    5.6780   -7.6250   31.8850 F   0  0  0  0  0  0  0  0  0  0  0  0
    3.6830   -7.6960   30.2390 C   0  0  0  0  0  0  0  0  0  0  0  0
    3.1160   -7.3830   29.0420 C   0  0  0  0  0  0  0  0  0  0  0  0
    1.8260   -7.8360   28.8920 F   0  0  0  0  0  0  0  0  0  0  0  0
    3.8190   -6.6600   28.0830 C   0  0  0  0  0  0  0  0  0  0  0  0
    5.9820   -5.0930   23.6540 C   0  0  0  0  0  0  0  0  0  0  0  0
    6.6430   -5.3840   22.2960 C   0  0  0  0  0  0  0  0  0  0  0  0
  1  2  1  0
  2  3  2  0
  2  4  1  0
  4  5  1  0
  5  6  1  0
  6  7  1  0
  7  8  1  0
  8  9  2  0
  8 10  1  0
 10 11  1  0
 11 12  1  0
 12 13  1  0
 13 14  2  0
 14 15  1  0
 15 16  1  0
 15 17  2  0
 17 18  1  0
 18 19  1  0
 13 20  1  0
 18 20  2  0
  7 21  1  0
  4 22  1  0
 21 22  1  0
M  END
