piperidine-amides-34291-covalent
     RDKit          3D

 30 31  0  0  0  0  0  0  0  0999 V2000
    7.0660   -3.3630   19.4290 C   0  0  0  0  0  0  0  0  0  0  0  0
    6.3730   -4.2370   20.3820 C   0  0  0  0  0  0  0  0  0  0  0  0
    5.3840   -4.9040   19.9990 O   0  0  0  0  0  0  0  0  0  0  0  0
    6.8400   -4.3720   21.7050 N   0  0  0  0  0  0  0  0  0  0  0  0
    6.4690   -5.5200   22.4820 C   0  0  0  0  0  0  0  0  0  0  0  0
    5.5230   -4.9890   23.5680 C   0  0  0  0  0  0  0  0  0  0  0  0
    6.2290   -3.8790   24.3440 C   0  0  0  0  0  0  0  0  0  0  0  0
    5.2740   -3.2540   25.3220 C   0  0  0  0  0  0  0  0  0  0  0  0
    4.4040   -2.5170   24.8340 O   0  0  0  0  0  0  0  0  0  0  0  0
    5.3160   -3.4580   26.7440 N   0  0  0  0  0  0  0  0  0  0  0  0
    4.2330   -3.0780   27.5930 C   0  0  0  0  0  0  0  0  0  0  0  0
    4.2970   -3.7910   28.9630 C   0  0  0  0  0  0  0  0  0  0  0  0
    5.5910   -4.2930   29.2230 O   0  0  0  0  0  0  0  0  0  0  0  0
    6.3740   -4.7680   28.2360 C   0  0  1  0  0  0  0  0  0  0  0  0
    5.8690   -5.8560   27.5330 C   0  0  0  0  0  0  0  0  0  0  0  0
    5.8360   -7.0270   28.3640 N   0  0  0  0  0  0  0  0  0  0  0  0
    6.9830   -7.4660   29.0020 C   0  0  0  0  0  0  0  0  0  0  0  0
    7.0090   -8.8730   29.3220 C   0  0  0  0  0  0  0  0  0  0  0  0
    5.7800   -9.2840   29.4210 O   0  0  0  0  0  0  0  0  0  0  0  0
    8.2440   -9.7470   29.6460 O   0  0  0  0  0  0  0  0  0  0  0  0
    8.8370  -11.1730   29.4010 C   0  0  0  0  0  0  0  0  0  0  0  0
    9.6560  -11.4060   28.2780 C   0  0  0  0  0  0  0  0  0  0  0  0
    9.2050  -12.0890   30.4640 C   0  0  0  0  0  0  0  0  0  0  0  0
   10.0640  -11.5190   30.0610 C   0  0  0  0  0  0  0  0  0  0  0  0
    4.5810   -7.3110   28.9730 C   0  0  0  0  0  0  0  0  0  0  0  0
    4.5460   -7.5150   30.3250 C   0  0  0  0  0  0  0  0  0  0  0  0
    3.3900   -7.3700   28.2650 O   0  0  0  0  0  0  0  0  0  0  0  0
    6.4610   -3.5050   27.4580 C   0  0  0  0  0  0  0  0  0  0  0  0
    6.7610   -2.7520   23.4560 C   0  0  0  0  0  0  0  0  0  0  0  0
    7.6280   -3.3450   22.3310 C   0  0  0  0  0  0  0  0  0  0  0  0
  1  2  1  0
  2  3  2  0
  2  4  1  0
  4  5  1  0
  5  6  1  0
  6  7  1  0
  7  8  1  0
  8  9  2  0
  8 10  1  0
 10 11  1  0
 11 12  1  0
 12 13  1  0
 13 14  1  0
 14 15  1  6
 15 16  1  0
 16 17  1  0
 17 18  1  0
 18 19  2  0
 18 20  1  0
 21 20  1  0
 21 22  1  0
 21 23  1  0
 21 24  1  0
 16 25  1  0
 25 26  1  0
 25 27  2  0
 10 28  1  0
 14 28  1  0
  7 29  1  0
  4 30  1  0
 29 30  1  0
M  END
