piperidine-amides-4855-covalent
     RDKit          3D

 23 25  0  0  0  0  0  0  0  0999 V2000
    7.0830   -3.2760   19.2140 C   0  0  0  0  0  0  0  0  0  0  0  0
    6.3670   -4.0390   20.2630 C   0  0  0  0  0  0  0  0  0  0  0  0
    5.2990   -4.5720   19.8990 O   0  0  0  0  0  0  0  0  0  0  0  0
    6.8770   -4.2100   21.5690 N   0  0  0  0  0  0  0  0  0  0  0  0
    7.5440   -3.1430   22.2520 C   0  0  0  0  0  0  0  0  0  0  0  0
    6.8940   -2.8160   23.5270 C   0  0  0  0  0  0  0  0  0  0  0  0
    5.5370   -3.4040   23.6070 C   0  0  0  0  0  0  0  0  0  0  0  0
    4.6670   -2.9580   24.7500 C   0  0  0  0  0  0  0  0  0  0  0  0
    3.4660   -2.8500   24.4970 O   0  0  0  0  0  0  0  0  0  0  0  0
    5.0530   -2.6790   26.0760 N   0  0  0  0  0  0  0  0  0  0  0  0
    4.5690   -3.5670   27.1590 C   0  0  0  0  0  0  0  0  0  0  0  0
    5.6460   -4.5020   27.2740 C   0  0  0  0  0  0  0  0  0  0  0  0
    5.9660   -5.2890   28.4420 C   0  0  0  0  0  0  0  0  0  0  0  0
    7.0520   -6.1050   28.4630 C   0  0  0  0  0  0  0  0  0  0  0  0
    7.8410   -6.1520   27.3360 C   0  0  0  0  0  0  0  0  0  0  0  0
    8.9250   -6.7510   27.0450 O   0  0  0  0  0  0  0  0  0  0  0  0
    9.4110   -6.0780   25.9120 C   0  0  0  0  0  0  0  0  0  0  0  0
   10.7580   -5.8530   25.7160 O   0  0  0  0  0  0  0  0  0  0  0  0
    8.3670   -5.5460   25.1100 N   0  0  0  0  0  0  0  0  0  0  0  0
    7.4870   -5.3870   26.1640 C   0  0  0  0  0  0  0  0  0  0  0  0
    6.4340   -4.6020   26.1500 C   0  0  0  0  0  0  0  0  0  0  0  0
    5.5620   -4.9150   23.4300 C   0  0  0  0  0  0  0  0  0  0  0  0
    6.5240   -5.3510   22.3790 C   0  0  0  0  0  0  0  0  0  0  0  0
  1  2  1  0
  2  3  2  0
  2  4  1  0
  4  5  1  0
  5  6  1  0
  6  7  1  0
  7  8  1  0
  8  9  2  0
  8 10  1  0
 10 11  1  0
 11 12  1  0
 12 13  2  0
 13 14  1  0
 14 15  2  0
 15 16  1  0
 16 17  1  0
 17 18  2  0
 17 19  1  0
 15 20  1  0
 19 20  1  0
 12 21  1  0
 20 21  2  0
  7 22  1  0
  4 23  1  0
 22 23  1  0
M  END
