piperidine-amides-2081-covalent
     RDKit          3D

 21 23  0  0  0  0  0  0  0  0999 V2000
    7.0420   -3.3460   19.3090 C   0  0  0  0  0  0  0  0  0  0  0  0
    6.3310   -4.1520   20.3340 C   0  0  0  0  0  0  0  0  0  0  0  0
    5.3430   -4.7770   19.9610 O   0  0  0  0  0  0  0  0  0  0  0  0
    6.8150   -4.2170   21.6460 N   0  0  0  0  0  0  0  0  0  0  0  0
    6.5710   -5.3660   22.4800 C   0  0  0  0  0  0  0  0  0  0  0  0
    5.8820   -4.9290   23.7490 C   0  0  0  0  0  0  0  0  0  0  0  0
    6.5930   -3.7160   24.3640 C   0  0  0  0  0  0  0  0  0  0  0  0
    5.7820   -3.2550   25.5300 C   0  0  0  0  0  0  0  0  0  0  0  0
    4.5360   -3.2750   25.4640 O   0  0  0  0  0  0  0  0  0  0  0  0
    6.3880   -2.8120   26.7400 N   0  0  0  0  0  0  0  0  0  0  0  0
    6.6230   -1.3840   27.0040 C   0  0  1  0  0  0  0  0  0  0  0  0
    5.8480   -0.5340   26.0260 C   0  0  0  0  0  0  0  0  0  0  0  0
    4.8430    0.2900   26.4630 C   0  0  0  0  0  0  0  0  0  0  0  0
    4.0780   -0.0980   27.4040 O   0  0  0  0  0  0  0  0  0  0  0  0
    4.6940   -1.0350   28.2300 C   0  0  0  0  0  0  0  0  0  0  0  0
    6.0320   -0.8010   28.2480 C   0  0  0  0  0  0  0  0  0  0  0  0
    7.0060   -1.2410   29.2990 C   0  0  0  0  0  0  0  0  0  0  0  0
    6.8330    0.1870   29.7460 C   0  0  0  0  0  0  0  0  0  0  0  0
    6.2120    0.6590   28.4610 C   0  0  0  0  0  0  0  0  0  0  0  0
    6.9260   -2.6360   23.4170 C   0  0  0  0  0  0  0  0  0  0  0  0
    7.5870   -3.1280   22.1780 C   0  0  0  0  0  0  0  0  0  0  0  0
  1  2  1  0
  2  3  2  0
  2  4  1  0
  4  5  1  0
  5  6  1  0
  6  7  1  0
  7  8  1  0
  8  9  2  0
  8 10  1  0
 11 10  1  6
 11 12  1  0
 12 13  1  0
 13 14  1  0
 14 15  1  0
 11 16  1  0
 16 15  1  0
 16 17  1  0
 17 18  1  0
 16 19  1  0
 18 19  1  0
  7 20  1  0
  4 21  1  0
 20 21  1  0
M  END
