piperidine-amides-2908-covalent
     RDKit          3D

 24 26  0  0  0  0  0  0  0  0999 V2000
    7.0870   -3.2360   19.2200 C   0  0  0  0  0  0  0  0  0  0  0  0
    6.3040   -3.9960   20.1930 C   0  0  0  0  0  0  0  0  0  0  0  0
    5.2460   -4.5200   19.8600 O   0  0  0  0  0  0  0  0  0  0  0  0
    6.7790   -4.1900   21.5290 N   0  0  0  0  0  0  0  0  0  0  0  0
    6.4690   -5.4110   22.2130 C   0  0  0  0  0  0  0  0  0  0  0  0
    6.0390   -5.0880   23.6170 C   0  0  0  0  0  0  0  0  0  0  0  0
    5.8020   -3.5850   23.6950 C   0  0  0  0  0  0  0  0  0  0  0  0
    5.2510   -3.2020   25.0330 C   0  0  0  0  0  0  0  0  0  0  0  0
    4.1090   -2.7300   25.1600 O   0  0  0  0  0  0  0  0  0  0  0  0
    6.0190   -3.3840   26.1960 N   0  0  0  0  0  0  0  0  0  0  0  0
    6.7050   -4.6240   26.3450 C   0  0  0  0  0  0  0  0  0  0  0  0
    8.0780   -4.3110   25.8770 C   0  0  0  0  0  0  0  0  0  0  0  0
    8.3990   -3.1120   25.2980 N   0  0  0  0  0  0  0  0  0  0  0  0
    9.7140   -2.8960   24.9930 C   0  0  0  0  0  0  0  0  0  0  0  0
   10.1920   -1.8990   24.0940 C   0  0  0  0  0  0  0  0  0  0  0  0
   11.5470   -1.7370   23.8630 C   0  0  0  0  0  0  0  0  0  0  0  0
   12.4710   -2.5900   24.5500 C   0  0  0  0  0  0  0  0  0  0  0  0
   11.9760   -3.5240   25.3920 C   0  0  0  0  0  0  0  0  0  0  0  0
   10.6330   -3.7080   25.6310 C   0  0  0  0  0  0  0  0  0  0  0  0
   10.0930   -4.6590   26.4780 C   0  0  0  0  0  0  0  0  0  0  0  0
   10.6310   -4.9040   27.6860 O   0  0  0  0  0  0  0  0  0  0  0  0
    9.0160   -5.2130   26.0720 N   0  0  0  0  0  0  0  0  0  0  0  0
    6.8950   -2.7250   23.2700 C   0  0  0  0  0  0  0  0  0  0  0  0
    7.6230   -3.2390   22.2120 C   0  0  0  0  0  0  0  0  0  0  0  0
  1  2  1  0
  2  3  2  0
  2  4  1  0
  4  5  1  0
  5  6  1  0
  6  7  1  0
  7  8  1  0
  8  9  2  0
  8 10  1  0
 10 11  1  0
 11 12  1  0
 12 13  2  0
 13 14  1  0
 14 15  2  0
 15 16  1  0
 16 17  2  0
 17 18  1  0
 14 19  1  0
 18 19  2  0
 19 20  1  0
 20 21  2  0
 12 22  1  0
 20 22  1  0
  7 23  1  0
  4 24  1  0
 23 24  1  0
M  END
