piperidine-amides-32740-covalent
     RDKit          3D

 29 31  0  0  0  0  0  0  0  0999 V2000
    7.0640   -3.3360   19.3110 C   0  0  0  0  0  0  0  0  0  0  0  0
    6.3880   -4.1950   20.3220 C   0  0  0  0  0  0  0  0  0  0  0  0
    5.3760   -4.8300   19.9800 O   0  0  0  0  0  0  0  0  0  0  0  0
    6.9390   -4.3090   21.6210 N   0  0  0  0  0  0  0  0  0  0  0  0
    6.6220   -5.4090   22.4870 C   0  0  0  0  0  0  0  0  0  0  0  0
    5.7320   -4.8370   23.6030 C   0  0  0  0  0  0  0  0  0  0  0  0
    6.4650   -3.7370   24.3280 C   0  0  0  0  0  0  0  0  0  0  0  0
    5.6270   -3.1380   25.4280 C   0  0  0  0  0  0  0  0  0  0  0  0
    4.4450   -2.9370   25.1000 O   0  0  0  0  0  0  0  0  0  0  0  0
    6.1230   -2.8380   26.7600 N   0  0  0  0  0  0  0  0  0  0  0  0
    6.1530   -3.7710   27.8700 C   0  0  0  0  0  0  0  0  0  0  0  0
    5.2650   -3.7150   28.9270 C   0  0  0  0  0  0  0  0  0  0  0  0
    4.8220   -2.5250   29.5120 C   0  0  0  0  0  0  0  0  0  0  0  0
    3.9310   -2.5470   30.5660 C   0  0  0  0  0  0  0  0  0  0  0  0
    3.4260   -3.8460   31.0970 C   0  0  0  0  0  0  0  0  0  0  0  0
    2.5710   -3.8020   32.1150 O   0  0  0  0  0  0  0  0  0  0  0  0
    2.7410   -3.9660   33.4490 C   0  0  0  0  0  0  0  0  0  0  0  0
    3.8800   -4.9790   30.5020 C   0  0  0  0  0  0  0  0  0  0  0  0
    4.7650   -4.8660   29.4610 C   0  0  0  0  0  0  0  0  0  0  0  0
    5.3180   -5.9060   28.7580 O   0  0  0  0  0  0  0  0  0  0  0  0
    6.1980   -6.8560   29.2820 C   0  0  0  0  0  0  0  0  0  0  0  0
    6.5240   -1.4240   26.9700 C   0  0  0  0  0  0  0  0  0  0  0  0
    6.2280   -0.7940   26.1280 C   0  0  0  0  0  0  0  0  0  0  0  0
    5.6850   -1.5450   25.4030 N   0  0  0  0  0  0  0  0  0  0  0  0
    6.1890   -2.3260   26.7360 N   0  0  0  0  0  0  0  0  0  0  0  0
    5.8660   -3.6410   26.7320 C   0  0  0  0  0  0  0  0  0  0  0  0
    6.9860   -1.5130   27.9080 C   0  0  0  0  0  0  0  0  0  0  0  0
    6.8970   -2.6310   23.3900 C   0  0  0  0  0  0  0  0  0  0  0  0
    7.6260   -3.1640   22.2110 C   0  0  0  0  0  0  0  0  0  0  0  0
  1  2  1  0
  2  3  2  0
  2  4  1  0
  4  5  1  0
  5  6  1  0
  6  7  1  0
  7  8  1  0
  8  9  2  0
  8 10  1  0
 10 11  1  0
 11 12  1  0
 12 13  2  0
 13 14  1  0
 14 15  2  0
 15 16  1  0
 16 17  1  0
 15 18  1  0
 12 19  1  0
 18 19  2  0
 19 20  1  0
 20 21  1  0
 10 22  1  0
 22 23  1  0
 23 24  2  0
 24 25  1  0
 25 26  1  0
 22 27  2  0
 25 27  1  0
  7 28  1  0
  4 29  1  0
 28 29  1  0
M  END
