piperidine-amides-18914-covalent
     RDKit          3D

 21 22  0  0  0  0  0  0  0  0999 V2000
    7.0110   -3.3980   19.3440 C   0  0  0  0  0  0  0  0  0  0  0  0
    6.3610   -4.1720   20.3790 C   0  0  0  0  0  0  0  0  0  0  0  0
    5.4000   -4.9160   20.0070 O   0  0  0  0  0  0  0  0  0  0  0  0
    6.7720   -4.1710   21.7360 N   0  0  0  0  0  0  0  0  0  0  0  0
    6.7270   -5.5020   22.4060 C   0  0  0  0  0  0  0  0  0  0  0  0
    5.9620   -5.1980   23.7590 C   0  0  0  0  0  0  0  0  0  0  0  0
    6.0220   -3.7040   23.9760 C   0  0  0  0  0  0  0  0  0  0  0  0
    4.8790   -3.2290   25.0180 C   0  0  0  0  0  0  0  0  0  0  0  0
    3.8350   -3.1120   24.4140 O   0  0  0  0  0  0  0  0  0  0  0  0
    5.2950   -3.0850   26.2150 N   0  0  0  0  0  0  0  0  0  0  0  0
    5.4910   -2.5880   27.4730 C   0  0  0  0  0  0  0  0  0  0  0  0
    5.1750   -2.9510   28.7520 C   0  0  0  0  0  0  0  0  0  0  0  0
    6.2520   -3.5190   29.4180 O   0  0  0  0  0  0  0  0  0  0  0  0
    6.4370   -4.8320   29.0830 C   0  0  0  0  0  0  0  0  0  0  0  0
    5.7390   -4.7940   27.8100 C   0  0  1  0  0  0  0  0  0  0  0  0
    6.2620   -6.2290   27.6480 C   0  0  0  0  0  0  0  0  0  0  0  0
    4.9020   -6.0960   27.8880 C   0  0  0  0  0  0  0  0  0  0  0  0
    3.7700   -5.9760   27.0540 O   0  0  0  0  0  0  0  0  0  0  0  0
    6.1790   -4.0800   26.5690 C   0  0  0  0  0  0  0  0  0  0  0  0
    7.3050   -3.0860   23.8430 C   0  0  0  0  0  0  0  0  0  0  0  0
    7.6210   -3.1850   22.3140 C   0  0  0  0  0  0  0  0  0  0  0  0
  1  2  1  0
  2  3  2  0
  2  4  1  0
  4  5  1  0
  5  6  1  0
  6  7  1  0
  7  8  1  0
  8  9  2  0
  8 10  1  0
 10 11  1  0
 11 12  1  0
 12 13  1  0
 13 14  1  0
 14 15  1  0
 15 16  1  6
 15 17  1  0
 17 18  1  0
 10 19  1  0
 15 19  1  0
  7 20  1  0
  4 21  1  0
 20 21  1  0
M  END
