piperidine-amides-29964-covalent
     RDKit          3D

 27 29  0  0  0  0  0  0  0  0999 V2000
    7.0560   -3.3510   19.3750 C   0  0  0  0  0  0  0  0  0  0  0  0
    6.3830   -4.2330   20.3220 C   0  0  0  0  0  0  0  0  0  0  0  0
    5.3680   -4.8360   19.9790 O   0  0  0  0  0  0  0  0  0  0  0  0
    6.9340   -4.4460   21.6320 N   0  0  0  0  0  0  0  0  0  0  0  0
    7.6620   -3.4020   22.3050 C   0  0  0  0  0  0  0  0  0  0  0  0
    6.8370   -2.8210   23.4170 C   0  0  0  0  0  0  0  0  0  0  0  0
    6.3400   -3.9480   24.3140 C   0  0  0  0  0  0  0  0  0  0  0  0
    5.3200   -3.4080   25.2680 C   0  0  0  0  0  0  0  0  0  0  0  0
    4.4220   -2.6500   24.8780 O   0  0  0  0  0  0  0  0  0  0  0  0
    5.3370   -3.7390   26.6520 N   0  0  0  0  0  0  0  0  0  0  0  0
    6.4160   -3.2450   27.3720 C   0  0  0  0  0  0  0  0  0  0  0  0
    6.6870   -4.3470   28.3640 C   0  0  0  0  0  0  0  0  0  0  0  0
    5.6870   -4.5580   29.2360 C   0  0  0  0  0  0  0  0  0  0  0  0
    5.8720   -5.5500   29.9880 O   0  0  0  0  0  0  0  0  0  0  0  0
    4.8170   -6.1050   30.7460 C   0  0  0  0  0  0  0  0  0  0  0  0
    3.5290   -5.6040   30.8480 C   0  0  0  0  0  0  0  0  0  0  0  0
    2.4990   -6.2260   31.6460 C   0  0  0  0  0  0  0  0  0  0  0  0
    2.5510   -7.3450   32.4120 C   0  0  0  0  0  0  0  0  0  0  0  0
    1.5900   -7.9670   33.1850 C   0  0  0  0  0  0  0  0  0  0  0  0
    1.7890   -8.0290   34.5740 N   0  0  0  0  0  0  0  0  0  0  0  0
    3.9390   -7.9360   32.3400 C   0  0  0  0  0  0  0  0  0  0  0  0
    4.9710   -7.2690   31.5110 C   0  0  0  0  0  0  0  0  0  0  0  0
    6.1630   -7.9190   31.5530 F   0  0  0  0  0  0  0  0  0  0  0  0
    4.4450   -4.5420   28.6590 C   0  0  0  0  0  0  0  0  0  0  0  0
    4.1910   -3.7420   27.5320 C   0  0  0  0  0  0  0  0  0  0  0  0
    5.6750   -5.0600   23.5280 C   0  0  0  0  0  0  0  0  0  0  0  0
    6.5710   -5.5960   22.4060 C   0  0  0  0  0  0  0  0  0  0  0  0
  1  2  1  0
  2  3  2  0
  2  4  1  0
  4  5  1  0
  5  6  1  0
  6  7  1  0
  7  8  1  0
  8  9  2  0
  8 10  1  0
 10 11  1  0
 11 12  1  0
 12 13  1  0
 13 14  1  0
 14 15  1  0
 15 16  2  0
 16 17  1  0
 17 18  2  0
 18 19  1  0
 19 20  3  0
 18 21  1  0
 15 22  1  0
 21 22  2  0
 22 23  1  0
 13 24  1  0
 10 25  1  0
 24 25  1  0
  7 26  1  0
  4 27  1  0
 26 27  1  0
M  END
