piperidine-amides-24091-covalent
     RDKit          3D

 24 26  0  0  0  0  0  0  0  0999 V2000
    7.0750   -3.3720   19.3820 C   0  0  0  0  0  0  0  0  0  0  0  0
    6.4460   -4.2600   20.3710 C   0  0  0  0  0  0  0  0  0  0  0  0
    5.4070   -4.8580   19.9930 O   0  0  0  0  0  0  0  0  0  0  0  0
    7.0210   -4.4810   21.6630 N   0  0  0  0  0  0  0  0  0  0  0  0
    6.4980   -5.5150   22.4710 C   0  0  0  0  0  0  0  0  0  0  0  0
    5.9610   -5.0740   23.7670 C   0  0  0  0  0  0  0  0  0  0  0  0
    6.3690   -3.7450   24.3230 C   0  0  0  0  0  0  0  0  0  0  0  0
    5.2810   -3.1820   25.2150 C   0  0  0  0  0  0  0  0  0  0  0  0
    4.2520   -2.7630   24.6710 O   0  0  0  0  0  0  0  0  0  0  0  0
    5.3480   -3.0970   26.6320 N   0  0  0  0  0  0  0  0  0  0  0  0
    6.4440   -3.3750   27.3730 C   0  0  0  0  0  0  0  0  0  0  0  0
    6.3730   -4.6020   28.1670 C   0  0  0  0  0  0  0  0  0  0  0  0
    5.1990   -4.9200   28.7210 N   0  0  0  0  0  0  0  0  0  0  0  0
    5.0280   -5.9070   29.7550 C   0  0  0  0  0  0  0  0  0  0  0  0
    6.1410   -6.7290   29.7880 C   0  0  0  0  0  0  0  0  0  0  0  0
    5.9340   -7.7380   30.9050 C   0  0  0  0  0  0  0  0  0  0  0  0
    4.8060   -7.8110   31.7450 N   0  0  0  0  0  0  0  0  0  0  0  0
    3.7370   -7.0230   31.6950 C   0  0  0  0  0  0  0  0  0  0  0  0
    3.7910   -5.9360   30.6100 C   0  0  0  0  0  0  0  0  0  0  0  0
    2.7790   -5.0390   30.4310 F   0  0  0  0  0  0  0  0  0  0  0  0
    4.1720   -3.9850   28.5800 C   0  0  0  0  0  0  0  0  0  0  0  0
    4.2100   -2.9620   27.4480 C   0  0  0  0  0  0  0  0  0  0  0  0
    6.7220   -2.7080   23.2410 C   0  0  0  0  0  0  0  0  0  0  0  0
    7.6870   -3.3460   22.3090 C   0  0  0  0  0  0  0  0  0  0  0  0
  1  2  1  0
  2  3  2  0
  2  4  1  0
  4  5  1  0
  5  6  1  0
  6  7  1  0
  7  8  1  0
  8  9  2  0
  8 10  1  0
 10 11  1  0
 11 12  1  0
 12 13  1  0
 13 14  1  0
 14 15  2  0
 15 16  1  0
 16 17  2  0
 17 18  1  0
 14 19  1  0
 18 19  2  0
 19 20  1  0
 13 21  1  0
 10 22  1  0
 21 22  1  0
  7 23  1  0
  4 24  1  0
 23 24  1  0
M  END
