piperidine-amides-35574-covalent
     RDKit          3D

 38 43  0  0  0  0  0  0  0  0999 V2000
    7.1210   -3.2930   19.1660 C   0  0  0  0  0  0  0  0  0  0  0  0
    6.3850   -4.0700   20.1930 C   0  0  0  0  0  0  0  0  0  0  0  0
    5.3030   -4.5610   19.8840 O   0  0  0  0  0  0  0  0  0  0  0  0
    6.9710   -4.2600   21.4340 N   0  0  0  0  0  0  0  0  0  0  0  0
    6.8010   -5.5210   22.1190 C   0  0  0  0  0  0  0  0  0  0  0  0
    6.2340   -5.2620   23.4720 C   0  0  0  0  0  0  0  0  0  0  0  0
    6.1220   -3.7560   23.6590 C   0  0  0  0  0  0  0  0  0  0  0  0
    5.4910   -3.5430   24.9260 C   0  0  0  0  0  0  0  0  0  0  0  0
    4.4530   -2.8770   25.0220 O   0  0  0  0  0  0  0  0  0  0  0  0
    6.0660   -4.0920   26.0380 N   0  0  0  0  0  0  0  0  0  0  0  0
    5.4310   -5.2840   26.4670 C   0  0  0  0  0  0  0  0  0  0  0  0
    4.6700   -4.8650   27.6460 C   0  0  0  0  0  0  0  0  0  0  0  0
    5.7390   -4.4510   28.4840 N   0  0  0  0  0  0  0  0  0  0  0  0
    5.1290   -4.7680   29.7840 C   0  0  0  0  0  0  0  0  0  0  0  0
    4.1500   -4.1220   30.2660 O   0  0  0  0  0  0  0  0  0  0  0  0
    5.5910   -5.8270   30.5470 O   0  0  0  0  0  0  0  0  0  0  0  0
    4.9150   -7.0850   30.7290 C   0  0  0  0  0  0  0  0  0  0  0  0
    4.2090   -6.9520   31.9040 C   0  0  0  0  0  0  0  0  0  0  0  0
    4.6100   -7.7230   33.1530 C   0  0  0  0  0  0  0  0  0  0  0  0
    5.8600   -7.2930   33.8580 C   0  0  0  0  0  0  0  0  0  0  0  0
    6.2520   -8.0790   35.1150 C   0  0  0  0  0  0  0  0  0  0  0  0
    5.3050   -9.2010   35.4780 C   0  0  0  0  0  0  0  0  0  0  0  0
    4.0870   -9.5390   34.7040 C   0  0  0  0  0  0  0  0  0  0  0  0
    3.7070   -8.7760   33.4830 C   0  0  0  0  0  0  0  0  0  0  0  0
    2.6570   -8.7860   32.4920 C   0  0  0  0  0  0  0  0  0  0  0  0
    1.4810   -9.7560   32.4650 C   0  0  0  0  0  0  0  0  0  0  0  0
    0.5390   -9.6630   31.4450 C   0  0  0  0  0  0  0  0  0  0  0  0
    0.7140   -8.5980   30.3920 C   0  0  0  0  0  0  0  0  0  0  0  0
    1.8970   -7.6480   30.4530 C   0  0  0  0  0  0  0  0  0  0  0  0
    2.9050   -7.7660   31.5680 C   0  0  0  0  0  0  0  0  0  0  0  0
    6.1680   -3.0450   28.3010 C   0  0  0  0  0  0  0  0  0  0  0  0
    6.0070   -3.0870   29.7110 C   0  0  0  0  0  0  0  0  0  0  0  0
    6.4700   -1.6360   29.4620 C   0  0  0  0  0  0  0  0  0  0  0  0
    6.8230   -0.9550   28.0940 C   0  0  0  0  0  0  0  0  0  0  0  0
    6.7390   -1.6880   26.7800 C   0  0  0  0  0  0  0  0  0  0  0  0
    6.2980   -3.0860   26.9490 C   0  0  0  0  0  0  0  0  0  0  0  0
    7.5150   -3.2290   23.5530 C   0  0  0  0  0  0  0  0  0  0  0  0
    7.8110   -3.3140   22.0890 C   0  0  0  0  0  0  0  0  0  0  0  0
  1  2  1  0
  2  3  2  0
  2  4  1  0
  4  5  1  0
  5  6  1  0
  6  7  1  0
  7  8  1  0
  8  9  2  0
  8 10  1  0
 10 11  1  0
 11 12  1  0
 12 13  1  0
 13 14  1  0
 14 15  2  0
 14 16  1  0
 16 17  1  0
 17 18  1  0
 18 19  1  0
 19 20  2  0
 20 21  1  0
 21 22  2  0
 22 23  1  0
 19 24  1  0
 23 24  2  0
 24 25  1  0
 25 26  2  0
 26 27  1  0
 27 28  2  0
 28 29  1  0
 18 30  1  0
 25 30  1  0
 29 30  2  0
 13 31  1  0
 31 32  2  0
 32 33  1  0
 33 34  2  0
 34 35  1  0
 10 36  1  0
 31 36  1  0
 35 36  2  0
  7 37  1  0
  4 38  1  0
 37 38  1  0
M  END
