piperidine-amides-27033-covalent
     RDKit          3D

 21 23  0  0  0  0  0  0  0  0999 V2000
    7.1220   -3.3420   19.3380 C   0  0  0  0  0  0  0  0  0  0  0  0
    6.4190   -4.1750   20.3130 C   0  0  0  0  0  0  0  0  0  0  0  0
    5.3280   -4.6760   19.9370 O   0  0  0  0  0  0  0  0  0  0  0  0
    6.9890   -4.4390   21.5630 N   0  0  0  0  0  0  0  0  0  0  0  0
    6.6620   -5.6360   22.2820 C   0  0  0  0  0  0  0  0  0  0  0  0
    5.7360   -5.2350   23.3900 C   0  0  0  0  0  0  0  0  0  0  0  0
    6.2650   -4.0830   24.2070 C   0  0  0  0  0  0  0  0  0  0  0  0
    5.1800   -3.5880   25.0810 C   0  0  0  0  0  0  0  0  0  0  0  0
    4.0310   -3.5530   24.6180 O   0  0  0  0  0  0  0  0  0  0  0  0
    5.3640   -3.1480   26.3840 N   0  0  0  0  0  0  0  0  0  0  0  0
    6.5750   -2.7200   26.7800 C   0  0  0  0  0  0  0  0  0  0  0  0
    6.4430   -3.3210   28.1530 C   0  0  0  0  0  0  0  0  0  0  0  0
    5.5370   -4.3040   28.5390 C   0  0  0  0  0  0  0  0  0  0  0  0
    6.6590   -4.1850   28.8810 C   0  0  0  0  0  0  0  0  0  0  0  0
    6.1050   -2.9170   28.9050 C   0  0  0  0  0  0  0  0  0  0  0  0
    6.9540   -1.3460   29.6260 Br  0  0  0  0  0  0  0  0  0  0  0  0
    4.5700   -2.9490   28.5780 C   0  0  0  0  0  0  0  0  0  0  0  0
    3.6260   -3.7660   27.7690 N   0  0  0  0  0  0  0  0  0  0  0  0
    4.7210   -3.6800   27.5350 C   0  0  0  0  0  0  0  0  0  0  0  0
    6.7480   -2.9010   23.3560 C   0  0  0  0  0  0  0  0  0  0  0  0
    7.6880   -3.3990   22.2690 C   0  0  0  0  0  0  0  0  0  0  0  0
  1  2  1  0
  2  3  2  0
  2  4  1  0
  4  5  1  0
  5  6  1  0
  6  7  1  0
  7  8  1  0
  8  9  2  0
  8 10  1  0
 10 11  1  0
 11 12  1  0
 12 13  1  0
 13 14  1  0
 14 15  2  0
 15 16  1  0
 15 17  1  0
 17 18  2  0
 10 19  1  0
 13 19  2  0
 18 19  1  0
  7 20  1  0
  4 21  1  0
 20 21  1  0
M  END
