piperidine-amides-5301-covalent
     RDKit          3D

 21 22  0  0  0  0  0  0  0  0999 V2000
    7.0540   -3.3400   19.3270 C   0  0  0  0  0  0  0  0  0  0  0  0
    6.4020   -4.1910   20.3470 C   0  0  0  0  0  0  0  0  0  0  0  0
    5.3950   -4.8320   19.9790 O   0  0  0  0  0  0  0  0  0  0  0  0
    6.9350   -4.2950   21.6470 N   0  0  0  0  0  0  0  0  0  0  0  0
    6.6250   -5.4390   22.4410 C   0  0  0  0  0  0  0  0  0  0  0  0
    6.0750   -5.0810   23.7490 C   0  0  0  0  0  0  0  0  0  0  0  0
    6.1090   -3.6240   23.9930 C   0  0  0  0  0  0  0  0  0  0  0  0
    5.7030   -3.2750   25.3790 C   0  0  0  0  0  0  0  0  0  0  0  0
    4.5390   -3.5600   25.7050 O   0  0  0  0  0  0  0  0  0  0  0  0
    6.5650   -2.6320   26.2960 N   0  0  0  0  0  0  0  0  0  0  0  0
    6.0470   -1.6720   27.3130 C   0  0  1  0  0  0  0  0  0  0  0  0
    4.9490   -2.3520   28.0640 C   0  0  0  0  0  0  0  0  0  0  0  0
    3.6110   -1.8730   28.1510 N   0  0  0  0  0  0  0  0  0  0  0  0
    5.0630   -3.4260   28.7280 O   0  0  0  0  0  0  0  0  0  0  0  0
    7.0900   -1.3840   28.3090 C   0  0  0  0  0  0  0  0  0  0  0  0
    6.8260   -0.4070   29.2270 C   0  0  0  0  0  0  0  0  0  0  0  0
    6.2140    0.7410   28.7740 C   0  0  0  0  0  0  0  0  0  0  0  0
    5.4250    0.6690   27.6120 O   0  0  0  0  0  0  0  0  0  0  0  0
    5.6890   -0.4000   26.7040 C   0  0  0  0  0  0  0  0  0  0  0  0
    7.3580   -2.9360   23.5480 C   0  0  0  0  0  0  0  0  0  0  0  0
    7.7350   -3.2650   22.2720 C   0  0  0  0  0  0  0  0  0  0  0  0
  1  2  1  0
  2  3  2  0
  2  4  1  0
  4  5  1  0
  5  6  1  0
  6  7  1  0
  7  8  1  0
  8  9  2  0
  8 10  1  0
 11 10  1  6
 11 12  1  0
 12 13  1  0
 12 14  2  0
 11 15  1  0
 15 16  1  0
 16 17  1  0
 17 18  1  0
 11 19  1  0
 18 19  1  0
  7 20  1  0
  4 21  1  0
 20 21  1  0
M  END
