piperidine-amides-9212-covalent
     RDKit          3D

 20 20  0  0  0  0  0  0  0  0999 V2000
    7.1670   -3.2670   19.1680 C   0  0  0  0  0  0  0  0  0  0  0  0
    6.3430   -3.9330   20.1730 C   0  0  0  0  0  0  0  0  0  0  0  0
    5.2590   -4.4400   19.8440 O   0  0  0  0  0  0  0  0  0  0  0  0
    6.7930   -4.0620   21.4880 N   0  0  0  0  0  0  0  0  0  0  0  0
    7.6660   -3.1110   22.1330 C   0  0  0  0  0  0  0  0  0  0  0  0
    6.9480   -2.6780   23.3840 C   0  0  0  0  0  0  0  0  0  0  0  0
    6.5420   -3.8500   24.2300 C   0  0  0  0  0  0  0  0  0  0  0  0
    5.7150   -3.4400   25.4000 C   0  0  0  0  0  0  0  0  0  0  0  0
    4.7130   -2.6860   25.2240 O   0  0  0  0  0  0  0  0  0  0  0  0
    5.9690   -3.8360   26.7410 N   0  0  0  0  0  0  0  0  0  0  0  0
    5.8970   -5.2660   27.1670 C   0  0  1  0  0  0  0  0  0  0  0  0
    6.5370   -5.4170   28.4920 C   0  0  0  0  0  0  0  0  0  0  0  0
    5.5900   -5.6930   29.5890 C   0  0  0  0  0  0  0  0  0  0  0  0
    4.8510   -4.7070   29.7590 O   0  0  0  0  0  0  0  0  0  0  0  0
    4.5270   -5.8330   27.3920 C   0  0  0  0  0  0  0  0  0  0  0  0
    3.7920   -6.0000   26.0720 C   0  0  0  0  0  0  0  0  0  0  0  0
    2.8360   -7.1060   26.3320 C   0  0  0  0  0  0  0  0  0  0  0  0
    4.5480   -6.5090   24.8460 C   0  0  0  0  0  0  0  0  0  0  0  0
    5.7810   -4.8860   23.4390 C   0  0  0  0  0  0  0  0  0  0  0  0
    6.5450   -5.2830   22.2060 C   0  0  0  0  0  0  0  0  0  0  0  0
  1  2  1  0
  2  3  2  0
  2  4  1  0
  4  5  1  0
  5  6  1  0
  6  7  1  0
  7  8  1  0
  8  9  2  0
  8 10  1  0
 10 11  1  0
 11 12  1  1
 12 13  1  0
 13 14  1  0
 11 15  1  0
 15 16  1  0
 16 17  1  0
 16 18  1  0
  7 19  1  0
  4 20  1  0
 19 20  1  0
M  END
