piperidine-amides-27341-covalent
     RDKit          3D

 25 26  0  0  0  0  0  0  0  0999 V2000
    7.0560   -3.3400   19.3250 C   0  0  0  0  0  0  0  0  0  0  0  0
    6.3730   -4.1860   20.3090 C   0  0  0  0  0  0  0  0  0  0  0  0
    5.3020   -4.7220   19.9350 O   0  0  0  0  0  0  0  0  0  0  0  0
    6.9250   -4.4200   21.5700 N   0  0  0  0  0  0  0  0  0  0  0  0
    6.5680   -5.5900   22.3400 C   0  0  0  0  0  0  0  0  0  0  0  0
    5.8570   -5.1240   23.5820 C   0  0  0  0  0  0  0  0  0  0  0  0
    6.6040   -4.0110   24.2710 C   0  0  0  0  0  0  0  0  0  0  0  0
    5.8990   -3.5910   25.5110 C   0  0  0  0  0  0  0  0  0  0  0  0
    4.7360   -3.1440   25.3710 O   0  0  0  0  0  0  0  0  0  0  0  0
    6.4200   -3.6550   26.8310 N   0  0  0  0  0  0  0  0  0  0  0  0
    5.5340   -3.7990   27.9360 C   0  0  0  0  0  0  0  0  0  0  0  0
    6.1950   -4.8980   28.7450 C   0  0  1  0  0  0  0  0  0  0  0  0
    5.5570   -6.1250   28.8620 C   0  0  0  0  0  0  0  0  0  0  0  0
    5.4730   -6.8240   30.0690 C   0  0  0  0  0  0  0  0  0  0  0  0
    4.8890   -7.9790   29.8570 O   0  0  0  0  0  0  0  0  0  0  0  0
    5.8700   -6.4750   31.3600 O   0  0  0  0  0  0  0  0  0  0  0  0
    5.3040   -7.0740   32.4970 C   0  0  0  0  0  0  0  0  0  0  0  0
    7.4780   -5.1320   28.1600 C   0  0  0  0  0  0  0  0  0  0  0  0
    7.7130   -4.1360   27.2060 C   0  0  1  0  0  0  0  0  0  0  0  0
    8.5700   -4.5830   26.0470 C   0  0  0  0  0  0  0  0  0  0  0  0
    8.8940   -5.9040   25.8520 O   0  0  0  0  0  0  0  0  0  0  0  0
    9.0730   -3.6540   25.1510 O   0  0  0  0  0  0  0  0  0  0  0  0
    8.7190   -2.2880   25.2070 C   0  0  0  0  0  0  0  0  0  0  0  0
    6.7800   -2.8220   23.3110 C   0  0  0  0  0  0  0  0  0  0  0  0
    7.6910   -3.3740   22.2360 C   0  0  0  0  0  0  0  0  0  0  0  0
  1  2  1  0
  2  3  2  0
  2  4  1  0
  4  5  1  0
  5  6  1  0
  6  7  1  0
  7  8  1  0
  8  9  2  0
  8 10  1  0
 10 11  1  0
 11 12  1  0
 12 13  1  6
 13 14  1  0
 14 15  2  0
 14 16  1  0
 16 17  1  0
 12 18  1  0
 10 19  1  0
 18 19  1  0
 19 20  1  6
 20 21  2  0
 20 22  1  0
 22 23  1  0
  7 24  1  0
  4 25  1  0
 24 25  1  0
M  END
