piperidine-amides-27846-covalent
     RDKit          3D

 26 29  0  0  0  0  0  0  0  0999 V2000
    7.0980   -3.3530   19.3190 C   0  0  0  0  0  0  0  0  0  0  0  0
    6.3530   -4.1670   20.2990 C   0  0  0  0  0  0  0  0  0  0  0  0
    5.2800   -4.6720   19.9200 O   0  0  0  0  0  0  0  0  0  0  0  0
    6.8910   -4.3840   21.5680 N   0  0  0  0  0  0  0  0  0  0  0  0
    6.5190   -5.5420   22.3220 C   0  0  0  0  0  0  0  0  0  0  0  0
    5.7920   -5.2140   23.5520 C   0  0  0  0  0  0  0  0  0  0  0  0
    5.9680   -3.8010   23.9300 C   0  0  0  0  0  0  0  0  0  0  0  0
    5.5250   -3.4920   25.3150 C   0  0  0  0  0  0  0  0  0  0  0  0
    4.4550   -2.8760   25.4300 O   0  0  0  0  0  0  0  0  0  0  0  0
    6.2290   -3.8560   26.4760 N   0  0  0  0  0  0  0  0  0  0  0  0
    7.0100   -5.1220   26.4880 C   0  0  0  0  0  0  0  0  0  0  0  0
    7.1490   -5.4730   27.8880 C   0  0  0  0  0  0  0  0  0  0  0  0
    6.3810   -4.5210   28.6200 C   0  0  0  0  0  0  0  0  0  0  0  0
    5.7110   -3.5920   27.8500 C   0  0  1  0  0  0  0  0  0  0  0  0
    5.7970   -2.2420   28.1380 C   0  0  0  0  0  0  0  0  0  0  0  0
    6.2500   -1.3560   27.1900 C   0  0  0  0  0  0  0  0  0  0  0  0
    6.3360   -0.0090   27.4630 C   0  0  0  0  0  0  0  0  0  0  0  0
    5.9870    0.5190   28.6770 C   0  0  0  0  0  0  0  0  0  0  0  0
    5.5340   -0.3340   29.6410 C   0  0  0  0  0  0  0  0  0  0  0  0
    5.4320   -1.7670   29.3680 C   0  0  0  0  0  0  0  0  0  0  0  0
    5.1980    0.0460   30.7560 O   0  0  0  0  0  0  0  0  0  0  0  0
    5.4880    1.3370   31.2210 C   0  0  0  0  0  0  0  0  0  0  0  0
    5.5450    2.3930   30.1390 C   0  0  0  0  0  0  0  0  0  0  0  0
    6.1050    1.8640   28.8770 O   0  0  0  0  0  0  0  0  0  0  0  0
    7.2930   -3.2950   23.6510 C   0  0  0  0  0  0  0  0  0  0  0  0
    7.6890   -3.3480   22.2050 C   0  0  0  0  0  0  0  0  0  0  0  0
  1  2  1  0
  2  3  2  0
  2  4  1  0
  4  5  1  0
  5  6  1  0
  6  7  1  0
  7  8  1  0
  8  9  2  0
  8 10  1  0
 10 11  1  0
 11 12  1  0
 12 13  1  0
 10 14  1  0
 13 14  1  0
 14 15  1  1
 15 16  2  0
 16 17  1  0
 17 18  2  0
 18 19  1  0
 15 20  1  0
 19 20  2  0
 19 21  1  0
 21 22  1  0
 22 23  1  0
 18 24  1  0
 23 24  1  0
  7 25  1  0
  4 26  1  0
 25 26  1  0
M  END
