piperidine-amides-25051-covalent
     RDKit          3D

 24 26  0  0  0  0  0  0  0  0999 V2000
    7.0150   -3.3700   19.4650 C   0  0  0  0  0  0  0  0  0  0  0  0
    6.3250   -4.2410   20.4550 C   0  0  0  0  0  0  0  0  0  0  0  0
    5.4140   -4.9400   20.0040 O   0  0  0  0  0  0  0  0  0  0  0  0
    6.7110   -4.2860   21.8110 N   0  0  0  0  0  0  0  0  0  0  0  0
    6.4230   -5.4430   22.6180 C   0  0  0  0  0  0  0  0  0  0  0  0
    6.2110   -5.0070   24.0540 C   0  0  0  0  0  0  0  0  0  0  0  0
    5.8020   -3.5240   24.1190 C   0  0  0  0  0  0  0  0  0  0  0  0
    5.2330   -3.1310   25.4780 C   0  0  0  0  0  0  0  0  0  0  0  0
    4.0150   -2.9410   25.5270 O   0  0  0  0  0  0  0  0  0  0  0  0
    5.9670   -2.9700   26.7070 N   0  0  0  0  0  0  0  0  0  0  0  0
    5.2620   -2.7200   27.9350 C   0  0  0  0  0  0  0  0  0  0  0  0
    5.0190   -4.0640   28.5740 C   0  0  0  0  0  0  0  0  0  0  0  0
    5.9650   -5.0300   28.5560 C   0  0  0  0  0  0  0  0  0  0  0  0
    6.9250   -4.8870   27.6310 C   0  0  0  0  0  0  0  0  0  0  0  0
    7.8510   -5.8210   27.6320 C   0  0  0  0  0  0  0  0  0  0  0  0
    8.9950   -5.8570   26.6880 C   0  0  0  0  0  0  0  0  0  0  0  0
    9.9410   -6.8040   26.6310 F   0  0  0  0  0  0  0  0  0  0  0  0
    9.0190   -4.7080   25.7560 C   0  0  0  0  0  0  0  0  0  0  0  0
   10.0030   -4.5980   24.8850 F   0  0  0  0  0  0  0  0  0  0  0  0
    8.0320   -3.6530   25.7050 C   0  0  0  0  0  0  0  0  0  0  0  0
    8.1380   -2.6010   24.7650 F   0  0  0  0  0  0  0  0  0  0  0  0
    7.0260   -3.8820   26.6920 C   0  0  0  0  0  0  0  0  0  0  0  0
    6.8140   -2.5710   23.5090 C   0  0  0  0  0  0  0  0  0  0  0  0
    7.5850   -3.2770   22.3850 C   0  0  0  0  0  0  0  0  0  0  0  0
  1  2  1  0
  2  3  2  0
  2  4  1  0
  4  5  1  0
  5  6  1  0
  6  7  1  0
  7  8  1  0
  8  9  2  0
  8 10  1  0
 10 11  1  0
 11 12  1  0
 12 13  1  0
 13 14  1  0
 14 15  2  0
 15 16  1  0
 16 17  1  0
 16 18  2  0
 18 19  1  0
 18 20  1  0
 20 21  1  0
 10 22  1  0
 14 22  1  0
 20 22  2  0
  7 23  1  0
  4 24  1  0
 23 24  1  0
M  END
