piperidine-amides-24063-covalent
     RDKit          3D

 24 26  0  0  0  0  0  0  0  0999 V2000
    7.0770   -3.3560   19.2820 C   0  0  0  0  0  0  0  0  0  0  0  0
    6.3920   -4.1840   20.2880 C   0  0  0  0  0  0  0  0  0  0  0  0
    5.3180   -4.7260   19.9430 O   0  0  0  0  0  0  0  0  0  0  0  0
    6.9680   -4.4020   21.5570 N   0  0  0  0  0  0  0  0  0  0  0  0
    6.5210   -5.5270   22.3080 C   0  0  0  0  0  0  0  0  0  0  0  0
    5.8660   -5.1510   23.5530 C   0  0  0  0  0  0  0  0  0  0  0  0
    5.9630   -3.7100   23.8590 C   0  0  0  0  0  0  0  0  0  0  0  0
    5.4020   -3.3320   25.1910 C   0  0  0  0  0  0  0  0  0  0  0  0
    4.3500   -2.6790   25.2270 O   0  0  0  0  0  0  0  0  0  0  0  0
    5.9980   -3.6880   26.4030 N   0  0  0  0  0  0  0  0  0  0  0  0
    6.9480   -4.6800   26.5790 C   0  0  0  0  0  0  0  0  0  0  0  0
    7.8780   -5.5270   25.9070 C   0  0  0  0  0  0  0  0  0  0  0  0
    8.5900   -6.3650   26.7220 N   0  0  0  0  0  0  0  0  0  0  0  0
    8.1670   -6.1340   28.0000 N   0  0  0  0  0  0  0  0  0  0  0  0
    7.2410   -5.1730   27.8740 C   0  0  0  0  0  0  0  0  0  0  0  0
    6.6590   -4.7380   29.0220 C   0  0  0  0  0  0  0  0  0  0  0  0
    5.2330   -4.8650   28.4800 C   0  0  0  0  0  0  0  0  0  0  0  0
    5.2400   -3.5990   27.6390 C   0  0  1  0  0  0  0  0  0  0  0  0
    5.8130   -2.7030   28.7580 C   0  0  0  0  0  0  0  0  0  0  0  0
    7.0670   -2.0970   28.7280 O   0  0  0  0  0  0  0  0  0  0  0  0
    5.1570   -2.4270   29.7940 O   0  0  0  0  0  0  0  0  0  0  0  0
    3.7600   -2.0900   29.7250 C   0  0  0  0  0  0  0  0  0  0  0  0
    7.3610   -3.2310   23.6470 C   0  0  0  0  0  0  0  0  0  0  0  0
    7.6600   -3.2930   22.1550 C   0  0  0  0  0  0  0  0  0  0  0  0
  1  2  1  0
  2  3  2  0
  2  4  1  0
  4  5  1  0
  5  6  1  0
  6  7  1  0
  7  8  1  0
  8  9  2  0
  8 10  1  0
 10 11  1  0
 11 12  1  0
 12 13  2  0
 13 14  1  0
 11 15  2  0
 14 15  1  0
 15 16  1  0
 16 17  1  0
 10 18  1  0
 17 18  1  0
 18 19  1  1
 19 20  2  0
 19 21  1  0
 21 22  1  0
  7 23  1  0
  4 24  1  0
 23 24  1  0
M  END
