piperidine-amides-17083-covalent
     RDKit          3D

 20 22  0  0  0  0  0  0  0  0999 V2000
    7.1850   -3.3450   19.2010 C   0  0  0  0  0  0  0  0  0  0  0  0
    6.4440   -4.0800   20.2260 C   0  0  0  0  0  0  0  0  0  0  0  0
    5.3330   -4.5680   19.9060 O   0  0  0  0  0  0  0  0  0  0  0  0
    7.0420   -4.2750   21.4870 N   0  0  0  0  0  0  0  0  0  0  0  0
    6.6630   -5.4080   22.2570 C   0  0  0  0  0  0  0  0  0  0  0  0
    6.1470   -5.0130   23.5500 C   0  0  0  0  0  0  0  0  0  0  0  0
    6.2150   -3.5530   23.7370 C   0  0  0  0  0  0  0  0  0  0  0  0
    5.6660   -3.1540   25.0390 C   0  0  0  0  0  0  0  0  0  0  0  0
    5.1300   -2.0480   25.1970 O   0  0  0  0  0  0  0  0  0  0  0  0
    5.7210   -4.0340   26.0840 N   0  0  0  0  0  0  0  0  0  0  0  0
    4.9280   -5.1630   26.1460 C   0  0  0  0  0  0  0  0  0  0  0  0
    4.7810   -5.8120   27.3970 C   0  0  2  0  0  0  0  0  0  0  0  0
    4.1620   -4.7750   28.2800 C   0  0  0  0  0  0  0  0  0  0  0  0
    5.0010   -4.5850   29.3320 C   0  0  0  0  0  0  0  0  0  0  0  0
    6.2620   -4.5390   28.4230 C   0  0  1  0  0  0  0  0  0  0  0  0
    7.3520   -4.1930   29.0980 F   0  0  0  0  0  0  0  0  0  0  0  0
    6.0580   -5.9520   28.0650 C   0  0  0  0  0  0  0  0  0  0  0  0
    6.0440   -3.4830   27.3280 C   0  0  0  0  0  0  0  0  0  0  0  0
    7.5830   -3.0020   23.5070 C   0  0  0  0  0  0  0  0  0  0  0  0
    7.8830   -3.2230   22.0510 C   0  0  0  0  0  0  0  0  0  0  0  0
  1  2  1  0
  2  3  2  0
  2  4  1  0
  4  5  1  0
  5  6  1  0
  6  7  1  0
  7  8  1  0
  8  9  2  0
  8 10  1  0
 10 11  1  0
 12 11  1  6
 12 13  1  0
 13 14  1  0
 14 15  1  0
 15 16  1  1
 12 17  1  0
 15 17  1  0
 10 18  1  0
 15 18  1  0
  7 19  1  0
  4 20  1  0
 19 20  1  0
M  END
