piperidine-amides-21766-covalent
     RDKit          3D

 23 25  0  0  0  0  0  0  0  0999 V2000
    7.0670   -3.3560   19.3690 C   0  0  0  0  0  0  0  0  0  0  0  0
    6.4200   -4.2190   20.3620 C   0  0  0  0  0  0  0  0  0  0  0  0
    5.3760   -4.8140   19.9780 O   0  0  0  0  0  0  0  0  0  0  0  0
    6.9760   -4.3980   21.6390 N   0  0  0  0  0  0  0  0  0  0  0  0
    6.7220   -5.5900   22.4270 C   0  0  0  0  0  0  0  0  0  0  0  0
    6.2040   -5.1900   23.7880 C   0  0  0  0  0  0  0  0  0  0  0  0
    6.1420   -3.6930   23.9280 C   0  0  0  0  0  0  0  0  0  0  0  0
    5.6550   -3.2640   25.2610 C   0  0  0  0  0  0  0  0  0  0  0  0
    4.8580   -2.3050   25.2790 O   0  0  0  0  0  0  0  0  0  0  0  0
    5.9730   -3.8420   26.4990 N   0  0  0  0  0  0  0  0  0  0  0  0
    6.3370   -2.9420   27.5490 C   0  0  0  0  0  0  0  0  0  0  0  0
    6.5910   -3.6620   28.8660 C   0  0  0  0  0  0  0  0  0  0  0  0
    5.6720   -4.7940   28.9980 N   0  0  0  0  0  0  0  0  0  0  0  0
    4.5870   -4.7760   29.7520 C   0  0  0  0  0  0  0  0  0  0  0  0
    4.4920   -5.7240   30.7570 C   0  0  0  0  0  0  0  0  0  0  0  0
    3.5160   -5.7230   31.7440 N   0  0  0  0  0  0  0  0  0  0  0  0
    3.8280   -6.8560   32.5290 C   0  0  0  0  0  0  0  0  0  0  0  0
    4.9110   -7.4910   32.0460 C   0  0  0  0  0  0  0  0  0  0  0  0
    5.3130   -6.8220   30.9900 N   0  0  0  0  0  0  0  0  0  0  0  0
    5.6780   -5.7120   28.0510 C   0  0  0  0  0  0  0  0  0  0  0  0
    5.2160   -4.9830   26.8240 C   0  0  0  0  0  0  0  0  0  0  0  0
    7.4550   -3.0810   23.6320 C   0  0  0  0  0  0  0  0  0  0  0  0
    7.7500   -3.2610   22.1720 C   0  0  0  0  0  0  0  0  0  0  0  0
  1  2  1  0
  2  3  2  0
  2  4  1  0
  4  5  1  0
  5  6  1  0
  6  7  1  0
  7  8  1  0
  8  9  2  0
  8 10  1  0
 10 11  1  0
 11 12  1  0
 12 13  1  0
 13 14  1  0
 14 15  1  0
 15 16  2  0
 16 17  1  0
 17 18  2  0
 15 19  1  0
 18 19  1  0
 13 20  1  0
 10 21  1  0
 20 21  1  0
  7 22  1  0
  4 23  1  0
 22 23  1  0
M  END
