piperidine-amides-31426-covalent
     RDKit          3D

 28 30  0  0  0  0  0  0  0  0999 V2000
    7.0860   -3.3200   19.1900 C   0  0  0  0  0  0  0  0  0  0  0  0
    6.3400   -4.0080   20.2230 C   0  0  0  0  0  0  0  0  0  0  0  0
    5.2590   -4.5730   19.8900 O   0  0  0  0  0  0  0  0  0  0  0  0
    6.7810   -4.1250   21.5520 N   0  0  0  0  0  0  0  0  0  0  0  0
    6.6690   -5.4740   22.1580 C   0  0  0  0  0  0  0  0  0  0  0  0
    5.7510   -5.1770   23.4060 C   0  0  0  0  0  0  0  0  0  0  0  0
    6.1500   -3.8060   23.9050 C   0  0  0  0  0  0  0  0  0  0  0  0
    5.7190   -3.5960   25.4180 C   0  0  0  0  0  0  0  0  0  0  0  0
    4.7820   -4.3190   25.7220 O   0  0  0  0  0  0  0  0  0  0  0  0
    6.4680   -2.6970   25.8960 N   0  0  0  0  0  0  0  0  0  0  0  0
    6.8590   -1.4360   26.2020 C   0  0  0  0  0  0  0  0  0  0  0  0
    6.2830   -0.1840   26.0880 C   0  0  0  0  0  0  0  0  0  0  0  0
    6.3470    0.4160   24.7750 N   0  0  0  0  0  0  0  0  0  0  0  0
    5.7510    1.5940   24.8810 N   0  0  0  0  0  0  0  0  0  0  0  0
    5.3100    1.7950   26.1600 C   0  0  0  0  0  0  0  0  0  0  0  0
    4.5960    3.0360   26.5890 C   0  0  0  0  0  0  0  0  0  0  0  0
    4.2090    2.9930   28.1160 C   0  0  0  0  0  0  0  0  0  0  0  0
    4.6290    1.7840   28.7100 C   0  0  0  0  0  0  0  0  0  0  0  0
    5.2950    0.7070   28.1540 C   0  0  0  0  0  0  0  0  0  0  0  0
    5.6410    0.7080   26.8710 N   0  0  0  0  0  0  0  0  0  0  0  0
    7.6910   -3.2840   26.4240 C   0  0  0  0  0  0  0  0  0  0  0  0
    7.4430   -4.4650   27.4300 C   0  0  1  0  0  0  0  0  0  0  0  0
    8.4930   -5.2890   27.7670 C   0  0  0  0  0  0  0  0  0  0  0  0
    6.5850   -4.1980   28.6030 C   0  0  0  0  0  0  0  0  0  0  0  0
    6.3200   -2.8930   28.9290 C   0  0  0  0  0  0  0  0  0  0  0  0
    7.4560   -2.1020   28.9390 C   0  0  0  0  0  0  0  0  0  0  0  0
    7.5070   -3.2860   23.5870 C   0  0  0  0  0  0  0  0  0  0  0  0
    7.6580   -3.1290   22.1200 C   0  0  0  0  0  0  0  0  0  0  0  0
  1  2  1  0
  2  3  2  0
  2  4  1  0
  4  5  1  0
  5  6  1  0
  6  7  1  0
  7  8  1  0
  8  9  2  0
  8 10  1  0
 10 11  1  0
 11 12  1  0
 12 13  2  0
 13 14  1  0
 14 15  2  0
 15 16  1  0
 16 17  2  0
 17 18  1  0
 18 19  2  0
 12 20  1  0
 15 20  1  0
 19 20  1  0
 10 21  1  0
 21 22  1  0
 22 23  1  1
 22 24  1  0
 24 25  1  0
 25 26  1  0
  7 27  1  0
  4 28  1  0
 27 28  1  0
M  END
