piperidine-amides-3879-covalent
     RDKit          3D

 23 24  0  0  0  0  0  0  0  0999 V2000
    7.0900   -3.2140   19.1780 C   0  0  0  0  0  0  0  0  0  0  0  0
    6.2500   -3.8210   20.2210 C   0  0  0  0  0  0  0  0  0  0  0  0
    5.2370   -4.4410   19.8280 O   0  0  0  0  0  0  0  0  0  0  0  0
    6.5500   -3.7690   21.6040 N   0  0  0  0  0  0  0  0  0  0  0  0
    5.6590   -4.4900   22.4160 C   0  0  0  0  0  0  0  0  0  0  0  0
    4.8990   -3.7120   23.3770 C   0  0  0  0  0  0  0  0  0  0  0  0
    5.6930   -2.7400   24.1430 C   0  0  0  0  0  0  0  0  0  0  0  0
    5.4240   -2.8570   25.6480 C   0  0  0  0  0  0  0  0  0  0  0  0
    4.3040   -2.4780   26.0330 O   0  0  0  0  0  0  0  0  0  0  0  0
    6.3050   -3.3670   26.6590 N   0  0  0  0  0  0  0  0  0  0  0  0
    6.4720   -4.7450   26.9750 C   0  0  0  0  0  0  0  0  0  0  0  0
    5.3370   -5.5990   27.2360 C   0  0  0  0  0  0  0  0  0  0  0  0
    7.2740   -5.0380   28.2140 C   0  0  0  0  0  0  0  0  0  0  0  0
    6.9430   -5.3260   25.7250 C   0  0  0  0  0  0  0  0  0  0  0  0
    5.8880   -5.5280   24.6860 C   0  0  0  0  0  0  0  0  0  0  0  0
    6.8910   -6.0500   23.7810 C   0  0  0  0  0  0  0  0  0  0  0  0
    6.2550   -6.4600   22.4670 C   0  0  0  0  0  0  0  0  0  0  0  0
    4.9010   -6.4070   22.2410 F   0  0  0  0  0  0  0  0  0  0  0  0
    6.6880   -7.7590   22.4470 F   0  0  0  0  0  0  0  0  0  0  0  0
    8.2020   -6.1210   24.2220 O   0  0  0  0  0  0  0  0  0  0  0  0
    8.2640   -5.6760   25.4560 N   0  0  0  0  0  0  0  0  0  0  0  0
    7.1360   -2.6920   23.7150 C   0  0  0  0  0  0  0  0  0  0  0  0
    7.2740   -2.6470   22.1830 C   0  0  0  0  0  0  0  0  0  0  0  0
  1  2  1  0
  2  3  2  0
  2  4  1  0
  4  5  1  0
  5  6  1  0
  6  7  1  0
  7  8  1  0
  8  9  2  0
  8 10  1  0
 11 10  1  0
 11 12  1  0
 11 13  1  0
 11 14  1  0
 14 15  1  0
 15 16  2  0
 16 17  1  0
 17 18  1  0
 17 19  1  0
 16 20  1  0
 14 21  2  0
 20 21  1  0
  7 22  1  0
  4 23  1  0
 22 23  1  0
M  END
