piperidine-amides-32747-covalent
     RDKit          3D

 29 31  0  0  0  0  0  0  0  0999 V2000
    7.1170   -3.2580   19.2400 C   0  0  0  0  0  0  0  0  0  0  0  0
    6.3380   -4.0450   20.2350 C   0  0  0  0  0  0  0  0  0  0  0  0
    5.2630   -4.5500   19.8830 O   0  0  0  0  0  0  0  0  0  0  0  0
    6.8570   -4.2580   21.5300 N   0  0  0  0  0  0  0  0  0  0  0  0
    6.4960   -5.4370   22.2630 C   0  0  0  0  0  0  0  0  0  0  0  0
    5.6370   -4.9350   23.4290 C   0  0  0  0  0  0  0  0  0  0  0  0
    6.4700   -3.9700   24.2010 C   0  0  0  0  0  0  0  0  0  0  0  0
    5.7170   -3.3740   25.3380 C   0  0  0  0  0  0  0  0  0  0  0  0
    4.5090   -3.1910   25.1440 O   0  0  0  0  0  0  0  0  0  0  0  0
    6.3390   -3.0370   26.5480 N   0  0  0  0  0  0  0  0  0  0  0  0
    6.7630   -1.7100   26.8260 C   0  0  0  0  0  0  0  0  0  0  0  0
    6.1860   -3.8860   27.6970 C   0  0  0  0  0  0  0  0  0  0  0  0
    5.9220   -5.2580   27.5190 C   0  0  0  0  0  0  0  0  0  0  0  0
    4.6470   -5.7220   27.7440 C   0  0  0  0  0  0  0  0  0  0  0  0
    4.3180   -6.4320   29.0050 C   0  0  0  0  0  0  0  0  0  0  0  0
    3.0160   -6.9850   29.5450 C   0  0  0  0  0  0  0  0  0  0  0  0
    3.4980   -7.5340   30.8230 C   0  0  0  0  0  0  0  0  0  0  0  0
    2.7820   -8.1920   31.8070 C   0  0  0  0  0  0  0  0  0  0  0  0
    3.1140   -8.1270   33.2390 C   0  0  0  0  0  0  0  0  0  0  0  0
    2.1420   -8.9710   34.1050 C   0  0  0  0  0  0  0  0  0  0  0  0
    1.0090   -9.8040   33.9670 C   0  0  0  0  0  0  0  0  0  0  0  0
    0.8880   -9.6910   32.4250 C   0  0  0  0  0  0  0  0  0  0  0  0
   -0.1460  -10.3990   31.9280 F   0  0  0  0  0  0  0  0  0  0  0  0
    1.7280   -8.9350   31.4700 C   0  0  0  0  0  0  0  0  0  0  0  0
    4.8150   -7.3370   30.9830 N   0  0  0  0  0  0  0  0  0  0  0  0
    5.5130   -7.7950   32.1550 C   0  0  0  0  0  0  0  0  0  0  0  0
    5.3410   -6.6720   29.9050 N   0  0  0  0  0  0  0  0  0  0  0  0
    6.9530   -2.7740   23.3970 C   0  0  0  0  0  0  0  0  0  0  0  0
    7.4910   -3.1620   22.1780 C   0  0  0  0  0  0  0  0  0  0  0  0
  1  2  1  0
  2  3  2  0
  2  4  1  0
  4  5  1  0
  5  6  1  0
  6  7  1  0
  7  8  1  0
  8  9  2  0
  8 10  1  0
 10 11  1  0
 10 12  1  0
 12 13  1  0
 13 14  1  0
 14 15  1  0
 15 16  1  0
 16 17  2  0
 17 18  1  0
 18 19  2  0
 19 20  1  0
 20 21  2  0
 21 22  1  0
 22 23  1  0
 18 24  1  0
 22 24  2  0
 17 25  1  0
 25 26  1  0
 15 27  2  0
 25 27  1  0
  7 28  1  0
  4 29  1  0
 28 29  1  0
M  END
