piperidine-amides-34191-covalent
     RDKit          3D

 30 32  0  0  0  0  0  0  0  0999 V2000
    7.1170   -3.3260   19.3510 C   0  0  0  0  0  0  0  0  0  0  0  0
    6.4480   -4.1970   20.3240 C   0  0  0  0  0  0  0  0  0  0  0  0
    5.4160   -4.8270   19.9870 O   0  0  0  0  0  0  0  0  0  0  0  0
    6.9850   -4.3780   21.6100 N   0  0  0  0  0  0  0  0  0  0  0  0
    6.5880   -5.5160   22.3790 C   0  0  0  0  0  0  0  0  0  0  0  0
    5.5610   -4.9790   23.3780 C   0  0  0  0  0  0  0  0  0  0  0  0
    6.2220   -3.8690   24.1910 C   0  0  0  0  0  0  0  0  0  0  0  0
    5.1830   -3.1920   25.0150 C   0  0  0  0  0  0  0  0  0  0  0  0
    4.2340   -2.6640   24.4170 O   0  0  0  0  0  0  0  0  0  0  0  0
    5.2520   -3.1300   26.4230 N   0  0  0  0  0  0  0  0  0  0  0  0
    6.4860   -3.1700   26.9280 C   0  0  0  0  0  0  0  0  0  0  0  0
    6.2120   -4.4230   27.7130 C   0  0  2  0  0  0  0  0  0  0  0  0
    5.8900   -5.5830   27.0730 C   0  0  0  0  0  0  0  0  0  0  0  0
    5.9160   -5.7980   25.8330 O   0  0  0  0  0  0  0  0  0  0  0  0
    5.5030   -6.5630   27.8720 O   0  0  0  0  0  0  0  0  0  0  0  0
    5.6830   -7.1880   29.0180 C   0  0  0  0  0  0  0  0  0  0  0  0
    5.0550   -4.1850   28.5270 C   0  0  0  0  0  0  0  0  0  0  0  0
    5.9490   -3.6720   29.3850 C   0  0  0  0  0  0  0  0  0  0  0  0
    5.1790   -2.8130   29.9350 N   0  0  0  0  0  0  0  0  0  0  0  0
    5.6980   -1.5740   29.9180 C   0  0  0  0  0  0  0  0  0  0  0  0
    4.8590   -0.4560   29.8580 O   0  0  0  0  0  0  0  0  0  0  0  0
    7.0460   -1.3010   29.9710 O   0  0  0  0  0  0  0  0  0  0  0  0
    7.2710   -0.0060   30.3380 C   0  0  0  0  0  0  0  0  0  0  0  0
    7.1120    0.3100   31.7920 C   0  0  0  0  0  0  0  0  0  0  0  0
    8.5410    0.2450   31.1390 C   0  0  0  0  0  0  0  0  0  0  0  0
    6.7180    1.1060   29.5810 C   0  0  0  0  0  0  0  0  0  0  0  0
    4.1800   -3.1170   28.9820 C   0  0  0  0  0  0  0  0  0  0  0  0
    4.4390   -3.9320   27.2720 C   0  0  0  0  0  0  0  0  0  0  0  0
    6.8700   -2.7740   23.3590 C   0  0  0  0  0  0  0  0  0  0  0  0
    7.7620   -3.3460   22.2540 C   0  0  0  0  0  0  0  0  0  0  0  0
  1  2  1  0
  2  3  2  0
  2  4  1  0
  4  5  1  0
  5  6  1  0
  6  7  1  0
  7  8  1  0
  8  9  2  0
  8 10  1  0
 10 11  1  0
 11 12  1  0
 12 13  1  6
 13 14  2  0
 13 15  1  0
 15 16  1  0
 12 17  1  0
 17 18  1  0
 18 19  1  0
 19 20  1  0
 20 21  2  0
 20 22  1  0
 23 22  1  0
 23 24  1  0
 23 25  1  0
 23 26  1  0
 17 27  1  0
 19 27  1  0
 10 28  1  0
 17 28  1  0
  7 29  1  0
  4 30  1  0
 29 30  1  0
M  END
