piperidine-amides-4608-covalent
     RDKit          3D

 24 25  0  0  0  0  0  0  0  0999 V2000
    7.1000   -3.2870   19.1900 C   0  0  0  0  0  0  0  0  0  0  0  0
    6.3590   -4.0300   20.2320 C   0  0  0  0  0  0  0  0  0  0  0  0
    5.2820   -4.5500   19.8850 O   0  0  0  0  0  0  0  0  0  0  0  0
    6.8880   -4.1690   21.5230 N   0  0  0  0  0  0  0  0  0  0  0  0
    7.5410   -3.0700   22.1440 C   0  0  0  0  0  0  0  0  0  0  0  0
    6.9140   -2.6740   23.4000 C   0  0  0  0  0  0  0  0  0  0  0  0
    6.5960   -3.8140   24.2810 C   0  0  0  0  0  0  0  0  0  0  0  0
    5.7920   -3.3580   25.4430 C   0  0  0  0  0  0  0  0  0  0  0  0
    4.8600   -2.5560   25.2370 O   0  0  0  0  0  0  0  0  0  0  0  0
    6.0690   -3.8240   26.7400 N   0  0  0  0  0  0  0  0  0  0  0  0
    6.4420   -5.2450   26.9560 C   0  0  1  0  0  0  0  0  0  0  0  0
    7.5080   -5.3460   27.9440 C   0  0  0  0  0  0  0  0  0  0  0  0
    8.7180   -6.0890   27.7340 C   0  0  0  0  0  0  0  0  0  0  0  0
    5.2840   -5.9280   27.4490 C   0  0  0  0  0  0  0  0  0  0  0  0
    4.5540   -5.5060   28.5550 C   0  0  0  0  0  0  0  0  0  0  0  0
    3.6390   -4.4970   28.3870 C   0  0  0  0  0  0  0  0  0  0  0  0
    2.8710   -4.0270   29.4330 C   0  0  0  0  0  0  0  0  0  0  0  0
    2.9680   -4.5300   30.7020 C   0  0  0  0  0  0  0  0  0  0  0  0
    2.2120   -4.0700   31.7480 F   0  0  0  0  0  0  0  0  0  0  0  0
    3.8800   -5.5490   30.9060 C   0  0  0  0  0  0  0  0  0  0  0  0
    4.7050   -6.0630   29.8090 C   0  0  0  0  0  0  0  0  0  0  0  0
    5.6120   -7.0980   30.0730 F   0  0  0  0  0  0  0  0  0  0  0  0
    5.8700   -4.9200   23.5820 C   0  0  0  0  0  0  0  0  0  0  0  0
    6.6060   -5.3350   22.3330 C   0  0  0  0  0  0  0  0  0  0  0  0
  1  2  1  0
  2  3  2  0
  2  4  1  0
  4  5  1  0
  5  6  1  0
  6  7  1  0
  7  8  1  0
  8  9  2  0
  8 10  1  0
 10 11  1  0
 11 12  1  1
 12 13  2  3
 11 14  1  0
 14 15  1  0
 15 16  2  0
 16 17  1  0
 17 18  2  0
 18 19  1  0
 18 20  1  0
 15 21  1  0
 20 21  2  0
 21 22  1  0
  7 23  1  0
  4 24  1  0
 23 24  1  0
M  END
