piperidine-amides-33737-covalent
     RDKit          3D

 30 32  0  0  0  0  0  0  0  0999 V2000
    7.0930   -3.2750   19.2720 C   0  0  0  0  0  0  0  0  0  0  0  0
    6.3870   -4.0700   20.2970 C   0  0  0  0  0  0  0  0  0  0  0  0
    5.3260   -4.6310   19.9220 O   0  0  0  0  0  0  0  0  0  0  0  0
    6.8890   -4.2520   21.6210 N   0  0  0  0  0  0  0  0  0  0  0  0
    7.6590   -3.2100   22.2300 C   0  0  0  0  0  0  0  0  0  0  0  0
    7.2600   -2.9250   23.6020 C   0  0  0  0  0  0  0  0  0  0  0  0
    6.0210   -3.6260   23.9690 C   0  0  0  0  0  0  0  0  0  0  0  0
    5.4660   -3.2800   25.3300 C   0  0  0  0  0  0  0  0  0  0  0  0
    4.2390   -3.1100   25.4190 O   0  0  0  0  0  0  0  0  0  0  0  0
    6.2350   -3.1250   26.5020 N   0  0  0  0  0  0  0  0  0  0  0  0
    6.6290   -1.8920   27.0790 C   0  0  0  0  0  0  0  0  0  0  0  0
    6.2120   -4.2540   27.4350 C   0  0  0  0  0  0  0  0  0  0  0  0
    5.0390   -4.4780   28.3670 C   0  0  0  0  0  0  0  0  0  0  0  0
    4.4380   -5.7200   28.2990 C   0  0  0  0  0  0  0  0  0  0  0  0
    4.8010   -6.0800   29.7470 C   0  0  0  0  0  0  0  0  0  0  0  0
    3.7280   -7.1170   29.7000 C   0  0  0  0  0  0  0  0  0  0  0  0
    4.1180   -7.4470   31.1490 C   0  0  0  0  0  0  0  0  0  0  0  0
    5.4330   -7.6400   31.8020 C   0  0  0  0  0  0  0  0  0  0  0  0
    5.0470   -7.9420   33.1970 C   0  0  0  0  0  0  0  0  0  0  0  0
    6.0480   -8.2430   34.3170 C   0  0  0  0  0  0  0  0  0  0  0  0
    6.2910   -9.6990   34.5140 C   0  0  0  0  0  0  0  0  0  0  0  0
    7.1840  -10.1240   35.4990 C   0  0  0  0  0  0  0  0  0  0  0  0
    7.8870   -9.2760   36.3320 C   0  0  0  0  0  0  0  0  0  0  0  0
    8.7570   -9.7520   37.2880 F   0  0  0  0  0  0  0  0  0  0  0  0
    7.6280   -7.8040   36.1160 C   0  0  0  0  0  0  0  0  0  0  0  0
    6.7390   -7.3930   35.1380 C   0  0  0  0  0  0  0  0  0  0  0  0
    3.6980   -7.9000   33.2470 N   0  0  0  0  0  0  0  0  0  0  0  0
    3.0940   -7.6110   32.0640 N   0  0  0  0  0  0  0  0  0  0  0  0
    6.2600   -5.1100   23.8100 C   0  0  0  0  0  0  0  0  0  0  0  0
    6.5570   -5.4570   22.3490 C   0  0  0  0  0  0  0  0  0  0  0  0
  1  2  1  0
  2  3  2  0
  2  4  1  0
  4  5  1  0
  5  6  1  0
  6  7  1  0
  7  8  1  0
  8  9  2  0
  8 10  1  0
 10 11  1  0
 10 12  1  0
 12 13  1  0
 13 14  1  0
 14 15  1  0
 15 16  1  0
 16 17  1  0
 17 18  2  0
 18 19  1  0
 19 20  1  0
 20 21  2  0
 21 22  1  0
 22 23  2  0
 23 24  1  0
 23 25  1  0
 20 26  1  0
 25 26  2  0
 19 27  2  0
 17 28  1  0
 27 28  1  0
  7 29  1  0
  4 30  1  0
 29 30  1  0
M  END
