piperidine-amides-7366-covalent
     RDKit          3D

 20 20  0  0  0  0  0  0  0  0999 V2000
    7.1720   -3.2810   19.1820 C   0  0  0  0  0  0  0  0  0  0  0  0
    6.3680   -3.9850   20.1780 C   0  0  0  0  0  0  0  0  0  0  0  0
    5.2420   -4.4120   19.8250 O   0  0  0  0  0  0  0  0  0  0  0  0
    6.9030   -4.2090   21.4390 N   0  0  0  0  0  0  0  0  0  0  0  0
    7.7330   -3.2190   22.0810 C   0  0  0  0  0  0  0  0  0  0  0  0
    6.9940   -2.7310   23.2820 C   0  0  0  0  0  0  0  0  0  0  0  0
    6.5360   -3.8850   24.1220 C   0  0  0  0  0  0  0  0  0  0  0  0
    5.7510   -3.3880   25.2510 C   0  0  0  0  0  0  0  0  0  0  0  0
    4.5580   -3.0650   25.0650 O   0  0  0  0  0  0  0  0  0  0  0  0
    6.2940   -3.2710   26.5230 N   0  0  0  0  0  0  0  0  0  0  0  0
    5.9490   -4.2260   27.5260 C   0  0  0  0  0  0  0  0  0  0  0  0
    6.3520   -3.7160   28.8810 C   0  0  0  0  0  0  0  0  0  0  0  0
    5.6370   -2.7560   29.5580 C   0  0  0  0  0  0  0  0  0  0  0  0
    5.0340   -1.7270   28.7890 O   0  0  0  0  0  0  0  0  0  0  0  0
    4.5370   -0.5920   29.3310 C   0  0  0  0  0  0  0  0  0  0  0  0
    5.4640    0.3060   29.8520 C   0  0  0  0  0  0  0  0  0  0  0  0
    6.6790   -0.1920   30.2960 C   0  0  0  0  0  0  0  0  0  0  0  0
    7.6840    0.6800   30.6450 C   0  0  0  0  0  0  0  0  0  0  0  0
    5.6790   -4.8800   23.3440 C   0  0  0  0  0  0  0  0  0  0  0  0
    6.5030   -5.3780   22.1670 C   0  0  0  0  0  0  0  0  0  0  0  0
  1  2  1  0
  2  3  2  0
  2  4  1  0
  4  5  1  0
  5  6  1  0
  6  7  1  0
  7  8  1  0
  8  9  2  0
  8 10  1  0
 10 11  1  0
 11 12  1  0
 12 13  1  0
 13 14  1  0
 14 15  1  0
 15 16  1  0
 16 17  1  0
 17 18  1  0
  7 19  1  0
  4 20  1  0
 19 20  1  0
M  END
