piperidine-amides-471-covalent
     RDKit          3D

 27 29  0  0  0  0  0  0  0  0999 V2000
    7.0870   -3.3210   19.1860 C   0  0  0  0  0  0  0  0  0  0  0  0
    6.3440   -3.9960   20.2260 C   0  0  0  0  0  0  0  0  0  0  0  0
    5.2570   -4.5560   19.8900 O   0  0  0  0  0  0  0  0  0  0  0  0
    6.7760   -4.1230   21.5670 N   0  0  0  0  0  0  0  0  0  0  0  0
    7.7700   -3.1550   22.0930 C   0  0  0  0  0  0  0  0  0  0  0  0
    6.9060   -2.5020   23.2180 C   0  0  0  0  0  0  0  0  0  0  0  0
    6.7500   -3.5970   24.2330 C   0  0  0  0  0  0  0  0  0  0  0  0
    5.5250   -3.3010   25.1870 C   0  0  0  0  0  0  0  0  0  0  0  0
    4.4670   -3.4410   24.5900 O   0  0  0  0  0  0  0  0  0  0  0  0
    5.9370   -2.9950   26.3470 N   0  0  0  0  0  0  0  0  0  0  0  0
    6.2440   -2.5980   27.6080 C   0  0  0  0  0  0  0  0  0  0  0  0
    5.6440   -2.2650   28.7890 C   0  0  1  0  0  0  0  0  0  0  0  0
    6.0460   -1.0130   29.3410 C   0  0  0  0  0  0  0  0  0  0  0  0
    5.0540   -0.2320   29.7940 N   0  0  0  0  0  0  0  0  0  0  0  0
    5.5190    0.9760   30.3170 C   0  0  0  0  0  0  0  0  0  0  0  0
    6.5210    0.6750   31.4500 C   0  0  0  0  0  0  0  0  0  0  0  0
    5.6750    0.3220   32.5050 C   0  0  0  0  0  0  0  0  0  0  0  0
    5.9280   -0.0800   33.8620 C   0  0  0  0  0  0  0  0  0  0  0  0
    7.4930   -0.0070   33.8190 C   0  0  0  0  0  0  0  0  0  0  0  0
    8.2960   -0.3790   35.1080 C   0  0  0  0  0  0  0  0  0  0  0  0
    8.3590    0.3810   32.6700 C   0  0  0  0  0  0  0  0  0  0  0  0
    7.8510    0.7200   31.4880 C   0  0  0  0  0  0  0  0  0  0  0  0
    4.2460   -1.0690   30.6010 C   0  0  0  0  0  0  0  0  0  0  0  0
    3.7230   -2.0550   29.7950 C   0  0  0  0  0  0  0  0  0  0  0  0
    4.2550   -2.1200   28.6420 O   0  0  0  0  0  0  0  0  0  0  0  0
    6.7590   -5.0250   23.7810 C   0  0  0  0  0  0  0  0  0  0  0  0
    6.3270   -5.2450   22.3580 C   0  0  0  0  0  0  0  0  0  0  0  0
  1  2  1  0
  2  3  2  0
  2  4  1  0
  4  5  1  0
  5  6  1  0
  6  7  1  0
  7  8  1  0
  8  9  2  0
  8 10  1  0
 10 11  1  0
 12 11  1  6
 12 13  1  0
 13 14  1  0
 14 15  1  0
 15 16  1  0
 16 17  2  0
 17 18  1  0
 18 19  2  0
 19 20  1  0
 19 21  1  0
 16 22  1  0
 21 22  2  0
 14 23  1  0
 23 24  1  0
 12 25  1  0
 24 25  1  0
  7 26  1  0
  4 27  1  0
 26 27  1  0
M  END
