piperidine-amides-24550-covalent
     RDKit          3D

 24 25  0  0  0  0  0  0  0  0999 V2000
    7.0650   -3.3300   19.3380 C   0  0  0  0  0  0  0  0  0  0  0  0
    6.3860   -4.2100   20.2960 C   0  0  0  0  0  0  0  0  0  0  0  0
    5.3470   -4.8180   19.9680 O   0  0  0  0  0  0  0  0  0  0  0  0
    6.9290   -4.4280   21.5640 N   0  0  0  0  0  0  0  0  0  0  0  0
    6.5180   -5.6050   22.2770 C   0  0  0  0  0  0  0  0  0  0  0  0
    5.6170   -5.0980   23.4040 C   0  0  0  0  0  0  0  0  0  0  0  0
    6.4660   -4.1590   24.2430 C   0  0  0  0  0  0  0  0  0  0  0  0
    5.6360   -3.6160   25.3450 C   0  0  0  0  0  0  0  0  0  0  0  0
    4.4500   -3.3060   25.1100 O   0  0  0  0  0  0  0  0  0  0  0  0
    6.2020   -3.4550   26.6290 N   0  0  0  0  0  0  0  0  0  0  0  0
    5.4260   -3.2840   27.8450 C   0  0  0  0  0  0  0  0  0  0  0  0
    5.2220   -4.6130   28.5340 C   0  0  0  0  0  0  0  0  0  0  0  0
    6.3230   -5.3520   28.7900 C   0  0  0  0  0  0  0  0  0  0  0  0
    7.4510   -4.8810   28.2230 C   0  0  0  0  0  0  0  0  0  0  0  0
    7.4220   -3.8510   27.2860 C   0  0  2  0  0  0  0  0  0  0  0  0
    7.8220   -2.5690   27.6460 C   0  0  0  0  0  0  0  0  0  0  0  0
    6.7990   -1.4760   27.9160 C   0  0  0  0  0  0  0  0  0  0  0  0
    7.6320   -1.2650   29.1590 C   0  0  0  0  0  0  0  0  0  0  0  0
    8.4130   -4.1400   26.4270 C   0  0  0  0  0  0  0  0  0  0  0  0
    8.6030   -3.5560   25.2770 O   0  0  0  0  0  0  0  0  0  0  0  0
    9.2720   -5.1170   26.8740 O   0  0  0  0  0  0  0  0  0  0  0  0
    9.6110   -6.1100   26.0030 C   0  0  0  0  0  0  0  0  0  0  0  0
    6.9390   -3.0040   23.3960 C   0  0  0  0  0  0  0  0  0  0  0  0
    7.5680   -3.3440   22.2360 C   0  0  0  0  0  0  0  0  0  0  0  0
  1  2  1  0
  2  3  2  0
  2  4  1  0
  4  5  1  0
  5  6  1  0
  6  7  1  0
  7  8  1  0
  8  9  2  0
  8 10  1  0
 10 11  1  0
 11 12  1  0
 12 13  1  0
 13 14  1  0
 10 15  1  0
 14 15  1  0
 15 16  1  1
 16 17  1  0
 17 18  2  3
 15 19  1  0
 19 20  2  0
 19 21  1  0
 21 22  1  0
  7 23  1  0
  4 24  1  0
 23 24  1  0
M  END
