piperidine-amides-10394-covalent
     RDKit          3D

 24 25  0  0  0  0  0  0  0  0999 V2000
    7.0800   -3.2740   19.2290 C   0  0  0  0  0  0  0  0  0  0  0  0
    6.3480   -4.0350   20.2500 C   0  0  0  0  0  0  0  0  0  0  0  0
    5.2690   -4.5650   19.8850 O   0  0  0  0  0  0  0  0  0  0  0  0
    6.8580   -4.1910   21.5410 N   0  0  0  0  0  0  0  0  0  0  0  0
    7.7230   -3.1960   22.1420 C   0  0  0  0  0  0  0  0  0  0  0  0
    7.3000   -3.0240   23.5660 C   0  0  0  0  0  0  0  0  0  0  0  0
    5.9720   -3.6880   23.7830 C   0  0  0  0  0  0  0  0  0  0  0  0
    5.4480   -3.4570   25.1350 C   0  0  0  0  0  0  0  0  0  0  0  0
    4.3050   -2.9710   25.2460 O   0  0  0  0  0  0  0  0  0  0  0  0
    6.1620   -3.7520   26.2960 N   0  0  0  0  0  0  0  0  0  0  0  0
    6.3500   -2.7140   27.2510 C   0  0  0  0  0  0  0  0  0  0  0  0
    6.5090   -3.2240   28.6630 C   0  0  0  0  0  0  0  0  0  0  0  0
    6.7290   -2.0060   29.4700 N   0  0  0  0  0  0  0  0  0  0  0  0
    7.8080   -1.2850   29.2530 C   0  0  0  0  0  0  0  0  0  0  0  0
    5.3660   -1.0450   29.6680 S   0  0  0  0  0  0  0  0  0  0  0  0
    5.2830   -0.6530   31.0980 O   0  0  0  0  0  0  0  0  0  0  0  0
    4.2100   -1.8570   29.2100 O   0  0  0  0  0  0  0  0  0  0  0  0
    5.4380    0.4390   28.6710 C   0  0  0  0  0  0  0  0  0  0  0  0
    4.8270    0.7370   27.4710 C   0  0  0  0  0  0  0  0  0  0  0  0
    5.0420    1.9400   26.8980 C   0  0  0  0  0  0  0  0  0  0  0  0
    5.8660    2.8000   27.5560 C   0  0  0  0  0  0  0  0  0  0  0  0
    6.3140    1.8990   28.9560 S   0  0  0  0  0  0  0  0  0  0  0  0
    6.0670   -5.1970   23.5710 C   0  0  0  0  0  0  0  0  0  0  0  0
    6.6800   -5.4620   22.1980 C   0  0  0  0  0  0  0  0  0  0  0  0
  1  2  1  0
  2  3  2  0
  2  4  1  0
  4  5  1  0
  5  6  1  0
  6  7  1  0
  7  8  1  0
  8  9  2  0
  8 10  1  0
 10 11  1  0
 11 12  1  0
 12 13  1  0
 13 14  1  0
 15 13  1  0
 15 16  2  0
 15 17  2  0
 15 18  1  0
 18 19  2  0
 19 20  1  0
 20 21  2  0
 18 22  1  0
 21 22  1  0
  7 23  1  0
  4 24  1  0
 23 24  1  0
M  END
