piperidine-amides-27707-covalent
     RDKit          3D

 26 28  0  0  0  0  0  0  0  0999 V2000
    7.0200   -3.3660   19.3480 C   0  0  0  0  0  0  0  0  0  0  0  0
    6.3900   -4.2180   20.3840 C   0  0  0  0  0  0  0  0  0  0  0  0
    5.4000   -4.8780   19.9970 O   0  0  0  0  0  0  0  0  0  0  0  0
    6.9120   -4.3080   21.6980 N   0  0  0  0  0  0  0  0  0  0  0  0
    6.6460   -5.4760   22.4840 C   0  0  0  0  0  0  0  0  0  0  0  0
    6.0850   -5.1570   23.7980 C   0  0  0  0  0  0  0  0  0  0  0  0
    6.0090   -3.6990   24.0130 C   0  0  0  0  0  0  0  0  0  0  0  0
    5.3160   -3.3260   25.2830 C   0  0  0  0  0  0  0  0  0  0  0  0
    4.0820   -3.2180   25.1980 O   0  0  0  0  0  0  0  0  0  0  0  0
    5.8960   -3.0640   26.5450 N   0  0  0  0  0  0  0  0  0  0  0  0
    5.0080   -3.3200   27.7250 C   0  0  0  0  0  0  0  0  0  0  0  0
    5.2370   -4.6190   28.4070 C   0  0  0  0  0  0  0  0  0  0  0  0
    6.5880   -5.0140   28.4520 C   0  0  0  0  0  0  0  0  0  0  0  0
    6.9100   -6.1820   29.0420 C   0  0  0  0  0  0  0  0  0  0  0  0
    5.9700   -7.0030   29.6210 C   0  0  0  0  0  0  0  0  0  0  0  0
    6.3130   -8.1850   30.2300 C   0  0  0  0  0  0  0  0  0  0  0  0
    5.8590   -8.3050   31.5620 O   0  0  0  0  0  0  0  0  0  0  0  0
    7.1400   -9.1300   29.5210 N   0  0  0  0  0  0  0  0  0  0  0  0
    7.7430  -10.4580   29.7800 C   0  0  0  0  0  0  0  0  0  0  0  0
    4.6280   -6.6940   29.6250 C   0  0  0  0  0  0  0  0  0  0  0  0
    4.2830   -5.4720   28.9960 C   0  0  0  0  0  0  0  0  0  0  0  0
    6.6210   -1.8160   26.6450 C   0  0  0  0  0  0  0  0  0  0  0  0
    6.8630   -1.3190   27.9220 C   0  0  0  0  0  0  0  0  0  0  0  0
    5.9520   -0.4310   27.0190 C   0  0  0  0  0  0  0  0  0  0  0  0
    7.2300   -2.9560   23.6880 C   0  0  0  0  0  0  0  0  0  0  0  0
    7.7430   -3.2500   22.2860 C   0  0  0  0  0  0  0  0  0  0  0  0
  1  2  1  0
  2  3  2  0
  2  4  1  0
  4  5  1  0
  5  6  1  0
  6  7  1  0
  7  8  1  0
  8  9  2  0
  8 10  1  0
 10 11  1  0
 11 12  1  0
 12 13  2  0
 13 14  1  0
 14 15  2  0
 15 16  1  0
 16 17  2  0
 16 18  1  0
 18 19  1  0
 15 20  1  0
 12 21  1  0
 20 21  2  0
 10 22  1  0
 22 23  1  0
 22 24  1  0
 23 24  1  0
  7 25  1  0
  4 26  1  0
 25 26  1  0
M  END
