piperidine-amides-11144-covalent
     RDKit          3D

 20 20  0  0  0  0  0  0  0  0999 V2000
    7.0740   -3.2980   19.2610 C   0  0  0  0  0  0  0  0  0  0  0  0
    6.3610   -4.0730   20.2800 C   0  0  0  0  0  0  0  0  0  0  0  0
    5.3480   -4.7160   19.9460 O   0  0  0  0  0  0  0  0  0  0  0  0
    6.8170   -4.1430   21.6080 N   0  0  0  0  0  0  0  0  0  0  0  0
    7.7350   -3.1630   22.1520 C   0  0  0  0  0  0  0  0  0  0  0  0
    7.3140   -2.9450   23.5750 C   0  0  0  0  0  0  0  0  0  0  0  0
    5.9540   -3.5220   23.8280 C   0  0  0  0  0  0  0  0  0  0  0  0
    5.3820   -3.1380   25.1470 C   0  0  0  0  0  0  0  0  0  0  0  0
    4.8540   -2.0010   25.2860 O   0  0  0  0  0  0  0  0  0  0  0  0
    5.3460   -3.9610   26.2950 N   0  0  0  0  0  0  0  0  0  0  0  0
    6.5290   -4.6840   26.7750 C   0  0  2  0  0  0  0  0  0  0  0  0
    6.0660   -5.9320   27.4150 C   0  0  0  0  0  0  0  0  0  0  0  0
    7.2210   -3.9120   27.8820 C   0  0  0  0  0  0  0  0  0  0  0  0
    6.3940   -3.0630   28.2640 O   0  0  0  0  0  0  0  0  0  0  0  0
    8.5460   -4.1480   28.3660 N   0  0  0  0  0  0  0  0  0  0  0  0
    8.8230   -5.5710   28.0180 C   0  0  0  0  0  0  0  0  0  0  0  0
    8.8050   -5.9920   26.5690 C   0  0  0  0  0  0  0  0  0  0  0  0
    9.0570   -4.8520   25.6610 C   0  0  0  0  0  0  0  0  0  0  0  0
    5.9780   -5.0160   23.5880 C   0  0  0  0  0  0  0  0  0  0  0  0
    6.5640   -5.3590   22.3560 C   0  0  0  0  0  0  0  0  0  0  0  0
  1  2  1  0
  2  3  2  0
  2  4  1  0
  4  5  1  0
  5  6  1  0
  6  7  1  0
  7  8  1  0
  8  9  2  0
  8 10  1  0
 10 11  1  0
 11 12  1  1
 11 13  1  0
 13 14  2  0
 13 15  1  0
 15 16  1  0
 16 17  1  0
 17 18  1  0
  7 19  1  0
  4 20  1  0
 19 20  1  0
M  END
