piperidine-amides-14022-covalent
     RDKit          3D

 25 27  0  0  0  0  0  0  0  0999 V2000
    7.1200   -3.2560   19.2160 C   0  0  0  0  0  0  0  0  0  0  0  0
    6.3410   -4.0160   20.2330 C   0  0  0  0  0  0  0  0  0  0  0  0
    5.2800   -4.5630   19.8940 O   0  0  0  0  0  0  0  0  0  0  0  0
    6.8590   -4.1250   21.5420 N   0  0  0  0  0  0  0  0  0  0  0  0
    7.7640   -3.1210   22.0870 C   0  0  0  0  0  0  0  0  0  0  0  0
    7.6250   -3.0770   23.6080 C   0  0  0  0  0  0  0  0  0  0  0  0
    6.2480   -3.5260   23.9200 C   0  0  0  0  0  0  0  0  0  0  0  0
    5.8480   -3.2580   25.3100 C   0  0  0  0  0  0  0  0  0  0  0  0
    4.8300   -3.8320   25.7100 O   0  0  0  0  0  0  0  0  0  0  0  0
    6.6040   -2.3790   26.0910 N   0  0  0  0  0  0  0  0  0  0  0  0
    6.0870   -1.5320   27.0970 C   0  0  2  0  0  0  0  0  0  0  0  0
    4.9280   -1.9030   27.7240 C   0  0  0  0  0  0  0  0  0  0  0  0
    3.7000   -1.5210   27.1120 C   0  0  0  0  0  0  0  0  0  0  0  0
    2.4500   -1.8150   27.6160 C   0  0  0  0  0  0  0  0  0  0  0  0
    2.3480   -2.5760   28.8720 C   0  0  0  0  0  0  0  0  0  0  0  0
    3.5980   -3.0270   29.5960 C   0  0  0  0  0  0  0  0  0  0  0  0
    4.8830   -2.6100   28.8910 C   0  0  0  0  0  0  0  0  0  0  0  0
    6.0110   -0.1870   26.7710 C   0  0  0  0  0  0  0  0  0  0  0  0
    6.2390    0.9580   27.6880 C   0  0  0  0  0  0  0  0  0  0  0  0
    5.9880    1.9770   26.6560 C   0  0  0  0  0  0  0  0  0  0  0  0
    5.6800    1.6890   25.4110 N   0  0  0  0  0  0  0  0  0  0  0  0
    5.7040    0.3350   25.5220 N   0  0  0  0  0  0  0  0  0  0  0  0
    5.4070   -0.4190   24.3290 C   0  0  0  0  0  0  0  0  0  0  0  0
    6.0300   -4.9700   23.6220 C   0  0  0  0  0  0  0  0  0  0  0  0
    6.6480   -5.3590   22.3020 C   0  0  0  0  0  0  0  0  0  0  0  0
  1  2  1  0
  2  3  2  0
  2  4  1  0
  4  5  1  0
  5  6  1  0
  6  7  1  0
  7  8  1  0
  8  9  2  0
  8 10  1  0
 11 10  1  6
 11 12  1  0
 12 13  2  0
 13 14  1  0
 14 15  2  0
 15 16  1  0
 12 17  1  0
 16 17  2  0
 11 18  1  0
 18 19  2  0
 19 20  1  0
 20 21  2  0
 18 22  1  0
 21 22  1  0
 22 23  1  0
  7 24  1  0
  4 25  1  0
 24 25  1  0
M  END
