piperidine-amides-14165-covalent
     RDKit          3D

 24 26  0  0  0  0  0  0  0  0999 V2000
    7.0360   -3.3230   19.3410 C   0  0  0  0  0  0  0  0  0  0  0  0
    6.3540   -4.1730   20.3580 C   0  0  0  0  0  0  0  0  0  0  0  0
    5.4070   -4.8940   19.9920 O   0  0  0  0  0  0  0  0  0  0  0  0
    6.8160   -4.1650   21.6940 N   0  0  0  0  0  0  0  0  0  0  0  0
    7.6530   -3.1000   22.2240 C   0  0  0  0  0  0  0  0  0  0  0  0
    7.5390   -3.0370   23.7590 C   0  0  0  0  0  0  0  0  0  0  0  0
    6.1740   -3.4880   24.1530 C   0  0  0  0  0  0  0  0  0  0  0  0
    5.8340   -3.3480   25.6010 C   0  0  0  0  0  0  0  0  0  0  0  0
    5.7690   -4.3980   26.2250 O   0  0  0  0  0  0  0  0  0  0  0  0
    5.5510   -2.1020   26.2070 N   0  0  0  0  0  0  0  0  0  0  0  0
    6.3910   -1.2300   26.9700 C   0  0  2  0  0  0  0  0  0  0  0  0
    7.0950   -1.6140   28.0890 C   0  0  0  0  0  0  0  0  0  0  0  0
    6.8200   -1.0950   29.3620 C   0  0  0  0  0  0  0  0  0  0  0  0
    5.5400   -1.2500   29.8430 C   0  0  0  0  0  0  0  0  0  0  0  0
    4.4280   -0.6220   29.0590 C   0  0  0  0  0  0  0  0  0  0  0  0
    4.9390    0.4620   28.1000 C   0  0  0  0  0  0  0  0  0  0  0  0
    4.2010    1.7170   28.5750 C   0  0  0  0  0  0  0  0  0  0  0  0
    3.9910    0.6680   29.0910 C   0  0  0  0  0  0  0  0  0  0  0  0
    4.4770   -1.1870   28.9940 Br  0  0  0  0  0  0  0  0  0  0  0  0
    4.9040    1.4290   27.8550 C   0  0  0  0  0  0  0  0  0  0  0  0
    6.0230    1.0570   26.6770 C   0  0  0  0  0  0  0  0  0  0  0  0
    5.8450    0.0290   27.1890 C   0  0  0  0  0  0  0  0  0  0  0  0
    5.9030   -4.9230   23.7970 C   0  0  0  0  0  0  0  0  0  0  0  0
    6.6170   -5.3340   22.5300 C   0  0  0  0  0  0  0  0  0  0  0  0
  1  2  1  0
  2  3  2  0
  2  4  1  0
  4  5  1  0
  5  6  1  0
  6  7  1  0
  7  8  1  0
  8  9  2  0
  8 10  1  0
 11 10  1  1
 11 12  1  0
 12 13  1  0
 13 14  1  0
 14 15  1  0
 15 16  1  0
 16 17  1  0
 17 18  2  0
 18 19  1  0
 18 20  1  0
 20 21  2  0
 11 22  1  0
 16 22  2  0
 21 22  1  0
  7 23  1  0
  4 24  1  0
 23 24  1  0
M  END
