piperidine-amides-24438-covalent
     RDKit          3D

 23 24  0  0  0  0  0  0  0  0999 V2000
    7.0700   -3.3330   19.3090 C   0  0  0  0  0  0  0  0  0  0  0  0
    6.3910   -4.1630   20.3160 C   0  0  0  0  0  0  0  0  0  0  0  0
    5.4050   -4.8600   19.9890 O   0  0  0  0  0  0  0  0  0  0  0  0
    6.8740   -4.2060   21.6320 N   0  0  0  0  0  0  0  0  0  0  0  0
    6.7170   -5.4370   22.3920 C   0  0  0  0  0  0  0  0  0  0  0  0
    6.1140   -5.0740   23.7620 C   0  0  0  0  0  0  0  0  0  0  0  0
    6.2690   -3.5790   23.9170 C   0  0  0  0  0  0  0  0  0  0  0  0
    5.7960   -3.0960   25.2270 C   0  0  0  0  0  0  0  0  0  0  0  0
    5.1790   -2.0180   25.2650 O   0  0  0  0  0  0  0  0  0  0  0  0
    5.9920   -3.8510   26.3890 N   0  0  0  0  0  0  0  0  0  0  0  0
    5.0160   -4.8350   26.5770 C   0  0  0  0  0  0  0  0  0  0  0  0
    5.5660   -5.8080   27.5600 C   0  0  0  0  0  0  0  0  0  0  0  0
    5.7540   -5.3720   28.7990 C   0  0  0  0  0  0  0  0  0  0  0  0
    6.3680   -6.4000   29.4610 C   0  0  0  0  0  0  0  0  0  0  0  0
    6.1410   -6.5140   30.8300 O   0  0  0  0  0  0  0  0  0  0  0  0
    4.5260   -4.9690   29.2690 C   0  0  0  0  0  0  0  0  0  0  0  0
    3.5440   -5.3320   28.3670 F   0  0  0  0  0  0  0  0  0  0  0  0
    4.3550   -3.6300   29.5200 F   0  0  0  0  0  0  0  0  0  0  0  0
    4.2280   -5.6940   30.4070 F   0  0  0  0  0  0  0  0  0  0  0  0
    6.4640   -4.1580   28.7290 C   0  0  0  0  0  0  0  0  0  0  0  0
    6.3100   -3.1250   27.6100 C   0  0  0  0  0  0  0  0  0  0  0  0
    7.6320   -3.1150   23.5840 C   0  0  0  0  0  0  0  0  0  0  0  0
    7.8080   -3.1960   22.1160 C   0  0  0  0  0  0  0  0  0  0  0  0
  1  2  1  0
  2  3  2  0
  2  4  1  0
  4  5  1  0
  5  6  1  0
  6  7  1  0
  7  8  1  0
  8  9  2  0
  8 10  1  0
 10 11  1  0
 11 12  1  0
 12 13  1  0
 13 14  1  0
 14 15  1  0
 13 16  1  0
 16 17  1  0
 16 18  1  0
 16 19  1  0
 13 20  1  0
 10 21  1  0
 20 21  1  0
  7 22  1  0
  4 23  1  0
 22 23  1  0
M  END
