piperidine-amides-12735-covalent
     RDKit          3D

 22 23  0  0  0  0  0  0  0  0999 V2000
    7.0740   -3.2880   19.2310 C   0  0  0  0  0  0  0  0  0  0  0  0
    6.3500   -4.0490   20.2780 C   0  0  0  0  0  0  0  0  0  0  0  0
    5.2950   -4.6040   19.9060 O   0  0  0  0  0  0  0  0  0  0  0  0
    6.8400   -4.1910   21.5940 N   0  0  0  0  0  0  0  0  0  0  0  0
    7.6820   -3.1860   22.1610 C   0  0  0  0  0  0  0  0  0  0  0  0
    7.3360   -2.9170   23.5440 C   0  0  0  0  0  0  0  0  0  0  0  0
    6.0470   -3.5400   23.9020 C   0  0  0  0  0  0  0  0  0  0  0  0
    5.5950   -3.1760   25.2680 C   0  0  0  0  0  0  0  0  0  0  0  0
    4.3900   -2.8980   25.4130 O   0  0  0  0  0  0  0  0  0  0  0  0
    6.4470   -3.1470   26.3830 N   0  0  0  0  0  0  0  0  0  0  0  0
    6.1400   -3.9130   27.6130 C   0  0  0  0  0  0  0  0  0  0  0  0
    5.8190   -5.3450   27.3090 C   0  0  0  0  0  0  0  0  0  0  0  0
    6.0200   -6.3190   28.3670 C   0  0  0  0  0  0  0  0  0  0  0  0
    5.4070   -6.0950   29.5650 C   0  0  0  0  0  0  0  0  0  0  0  0
    4.1240   -6.5460   29.7710 C   0  0  0  0  0  0  0  0  0  0  0  0
    3.7260   -7.7850   29.5640 C   0  0  0  0  0  0  0  0  0  0  0  0
    2.4220   -7.9990   29.8320 C   0  0  0  0  0  0  0  0  0  0  0  0
    1.6810   -6.9170   30.2810 C   0  0  0  0  0  0  0  0  0  0  0  0
   -0.0180   -6.9880   30.6810 Cl  0  0  0  0  0  0  0  0  0  0  0  0
    2.8030   -5.5930   30.3320 S   0  0  0  0  0  0  0  0  0  0  0  0
    6.0700   -5.0390   23.6870 C   0  0  0  0  0  0  0  0  0  0  0  0
    6.6570   -5.4110   22.3620 C   0  0  0  0  0  0  0  0  0  0  0  0
  1  2  1  0
  2  3  2  0
  2  4  1  0
  4  5  1  0
  5  6  1  0
  6  7  1  0
  7  8  1  0
  8  9  2  0
  8 10  1  0
 10 11  1  0
 11 12  1  0
 12 13  1  0
 13 14  1  0
 14 15  1  0
 15 16  2  0
 16 17  1  0
 17 18  2  0
 18 19  1  0
 15 20  1  0
 18 20  1  0
  7 21  1  0
  4 22  1  0
 21 22  1  0
M  END
