piperidine-amides-4960-covalent
     RDKit          3D

 23 25  0  0  0  0  0  0  0  0999 V2000
    7.1210   -3.2540   19.1990 C   0  0  0  0  0  0  0  0  0  0  0  0
    6.3630   -4.0150   20.2210 C   0  0  0  0  0  0  0  0  0  0  0  0
    5.2760   -4.5060   19.8590 O   0  0  0  0  0  0  0  0  0  0  0  0
    6.8660   -4.2140   21.5110 N   0  0  0  0  0  0  0  0  0  0  0  0
    7.6200   -3.1760   22.1400 C   0  0  0  0  0  0  0  0  0  0  0  0
    7.2090   -2.8380   23.5040 C   0  0  0  0  0  0  0  0  0  0  0  0
    6.5290   -3.9160   24.2570 C   0  0  0  0  0  0  0  0  0  0  0  0
    5.8170   -3.3510   25.4350 C   0  0  0  0  0  0  0  0  0  0  0  0
    4.5720   -3.3550   25.4330 O   0  0  0  0  0  0  0  0  0  0  0  0
    6.5320   -2.8030   26.5200 N   0  0  0  0  0  0  0  0  0  0  0  0
    6.3190   -3.1760   27.9460 C   0  0  0  0  0  0  0  0  0  0  0  0
    5.2680   -4.2010   28.1610 C   0  0  0  0  0  0  0  0  0  0  0  0
    3.8660   -4.2420   27.9580 N   0  0  0  0  0  0  0  0  0  0  0  0
    3.3560   -5.5170   28.3650 C   0  0  0  0  0  0  0  0  0  0  0  0
    2.0410   -5.8520   28.2930 C   0  0  0  0  0  0  0  0  0  0  0  0
    1.6650   -7.1230   28.7230 C   0  0  0  0  0  0  0  0  0  0  0  0
   -0.1850   -7.6090   28.6250 Br  0  0  0  0  0  0  0  0  0  0  0  0
    2.6350   -7.9950   29.2060 C   0  0  0  0  0  0  0  0  0  0  0  0
    3.9610   -7.6230   29.2640 C   0  0  0  0  0  0  0  0  0  0  0  0
    4.2650   -6.3850   28.8360 C   0  0  0  0  0  0  0  0  0  0  0  0
    5.8550   -5.7600   28.8420 S   0  0  0  0  0  0  0  0  0  0  0  0
    5.6250   -4.7280   23.3750 C   0  0  0  0  0  0  0  0  0  0  0  0
    6.4730   -5.3380   22.3270 C   0  0  0  0  0  0  0  0  0  0  0  0
  1  2  1  0
  2  3  2  0
  2  4  1  0
  4  5  1  0
  5  6  1  0
  6  7  1  0
  7  8  1  0
  8  9  2  0
  8 10  1  0
 10 11  1  0
 11 12  1  0
 12 13  2  0
 13 14  1  0
 14 15  2  0
 15 16  1  0
 16 17  1  0
 16 18  2  0
 18 19  1  0
 14 20  1  0
 19 20  2  0
 12 21  1  0
 20 21  1  0
  7 22  1  0
  4 23  1  0
 22 23  1  0
M  END
