piperidine-amides-31387-covalent
     RDKit          3D

 28 31  0  0  0  0  0  0  0  0999 V2000
    7.0830   -3.3670   19.4570 C   0  0  0  0  0  0  0  0  0  0  0  0
    6.4120   -4.2430   20.3960 C   0  0  0  0  0  0  0  0  0  0  0  0
    5.4130   -4.9180   19.9930 O   0  0  0  0  0  0  0  0  0  0  0  0
    6.8550   -4.3940   21.7240 N   0  0  0  0  0  0  0  0  0  0  0  0
    6.3280   -5.5290   22.5260 C   0  0  0  0  0  0  0  0  0  0  0  0
    5.5250   -4.7630   23.6660 C   0  0  0  0  0  0  0  0  0  0  0  0
    6.5390   -3.8150   24.2550 C   0  0  0  0  0  0  0  0  0  0  0  0
    6.1390   -3.0750   25.6260 C   0  0  0  0  0  0  0  0  0  0  0  0
    6.5870   -1.9570   25.5870 O   0  0  0  0  0  0  0  0  0  0  0  0
    5.4320   -3.7610   26.4310 N   0  0  0  0  0  0  0  0  0  0  0  0
    4.3410   -4.3480   26.9430 C   0  0  0  0  0  0  0  0  0  0  0  0
    3.9160   -4.6530   28.1950 C   0  0  0  0  0  0  0  0  0  0  0  0
    5.0210   -5.4140   28.6820 N   0  0  0  0  0  0  0  0  0  0  0  0
    5.1690   -6.5280   29.3610 C   0  0  0  0  0  0  0  0  0  0  0  0
    3.8940   -7.1820   29.7210 C   0  0  0  0  0  0  0  0  0  0  0  0
    4.2060   -6.9780   31.2170 C   0  0  0  0  0  0  0  0  0  0  0  0
    3.2180   -6.0600   31.6290 C   0  0  0  0  0  0  0  0  0  0  0  0
    2.9510   -5.4590   32.9200 C   0  0  0  0  0  0  0  0  0  0  0  0
    4.0930   -6.1410   33.7320 C   0  0  0  0  0  0  0  0  0  0  0  0
    5.1830   -7.1510   33.2830 C   0  0  0  0  0  0  0  0  0  0  0  0
    6.1170   -7.6330   34.2030 F   0  0  0  0  0  0  0  0  0  0  0  0
    5.1930   -7.5320   32.0190 C   0  0  0  0  0  0  0  0  0  0  0  0
    6.4530   -6.8330   29.5770 N   0  0  0  0  0  0  0  0  0  0  0  0
    7.1840   -5.8480   28.9920 N   0  0  0  0  0  0  0  0  0  0  0  0
    6.2750   -4.8980   28.3900 C   0  0  0  0  0  0  0  0  0  0  0  0
    6.2430   -3.7180   27.6670 C   0  0  0  0  0  0  0  0  0  0  0  0
    7.1150   -2.8180   23.3130 C   0  0  0  0  0  0  0  0  0  0  0  0
    7.7930   -3.4910   22.3210 C   0  0  0  0  0  0  0  0  0  0  0  0
  1  2  1  0
  2  3  2  0
  2  4  1  0
  4  5  1  0
  5  6  1  0
  6  7  1  0
  7  8  1  0
  8  9  2  0
  8 10  1  0
 10 11  1  0
 11 12  1  0
 12 13  1  0
 13 14  1  0
 14 15  1  0
 15 16  1  0
 16 17  2  0
 17 18  1  0
 18 19  2  0
 19 20  1  0
 20 21  1  0
 16 22  1  0
 20 22  2  0
 14 23  2  0
 23 24  1  0
 13 25  1  0
 24 25  2  0
 10 26  1  0
 25 26  1  0
  7 27  1  0
  4 28  1  0
 27 28  1  0
M  END
