piperidine-amides-3011-covalent
     RDKit          3D

 23 24  0  0  0  0  0  0  0  0999 V2000
    7.1050   -3.2940   19.2360 C   0  0  0  0  0  0  0  0  0  0  0  0
    6.3360   -4.0320   20.2280 C   0  0  0  0  0  0  0  0  0  0  0  0
    5.2820   -4.5810   19.9020 O   0  0  0  0  0  0  0  0  0  0  0  0
    6.8270   -4.1690   21.5720 N   0  0  0  0  0  0  0  0  0  0  0  0
    7.7260   -3.1730   22.1170 C   0  0  0  0  0  0  0  0  0  0  0  0
    7.3650   -2.8980   23.5410 C   0  0  0  0  0  0  0  0  0  0  0  0
    6.0430   -3.6070   23.7620 C   0  0  0  0  0  0  0  0  0  0  0  0
    5.4920   -3.2410   25.0830 C   0  0  0  0  0  0  0  0  0  0  0  0
    4.5140   -3.8240   25.5830 O   0  0  0  0  0  0  0  0  0  0  0  0
    6.0820   -2.1750   25.7890 N   0  0  0  0  0  0  0  0  0  0  0  0
    5.2060   -1.3910   26.6290 C   0  0  0  0  0  0  0  0  0  0  0  0
    5.8940   -1.1820   27.9400 C   0  0  0  0  0  0  0  0  0  0  0  0
    6.9430   -1.9700   28.0680 C   0  0  0  0  0  0  0  0  0  0  0  0
    7.0190   -3.1730   27.5670 C   0  0  0  0  0  0  0  0  0  0  0  0
    8.2040   -3.5910   27.9000 C   0  0  0  0  0  0  0  0  0  0  0  0
    8.5520   -4.8800   27.4690 C   0  0  0  0  0  0  0  0  0  0  0  0
    9.7540   -5.2370   27.8160 C   0  0  0  0  0  0  0  0  0  0  0  0
    7.5620   -5.7500   27.7530 C   0  0  0  0  0  0  0  0  0  0  0  0
    8.7230   -5.0940   26.1070 C   0  0  0  0  0  0  0  0  0  0  0  0
    8.8610   -2.7370   28.5760 O   0  0  0  0  0  0  0  0  0  0  0  0
    8.1400   -1.6420   28.7460 N   0  0  0  0  0  0  0  0  0  0  0  0
    6.0510   -5.0490   23.5510 C   0  0  0  0  0  0  0  0  0  0  0  0
    6.6230   -5.3780   22.3300 C   0  0  0  0  0  0  0  0  0  0  0  0
  1  2  1  0
  2  3  2  0
  2  4  1  0
  4  5  1  0
  5  6  1  0
  6  7  1  0
  7  8  1  0
  8  9  2  0
  8 10  1  0
 10 11  1  0
 11 12  1  0
 12 13  1  0
 13 14  1  0
 14 15  2  0
 15 16  1  0
 16 17  1  0
 16 18  1  0
 16 19  1  0
 15 20  1  0
 13 21  2  0
 20 21  1  0
  7 22  1  0
  4 23  1  0
 22 23  1  0
M  END
