piperidine-amides-14878-covalent
     RDKit          3D

 21 22  0  0  0  0  0  0  0  0999 V2000
    7.0790   -3.3430   19.3080 C   0  0  0  0  0  0  0  0  0  0  0  0
    6.4040   -4.1650   20.3140 C   0  0  0  0  0  0  0  0  0  0  0  0
    5.3780   -4.7790   19.9680 O   0  0  0  0  0  0  0  0  0  0  0  0
    6.9360   -4.2940   21.6270 N   0  0  0  0  0  0  0  0  0  0  0  0
    6.5430   -5.4250   22.4180 C   0  0  0  0  0  0  0  0  0  0  0  0
    5.7720   -4.9450   23.6150 C   0  0  0  0  0  0  0  0  0  0  0  0
    6.5930   -3.8480   24.2610 C   0  0  0  0  0  0  0  0  0  0  0  0
    5.8120   -3.2390   25.3850 C   0  0  0  0  0  0  0  0  0  0  0  0
    4.6230   -3.0130   25.1670 O   0  0  0  0  0  0  0  0  0  0  0  0
    6.4690   -2.9770   26.5860 N   0  0  0  0  0  0  0  0  0  0  0  0
    6.4390   -1.6970   27.2150 C   0  0  0  0  0  0  0  0  0  0  0  0
    6.8780   -1.4760   28.5090 C   0  0  0  0  0  0  0  0  0  0  0  0
    6.8300   -0.2360   29.1070 C   0  0  0  0  0  0  0  0  0  0  0  0
    7.4600   -0.0700   30.8980 Br  0  0  0  0  0  0  0  0  0  0  0  0
    6.3450    0.9350   28.5000 C   0  0  0  0  0  0  0  0  0  0  0  0
    6.3390    2.5980   29.4620 Br  0  0  0  0  0  0  0  0  0  0  0  0
    5.8520    0.7620   27.0800 C   0  0  0  0  0  0  0  0  0  0  0  0
    5.1780    2.2870   26.1700 Br  0  0  0  0  0  0  0  0  0  0  0  0
    5.9090   -0.6270   26.4210 C   0  0  0  0  0  0  0  0  0  0  0  0
    6.9470   -2.6980   23.3890 C   0  0  0  0  0  0  0  0  0  0  0  0
    7.6470   -3.1790   22.1600 C   0  0  0  0  0  0  0  0  0  0  0  0
  1  2  1  0
  2  3  2  0
  2  4  1  0
  4  5  1  0
  5  6  1  0
  6  7  1  0
  7  8  1  0
  8  9  2  0
  8 10  1  0
 10 11  1  0
 11 12  2  0
 12 13  1  0
 13 14  1  0
 13 15  2  0
 15 16  1  0
 15 17  1  0
 17 18  1  0
 11 19  1  0
 17 19  2  0
  7 20  1  0
  4 21  1  0
 20 21  1  0
M  END
