piperidine-amides-31061-covalent
     RDKit          3D

 28 31  0  0  0  0  0  0  0  0999 V2000
    7.0930   -3.3460   19.3060 C   0  0  0  0  0  0  0  0  0  0  0  0
    6.4220   -4.1860   20.2980 C   0  0  0  0  0  0  0  0  0  0  0  0
    5.3870   -4.7990   19.9730 O   0  0  0  0  0  0  0  0  0  0  0  0
    6.9540   -4.3570   21.5850 N   0  0  0  0  0  0  0  0  0  0  0  0
    6.6970   -5.5350   22.3700 C   0  0  0  0  0  0  0  0  0  0  0  0
    5.9950   -5.0500   23.6150 C   0  0  0  0  0  0  0  0  0  0  0  0
    6.6280   -3.8340   24.2390 C   0  0  0  0  0  0  0  0  0  0  0  0
    5.7620   -3.2810   25.3000 C   0  0  0  0  0  0  0  0  0  0  0  0
    4.7710   -2.5620   24.9840 O   0  0  0  0  0  0  0  0  0  0  0  0
    5.9210   -3.5100   26.6720 N   0  0  0  0  0  0  0  0  0  0  0  0
    4.8420   -4.2710   27.2870 C   0  0  0  0  0  0  0  0  0  0  0  0
    5.2110   -4.5380   28.6730 C   0  0  0  0  0  0  0  0  0  0  0  0
    5.5480   -3.3740   29.2420 N   0  0  0  0  0  0  0  0  0  0  0  0
    4.6880   -2.3430   29.7030 C   0  0  0  0  0  0  0  0  0  0  0  0
    3.8360   -2.8350   30.8640 C   0  0  0  0  0  0  0  0  0  0  0  0
    3.3790   -4.2790   30.7120 C   0  0  0  0  0  0  0  0  0  0  0  0
    1.9710   -4.5660   31.0220 C   0  0  0  0  0  0  0  0  0  0  0  0
    1.9110   -5.8780   30.7800 N   0  0  0  0  0  0  0  0  0  0  0  0
    3.2000   -6.4230   30.3370 C   0  0  0  0  0  0  0  0  0  0  0  0
    3.7130   -7.7200   29.9410 C   0  0  0  0  0  0  0  0  0  0  0  0
    5.1980   -7.9290   29.5140 C   0  0  0  0  0  0  0  0  0  0  0  0
    6.0570   -6.6960   29.5510 C   0  0  0  0  0  0  0  0  0  0  0  0
    5.1700   -5.6400   29.9910 C   0  0  0  0  0  0  0  0  0  0  0  0
    4.0960   -5.3570   30.3200 C   0  0  0  0  0  0  0  0  0  0  0  0
    6.7100   -2.9520   28.7250 C   0  0  0  0  0  0  0  0  0  0  0  0
    6.5040   -2.4880   27.4370 C   0  0  0  0  0  0  0  0  0  0  0  0
    6.9430   -2.7230   23.2830 C   0  0  0  0  0  0  0  0  0  0  0  0
    7.7800   -3.3360   22.1880 C   0  0  0  0  0  0  0  0  0  0  0  0
  1  2  1  0
  2  3  2  0
  2  4  1  0
  4  5  1  0
  5  6  1  0
  6  7  1  0
  7  8  1  0
  8  9  2  0
  8 10  1  0
 10 11  1  0
 11 12  1  0
 12 13  1  0
 13 14  1  0
 14 15  1  0
 15 16  1  0
 16 17  2  0
 17 18  1  0
 18 19  1  0
 19 20  1  0
 20 21  2  0
 21 22  1  0
 22 23  2  0
 16 24  1  0
 19 24  2  0
 23 24  1  0
 13 25  1  0
 10 26  1  0
 25 26  1  0
  7 27  1  0
  4 28  1  0
 27 28  1  0
M  END
