piperidine-amides-28957-covalent
     RDKit          3D

 27 30  0  0  0  0  0  0  0  0999 V2000
    7.0990   -3.3320   19.3120 C   0  0  0  0  0  0  0  0  0  0  0  0
    6.4210   -4.1800   20.2870 C   0  0  0  0  0  0  0  0  0  0  0  0
    5.3590   -4.7320   19.9510 O   0  0  0  0  0  0  0  0  0  0  0  0
    7.0050   -4.4080   21.5560 N   0  0  0  0  0  0  0  0  0  0  0  0
    7.7600   -3.3570   22.1720 C   0  0  0  0  0  0  0  0  0  0  0  0
    6.9400   -2.7430   23.2540 C   0  0  0  0  0  0  0  0  0  0  0  0
    6.6460   -3.8410   24.2500 C   0  0  0  0  0  0  0  0  0  0  0  0
    5.8820   -3.2570   25.3930 C   0  0  0  0  0  0  0  0  0  0  0  0
    4.6950   -3.0090   25.1900 O   0  0  0  0  0  0  0  0  0  0  0  0
    6.5560   -3.0580   26.5810 N   0  0  0  0  0  0  0  0  0  0  0  0
    6.5510   -1.8090   27.2950 C   0  0  0  0  0  0  0  0  0  0  0  0
    7.2100   -1.6010   28.5060 C   0  0  0  0  0  0  0  0  0  0  0  0
    7.1910   -0.4140   29.1860 C   0  0  0  0  0  0  0  0  0  0  0  0
    6.5220    0.7320   28.7590 C   0  0  0  0  0  0  0  0  0  0  0  0
    5.7930    0.5800   27.4530 C   0  0  0  0  0  0  0  0  0  0  0  0
    5.0180    1.7870   26.8810 C   0  0  0  0  0  0  0  0  0  0  0  0
    4.2890    1.6430   25.5870 C   0  0  0  0  0  0  0  0  0  0  0  0
    4.3870    0.2800   24.9440 C   0  0  0  0  0  0  0  0  0  0  0  0
    5.0880   -0.7150   25.5140 N   0  0  0  0  0  0  0  0  0  0  0  0
    5.8030   -0.6480   26.7400 C   0  0  0  0  0  0  0  0  0  0  0  0
    6.7690   -3.7410   27.8370 C   0  0  0  0  0  0  0  0  0  0  0  0
    8.0000   -4.3820   27.7660 C   0  0  0  0  0  0  0  0  0  0  0  0
    7.7610   -5.8260   27.8570 C   0  0  0  0  0  0  0  0  0  0  0  0
    6.3320   -5.9710   28.1410 C   0  0  0  0  0  0  0  0  0  0  0  0
    5.6550   -4.6040   28.1800 C   0  0  0  0  0  0  0  0  0  0  0  0
    5.8740   -4.9780   23.5970 C   0  0  0  0  0  0  0  0  0  0  0  0
    6.6430   -5.5220   22.3890 C   0  0  0  0  0  0  0  0  0  0  0  0
  1  2  1  0
  2  3  2  0
  2  4  1  0
  4  5  1  0
  5  6  1  0
  6  7  1  0
  7  8  1  0
  8  9  2  0
  8 10  1  0
 10 11  1  0
 11 12  2  0
 12 13  1  0
 13 14  2  0
 14 15  1  0
 15 16  1  0
 16 17  2  0
 17 18  1  0
 18 19  2  0
 11 20  1  0
 15 20  2  0
 19 20  1  0
 10 21  1  0
 21 22  1  0
 22 23  1  0
 23 24  1  0
 21 25  1  0
 24 25  1  0
  7 26  1  0
  4 27  1  0
 26 27  1  0
M  END
