piperidine-amides-19261-covalent
     RDKit          3D

 22 23  0  0  0  0  0  0  0  0999 V2000
    7.0180   -3.3850   19.3720 C   0  0  0  0  0  0  0  0  0  0  0  0
    6.3550   -4.1940   20.3710 C   0  0  0  0  0  0  0  0  0  0  0  0
    5.3460   -4.8590   19.9850 O   0  0  0  0  0  0  0  0  0  0  0  0
    6.7930   -4.3220   21.7120 N   0  0  0  0  0  0  0  0  0  0  0  0
    6.6240   -5.6560   22.3560 C   0  0  0  0  0  0  0  0  0  0  0  0
    5.8320   -5.2780   23.6760 C   0  0  0  0  0  0  0  0  0  0  0  0
    6.1200   -3.8240   23.8900 C   0  0  0  0  0  0  0  0  0  0  0  0
    5.3290   -3.1650   25.1150 C   0  0  0  0  0  0  0  0  0  0  0  0
    4.1500   -3.0760   24.8100 O   0  0  0  0  0  0  0  0  0  0  0  0
    6.0560   -2.8910   26.1220 N   0  0  0  0  0  0  0  0  0  0  0  0
    6.4860   -3.0120   27.4120 C   0  0  0  0  0  0  0  0  0  0  0  0
    6.6400   -1.6310   25.8330 C   0  0  0  0  0  0  0  0  0  0  0  0
    6.8350   -1.2550   24.4630 C   0  0  0  0  0  0  0  0  0  0  0  0
    8.2230   -1.2160   23.9270 C   0  0  0  0  0  0  0  0  0  0  0  0
    8.3460   -0.7980   22.4200 C   0  0  0  0  0  0  0  0  0  0  0  0
    7.1410   -0.4980   21.7160 C   0  0  0  0  0  0  0  0  0  0  0  0
    7.0260   -0.1140   20.3630 C   0  0  0  0  0  0  0  0  0  0  0  0
    7.7450    0.9350   21.2200 C   0  0  0  0  0  0  0  0  0  0  0  0
    5.8100   -0.5880   22.4210 C   0  0  0  0  0  0  0  0  0  0  0  0
    5.7200   -0.9490   23.7190 C   0  0  0  0  0  0  0  0  0  0  0  0
    7.5670   -3.4690   23.6590 C   0  0  0  0  0  0  0  0  0  0  0  0
    7.6590   -3.3300   22.3150 C   0  0  0  0  0  0  0  0  0  0  0  0
  1  2  1  0
  2  3  2  0
  2  4  1  0
  4  5  1  0
  5  6  1  0
  6  7  1  0
  7  8  1  0
  8  9  2  0
  8 10  1  0
 10 11  1  0
 10 12  1  0
 12 13  1  0
 13 14  2  0
 14 15  1  0
 15 16  2  0
 16 17  1  0
 17 18  1  0
 16 19  1  0
 13 20  1  0
 19 20  2  0
  7 21  1  0
  4 22  1  0
 21 22  1  0
M  END
