piperidine-amides-23379-covalent
     RDKit          3D

 24 26  0  0  0  0  0  0  0  0999 V2000
    7.0000   -3.3590   19.4230 C   0  0  0  0  0  0  0  0  0  0  0  0
    6.3660   -4.2590   20.4030 C   0  0  0  0  0  0  0  0  0  0  0  0
    5.3770   -4.9110   19.9940 O   0  0  0  0  0  0  0  0  0  0  0  0
    6.8670   -4.4210   21.7250 N   0  0  0  0  0  0  0  0  0  0  0  0
    6.6290   -5.6560   22.4020 C   0  0  0  0  0  0  0  0  0  0  0  0
    6.1010   -5.4570   23.7420 C   0  0  0  0  0  0  0  0  0  0  0  0
    5.9110   -4.0360   24.0050 C   0  0  0  0  0  0  0  0  0  0  0  0
    5.3170   -3.6700   25.3570 C   0  0  0  0  0  0  0  0  0  0  0  0
    5.2090   -2.4540   25.5910 O   0  0  0  0  0  0  0  0  0  0  0  0
    4.8290   -4.5490   26.3910 N   0  0  0  0  0  0  0  0  0  0  0  0
    4.1700   -3.9570   27.5110 C   0  0  0  0  0  0  0  0  0  0  0  0
    4.9370   -3.6400   28.7310 C   0  0  0  0  0  0  0  0  0  0  0  0
    6.4030   -3.5740   28.3000 C   0  0  0  0  0  0  0  0  0  0  0  0
    7.1720   -2.5740   28.8390 C   0  0  0  0  0  0  0  0  0  0  0  0
    8.5940   -2.6120   28.3020 C   0  0  0  0  0  0  0  0  0  0  0  0
    8.8010   -3.7390   27.3520 C   0  0  0  0  0  0  0  0  0  0  0  0
   10.0300   -3.8750   26.8330 O   0  0  0  0  0  0  0  0  0  0  0  0
   10.1120   -5.0560   26.1520 C   0  0  0  0  0  0  0  0  0  0  0  0
    8.0140   -4.6860   26.8680 C   0  0  0  0  0  0  0  0  0  0  0  0
    6.6960   -4.5680   27.3880 C   0  0  0  0  0  0  0  0  0  0  0  0
    5.7840   -5.5170   26.8260 C   0  0  1  0  0  0  0  0  0  0  0  0
    5.4720   -6.5550   27.8450 C   0  0  0  0  0  0  0  0  0  0  0  0
    7.1470   -3.2380   23.6980 C   0  0  0  0  0  0  0  0  0  0  0  0
    7.5800   -3.3360   22.3730 C   0  0  0  0  0  0  0  0  0  0  0  0
  1  2  1  0
  2  3  2  0
  2  4  1  0
  4  5  1  0
  5  6  1  0
  6  7  1  0
  7  8  1  0
  8  9  2  0
  8 10  1  0
 10 11  1  0
 11 12  1  0
 12 13  1  0
 13 14  2  0
 14 15  1  0
 15 16  2  0
 16 17  1  0
 17 18  1  0
 16 19  1  0
 13 20  1  0
 19 20  2  0
 10 21  1  0
 20 21  1  0
 21 22  1  1
  7 23  1  0
  4 24  1  0
 23 24  1  0
M  END
