piperidine-amides-21612-covalent
     RDKit          3D

 23 25  0  0  0  0  0  0  0  0999 V2000
    7.1510   -3.3310   19.2680 C   0  0  0  0  0  0  0  0  0  0  0  0
    6.4600   -4.1580   20.2550 C   0  0  0  0  0  0  0  0  0  0  0  0
    5.3460   -4.6420   19.9240 O   0  0  0  0  0  0  0  0  0  0  0  0
    7.0810   -4.4310   21.4730 N   0  0  0  0  0  0  0  0  0  0  0  0
    6.7370   -5.5940   22.2430 C   0  0  0  0  0  0  0  0  0  0  0  0
    5.9990   -5.1060   23.4480 C   0  0  0  0  0  0  0  0  0  0  0  0
    6.6540   -3.9020   24.0710 C   0  0  0  0  0  0  0  0  0  0  0  0
    5.8130   -3.4250   25.1550 C   0  0  0  0  0  0  0  0  0  0  0  0
    4.8670   -2.6540   24.8900 O   0  0  0  0  0  0  0  0  0  0  0  0
    5.9950   -3.8060   26.4620 N   0  0  0  0  0  0  0  0  0  0  0  0
    5.0810   -4.7820   26.9210 C   0  0  0  0  0  0  0  0  0  0  0  0
    5.5410   -5.2030   28.2560 C   0  0  0  0  0  0  0  0  0  0  0  0
    5.9710   -4.2670   29.0870 C   0  0  0  0  0  0  0  0  0  0  0  0
    6.6280   -3.1290   28.6830 C   0  0  2  0  0  0  0  0  0  0  0  0
    6.5340   -2.0050   29.4890 C   0  0  0  0  0  0  0  0  0  0  0  0
    5.4090   -1.4410   30.0530 C   0  0  0  0  0  0  0  0  0  0  0  0
    5.7460   -0.3250   30.7910 N   0  0  0  0  0  0  0  0  0  0  0  0
    7.0920   -0.1980   30.6790 N   0  0  0  0  0  0  0  0  0  0  0  0
    7.7720    0.8780   31.3420 C   0  0  0  0  0  0  0  0  0  0  0  0
    7.5620   -1.2350   29.8730 C   0  0  0  0  0  0  0  0  0  0  0  0
    6.3010   -2.7880   27.3820 C   0  0  0  0  0  0  0  0  0  0  0  0
    6.8950   -2.7590   23.0920 C   0  0  0  0  0  0  0  0  0  0  0  0
    7.8550   -3.3890   22.1300 C   0  0  0  0  0  0  0  0  0  0  0  0
  1  2  1  0
  2  3  2  0
  2  4  1  0
  4  5  1  0
  5  6  1  0
  6  7  1  0
  7  8  1  0
  8  9  2  0
  8 10  1  0
 10 11  1  0
 11 12  1  0
 12 13  1  0
 13 14  1  0
 14 15  1  1
 15 16  1  0
 16 17  2  0
 17 18  1  0
 18 19  1  0
 15 20  2  0
 18 20  1  0
 10 21  1  0
 14 21  1  0
  7 22  1  0
  4 23  1  0
 22 23  1  0
M  END
