piperidine-amides-13728-covalent
     RDKit          3D

 27 29  0  0  0  0  0  0  0  0999 V2000
    7.1610   -3.2580   19.2280 C   0  0  0  0  0  0  0  0  0  0  0  0
    6.3900   -4.0330   20.2330 C   0  0  0  0  0  0  0  0  0  0  0  0
    5.3130   -4.5630   19.8980 O   0  0  0  0  0  0  0  0  0  0  0  0
    6.9400   -4.1890   21.5210 N   0  0  0  0  0  0  0  0  0  0  0  0
    7.7440   -3.1440   22.1240 C   0  0  0  0  0  0  0  0  0  0  0  0
    7.1810   -2.9190   23.5240 C   0  0  0  0  0  0  0  0  0  0  0  0
    5.8660   -3.6160   23.5150 C   0  0  0  0  0  0  0  0  0  0  0  0
    5.0720   -3.4280   24.7300 C   0  0  0  0  0  0  0  0  0  0  0  0
    4.3170   -4.3490   25.0510 O   0  0  0  0  0  0  0  0  0  0  0  0
    5.1600   -2.2750   25.4770 N   0  0  0  0  0  0  0  0  0  0  0  0
    4.9970   -2.3360   26.8540 C   0  0  2  0  0  0  0  0  0  0  0  0
    4.3500   -1.3780   27.5930 C   0  0  0  0  0  0  0  0  0  0  0  0
    4.3130   -1.4350   28.9970 C   0  0  0  0  0  0  0  0  0  0  0  0
    3.6720   -0.4900   29.7690 C   0  0  0  0  0  0  0  0  0  0  0  0
    2.9710    0.6650   29.1400 C   0  0  0  0  0  0  0  0  0  0  0  0
    2.9980    0.7370   27.7370 N   0  0  0  0  0  0  0  0  0  0  0  0
    3.6890   -0.2930   27.0190 C   0  0  0  0  0  0  0  0  0  0  0  0
    6.1380   -2.7820   27.4050 C   0  0  0  0  0  0  0  0  0  0  0  0
    6.7570   -1.7600   28.0880 C   0  0  0  0  0  0  0  0  0  0  0  0
    7.9860   -2.0990   28.7220 C   0  0  0  0  0  0  0  0  0  0  0  0
    8.4850   -0.8470   29.4110 C   0  0  0  0  0  0  0  0  0  0  0  0
    8.4930   -3.4710   28.6070 C   0  0  0  0  0  0  0  0  0  0  0  0
    7.7540   -4.5250   27.8330 C   0  0  0  0  0  0  0  0  0  0  0  0
    8.3090   -5.9210   27.7270 C   0  0  0  0  0  0  0  0  0  0  0  0
    6.5680   -4.0990   27.2550 C   0  0  0  0  0  0  0  0  0  0  0  0
    5.9860   -5.1180   23.4030 C   0  0  0  0  0  0  0  0  0  0  0  0
    6.6220   -5.3970   22.2110 C   0  0  0  0  0  0  0  0  0  0  0  0
  1  2  1  0
  2  3  2  0
  2  4  1  0
  4  5  1  0
  5  6  1  0
  6  7  1  0
  7  8  1  0
  8  9  2  0
  8 10  1  0
 11 10  1  6
 11 12  1  0
 12 13  2  0
 13 14  1  0
 14 15  2  0
 15 16  1  0
 12 17  1  0
 16 17  2  0
 11 18  1  0
 18 19  2  0
 19 20  1  0
 20 21  1  0
 20 22  2  0
 22 23  1  0
 23 24  1  0
 18 25  1  0
 23 25  2  0
  7 26  1  0
  4 27  1  0
 26 27  1  0
M  END
