piperidine-amides-27651-covalent
     RDKit          3D

 26 28  0  0  0  0  0  0  0  0999 V2000
    7.0710   -3.3310   19.3500 C   0  0  0  0  0  0  0  0  0  0  0  0
    6.3940   -4.1700   20.3450 C   0  0  0  0  0  0  0  0  0  0  0  0
    5.3530   -4.7610   19.9600 O   0  0  0  0  0  0  0  0  0  0  0  0
    6.9250   -4.3340   21.6310 N   0  0  0  0  0  0  0  0  0  0  0  0
    6.6770   -5.5720   22.3450 C   0  0  0  0  0  0  0  0  0  0  0  0
    6.2160   -5.2670   23.7510 C   0  0  0  0  0  0  0  0  0  0  0  0
    6.1830   -3.7910   24.0560 C   0  0  0  0  0  0  0  0  0  0  0  0
    5.7100   -3.5500   25.4420 C   0  0  0  0  0  0  0  0  0  0  0  0
    4.4990   -3.2860   25.5580 O   0  0  0  0  0  0  0  0  0  0  0  0
    6.5040   -3.6060   26.6190 N   0  0  0  0  0  0  0  0  0  0  0  0
    7.7130   -4.3960   26.6250 C   0  0  0  0  0  0  0  0  0  0  0  0
    7.5470   -5.0720   27.9410 C   0  0  0  0  0  0  0  0  0  0  0  0
    6.4100   -4.6240   28.5250 C   0  0  0  0  0  0  0  0  0  0  0  0
    5.9270   -3.4400   27.9750 C   0  0  2  0  0  0  0  0  0  0  0  0
    4.5310   -3.3900   27.9240 C   0  0  0  0  0  0  0  0  0  0  0  0
    3.8940   -2.2460   27.4550 C   0  0  0  0  0  0  0  0  0  0  0  0
    2.5260   -2.3410   27.1060 C   0  0  0  0  0  0  0  0  0  0  0  0
    1.6280   -1.2330   26.5760 C   0  0  0  0  0  0  0  0  0  0  0  0
    2.3450    0.0780   26.4350 C   0  0  0  0  0  0  0  0  0  0  0  0
    3.7680    0.2260   26.7850 C   0  0  0  0  0  0  0  0  0  0  0  0
    4.6190   -0.8960   27.3050 C   0  0  0  0  0  0  0  0  0  0  0  0
    6.5540   -2.3690   28.5640 C   0  0  0  0  0  0  0  0  0  0  0  0
    7.1640   -1.3430   27.6340 C   0  0  0  0  0  0  0  0  0  0  0  0
    5.7460   -1.9300   29.5910 C   0  0  0  0  0  0  0  0  0  0  0  0
    7.4600   -3.1460   23.6580 C   0  0  0  0  0  0  0  0  0  0  0  0
    7.7200   -3.2780   22.2120 C   0  0  0  0  0  0  0  0  0  0  0  0
  1  2  1  0
  2  3  2  0
  2  4  1  0
  4  5  1  0
  5  6  1  0
  6  7  1  0
  7  8  1  0
  8  9  2  0
  8 10  1  0
 10 11  1  0
 11 12  1  0
 12 13  1  0
 10 14  1  0
 13 14  1  0
 14 15  1  6
 15 16  1  0
 16 17  2  0
 17 18  1  0
 18 19  2  0
 19 20  1  0
 16 21  1  0
 20 21  2  0
 14 22  1  0
 22 23  1  0
 22 24  1  0
  7 25  1  0
  4 26  1  0
 25 26  1  0
M  END
