piperidine-amides-34023-covalent
     RDKit          3D

 30 33  0  0  0  0  0  0  0  0999 V2000
    7.0310   -3.3420   19.3370 C   0  0  0  0  0  0  0  0  0  0  0  0
    6.3780   -4.1990   20.3470 C   0  0  0  0  0  0  0  0  0  0  0  0
    5.4140   -4.9200   20.0010 O   0  0  0  0  0  0  0  0  0  0  0  0
    6.8400   -4.2480   21.6780 N   0  0  0  0  0  0  0  0  0  0  0  0
    6.7010   -5.4980   22.4070 C   0  0  0  0  0  0  0  0  0  0  0  0
    6.1220   -5.1840   23.8000 C   0  0  0  0  0  0  0  0  0  0  0  0
    6.1480   -3.6820   23.9490 C   0  0  0  0  0  0  0  0  0  0  0  0
    5.6380   -3.2080   25.2630 C   0  0  0  0  0  0  0  0  0  0  0  0
    4.9000   -2.2070   25.2590 O   0  0  0  0  0  0  0  0  0  0  0  0
    5.9410   -3.8720   26.4730 N   0  0  0  0  0  0  0  0  0  0  0  0
    6.4180   -3.2130   27.6070 C   0  0  0  0  0  0  0  0  0  0  0  0
    6.7490   -4.4170   28.4880 C   0  0  0  0  0  0  0  0  0  0  0  0
    5.8620   -4.8520   29.4310 C   0  0  0  0  0  0  0  0  0  0  0  0
    6.2060   -5.7150   30.3010 O   0  0  0  0  0  0  0  0  0  0  0  0
    5.5680   -6.9260   30.3430 C   0  0  0  0  0  0  0  0  0  0  0  0
    5.6290   -7.5090   31.6080 C   0  0  0  0  0  0  0  0  0  0  0  0
    4.7160   -4.0630   29.6130 C   0  0  0  0  0  0  0  0  0  0  0  0
    3.6410   -4.7590   30.0380 N   0  0  0  0  0  0  0  0  0  0  0  0
    2.6510   -3.8490   30.1680 C   0  0  0  0  0  0  0  0  0  0  0  0
    1.3370   -4.4280   30.6480 C   0  0  1  0  0  0  0  0  0  0  0  0
    1.4780   -4.5330   32.1710 C   0  0  0  0  0  0  0  0  0  0  0  0
    0.1400   -5.1170   31.8570 C   0  0  0  0  0  0  0  0  0  0  0  0
   -0.4900   -4.2370   31.0030 C   0  0  0  0  0  0  0  0  0  0  0  0
    0.3140   -3.7860   30.2440 O   0  0  0  0  0  0  0  0  0  0  0  0
    3.1070   -2.6200   29.8300 N   0  0  0  0  0  0  0  0  0  0  0  0
    4.3580   -2.7320   29.4890 O   0  0  0  0  0  0  0  0  0  0  0  0
    5.7990   -5.5460   28.2290 C   0  0  0  0  0  0  0  0  0  0  0  0
    5.1760   -4.8890   27.0170 C   0  0  0  0  0  0  0  0  0  0  0  0
    7.5130   -3.1040   23.6870 C   0  0  0  0  0  0  0  0  0  0  0  0
    7.7120   -3.1980   22.1740 C   0  0  0  0  0  0  0  0  0  0  0  0
  1  2  1  0
  2  3  2  0
  2  4  1  0
  4  5  1  0
  5  6  1  0
  6  7  1  0
  7  8  1  0
  8  9  2  0
  8 10  1  0
 10 11  1  0
 11 12  1  0
 12 13  1  0
 13 14  1  0
 14 15  1  0
 15 16  1  0
 13 17  1  0
 17 18  2  0
 18 19  1  0
 20 19  1  1
 20 21  1  0
 21 22  1  0
 22 23  1  0
 20 24  1  0
 23 24  1  0
 19 25  2  0
 17 26  1  0
 25 26  1  0
 13 27  1  0
 10 28  1  0
 27 28  1  0
  7 29  1  0
  4 30  1  0
 29 30  1  0
M  END
