piperidine-amides-4276-covalent
     RDKit          3D

 26 28  0  0  0  0  0  0  0  0999 V2000
    7.1490   -3.2770   19.1280 C   0  0  0  0  0  0  0  0  0  0  0  0
    6.4080   -4.0000   20.1730 C   0  0  0  0  0  0  0  0  0  0  0  0
    5.2900   -4.4750   19.8570 O   0  0  0  0  0  0  0  0  0  0  0  0
    6.9670   -4.2150   21.4520 N   0  0  0  0  0  0  0  0  0  0  0  0
    6.4780   -5.3080   22.2080 C   0  0  0  0  0  0  0  0  0  0  0  0
    5.9370   -4.9370   23.5140 C   0  0  0  0  0  0  0  0  0  0  0  0
    6.5220   -3.7200   24.1200 C   0  0  0  0  0  0  0  0  0  0  0  0
    5.7180   -3.2820   25.2890 C   0  0  0  0  0  0  0  0  0  0  0  0
    4.5290   -2.9520   25.1240 O   0  0  0  0  0  0  0  0  0  0  0  0
    6.2690   -3.2370   26.5750 N   0  0  0  0  0  0  0  0  0  0  0  0
    5.5510   -3.0570   27.7690 C   0  0  2  0  0  0  0  0  0  0  0  0
    6.1360   -2.2110   28.8090 C   0  0  0  0  0  0  0  0  0  0  0  0
    5.2260   -1.4530   29.7810 C   0  0  0  0  0  0  0  0  0  0  0  0
    5.9620   -0.7120   30.6560 C   0  0  0  0  0  0  0  0  0  0  0  0
    7.3670   -1.0550   30.1740 C   0  0  0  0  0  0  0  0  0  0  0  0
    7.3620   -1.9440   29.0880 O   0  0  0  0  0  0  0  0  0  0  0  0
    5.0970   -4.3900   28.3010 C   0  0  0  0  0  0  0  0  0  0  0  0
    6.5570   -4.7170   28.3650 C   0  0  0  0  0  0  0  0  0  0  0  0
    6.8620   -6.0910   28.8590 C   0  0  0  0  0  0  0  0  0  0  0  0
    5.6730   -6.9670   29.2370 C   0  0  0  0  0  0  0  0  0  0  0  0
    4.1900   -6.5220   29.1370 C   0  0  0  0  0  0  0  0  0  0  0  0
    3.9760   -5.1270   28.6250 C   0  0  0  0  0  0  0  0  0  0  0  0
    2.7120   -4.5840   28.4730 O   0  0  0  0  0  0  0  0  0  0  0  0
    1.5970   -5.3830   28.0590 C   0  0  0  0  0  0  0  0  0  0  0  0
    6.8100   -2.6080   23.1880 C   0  0  0  0  0  0  0  0  0  0  0  0
    7.6750   -3.1340   22.0840 C   0  0  0  0  0  0  0  0  0  0  0  0
  1  2  1  0
  2  3  2  0
  2  4  1  0
  4  5  1  0
  5  6  1  0
  6  7  1  0
  7  8  1  0
  8  9  2  0
  8 10  1  0
 11 10  1  6
 11 12  1  0
 12 13  2  0
 13 14  1  0
 14 15  2  0
 12 16  1  0
 15 16  1  0
 11 17  1  0
 17 18  2  0
 18 19  1  0
 19 20  2  0
 20 21  1  0
 17 22  1  0
 21 22  2  0
 22 23  1  0
 23 24  1  0
  7 25  1  0
  4 26  1  0
 25 26  1  0
M  END
