piperidine-amides-594-covalent
     RDKit          3D

 26 28  0  0  0  0  0  0  0  0999 V2000
    7.0120   -3.3930   19.3430 C   0  0  0  0  0  0  0  0  0  0  0  0
    6.3590   -4.1670   20.3830 C   0  0  0  0  0  0  0  0  0  0  0  0
    5.4020   -4.9090   20.0030 O   0  0  0  0  0  0  0  0  0  0  0  0
    6.7410   -4.1750   21.7550 N   0  0  0  0  0  0  0  0  0  0  0  0
    7.6590   -3.0840   22.2140 C   0  0  0  0  0  0  0  0  0  0  0  0
    7.4780   -3.0520   23.7930 C   0  0  0  0  0  0  0  0  0  0  0  0
    6.1430   -3.6930   24.0720 C   0  0  0  0  0  0  0  0  0  0  0  0
    5.5060   -3.3570   25.5100 C   0  0  0  0  0  0  0  0  0  0  0  0
    4.5300   -4.0660   25.6900 O   0  0  0  0  0  0  0  0  0  0  0  0
    6.1480   -2.4310   26.1130 N   0  0  0  0  0  0  0  0  0  0  0  0
    6.7800   -1.3940   26.7550 C   0  0  2  0  0  0  0  0  0  0  0  0
    7.1660   -0.8750   27.9800 C   0  0  0  0  0  0  0  0  0  0  0  0
    6.2440   -1.0190   28.9950 C   0  0  0  0  0  0  0  0  0  0  0  0
    5.1940   -0.0620   28.7150 C   0  0  0  0  0  0  0  0  0  0  0  0
    4.9440    0.1530   27.3510 N   0  0  0  0  0  0  0  0  0  0  0  0
    3.9780    1.1580   26.8790 C   0  0  0  0  0  0  0  0  0  0  0  0
    4.6350    2.0810   26.0310 C   0  0  0  0  0  0  0  0  0  0  0  0
    4.2400    3.2520   25.2890 C   0  0  0  0  0  0  0  0  0  0  0  0
    2.7410    3.2450   25.6970 C   0  0  0  0  0  0  0  0  0  0  0  0
    1.9490    2.2740   26.6140 C   0  0  0  0  0  0  0  0  0  0  0  0
    2.6250    1.2670   27.1640 C   0  0  0  0  0  0  0  0  0  0  0  0
    2.0540    0.4400   27.9200 O   0  0  0  0  0  0  0  0  0  0  0  0
    1.7070    0.7730   29.2410 C   0  0  0  0  0  0  0  0  0  0  0  0
    6.0460   -0.0370   26.4520 C   0  0  0  0  0  0  0  0  0  0  0  0
    6.0310   -5.1340   23.7060 C   0  0  0  0  0  0  0  0  0  0  0  0
    6.6890   -5.4000   22.5080 C   0  0  0  0  0  0  0  0  0  0  0  0
  1  2  1  0
  2  3  2  0
  2  4  1  0
  4  5  1  0
  5  6  1  0
  6  7  1  0
  7  8  1  0
  8  9  2  0
  8 10  1  0
 11 10  1  1
 11 12  1  0
 12 13  1  0
 13 14  1  0
 14 15  1  0
 15 16  1  0
 16 17  2  0
 17 18  1  0
 18 19  2  0
 19 20  1  0
 16 21  1  0
 20 21  2  0
 21 22  1  0
 22 23  1  0
 11 24  1  0
 15 24  1  0
  7 25  1  0
  4 26  1  0
 25 26  1  0
M  END
