piperidine-amides-1224-covalent
     RDKit          3D

 23 24  0  0  0  0  0  0  0  0999 V2000
    7.1010   -3.2600   19.2110 C   0  0  0  0  0  0  0  0  0  0  0  0
    6.3260   -4.0160   20.2330 C   0  0  0  0  0  0  0  0  0  0  0  0
    5.2790   -4.5920   19.8950 O   0  0  0  0  0  0  0  0  0  0  0  0
    6.8210   -4.0990   21.5500 N   0  0  0  0  0  0  0  0  0  0  0  0
    7.7190   -3.1010   22.1060 C   0  0  0  0  0  0  0  0  0  0  0  0
    7.5900   -3.0950   23.6330 C   0  0  0  0  0  0  0  0  0  0  0  0
    6.2110   -3.5500   23.9600 C   0  0  0  0  0  0  0  0  0  0  0  0
    5.8320   -3.3610   25.3750 C   0  0  0  0  0  0  0  0  0  0  0  0
    4.7410   -2.8070   25.5770 O   0  0  0  0  0  0  0  0  0  0  0  0
    6.6760   -3.7990   26.4020 N   0  0  0  0  0  0  0  0  0  0  0  0
    6.5680   -5.0400   27.0860 C   0  0  1  0  0  0  0  0  0  0  0  0
    7.5850   -5.6510   27.7430 C   0  0  0  0  0  0  0  0  0  0  0  0
    8.8480   -5.3380   27.3620 C   0  0  0  0  0  0  0  0  0  0  0  0
    9.3150   -5.8380   26.1830 C   0  0  0  0  0  0  0  0  0  0  0  0
    5.4300   -4.8420   27.9920 C   0  0  0  0  0  0  0  0  0  0  0  0
    5.2750   -5.6820   29.2680 C   0  0  0  0  0  0  0  0  0  0  0  0
    4.1580   -5.2170   30.1570 C   0  0  0  0  0  0  0  0  0  0  0  0
    3.9170   -5.8850   31.3310 C   0  0  0  0  0  0  0  0  0  0  0  0
    4.6770   -7.0740   31.8420 C   0  0  0  0  0  0  0  0  0  0  0  0
    5.7900   -7.4420   30.8350 C   0  0  0  0  0  0  0  0  0  0  0  0
    6.0890   -6.8220   29.6430 C   0  0  0  0  0  0  0  0  0  0  0  0
    5.9540   -4.9830   23.6100 C   0  0  0  0  0  0  0  0  0  0  0  0
    6.6150   -5.3260   22.2990 C   0  0  0  0  0  0  0  0  0  0  0  0
  1  2  1  0
  2  3  2  0
  2  4  1  0
  4  5  1  0
  5  6  1  0
  6  7  1  0
  7  8  1  0
  8  9  2  0
  8 10  1  0
 10 11  1  0
 11 12  1  1
 12 13  1  0
 13 14  1  0
 11 15  1  0
 15 16  1  0
 16 17  2  0
 17 18  1  0
 18 19  2  0
 19 20  1  0
 16 21  1  0
 20 21  2  0
  7 22  1  0
  4 23  1  0
 22 23  1  0
M  END
