piperidine-amides-26050-covalent
     RDKit          3D

 25 27  0  0  0  0  0  0  0  0999 V2000
    7.1480   -3.2310   19.2130 C   0  0  0  0  0  0  0  0  0  0  0  0
    6.3770   -3.9350   20.2410 C   0  0  0  0  0  0  0  0  0  0  0  0
    5.3360   -4.5260   19.8930 O   0  0  0  0  0  0  0  0  0  0  0  0
    6.7920   -4.0110   21.5880 N   0  0  0  0  0  0  0  0  0  0  0  0
    6.4080   -5.1090   22.4190 C   0  0  0  0  0  0  0  0  0  0  0  0
    5.7310   -4.5120   23.6380 C   0  0  0  0  0  0  0  0  0  0  0  0
    6.2350   -3.1560   24.0860 C   0  0  0  0  0  0  0  0  0  0  0  0
    5.9680   -2.9050   25.5460 C   0  0  0  0  0  0  0  0  0  0  0  0
    4.7760   -2.6370   25.8900 O   0  0  0  0  0  0  0  0  0  0  0  0
    6.9230   -2.9510   26.6200 N   0  0  0  0  0  0  0  0  0  0  0  0
    7.8300   -1.8490   26.9240 C   0  0  0  0  0  0  0  0  0  0  0  0
    7.0630   -4.1860   27.3970 C   0  0  0  0  0  0  0  0  0  0  0  0
    6.0230   -4.3890   28.3980 C   0  0  0  0  0  0  0  0  0  0  0  0
    8.3660   -4.5310   28.0480 C   0  0  0  0  0  0  0  0  0  0  0  0
    6.7790   -5.1600   26.4170 C   0  0  0  0  0  0  0  0  0  0  0  0
    5.3540   -5.5990   26.2460 C   0  0  0  0  0  0  0  0  0  0  0  0
    5.0130   -6.5250   25.3350 C   0  0  0  0  0  0  0  0  0  0  0  0
    5.9850   -7.0720   24.5520 C   0  0  0  0  0  0  0  0  0  0  0  0
    7.4350   -6.7780   24.5490 C   0  0  0  0  0  0  0  0  0  0  0  0
    7.8670   -5.7520   25.5460 C   0  0  0  0  0  0  0  0  0  0  0  0
    8.1060   -7.5210   23.6270 O   0  0  0  0  0  0  0  0  0  0  0  0
    6.9960   -8.0390   22.9510 C   0  0  0  0  0  0  0  0  0  0  0  0
    5.7890   -8.0030   23.6290 O   0  0  0  0  0  0  0  0  0  0  0  0
    7.6350   -2.9350   23.6070 C   0  0  0  0  0  0  0  0  0  0  0  0
    7.6290   -2.9770   22.1190 C   0  0  0  0  0  0  0  0  0  0  0  0
  1  2  1  0
  2  3  2  0
  2  4  1  0
  4  5  1  0
  5  6  1  0
  6  7  1  0
  7  8  1  0
  8  9  2  0
  8 10  1  0
 10 11  1  0
 12 10  1  0
 12 13  1  0
 12 14  1  0
 12 15  1  0
 15 16  2  0
 16 17  1  0
 17 18  2  0
 18 19  1  0
 15 20  1  0
 19 20  2  0
 19 21  1  0
 21 22  1  0
 18 23  1  0
 22 23  1  0
  7 24  1  0
  4 25  1  0
 24 25  1  0
M  END
