piperidine-amides-27093-covalent
     RDKit          3D

 26 29  0  0  0  0  0  0  0  0999 V2000
    7.0500   -3.3920   19.4270 C   0  0  0  0  0  0  0  0  0  0  0  0
    6.3770   -4.2370   20.4140 C   0  0  0  0  0  0  0  0  0  0  0  0
    5.3820   -4.8880   19.9940 O   0  0  0  0  0  0  0  0  0  0  0  0
    6.8660   -4.3330   21.7240 N   0  0  0  0  0  0  0  0  0  0  0  0
    6.5410   -5.4540   22.5720 C   0  0  0  0  0  0  0  0  0  0  0  0
    5.6790   -4.9590   23.7150 C   0  0  0  0  0  0  0  0  0  0  0  0
    6.2400   -3.7510   24.4480 C   0  0  0  0  0  0  0  0  0  0  0  0
    5.2570   -3.2020   25.4560 C   0  0  0  0  0  0  0  0  0  0  0  0
    4.4030   -2.4020   25.0470 O   0  0  0  0  0  0  0  0  0  0  0  0
    5.2490   -3.5640   26.8420 N   0  0  0  0  0  0  0  0  0  0  0  0
    4.5670   -2.8430   27.8970 C   0  0  0  0  0  0  0  0  0  0  0  0
    4.5630   -3.7070   29.1700 C   0  0  0  0  0  0  0  0  0  0  0  0
    5.2890   -4.8490   29.1980 C   0  0  0  0  0  0  0  0  0  0  0  0
    6.1440   -5.1220   28.2620 C   0  0  0  0  0  0  0  0  0  0  0  0
    6.7360   -6.3130   28.5300 C   0  0  0  0  0  0  0  0  0  0  0  0
    6.2280   -6.8340   29.6790 N   0  0  0  0  0  0  0  0  0  0  0  0
    5.3340   -5.8920   30.0480 N   0  0  0  0  0  0  0  0  0  0  0  0
    4.5190   -6.0250   31.2350 C   0  0  0  0  0  0  0  0  0  0  0  0
    3.3020   -5.3300   31.4480 C   0  0  0  0  0  0  0  0  0  0  0  0
    2.3160   -5.3350   32.6090 C   0  0  0  0  0  0  0  0  0  0  0  0
    2.6830   -6.2360   33.7470 C   0  0  0  0  0  0  0  0  0  0  0  0
    3.9390   -6.9990   33.6070 C   0  0  0  0  0  0  0  0  0  0  0  0
    4.8690   -6.9430   32.4210 C   0  0  0  0  0  0  0  0  0  0  0  0
    6.3390   -4.2940   27.2190 C   0  0  0  0  0  0  0  0  0  0  0  0
    6.6290   -2.6840   23.4270 C   0  0  0  0  0  0  0  0  0  0  0  0
    7.5810   -3.2640   22.3860 C   0  0  0  0  0  0  0  0  0  0  0  0
  1  2  1  0
  2  3  2  0
  2  4  1  0
  4  5  1  0
  5  6  1  0
  6  7  1  0
  7  8  1  0
  8  9  2  0
  8 10  1  0
 10 11  1  0
 11 12  1  0
 12 13  1  0
 13 14  2  0
 14 15  1  0
 15 16  2  0
 13 17  1  0
 16 17  1  0
 17 18  1  0
 18 19  2  0
 19 20  1  0
 20 21  2  0
 21 22  1  0
 18 23  1  0
 22 23  2  0
 10 24  1  0
 14 24  1  0
  7 25  1  0
  4 26  1  0
 25 26  1  0
M  END
