piperidine-amides-27583-covalent
     RDKit          3D

 26 29  0  0  0  0  0  0  0  0999 V2000
    6.9920   -3.3630   19.3970 C   0  0  0  0  0  0  0  0  0  0  0  0
    6.3650   -4.2360   20.3950 C   0  0  0  0  0  0  0  0  0  0  0  0
    5.3850   -4.9160   19.9940 O   0  0  0  0  0  0  0  0  0  0  0  0
    6.8630   -4.3300   21.7040 N   0  0  0  0  0  0  0  0  0  0  0  0
    6.6460   -5.5130   22.4980 C   0  0  0  0  0  0  0  0  0  0  0  0
    5.8730   -5.1230   23.7350 C   0  0  0  0  0  0  0  0  0  0  0  0
    6.3460   -3.8360   24.3740 C   0  0  0  0  0  0  0  0  0  0  0  0
    5.2740   -3.3110   25.2900 C   0  0  0  0  0  0  0  0  0  0  0  0
    4.2490   -2.8780   24.7410 O   0  0  0  0  0  0  0  0  0  0  0  0
    5.3220   -3.2730   26.7210 N   0  0  0  0  0  0  0  0  0  0  0  0
    6.5420   -3.2520   27.3830 C   0  0  0  0  0  0  0  0  0  0  0  0
    6.5970   -4.5090   28.2630 C   0  0  0  0  0  0  0  0  0  0  0  0
    5.4930   -4.8630   28.8990 C   0  0  0  0  0  0  0  0  0  0  0  0
    5.2390   -5.7180   29.8750 N   0  0  0  0  0  0  0  0  0  0  0  0
    3.9090   -5.7150   30.1660 C   0  0  0  0  0  0  0  0  0  0  0  0
    3.2430   -4.8150   29.3440 N   0  0  0  0  0  0  0  0  0  0  0  0
    4.3330   -4.3200   28.5670 C   0  0  0  0  0  0  0  0  0  0  0  0
    4.1640   -3.3610   27.5550 C   0  0  1  0  0  0  0  0  0  0  0  0
    3.8530   -2.0910   28.0050 C   0  0  0  0  0  0  0  0  0  0  0  0
    4.0830   -1.7240   29.4330 C   0  0  0  0  0  0  0  0  0  0  0  0
    3.6400   -0.3040   29.5560 C   0  0  0  0  0  0  0  0  0  0  0  0
    3.2140    0.0720   28.3200 N   0  0  0  0  0  0  0  0  0  0  0  0
    3.3440   -0.9610   27.4570 N   0  0  0  0  0  0  0  0  0  0  0  0
    2.9570   -0.8200   26.0690 C   0  0  0  0  0  0  0  0  0  0  0  0
    6.6800   -2.7860   23.3380 C   0  0  0  0  0  0  0  0  0  0  0  0
    7.5710   -3.2460   22.3870 C   0  0  0  0  0  0  0  0  0  0  0  0
  1  2  1  0
  2  3  2  0
  2  4  1  0
  4  5  1  0
  5  6  1  0
  6  7  1  0
  7  8  1  0
  8  9  2  0
  8 10  1  0
 10 11  1  0
 11 12  1  0
 12 13  1  0
 13 14  1  0
 14 15  1  0
 15 16  2  0
 13 17  2  0
 16 17  1  0
 10 18  1  0
 17 18  1  0
 18 19  1  1
 19 20  2  0
 20 21  1  0
 21 22  2  0
 19 23  1  0
 22 23  1  0
 23 24  1  0
  7 25  1  0
  4 26  1  0
 25 26  1  0
M  END
