piperidine-amides-10411-covalent
     RDKit          3D

 24 25  0  0  0  0  0  0  0  0999 V2000
    7.1560   -3.2760   19.1690 C   0  0  0  0  0  0  0  0  0  0  0  0
    6.3520   -3.9640   20.1760 C   0  0  0  0  0  0  0  0  0  0  0  0
    5.2310   -4.4030   19.8180 O   0  0  0  0  0  0  0  0  0  0  0  0
    6.8670   -4.1620   21.4480 N   0  0  0  0  0  0  0  0  0  0  0  0
    7.7160   -3.1740   22.0700 C   0  0  0  0  0  0  0  0  0  0  0  0
    7.0860   -2.8060   23.3690 C   0  0  0  0  0  0  0  0  0  0  0  0
    6.6720   -4.0330   24.1350 C   0  0  0  0  0  0  0  0  0  0  0  0
    5.7670   -3.6200   25.1990 C   0  0  0  0  0  0  0  0  0  0  0  0
    4.6760   -3.0750   24.9010 O   0  0  0  0  0  0  0  0  0  0  0  0
    6.0860   -3.8100   26.5320 N   0  0  0  0  0  0  0  0  0  0  0  0
    5.9240   -2.7130   27.4130 C   0  0  0  0  0  0  0  0  0  0  0  0
    6.7830   -2.8660   28.6230 C   0  0  2  0  0  0  0  0  0  0  0  0
    7.7510   -1.9100   28.8670 C   0  0  0  0  0  0  0  0  0  0  0  0
    7.5770   -0.8570   29.7440 C   0  0  0  0  0  0  0  0  0  0  0  0
    8.3810    0.2730   29.5580 C   0  0  0  0  0  0  0  0  0  0  0  0
    7.7240    1.4710   29.4970 C   0  0  0  0  0  0  0  0  0  0  0  0
    6.3970    1.2250   29.5850 C   0  0  0  0  0  0  0  0  0  0  0  0
    6.1790   -0.2620   29.6810 C   0  0  0  0  0  0  0  0  0  0  0  0
    7.0690   -4.2450   28.7090 C   0  0  0  0  0  0  0  0  0  0  0  0
    6.1130   -5.0280   28.9010 O   0  0  0  0  0  0  0  0  0  0  0  0
    8.0820   -4.6920   28.6190 O   0  0  0  0  0  0  0  0  0  0  0  0
    8.3700   -5.8770   27.9400 C   0  0  0  0  0  0  0  0  0  0  0  0
    5.9110   -5.0380   23.3170 C   0  0  0  0  0  0  0  0  0  0  0  0
    6.6140   -5.3860   22.1960 C   0  0  0  0  0  0  0  0  0  0  0  0
  1  2  1  0
  2  3  2  0
  2  4  1  0
  4  5  1  0
  5  6  1  0
  6  7  1  0
  7  8  1  0
  8  9  2  0
  8 10  1  0
 10 11  1  0
 12 11  1  6
 12 13  1  0
 13 14  1  0
 14 15  1  0
 15 16  1  0
 16 17  1  0
 14 18  1  0
 17 18  1  0
 12 19  1  0
 19 20  2  0
 19 21  1  0
 21 22  1  0
  7 23  1  0
  4 24  1  0
 23 24  1  0
M  END
