piperidine-amides-28877-covalent
     RDKit          3D

 25 26  0  0  0  0  0  0  0  0999 V2000
    7.1490   -3.2920   19.2130 C   0  0  0  0  0  0  0  0  0  0  0  0
    6.4320   -4.0790   20.2140 C   0  0  0  0  0  0  0  0  0  0  0  0
    5.3320   -4.5640   19.9010 O   0  0  0  0  0  0  0  0  0  0  0  0
    7.0290   -4.3220   21.4770 N   0  0  0  0  0  0  0  0  0  0  0  0
    7.7520   -3.2640   22.1100 C   0  0  0  0  0  0  0  0  0  0  0  0
    6.8860   -2.6980   23.1770 C   0  0  0  0  0  0  0  0  0  0  0  0
    6.5700   -3.8360   24.1230 C   0  0  0  0  0  0  0  0  0  0  0  0
    5.8010   -3.2860   25.2580 C   0  0  0  0  0  0  0  0  0  0  0  0
    4.5910   -3.1570   25.0830 O   0  0  0  0  0  0  0  0  0  0  0  0
    6.4710   -2.9620   26.4100 N   0  0  0  0  0  0  0  0  0  0  0  0
    6.7810   -1.5760   26.5950 C   0  0  0  0  0  0  0  0  0  0  0  0
    6.0360   -3.6880   27.5490 C   0  0  2  0  0  0  0  0  0  0  0  0
    5.8270   -2.8040   28.5970 C   0  0  0  0  0  0  0  0  0  0  0  0
    4.5340   -2.7570   29.1410 C   0  0  0  0  0  0  0  0  0  0  0  0
    4.2370   -1.8060   30.2700 C   0  0  0  0  0  0  0  0  0  0  0  0
    5.3300   -0.8840   30.8400 C   0  0  0  0  0  0  0  0  0  0  0  0
    5.0070    0.2400   32.1700 Cl  0  0  0  0  0  0  0  0  0  0  0  0
    6.6510   -1.0030   30.2110 C   0  0  0  0  0  0  0  0  0  0  0  0
    6.8260   -1.9790   29.1000 C   0  0  0  0  0  0  0  0  0  0  0  0
    6.5690   -4.9740   27.7430 C   0  0  0  0  0  0  0  0  0  0  0  0
    7.2070   -4.6400   28.8700 C   0  0  0  0  0  0  0  0  0  0  0  0
    5.5970   -5.9120   27.9830 C   0  0  0  0  0  0  0  0  0  0  0  0
    7.6210   -5.6610   26.8840 C   0  0  0  0  0  0  0  0  0  0  0  0
    5.7450   -4.9140   23.4070 C   0  0  0  0  0  0  0  0  0  0  0  0
    6.6100   -5.4230   22.2810 C   0  0  0  0  0  0  0  0  0  0  0  0
  1  2  1  0
  2  3  2  0
  2  4  1  0
  4  5  1  0
  5  6  1  0
  6  7  1  0
  7  8  1  0
  8  9  2  0
  8 10  1  0
 10 11  1  0
 12 10  1  6
 12 13  1  0
 13 14  2  0
 14 15  1  0
 15 16  2  0
 16 17  1  0
 16 18  1  0
 13 19  1  0
 18 19  2  0
 12 20  1  0
 20 21  1  0
 20 22  1  0
 20 23  1  0
  7 24  1  0
  4 25  1  0
 24 25  1  0
M  END
