piperidine-amides-29593-covalent
     RDKit          3D

 27 30  0  0  0  0  0  0  0  0999 V2000
    7.0130   -3.3900   19.4840 C   0  0  0  0  0  0  0  0  0  0  0  0
    6.3330   -4.2660   20.4380 C   0  0  0  0  0  0  0  0  0  0  0  0
    5.4240   -4.9880   20.0190 O   0  0  0  0  0  0  0  0  0  0  0  0
    6.7270   -4.3200   21.8370 N   0  0  0  0  0  0  0  0  0  0  0  0
    7.5440   -3.2670   22.4210 C   0  0  0  0  0  0  0  0  0  0  0  0
    7.0920   -2.9150   23.8270 C   0  0  0  0  0  0  0  0  0  0  0  0
    5.7500   -3.5950   24.0630 C   0  0  0  0  0  0  0  0  0  0  0  0
    4.9540   -3.1380   25.2960 C   0  0  0  0  0  0  0  0  0  0  0  0
    3.8830   -2.5460   25.1210 O   0  0  0  0  0  0  0  0  0  0  0  0
    5.3210   -3.3330   26.6730 N   0  0  0  0  0  0  0  0  0  0  0  0
    4.5440   -2.7700   27.7770 C   0  0  0  0  0  0  0  0  0  0  0  0
    5.0040   -3.4090   29.0930 C   0  0  0  0  0  0  0  0  0  0  0  0
    5.5750   -4.6300   28.9660 C   0  0  0  0  0  0  0  0  0  0  0  0
    6.4150   -4.7820   27.9350 C   0  0  0  0  0  0  0  0  0  0  0  0
    6.9110   -6.1050   27.9050 N   0  0  0  0  0  0  0  0  0  0  0  0
    6.3190   -6.7530   29.0140 C   0  0  0  0  0  0  0  0  0  0  0  0
    5.4890   -5.7570   29.6370 N   0  0  0  0  0  0  0  0  0  0  0  0
    4.7940   -6.1930   30.7790 C   0  0  0  0  0  0  0  0  0  0  0  0
    5.1550   -7.2820   31.5540 C   0  0  0  0  0  0  0  0  0  0  0  0
    4.4690   -7.6960   32.6670 C   0  0  0  0  0  0  0  0  0  0  0  0
    3.3390   -7.0560   33.1260 C   0  0  0  0  0  0  0  0  0  0  0  0
    2.6370   -7.4350   34.2200 F   0  0  0  0  0  0  0  0  0  0  0  0
    2.9550   -5.9070   32.3110 C   0  0  0  0  0  0  0  0  0  0  0  0
    3.6570   -5.4980   31.1850 C   0  0  0  0  0  0  0  0  0  0  0  0
    6.6070   -3.5350   27.0840 C   0  0  0  0  0  0  0  0  0  0  0  0
    5.9200   -5.1000   23.9770 C   0  0  0  0  0  0  0  0  0  0  0  0
    6.5370   -5.5220   22.6200 C   0  0  0  0  0  0  0  0  0  0  0  0
  1  2  1  0
  2  3  2  0
  2  4  1  0
  4  5  1  0
  5  6  1  0
  6  7  1  0
  7  8  1  0
  8  9  2  0
  8 10  1  0
 10 11  1  0
 11 12  1  0
 12 13  1  0
 13 14  2  0
 14 15  1  0
 15 16  2  0
 13 17  1  0
 16 17  1  0
 17 18  1  0
 18 19  2  0
 19 20  1  0
 20 21  2  0
 21 22  1  0
 21 23  1  0
 18 24  1  0
 23 24  2  0
 10 25  1  0
 14 25  1  0
  7 26  1  0
  4 27  1  0
 26 27  1  0
M  END
