piperidine-amides-18894-covalent
     RDKit          3D

 21 21  0  0  0  0  0  0  0  0999 V2000
    7.1140   -3.3570   19.2320 C   0  0  0  0  0  0  0  0  0  0  0  0
    6.3460   -4.0280   20.2500 C   0  0  0  0  0  0  0  0  0  0  0  0
    5.2550   -4.5650   19.8960 O   0  0  0  0  0  0  0  0  0  0  0  0
    6.7990   -4.1590   21.5790 N   0  0  0  0  0  0  0  0  0  0  0  0
    6.4050   -5.3850   22.2970 C   0  0  0  0  0  0  0  0  0  0  0  0
    5.4020   -4.7370   23.3270 C   0  0  0  0  0  0  0  0  0  0  0  0
    6.2070   -3.7250   24.1200 C   0  0  0  0  0  0  0  0  0  0  0  0
    5.3970   -3.4060   25.4520 C   0  0  0  0  0  0  0  0  0  0  0  0
    4.2220   -3.7320   25.3440 O   0  0  0  0  0  0  0  0  0  0  0  0
    6.1950   -2.8730   26.2910 N   0  0  0  0  0  0  0  0  0  0  0  0
    6.9570   -1.8870   26.8620 C   0  0  0  0  0  0  0  0  0  0  0  0
    6.5300   -3.9120   27.1820 C   0  0  0  0  0  0  0  0  0  0  0  0
    6.4700   -3.7360   28.5880 C   0  0  0  0  0  0  0  0  0  0  0  0
    6.0090   -5.3220   26.8440 C   0  0  0  0  0  0  0  0  0  0  0  0
    8.0040   -4.0670   27.3360 C   0  0  0  0  0  0  0  0  0  0  0  0
    8.5990   -4.1950   26.0770 C   0  0  0  0  0  0  0  0  0  0  0  0
    8.5600   -3.3190   25.1910 O   0  0  0  0  0  0  0  0  0  0  0  0
    9.2900   -5.3550   25.8220 O   0  0  0  0  0  0  0  0  0  0  0  0
    9.3460   -6.3020   26.7870 C   0  0  0  0  0  0  0  0  0  0  0  0
    6.8060   -2.6320   23.4010 C   0  0  0  0  0  0  0  0  0  0  0  0
    7.6480   -3.2660   22.2590 C   0  0  0  0  0  0  0  0  0  0  0  0
  1  2  1  0
  2  3  2  0
  2  4  1  0
  4  5  1  0
  5  6  1  0
  6  7  1  0
  7  8  1  0
  8  9  2  0
  8 10  1  0
 10 11  1  0
 12 10  1  0
 12 13  1  0
 12 14  1  0
 12 15  1  0
 15 16  1  0
 16 17  2  0
 16 18  1  0
 18 19  1  0
  7 20  1  0
  4 21  1  0
 20 21  1  0
M  END
