piperidine-amides-29778-covalent
     RDKit          3D

 27 29  0  0  0  0  0  0  0  0999 V2000
    7.0890   -3.3570   19.3500 C   0  0  0  0  0  0  0  0  0  0  0  0
    6.3670   -4.1760   20.3110 C   0  0  0  0  0  0  0  0  0  0  0  0
    5.3600   -4.7910   19.9690 O   0  0  0  0  0  0  0  0  0  0  0  0
    6.8750   -4.3040   21.6490 N   0  0  0  0  0  0  0  0  0  0  0  0
    7.6190   -3.2310   22.2530 C   0  0  0  0  0  0  0  0  0  0  0  0
    6.8410   -2.6520   23.4020 C   0  0  0  0  0  0  0  0  0  0  0  0
    6.5380   -3.7830   24.3630 C   0  0  0  0  0  0  0  0  0  0  0  0
    5.7570   -3.2790   25.5420 C   0  0  0  0  0  0  0  0  0  0  0  0
    4.5240   -3.1160   25.4650 O   0  0  0  0  0  0  0  0  0  0  0  0
    6.3990   -2.9720   26.7860 N   0  0  0  0  0  0  0  0  0  0  0  0
    6.3050   -3.9160   27.8910 C   0  0  0  0  0  0  0  0  0  0  0  0
    5.9280   -5.2960   27.4360 C   0  0  0  0  0  0  0  0  0  0  0  0
    6.2250   -6.3470   28.2780 C   0  0  0  0  0  0  0  0  0  0  0  0
    6.1040   -1.6240   27.3790 C   0  0  0  0  0  0  0  0  0  0  0  0
    5.9060   -0.6060   26.4980 C   0  0  0  0  0  0  0  0  0  0  0  0
    5.7840    0.7260   27.0930 C   0  0  0  0  0  0  0  0  0  0  0  0
    5.6160    0.6630   28.4410 N   0  0  0  0  0  0  0  0  0  0  0  0
    4.4110    0.8500   29.2110 C   0  0  0  0  0  0  0  0  0  0  0  0
    3.1560    0.6440   28.6610 C   0  0  0  0  0  0  0  0  0  0  0  0
    2.0190    0.8410   29.4580 C   0  0  0  0  0  0  0  0  0  0  0  0
    2.2360    1.2600   30.8500 C   0  0  0  0  0  0  0  0  0  0  0  0
    3.4980    1.4560   31.3670 C   0  0  0  0  0  0  0  0  0  0  0  0
    4.5770    1.2460   30.5310 C   0  0  0  0  0  0  0  0  0  0  0  0
    6.5420   -0.1120   29.2180 C   0  0  0  0  0  0  0  0  0  0  0  0
    6.9770   -1.3120   28.3780 C   0  0  0  0  0  0  0  0  0  0  0  0
    5.8490   -4.9300   23.6830 C   0  0  0  0  0  0  0  0  0  0  0  0
    6.5290   -5.4460   22.4540 C   0  0  0  0  0  0  0  0  0  0  0  0
  1  2  1  0
  2  3  2  0
  2  4  1  0
  4  5  1  0
  5  6  1  0
  6  7  1  0
  7  8  1  0
  8  9  2  0
  8 10  1  0
 10 11  1  0
 11 12  1  0
 12 13  1  0
 10 14  1  0
 14 15  1  0
 15 16  1  0
 16 17  1  0
 17 18  1  0
 18 19  2  0
 19 20  1  0
 20 21  2  0
 21 22  1  0
 18 23  1  0
 22 23  2  0
 17 24  1  0
 14 25  1  0
 24 25  1  0
  7 26  1  0
  4 27  1  0
 26 27  1  0
M  END
