piperidine-amides-33089-covalent
     RDKit          3D

 25 28  0  0  0  0  0  0  0  0999 V2000
    7.0270   -3.3540   19.3690 C   0  0  0  0  0  0  0  0  0  0  0  0
    6.3940   -4.2180   20.3790 C   0  0  0  0  0  0  0  0  0  0  0  0
    5.3990   -4.8830   19.9940 O   0  0  0  0  0  0  0  0  0  0  0  0
    6.9150   -4.3250   21.7020 N   0  0  0  0  0  0  0  0  0  0  0  0
    6.5120   -5.4240   22.5060 C   0  0  0  0  0  0  0  0  0  0  0  0
    6.7120   -5.2690   23.9650 C   0  0  0  0  0  0  0  0  0  0  0  0
    6.7070   -3.9040   24.5760 C   0  0  0  0  0  0  0  0  0  0  0  0
    5.6290   -3.8470   25.6780 C   0  0  0  0  0  0  0  0  0  0  0  0
    4.4670   -3.9610   25.2420 O   0  0  0  0  0  0  0  0  0  0  0  0
    5.7460   -3.6660   27.1520 N   0  0  0  0  0  0  0  0  0  0  0  0
    6.5410   -4.4630   28.1380 C   0  0  0  0  0  0  0  0  0  0  0  0
    5.8750   -4.2190   27.1300 C   0  0  0  0  0  0  0  0  0  0  0  0
    5.3930   -2.6520   27.0860 C   0  0  0  0  0  0  0  0  0  0  0  0
    5.7910   -1.5870   28.2750 C   0  0  0  0  0  0  0  0  0  0  0  0
    5.2840    0.2830   28.3360 Br  0  0  0  0  0  0  0  0  0  0  0  0
    6.7080   -2.1240   29.5250 C   0  0  0  0  0  0  0  0  0  0  0  0
    6.5870   -3.1880   28.8230 C   0  0  0  0  0  0  0  0  0  0  0  0
    5.7150   -2.3050   27.9750 C   0  0  1  0  0  0  0  0  0  0  0  0
    6.3950   -1.6400   26.7690 C   0  0  0  0  0  0  0  0  0  0  0  0
    5.2710   -1.2260   25.7960 C   0  0  0  0  0  0  0  0  0  0  0  0
    3.8100   -1.2460   26.3090 C   0  0  0  0  0  0  0  0  0  0  0  0
    3.6200   -2.5270   27.0500 C   0  0  0  0  0  0  0  0  0  0  0  0
    4.6910   -3.0620   27.7810 C   0  0  1  0  0  0  0  0  0  0  0  0
    6.6370   -2.8140   23.5570 C   0  0  0  0  0  0  0  0  0  0  0  0
    7.4650   -3.1700   22.3420 C   0  0  0  0  0  0  0  0  0  0  0  0
  1  2  1  0
  2  3  2  0
  2  4  1  0
  4  5  1  0
  5  6  1  0
  6  7  1  0
  7  8  1  0
  8  9  2  0
  8 10  1  0
 10 11  1  0
 11 12  2  0
 12 13  1  0
 13 14  2  0
 14 15  1  0
 14 16  1  0
 11 17  1  0
 16 17  2  0
 17 18  1  0
 18 19  1  6
 19 20  1  0
 20 21  1  0
 21 22  1  0
 10 23  1  0
 18 23  1  0
 23 22  1  6
  7 24  1  0
  4 25  1  0
 24 25  1  0
M  END
