piperidine-amides-17075-covalent
     RDKit          3D

 20 22  0  0  0  0  0  0  0  0999 V2000
    7.0690   -3.3680   19.3090 C   0  0  0  0  0  0  0  0  0  0  0  0
    6.4090   -4.1900   20.3360 C   0  0  0  0  0  0  0  0  0  0  0  0
    5.3840   -4.8240   19.9810 O   0  0  0  0  0  0  0  0  0  0  0  0
    6.9530   -4.2850   21.6450 N   0  0  0  0  0  0  0  0  0  0  0  0
    6.6200   -5.4160   22.4500 C   0  0  0  0  0  0  0  0  0  0  0  0
    6.1450   -5.0500   23.7830 C   0  0  0  0  0  0  0  0  0  0  0  0
    6.2770   -3.6030   24.0450 C   0  0  0  0  0  0  0  0  0  0  0  0
    5.8360   -3.1290   25.4020 C   0  0  0  0  0  0  0  0  0  0  0  0
    5.2490   -2.0370   25.4760 O   0  0  0  0  0  0  0  0  0  0  0  0
    6.0030   -3.8670   26.5840 N   0  0  0  0  0  0  0  0  0  0  0  0
    5.1340   -4.9860   26.8900 C   0  0  0  0  0  0  0  0  0  0  0  0
    5.0790   -5.6930   28.1990 C   0  0  2  0  0  0  0  0  0  0  0  0
    3.9430   -5.0450   29.1030 C   0  0  0  0  0  0  0  0  0  0  0  0
    4.5090   -3.8210   29.3730 O   0  0  0  0  0  0  0  0  0  0  0  0
    5.5410   -4.1370   28.5760 C   0  0  1  0  0  0  0  0  0  0  0  0
    6.2640   -3.1110   27.8150 C   0  0  0  0  0  0  0  0  0  0  0  0
    6.2790   -5.3680   28.9640 C   0  0  2  0  0  0  0  0  0  0  0  0
    7.5890   -5.2500   29.2930 O   0  0  0  0  0  0  0  0  0  0  0  0
    7.6930   -3.1720   23.7060 C   0  0  0  0  0  0  0  0  0  0  0  0
    7.7750   -3.2200   22.2000 C   0  0  0  0  0  0  0  0  0  0  0  0
  1  2  1  0
  2  3  2  0
  2  4  1  0
  4  5  1  0
  5  6  1  0
  6  7  1  0
  7  8  1  0
  8  9  2  0
  8 10  1  0
 10 11  1  0
 12 11  1  6
 12 13  1  0
 13 14  1  0
 14 15  1  0
 10 16  1  0
 15 16  1  1
 12 17  1  0
 15 17  1  0
 17 18  1  6
  7 19  1  0
  4 20  1  0
 19 20  1  0
M  END
