piperidine-amides-16181-covalent
     RDKit          3D

 19 20  0  0  0  0  0  0  0  0999 V2000
    7.0410   -3.3350   19.3110 C   0  0  0  0  0  0  0  0  0  0  0  0
    6.3770   -4.1900   20.3310 C   0  0  0  0  0  0  0  0  0  0  0  0
    5.3770   -4.8050   19.9700 O   0  0  0  0  0  0  0  0  0  0  0  0
    6.9120   -4.3120   21.6210 N   0  0  0  0  0  0  0  0  0  0  0  0
    6.6910   -5.4920   22.4240 C   0  0  0  0  0  0  0  0  0  0  0  0
    6.0480   -5.1190   23.7390 C   0  0  0  0  0  0  0  0  0  0  0  0
    6.0610   -3.6010   23.9400 C   0  0  0  0  0  0  0  0  0  0  0  0
    5.5420   -3.3110   25.2970 C   0  0  0  0  0  0  0  0  0  0  0  0
    4.3170   -3.2600   25.4640 O   0  0  0  0  0  0  0  0  0  0  0  0
    6.3840   -3.0970   26.4010 N   0  0  0  0  0  0  0  0  0  0  0  0
    5.7600   -3.0780   27.7350 C   0  0  0  0  0  0  0  0  0  0  0  0
    6.1200   -4.4080   28.3020 C   0  0  0  0  0  0  0  0  0  0  0  0
    7.1110   -4.9550   27.5990 C   0  0  2  0  0  0  0  0  0  0  0  0
    8.1540   -5.4070   28.2660 C   0  0  0  0  0  0  0  0  0  0  0  0
    9.1640   -5.7120   27.4290 C   0  0  0  0  0  0  0  0  0  0  0  0
    8.9970   -6.7710   26.6560 O   0  0  0  0  0  0  0  0  0  0  0  0
    7.5970   -3.7680   26.8390 C   0  0  0  0  0  0  0  0  0  0  0  0
    7.3880   -3.0040   23.6200 C   0  0  0  0  0  0  0  0  0  0  0  0
    7.7100   -3.2310   22.1770 C   0  0  0  0  0  0  0  0  0  0  0  0
  1  2  1  0
  2  3  2  0
  2  4  1  0
  4  5  1  0
  5  6  1  0
  6  7  1  0
  7  8  1  0
  8  9  2  0
  8 10  1  0
 10 11  1  0
 11 12  1  0
 12 13  1  0
 13 14  1  1
 14 15  1  0
 15 16  1  0
 10 17  1  0
 13 17  1  0
  7 18  1  0
  4 19  1  0
 18 19  1  0
M  END
