piperidine-amides-27983-covalent
     RDKit          3D

 26 28  0  0  0  0  0  0  0  0999 V2000
    7.0600   -3.3530   19.2580 C   0  0  0  0  0  0  0  0  0  0  0  0
    6.4000   -4.1660   20.2990 C   0  0  0  0  0  0  0  0  0  0  0  0
    5.3640   -4.7720   19.9630 O   0  0  0  0  0  0  0  0  0  0  0  0
    6.9650   -4.2840   21.5780 N   0  0  0  0  0  0  0  0  0  0  0  0
    6.6960   -5.4330   22.3830 C   0  0  0  0  0  0  0  0  0  0  0  0
    6.1550   -5.0860   23.6970 C   0  0  0  0  0  0  0  0  0  0  0  0
    6.2080   -3.6370   23.9540 C   0  0  0  0  0  0  0  0  0  0  0  0
    5.6260   -3.3100   25.2670 C   0  0  0  0  0  0  0  0  0  0  0  0
    4.6800   -2.5080   25.2990 O   0  0  0  0  0  0  0  0  0  0  0  0
    6.0850   -3.8790   26.4460 N   0  0  0  0  0  0  0  0  0  0  0  0
    5.6210   -5.2050   26.8230 C   0  0  0  0  0  0  0  0  0  0  0  0
    5.9490   -5.4890   28.2240 C   0  0  0  0  0  0  0  0  0  0  0  0
    5.6100   -4.4970   29.1900 C   0  0  0  0  0  0  0  0  0  0  0  0
    4.4180   -4.0530   29.0630 O   0  0  0  0  0  0  0  0  0  0  0  0
    3.9940   -3.3820   30.2130 C   0  0  0  0  0  0  0  0  0  0  0  0
    3.0550   -3.7640   31.1590 C   0  0  0  0  0  0  0  0  0  0  0  0
    2.8150   -2.9220   32.2180 C   0  0  0  0  0  0  0  0  0  0  0  0
    3.4840   -1.7330   32.3420 C   0  0  0  0  0  0  0  0  0  0  0  0
    3.3360   -0.8200   33.3460 C   0  0  0  0  0  0  0  0  0  0  0  0
    4.4230   -1.3410   31.4030 C   0  0  0  0  0  0  0  0  0  0  0  0
    5.1340   -0.0520   31.5640 C   0  0  0  0  0  0  0  0  0  0  0  0
    4.6470   -2.1910   30.3560 C   0  0  0  0  0  0  0  0  0  0  0  0
    6.6460   -3.6940   28.7300 C   0  0  0  0  0  0  0  0  0  0  0  0
    6.3420   -2.9990   27.5410 C   0  0  0  0  0  0  0  0  0  0  0  0
    7.4830   -3.0400   23.5920 C   0  0  0  0  0  0  0  0  0  0  0  0
    7.7960   -3.2120   22.1490 C   0  0  0  0  0  0  0  0  0  0  0  0
  1  2  1  0
  2  3  2  0
  2  4  1  0
  4  5  1  0
  5  6  1  0
  6  7  1  0
  7  8  1  0
  8  9  2  0
  8 10  1  0
 10 11  1  0
 11 12  1  0
 12 13  1  0
 13 14  1  0
 14 15  1  0
 15 16  2  0
 16 17  1  0
 17 18  2  0
 18 19  1  0
 18 20  1  0
 20 21  1  0
 15 22  1  0
 20 22  2  0
 13 23  1  0
 10 24  1  0
 23 24  1  0
  7 25  1  0
  4 26  1  0
 25 26  1  0
M  END
