piperidine-amides-10177-covalent
     RDKit          3D

 25 27  0  0  0  0  0  0  0  0999 V2000
    7.0770   -3.3590   19.3470 C   0  0  0  0  0  0  0  0  0  0  0  0
    6.3650   -4.1560   20.3450 C   0  0  0  0  0  0  0  0  0  0  0  0
    5.3230   -4.7400   19.9530 O   0  0  0  0  0  0  0  0  0  0  0  0
    6.8770   -4.2800   21.6410 N   0  0  0  0  0  0  0  0  0  0  0  0
    6.6390   -5.4580   22.4450 C   0  0  0  0  0  0  0  0  0  0  0  0
    6.0140   -5.0390   23.7570 C   0  0  0  0  0  0  0  0  0  0  0  0
    5.9960   -3.5410   23.9480 C   0  0  0  0  0  0  0  0  0  0  0  0
    5.6500   -3.1960   25.3400 C   0  0  0  0  0  0  0  0  0  0  0  0
    4.4500   -3.2390   25.6810 O   0  0  0  0  0  0  0  0  0  0  0  0
    6.6210   -2.8230   26.2810 N   0  0  0  0  0  0  0  0  0  0  0  0
    6.5000   -1.6240   27.0680 C   0  0  0  0  0  0  0  0  0  0  0  0
    7.0330   -1.5740   28.4860 C   0  0  0  0  0  0  0  0  0  0  0  0
    6.9470   -0.4760   29.2740 C   0  0  0  0  0  0  0  0  0  0  0  0
    6.3540    0.6710   28.8080 C   0  0  0  0  0  0  0  0  0  0  0  0
    6.2570    1.7940   29.6140 C   0  0  0  0  0  0  0  0  0  0  0  0
    5.3260    1.5620   30.5530 N   0  0  0  0  0  0  0  0  0  0  0  0
    4.0080    1.7260   30.5720 C   0  0  0  0  0  0  0  0  0  0  0  0
    3.4890    1.3460   31.7540 C   0  0  0  0  0  0  0  0  0  0  0  0
    2.0430    1.3750   32.1690 C   0  0  0  0  0  0  0  0  0  0  0  0
    4.5460    0.9290   32.4910 C   0  0  0  0  0  0  0  0  0  0  0  0
    5.7650    1.0580   31.7350 N   0  0  0  0  0  0  0  0  0  0  0  0
    5.8440    0.7040   27.5200 C   0  0  0  0  0  0  0  0  0  0  0  0
    5.8390   -0.4150   26.4730 C   0  0  0  0  0  0  0  0  0  0  0  0
    7.2830   -2.9020   23.5810 C   0  0  0  0  0  0  0  0  0  0  0  0
    7.7030   -3.2290   22.1760 C   0  0  0  0  0  0  0  0  0  0  0  0
  1  2  1  0
  2  3  2  0
  2  4  1  0
  4  5  1  0
  5  6  1  0
  6  7  1  0
  7  8  1  0
  8  9  2  0
  8 10  1  0
 10 11  1  0
 11 12  2  0
 12 13  1  0
 13 14  2  0
 14 15  1  0
 15 16  1  0
 16 17  1  0
 17 18  2  0
 18 19  1  0
 18 20  1  0
 16 21  1  0
 20 21  2  0
 14 22  1  0
 11 23  1  0
 22 23  2  0
  7 24  1  0
  4 25  1  0
 24 25  1  0
M  END
