piperidine-amides-25487-covalent
     RDKit          3D

 25 27  0  0  0  0  0  0  0  0999 V2000
    7.2140   -4.0770   19.7790 C   0  0  0  0  0  0  0  0  0  0  0  0
    5.9990   -4.0500   20.4940 C   0  0  0  0  0  0  0  0  0  0  0  0
    5.0240   -4.1990   19.7660 O   0  0  0  0  0  0  0  0  0  0  0  0
    6.0700   -3.9700   21.8820 N   0  0  0  0  0  0  0  0  0  0  0  0
    5.9430   -5.1880   22.6450 C   0  0  0  0  0  0  0  0  0  0  0  0
    5.5130   -4.8520   24.0530 C   0  0  0  0  0  0  0  0  0  0  0  0
    5.3040   -3.3330   24.1600 C   0  0  0  0  0  0  0  0  0  0  0  0
    4.6050   -2.9490   25.4600 C   0  0  0  0  0  0  0  0  0  0  0  0
    3.3860   -2.8370   25.4580 O   0  0  0  0  0  0  0  0  0  0  0  0
    5.3170   -2.7460   26.6580 N   0  0  0  0  0  0  0  0  0  0  0  0
    4.7190   -3.0810   27.9280 C   0  0  0  0  0  0  0  0  0  0  0  0
    5.7990   -3.7680   28.6160 C   0  0  0  0  0  0  0  0  0  0  0  0
    6.8220   -4.0690   27.8260 C   0  0  0  0  0  0  0  0  0  0  0  0
    8.0060   -4.8790   28.0940 C   0  0  0  0  0  0  0  0  0  0  0  0
    8.9470   -5.0540   27.0480 C   0  0  0  0  0  0  0  0  0  0  0  0
   10.1140   -5.5740   26.4840 C   0  0  0  0  0  0  0  0  0  0  0  0
    9.9800   -6.8790   26.2800 O   0  0  0  0  0  0  0  0  0  0  0  0
   11.1240   -4.7040   26.2030 N   0  0  0  0  0  0  0  0  0  0  0  0
   10.7970   -3.6580   25.4030 C   0  0  0  0  0  0  0  0  0  0  0  0
   11.7440   -2.6420   24.8220 C   0  0  0  0  0  0  0  0  0  0  0  0
    8.6480   -4.4160   25.8840 C   0  0  0  0  0  0  0  0  0  0  0  0
    7.6110   -4.0700   26.6110 C   0  0  0  0  0  0  0  0  0  0  0  0
    6.5650   -3.3680   26.3920 C   0  0  0  0  0  0  0  0  0  0  0  0
    6.6380   -2.6590   23.8730 C   0  0  0  0  0  0  0  0  0  0  0  0
    7.0330   -3.0420   22.4610 C   0  0  0  0  0  0  0  0  0  0  0  0
  1  2  1  0
  2  3  2  0
  2  4  1  0
  4  5  1  0
  5  6  1  0
  6  7  1  0
  7  8  1  0
  8  9  2  0
  8 10  1  0
 10 11  1  0
 11 12  1  0
 12 13  1  0
 13 14  1  0
 14 15  2  0
 15 16  1  0
 16 17  2  0
 16 18  1  0
 18 19  1  0
 19 20  1  0
 15 21  1  0
 21 22  2  0
 10 23  1  0
 13 23  2  0
 22 23  1  0
  7 24  1  0
  4 25  1  0
 24 25  1  0
M  END
