piperidine-amides-15330-covalent
     RDKit          3D

 17 18  0  0  0  0  0  0  0  0999 V2000
    7.0350   -3.3280   19.3550 C   0  0  0  0  0  0  0  0  0  0  0  0
    6.3650   -4.1800   20.3510 C   0  0  0  0  0  0  0  0  0  0  0  0
    5.3900   -4.8820   19.9950 O   0  0  0  0  0  0  0  0  0  0  0  0
    6.8280   -4.2600   21.6770 N   0  0  0  0  0  0  0  0  0  0  0  0
    6.6340   -5.5080   22.4020 C   0  0  0  0  0  0  0  0  0  0  0  0
    6.1880   -5.2310   23.8560 C   0  0  0  0  0  0  0  0  0  0  0  0
    6.0530   -3.7360   24.0440 C   0  0  0  0  0  0  0  0  0  0  0  0
    5.4500   -3.4160   25.3630 C   0  0  0  0  0  0  0  0  0  0  0  0
    4.2050   -3.4040   25.3950 O   0  0  0  0  0  0  0  0  0  0  0  0
    6.1710   -3.1190   26.5520 N   0  0  0  0  0  0  0  0  0  0  0  0
    6.2640   -4.1690   27.5330 C   0  0  0  0  0  0  0  0  0  0  0  0
    5.7880   -1.8300   27.0950 C   0  0  2  0  0  0  0  0  0  0  0  0
    6.6820   -0.9050   26.7000 C   0  0  0  0  0  0  0  0  0  0  0  0
    6.5620   -0.9560   28.0710 C   0  0  2  0  0  0  0  0  0  0  0  0
    7.3240   -1.6160   29.0340 C   0  0  0  0  0  0  0  0  0  0  0  0
    7.2910   -2.9980   23.7130 C   0  0  0  0  0  0  0  0  0  0  0  0
    7.6570   -3.2330   22.2770 C   0  0  0  0  0  0  0  0  0  0  0  0
  1  2  1  0
  2  3  2  0
  2  4  1  0
  4  5  1  0
  5  6  1  0
  6  7  1  0
  7  8  1  0
  8  9  2  0
  8 10  1  0
 10 11  1  0
 12 10  1  1
 12 13  1  0
 12 14  1  0
 13 14  1  0
 14 15  1  1
  7 16  1  0
  4 17  1  0
 16 17  1  0
M  END
