piperidine-amides-3835-covalent
     RDKit          3D

 21 23  0  0  0  0  0  0  0  0999 V2000
    7.1230   -3.2650   19.1450 C   0  0  0  0  0  0  0  0  0  0  0  0
    6.3560   -3.9900   20.1720 C   0  0  0  0  0  0  0  0  0  0  0  0
    5.2400   -4.4440   19.8360 O   0  0  0  0  0  0  0  0  0  0  0  0
    6.8780   -4.2320   21.4620 N   0  0  0  0  0  0  0  0  0  0  0  0
    7.5810   -3.1760   22.1160 C   0  0  0  0  0  0  0  0  0  0  0  0
    7.1220   -2.8350   23.4580 C   0  0  0  0  0  0  0  0  0  0  0  0
    6.4190   -3.9060   24.1900 C   0  0  0  0  0  0  0  0  0  0  0  0
    5.7130   -3.3400   25.3790 C   0  0  0  0  0  0  0  0  0  0  0  0
    4.4680   -3.2750   25.3710 O   0  0  0  0  0  0  0  0  0  0  0  0
    6.4230   -2.8720   26.5030 N   0  0  0  0  0  0  0  0  0  0  0  0
    6.3650   -1.5960   27.1100 C   0  0  0  0  0  0  0  0  0  0  0  0
    5.2690   -1.2230   28.0020 C   0  0  0  0  0  0  0  0  0  0  0  0
    4.2460   -2.3040   28.4030 C   0  0  0  0  0  0  0  0  0  0  0  0
    3.2640   -1.6690   29.2870 N   0  0  0  0  0  0  0  0  0  0  0  0
    3.7940   -0.3380   29.3130 C   0  0  0  0  0  0  0  0  0  0  0  0
    4.8420   -0.1180   28.6360 N   0  0  0  0  0  0  0  0  0  0  0  0
    5.3120    1.2160   28.6960 C   0  0  0  0  0  0  0  0  0  0  0  0
    3.9690    1.8970   29.0070 C   0  0  0  0  0  0  0  0  0  0  0  0
    3.3090    0.8540   30.0200 C   0  0  0  0  0  0  0  0  0  0  0  0
    5.5170   -4.7430   23.3270 C   0  0  0  0  0  0  0  0  0  0  0  0
    6.3730   -5.3440   22.2370 C   0  0  0  0  0  0  0  0  0  0  0  0
  1  2  1  0
  2  3  2  0
  2  4  1  0
  4  5  1  0
  5  6  1  0
  6  7  1  0
  7  8  1  0
  8  9  2  0
  8 10  1  0
 10 11  1  0
 11 12  1  0
 12 13  2  0
 13 14  1  0
 14 15  2  0
 12 16  1  0
 15 16  1  0
 16 17  1  0
 17 18  1  0
 15 19  1  0
 18 19  1  0
  7 20  1  0
  4 21  1  0
 20 21  1  0
M  END
