piperidine-amides-11373-covalent
     RDKit          3D

 23 24  0  0  0  0  0  0  0  0999 V2000
    7.1410   -3.2910   19.1820 C   0  0  0  0  0  0  0  0  0  0  0  0
    6.3570   -3.9900   20.2020 C   0  0  0  0  0  0  0  0  0  0  0  0
    5.2900   -4.5340   19.8820 O   0  0  0  0  0  0  0  0  0  0  0  0
    6.8320   -4.0960   21.5150 N   0  0  0  0  0  0  0  0  0  0  0  0
    7.7880   -3.1460   22.0380 C   0  0  0  0  0  0  0  0  0  0  0  0
    7.5020   -3.0540   23.4980 C   0  0  0  0  0  0  0  0  0  0  0  0
    6.1350   -3.5800   23.7890 C   0  0  0  0  0  0  0  0  0  0  0  0
    5.7260   -3.3090   25.1700 C   0  0  0  0  0  0  0  0  0  0  0  0
    4.5070   -3.3080   25.5000 O   0  0  0  0  0  0  0  0  0  0  0  0
    6.6790   -3.0340   26.1520 N   0  0  0  0  0  0  0  0  0  0  0  0
    6.2880   -2.7370   27.5350 C   0  0  0  0  0  0  0  0  0  0  0  0
    6.3790   -3.9700   28.3430 C   0  0  0  0  0  0  0  0  0  0  0  0
    5.3010   -4.1170   29.1420 N   0  0  0  0  0  0  0  0  0  0  0  0
    4.4030   -5.2230   29.0850 C   0  0  0  0  0  0  0  0  0  0  0  0
    3.0470   -4.6000   29.2130 C   0  0  0  0  0  0  0  0  0  0  0  0
    3.2110   -3.2290   29.4440 N   0  0  0  0  0  0  0  0  0  0  0  0
    4.5010   -2.8850   29.4180 C   0  0  0  0  0  0  0  0  0  0  0  0
    5.2290   -1.5970   29.6180 C   0  0  0  0  0  0  0  0  0  0  0  0
    4.8030   -0.9970   30.8020 F   0  0  0  0  0  0  0  0  0  0  0  0
    5.0910   -0.7170   28.5870 F   0  0  0  0  0  0  0  0  0  0  0  0
    6.5980   -1.7530   29.7410 F   0  0  0  0  0  0  0  0  0  0  0  0
    6.0790   -5.0580   23.4750 C   0  0  0  0  0  0  0  0  0  0  0  0
    6.6240   -5.3480   22.2180 C   0  0  0  0  0  0  0  0  0  0  0  0
  1  2  1  0
  2  3  2  0
  2  4  1  0
  4  5  1  0
  5  6  1  0
  6  7  1  0
  7  8  1  0
  8  9  2  0
  8 10  1  0
 10 11  1  0
 11 12  1  0
 12 13  1  0
 13 14  1  0
 14 15  1  0
 15 16  1  0
 13 17  1  0
 16 17  2  0
 17 18  1  0
 18 19  1  0
 18 20  1  0
 18 21  1  0
  7 22  1  0
  4 23  1  0
 22 23  1  0
M  END
