piperidine-amides-30978-covalent
     RDKit          3D

 26 27  0  0  0  0  0  0  0  0999 V2000
    7.0530   -3.3070   19.3040 C   0  0  0  0  0  0  0  0  0  0  0  0
    6.3590   -4.0880   20.3330 C   0  0  0  0  0  0  0  0  0  0  0  0
    5.4080   -4.8110   19.9820 O   0  0  0  0  0  0  0  0  0  0  0  0
    6.7670   -4.0650   21.6870 N   0  0  0  0  0  0  0  0  0  0  0  0
    7.7140   -3.0930   22.1900 C   0  0  0  0  0  0  0  0  0  0  0  0
    7.4470   -3.0740   23.6640 C   0  0  0  0  0  0  0  0  0  0  0  0
    6.0730   -3.6120   23.9020 C   0  0  0  0  0  0  0  0  0  0  0  0
    5.4960   -3.3370   25.2520 C   0  0  0  0  0  0  0  0  0  0  0  0
    4.2520   -3.1510   25.3580 O   0  0  0  0  0  0  0  0  0  0  0  0
    6.2250   -3.2520   26.4620 N   0  0  0  0  0  0  0  0  0  0  0  0
    6.6210   -1.9190   26.9850 C   0  0  0  0  0  0  0  0  0  0  0  0
    6.1790   -4.3730   27.4430 C   0  0  0  0  0  0  0  0  0  0  0  0
    4.9020   -4.5960   28.0940 C   0  0  0  0  0  0  0  0  0  0  0  0
    3.9800   -4.5720   27.2610 O   0  0  0  0  0  0  0  0  0  0  0  0
    4.9280   -4.7940   29.5400 N   0  0  0  0  0  0  0  0  0  0  0  0
    3.6530   -5.5150   29.8300 C   0  0  0  0  0  0  0  0  0  0  0  0
    3.1150   -6.4690   28.7580 C   0  0  0  0  0  0  0  0  0  0  0  0
    1.8340   -7.1700   29.0920 C   0  0  0  0  0  0  0  0  0  0  0  0
    1.0790   -8.2970   27.9630 Cl  0  0  0  0  0  0  0  0  0  0  0  0
    1.1930   -6.9660   30.2850 C   0  0  0  0  0  0  0  0  0  0  0  0
    1.7200   -6.0940   31.2260 C   0  0  0  0  0  0  0  0  0  0  0  0
    2.9930   -5.3320   31.0110 C   0  0  0  0  0  0  0  0  0  0  0  0
    3.3580   -4.5760   31.9450 O   0  0  0  0  0  0  0  0  0  0  0  0
    2.9860   -3.2380   32.0570 C   0  0  0  0  0  0  0  0  0  0  0  0
    6.0450   -5.1090   23.5160 C   0  0  0  0  0  0  0  0  0  0  0  0
    6.5920   -5.3120   22.4390 C   0  0  0  0  0  0  0  0  0  0  0  0
  1  2  1  0
  2  3  2  0
  2  4  1  0
  4  5  1  0
  5  6  1  0
  6  7  1  0
  7  8  1  0
  8  9  2  0
  8 10  1  0
 10 11  1  0
 10 12  1  0
 12 13  1  0
 13 14  2  0
 13 15  1  0
 15 16  1  0
 16 17  2  0
 17 18  1  0
 18 19  1  0
 18 20  2  0
 20 21  1  0
 16 22  1  0
 21 22  2  0
 22 23  1  0
 23 24  1  0
  7 25  1  0
  4 26  1  0
 25 26  1  0
M  END
