piperidine-amides-28172-covalent
     RDKit          3D

 26 28  0  0  0  0  0  0  0  0999 V2000
    7.0300   -3.3750   19.3290 C   0  0  0  0  0  0  0  0  0  0  0  0
    6.3870   -4.2370   20.3460 C   0  0  0  0  0  0  0  0  0  0  0  0
    5.3610   -4.8450   19.9770 O   0  0  0  0  0  0  0  0  0  0  0  0
    6.9410   -4.3990   21.6240 N   0  0  0  0  0  0  0  0  0  0  0  0
    6.6240   -5.5590   22.3980 C   0  0  0  0  0  0  0  0  0  0  0  0
    5.9140   -5.2310   23.6300 C   0  0  0  0  0  0  0  0  0  0  0  0
    5.8680   -3.7750   23.8590 C   0  0  0  0  0  0  0  0  0  0  0  0
    5.2610   -3.3900   25.1630 C   0  0  0  0  0  0  0  0  0  0  0  0
    4.0810   -3.0080   25.1390 O   0  0  0  0  0  0  0  0  0  0  0  0
    5.9340   -3.4280   26.3930 N   0  0  0  0  0  0  0  0  0  0  0  0
    5.4550   -2.8040   27.6080 C   0  0  0  0  0  0  0  0  0  0  0  0
    5.9140   -3.8760   28.5140 C   0  0  0  0  0  0  0  0  0  0  0  0
    6.0920   -5.0310   27.9560 O   0  0  0  0  0  0  0  0  0  0  0  0
    7.3230   -5.3430   27.6140 C   0  0  0  0  0  0  0  0  0  0  0  0
    7.1790   -6.2260   28.5690 C   0  0  0  0  0  0  0  0  0  0  0  0
    5.9850   -6.2890   29.1750 C   0  0  0  0  0  0  0  0  0  0  0  0
    5.0450   -5.4120   28.7100 C   0  0  0  0  0  0  0  0  0  0  0  0
    3.7420   -5.2740   29.1370 C   0  0  0  0  0  0  0  0  0  0  0  0
    3.3130   -4.5490   30.2910 O   0  0  0  0  0  0  0  0  0  0  0  0
    2.8430   -5.9380   28.3090 O   0  0  0  0  0  0  0  0  0  0  0  0
    2.6380   -7.2590   28.7160 C   0  0  0  0  0  0  0  0  0  0  0  0
    3.6450   -7.6820   29.5870 C   0  0  0  0  0  0  0  0  0  0  0  0
    5.4810   -4.4530   27.5660 C   0  0  0  0  0  0  0  0  0  0  0  0
    6.8610   -4.3400   26.8340 C   0  0  0  0  0  0  0  0  0  0  0  0
    7.2580   -3.2060   23.6180 C   0  0  0  0  0  0  0  0  0  0  0  0
    7.6670   -3.3160   22.2740 C   0  0  0  0  0  0  0  0  0  0  0  0
  1  2  1  0
  2  3  2  0
  2  4  1  0
  4  5  1  0
  5  6  1  0
  6  7  1  0
  7  8  1  0
  8  9  2  0
  8 10  1  0
 10 11  1  0
 11 12  1  0
 12 13  1  0
 13 14  1  0
 14 15  2  0
 15 16  1  0
 16 17  2  0
 17 18  1  0
 18 19  2  0
 18 20  1  0
 20 21  1  0
 21 22  1  0
 17 23  1  0
 10 24  1  0
 14 24  1  0
 23 24  2  0
  7 25  1  0
  4 26  1  0
 25 26  1  0
M  END
