piperidine-amides-28977-covalent
     RDKit          3D

 26 28  0  0  0  0  0  0  0  0999 V2000
    7.1220   -3.2740   19.2240 C   0  0  0  0  0  0  0  0  0  0  0  0
    6.3860   -4.0440   20.2240 C   0  0  0  0  0  0  0  0  0  0  0  0
    5.3060   -4.5590   19.8920 O   0  0  0  0  0  0  0  0  0  0  0  0
    6.9420   -4.2320   21.5130 N   0  0  0  0  0  0  0  0  0  0  0  0
    6.5470   -5.3830   22.2630 C   0  0  0  0  0  0  0  0  0  0  0  0
    5.6970   -4.9220   23.4060 C   0  0  0  0  0  0  0  0  0  0  0  0
    6.5060   -3.9180   24.2050 C   0  0  0  0  0  0  0  0  0  0  0  0
    5.6450   -3.3440   25.2800 C   0  0  0  0  0  0  0  0  0  0  0  0
    4.7280   -2.6360   24.8780 O   0  0  0  0  0  0  0  0  0  0  0  0
    5.8750   -3.6150   26.6270 N   0  0  0  0  0  0  0  0  0  0  0  0
    4.8290   -4.2030   27.3260 C   0  0  0  0  0  0  0  0  0  0  0  0
    4.6240   -3.0190   27.9940 C   0  0  0  0  0  0  0  0  0  0  0  0
    4.7080   -2.8740   29.3580 C   0  0  0  0  0  0  0  0  0  0  0  0
    3.8540   -3.7660   30.0740 N   0  0  0  0  0  0  0  0  0  0  0  0
    3.2570   -3.1900   31.2180 C   0  0  0  0  0  0  0  0  0  0  0  0
    2.4320   -2.0770   31.1370 O   0  0  0  0  0  0  0  0  0  0  0  0
    3.4750   -3.6990   32.3390 O   0  0  0  0  0  0  0  0  0  0  0  0
    3.2070   -2.9410   33.5080 C   0  0  0  0  0  0  0  0  0  0  0  0
    3.3560   -3.8710   34.7310 C   0  0  0  0  0  0  0  0  0  0  0  0
    3.8940   -1.7450   33.4930 C   0  0  0  0  0  0  0  0  0  0  0  0
    1.7570   -2.6580   33.4860 C   0  0  0  0  0  0  0  0  0  0  0  0
    5.2540   -1.7100   29.9360 C   0  0  0  0  0  0  0  0  0  0  0  0
    4.1690   -1.4960   29.1380 C   0  0  0  0  0  0  0  0  0  0  0  0
    5.9660   -2.4240   27.4730 C   0  0  0  0  0  0  0  0  0  0  0  0
    7.0150   -2.7670   23.4000 C   0  0  0  0  0  0  0  0  0  0  0  0
    7.7080   -3.2010   22.1510 C   0  0  0  0  0  0  0  0  0  0  0  0
  1  2  1  0
  2  3  2  0
  2  4  1  0
  4  5  1  0
  5  6  1  0
  6  7  1  0
  7  8  1  0
  8  9  2  0
  8 10  1  0
 10 11  1  0
 11 12  1  0
 12 13  1  0
 13 14  1  0
 14 15  1  0
 15 16  2  0
 15 17  1  0
 18 17  1  0
 18 19  1  0
 18 20  1  0
 18 21  1  0
 13 22  1  0
 13 23  1  0
 22 23  1  0
 10 24  1  0
 12 24  1  0
  7 25  1  0
  4 26  1  0
 25 26  1  0
M  END
