piperidine-amides-31923-covalent
     RDKit          3D

 29 32  0  0  0  0  0  0  0  0999 V2000
    7.0780   -3.3090   19.2180 C   0  0  0  0  0  0  0  0  0  0  0  0
    6.3320   -3.9980   20.2580 C   0  0  0  0  0  0  0  0  0  0  0  0
    5.2600   -4.5670   19.8930 O   0  0  0  0  0  0  0  0  0  0  0  0
    6.7240   -4.1340   21.6130 N   0  0  0  0  0  0  0  0  0  0  0  0
    7.8090   -3.2350   22.1240 C   0  0  0  0  0  0  0  0  0  0  0  0
    7.1750   -2.5790   23.4090 C   0  0  0  0  0  0  0  0  0  0  0  0
    6.2690   -3.6140   24.0180 C   0  0  0  0  0  0  0  0  0  0  0  0
    5.8150   -3.2260   25.4910 C   0  0  0  0  0  0  0  0  0  0  0  0
    4.6020   -3.3550   25.6160 O   0  0  0  0  0  0  0  0  0  0  0  0
    6.8530   -2.8700   26.1570 N   0  0  0  0  0  0  0  0  0  0  0  0
    7.7800   -2.0360   26.6910 C   0  0  0  0  0  0  0  0  0  0  0  0
    7.3680   -4.0480   26.7130 C   0  0  0  0  0  0  0  0  0  0  0  0
    6.6460   -4.6390   27.7630 C   0  0  0  0  0  0  0  0  0  0  0  0
    6.8670   -6.0180   28.2610 C   0  0  0  0  0  0  0  0  0  0  0  0
    5.9900   -6.5470   29.4180 C   0  0  0  0  0  0  0  0  0  0  0  0
    5.0260   -5.6830   29.9490 C   0  0  0  0  0  0  0  0  0  0  0  0
    4.6790   -4.3940   29.6380 C   0  0  0  0  0  0  0  0  0  0  0  0
    5.5570   -3.9290   28.5030 C   0  0  0  0  0  0  0  0  0  0  0  0
    3.5830   -4.0840   30.5970 C   0  0  0  0  0  0  0  0  0  0  0  0
    2.8680   -2.9270   30.7370 C   0  0  0  0  0  0  0  0  0  0  0  0
    1.8920   -2.8300   31.6860 C   0  0  0  0  0  0  0  0  0  0  0  0
    1.5860   -3.8540   32.5230 C   0  0  0  0  0  0  0  0  0  0  0  0
    2.3120   -5.0140   32.3710 C   0  0  0  0  0  0  0  0  0  0  0  0
    3.3210   -5.1500   31.4110 C   0  0  0  0  0  0  0  0  0  0  0  0
    4.1950   -6.1480   31.0290 N   0  0  0  0  0  0  0  0  0  0  0  0
    4.2470   -7.4130   31.6150 C   0  0  0  0  0  0  0  0  0  0  0  0
    5.6000   -7.5890   32.2400 C   0  0  0  0  0  0  0  0  0  0  0  0
    6.6460   -5.0590   23.8110 C   0  0  0  0  0  0  0  0  0  0  0  0
    6.5720   -5.3750   22.3190 C   0  0  0  0  0  0  0  0  0  0  0  0
  1  2  1  0
  2  3  2  0
  2  4  1  0
  4  5  1  0
  5  6  1  0
  6  7  1  0
  7  8  1  0
  8  9  2  0
  8 10  1  0
 10 11  1  0
 10 12  1  0
 12 13  1  0
 13 14  2  0
 14 15  1  0
 15 16  2  0
 16 17  1  0
 13 18  1  0
 17 18  2  0
 17 19  1  0
 19 20  2  0
 20 21  1  0
 21 22  2  0
 22 23  1  0
 19 24  1  0
 23 24  2  0
 16 25  1  0
 24 25  1  0
 25 26  1  0
 26 27  1  0
  7 28  1  0
  4 29  1  0
 28 29  1  0
M  END
