piperidine-amides-4428-covalent
     RDKit          3D

 25 27  0  0  0  0  0  0  0  0999 V2000
    7.0780   -3.2900   19.2310 C   0  0  0  0  0  0  0  0  0  0  0  0
    6.3460   -4.0450   20.2680 C   0  0  0  0  0  0  0  0  0  0  0  0
    5.2770   -4.5830   19.8970 O   0  0  0  0  0  0  0  0  0  0  0  0
    6.8320   -4.2120   21.5990 N   0  0  0  0  0  0  0  0  0  0  0  0
    7.6650   -3.1930   22.1580 C   0  0  0  0  0  0  0  0  0  0  0  0
    7.2070   -2.7330   23.4490 C   0  0  0  0  0  0  0  0  0  0  0  0
    6.1050   -3.5660   23.9380 C   0  0  0  0  0  0  0  0  0  0  0  0
    5.6830   -3.1920   25.3300 C   0  0  0  0  0  0  0  0  0  0  0  0
    4.9250   -3.9510   25.9600 O   0  0  0  0  0  0  0  0  0  0  0  0
    6.1020   -1.9890   25.9360 N   0  0  0  0  0  0  0  0  0  0  0  0
    6.6470   -1.7750   27.2220 C   0  0  0  0  0  0  0  0  0  0  0  0
    5.9790   -1.0470   28.2940 C   0  0  0  0  0  0  0  0  0  0  0  0
    6.6960   -0.8050   29.6040 C   0  0  0  0  0  0  0  0  0  0  0  0
    5.8420   -0.1280   30.3530 C   0  0  0  0  0  0  0  0  0  0  0  0
    6.6150    0.0890   31.6590 C   0  0  0  0  0  0  0  0  0  0  0  0
    5.5880   -0.0480   32.7250 C   0  0  0  0  0  0  0  0  0  0  0  0
    6.2890    0.1510   34.1020 C   0  0  0  0  0  0  0  0  0  0  0  0
    7.7680    0.4410   34.3650 C   0  0  0  0  0  0  0  0  0  0  0  0
    8.3700    0.6320   35.9970 Cl  0  0  0  0  0  0  0  0  0  0  0  0
    8.6640    0.5490   33.1440 C   0  0  0  0  0  0  0  0  0  0  0  0
    8.0730    0.3680   31.7550 C   0  0  0  0  0  0  0  0  0  0  0  0
    4.6370    0.1080   29.6960 N   0  0  0  0  0  0  0  0  0  0  0  0
    4.7890   -0.5040   28.3880 O   0  0  0  0  0  0  0  0  0  0  0  0
    6.4850   -5.0020   23.7680 C   0  0  0  0  0  0  0  0  0  0  0  0
    6.3960   -5.3550   22.4040 C   0  0  0  0  0  0  0  0  0  0  0  0
  1  2  1  0
  2  3  2  0
  2  4  1  0
  4  5  1  0
  5  6  1  0
  6  7  1  0
  7  8  1  0
  8  9  2  0
  8 10  1  0
 10 11  1  0
 11 12  1  0
 12 13  2  0
 13 14  1  0
 14 15  1  0
 15 16  2  0
 16 17  1  0
 17 18  2  0
 18 19  1  0
 18 20  1  0
 15 21  1  0
 20 21  2  0
 14 22  2  0
 12 23  1  0
 22 23  1  0
  7 24  1  0
  4 25  1  0
 24 25  1  0
M  END
