piperidine-amides-26093-covalent
     RDKit          3D

 25 28  0  0  0  0  0  0  0  0999 V2000
    7.0420   -3.3650   19.3950 C   0  0  0  0  0  0  0  0  0  0  0  0
    6.3820   -4.2400   20.3650 C   0  0  0  0  0  0  0  0  0  0  0  0
    5.3840   -4.8820   19.9940 O   0  0  0  0  0  0  0  0  0  0  0  0
    6.8680   -4.4110   21.6820 N   0  0  0  0  0  0  0  0  0  0  0  0
    6.7240   -5.6630   22.3990 C   0  0  0  0  0  0  0  0  0  0  0  0
    6.2000   -5.2780   23.7550 C   0  0  0  0  0  0  0  0  0  0  0  0
    6.2380   -3.7970   23.8840 C   0  0  0  0  0  0  0  0  0  0  0  0
    5.7530   -3.2620   25.1830 C   0  0  0  0  0  0  0  0  0  0  0  0
    4.9970   -2.2480   25.1790 O   0  0  0  0  0  0  0  0  0  0  0  0
    6.0050   -3.7990   26.4630 N   0  0  0  0  0  0  0  0  0  0  0  0
    6.3830   -2.8350   27.5070 C   0  0  0  0  0  0  0  0  0  0  0  0
    6.6770   -3.5210   28.7930 C   0  0  0  0  0  0  0  0  0  0  0  0
    5.8000   -4.6080   29.1850 C   0  0  0  0  0  0  0  0  0  0  0  0
    4.5580   -4.0200   29.8120 C   0  0  0  0  0  0  0  0  0  0  0  0
    3.4250   -4.8040   30.1750 N   0  0  0  0  0  0  0  0  0  0  0  0
    2.5040   -4.0030   30.7000 O   0  0  0  0  0  0  0  0  0  0  0  0
    3.0830   -2.7490   30.6540 C   0  0  0  0  0  0  0  0  0  0  0  0
    2.1880   -1.6980   31.2100 C   0  0  0  0  0  0  0  0  0  0  0  0
    2.2040   -1.2900   32.4200 C   0  0  0  0  0  0  0  0  0  0  0  0
    3.2230   -0.6290   31.9600 C   0  0  0  0  0  0  0  0  0  0  0  0
    4.3070   -2.6900   30.1360 N   0  0  0  0  0  0  0  0  0  0  0  0
    5.6200   -5.4550   28.1580 C   0  0  0  0  0  0  0  0  0  0  0  0
    5.0430   -4.7870   26.9200 C   0  0  0  0  0  0  0  0  0  0  0  0
    7.6450   -3.3620   23.4640 C   0  0  0  0  0  0  0  0  0  0  0  0
    7.6400   -3.2900   22.2530 C   0  0  0  0  0  0  0  0  0  0  0  0
  1  2  1  0
  2  3  2  0
  2  4  1  0
  4  5  1  0
  5  6  1  0
  6  7  1  0
  7  8  1  0
  8  9  2  0
  8 10  1  0
 10 11  1  0
 11 12  1  0
 12 13  1  0
 13 14  1  0
 14 15  2  0
 15 16  1  0
 16 17  1  0
 17 18  1  0
 18 19  1  0
 18 20  1  0
 19 20  1  0
 14 21  1  0
 17 21  2  0
 13 22  1  0
 10 23  1  0
 22 23  1  0
  7 24  1  0
  4 25  1  0
 24 25  1  0
M  END
