piperidine-amides-6278-covalent
     RDKit          3D

 26 27  0  0  0  0  0  0  0  0999 V2000
    7.1060   -3.3430   19.3430 C   0  0  0  0  0  0  0  0  0  0  0  0
    6.3740   -4.1710   20.3050 C   0  0  0  0  0  0  0  0  0  0  0  0
    5.3370   -4.7730   19.9630 O   0  0  0  0  0  0  0  0  0  0  0  0
    6.8790   -4.3310   21.6010 N   0  0  0  0  0  0  0  0  0  0  0  0
    7.6040   -3.2380   22.2050 C   0  0  0  0  0  0  0  0  0  0  0  0
    6.6860   -2.6900   23.2980 C   0  0  0  0  0  0  0  0  0  0  0  0
    6.4950   -3.8310   24.2620 C   0  0  0  0  0  0  0  0  0  0  0  0
    5.7870   -3.3740   25.4850 C   0  0  0  0  0  0  0  0  0  0  0  0
    4.5300   -3.3690   25.5050 O   0  0  0  0  0  0  0  0  0  0  0  0
    6.5370   -2.9540   26.6170 N   0  0  0  0  0  0  0  0  0  0  0  0
    6.4060   -1.6270   27.1690 C   0  0  0  0  0  0  0  0  0  0  0  0
    5.6700   -0.6780   26.2790 C   0  0  0  0  0  0  0  0  0  0  0  0
    5.4490    0.6180   26.6500 C   0  0  0  0  0  0  0  0  0  0  0  0
    4.7280    1.3560   25.6950 N   0  0  0  0  0  0  0  0  0  0  0  0
    3.6600    0.6730   25.0730 C   0  0  0  0  0  0  0  0  0  0  0  0
    3.6490    0.1050   23.8030 O   0  0  0  0  0  0  0  0  0  0  0  0
    2.5240    0.5830   25.8810 C   0  0  0  0  0  0  0  0  0  0  0  0
    2.2420    1.6150   26.7460 C   0  0  0  0  0  0  0  0  0  0  0  0
    1.3610    0.5670   24.8730 C   0  0  0  0  0  0  0  0  0  0  0  0
    2.5090   -0.7200   26.6220 C   0  0  0  0  0  0  0  0  0  0  0  0
    5.9060    1.0860   27.8500 C   0  0  0  0  0  0  0  0  0  0  0  0
    6.6300    0.1980   28.7550 C   0  0  0  0  0  0  0  0  0  0  0  0
    6.8390   -1.1180   28.3610 C   0  0  0  0  0  0  0  0  0  0  0  0
    7.4930   -1.8950   29.2250 C   0  0  0  0  0  0  0  0  0  0  0  0
    5.7310   -4.9790   23.6250 C   0  0  0  0  0  0  0  0  0  0  0  0
    6.4540   -5.4540   22.3870 C   0  0  0  0  0  0  0  0  0  0  0  0
  1  2  1  0
  2  3  2  0
  2  4  1  0
  4  5  1  0
  5  6  1  0
  6  7  1  0
  7  8  1  0
  8  9  2  0
  8 10  1  0
 10 11  1  0
 11 12  2  0
 12 13  1  0
 13 14  1  0
 14 15  1  0
 15 16  2  0
 17 15  1  0
 17 18  1  0
 17 19  1  0
 17 20  1  0
 13 21  2  0
 21 22  1  0
 11 23  1  0
 22 23  2  0
 23 24  1  0
  7 25  1  0
  4 26  1  0
 25 26  1  0
M  END
