piperidine-amides-11944-covalent
     RDKit          3D

 26 27  0  0  0  0  0  0  0  0999 V2000
    7.0970   -3.2830   19.1920 C   0  0  0  0  0  0  0  0  0  0  0  0
    6.3430   -4.0230   20.2000 C   0  0  0  0  0  0  0  0  0  0  0  0
    5.2890   -4.5740   19.8950 O   0  0  0  0  0  0  0  0  0  0  0  0
    6.8560   -4.1650   21.5320 N   0  0  0  0  0  0  0  0  0  0  0  0
    7.6820   -3.1230   22.0960 C   0  0  0  0  0  0  0  0  0  0  0  0
    7.3820   -2.9560   23.5530 C   0  0  0  0  0  0  0  0  0  0  0  0
    6.0230   -3.5820   23.7960 C   0  0  0  0  0  0  0  0  0  0  0  0
    5.5040   -3.2620   25.1460 C   0  0  0  0  0  0  0  0  0  0  0  0
    4.3130   -2.9610   25.3420 O   0  0  0  0  0  0  0  0  0  0  0  0
    6.3900   -3.3010   26.2370 N   0  0  0  0  0  0  0  0  0  0  0  0
    5.9580   -3.9840   27.4300 C   0  0  2  0  0  0  0  0  0  0  0  0
    6.5770   -3.1920   28.5360 C   0  0  0  0  0  0  0  0  0  0  0  0
    5.7490   -2.5810   29.4520 C   0  0  0  0  0  0  0  0  0  0  0  0
    4.5370   -3.2150   29.8420 C   0  0  0  0  0  0  0  0  0  0  0  0
    3.7010   -2.6090   30.7560 C   0  0  0  0  0  0  0  0  0  0  0  0
    4.0990   -1.3410   31.2820 C   0  0  0  0  0  0  0  0  0  0  0  0
    5.2340   -0.6980   30.9460 C   0  0  0  0  0  0  0  0  0  0  0  0
    5.6000    0.8660   31.6800 Cl  0  0  0  0  0  0  0  0  0  0  0  0
    6.0520   -1.3330   30.0270 C   0  0  0  0  0  0  0  0  0  0  0  0
    5.9940   -5.3350   27.5770 C   0  0  0  0  0  0  0  0  0  0  0  0
    5.6180   -6.2000   26.5900 O   0  0  0  0  0  0  0  0  0  0  0  0
    6.4180   -5.8560   28.7860 O   0  0  0  0  0  0  0  0  0  0  0  0
    5.7830   -6.8840   29.4830 C   0  0  0  0  0  0  0  0  0  0  0  0
    4.6480   -7.4210   28.9040 C   0  0  0  0  0  0  0  0  0  0  0  0
    6.0740   -5.0740   23.5960 C   0  0  0  0  0  0  0  0  0  0  0  0
    6.5740   -5.3730   22.2220 C   0  0  0  0  0  0  0  0  0  0  0  0
  1  2  1  0
  2  3  2  0
  2  4  1  0
  4  5  1  0
  5  6  1  0
  6  7  1  0
  7  8  1  0
  8  9  2  0
  8 10  1  0
 10 11  1  0
 11 12  1  1
 12 13  1  0
 13 14  2  0
 14 15  1  0
 15 16  2  0
 16 17  1  0
 17 18  1  0
 13 19  1  0
 17 19  2  0
 11 20  1  0
 20 21  2  0
 20 22  1  0
 22 23  1  0
 23 24  1  0
  7 25  1  0
  4 26  1  0
 25 26  1  0
M  END
