piperidine-amides-6799-covalent
     RDKit          3D

 23 25  0  0  0  0  0  0  0  0999 V2000
    7.0070   -3.3370   19.3740 C   0  0  0  0  0  0  0  0  0  0  0  0
    6.3260   -4.2200   20.3370 C   0  0  0  0  0  0  0  0  0  0  0  0
    5.3230   -4.8650   19.9740 O   0  0  0  0  0  0  0  0  0  0  0  0
    6.7800   -4.4040   21.6540 N   0  0  0  0  0  0  0  0  0  0  0  0
    7.7170   -3.4750   22.2430 C   0  0  0  0  0  0  0  0  0  0  0  0
    7.0430   -2.9170   23.4750 C   0  0  0  0  0  0  0  0  0  0  0  0
    5.9460   -3.8710   23.8270 C   0  0  0  0  0  0  0  0  0  0  0  0
    5.4180   -3.5640   25.1730 C   0  0  0  0  0  0  0  0  0  0  0  0
    4.1860   -3.6060   25.3530 O   0  0  0  0  0  0  0  0  0  0  0  0
    6.2950   -3.2110   26.2180 N   0  0  0  0  0  0  0  0  0  0  0  0
    6.7880   -1.8690   26.3070 C   0  0  0  0  0  0  0  0  0  0  0  0
    7.1890   -1.1530   25.0190 C   0  0  0  0  0  0  0  0  0  0  0  0
    8.3200   -1.3860   24.2360 C   0  0  0  0  0  0  0  0  0  0  0  0
    8.6330   -0.7070   23.0820 C   0  0  0  0  0  0  0  0  0  0  0  0
    7.8070    0.2970   22.6060 C   0  0  0  0  0  0  0  0  0  0  0  0
    8.1540    0.9600   21.4430 F   0  0  0  0  0  0  0  0  0  0  0  0
    6.6540    0.6700   23.2280 C   0  0  0  0  0  0  0  0  0  0  0  0
    5.6590    1.9510   22.5580 Cl  0  0  0  0  0  0  0  0  0  0  0  0
    6.2640   -0.0500   24.5030 C   0  0  0  0  0  0  0  0  0  0  0  0
    6.8100   -1.2360   27.6620 C   0  0  0  0  0  0  0  0  0  0  0  0
    5.7940   -0.7370   26.9260 C   0  0  0  0  0  0  0  0  0  0  0  0
    6.4520   -5.2890   23.7360 C   0  0  0  0  0  0  0  0  0  0  0  0
    6.4440   -5.6190   22.3690 C   0  0  0  0  0  0  0  0  0  0  0  0
  1  2  1  0
  2  3  2  0
  2  4  1  0
  4  5  1  0
  5  6  1  0
  6  7  1  0
  7  8  1  0
  8  9  2  0
  8 10  1  0
 11 10  1  0
 11 12  1  0
 12 13  2  0
 13 14  1  0
 14 15  2  0
 15 16  1  0
 15 17  1  0
 17 18  1  0
 12 19  1  0
 17 19  2  0
 11 20  1  0
 11 21  1  0
 20 21  1  0
  7 22  1  0
  4 23  1  0
 22 23  1  0
M  END
