piperidine-amides-10690-covalent
     RDKit          3D

 23 24  0  0  0  0  0  0  0  0999 V2000
    7.0540   -3.3390   19.3150 C   0  0  0  0  0  0  0  0  0  0  0  0
    6.3950   -4.1690   20.3260 C   0  0  0  0  0  0  0  0  0  0  0  0
    5.3550   -4.7790   19.9620 O   0  0  0  0  0  0  0  0  0  0  0  0
    6.9460   -4.2990   21.6050 N   0  0  0  0  0  0  0  0  0  0  0  0
    7.7340   -3.2540   22.2190 C   0  0  0  0  0  0  0  0  0  0  0  0
    6.9630   -2.7130   23.3860 C   0  0  0  0  0  0  0  0  0  0  0  0
    6.4580   -3.8130   24.2760 C   0  0  0  0  0  0  0  0  0  0  0  0
    5.7300   -3.2360   25.4370 C   0  0  0  0  0  0  0  0  0  0  0  0
    4.4860   -3.1490   25.3470 O   0  0  0  0  0  0  0  0  0  0  0  0
    6.3430   -2.7870   26.6280 N   0  0  0  0  0  0  0  0  0  0  0  0
    6.8140   -1.4210   26.7780 C   0  0  0  0  0  0  0  0  0  0  0  0
    7.3440   -1.1610   28.1880 C   0  0  0  0  0  0  0  0  0  0  0  0
    6.7980   -0.2450   29.0420 C   0  0  0  0  0  0  0  0  0  0  0  0
    6.5600    1.0060   28.5650 N   0  0  0  0  0  0  0  0  0  0  0  0
    7.4720    1.9680   28.8190 C   0  0  0  0  0  0  0  0  0  0  0  0
    7.3330    3.2410   28.2800 C   0  0  0  0  0  0  0  0  0  0  0  0
    7.3700    4.3220   29.1460 C   0  0  0  0  0  0  0  0  0  0  0  0
    8.4860    4.4920   29.9860 O   0  0  0  0  0  0  0  0  0  0  0  0
    9.7650    4.2490   29.4280 C   0  0  0  0  0  0  0  0  0  0  0  0
    5.8200    0.9830   27.4460 C   0  0  0  0  0  0  0  0  0  0  0  0
    5.8660   -0.3210   26.6490 C   0  0  0  0  0  0  0  0  0  0  0  0
    5.5930   -4.8200   23.5010 C   0  0  0  0  0  0  0  0  0  0  0  0
    6.5350   -5.4000   22.4590 C   0  0  0  0  0  0  0  0  0  0  0  0
  1  2  1  0
  2  3  2  0
  2  4  1  0
  4  5  1  0
  5  6  1  0
  6  7  1  0
  7  8  1  0
  8  9  2  0
  8 10  1  0
 10 11  1  0
 11 12  1  0
 12 13  1  0
 13 14  1  0
 14 15  1  0
 15 16  1  0
 16 17  1  0
 17 18  1  0
 18 19  1  0
 14 20  1  0
 11 21  1  0
 20 21  1  0
  7 22  1  0
  4 23  1  0
 22 23  1  0
M  END
