piperidine-amides-35056-covalent
     RDKit          3D

 32 34  0  0  0  0  0  0  0  0999 V2000
    7.0820   -3.3600   19.3920 C   0  0  0  0  0  0  0  0  0  0  0  0
    6.3970   -4.2240   20.3820 C   0  0  0  0  0  0  0  0  0  0  0  0
    5.4020   -4.8360   19.9870 O   0  0  0  0  0  0  0  0  0  0  0  0
    6.9140   -4.3550   21.6800 N   0  0  0  0  0  0  0  0  0  0  0  0
    6.7800   -5.5990   22.4070 C   0  0  0  0  0  0  0  0  0  0  0  0
    6.1730   -5.3120   23.7490 C   0  0  0  0  0  0  0  0  0  0  0  0
    6.1960   -3.8020   23.9030 C   0  0  0  0  0  0  0  0  0  0  0  0
    5.5140   -3.3810   25.1430 C   0  0  0  0  0  0  0  0  0  0  0  0
    4.5400   -2.6340   25.0300 O   0  0  0  0  0  0  0  0  0  0  0  0
    5.8760   -3.7710   26.4400 N   0  0  0  0  0  0  0  0  0  0  0  0
    4.8310   -4.5440   27.0730 C   0  0  0  0  0  0  0  0  0  0  0  0
    5.2570   -4.7910   28.4810 C   0  0  0  0  0  0  0  0  0  0  0  0
    6.4520   -4.3310   28.8230 C   0  0  0  0  0  0  0  0  0  0  0  0
    6.6500   -3.0240   28.5120 C   0  0  2  0  0  0  0  0  0  0  0  0
    5.9760   -2.0430   29.2290 C   0  0  0  0  0  0  0  0  0  0  0  0
    6.2000   -0.5360   28.9870 C   0  0  1  0  0  0  0  0  0  0  0  0
    5.3600   -0.0510   28.0380 N   0  0  0  0  0  0  0  0  0  0  0  0
    5.5420    1.2830   27.8330 C   0  0  0  0  0  0  0  0  0  0  0  0
    4.6950    2.2230   28.3490 O   0  0  0  0  0  0  0  0  0  0  0  0
    6.6070    1.7200   27.0660 O   0  0  0  0  0  0  0  0  0  0  0  0
    7.1990    3.0150   27.2920 C   0  0  0  0  0  0  0  0  0  0  0  0
    7.9210    3.1000   28.5960 C   0  0  0  0  0  0  0  0  0  0  0  0
    6.0770    4.0290   27.3250 C   0  0  0  0  0  0  0  0  0  0  0  0
    8.1410    3.4220   26.1830 C   0  0  0  0  0  0  0  0  0  0  0  0
    5.8770    0.2230   30.3010 C   0  0  0  0  0  0  0  0  0  0  0  0
    4.7930   -0.4280   31.1540 C   0  0  0  0  0  0  0  0  0  0  0  0
    5.0480   -0.2730   32.4940 C   0  0  0  0  0  0  0  0  0  0  0  0
    6.4480    0.2400   32.6060 C   0  0  0  0  0  0  0  0  0  0  0  0
    7.0940    0.2920   31.2190 C   0  0  0  0  0  0  0  0  0  0  0  0
    6.3850   -2.6540   27.2080 C   0  0  0  0  0  0  0  0  0  0  0  0
    7.5210   -3.1480   23.6830 C   0  0  0  0  0  0  0  0  0  0  0  0
    7.7510   -3.2550   22.1700 C   0  0  0  0  0  0  0  0  0  0  0  0
  1  2  1  0
  2  3  2  0
  2  4  1  0
  4  5  1  0
  5  6  1  0
  6  7  1  0
  7  8  1  0
  8  9  2  0
  8 10  1  0
 10 11  1  0
 11 12  1  0
 12 13  1  0
 13 14  1  0
 14 15  1  1
 16 15  1  1
 16 17  1  0
 17 18  1  0
 18 19  2  0
 18 20  1  0
 21 20  1  0
 21 22  1  0
 21 23  1  0
 21 24  1  0
 16 25  1  0
 25 26  1  0
 26 27  1  0
 27 28  1  0
 25 29  1  0
 28 29  1  0
 10 30  1  0
 14 30  1  0
  7 31  1  0
  4 32  1  0
 31 32  1  0
M  END
