piperidine-amides-34314-covalent
     RDKit          3D

 26 28  0  0  0  0  0  0  0  0999 V2000
    7.0330   -3.3170   19.4390 C   0  0  0  0  0  0  0  0  0  0  0  0
    6.3620   -4.1980   20.4090 C   0  0  0  0  0  0  0  0  0  0  0  0
    5.4210   -4.9240   20.0060 O   0  0  0  0  0  0  0  0  0  0  0  0
    6.7670   -4.2780   21.7650 N   0  0  0  0  0  0  0  0  0  0  0  0
    6.6570   -5.5660   22.4220 C   0  0  0  0  0  0  0  0  0  0  0  0
    6.2740   -5.3340   23.8960 C   0  0  0  0  0  0  0  0  0  0  0  0
    5.8710   -3.8860   24.0380 C   0  0  0  0  0  0  0  0  0  0  0  0
    5.0780   -3.6340   25.3000 C   0  0  0  0  0  0  0  0  0  0  0  0
    3.8970   -3.9980   25.2280 O   0  0  0  0  0  0  0  0  0  0  0  0
    5.4860   -3.0190   26.5330 N   0  0  0  0  0  0  0  0  0  0  0  0
    4.5230   -2.7140   27.5280 C   0  0  0  0  0  0  0  0  0  0  0  0
    4.1700   -4.0010   28.2500 C   0  0  0  0  0  0  0  0  0  0  0  0
    5.3080   -4.5560   28.9400 N   0  0  0  0  0  0  0  0  0  0  0  0
    5.2740   -5.8580   29.6030 C   0  0  0  0  0  0  0  0  0  0  0  0
    4.4770   -5.7780   30.7240 C   0  0  0  0  0  0  0  0  0  0  0  0
    3.4020   -4.9400   30.9290 C   0  0  0  0  0  0  0  0  0  0  0  0
    2.6430   -4.9130   32.0930 C   0  0  0  0  0  0  0  0  0  0  0  0
    1.2390   -3.6510   32.0670 Br  0  0  0  0  0  0  0  0  0  0  0  0
    2.7470   -5.7310   33.4000 C   0  0  0  0  0  0  0  0  0  0  0  0
    3.9510   -6.5690   32.9880 C   0  0  0  0  0  0  0  0  0  0  0  0
    4.7570   -6.5930   31.7460 C   0  0  0  0  0  0  0  0  0  0  0  0
    5.7900   -7.4440   31.6360 F   0  0  0  0  0  0  0  0  0  0  0  0
    6.3500   -4.7020   27.9530 C   0  0  0  0  0  0  0  0  0  0  0  0
    6.5110   -3.3920   27.4160 C   0  0  0  0  0  0  0  0  0  0  0  0
    7.1240   -3.0400   23.8380 C   0  0  0  0  0  0  0  0  0  0  0  0
    7.5850   -3.2410   22.3960 C   0  0  0  0  0  0  0  0  0  0  0  0
  1  2  1  0
  2  3  2  0
  2  4  1  0
  4  5  1  0
  5  6  1  0
  6  7  1  0
  7  8  1  0
  8  9  2  0
  8 10  1  0
 10 11  1  0
 11 12  1  0
 12 13  1  0
 13 14  1  0
 14 15  1  0
 15 16  2  0
 16 17  1  0
 17 18  1  0
 17 19  2  0
 19 20  1  0
 15 21  1  0
 20 21  2  0
 21 22  1  0
 13 23  1  0
 10 24  1  0
 23 24  1  0
  7 25  1  0
  4 26  1  0
 25 26  1  0
M  END
