piperidine-amides-27445-covalent
     RDKit          3D

 21 22  0  0  0  0  0  0  0  0999 V2000
    7.1130   -3.2820   19.2180 C   0  0  0  0  0  0  0  0  0  0  0  0
    6.3680   -4.0260   20.2360 C   0  0  0  0  0  0  0  0  0  0  0  0
    5.2760   -4.5410   19.8790 O   0  0  0  0  0  0  0  0  0  0  0  0
    6.8970   -4.1860   21.5150 N   0  0  0  0  0  0  0  0  0  0  0  0
    7.7070   -3.1650   22.1360 C   0  0  0  0  0  0  0  0  0  0  0  0
    6.9930   -2.6750   23.3600 C   0  0  0  0  0  0  0  0  0  0  0  0
    6.4800   -3.8020   24.2070 C   0  0  0  0  0  0  0  0  0  0  0  0
    5.7160   -3.2870   25.3750 C   0  0  0  0  0  0  0  0  0  0  0  0
    4.4770   -3.1570   25.2470 O   0  0  0  0  0  0  0  0  0  0  0  0
    6.2960   -2.9450   26.6200 N   0  0  0  0  0  0  0  0  0  0  0  0
    6.2840   -3.9330   27.6800 C   0  0  0  0  0  0  0  0  0  0  0  0
    6.5100   -1.5520   26.9790 C   0  0  0  0  0  0  0  0  0  0  0  0
    5.9730   -0.6450   26.0880 C   0  0  0  0  0  0  0  0  0  0  0  0
    4.9310    0.2050   26.5080 N   0  0  0  0  0  0  0  0  0  0  0  0
    4.3480    1.1520   25.7050 C   0  0  0  0  0  0  0  0  0  0  0  0
    4.8630    1.2150   24.4490 C   0  0  0  0  0  0  0  0  0  0  0  0
    4.3330    2.3990   23.0520 Br  0  0  0  0  0  0  0  0  0  0  0  0
    5.8190    0.2790   24.3870 C   0  0  0  0  0  0  0  0  0  0  0  0
    6.4530   -0.5520   24.8060 N   0  0  0  0  0  0  0  0  0  0  0  0
    5.5470   -4.7480   23.4520 C   0  0  0  0  0  0  0  0  0  0  0  0
    6.3510   -5.2880   22.2980 C   0  0  0  0  0  0  0  0  0  0  0  0
  1  2  1  0
  2  3  2  0
  2  4  1  0
  4  5  1  0
  5  6  1  0
  6  7  1  0
  7  8  1  0
  8  9  2  0
  8 10  1  0
 10 11  1  0
 10 12  1  0
 12 13  1  0
 13 14  2  0
 14 15  1  0
 15 16  2  0
 16 17  1  0
 16 18  1  0
 13 19  1  0
 18 19  2  0
  7 20  1  0
  4 21  1  0
 20 21  1  0
M  END
