piperidine-amides-2029-covalent
     RDKit          3D

 26 28  0  0  0  0  0  0  0  0999 V2000
    7.0530   -3.2830   19.2250 C   0  0  0  0  0  0  0  0  0  0  0  0
    6.3350   -4.0580   20.2770 C   0  0  0  0  0  0  0  0  0  0  0  0
    5.3290   -4.6730   19.9240 O   0  0  0  0  0  0  0  0  0  0  0  0
    6.8180   -4.1000   21.5860 N   0  0  0  0  0  0  0  0  0  0  0  0
    7.7230   -3.0950   22.0930 C   0  0  0  0  0  0  0  0  0  0  0  0
    7.6170   -3.0230   23.5800 C   0  0  0  0  0  0  0  0  0  0  0  0
    6.2500   -3.5530   24.0070 C   0  0  0  0  0  0  0  0  0  0  0  0
    6.1420   -3.4520   25.4790 C   0  0  0  0  0  0  0  0  0  0  0  0
    5.0180   -3.5400   25.9970 O   0  0  0  0  0  0  0  0  0  0  0  0
    7.3020   -3.2250   26.2700 N   0  0  0  0  0  0  0  0  0  0  0  0
    7.6790   -4.1060   27.3710 C   0  0  2  0  0  0  0  0  0  0  0  0
    8.5390   -5.2350   26.8250 C   0  0  0  0  0  0  0  0  0  0  0  0
    6.5270   -4.7160   28.0940 C   0  0  0  0  0  0  0  0  0  0  0  0
    6.2500   -6.0990   27.9310 N   0  0  0  0  0  0  0  0  0  0  0  0
    5.1720   -6.8110   28.5750 C   0  0  0  0  0  0  0  0  0  0  0  0
    4.3680   -6.0960   29.3990 C   0  0  0  0  0  0  0  0  0  0  0  0
    4.5570   -4.6250   29.6570 C   0  0  0  0  0  0  0  0  0  0  0  0
    3.5290   -4.1170   30.6010 C   0  0  0  0  0  0  0  0  0  0  0  0
    3.6220   -2.6260   30.9470 C   0  0  0  0  0  0  0  0  0  0  0  0
    4.7400   -1.7920   30.3100 C   0  0  0  0  0  0  0  0  0  0  0  0
    4.7460   -0.4450   30.6850 O   0  0  0  0  0  0  0  0  0  0  0  0
    3.5910    0.0020   31.2700 C   0  0  0  0  0  0  0  0  0  0  0  0
    5.7280   -2.4170   29.3620 C   0  0  0  0  0  0  0  0  0  0  0  0
    5.6610   -3.8300   29.0170 C   0  0  0  0  0  0  0  0  0  0  0  0
    6.0470   -5.0070   23.5810 C   0  0  0  0  0  0  0  0  0  0  0  0
    6.6660   -5.3100   22.3830 C   0  0  0  0  0  0  0  0  0  0  0  0
  1  2  1  0
  2  3  2  0
  2  4  1  0
  4  5  1  0
  5  6  1  0
  6  7  1  0
  7  8  1  0
  8  9  2  0
  8 10  1  0
 10 11  1  0
 11 12  1  6
 11 13  1  0
 13 14  2  0
 14 15  1  0
 15 16  2  0
 16 17  1  0
 17 18  1  0
 18 19  2  0
 19 20  1  0
 20 21  1  0
 21 22  1  0
 20 23  2  0
 13 24  1  0
 17 24  2  0
 23 24  1  0
  7 25  1  0
  4 26  1  0
 25 26  1  0
M  END
