piperidine-amides-528-covalent
     RDKit          3D

 27 29  0  0  0  0  0  0  0  0999 V2000
    7.2420   -3.3120   19.3400 C   0  0  0  0  0  0  0  0  0  0  0  0
    6.4490   -4.0590   20.2810 C   0  0  0  0  0  0  0  0  0  0  0  0
    5.3420   -4.5480   19.8980 O   0  0  0  0  0  0  0  0  0  0  0  0
    6.9180   -4.3070   21.5850 N   0  0  0  0  0  0  0  0  0  0  0  0
    7.9090   -3.3640   22.1480 C   0  0  0  0  0  0  0  0  0  0  0  0
    6.9920   -2.6870   23.2030 C   0  0  0  0  0  0  0  0  0  0  0  0
    6.6030   -3.8100   24.1320 C   0  0  0  0  0  0  0  0  0  0  0  0
    5.7140   -3.1590   25.2520 C   0  0  0  0  0  0  0  0  0  0  0  0
    5.0110   -2.2810   24.7690 O   0  0  0  0  0  0  0  0  0  0  0  0
    5.9230   -3.6950   26.3750 N   0  0  0  0  0  0  0  0  0  0  0  0
    5.9330   -4.1010   27.6630 C   0  0  1  0  0  0  0  0  0  0  0  0
    5.4660   -3.4070   28.7440 C   0  0  0  0  0  0  0  0  0  0  0  0
    6.2140   -2.2620   29.0310 C   0  0  0  0  0  0  0  0  0  0  0  0
    5.9560   -1.2770   30.1170 C   0  0  0  0  0  0  0  0  0  0  0  0
    4.6880   -1.6970   30.9360 C   0  0  0  0  0  0  0  0  0  0  0  0
    4.0530   -2.8860   30.5130 C   0  0  0  0  0  0  0  0  0  0  0  0
    4.4180   -3.7140   29.4630 C   0  0  0  0  0  0  0  0  0  0  0  0
    5.1710   -5.3860   27.7360 C   0  0  0  0  0  0  0  0  0  0  0  0
    4.5860   -5.5040   26.2950 C   0  0  0  0  0  0  0  0  0  0  0  0
    3.8030   -6.5990   26.0020 C   0  0  0  0  0  0  0  0  0  0  0  0
    3.1190   -6.8030   24.4160 Cl  0  0  0  0  0  0  0  0  0  0  0  0
    3.5610   -7.5430   26.9800 C   0  0  0  0  0  0  0  0  0  0  0  0
    4.0970   -7.4000   28.2280 C   0  0  0  0  0  0  0  0  0  0  0  0
    4.8910   -6.3650   28.6490 C   0  0  0  0  0  0  0  0  0  0  0  0
    5.4840   -6.3490   30.2830 Cl  0  0  0  0  0  0  0  0  0  0  0  0
    5.9320   -5.0330   23.5770 C   0  0  0  0  0  0  0  0  0  0  0  0
    6.5430   -5.4980   22.2900 C   0  0  0  0  0  0  0  0  0  0  0  0
  1  2  1  0
  2  3  2  0
  2  4  1  0
  4  5  1  0
  5  6  1  0
  6  7  1  0
  7  8  1  0
  8  9  2  0
  8 10  1  0
 11 10  1  6
 11 12  1  0
 12 13  2  0
 13 14  1  0
 14 15  2  0
 15 16  1  0
 12 17  1  0
 16 17  2  0
 11 18  1  0
 18 19  2  0
 19 20  1  0
 20 21  1  0
 20 22  2  0
 22 23  1  0
 18 24  1  0
 23 24  2  0
 24 25  1  0
  7 26  1  0
  4 27  1  0
 26 27  1  0
M  END
