piperidine-amides-33677-covalent
     RDKit          3D

 29 32  0  0  0  0  0  0  0  0999 V2000
    7.0730   -3.3430   19.3350 C   0  0  0  0  0  0  0  0  0  0  0  0
    6.4120   -4.2010   20.3300 C   0  0  0  0  0  0  0  0  0  0  0  0
    5.3660   -4.7870   19.9670 O   0  0  0  0  0  0  0  0  0  0  0  0
    6.9640   -4.4040   21.6230 N   0  0  0  0  0  0  0  0  0  0  0  0
    6.5110   -5.5200   22.3660 C   0  0  0  0  0  0  0  0  0  0  0  0
    5.9380   -5.1650   23.6660 C   0  0  0  0  0  0  0  0  0  0  0  0
    6.4900   -3.9580   24.3160 C   0  0  0  0  0  0  0  0  0  0  0  0
    5.4670   -3.3690   25.2560 C   0  0  0  0  0  0  0  0  0  0  0  0
    4.4240   -2.8770   24.7980 O   0  0  0  0  0  0  0  0  0  0  0  0
    5.6740   -3.3690   26.6410 N   0  0  0  0  0  0  0  0  0  0  0  0
    4.8330   -3.3990   27.7300 C   0  0  0  0  0  0  0  0  0  0  0  0
    5.3860   -4.3670   28.6790 C   0  0  0  0  0  0  0  0  0  0  0  0
    6.0130   -5.3590   28.0890 O   0  0  0  0  0  0  0  0  0  0  0  0
    7.3420   -5.0950   27.7860 C   0  0  0  0  0  0  0  0  0  0  0  0
    7.5540   -6.1790   28.5540 C   0  0  0  0  0  0  0  0  0  0  0  0
    6.2130   -6.7090   28.9660 C   0  0  0  0  0  0  0  0  0  0  0  0
    5.2800   -5.7800   28.3180 C   0  0  0  0  0  0  0  0  0  0  0  0
    4.0040   -6.4860   28.8270 C   0  0  0  0  0  0  0  0  0  0  0  0
    2.6920   -6.6870   28.1800 C   0  0  0  0  0  0  0  0  0  0  0  0
    1.8820   -7.4510   29.1770 C   0  0  0  0  0  0  0  0  0  0  0  0
    2.5990   -7.7890   30.5120 C   0  0  0  0  0  0  0  0  0  0  0  0
    1.8160   -8.5540   31.5180 C   0  0  0  0  0  0  0  0  0  0  0  0
    1.9690   -8.5630   32.9280 N   0  0  0  0  0  0  0  0  0  0  0  0
    0.8000   -9.3740   31.0470 O   0  0  0  0  0  0  0  0  0  0  0  0
    4.2040   -7.1250   30.4000 S   0  0  0  0  0  0  0  0  0  0  0  0
    5.5210   -4.6360   27.5070 C   0  0  0  0  0  0  0  0  0  0  0  0
    6.7650   -4.0960   27.0980 C   0  0  0  0  0  0  0  0  0  0  0  0
    6.8990   -2.8970   23.3360 C   0  0  0  0  0  0  0  0  0  0  0  0
    7.7080   -3.3820   22.3140 C   0  0  0  0  0  0  0  0  0  0  0  0
  1  2  1  0
  2  3  2  0
  2  4  1  0
  4  5  1  0
  5  6  1  0
  6  7  1  0
  7  8  1  0
  8  9  2  0
  8 10  1  0
 10 11  1  0
 11 12  1  0
 12 13  1  0
 13 14  1  0
 14 15  2  0
 15 16  1  0
 16 17  2  0
 17 18  1  0
 18 19  2  0
 19 20  1  0
 20 21  2  0
 21 22  1  0
 22 23  1  0
 22 24  2  0
 18 25  1  0
 21 25  1  0
 17 26  1  0
 10 27  1  0
 14 27  1  0
 26 27  2  0
  7 28  1  0
  4 29  1  0
 28 29  1  0
M  END
