piperidine-amides-19917-covalent
     RDKit          3D

 22 24  0  0  0  0  0  0  0  0999 V2000
    7.0140   -3.3510   19.3760 C   0  0  0  0  0  0  0  0  0  0  0  0
    6.3550   -4.2280   20.3790 C   0  0  0  0  0  0  0  0  0  0  0  0
    5.3800   -4.8650   19.9870 O   0  0  0  0  0  0  0  0  0  0  0  0
    6.8570   -4.3520   21.6890 N   0  0  0  0  0  0  0  0  0  0  0  0
    6.5350   -5.4940   22.4990 C   0  0  0  0  0  0  0  0  0  0  0  0
    5.6110   -5.0620   23.6120 C   0  0  0  0  0  0  0  0  0  0  0  0
    6.1670   -3.8270   24.3370 C   0  0  0  0  0  0  0  0  0  0  0  0
    5.0720   -3.2960   25.2280 C   0  0  0  0  0  0  0  0  0  0  0  0
    3.9290   -3.2180   24.7840 O   0  0  0  0  0  0  0  0  0  0  0  0
    5.3230   -2.8800   26.5620 N   0  0  0  0  0  0  0  0  0  0  0  0
    6.5510   -3.3130   26.9880 C   0  0  0  0  0  0  0  0  0  0  0  0
    6.1600   -4.3970   27.9890 C   0  0  2  0  0  0  0  0  0  0  0  0
    6.3000   -5.7290   28.1530 C   0  0  0  0  0  0  0  0  0  0  0  0
    6.2870   -5.8230   29.5100 N   0  0  0  0  0  0  0  0  0  0  0  0
    5.6440   -6.8850   30.2350 C   0  0  0  0  0  0  0  0  0  0  0  0
    4.7710   -7.7520   29.6570 C   0  0  0  0  0  0  0  0  0  0  0  0
    5.9880   -6.9750   31.5800 O   0  0  0  0  0  0  0  0  0  0  0  0
    5.5970   -4.4720   29.5020 C   0  0  0  0  0  0  0  0  0  0  0  0
    4.7550   -4.3930   28.2290 C   0  0  1  0  0  0  0  0  0  0  0  0
    4.3710   -3.0500   27.6530 C   0  0  0  0  0  0  0  0  0  0  0  0
    6.7820   -2.7920   23.4650 C   0  0  0  0  0  0  0  0  0  0  0  0
    7.5920   -3.2810   22.3040 C   0  0  0  0  0  0  0  0  0  0  0  0
  1  2  1  0
  2  3  2  0
  2  4  1  0
  4  5  1  0
  5  6  1  0
  6  7  1  0
  7  8  1  0
  8  9  2  0
  8 10  1  0
 10 11  1  0
 12 11  1  6
 12 13  1  0
 13 14  1  0
 14 15  1  0
 15 16  1  0
 15 17  2  0
 14 18  1  0
 12 19  1  0
 19 18  1  1
 10 20  1  0
 19 20  1  0
  7 21  1  0
  4 22  1  0
 21 22  1  0
M  END
