piperidine-amides-12032-covalent
     RDKit          3D

 25 27  0  0  0  0  0  0  0  0999 V2000
    7.0910   -3.3470   19.2780 C   0  0  0  0  0  0  0  0  0  0  0  0
    6.4030   -4.1600   20.2740 C   0  0  0  0  0  0  0  0  0  0  0  0
    5.3750   -4.7610   19.9670 O   0  0  0  0  0  0  0  0  0  0  0  0
    6.9600   -4.3160   21.5900 N   0  0  0  0  0  0  0  0  0  0  0  0
    6.6290   -5.4620   22.3840 C   0  0  0  0  0  0  0  0  0  0  0  0
    6.0330   -5.0130   23.6880 C   0  0  0  0  0  0  0  0  0  0  0  0
    6.7370   -3.7410   24.1630 C   0  0  0  0  0  0  0  0  0  0  0  0
    5.9530   -3.1640   25.2770 C   0  0  0  0  0  0  0  0  0  0  0  0
    4.7320   -3.4030   25.3960 O   0  0  0  0  0  0  0  0  0  0  0  0
    6.5680   -2.3130   26.2280 N   0  0  0  0  0  0  0  0  0  0  0  0
    5.7180   -1.9690   27.3280 C   0  0  2  0  0  0  0  0  0  0  0  0
    4.9510   -0.7120   27.1630 C   0  0  1  0  0  0  0  0  0  0  0  0
    3.8640   -0.7640   28.0040 C   0  0  0  0  0  0  0  0  0  0  0  0
    3.9990   -1.5890   28.9740 O   0  0  0  0  0  0  0  0  0  0  0  0
    5.2800   -1.9520   29.4990 C   0  0  0  0  0  0  0  0  0  0  0  0
    6.3550   -1.8740   28.6350 C   0  0  2  0  0  0  0  0  0  0  0  0
    7.0710   -0.6370   28.8700 C   0  0  0  0  0  0  0  0  0  0  0  0
    6.4840    0.5900   28.5600 C   0  0  2  0  0  0  0  0  0  0  0  0
    5.7390    1.3070   29.4890 C   0  0  0  0  0  0  0  0  0  0  0  0
    4.8790    2.1680   29.1620 O   0  0  0  0  0  0  0  0  0  0  0  0
    5.9310    1.1030   30.8480 O   0  0  0  0  0  0  0  0  0  0  0  0
    4.9020    0.5600   31.6370 C   0  0  0  0  0  0  0  0  0  0  0  0
    5.6660    0.4470   27.3170 C   0  0  0  0  0  0  0  0  0  0  0  0
    6.9320   -2.6910   23.0970 C   0  0  0  0  0  0  0  0  0  0  0  0
    7.7690   -3.2840   22.1770 C   0  0  0  0  0  0  0  0  0  0  0  0
  1  2  1  0
  2  3  2  0
  2  4  1  0
  4  5  1  0
  5  6  1  0
  6  7  1  0
  7  8  1  0
  8  9  2  0
  8 10  1  0
 11 10  1  6
 11 12  1  0
 12 13  1  1
 13 14  1  0
 14 15  1  0
 11 16  1  0
 16 15  1  1
 16 17  1  0
 17 18  1  0
 18 19  1  1
 19 20  2  0
 19 21  1  0
 21 22  1  0
 12 23  1  0
 18 23  1  0
  7 24  1  0
  4 25  1  0
 24 25  1  0
M  END
