piperidine-amides-5428-covalent
     RDKit          3D

 20 22  0  0  0  0  0  0  0  0999 V2000
    7.1050   -3.3220   19.2800 C   0  0  0  0  0  0  0  0  0  0  0  0
    6.3940   -4.1170   20.2790 C   0  0  0  0  0  0  0  0  0  0  0  0
    5.3580   -4.7180   19.9510 O   0  0  0  0  0  0  0  0  0  0  0  0
    6.9010   -4.2510   21.5790 N   0  0  0  0  0  0  0  0  0  0  0  0
    7.7400   -3.2390   22.1790 C   0  0  0  0  0  0  0  0  0  0  0  0
    6.9490   -2.7090   23.3350 C   0  0  0  0  0  0  0  0  0  0  0  0
    6.5210   -3.8190   24.2370 C   0  0  0  0  0  0  0  0  0  0  0  0
    5.7570   -3.3390   25.4060 C   0  0  0  0  0  0  0  0  0  0  0  0
    4.5130   -3.1270   25.3050 O   0  0  0  0  0  0  0  0  0  0  0  0
    6.3430   -3.0990   26.6670 N   0  0  0  0  0  0  0  0  0  0  0  0
    6.3920   -1.7150   27.1950 C   0  0  0  0  0  0  0  0  0  0  0  0
    7.0130   -1.3470   28.4550 C   0  0  0  0  0  0  0  0  0  0  0  0
    6.8010   -0.0020   28.5230 N   0  0  0  0  0  0  0  0  0  0  0  0
    6.1320    0.4520   27.4420 N   0  0  0  0  0  0  0  0  0  0  0  0
    5.6760    1.8030   27.0620 C   0  0  0  0  0  0  0  0  0  0  0  0
    4.3020    1.8260   27.2430 C   0  0  0  0  0  0  0  0  0  0  0  0
    5.1360    2.8040   28.1260 C   0  0  0  0  0  0  0  0  0  0  0  0
    5.8420   -0.5290   26.5740 C   0  0  0  0  0  0  0  0  0  0  0  0
    5.7420   -4.8550   23.4570 C   0  0  0  0  0  0  0  0  0  0  0  0
    6.4720   -5.3710   22.3790 C   0  0  0  0  0  0  0  0  0  0  0  0
  1  2  1  0
  2  3  2  0
  2  4  1  0
  4  5  1  0
  5  6  1  0
  6  7  1  0
  7  8  1  0
  8  9  2  0
  8 10  1  0
 10 11  1  0
 11 12  1  0
 12 13  2  0
 13 14  1  0
 14 15  1  0
 15 16  1  0
 15 17  1  0
 16 17  1  0
 11 18  2  0
 14 18  1  0
  7 19  1  0
  4 20  1  0
 19 20  1  0
M  END
