piperidine-amides-30137-covalent
     RDKit          3D

 27 28  0  0  0  0  0  0  0  0999 V2000
    7.0770   -3.3500   19.2750 C   0  0  0  0  0  0  0  0  0  0  0  0
    6.2930   -4.1390   20.2160 C   0  0  0  0  0  0  0  0  0  0  0  0
    5.2040   -4.5820   19.8830 O   0  0  0  0  0  0  0  0  0  0  0  0
    6.8330   -4.4520   21.5020 N   0  0  0  0  0  0  0  0  0  0  0  0
    7.5580   -3.4420   22.1930 C   0  0  0  0  0  0  0  0  0  0  0  0
    6.5920   -2.6610   23.0240 C   0  0  0  0  0  0  0  0  0  0  0  0
    5.7840   -3.6670   23.8100 C   0  0  0  0  0  0  0  0  0  0  0  0
    5.7670   -3.2890   25.2410 C   0  0  0  0  0  0  0  0  0  0  0  0
    4.6920   -3.0770   25.8330 O   0  0  0  0  0  0  0  0  0  0  0  0
    6.9810   -3.1540   25.9610 N   0  0  0  0  0  0  0  0  0  0  0  0
    7.6840   -1.9100   25.7540 C   0  0  0  0  0  0  0  0  0  0  0  0
    8.8740   -2.0510   24.7950 C   0  0  0  0  0  0  0  0  0  0  0  0
   10.1670   -2.0460   25.2840 C   0  0  0  0  0  0  0  0  0  0  0  0
   11.3070   -2.1660   24.4630 C   0  0  0  0  0  0  0  0  0  0  0  0
   11.1360   -2.2920   23.1190 C   0  0  0  0  0  0  0  0  0  0  0  0
    9.8040   -2.2930   22.6080 C   0  0  0  0  0  0  0  0  0  0  0  0
    8.7150   -2.1740   23.4330 C   0  0  0  0  0  0  0  0  0  0  0  0
    6.9990   -3.6260   27.3310 C   0  0  0  0  0  0  0  0  0  0  0  0
    6.5340   -4.8940   27.6660 C   0  0  1  0  0  0  0  0  0  0  0  0
    7.3880   -5.9150   28.2470 C   0  0  0  0  0  0  0  0  0  0  0  0
    5.6630   -4.3780   28.8100 C   0  0  0  0  0  0  0  0  0  0  0  0
    4.8830   -3.2630   28.9400 O   0  0  0  0  0  0  0  0  0  0  0  0
    5.6590   -5.1930   29.9090 O   0  0  0  0  0  0  0  0  0  0  0  0
    4.7240   -6.2470   30.1460 C   0  0  0  0  0  0  0  0  0  0  0  0
    5.4980   -7.5240   30.1980 C   0  0  0  0  0  0  0  0  0  0  0  0
    6.2500   -5.0920   23.7130 C   0  0  0  0  0  0  0  0  0  0  0  0
    6.3450   -5.5520   22.2680 C   0  0  0  0  0  0  0  0  0  0  0  0
  1  2  1  0
  2  3  2  0
  2  4  1  0
  4  5  1  0
  5  6  1  0
  6  7  1  0
  7  8  1  0
  8  9  2  0
  8 10  1  0
 10 11  1  0
 11 12  1  0
 12 13  2  0
 13 14  1  0
 14 15  2  0
 15 16  1  0
 12 17  1  0
 16 17  2  0
 10 18  1  0
 18 19  1  0
 19 20  1  1
 19 21  1  0
 21 22  2  0
 21 23  1  0
 23 24  1  0
 24 25  1  0
  7 26  1  0
  4 27  1  0
 26 27  1  0
M  END
