piperidine-amides-2848-covalent
     RDKit          3D

 24 25  0  0  0  0  0  0  0  0999 V2000
    7.0960   -3.2790   19.1950 C   0  0  0  0  0  0  0  0  0  0  0  0
    6.3240   -4.0200   20.1910 C   0  0  0  0  0  0  0  0  0  0  0  0
    5.2590   -4.5400   19.8760 O   0  0  0  0  0  0  0  0  0  0  0  0
    6.8260   -4.1910   21.5250 N   0  0  0  0  0  0  0  0  0  0  0  0
    6.5530   -5.4050   22.2480 C   0  0  0  0  0  0  0  0  0  0  0  0
    5.9870   -5.1020   23.6140 C   0  0  0  0  0  0  0  0  0  0  0  0
    5.9740   -3.5920   23.8320 C   0  0  0  0  0  0  0  0  0  0  0  0
    5.6470   -3.2510   25.2330 C   0  0  0  0  0  0  0  0  0  0  0  0
    4.4790   -3.1680   25.6650 O   0  0  0  0  0  0  0  0  0  0  0  0
    6.7430   -3.0020   26.0790 N   0  0  0  0  0  0  0  0  0  0  0  0
    6.6460   -3.1720   27.5040 C   0  0  0  0  0  0  0  0  0  0  0  0
    5.7370   -4.2870   27.9030 C   0  0  0  0  0  0  0  0  0  0  0  0
    4.6290   -4.1070   28.7330 C   0  0  0  0  0  0  0  0  0  0  0  0
    3.7870   -5.1570   29.1200 C   0  0  0  0  0  0  0  0  0  0  0  0
    4.0390   -6.4170   28.6830 C   0  0  0  0  0  0  0  0  0  0  0  0
    3.3030   -7.6360   28.9670 C   0  0  0  0  0  0  0  0  0  0  0  0
    5.0780   -6.7060   27.8760 C   0  0  0  0  0  0  0  0  0  0  0  0
    5.9100   -5.6850   27.4880 C   0  0  0  0  0  0  0  0  0  0  0  0
    6.9430   -6.0920   26.6630 O   0  0  0  0  0  0  0  0  0  0  0  0
    8.1310   -5.3810   26.8840 C   0  0  0  0  0  0  0  0  0  0  0  0
    8.5160   -5.4350   28.2820 C   0  0  0  0  0  0  0  0  0  0  0  0
    9.3180   -5.9550   26.1470 C   0  0  0  0  0  0  0  0  0  0  0  0
    7.3150   -2.9910   23.5230 C   0  0  0  0  0  0  0  0  0  0  0  0
    7.6110   -3.1490   22.0820 C   0  0  0  0  0  0  0  0  0  0  0  0
  1  2  1  0
  2  3  2  0
  2  4  1  0
  4  5  1  0
  5  6  1  0
  6  7  1  0
  7  8  1  0
  8  9  2  0
  8 10  1  0
 10 11  1  0
 11 12  1  0
 12 13  2  0
 13 14  1  0
 14 15  2  0
 15 16  1  0
 15 17  1  0
 12 18  1  0
 17 18  2  0
 18 19  1  0
 19 20  1  0
 20 21  1  0
 20 22  1  0
  7 23  1  0
  4 24  1  0
 23 24  1  0
M  END
