piperidine-amides-12697-covalent
     RDKit          3D

 23 24  0  0  0  0  0  0  0  0999 V2000
    7.0490   -3.2750   19.1680 C   0  0  0  0  0  0  0  0  0  0  0  0
    6.2850   -4.0150   20.2030 C   0  0  0  0  0  0  0  0  0  0  0  0
    5.2030   -4.5100   19.8470 O   0  0  0  0  0  0  0  0  0  0  0  0
    6.7780   -4.1890   21.4990 N   0  0  0  0  0  0  0  0  0  0  0  0
    7.4950   -3.1260   22.1190 C   0  0  0  0  0  0  0  0  0  0  0  0
    7.0840   -2.8490   23.4940 C   0  0  0  0  0  0  0  0  0  0  0  0
    6.6390   -4.0320   24.2710 C   0  0  0  0  0  0  0  0  0  0  0  0
    6.0030   -3.6190   25.5490 C   0  0  0  0  0  0  0  0  0  0  0  0
    4.7930   -3.3070   25.5340 O   0  0  0  0  0  0  0  0  0  0  0  0
    6.7460   -3.5730   26.7550 N   0  0  0  0  0  0  0  0  0  0  0  0
    7.3120   -4.7770   27.4250 C   0  0  0  0  0  0  0  0  0  0  0  0
    8.7530   -4.9930   27.0920 C   0  0  0  0  0  0  0  0  0  0  0  0
    9.2940   -4.1100   26.0660 C   0  0  0  0  0  0  0  0  0  0  0  0
    8.5110   -3.2590   25.5450 O   0  0  0  0  0  0  0  0  0  0  0  0
   10.6850   -4.2990   25.7700 N   0  0  0  0  0  0  0  0  0  0  0  0
   11.4940   -3.3000   25.1860 C   0  0  0  0  0  0  0  0  0  0  0  0
   12.8150   -3.1860   25.4140 C   0  0  0  0  0  0  0  0  0  0  0  0
   13.4880   -2.1950   24.8070 C   0  0  0  0  0  0  0  0  0  0  0  0
   12.9210   -1.2690   23.9530 C   0  0  0  0  0  0  0  0  0  0  0  0
   11.5790   -1.3780   23.7180 N   0  0  0  0  0  0  0  0  0  0  0  0
   10.9320   -2.3810   24.3390 C   0  0  0  0  0  0  0  0  0  0  0  0
    5.7220   -4.8940   23.4350 C   0  0  0  0  0  0  0  0  0  0  0  0
    6.5170   -5.3800   22.2810 C   0  0  0  0  0  0  0  0  0  0  0  0
  1  2  1  0
  2  3  2  0
  2  4  1  0
  4  5  1  0
  5  6  1  0
  6  7  1  0
  7  8  1  0
  8  9  2  0
  8 10  1  0
 10 11  1  0
 11 12  1  0
 12 13  1  0
 13 14  2  0
 13 15  1  0
 15 16  1  0
 16 17  2  0
 17 18  1  0
 18 19  2  0
 19 20  1  0
 16 21  1  0
 20 21  2  0
  7 22  1  0
  4 23  1  0
 22 23  1  0
M  END
