piperidine-amides-14140-covalent
     RDKit          3D

 25 27  0  0  0  0  0  0  0  0999 V2000
    7.1240   -3.2470   19.1880 C   0  0  0  0  0  0  0  0  0  0  0  0
    6.3540   -4.0310   20.1930 C   0  0  0  0  0  0  0  0  0  0  0  0
    5.2700   -4.5450   19.8710 O   0  0  0  0  0  0  0  0  0  0  0  0
    6.8970   -4.2190   21.4780 N   0  0  0  0  0  0  0  0  0  0  0  0
    6.6140   -5.3870   22.2690 C   0  0  0  0  0  0  0  0  0  0  0  0
    5.7220   -4.9040   23.4120 C   0  0  0  0  0  0  0  0  0  0  0  0
    6.5030   -3.8810   24.1740 C   0  0  0  0  0  0  0  0  0  0  0  0
    5.7510   -3.3260   25.3190 C   0  0  0  0  0  0  0  0  0  0  0  0
    4.5610   -3.0560   25.1150 O   0  0  0  0  0  0  0  0  0  0  0  0
    6.3780   -3.1400   26.5500 N   0  0  0  0  0  0  0  0  0  0  0  0
    6.1400   -3.8760   27.7350 C   0  0  0  0  0  0  0  0  0  0  0  0
    5.7550   -5.1970   27.7820 C   0  0  0  0  0  0  0  0  0  0  0  0
    5.0940   -5.6200   28.9310 C   0  0  0  0  0  0  0  0  0  0  0  0
    3.7370   -5.5310   29.0800 C   0  0  0  0  0  0  0  0  0  0  0  0
    3.0280   -5.9590   30.3040 C   0  0  0  0  0  0  0  0  0  0  0  0
    3.7550   -6.5400   31.5190 C   0  0  0  0  0  0  0  0  0  0  0  0
    5.2510   -6.5680   31.1730 C   0  0  0  0  0  0  0  0  0  0  0  0
    5.8080   -6.1400   29.9710 C   0  0  0  0  0  0  0  0  0  0  0  0
    6.0130   -7.0710   32.2210 O   0  0  0  0  0  0  0  0  0  0  0  0
    5.4820   -7.8190   33.2960 C   0  0  0  0  0  0  0  0  0  0  0  0
    4.6780   -7.0160   34.3060 C   0  0  0  0  0  0  0  0  0  0  0  0
    3.4320   -6.5850   33.9080 C   0  0  0  0  0  0  0  0  0  0  0  0
    3.2040   -6.9620   32.7120 O   0  0  0  0  0  0  0  0  0  0  0  0
    6.9850   -2.7130   23.3760 C   0  0  0  0  0  0  0  0  0  0  0  0
    7.6690   -3.1650   22.1150 C   0  0  0  0  0  0  0  0  0  0  0  0
  1  2  1  0
  2  3  2  0
  2  4  1  0
  4  5  1  0
  5  6  1  0
  6  7  1  0
  7  8  1  0
  8  9  2  0
  8 10  1  0
 10 11  1  0
 11 12  1  0
 12 13  1  0
 13 14  2  0
 14 15  1  0
 15 16  2  0
 16 17  1  0
 13 18  1  0
 17 18  2  0
 17 19  1  0
 19 20  1  0
 20 21  1  0
 21 22  1  0
 16 23  1  0
 22 23  1  0
  7 24  1  0
  4 25  1  0
 24 25  1  0
M  END
