piperidine-amides-14916-covalent
     RDKit          3D

 21 21  0  0  0  0  0  0  0  0999 V2000
    7.1750   -3.2800   19.1750 C   0  0  0  0  0  0  0  0  0  0  0  0
    6.3780   -3.9880   20.1670 C   0  0  0  0  0  0  0  0  0  0  0  0
    5.2730   -4.4520   19.8420 O   0  0  0  0  0  0  0  0  0  0  0  0
    6.9170   -4.1750   21.4460 N   0  0  0  0  0  0  0  0  0  0  0  0
    6.4450   -5.2640   22.2350 C   0  0  0  0  0  0  0  0  0  0  0  0
    5.7570   -4.6970   23.4370 C   0  0  0  0  0  0  0  0  0  0  0  0
    6.7990   -3.9050   24.2120 C   0  0  0  0  0  0  0  0  0  0  0  0
    6.2390   -3.4480   25.5030 C   0  0  0  0  0  0  0  0  0  0  0  0
    5.0930   -2.9850   25.4880 O   0  0  0  0  0  0  0  0  0  0  0  0
    7.0730   -3.5800   26.6100 N   0  0  0  0  0  0  0  0  0  0  0  0
    6.6430   -4.2850   27.7580 C   0  0  1  0  0  0  0  0  0  0  0  0
    5.2960   -4.6280   27.7630 C   0  0  0  0  0  0  0  0  0  0  0  0
    4.4510   -4.1170   28.5300 O   0  0  0  0  0  0  0  0  0  0  0  0
    4.8300   -5.5850   26.8840 O   0  0  0  0  0  0  0  0  0  0  0  0
    4.2810   -6.8270   27.1000 C   0  0  0  0  0  0  0  0  0  0  0  0
    3.7490   -7.1850   25.8720 C   0  0  0  0  0  0  0  0  0  0  0  0
    7.3050   -5.5980   27.8750 C   0  0  0  0  0  0  0  0  0  0  0  0
    6.6630   -6.4610   28.9890 C   0  0  0  0  0  0  0  0  0  0  0  0
    8.6190   -5.2500   27.9910 C   0  0  0  0  0  0  0  0  0  0  0  0
    7.3250   -2.7640   23.4290 C   0  0  0  0  0  0  0  0  0  0  0  0
    7.6950   -3.0910   21.9880 C   0  0  0  0  0  0  0  0  0  0  0  0
  1  2  1  0
  2  3  2  0
  2  4  1  0
  4  5  1  0
  5  6  1  0
  6  7  1  0
  7  8  1  0
  8  9  2  0
  8 10  1  0
 11 10  1  6
 11 12  1  0
 12 13  2  0
 12 14  1  0
 14 15  1  0
 15 16  1  0
 11 17  1  0
 17 18  1  0
 17 19  1  0
  7 20  1  0
  4 21  1  0
 20 21  1  0
M  END
