piperidine-amides-31727-covalent
     RDKit          3D

 27 29  0  0  0  0  0  0  0  0999 V2000
    7.1320   -3.2900   19.3880 C   0  0  0  0  0  0  0  0  0  0  0  0
    6.3830   -4.0710   20.3550 C   0  0  0  0  0  0  0  0  0  0  0  0
    5.3680   -4.7230   19.9470 O   0  0  0  0  0  0  0  0  0  0  0  0
    6.7630   -4.1570   21.7150 N   0  0  0  0  0  0  0  0  0  0  0  0
    6.6240   -5.4990   22.3490 C   0  0  0  0  0  0  0  0  0  0  0  0
    6.0920   -5.1560   23.8050 C   0  0  0  0  0  0  0  0  0  0  0  0
    6.0610   -3.6520   23.8750 C   0  0  0  0  0  0  0  0  0  0  0  0
    5.2050   -3.0790   25.0950 C   0  0  0  0  0  0  0  0  0  0  0  0
    4.2660   -2.4320   24.6670 O   0  0  0  0  0  0  0  0  0  0  0  0
    5.7080   -3.4330   26.2030 N   0  0  0  0  0  0  0  0  0  0  0  0
    6.1100   -4.1590   27.2830 C   0  0  0  0  0  0  0  0  0  0  0  0
    5.6090   -4.7300   28.4120 C   0  0  0  0  0  0  0  0  0  0  0  0
    4.5790   -5.6820   27.9950 N   0  0  0  0  0  0  0  0  0  0  0  0
    4.5160   -7.0050   27.8670 C   0  0  0  0  0  0  0  0  0  0  0  0
    3.1680   -7.3260   27.3980 C   0  0  0  0  0  0  0  0  0  0  0  0
    2.5700   -6.1340   27.2970 N   0  0  0  0  0  0  0  0  0  0  0  0
    3.2910   -5.0880   27.6180 C   0  0  0  0  0  0  0  0  0  0  0  0
    6.3060   -2.4180   27.0900 C   0  0  0  0  0  0  0  0  0  0  0  0
    5.5620   -1.2270   27.0450 C   0  0  0  0  0  0  0  0  0  0  0  0
    6.4040   -0.8680   25.8500 C   0  0  0  0  0  0  0  0  0  0  0  0
    5.9150    0.5260   25.3690 C   0  0  0  0  0  0  0  0  0  0  0  0
    4.8920    1.1970   26.0110 C   0  0  0  0  0  0  0  0  0  0  0  0
    4.2050    0.7190   27.1250 C   0  0  0  0  0  0  0  0  0  0  0  0
    2.9110    1.6470   27.8810 Cl  0  0  0  0  0  0  0  0  0  0  0  0
    4.5720   -0.5130   27.6210 C   0  0  0  0  0  0  0  0  0  0  0  0
    7.3380   -2.9550   23.5880 C   0  0  0  0  0  0  0  0  0  0  0  0
    7.7000   -3.2080   22.2720 C   0  0  0  0  0  0  0  0  0  0  0  0
  1  2  1  0
  2  3  2  0
  2  4  1  0
  4  5  1  0
  5  6  1  0
  6  7  1  0
  7  8  1  0
  8  9  2  0
  8 10  1  0
 10 11  1  0
 11 12  1  0
 12 13  1  0
 13 14  1  0
 14 15  2  0
 15 16  1  0
 13 17  1  0
 16 17  2  0
 10 18  1  0
 18 19  1  0
 19 20  2  0
 20 21  1  0
 21 22  2  0
 22 23  1  0
 23 24  1  0
 19 25  1  0
 23 25  2  0
  7 26  1  0
  4 27  1  0
 26 27  1  0
M  END
