piperidine-amides-11646-covalent
     RDKit          3D

 30 33  0  0  0  0  0  0  0  0999 V2000
    7.0610   -3.3400   19.3710 C   0  0  0  0  0  0  0  0  0  0  0  0
    6.3840   -4.1900   20.3410 C   0  0  0  0  0  0  0  0  0  0  0  0
    5.4130   -4.8630   19.9930 O   0  0  0  0  0  0  0  0  0  0  0  0
    6.8840   -4.2710   21.6880 N   0  0  0  0  0  0  0  0  0  0  0  0
    7.7140   -3.2130   22.2310 C   0  0  0  0  0  0  0  0  0  0  0  0
    7.4000   -2.9420   23.6780 C   0  0  0  0  0  0  0  0  0  0  0  0
    6.0570   -3.5750   23.9680 C   0  0  0  0  0  0  0  0  0  0  0  0
    5.5780   -3.2230   25.3390 C   0  0  0  0  0  0  0  0  0  0  0  0
    4.3660   -3.2130   25.6220 O   0  0  0  0  0  0  0  0  0  0  0  0
    6.5110   -2.8900   26.3490 N   0  0  0  0  0  0  0  0  0  0  0  0
    6.4100   -1.6160   27.0380 C   0  0  0  0  0  0  0  0  0  0  0  0
    7.0140   -1.6220   28.4020 C   0  0  0  0  0  0  0  0  0  0  0  0
    6.9930   -0.4810   29.1640 C   0  0  0  0  0  0  0  0  0  0  0  0
    6.3960    0.6870   28.6500 C   0  0  0  0  0  0  0  0  0  0  0  0
    6.3840    2.1400   29.6410 Cl  0  0  0  0  0  0  0  0  0  0  0  0
    5.8150    0.7310   27.3760 C   0  0  0  0  0  0  0  0  0  0  0  0
    5.1910    1.9370   26.8320 C   0  0  0  0  0  0  0  0  0  0  0  0
    4.3940    2.2640   27.8610 N   0  0  0  0  0  0  0  0  0  0  0  0
    4.1830    3.5620   28.4640 C   0  0  0  0  0  0  0  0  0  0  0  0
    4.8800    4.6280   27.9360 C   0  0  0  0  0  0  0  0  0  0  0  0
    3.3050    3.5540   29.4920 N   0  0  0  0  0  0  0  0  0  0  0  0
    2.9060    2.2870   29.6200 C   0  0  0  0  0  0  0  0  0  0  0  0
    1.9880    1.5170   30.4920 C   0  0  0  0  0  0  0  0  0  0  0  0
    1.7280    0.1480   30.4260 C   0  0  0  0  0  0  0  0  0  0  0  0
    2.3650   -0.6200   29.4660 C   0  0  0  0  0  0  0  0  0  0  0  0
    3.3090    0.0170   28.5250 C   0  0  0  0  0  0  0  0  0  0  0  0
    3.5640    1.5170   28.6360 C   0  0  0  0  0  0  0  0  0  0  0  0
    5.8340   -0.4240   26.5920 C   0  0  0  0  0  0  0  0  0  0  0  0
    6.0290   -5.0520   23.7540 C   0  0  0  0  0  0  0  0  0  0  0  0
    6.5370   -5.3990   22.5010 C   0  0  0  0  0  0  0  0  0  0  0  0
  1  2  1  0
  2  3  2  0
  2  4  1  0
  4  5  1  0
  5  6  1  0
  6  7  1  0
  7  8  1  0
  8  9  2  0
  8 10  1  0
 10 11  1  0
 11 12  2  0
 12 13  1  0
 13 14  2  0
 14 15  1  0
 14 16  1  0
 16 17  1  0
 17 18  1  0
 18 19  1  0
 19 20  1  0
 19 21  2  0
 21 22  1  0
 22 23  1  0
 23 24  2  0
 24 25  1  0
 25 26  2  0
 18 27  1  0
 22 27  2  0
 26 27  1  0
 11 28  1  0
 16 28  2  0
  7 29  1  0
  4 30  1  0
 29 30  1  0
M  END
