piperidine-amides-10423-covalent
     RDKit          3D

 24 26  0  0  0  0  0  0  0  0999 V2000
    7.1200   -3.2790   19.2020 C   0  0  0  0  0  0  0  0  0  0  0  0
    6.3190   -3.9800   20.2040 C   0  0  0  0  0  0  0  0  0  0  0  0
    5.2120   -4.4380   19.8290 O   0  0  0  0  0  0  0  0  0  0  0  0
    6.8150   -4.1760   21.4910 N   0  0  0  0  0  0  0  0  0  0  0  0
    6.5460   -5.3970   22.2050 C   0  0  0  0  0  0  0  0  0  0  0  0
    5.8880   -5.0220   23.5000 C   0  0  0  0  0  0  0  0  0  0  0  0
    6.6320   -3.9040   24.1750 C   0  0  0  0  0  0  0  0  0  0  0  0
    5.8660   -3.4280   25.3460 C   0  0  0  0  0  0  0  0  0  0  0  0
    5.0270   -2.5160   25.1800 O   0  0  0  0  0  0  0  0  0  0  0  0
    6.0330   -3.9780   26.6310 N   0  0  0  0  0  0  0  0  0  0  0  0
    6.2490   -3.1640   27.7960 C   0  0  0  0  0  0  0  0  0  0  0  0
    4.9170   -2.7970   28.4420 C   0  0  0  0  0  0  0  0  0  0  0  0
    4.2280   -3.8360   29.1850 N   0  0  0  0  0  0  0  0  0  0  0  0
    3.1610   -3.2380   29.5940 C   0  0  0  0  0  0  0  0  0  0  0  0
    3.1050   -1.9190   29.1830 C   0  0  0  0  0  0  0  0  0  0  0  0
    2.0380   -1.0930   29.5100 C   0  0  0  0  0  0  0  0  0  0  0  0
    1.6730   -0.8470   30.8340 C   0  0  0  0  0  0  0  0  0  0  0  0
    0.6040   -0.0220   31.1620 C   0  0  0  0  0  0  0  0  0  0  0  0
   -0.2670    0.6880   30.1460 C   0  0  0  0  0  0  0  0  0  0  0  0
    0.1550    0.4010   28.7150 C   0  0  0  0  0  0  0  0  0  0  0  0
    1.3270   -0.5070   28.4860 C   0  0  0  0  0  0  0  0  0  0  0  0
    4.2320   -1.7200   28.4750 O   0  0  0  0  0  0  0  0  0  0  0  0
    6.8650   -2.7420   23.2580 C   0  0  0  0  0  0  0  0  0  0  0  0
    7.6140   -3.1610   22.1840 C   0  0  0  0  0  0  0  0  0  0  0  0
  1  2  1  0
  2  3  2  0
  2  4  1  0
  4  5  1  0
  5  6  1  0
  6  7  1  0
  7  8  1  0
  8  9  2  0
  8 10  1  0
 10 11  1  0
 11 12  1  0
 12 13  2  0
 13 14  1  0
 14 15  2  0
 15 16  1  0
 16 17  2  0
 17 18  1  0
 18 19  2  0
 19 20  1  0
 16 21  1  0
 20 21  2  0
 12 22  1  0
 15 22  1  0
  7 23  1  0
  4 24  1  0
 23 24  1  0
M  END
