piperidine-amides-6658-covalent
     RDKit          3D

 24 25  0  0  0  0  0  0  0  0999 V2000
    7.0660   -3.3190   19.3490 C   0  0  0  0  0  0  0  0  0  0  0  0
    6.3870   -4.1780   20.3320 C   0  0  0  0  0  0  0  0  0  0  0  0
    5.4030   -4.8670   19.9870 O   0  0  0  0  0  0  0  0  0  0  0  0
    6.8640   -4.2550   21.6460 N   0  0  0  0  0  0  0  0  0  0  0  0
    7.7290   -3.1960   22.1460 C   0  0  0  0  0  0  0  0  0  0  0  0
    7.4810   -3.0260   23.6410 C   0  0  0  0  0  0  0  0  0  0  0  0
    6.1020   -3.5790   23.8910 C   0  0  0  0  0  0  0  0  0  0  0  0
    5.6910   -3.2220   25.2580 C   0  0  0  0  0  0  0  0  0  0  0  0
    4.5010   -3.3840   25.5950 O   0  0  0  0  0  0  0  0  0  0  0  0
    6.6670   -2.6920   26.1270 N   0  0  0  0  0  0  0  0  0  0  0  0
    6.3990   -1.4930   26.8660 C   0  0  0  0  0  0  0  0  0  0  0  0
    6.2620   -0.1750   26.1710 C   0  0  0  0  0  0  0  0  0  0  0  0
    6.0100    0.9700   26.8680 C   0  0  0  0  0  0  0  0  0  0  0  0
    5.8700    0.9400   28.2330 C   0  0  0  0  0  0  0  0  0  0  0  0
    5.9590   -0.1990   29.0340 C   0  0  0  0  0  0  0  0  0  0  0  0
    5.7520   -0.2400   30.7750 S   0  0  0  0  0  0  0  0  0  0  0  0
    4.9710    0.9790   31.1950 O   0  0  0  0  0  0  0  0  0  0  0  0
    5.0070   -1.5050   31.1130 O   0  0  0  0  0  0  0  0  0  0  0  0
    7.3330   -0.1880   31.4490 N   0  0  0  0  0  0  0  0  0  0  0  0
    8.2670   -0.5150   30.4410 C   0  0  0  0  0  0  0  0  0  0  0  0
    6.2530   -1.5360   28.3130 C   0  0  0  0  0  0  0  0  0  0  0  0
    6.3770   -2.8340   29.0410 C   0  0  0  0  0  0  0  0  0  0  0  0
    6.0230   -5.0400   23.6990 C   0  0  0  0  0  0  0  0  0  0  0  0
    6.6290   -5.4270   22.4270 C   0  0  0  0  0  0  0  0  0  0  0  0
  1  2  1  0
  2  3  2  0
  2  4  1  0
  4  5  1  0
  5  6  1  0
  6  7  1  0
  7  8  1  0
  8  9  2  0
  8 10  1  0
 10 11  1  0
 11 12  2  0
 12 13  1  0
 13 14  2  0
 14 15  1  0
 15 16  1  0
 16 17  2  0
 16 18  2  0
 16 19  1  0
 19 20  1  0
 11 21  1  0
 15 21  2  0
 21 22  1  0
  7 23  1  0
  4 24  1  0
 23 24  1  0
M  END
