piperidine-amides-1482-covalent
     RDKit          3D

 21 22  0  0  0  0  0  0  0  0999 V2000
    7.0710   -3.3230   19.3400 C   0  0  0  0  0  0  0  0  0  0  0  0
    6.3730   -4.1840   20.3340 C   0  0  0  0  0  0  0  0  0  0  0  0
    5.3530   -4.7970   19.9710 O   0  0  0  0  0  0  0  0  0  0  0  0
    6.8980   -4.3410   21.6430 N   0  0  0  0  0  0  0  0  0  0  0  0
    6.6220   -5.5230   22.4180 C   0  0  0  0  0  0  0  0  0  0  0  0
    5.8660   -5.0560   23.6660 C   0  0  0  0  0  0  0  0  0  0  0  0
    6.5800   -3.8570   24.2040 C   0  0  0  0  0  0  0  0  0  0  0  0
    5.8480   -3.2090   25.3130 C   0  0  0  0  0  0  0  0  0  0  0  0
    4.6480   -2.9730   25.1250 O   0  0  0  0  0  0  0  0  0  0  0  0
    6.5110   -2.9090   26.5030 N   0  0  0  0  0  0  0  0  0  0  0  0
    6.5060   -1.6880   27.2370 C   0  0  0  0  0  0  0  0  0  0  0  0
    6.9890   -1.5110   28.5210 C   0  0  0  0  0  0  0  0  0  0  0  0
    6.9730   -0.3120   29.2360 C   0  0  0  0  0  0  0  0  0  0  0  0
    7.4620   -0.2200   30.4960 F   0  0  0  0  0  0  0  0  0  0  0  0
    6.3890    0.7800   28.5000 N   0  0  0  0  0  0  0  0  0  0  0  0
    5.8920    0.7280   27.2530 C   0  0  0  0  0  0  0  0  0  0  0  0
    5.9020   -0.5420   26.4810 C   0  0  0  0  0  0  0  0  0  0  0  0
    5.4120   -0.6150   25.2410 O   0  0  0  0  0  0  0  0  0  0  0  0
    4.1590   -0.5840   24.7240 C   0  0  0  0  0  0  0  0  0  0  0  0
    6.8640   -2.7740   23.2020 C   0  0  0  0  0  0  0  0  0  0  0  0
    7.7000   -3.3100   22.2510 C   0  0  0  0  0  0  0  0  0  0  0  0
  1  2  1  0
  2  3  2  0
  2  4  1  0
  4  5  1  0
  5  6  1  0
  6  7  1  0
  7  8  1  0
  8  9  2  0
  8 10  1  0
 10 11  1  0
 11 12  2  0
 12 13  1  0
 13 14  1  0
 13 15  2  0
 15 16  1  0
 11 17  1  0
 16 17  2  0
 17 18  1  0
 18 19  1  0
  7 20  1  0
  4 21  1  0
 20 21  1  0
M  END
