piperidine-amides-15387-covalent
     RDKit          3D

 17 17  0  0  0  0  0  0  0  0999 V2000
    7.0860   -3.2620   19.2160 C   0  0  0  0  0  0  0  0  0  0  0  0
    6.3240   -4.0280   20.2120 C   0  0  0  0  0  0  0  0  0  0  0  0
    5.2560   -4.5830   19.8910 O   0  0  0  0  0  0  0  0  0  0  0  0
    6.8000   -4.2030   21.5150 N   0  0  0  0  0  0  0  0  0  0  0  0
    6.4930   -5.4210   22.2250 C   0  0  0  0  0  0  0  0  0  0  0  0
    5.6150   -4.9950   23.3990 C   0  0  0  0  0  0  0  0  0  0  0  0
    6.4510   -3.9930   24.1590 C   0  0  0  0  0  0  0  0  0  0  0  0
    5.7010   -3.5080   25.3380 C   0  0  0  0  0  0  0  0  0  0  0  0
    4.4700   -3.3400   25.2250 O   0  0  0  0  0  0  0  0  0  0  0  0
    6.3730   -3.2300   26.5540 N   0  0  0  0  0  0  0  0  0  0  0  0
    6.6940   -1.8490   26.7990 C   0  0  0  0  0  0  0  0  0  0  0  0
    6.1080   -4.0590   27.7310 C   0  0  0  0  0  0  0  0  0  0  0  0
    6.1300   -5.4080   27.4250 C   0  0  2  0  0  0  0  0  0  0  0  0
    4.9260   -6.0470   27.5440 C   0  0  0  0  0  0  0  0  0  0  0  0
    6.8760   -6.1300   28.1520 O   0  0  0  0  0  0  0  0  0  0  0  0
    6.8710   -2.8120   23.3360 C   0  0  0  0  0  0  0  0  0  0  0  0
    7.5780   -3.2010   22.2220 C   0  0  0  0  0  0  0  0  0  0  0  0
  1  2  1  0
  2  3  2  0
  2  4  1  0
  4  5  1  0
  5  6  1  0
  6  7  1  0
  7  8  1  0
  8  9  2  0
  8 10  1  0
 10 11  1  0
 10 12  1  0
 12 13  1  0
 13 14  1  1
 13 15  1  0
  7 16  1  0
  4 17  1  0
 16 17  1  0
M  END
