piperidine-amides-29894-covalent
     RDKit          3D

 25 27  0  0  0  0  0  0  0  0999 V2000
    7.0220   -3.3500   19.3800 C   0  0  0  0  0  0  0  0  0  0  0  0
    6.3400   -4.2250   20.3260 C   0  0  0  0  0  0  0  0  0  0  0  0
    5.3500   -4.8600   19.9740 O   0  0  0  0  0  0  0  0  0  0  0  0
    6.8430   -4.3840   21.6610 N   0  0  0  0  0  0  0  0  0  0  0  0
    6.6370   -5.6320   22.3540 C   0  0  0  0  0  0  0  0  0  0  0  0
    6.0040   -5.3940   23.7010 C   0  0  0  0  0  0  0  0  0  0  0  0
    6.0100   -3.9010   23.9370 C   0  0  0  0  0  0  0  0  0  0  0  0
    5.4170   -3.5710   25.2750 C   0  0  0  0  0  0  0  0  0  0  0  0
    4.1960   -3.3620   25.3760 O   0  0  0  0  0  0  0  0  0  0  0  0
    6.1810   -3.4650   26.4740 N   0  0  0  0  0  0  0  0  0  0  0  0
    6.0220   -2.2060   27.1570 C   0  0  0  0  0  0  0  0  0  0  0  0
    6.0920   -2.5220   28.6160 C   0  0  1  0  0  0  0  0  0  0  0  0
    4.6530   -2.0090   29.5280 S   0  0  0  0  0  0  0  0  0  0  0  0
    3.6810   -3.3610   30.0770 C   0  0  0  0  0  0  0  0  0  0  0  0
    3.7720   -1.1770   28.6590 O   0  0  0  0  0  0  0  0  0  0  0  0
    5.1350   -1.1740   30.6620 O   0  0  0  0  0  0  0  0  0  0  0  0
    6.3300   -4.0150   28.6450 C   0  0  0  0  0  0  0  0  0  0  0  0
    6.2610   -4.5840   27.3800 C   0  0  0  0  0  0  0  0  0  0  0  0
    7.2780   -5.5500   27.2320 C   0  0  0  0  0  0  0  0  0  0  0  0
    7.6820   -5.9490   28.4330 C   0  0  0  0  0  0  0  0  0  0  0  0
    6.5940   -6.3560   29.1750 O   0  0  0  0  0  0  0  0  0  0  0  0
    5.3340   -6.3960   28.4920 C   0  0  0  0  0  0  0  0  0  0  0  0
    5.1260   -5.5550   27.3690 C   0  0  0  0  0  0  0  0  0  0  0  0
    7.2760   -3.2830   23.6720 C   0  0  0  0  0  0  0  0  0  0  0  0
    7.5690   -3.3260   22.3230 C   0  0  0  0  0  0  0  0  0  0  0  0
  1  2  1  0
  2  3  2  0
  2  4  1  0
  4  5  1  0
  5  6  1  0
  6  7  1  0
  7  8  1  0
  8  9  2  0
  8 10  1  0
 10 11  1  0
 11 12  1  0
 12 13  1  1
 13 14  1  0
 13 15  2  0
 13 16  2  0
 12 17  1  0
 18 10  1  0
 17 18  1  0
 18 19  1  0
 19 20  1  0
 20 21  1  0
 21 22  1  0
 18 23  1  0
 22 23  1  0
  7 24  1  0
  4 25  1  0
 24 25  1  0
M  END
