piperidine-amides-13954-covalent
     RDKit          3D

 26 28  0  0  0  0  0  0  0  0999 V2000
    7.0940   -3.3300   19.2970 C   0  0  0  0  0  0  0  0  0  0  0  0
    6.3910   -4.1830   20.2920 C   0  0  0  0  0  0  0  0  0  0  0  0
    5.3480   -4.7680   19.9600 O   0  0  0  0  0  0  0  0  0  0  0  0
    6.9590   -4.3500   21.5730 N   0  0  0  0  0  0  0  0  0  0  0  0
    7.7320   -3.3040   22.2000 C   0  0  0  0  0  0  0  0  0  0  0  0
    6.8430   -2.7110   23.2870 C   0  0  0  0  0  0  0  0  0  0  0  0
    6.4850   -3.8290   24.1990 C   0  0  0  0  0  0  0  0  0  0  0  0
    5.7590   -3.3400   25.3840 C   0  0  0  0  0  0  0  0  0  0  0  0
    4.5240   -3.3290   25.3120 O   0  0  0  0  0  0  0  0  0  0  0  0
    6.4630   -2.9110   26.5050 N   0  0  0  0  0  0  0  0  0  0  0  0
    6.4060   -1.6350   27.1050 C   0  0  0  0  0  0  0  0  0  0  0  0
    5.8740   -0.4480   26.6380 C   0  0  0  0  0  0  0  0  0  0  0  0
    5.8800    0.7620   27.3520 C   0  0  0  0  0  0  0  0  0  0  0  0
    6.4330    0.8680   28.6040 C   0  0  0  0  0  0  0  0  0  0  0  0
    7.0460   -0.3180   29.2380 C   0  0  0  0  0  0  0  0  0  0  0  0
    7.5990   -0.2710   30.4460 O   0  0  0  0  0  0  0  0  0  0  0  0
    7.2830    0.3790   31.5890 C   0  0  0  0  0  0  0  0  0  0  0  0
    5.8560    0.0620   32.0430 C   0  0  0  0  0  0  0  0  0  0  0  0
    4.8870   -0.2140   31.0860 C   0  0  0  0  0  0  0  0  0  0  0  0
    3.4860   -0.5300   31.4750 C   0  0  0  0  0  0  0  0  0  0  0  0
    3.4710   -0.4640   32.9840 C   0  0  0  0  0  0  0  0  0  0  0  0
    4.3980   -0.2010   33.9020 N   0  0  0  0  0  0  0  0  0  0  0  0
    5.6070    0.0660   33.4070 C   0  0  0  0  0  0  0  0  0  0  0  0
    7.0190   -1.5430   28.4760 C   0  0  0  0  0  0  0  0  0  0  0  0
    5.7490   -4.9630   23.5550 C   0  0  0  0  0  0  0  0  0  0  0  0
    6.5920   -5.4790   22.3910 C   0  0  0  0  0  0  0  0  0  0  0  0
  1  2  1  0
  2  3  2  0
  2  4  1  0
  4  5  1  0
  5  6  1  0
  6  7  1  0
  7  8  1  0
  8  9  2  0
  8 10  1  0
 10 11  1  0
 11 12  2  0
 12 13  1  0
 13 14  2  0
 14 15  1  0
 15 16  1  0
 16 17  1  0
 17 18  1  0
 18 19  2  0
 19 20  1  0
 20 21  2  0
 21 22  1  0
 18 23  1  0
 22 23  2  0
 11 24  1  0
 15 24  2  0
  7 25  1  0
  4 26  1  0
 25 26  1  0
M  END
