piperidine-amides-35384-covalent
     RDKit          3D

 33 36  0  0  0  0  0  0  0  0999 V2000
    7.0330   -3.3350   19.3340 C   0  0  0  0  0  0  0  0  0  0  0  0
    6.3580   -4.2010   20.3400 C   0  0  0  0  0  0  0  0  0  0  0  0
    5.3420   -4.7780   19.9610 O   0  0  0  0  0  0  0  0  0  0  0  0
    6.8800   -4.3880   21.6300 N   0  0  0  0  0  0  0  0  0  0  0  0
    6.5520   -5.5610   22.3850 C   0  0  0  0  0  0  0  0  0  0  0  0
    5.7310   -5.1510   23.5740 C   0  0  0  0  0  0  0  0  0  0  0  0
    6.3860   -3.9570   24.2770 C   0  0  0  0  0  0  0  0  0  0  0  0
    5.4420   -3.5040   25.3350 C   0  0  0  0  0  0  0  0  0  0  0  0
    4.2280   -3.5470   25.1040 O   0  0  0  0  0  0  0  0  0  0  0  0
    5.8680   -3.0080   26.5890 N   0  0  0  0  0  0  0  0  0  0  0  0
    6.4410   -3.8790   27.5970 C   0  0  0  0  0  0  0  0  0  0  0  0
    7.6210   -4.4760   26.9420 C   0  0  0  0  0  0  0  0  0  0  0  0
    8.3140   -3.9950   25.8840 C   0  0  0  0  0  0  0  0  0  0  0  0
    9.3460   -4.7100   25.4580 C   0  0  0  0  0  0  0  0  0  0  0  0
    9.5040   -6.0980   26.4270 S   0  0  0  0  0  0  0  0  0  0  0  0
    8.1950   -5.7710   27.4350 C   0  0  0  0  0  0  0  0  0  0  0  0
    6.7010   -1.9150   26.9860 C   0  0  1  0  0  0  0  0  0  0  0  0
    5.9600   -0.6880   26.7700 C   0  0  0  0  0  0  0  0  0  0  0  0
    6.2380   -0.9020   28.1600 C   0  0  0  0  0  0  0  0  0  0  0  0
    5.1350   -1.7780   28.6090 C   0  0  0  0  0  0  0  0  0  0  0  0
    4.7870   -1.4350   30.0130 C   0  0  0  0  0  0  0  0  0  0  0  0
    4.9690   -0.0890   30.3740 N   0  0  0  0  0  0  0  0  0  0  0  0
    4.0280    0.4950   31.2540 C   0  0  0  0  0  0  0  0  0  0  0  0
    4.2250    1.8180   31.6320 O   0  0  0  0  0  0  0  0  0  0  0  0
    2.9660   -0.1260   31.7500 O   0  0  0  0  0  0  0  0  0  0  0  0
    1.7990   -0.3820   30.9890 C   0  0  0  0  0  0  0  0  0  0  0  0
    1.8460    0.0620   29.5450 C   0  0  0  0  0  0  0  0  0  0  0  0
    1.4390   -1.8220   31.0930 C   0  0  0  0  0  0  0  0  0  0  0  0
    0.6290    0.3350   31.6290 C   0  0  0  0  0  0  0  0  0  0  0  0
    6.1100    0.7180   30.0110 C   0  0  0  0  0  0  0  0  0  0  0  0
    6.9350   -0.1110   29.0540 C   0  0  0  0  0  0  0  0  0  0  0  0
    6.8010   -2.7950   23.3960 C   0  0  0  0  0  0  0  0  0  0  0  0
    7.6630   -3.3340   22.2430 C   0  0  0  0  0  0  0  0  0  0  0  0
  1  2  1  0
  2  3  2  0
  2  4  1  0
  4  5  1  0
  5  6  1  0
  6  7  1  0
  7  8  1  0
  8  9  2  0
  8 10  1  0
 10 11  1  0
 11 12  1  0
 12 13  1  0
 13 14  2  0
 14 15  1  0
 12 16  2  0
 15 16  1  0
 17 10  1  1
 17 18  1  0
 17 19  1  0
 19 18  1  0
 19 20  1  0
 20 21  1  0
 21 22  1  0
 22 23  1  0
 23 24  2  0
 23 25  1  0
 26 25  1  0
 26 27  1  0
 26 28  1  0
 26 29  1  0
 22 30  1  0
 19 31  1  0
 30 31  1  0
  7 32  1  0
  4 33  1  0
 32 33  1  0
M  END
