piperidine-amides-10441-covalent
     RDKit          3D

 24 25  0  0  0  0  0  0  0  0999 V2000
    7.0620   -3.2920   19.2820 C   0  0  0  0  0  0  0  0  0  0  0  0
    6.3570   -4.0800   20.3060 C   0  0  0  0  0  0  0  0  0  0  0  0
    5.3150   -4.6720   19.9250 O   0  0  0  0  0  0  0  0  0  0  0  0
    6.8550   -4.1860   21.6130 N   0  0  0  0  0  0  0  0  0  0  0  0
    6.6880   -5.4140   22.3600 C   0  0  0  0  0  0  0  0  0  0  0  0
    6.0110   -5.0670   23.6520 C   0  0  0  0  0  0  0  0  0  0  0  0
    6.0160   -3.5780   23.8410 C   0  0  0  0  0  0  0  0  0  0  0  0
    5.6850   -3.2180   25.2340 C   0  0  0  0  0  0  0  0  0  0  0  0
    4.4800   -3.1310   25.5510 O   0  0  0  0  0  0  0  0  0  0  0  0
    6.6650   -2.9610   26.2040 N   0  0  0  0  0  0  0  0  0  0  0  0
    6.3250   -2.5880   27.5470 C   0  0  0  0  0  0  0  0  0  0  0  0
    5.3050   -3.4960   28.2030 C   0  0  0  0  0  0  0  0  0  0  0  0
    3.9600   -3.1820   28.3500 C   0  0  0  0  0  0  0  0  0  0  0  0
    2.9500   -3.9320   28.9360 C   0  0  0  0  0  0  0  0  0  0  0  0
    3.1430   -5.1800   29.4950 C   0  0  0  0  0  0  0  0  0  0  0  0
    2.1700   -5.9620   30.0890 C   0  0  0  0  0  0  0  0  0  0  0  0
    0.9110   -5.4420   30.4200 O   0  0  0  0  0  0  0  0  0  0  0  0
    2.3550   -7.1680   30.3670 O   0  0  0  0  0  0  0  0  0  0  0  0
    2.9200   -8.0330   29.4030 C   0  0  0  0  0  0  0  0  0  0  0  0
    3.2380   -7.4350   28.0470 C   0  0  0  0  0  0  0  0  0  0  0  0
    4.5590   -5.6100   29.3850 C   0  0  0  0  0  0  0  0  0  0  0  0
    5.5960   -4.7430   28.7360 C   0  0  0  0  0  0  0  0  0  0  0  0
    7.3650   -2.9980   23.5210 C   0  0  0  0  0  0  0  0  0  0  0  0
    7.7270   -3.1490   22.1970 C   0  0  0  0  0  0  0  0  0  0  0  0
  1  2  1  0
  2  3  2  0
  2  4  1  0
  4  5  1  0
  5  6  1  0
  6  7  1  0
  7  8  1  0
  8  9  2  0
  8 10  1  0
 10 11  1  0
 11 12  1  0
 12 13  2  0
 13 14  1  0
 14 15  2  0
 15 16  1  0
 16 17  2  0
 16 18  1  0
 18 19  1  0
 19 20  1  0
 15 21  1  0
 12 22  1  0
 21 22  2  0
  7 23  1  0
  4 24  1  0
 23 24  1  0
M  END
