piperidine-amides-8649-covalent
     RDKit          3D

 23 24  0  0  0  0  0  0  0  0999 V2000
    7.0860   -3.2740   19.1960 C   0  0  0  0  0  0  0  0  0  0  0  0
    6.3410   -4.0120   20.2250 C   0  0  0  0  0  0  0  0  0  0  0  0
    5.2970   -4.5980   19.8930 O   0  0  0  0  0  0  0  0  0  0  0  0
    6.8230   -4.0780   21.5530 N   0  0  0  0  0  0  0  0  0  0  0  0
    7.7710   -3.0830   21.9890 C   0  0  0  0  0  0  0  0  0  0  0  0
    7.6020   -2.8060   23.4390 C   0  0  0  0  0  0  0  0  0  0  0  0
    6.2690   -3.3780   23.8290 C   0  0  0  0  0  0  0  0  0  0  0  0
    6.1100   -3.1110   25.2830 C   0  0  0  0  0  0  0  0  0  0  0  0
    4.9910   -3.2820   25.7700 O   0  0  0  0  0  0  0  0  0  0  0  0
    7.2650   -2.6630   25.9310 N   0  0  0  0  0  0  0  0  0  0  0  0
    7.4170   -2.6460   27.3390 C   0  0  0  0  0  0  0  0  0  0  0  0
    7.6440   -3.8930   27.9040 C   0  0  0  0  0  0  0  0  0  0  0  0
    6.5760   -4.5710   28.4150 C   0  0  0  0  0  0  0  0  0  0  0  0
    5.6820   -3.9370   29.2950 C   0  0  0  0  0  0  0  0  0  0  0  0
    5.7830   -2.6300   29.7090 F   0  0  0  0  0  0  0  0  0  0  0  0
    4.5340   -4.7890   29.8030 C   0  0  0  0  0  0  0  0  0  0  0  0
    4.3730   -6.2590   29.3700 C   0  0  0  0  0  0  0  0  0  0  0  0
    3.3790   -6.8380   29.8720 O   0  0  0  0  0  0  0  0  0  0  0  0
    5.3520   -6.8160   28.4490 C   0  0  0  0  0  0  0  0  0  0  0  0
    6.4180   -5.8690   28.0350 C   0  0  0  0  0  0  0  0  0  0  0  0
    7.3120   -6.4250   27.1720 F   0  0  0  0  0  0  0  0  0  0  0  0
    6.0670   -4.8160   23.5770 C   0  0  0  0  0  0  0  0  0  0  0  0
    6.6170   -5.2430   22.3870 C   0  0  0  0  0  0  0  0  0  0  0  0
  1  2  1  0
  2  3  2  0
  2  4  1  0
  4  5  1  0
  5  6  1  0
  6  7  1  0
  7  8  1  0
  8  9  2  0
  8 10  1  0
 10 11  1  0
 11 12  1  0
 12 13  1  0
 13 14  2  0
 14 15  1  0
 14 16  1  0
 16 17  2  0
 17 18  1  0
 17 19  1  0
 13 20  1  0
 19 20  2  0
 20 21  1  0
  7 22  1  0
  4 23  1  0
 22 23  1  0
M  END
