piperidine-amides-1556-covalent
     RDKit          3D

 21 22  0  0  0  0  0  0  0  0999 V2000
    7.1260   -3.2810   19.2620 C   0  0  0  0  0  0  0  0  0  0  0  0
    6.3720   -4.0900   20.2570 C   0  0  0  0  0  0  0  0  0  0  0  0
    5.2960   -4.6020   19.9100 O   0  0  0  0  0  0  0  0  0  0  0  0
    6.9190   -4.3140   21.5420 N   0  0  0  0  0  0  0  0  0  0  0  0
    6.5630   -5.4830   22.2860 C   0  0  0  0  0  0  0  0  0  0  0  0
    5.7640   -4.9730   23.4890 C   0  0  0  0  0  0  0  0  0  0  0  0
    6.5540   -3.8930   24.1730 C   0  0  0  0  0  0  0  0  0  0  0  0
    5.8460   -3.4070   25.3770 C   0  0  0  0  0  0  0  0  0  0  0  0
    4.7400   -2.8900   25.1730 O   0  0  0  0  0  0  0  0  0  0  0  0
    6.4090   -3.5270   26.6500 N   0  0  0  0  0  0  0  0  0  0  0  0
    6.8140   -4.7220   27.3100 C   0  0  0  0  0  0  0  0  0  0  0  0
    5.9930   -5.7170   27.7620 C   0  0  1  0  0  0  0  0  0  0  0  0
    6.3780   -6.3970   28.9220 C   0  0  0  0  0  0  0  0  0  0  0  0
    5.5970   -7.4410   29.3640 C   0  0  0  0  0  0  0  0  0  0  0  0
    4.6800   -5.1180   27.9550 N   0  0  0  0  0  0  0  0  0  0  0  0
    3.6850   -4.8130   27.0910 C   0  0  0  0  0  0  0  0  0  0  0  0
    2.5110   -4.1990   27.8310 C   0  0  0  0  0  0  0  0  0  0  0  0
    3.1230   -4.2630   29.2130 C   0  0  0  0  0  0  0  0  0  0  0  0
    4.3620   -4.7960   29.2260 N   0  0  0  0  0  0  0  0  0  0  0  0
    6.7750   -2.6950   23.2360 C   0  0  0  0  0  0  0  0  0  0  0  0
    7.6340   -3.2280   22.1590 C   0  0  0  0  0  0  0  0  0  0  0  0
  1  2  1  0
  2  3  2  0
  2  4  1  0
  4  5  1  0
  5  6  1  0
  6  7  1  0
  7  8  1  0
  8  9  2  0
  8 10  1  0
 10 11  1  0
 12 11  1  1
 12 13  1  0
 13 14  1  0
 12 15  1  0
 15 16  1  0
 16 17  2  0
 17 18  1  0
 15 19  1  0
 18 19  2  0
  7 20  1  0
  4 21  1  0
 20 21  1  0
M  END
