piperidine-amides-24148-covalent
     RDKit          3D

 24 26  0  0  0  0  0  0  0  0999 V2000
    6.9480   -3.3290   19.3410 C   0  0  0  0  0  0  0  0  0  0  0  0
    6.2990   -4.2150   20.3210 C   0  0  0  0  0  0  0  0  0  0  0  0
    5.3340   -4.9190   19.9730 O   0  0  0  0  0  0  0  0  0  0  0  0
    6.7510   -4.3250   21.6330 N   0  0  0  0  0  0  0  0  0  0  0  0
    6.3630   -5.5110   22.3870 C   0  0  0  0  0  0  0  0  0  0  0  0
    5.6130   -5.0430   23.6240 C   0  0  0  0  0  0  0  0  0  0  0  0
    6.0370   -3.6170   23.8600 C   0  0  0  0  0  0  0  0  0  0  0  0
    5.6610   -3.2030   25.2140 C   0  0  0  0  0  0  0  0  0  0  0  0
    4.4530   -3.2520   25.5260 O   0  0  0  0  0  0  0  0  0  0  0  0
    6.6450   -2.7640   26.1200 N   0  0  0  0  0  0  0  0  0  0  0  0
    6.2850   -1.6770   27.0320 C   0  0  0  0  0  0  0  0  0  0  0  0
    5.7210   -2.1680   28.3520 C   0  0  0  0  0  0  0  0  0  0  0  0
    6.4780   -3.0810   28.9030 C   0  0  0  0  0  0  0  0  0  0  0  0
    6.7610   -3.9280   27.9430 C   0  0  2  0  0  0  0  0  0  0  0  0
    6.8860   -5.1620   28.3280 C   0  0  0  0  0  0  0  0  0  0  0  0
    7.9340   -5.8590   27.9720 N   0  0  0  0  0  0  0  0  0  0  0  0
    7.6740   -7.0630   28.5820 O   0  0  0  0  0  0  0  0  0  0  0  0
    6.4650   -6.9120   29.2420 C   0  0  0  0  0  0  0  0  0  0  0  0
    5.9120   -8.0430   30.0050 C   0  0  0  0  0  0  0  0  0  0  0  0
    5.6340   -6.7000   30.6220 C   0  0  0  0  0  0  0  0  0  0  0  0
    5.9320   -5.7670   29.1190 N   0  0  0  0  0  0  0  0  0  0  0  0
    7.5730   -3.3650   27.0420 C   0  0  0  0  0  0  0  0  0  0  0  0
    7.5030   -3.4290   23.6080 C   0  0  0  0  0  0  0  0  0  0  0  0
    7.5940   -3.2940   22.2250 C   0  0  0  0  0  0  0  0  0  0  0  0
  1  2  1  0
  2  3  2  0
  2  4  1  0
  4  5  1  0
  5  6  1  0
  6  7  1  0
  7  8  1  0
  8  9  2  0
  8 10  1  0
 10 11  1  0
 11 12  1  0
 12 13  1  0
 13 14  1  0
 14 15  1  1
 15 16  2  0
 16 17  1  0
 17 18  1  0
 18 19  1  0
 19 20  1  0
 15 21  1  0
 18 21  2  0
 10 22  1  0
 14 22  1  0
  7 23  1  0
  4 24  1  0
 23 24  1  0
M  END
