piperidine-amides-30070-covalent
     RDKit          3D

 27 29  0  0  0  0  0  0  0  0999 V2000
    7.0850   -3.3500   19.3850 C   0  0  0  0  0  0  0  0  0  0  0  0
    6.3490   -4.1570   20.3440 C   0  0  0  0  0  0  0  0  0  0  0  0
    5.3670   -4.8020   19.9740 O   0  0  0  0  0  0  0  0  0  0  0  0
    6.7930   -4.2420   21.7070 N   0  0  0  0  0  0  0  0  0  0  0  0
    7.6800   -3.2270   22.2420 C   0  0  0  0  0  0  0  0  0  0  0  0
    7.3620   -2.9250   23.6820 C   0  0  0  0  0  0  0  0  0  0  0  0
    6.0480   -3.6090   24.0100 C   0  0  0  0  0  0  0  0  0  0  0  0
    5.5540   -3.3140   25.3940 C   0  0  0  0  0  0  0  0  0  0  0  0
    4.3310   -3.2950   25.6270 O   0  0  0  0  0  0  0  0  0  0  0  0
    6.4280   -3.0150   26.4750 N   0  0  0  0  0  0  0  0  0  0  0  0
    6.3970   -3.8780   27.6530 C   0  0  0  0  0  0  0  0  0  0  0  0
    5.6530   -5.1590   27.4150 C   0  0  0  0  0  0  0  0  0  0  0  0
    4.9300   -5.6770   26.3550 C   0  0  0  0  0  0  0  0  0  0  0  0
    4.4800   -6.9060   26.7430 C   0  0  0  0  0  0  0  0  0  0  0  0
    4.9470   -7.0740   28.0030 C   0  0  0  0  0  0  0  0  0  0  0  0
    5.6240   -6.1200   28.4540 O   0  0  0  0  0  0  0  0  0  0  0  0
    6.4390   -1.7030   27.1110 C   0  0  0  0  0  0  0  0  0  0  0  0
    7.0230   -1.6140   28.3260 C   0  0  0  0  0  0  0  0  0  0  0  0
    7.0700   -0.4370   29.0190 C   0  0  0  0  0  0  0  0  0  0  0  0
    6.5640    0.8290   28.6470 C   0  0  0  0  0  0  0  0  0  0  0  0
    6.7040    1.9230   29.4790 O   0  0  0  0  0  0  0  0  0  0  0  0
    5.8540    2.2240   30.5430 C   0  0  0  0  0  0  0  0  0  0  0  0
    5.9150    0.6560   27.2480 C   0  0  0  0  0  0  0  0  0  0  0  0
    5.3660    1.7270   26.6840 F   0  0  0  0  0  0  0  0  0  0  0  0
    5.9030   -0.5770   26.5970 C   0  0  0  0  0  0  0  0  0  0  0  0
    6.1240   -5.1100   23.8130 C   0  0  0  0  0  0  0  0  0  0  0  0
    6.6740   -5.4790   22.4310 C   0  0  0  0  0  0  0  0  0  0  0  0
  1  2  1  0
  2  3  2  0
  2  4  1  0
  4  5  1  0
  5  6  1  0
  6  7  1  0
  7  8  1  0
  8  9  2  0
  8 10  1  0
 10 11  1  0
 11 12  1  0
 12 13  2  0
 13 14  1  0
 14 15  2  0
 12 16  1  0
 15 16  1  0
 10 17  1  0
 17 18  2  0
 18 19  1  0
 19 20  2  0
 20 21  1  0
 21 22  1  0
 20 23  1  0
 23 24  1  0
 17 25  1  0
 23 25  2  0
  7 26  1  0
  4 27  1  0
 26 27  1  0
M  END
