piperidine-amides-24852-covalent
     RDKit          3D

 24 25  0  0  0  0  0  0  0  0999 V2000
    7.1330   -3.3300   19.2530 C   0  0  0  0  0  0  0  0  0  0  0  0
    6.4470   -4.1660   20.2400 C   0  0  0  0  0  0  0  0  0  0  0  0
    5.3730   -4.7390   19.9560 O   0  0  0  0  0  0  0  0  0  0  0  0
    7.0390   -4.3820   21.4810 N   0  0  0  0  0  0  0  0  0  0  0  0
    6.6420   -5.5460   22.2240 C   0  0  0  0  0  0  0  0  0  0  0  0
    5.7950   -4.9880   23.3580 C   0  0  0  0  0  0  0  0  0  0  0  0
    6.6630   -3.9920   24.1000 C   0  0  0  0  0  0  0  0  0  0  0  0
    5.8300   -3.3650   25.1120 C   0  0  0  0  0  0  0  0  0  0  0  0
    4.9430   -2.5650   24.7560 O   0  0  0  0  0  0  0  0  0  0  0  0
    6.0120   -3.6820   26.4430 N   0  0  0  0  0  0  0  0  0  0  0  0
    4.9450   -4.4490   27.0130 C   0  0  2  0  0  0  0  0  0  0  0  0
    3.8180   -3.4880   27.3480 C   0  0  0  0  0  0  0  0  0  0  0  0
    5.4320   -5.2520   28.1460 C   0  0  0  0  0  0  0  0  0  0  0  0
    5.7250   -4.6200   29.2650 C   0  0  2  0  0  0  0  0  0  0  0  0
    4.6040   -4.2630   30.0350 C   0  0  0  0  0  0  0  0  0  0  0  0
    3.6210   -5.1760   30.2390 O   0  0  0  0  0  0  0  0  0  0  0  0
    4.4890   -2.9970   30.5930 O   0  0  0  0  0  0  0  0  0  0  0  0
    3.2570   -2.4480   31.0410 C   0  0  0  0  0  0  0  0  0  0  0  0
    3.1580   -1.0130   30.5610 C   0  0  0  0  0  0  0  0  0  0  0  0
    6.5810   -3.6340   28.9410 C   0  0  0  0  0  0  0  0  0  0  0  0
    6.4430   -2.9550   27.6170 C   0  0  2  0  0  0  0  0  0  0  0  0
    5.5620   -2.3950   28.6330 C   0  0  0  0  0  0  0  0  0  0  0  0
    7.1430   -2.8730   23.2340 C   0  0  0  0  0  0  0  0  0  0  0  0
    7.7260   -3.3010   22.1020 C   0  0  0  0  0  0  0  0  0  0  0  0
  1  2  1  0
  2  3  2  0
  2  4  1  0
  4  5  1  0
  5  6  1  0
  6  7  1  0
  7  8  1  0
  8  9  2  0
  8 10  1  0
 10 11  1  0
 11 12  1  1
 11 13  1  0
 13 14  1  0
 14 15  1  6
 15 16  2  0
 15 17  1  0
 17 18  1  0
 18 19  1  0
 14 20  1  0
 10 21  1  0
 20 21  1  0
 21 22  1  1
  7 23  1  0
  4 24  1  0
 23 24  1  0
M  END
