piperidine-amides-9167-covalent
     RDKit          3D

 21 23  0  0  0  0  0  0  0  0999 V2000
    7.0590   -3.3160   19.2940 C   0  0  0  0  0  0  0  0  0  0  0  0
    6.3570   -4.1380   20.2810 C   0  0  0  0  0  0  0  0  0  0  0  0
    5.3170   -4.7250   19.9460 O   0  0  0  0  0  0  0  0  0  0  0  0
    6.8610   -4.3290   21.5830 N   0  0  0  0  0  0  0  0  0  0  0  0
    6.5730   -5.5150   22.3530 C   0  0  0  0  0  0  0  0  0  0  0  0
    5.8070   -5.0350   23.5580 C   0  0  0  0  0  0  0  0  0  0  0  0
    6.5060   -3.8990   24.2460 C   0  0  0  0  0  0  0  0  0  0  0  0
    5.7860   -3.3780   25.4400 C   0  0  0  0  0  0  0  0  0  0  0  0
    4.5120   -3.3220   25.4830 O   0  0  0  0  0  0  0  0  0  0  0  0
    6.4750   -2.9290   26.5890 N   0  0  0  0  0  0  0  0  0  0  0  0
    6.1380   -1.6430   27.2500 C   0  0  0  0  0  0  0  0  0  0  0  0
    5.9760   -0.3460   26.4360 C   0  0  0  0  0  0  0  0  0  0  0  0
    5.6280    0.8940   27.1880 C   0  0  0  0  0  0  0  0  0  0  0  0
    5.5440    0.4660   28.5740 C   0  0  0  0  0  0  0  0  0  0  0  0
    5.2180    1.4850   29.5000 N   0  0  0  0  0  0  0  0  0  0  0  0
    5.1420    1.1020   30.7460 N   0  0  0  0  0  0  0  0  0  0  0  0
    5.4170   -0.2140   30.7150 C   0  0  0  0  0  0  0  0  0  0  0  0
    5.6410   -0.5170   29.4190 N   0  0  0  0  0  0  0  0  0  0  0  0
    5.9490   -1.6320   28.7640 C   0  0  0  0  0  0  0  0  0  0  0  0
    6.7710   -2.8030   23.2460 C   0  0  0  0  0  0  0  0  0  0  0  0
    7.5900   -3.2440   22.2070 C   0  0  0  0  0  0  0  0  0  0  0  0
  1  2  1  0
  2  3  2  0
  2  4  1  0
  4  5  1  0
  5  6  1  0
  6  7  1  0
  7  8  1  0
  8  9  2  0
  8 10  1  0
 10 11  1  0
 11 12  1  0
 12 13  2  0
 13 14  1  0
 14 15  2  0
 15 16  1  0
 16 17  2  0
 14 18  1  0
 17 18  1  0
 11 19  2  0
 18 19  1  0
  7 20  1  0
  4 21  1  0
 20 21  1  0
M  END
