piperidine-amides-13916-covalent
     RDKit          3D

 26 27  0  0  0  0  0  0  0  0999 V2000
    7.0960   -3.2590   19.2250 C   0  0  0  0  0  0  0  0  0  0  0  0
    6.3450   -4.0370   20.2490 C   0  0  0  0  0  0  0  0  0  0  0  0
    5.3080   -4.6340   19.9140 O   0  0  0  0  0  0  0  0  0  0  0  0
    6.8500   -4.1230   21.5650 N   0  0  0  0  0  0  0  0  0  0  0  0
    7.7160   -3.0880   22.1060 C   0  0  0  0  0  0  0  0  0  0  0  0
    7.5260   -3.0190   23.6280 C   0  0  0  0  0  0  0  0  0  0  0  0
    6.1720   -3.5580   23.9180 C   0  0  0  0  0  0  0  0  0  0  0  0
    5.6480   -3.1880   25.2530 C   0  0  0  0  0  0  0  0  0  0  0  0
    4.4310   -2.9800   25.3210 O   0  0  0  0  0  0  0  0  0  0  0  0
    6.5030   -3.0810   26.3590 N   0  0  0  0  0  0  0  0  0  0  0  0
    6.2090   -3.4150   27.7110 C   0  0  0  0  0  0  0  0  0  0  0  0
    5.9510   -4.6820   28.2010 C   0  0  2  0  0  0  0  0  0  0  0  0
    5.7150   -5.4890   27.0010 O   0  0  0  0  0  0  0  0  0  0  0  0
    4.4750   -6.1170   26.9020 C   0  0  0  0  0  0  0  0  0  0  0  0
    4.2600   -7.2130   27.6970 C   0  0  0  0  0  0  0  0  0  0  0  0
    4.2190   -6.5970   25.5220 C   0  0  0  0  0  0  0  0  0  0  0  0
    4.8780   -4.8700   29.0760 C   0  0  0  0  0  0  0  0  0  0  0  0
    3.6110   -4.1240   28.7480 C   0  0  0  0  0  0  0  0  0  0  0  0
    2.5050   -4.2390   29.5420 C   0  0  0  0  0  0  0  0  0  0  0  0
    2.3980   -5.0730   30.7770 C   0  0  0  0  0  0  0  0  0  0  0  0
    3.7420   -5.7860   31.0160 C   0  0  0  0  0  0  0  0  0  0  0  0
    4.9050   -5.7260   30.2690 C   0  0  0  0  0  0  0  0  0  0  0  0
    5.8960   -6.4100   30.6770 O   0  0  0  0  0  0  0  0  0  0  0  0
    6.0880   -7.5200   29.8800 C   0  0  0  0  0  0  0  0  0  0  0  0
    6.0640   -5.0230   23.6740 C   0  0  0  0  0  0  0  0  0  0  0  0
    6.6760   -5.3490   22.3150 C   0  0  0  0  0  0  0  0  0  0  0  0
  1  2  1  0
  2  3  2  0
  2  4  1  0
  4  5  1  0
  5  6  1  0
  6  7  1  0
  7  8  1  0
  8  9  2  0
  8 10  1  0
 10 11  1  0
 12 11  1  6
 12 13  1  0
 13 14  1  0
 14 15  1  0
 14 16  1  0
 12 17  1  0
 17 18  2  0
 18 19  1  0
 19 20  2  0
 20 21  1  0
 17 22  1  0
 21 22  2  0
 22 23  1  0
 23 24  1  0
  7 25  1  0
  4 26  1  0
 25 26  1  0
M  END
