piperidine-amides-26124-covalent
     RDKit          3D

 25 27  0  0  0  0  0  0  0  0999 V2000
    7.0090   -3.3760   19.3980 C   0  0  0  0  0  0  0  0  0  0  0  0
    6.3660   -4.2770   20.3620 C   0  0  0  0  0  0  0  0  0  0  0  0
    5.3680   -4.9120   19.9910 O   0  0  0  0  0  0  0  0  0  0  0  0
    6.8710   -4.4770   21.6670 N   0  0  0  0  0  0  0  0  0  0  0  0
    6.6120   -5.7110   22.4010 C   0  0  0  0  0  0  0  0  0  0  0  0
    5.7010   -5.3770   23.5720 C   0  0  0  0  0  0  0  0  0  0  0  0
    5.7000   -3.9080   23.8500 C   0  0  0  0  0  0  0  0  0  0  0  0
    5.0410   -3.4610   25.1230 C   0  0  0  0  0  0  0  0  0  0  0  0
    4.2660   -2.4710   25.0610 O   0  0  0  0  0  0  0  0  0  0  0  0
    5.1740   -3.9970   26.4380 N   0  0  0  0  0  0  0  0  0  0  0  0
    4.3850   -3.2940   27.5060 C   0  0  0  0  0  0  0  0  0  0  0  0
    5.3840   -3.0580   28.5820 C   0  0  0  0  0  0  0  0  0  0  0  0
    6.4260   -4.0050   28.3060 C   0  0  1  0  0  0  0  0  0  0  0  0
    5.9250   -5.1970   29.0590 C   0  0  0  0  0  0  0  0  0  0  0  0
    6.6960   -6.4800   29.0240 C   0  0  0  0  0  0  0  0  0  0  0  0
    6.0820   -7.5760   29.8230 C   0  0  0  0  0  0  0  0  0  0  0  0
    4.9150   -7.4670   30.5440 C   0  0  0  0  0  0  0  0  0  0  0  0
    4.2110   -6.2760   30.5650 C   0  0  0  0  0  0  0  0  0  0  0  0
    3.0750   -6.1870   31.2710 F   0  0  0  0  0  0  0  0  0  0  0  0
    4.7680   -5.1260   29.7830 C   0  0  0  0  0  0  0  0  0  0  0  0
    6.4920   -4.0140   26.9370 C   0  0  0  0  0  0  0  0  0  0  0  0
    7.2490   -5.0810   26.1720 C   0  0  0  0  0  0  0  0  0  0  0  0
    6.7520   -2.7260   26.5220 C   0  0  0  0  0  0  0  0  0  0  0  0
    7.0130   -3.2800   23.6530 C   0  0  0  0  0  0  0  0  0  0  0  0
    7.5250   -3.4330   22.3930 C   0  0  0  0  0  0  0  0  0  0  0  0
  1  2  1  0
  2  3  2  0
  2  4  1  0
  4  5  1  0
  5  6  1  0
  6  7  1  0
  7  8  1  0
  8  9  2  0
  8 10  1  0
 10 11  1  0
 11 12  1  0
 12 13  1  0
 13 14  1  6
 14 15  2  0
 15 16  1  0
 16 17  2  0
 17 18  1  0
 18 19  1  0
 14 20  1  0
 18 20  2  0
 10 21  1  0
 13 21  1  0
 21 22  1  0
 21 23  1  0
  7 24  1  0
  4 25  1  0
 24 25  1  0
M  END
