piperidine-amides-2898-covalent
     RDKit          3D

 24 25  0  0  0  0  0  0  0  0999 V2000
    7.0900   -3.3240   19.3480 C   0  0  0  0  0  0  0  0  0  0  0  0
    6.3510   -4.1150   20.3230 C   0  0  0  0  0  0  0  0  0  0  0  0
    5.3610   -4.7600   19.9630 O   0  0  0  0  0  0  0  0  0  0  0  0
    6.8020   -4.1850   21.6920 N   0  0  0  0  0  0  0  0  0  0  0  0
    7.6300   -3.1280   22.2360 C   0  0  0  0  0  0  0  0  0  0  0  0
    7.4270   -2.9870   23.7270 C   0  0  0  0  0  0  0  0  0  0  0  0
    6.0770   -3.5960   24.0500 C   0  0  0  0  0  0  0  0  0  0  0  0
    5.5650   -3.2730   25.4210 C   0  0  0  0  0  0  0  0  0  0  0  0
    4.3580   -3.0300   25.5970 O   0  0  0  0  0  0  0  0  0  0  0  0
    6.4250   -3.2300   26.5570 N   0  0  0  0  0  0  0  0  0  0  0  0
    5.8470   -3.5480   27.8580 C   0  0  1  0  0  0  0  0  0  0  0  0
    6.5350   -4.7220   28.5170 C   0  0  0  0  0  0  0  0  0  0  0  0
    5.9040   -2.3990   28.8130 C   0  0  0  0  0  0  0  0  0  0  0  0
    4.7530   -1.9710   29.5230 C   0  0  0  0  0  0  0  0  0  0  0  0
    4.7570   -0.9070   30.4300 C   0  0  0  0  0  0  0  0  0  0  0  0
    5.9560   -0.1320   30.7320 C   0  0  0  0  0  0  0  0  0  0  0  0
    5.8940    0.8280   31.5680 O   0  0  0  0  0  0  0  0  0  0  0  0
    5.9410    0.3880   32.8950 C   0  0  0  0  0  0  0  0  0  0  0  0
    7.2860    0.2000   33.1620 C   0  0  0  0  0  0  0  0  0  0  0  0
    5.2830    1.2430   33.9570 C   0  0  0  0  0  0  0  0  0  0  0  0
    7.0850   -0.5760   30.0150 C   0  0  0  0  0  0  0  0  0  0  0  0
    6.9910   -1.6250   29.1480 C   0  0  0  0  0  0  0  0  0  0  0  0
    6.1250   -5.0850   23.8310 C   0  0  0  0  0  0  0  0  0  0  0  0
    6.5230   -5.3750   22.4170 C   0  0  0  0  0  0  0  0  0  0  0  0
  1  2  1  0
  2  3  2  0
  2  4  1  0
  4  5  1  0
  5  6  1  0
  6  7  1  0
  7  8  1  0
  8  9  2  0
  8 10  1  0
 10 11  1  0
 11 12  1  1
 11 13  1  0
 13 14  2  0
 14 15  1  0
 15 16  2  0
 16 17  1  0
 17 18  1  0
 18 19  1  0
 18 20  1  0
 16 21  1  0
 13 22  1  0
 21 22  2  0
  7 23  1  0
  4 24  1  0
 23 24  1  0
M  END
