piperidine-amides-14947-covalent
     RDKit          3D

 21 22  0  0  0  0  0  0  0  0999 V2000
    7.0700   -3.2650   19.2240 C   0  0  0  0  0  0  0  0  0  0  0  0
    6.3300   -4.0320   20.2270 C   0  0  0  0  0  0  0  0  0  0  0  0
    5.2680   -4.5740   19.8840 O   0  0  0  0  0  0  0  0  0  0  0  0
    6.8450   -4.1860   21.5360 N   0  0  0  0  0  0  0  0  0  0  0  0
    6.5300   -5.3790   22.2710 C   0  0  0  0  0  0  0  0  0  0  0  0
    5.7540   -4.9980   23.4940 C   0  0  0  0  0  0  0  0  0  0  0  0
    6.5590   -3.9110   24.1610 C   0  0  0  0  0  0  0  0  0  0  0  0
    5.7820   -3.3500   25.3170 C   0  0  0  0  0  0  0  0  0  0  0  0
    4.5830   -3.1530   25.1270 O   0  0  0  0  0  0  0  0  0  0  0  0
    6.4570   -3.0900   26.5040 N   0  0  0  0  0  0  0  0  0  0  0  0
    6.1980   -3.7960   27.7220 C   0  0  0  0  0  0  0  0  0  0  0  0
    5.8250   -5.1490   27.5930 C   0  0  0  0  0  0  0  0  0  0  0  0
    6.0350   -6.0010   28.6490 C   0  0  0  0  0  0  0  0  0  0  0  0
    5.2490   -5.6020   29.7050 O   0  0  0  0  0  0  0  0  0  0  0  0
    4.3530   -6.1510   30.5290 C   0  0  0  0  0  0  0  0  0  0  0  0
    4.8940   -7.2320   31.3510 C   0  0  0  0  0  0  0  0  0  0  0  0
    4.4910   -6.8780   32.7630 C   0  0  0  0  0  0  0  0  0  0  0  0
    3.5980   -5.6780   32.7110 C   0  0  0  0  0  0  0  0  0  0  0  0
    3.4530   -5.2920   31.2230 C   0  0  0  0  0  0  0  0  0  0  0  0
    6.9560   -2.7780   23.3190 C   0  0  0  0  0  0  0  0  0  0  0  0
    7.6350   -3.1650   22.1900 C   0  0  0  0  0  0  0  0  0  0  0  0
  1  2  1  0
  2  3  2  0
  2  4  1  0
  4  5  1  0
  5  6  1  0
  6  7  1  0
  7  8  1  0
  8  9  2  0
  8 10  1  0
 10 11  1  0
 11 12  1  0
 12 13  1  0
 13 14  1  0
 14 15  1  0
 15 16  1  0
 16 17  1  0
 17 18  1  0
 15 19  1  0
 18 19  1  0
  7 20  1  0
  4 21  1  0
 20 21  1  0
M  END
