piperidine-amides-29970-covalent
     RDKit          3D

 27 29  0  0  0  0  0  0  0  0999 V2000
    7.1120   -3.3740   19.3770 C   0  0  0  0  0  0  0  0  0  0  0  0
    6.3920   -4.1990   20.3330 C   0  0  0  0  0  0  0  0  0  0  0  0
    5.3870   -4.8220   19.9820 O   0  0  0  0  0  0  0  0  0  0  0  0
    6.9040   -4.3100   21.6640 N   0  0  0  0  0  0  0  0  0  0  0  0
    7.7450   -3.2460   22.1790 C   0  0  0  0  0  0  0  0  0  0  0  0
    7.5380   -3.0890   23.6470 C   0  0  0  0  0  0  0  0  0  0  0  0
    6.1700   -3.6630   23.9190 C   0  0  0  0  0  0  0  0  0  0  0  0
    5.6040   -3.1860   25.2060 C   0  0  0  0  0  0  0  0  0  0  0  0
    4.9520   -2.1330   25.2630 O   0  0  0  0  0  0  0  0  0  0  0  0
    5.7500   -3.9050   26.3980 N   0  0  0  0  0  0  0  0  0  0  0  0
    6.3670   -3.1610   27.4350 C   0  0  0  0  0  0  0  0  0  0  0  0
    6.8140   -4.1770   28.4390 C   0  0  0  0  0  0  0  0  0  0  0  0
    5.9950   -4.3750   29.4770 C   0  0  0  0  0  0  0  0  0  0  0  0
    4.6860   -4.7620   29.1440 N   0  0  0  0  0  0  0  0  0  0  0  0
    3.9350   -5.1150   30.3120 C   0  0  0  0  0  0  0  0  0  0  0  0
    2.9240   -4.2970   30.7560 N   0  0  0  0  0  0  0  0  0  0  0  0
    2.1840   -4.5150   31.8080 C   0  0  0  0  0  0  0  0  0  0  0  0
    2.4200   -5.6750   32.5650 C   0  0  0  0  0  0  0  0  0  0  0  0
    3.3980   -6.5220   32.1820 C   0  0  0  0  0  0  0  0  0  0  0  0
    4.2020   -6.3000   31.0530 C   0  0  0  0  0  0  0  0  0  0  0  0
    5.2050   -7.1830   30.6640 C   0  0  0  0  0  0  0  0  0  0  0  0
    5.1530   -7.8400   29.4550 N   0  0  0  0  0  0  0  0  0  0  0  0
    6.2140   -7.3370   31.5870 O   0  0  0  0  0  0  0  0  0  0  0  0
    4.7770   -5.3490   27.9420 C   0  0  0  0  0  0  0  0  0  0  0  0
    4.6310   -4.6890   26.7400 C   0  0  0  0  0  0  0  0  0  0  0  0
    6.1890   -5.1570   23.7980 C   0  0  0  0  0  0  0  0  0  0  0  0
    6.6230   -5.4960   22.4100 C   0  0  0  0  0  0  0  0  0  0  0  0
  1  2  1  0
  2  3  2  0
  2  4  1  0
  4  5  1  0
  5  6  1  0
  6  7  1  0
  7  8  1  0
  8  9  2  0
  8 10  1  0
 10 11  1  0
 11 12  1  0
 12 13  1  0
 13 14  1  0
 14 15  1  0
 15 16  2  0
 16 17  1  0
 17 18  2  0
 18 19  1  0
 15 20  1  0
 19 20  2  0
 20 21  1  0
 21 22  1  0
 21 23  2  0
 14 24  1  0
 10 25  1  0
 24 25  1  0
  7 26  1  0
  4 27  1  0
 26 27  1  0
M  END
