piperidine-amides-10280-covalent
     RDKit          3D

 24 25  0  0  0  0  0  0  0  0999 V2000
    7.1270   -3.2030   19.1040 C   0  0  0  0  0  0  0  0  0  0  0  0
    6.3370   -3.8410   20.1640 C   0  0  0  0  0  0  0  0  0  0  0  0
    5.2710   -4.4120   19.8210 O   0  0  0  0  0  0  0  0  0  0  0  0
    6.7770   -3.8300   21.4820 N   0  0  0  0  0  0  0  0  0  0  0  0
    7.7600   -2.9020   21.9950 C   0  0  0  0  0  0  0  0  0  0  0  0
    7.6640   -2.8600   23.4920 C   0  0  0  0  0  0  0  0  0  0  0  0
    6.2400   -2.9430   23.9690 C   0  0  0  0  0  0  0  0  0  0  0  0
    6.1980   -2.7760   25.4470 C   0  0  0  0  0  0  0  0  0  0  0  0
    5.0870   -2.9060   26.0170 O   0  0  0  0  0  0  0  0  0  0  0  0
    7.3590   -2.4520   26.2230 N   0  0  0  0  0  0  0  0  0  0  0  0
    7.3920   -2.4860   27.6770 C   0  0  0  0  0  0  0  0  0  0  0  0
    6.8700   -3.7950   28.2210 C   0  0  0  0  0  0  0  0  0  0  0  0
    6.2940   -4.6480   27.3520 C   0  0  0  0  0  0  0  0  0  0  0  0
    6.9360   -5.1160   26.2880 N   0  0  0  0  0  0  0  0  0  0  0  0
    6.2300   -5.9150   25.5480 C   0  0  0  0  0  0  0  0  0  0  0  0
    6.7290   -6.5020   24.4380 C   0  0  0  0  0  0  0  0  0  0  0  0
    7.6900   -5.8460   23.7080 O   0  0  0  0  0  0  0  0  0  0  0  0
    6.3630   -7.7460   24.0390 O   0  0  0  0  0  0  0  0  0  0  0  0
    7.1910   -8.2250   23.0660 C   0  0  0  0  0  0  0  0  0  0  0  0
    4.7990   -6.2650   25.8910 C   0  0  0  0  0  0  0  0  0  0  0  0
    3.8890   -7.1830   25.1060 C   0  0  0  0  0  0  0  0  0  0  0  0
    4.6280   -5.3430   27.3370 S   0  0  0  0  0  0  0  0  0  0  0  0
    5.5890   -4.2350   23.5730 C   0  0  0  0  0  0  0  0  0  0  0  0
    6.1680   -4.8560   22.3120 C   0  0  0  0  0  0  0  0  0  0  0  0
  1  2  1  0
  2  3  2  0
  2  4  1  0
  4  5  1  0
  5  6  1  0
  6  7  1  0
  7  8  1  0
  8  9  2  0
  8 10  1  0
 10 11  1  0
 11 12  1  0
 12 13  1  0
 13 14  2  0
 14 15  1  0
 15 16  1  0
 16 17  2  0
 16 18  1  0
 18 19  1  0
 15 20  2  0
 20 21  1  0
 13 22  1  0
 20 22  1  0
  7 23  1  0
  4 24  1  0
 23 24  1  0
M  END
