piperidine-amides-12818-covalent
     RDKit          3D

 22 23  0  0  0  0  0  0  0  0999 V2000
    7.0690   -3.2940   19.2180 C   0  0  0  0  0  0  0  0  0  0  0  0
    6.3260   -4.0600   20.2450 C   0  0  0  0  0  0  0  0  0  0  0  0
    5.2500   -4.5630   19.8810 O   0  0  0  0  0  0  0  0  0  0  0  0
    6.8370   -4.2580   21.5380 N   0  0  0  0  0  0  0  0  0  0  0  0
    7.5220   -3.1970   22.1920 C   0  0  0  0  0  0  0  0  0  0  0  0
    6.9120   -2.7820   23.4530 C   0  0  0  0  0  0  0  0  0  0  0  0
    6.2820   -3.8600   24.2700 C   0  0  0  0  0  0  0  0  0  0  0  0
    5.3630   -3.2770   25.2970 C   0  0  0  0  0  0  0  0  0  0  0  0
    4.1510   -3.2520   25.0270 O   0  0  0  0  0  0  0  0  0  0  0  0
    5.8010   -2.7580   26.5460 N   0  0  0  0  0  0  0  0  0  0  0  0
    6.4700   -3.5950   27.5620 C   0  0  1  0  0  0  0  0  0  0  0  0
    5.6190   -4.7160   28.0550 C   0  0  0  0  0  0  0  0  0  0  0  0
    7.6080   -4.1950   26.9350 C   0  0  0  0  0  0  0  0  0  0  0  0
    8.0870   -5.3510   27.4700 C   0  0  0  0  0  0  0  0  0  0  0  0
    7.5030   -5.8900   28.5650 F   0  0  0  0  0  0  0  0  0  0  0  0
    9.1480   -5.9800   26.9250 C   0  0  0  0  0  0  0  0  0  0  0  0
    9.7290   -5.4690   25.8570 C   0  0  0  0  0  0  0  0  0  0  0  0
    9.2740   -4.3320   25.3070 C   0  0  0  0  0  0  0  0  0  0  0  0
    8.2310   -3.6880   25.8350 C   0  0  0  0  0  0  0  0  0  0  0  0
    7.8340   -2.5170   25.2260 F   0  0  0  0  0  0  0  0  0  0  0  0
    5.5570   -4.8480   23.3810 C   0  0  0  0  0  0  0  0  0  0  0  0
    6.4770   -5.3930   22.3520 C   0  0  0  0  0  0  0  0  0  0  0  0
  1  2  1  0
  2  3  2  0
  2  4  1  0
  4  5  1  0
  5  6  1  0
  6  7  1  0
  7  8  1  0
  8  9  2  0
  8 10  1  0
 10 11  1  0
 11 12  1  6
 11 13  1  0
 13 14  2  0
 14 15  1  0
 14 16  1  0
 16 17  2  0
 17 18  1  0
 13 19  1  0
 18 19  2  0
 19 20  1  0
  7 21  1  0
  4 22  1  0
 21 22  1  0
M  END
