piperidine-amides-15293-covalent
     RDKit          3D

 16 17  0  0  0  0  0  0  0  0999 V2000
    7.0210   -3.3540   19.3820 C   0  0  0  0  0  0  0  0  0  0  0  0
    6.3410   -4.2310   20.3500 C   0  0  0  0  0  0  0  0  0  0  0  0
    5.3550   -4.9040   19.9880 O   0  0  0  0  0  0  0  0  0  0  0  0
    6.8090   -4.3630   21.6650 N   0  0  0  0  0  0  0  0  0  0  0  0
    6.6600   -5.6330   22.3610 C   0  0  0  0  0  0  0  0  0  0  0  0
    5.8920   -5.3720   23.6710 C   0  0  0  0  0  0  0  0  0  0  0  0
    5.8430   -3.8780   23.8150 C   0  0  0  0  0  0  0  0  0  0  0  0
    5.2550   -3.4440   25.1110 C   0  0  0  0  0  0  0  0  0  0  0  0
    4.5420   -2.4270   25.1110 O   0  0  0  0  0  0  0  0  0  0  0  0
    5.4870   -4.1430   26.3120 N   0  0  0  0  0  0  0  0  0  0  0  0
    6.8480   -4.2610   26.6600 C   0  0  0  0  0  0  0  0  0  0  0  0
    6.9050   -5.0850   27.8970 C   0  0  0  0  0  0  0  0  0  0  0  0
    5.7860   -4.7840   28.5180 C   0  0  0  0  0  0  0  0  0  0  0  0
    5.0920   -3.9020   27.7200 C   0  0  0  0  0  0  0  0  0  0  0  0
    7.1840   -3.2650   23.6240 C   0  0  0  0  0  0  0  0  0  0  0  0
    7.5860   -3.3210   22.3130 C   0  0  0  0  0  0  0  0  0  0  0  0
  1  2  1  0
  2  3  2  0
  2  4  1  0
  4  5  1  0
  5  6  1  0
  6  7  1  0
  7  8  1  0
  8  9  2  0
  8 10  1  0
 10 11  1  0
 11 12  1  0
 12 13  1  0
 10 14  1  0
 13 14  1  0
  7 15  1  0
  4 16  1  0
 15 16  1  0
M  END
