piperidine-amides-28667-covalent
     RDKit          3D

 25 27  0  0  0  0  0  0  0  0999 V2000
    7.0270   -3.3630   19.3530 C   0  0  0  0  0  0  0  0  0  0  0  0
    6.3970   -4.2330   20.3490 C   0  0  0  0  0  0  0  0  0  0  0  0
    5.3980   -4.8850   19.9900 O   0  0  0  0  0  0  0  0  0  0  0  0
    6.9350   -4.3630   21.6630 N   0  0  0  0  0  0  0  0  0  0  0  0
    6.5970   -5.5310   22.4410 C   0  0  0  0  0  0  0  0  0  0  0  0
    6.3470   -5.1770   23.8940 C   0  0  0  0  0  0  0  0  0  0  0  0
    6.2470   -3.6670   23.9700 C   0  0  0  0  0  0  0  0  0  0  0  0
    5.7810   -3.1020   25.2830 C   0  0  0  0  0  0  0  0  0  0  0  0
    5.4690   -1.9230   25.2400 O   0  0  0  0  0  0  0  0  0  0  0  0
    5.6590   -3.8500   26.4400 N   0  0  0  0  0  0  0  0  0  0  0  0
    6.2290   -3.4310   27.6640 C   0  0  0  0  0  0  0  0  0  0  0  0
    6.7080   -4.4710   28.4800 C   0  0  0  0  0  0  0  0  0  0  0  0
    5.9370   -4.8830   29.5020 C   0  0  0  0  0  0  0  0  0  0  0  0
    4.7700   -5.5720   29.1540 N   0  0  0  0  0  0  0  0  0  0  0  0
    3.8550   -5.5950   30.2240 C   0  0  0  0  0  0  0  0  0  0  0  0
    2.6050   -5.0000   30.1440 O   0  0  0  0  0  0  0  0  0  0  0  0
    4.2630   -6.2920   31.4810 C   0  0  0  0  0  0  0  0  0  0  0  0
    5.2960   -7.4370   31.2880 C   0  0  0  0  0  0  0  0  0  0  0  0
    5.5790   -8.0100   32.6230 C   0  0  0  0  0  0  0  0  0  0  0  0
    4.7870   -7.2930   33.6600 C   0  0  0  0  0  0  0  0  0  0  0  0
    3.7250   -5.9770   33.1100 S   0  0  0  0  0  0  0  0  0  0  0  0
    4.5190   -5.4080   27.7790 C   0  0  0  0  0  0  0  0  0  0  0  0
    4.5760   -4.1170   27.3390 C   0  0  0  0  0  0  0  0  0  0  0  0
    7.5920   -3.1320   23.6440 C   0  0  0  0  0  0  0  0  0  0  0  0
    7.7380   -3.2600   22.1650 C   0  0  0  0  0  0  0  0  0  0  0  0
  1  2  1  0
  2  3  2  0
  2  4  1  0
  4  5  1  0
  5  6  1  0
  6  7  1  0
  7  8  1  0
  8  9  2  0
  8 10  1  0
 10 11  1  0
 11 12  1  0
 12 13  1  0
 13 14  1  0
 14 15  1  0
 15 16  2  0
 15 17  1  0
 17 18  2  0
 18 19  1  0
 19 20  2  0
 17 21  1  0
 20 21  1  0
 14 22  1  0
 10 23  1  0
 22 23  1  0
  7 24  1  0
  4 25  1  0
 24 25  1  0
M  END
