piperidine-amides-11364-covalent
     RDKit          3D

 25 27  0  0  0  0  0  0  0  0999 V2000
    7.1210   -3.2610   19.1710 C   0  0  0  0  0  0  0  0  0  0  0  0
    6.3570   -3.9890   20.1860 C   0  0  0  0  0  0  0  0  0  0  0  0
    5.2860   -4.5350   19.8760 O   0  0  0  0  0  0  0  0  0  0  0  0
    6.8370   -4.1310   21.4910 N   0  0  0  0  0  0  0  0  0  0  0  0
    7.7180   -3.1530   22.0960 C   0  0  0  0  0  0  0  0  0  0  0  0
    6.9990   -2.6610   23.3140 C   0  0  0  0  0  0  0  0  0  0  0  0
    6.5610   -3.8010   24.1670 C   0  0  0  0  0  0  0  0  0  0  0  0
    5.7760   -3.3460   25.3370 C   0  0  0  0  0  0  0  0  0  0  0  0
    4.5240   -3.5420   25.3780 O   0  0  0  0  0  0  0  0  0  0  0  0
    6.3560   -2.6740   26.4380 N   0  0  0  0  0  0  0  0  0  0  0  0
    5.5080   -2.3190   27.5990 C   0  0  0  0  0  0  0  0  0  0  0  0
    5.9040   -0.9770   28.0830 C   0  0  2  0  0  0  0  0  0  0  0  0
    5.9710    0.0940   27.0650 C   0  0  0  0  0  0  0  0  0  0  0  0
    4.9110   -0.0390   26.4200 O   0  0  0  0  0  0  0  0  0  0  0  0
    7.2840   -1.0600   28.6680 C   0  0  0  0  0  0  0  0  0  0  0  0
    7.5540   -0.0860   29.5660 O   0  0  0  0  0  0  0  0  0  0  0  0
    6.7010    0.0230   30.6870 C   0  0  0  0  0  0  0  0  0  0  0  0
    5.3940   -0.6610   30.5090 C   0  0  1  0  0  0  0  0  0  0  0  0
    4.3350   -0.0600   31.1560 C   0  0  0  0  0  0  0  0  0  0  0  0
    4.4440    1.2880   30.8640 O   0  0  0  0  0  0  0  0  0  0  0  0
    4.1420    1.5810   29.5370 C   0  0  0  0  0  0  0  0  0  0  0  0
    4.6410    0.5170   28.5790 C   0  0  0  0  0  0  0  0  0  0  0  0
    5.0650   -0.6380   29.1220 N   0  0  0  0  0  0  0  0  0  0  0  0
    5.7640   -4.8610   23.4500 C   0  0  0  0  0  0  0  0  0  0  0  0
    6.5370   -5.3230   22.2430 C   0  0  0  0  0  0  0  0  0  0  0  0
  1  2  1  0
  2  3  2  0
  2  4  1  0
  4  5  1  0
  5  6  1  0
  6  7  1  0
  7  8  1  0
  8  9  2  0
  8 10  1  0
 10 11  1  0
 12 11  1  6
 12 13  1  0
 13 14  1  0
 12 15  1  0
 15 16  1  0
 16 17  1  0
 18 17  1  6
 18 19  1  0
 19 20  1  0
 20 21  1  0
 21 22  1  0
 12 23  1  0
 18 23  1  0
 22 23  1  0
  7 24  1  0
  4 25  1  0
 24 25  1  0
M  END
