piperidine-amides-23436-covalent
     RDKit          3D

 24 26  0  0  0  0  0  0  0  0999 V2000
    7.0160   -3.3730   19.4310 C   0  0  0  0  0  0  0  0  0  0  0  0
    6.3970   -4.2580   20.4370 C   0  0  0  0  0  0  0  0  0  0  0  0
    5.4420   -4.9640   20.0150 O   0  0  0  0  0  0  0  0  0  0  0  0
    6.8720   -4.3420   21.7880 N   0  0  0  0  0  0  0  0  0  0  0  0
    6.5170   -5.4770   22.5820 C   0  0  0  0  0  0  0  0  0  0  0  0
    5.8740   -5.0990   23.8380 C   0  0  0  0  0  0  0  0  0  0  0  0
    5.8390   -3.6320   23.9780 C   0  0  0  0  0  0  0  0  0  0  0  0
    5.1400   -3.0740   25.2250 C   0  0  0  0  0  0  0  0  0  0  0  0
    4.5150   -2.0150   25.0980 O   0  0  0  0  0  0  0  0  0  0  0  0
    5.1510   -3.6600   26.5170 N   0  0  0  0  0  0  0  0  0  0  0  0
    6.2370   -4.2200   26.9750 C   0  0  0  0  0  0  0  0  0  0  0  0
    6.3160   -4.3590   28.3840 C   0  0  0  0  0  0  0  0  0  0  0  0
    4.9380   -3.7840   28.7720 C   0  0  2  0  0  0  0  0  0  0  0  0
    4.1090   -4.7630   29.3190 C   0  0  0  0  0  0  0  0  0  0  0  0
    3.6030   -5.2080   27.9340 C   0  0  0  0  0  0  0  0  0  0  0  0
    4.5770   -6.2310   27.4490 C   0  0  0  0  0  0  0  0  0  0  0  0
    4.0410   -6.6690   26.0610 C   0  0  0  0  0  0  0  0  0  0  0  0
    2.8190   -6.2470   25.2470 C   0  0  0  0  0  0  0  0  0  0  0  0
    1.9300   -5.1940   25.8910 C   0  0  0  0  0  0  0  0  0  0  0  0
    0.8810   -4.7170   25.3870 O   0  0  0  0  0  0  0  0  0  0  0  0
    2.3700   -4.6940   27.2600 C   0  0  0  0  0  0  0  0  0  0  0  0
    4.4470   -3.0830   27.6370 C   0  0  0  0  0  0  0  0  0  0  0  0
    7.1840   -3.0340   23.6960 C   0  0  0  0  0  0  0  0  0  0  0  0
    7.6180   -3.2370   22.3780 C   0  0  0  0  0  0  0  0  0  0  0  0
  1  2  1  0
  2  3  2  0
  2  4  1  0
  4  5  1  0
  5  6  1  0
  6  7  1  0
  7  8  1  0
  8  9  2  0
  8 10  1  0
 10 11  1  0
 11 12  1  0
 12 13  1  0
 13 14  1  6
 14 15  1  0
 15 16  2  0
 16 17  1  0
 17 18  2  0
 18 19  1  0
 19 20  1  0
 15 21  1  0
 19 21  2  0
 10 22  1  0
 13 22  1  0
  7 23  1  0
  4 24  1  0
 23 24  1  0
M  END
