piperidine-amides-20574-covalent
     RDKit          3D

 22 22  0  0  0  0  0  0  0  0999 V2000
    7.1430   -3.3120   19.2980 C   0  0  0  0  0  0  0  0  0  0  0  0
    6.4070   -4.1120   20.2780 C   0  0  0  0  0  0  0  0  0  0  0  0
    5.3510   -4.7000   19.9480 O   0  0  0  0  0  0  0  0  0  0  0  0
    6.9190   -4.2650   21.5730 N   0  0  0  0  0  0  0  0  0  0  0  0
    6.5500   -5.4190   22.3370 C   0  0  0  0  0  0  0  0  0  0  0  0
    5.7570   -4.8680   23.5270 C   0  0  0  0  0  0  0  0  0  0  0  0
    6.6170   -3.8340   24.2450 C   0  0  0  0  0  0  0  0  0  0  0  0
    5.7810   -3.2310   25.3040 C   0  0  0  0  0  0  0  0  0  0  0  0
    4.6170   -2.9050   24.9870 O   0  0  0  0  0  0  0  0  0  0  0  0
    6.2400   -3.0240   26.6310 N   0  0  0  0  0  0  0  0  0  0  0  0
    5.7720   -1.8090   27.2510 C   0  0  0  0  0  0  0  0  0  0  0  0
    6.8750   -1.0880   27.9910 C   0  0  0  0  0  0  0  0  0  0  0  0
    7.2020   -1.4730   29.2600 C   0  0  0  0  0  0  0  0  0  0  0  0
    6.7390   -0.7210   30.3110 C   0  0  0  0  0  0  0  0  0  0  0  0
    6.4730    0.6390   30.1800 C   0  0  0  0  0  0  0  0  0  0  0  0
    5.9640   -4.0090   27.7120 C   0  0  0  0  0  0  0  0  0  0  0  0
    5.5930   -5.3980   27.2000 C   0  0  0  0  0  0  0  0  0  0  0  0
    5.7360   -5.3570   28.7040 C   0  0  0  0  0  0  0  0  0  0  0  0
    6.3580   -6.5720   29.3250 C   0  0  0  0  0  0  0  0  0  0  0  0
    5.2020   -6.9660   28.5130 C   0  0  0  0  0  0  0  0  0  0  0  0
    7.0190   -2.7250   23.3140 C   0  0  0  0  0  0  0  0  0  0  0  0
    7.6150   -3.1810   22.1790 C   0  0  0  0  0  0  0  0  0  0  0  0
  1  2  1  0
  2  3  2  0
  2  4  1  0
  4  5  1  0
  5  6  1  0
  6  7  1  0
  7  8  1  0
  8  9  2  0
  8 10  1  0
 10 11  1  0
 11 12  1  0
 12 13  1  0
 13 14  1  0
 14 15  1  0
 10 16  1  0
 16 17  1  0
 17 18  1  0
 18 19  1  0
 19 20  1  0
  7 21  1  0
  4 22  1  0
 21 22  1  0
M  END
