piperidine-amides-3313-covalent
     RDKit          3D

 22 22  0  0  0  0  0  0  0  0999 V2000
    7.1120   -3.2660   19.2490 C   0  0  0  0  0  0  0  0  0  0  0  0
    6.3520   -4.0410   20.2210 C   0  0  0  0  0  0  0  0  0  0  0  0
    5.2980   -4.5820   19.8950 O   0  0  0  0  0  0  0  0  0  0  0  0
    6.8600   -4.2210   21.5460 N   0  0  0  0  0  0  0  0  0  0  0  0
    7.6540   -3.1860   22.1560 C   0  0  0  0  0  0  0  0  0  0  0  0
    6.9980   -2.6940   23.4080 C   0  0  0  0  0  0  0  0  0  0  0  0
    6.4780   -3.8990   24.1710 C   0  0  0  0  0  0  0  0  0  0  0  0
    5.7450   -3.4370   25.3830 C   0  0  0  0  0  0  0  0  0  0  0  0
    4.5170   -3.2380   25.3830 O   0  0  0  0  0  0  0  0  0  0  0  0
    6.4810   -3.2070   26.5700 N   0  0  0  0  0  0  0  0  0  0  0  0
    6.1750   -3.9420   27.7820 C   0  0  0  0  0  0  0  0  0  0  0  0
    6.1010   -5.4320   27.5020 C   0  0  0  0  0  0  0  0  0  0  0  0
    5.0070   -6.1450   27.9350 C   0  0  0  0  0  0  0  0  0  0  0  0
    4.0130   -6.6140   27.0740 C   0  0  0  0  0  0  0  0  0  0  0  0
    2.8730   -7.1720   27.6140 C   0  0  0  0  0  0  0  0  0  0  0  0
    1.8750   -6.3100   28.2330 C   0  0  0  0  0  0  0  0  0  0  0  0
    0.7950   -5.6800   27.6470 C   0  0  0  0  0  0  0  0  0  0  0  0
   -0.3830   -6.3150   27.3280 C   0  0  0  0  0  0  0  0  0  0  0  0
   -1.4460   -5.5620   26.8220 C   0  0  0  0  0  0  0  0  0  0  0  0
   -2.7260   -6.2570   26.6540 C   0  0  0  0  0  0  0  0  0  0  0  0
    5.6210   -4.8150   23.3180 C   0  0  0  0  0  0  0  0  0  0  0  0
    6.4450   -5.3440   22.3330 C   0  0  0  0  0  0  0  0  0  0  0  0
  1  2  1  0
  2  3  2  0
  2  4  1  0
  4  5  1  0
  5  6  1  0
  6  7  1  0
  7  8  1  0
  8  9  2  0
  8 10  1  0
 10 11  1  0
 11 12  1  0
 12 13  1  0
 13 14  1  0
 14 15  1  0
 15 16  1  0
 16 17  1  0
 17 18  1  0
 18 19  1  0
 19 20  1  0
  7 21  1  0
  4 22  1  0
 21 22  1  0
M  END
