piperidine-amides-27881-covalent
     RDKit          3D

 26 29  0  0  0  0  0  0  0  0999 V2000
    7.0170   -3.3790   19.3310 C   0  0  0  0  0  0  0  0  0  0  0  0
    6.3870   -4.2210   20.3730 C   0  0  0  0  0  0  0  0  0  0  0  0
    5.4120   -4.9070   19.9970 O   0  0  0  0  0  0  0  0  0  0  0  0
    6.8950   -4.2670   21.6830 N   0  0  0  0  0  0  0  0  0  0  0  0
    6.6530   -5.4150   22.5060 C   0  0  0  0  0  0  0  0  0  0  0  0
    6.1990   -5.0880   23.8660 C   0  0  0  0  0  0  0  0  0  0  0  0
    6.3330   -3.6510   24.1810 C   0  0  0  0  0  0  0  0  0  0  0  0
    6.0820   -3.3140   25.6170 C   0  0  0  0  0  0  0  0  0  0  0  0
    6.1700   -2.1250   25.9410 O   0  0  0  0  0  0  0  0  0  0  0  0
    5.6840   -4.2640   26.5810 N   0  0  0  0  0  0  0  0  0  0  0  0
    4.3220   -4.6010   26.7170 C   0  0  0  0  0  0  0  0  0  0  0  0
    4.4780   -5.2450   28.0080 C   0  0  0  0  0  0  0  0  0  0  0  0
    5.5000   -4.6690   28.8620 C   0  0  1  0  0  0  0  0  0  0  0  0
    5.1090   -3.5960   29.5520 C   0  0  0  0  0  0  0  0  0  0  0  0
    3.9710   -3.8560   30.3130 C   0  0  2  0  0  0  0  0  0  0  0  0
    3.7790   -2.8240   31.0900 O   0  0  0  0  0  0  0  0  0  0  0  0
    4.0530   -5.1060   30.8920 C   0  0  0  0  0  0  0  0  0  0  0  0
    3.0840   -5.4670   31.7830 C   0  0  0  0  0  0  0  0  0  0  0  0
    3.1000   -6.6780   32.4050 C   0  0  0  0  0  0  0  0  0  0  0  0
    4.0990   -7.6180   32.1740 C   0  0  0  0  0  0  0  0  0  0  0  0
    5.2070   -7.3480   31.2270 C   0  0  0  0  0  0  0  0  0  0  0  0
    5.0860   -5.9830   30.5990 C   0  0  0  0  0  0  0  0  0  0  0  0
    5.9470   -5.5690   29.7580 O   0  0  0  0  0  0  0  0  0  0  0  0
    6.4160   -4.4860   27.8320 C   0  0  0  0  0  0  0  0  0  0  0  0
    7.5590   -3.0370   23.6730 C   0  0  0  0  0  0  0  0  0  0  0  0
    7.7650   -3.2020   22.1850 C   0  0  0  0  0  0  0  0  0  0  0  0
  1  2  1  0
  2  3  2  0
  2  4  1  0
  4  5  1  0
  5  6  1  0
  6  7  1  0
  7  8  1  0
  8  9  2  0
  8 10  1  0
 10 11  1  0
 11 12  1  0
 13 12  1  6
 13 14  1  0
 14 15  1  0
 15 16  1  1
 15 17  1  0
 17 18  2  0
 18 19  1  0
 19 20  2  0
 20 21  1  0
 17 22  1  0
 21 22  2  0
 13 23  1  0
 22 23  1  0
 10 24  1  0
 13 24  1  0
  7 25  1  0
  4 26  1  0
 25 26  1  0
M  END
