piperidine-amides-25854-covalent
     RDKit          3D

 25 27  0  0  0  0  0  0  0  0999 V2000
    7.0550   -3.3670   19.4120 C   0  0  0  0  0  0  0  0  0  0  0  0
    6.3540   -4.2380   20.3830 C   0  0  0  0  0  0  0  0  0  0  0  0
    5.3540   -4.8240   19.9770 O   0  0  0  0  0  0  0  0  0  0  0  0
    6.8640   -4.4070   21.6780 N   0  0  0  0  0  0  0  0  0  0  0  0
    6.6220   -5.5990   22.4460 C   0  0  0  0  0  0  0  0  0  0  0  0
    5.7620   -5.2620   23.6370 C   0  0  0  0  0  0  0  0  0  0  0  0
    6.3170   -4.0540   24.4000 C   0  0  0  0  0  0  0  0  0  0  0  0
    5.2330   -3.6440   25.3460 C   0  0  0  0  0  0  0  0  0  0  0  0
    4.1160   -3.4160   24.8800 O   0  0  0  0  0  0  0  0  0  0  0  0
    5.4410   -3.4970   26.7430 N   0  0  0  0  0  0  0  0  0  0  0  0
    6.7510   -3.4970   27.1560 C   0  0  0  0  0  0  0  0  0  0  0  0
    7.0720   -4.8100   27.8560 C   0  0  0  0  0  0  0  0  0  0  0  0
    6.1240   -5.6670   28.2660 C   0  0  0  0  0  0  0  0  0  0  0  0
    4.9920   -5.1560   28.8000 C   0  0  0  0  0  0  0  0  0  0  0  0
    4.2920   -5.5740   29.8490 C   0  0  0  0  0  0  0  0  0  0  0  0
    3.0690   -4.8560   30.2730 C   0  0  0  0  0  0  0  0  0  0  0  0
    2.7570   -3.7780   29.5190 N   0  0  0  0  0  0  0  0  0  0  0  0
    3.4720   -3.3240   28.4170 C   0  0  0  0  0  0  0  0  0  0  0  0
    3.0110   -2.1030   27.6690 C   0  0  0  0  0  0  0  0  0  0  0  0
    3.8770   -1.0290   27.7900 O   0  0  0  0  0  0  0  0  0  0  0  0
    1.8070   -2.1930   26.9890 O   0  0  0  0  0  0  0  0  0  0  0  0
    1.6480   -1.8880   25.6390 C   0  0  0  0  0  0  0  0  0  0  0  0
    4.6530   -3.9350   27.9110 C   0  0  0  0  0  0  0  0  0  0  0  0
    6.7840   -2.9350   23.5250 C   0  0  0  0  0  0  0  0  0  0  0  0
    7.5980   -3.3540   22.3470 C   0  0  0  0  0  0  0  0  0  0  0  0
  1  2  1  0
  2  3  2  0
  2  4  1  0
  4  5  1  0
  5  6  1  0
  6  7  1  0
  7  8  1  0
  8  9  2  0
  8 10  1  0
 10 11  1  0
 11 12  1  0
 12 13  1  0
 13 14  1  0
 14 15  2  0
 15 16  1  0
 16 17  2  0
 17 18  1  0
 18 19  1  0
 19 20  2  0
 19 21  1  0
 21 22  1  0
 10 23  1  0
 14 23  1  0
 18 23  2  0
  7 24  1  0
  4 25  1  0
 24 25  1  0
M  END
