piperidine-amides-5284-covalent
     RDKit          3D

 21 22  0  0  0  0  0  0  0  0999 V2000
    7.0980   -3.3100   19.2630 C   0  0  0  0  0  0  0  0  0  0  0  0
    6.3890   -4.1220   20.2770 C   0  0  0  0  0  0  0  0  0  0  0  0
    5.3130   -4.6440   19.9190 O   0  0  0  0  0  0  0  0  0  0  0  0
    6.9450   -4.3290   21.5490 N   0  0  0  0  0  0  0  0  0  0  0  0
    6.4880   -5.4120   22.3510 C   0  0  0  0  0  0  0  0  0  0  0  0
    5.9910   -4.9970   23.6670 C   0  0  0  0  0  0  0  0  0  0  0  0
    6.5880   -3.7420   24.1890 C   0  0  0  0  0  0  0  0  0  0  0  0
    5.8060   -3.2340   25.3370 C   0  0  0  0  0  0  0  0  0  0  0  0
    4.5730   -3.0970   25.2160 O   0  0  0  0  0  0  0  0  0  0  0  0
    6.4440   -2.9220   26.5440 N   0  0  0  0  0  0  0  0  0  0  0  0
    6.4030   -1.5980   27.2070 C   0  0  0  0  0  0  0  0  0  0  0  0
    6.9780   -1.5210   28.5660 C   0  0  0  0  0  0  0  0  0  0  0  0
    7.0010   -0.3070   29.3370 C   0  0  0  0  0  0  0  0  0  0  0  0
    6.4610    0.8220   28.7740 C   0  0  0  0  0  0  0  0  0  0  0  0
    6.3830    2.0750   29.3530 C   0  0  0  0  0  0  0  0  0  0  0  0
    5.1530    2.5140   29.3840 O   0  0  0  0  0  0  0  0  0  0  0  0
    5.8730    0.7980   27.4030 C   0  0  0  0  0  0  0  0  0  0  0  0
    5.8350   -0.3440   26.6370 C   0  0  0  0  0  0  0  0  0  0  0  0
    5.2670   -0.3340   25.3300 O   0  0  0  0  0  0  0  0  0  0  0  0
    6.8710   -2.7140   23.1750 C   0  0  0  0  0  0  0  0  0  0  0  0
    7.6820   -3.2610   22.1920 C   0  0  0  0  0  0  0  0  0  0  0  0
  1  2  1  0
  2  3  2  0
  2  4  1  0
  4  5  1  0
  5  6  1  0
  6  7  1  0
  7  8  1  0
  8  9  2  0
  8 10  1  0
 10 11  1  0
 11 12  2  0
 12 13  1  0
 13 14  2  0
 14 15  1  0
 15 16  1  0
 14 17  1  0
 11 18  1  0
 17 18  2  0
 18 19  1  0
  7 20  1  0
  4 21  1  0
 20 21  1  0
M  END
