piperidine-amides-2232-covalent
     RDKit          3D

 28 30  0  0  0  0  0  0  0  0999 V2000
    7.0510   -3.3370   19.3590 C   0  0  0  0  0  0  0  0  0  0  0  0
    6.4010   -4.2150   20.3670 C   0  0  0  0  0  0  0  0  0  0  0  0
    5.4230   -4.8610   19.9910 O   0  0  0  0  0  0  0  0  0  0  0  0
    6.9300   -4.3030   21.6650 N   0  0  0  0  0  0  0  0  0  0  0  0
    7.7110   -3.2180   22.2210 C   0  0  0  0  0  0  0  0  0  0  0  0
    7.4060   -3.0460   23.6830 C   0  0  0  0  0  0  0  0  0  0  0  0
    6.0100   -3.5900   23.9620 C   0  0  0  0  0  0  0  0  0  0  0  0
    5.5590   -3.2020   25.3160 C   0  0  0  0  0  0  0  0  0  0  0  0
    4.3510   -3.0070   25.5010 O   0  0  0  0  0  0  0  0  0  0  0  0
    6.4450   -3.0410   26.3980 N   0  0  0  0  0  0  0  0  0  0  0  0
    6.4300   -1.7630   27.0870 C   0  0  0  0  0  0  0  0  0  0  0  0
    5.7900   -0.5300   26.4210 C   0  0  0  0  0  0  0  0  0  0  0  0
    5.7670    0.7950   27.1160 N   0  0  0  0  0  0  0  0  0  0  0  0
    6.4150    0.6610   28.4190 C   0  0  0  0  0  0  0  0  0  0  0  0
    6.0700    1.9560   28.4230 N   0  0  0  0  0  0  0  0  0  0  0  0
    4.7560    2.0250   28.6970 C   0  0  0  0  0  0  0  0  0  0  0  0
    4.4540    2.8260   29.7560 C   0  0  0  0  0  0  0  0  0  0  0  0
    3.7880    2.6070   31.0870 C   0  0  0  0  0  0  0  0  0  0  0  0
    3.6820    3.8380   31.9330 C   0  0  0  0  0  0  0  0  0  0  0  0
    4.2150    5.1730   31.4520 C   0  0  0  0  0  0  0  0  0  0  0  0
    4.0790    6.5940   32.4560 Cl  0  0  0  0  0  0  0  0  0  0  0  0
    4.8500    5.1940   30.0890 C   0  0  0  0  0  0  0  0  0  0  0  0
    5.0240    4.0560   29.1410 C   0  0  0  0  0  0  0  0  0  0  0  0
    7.0580   -0.4420   29.1570 C   0  0  0  0  0  0  0  0  0  0  0  0
    7.6630   -0.3160   30.5050 C   0  0  0  0  0  0  0  0  0  0  0  0
    7.0730   -1.6500   28.5130 C   0  0  0  0  0  0  0  0  0  0  0  0
    6.0680   -5.0870   23.7970 C   0  0  0  0  0  0  0  0  0  0  0  0
    6.5940   -5.4710   22.4380 C   0  0  0  0  0  0  0  0  0  0  0  0
  1  2  1  0
  2  3  2  0
  2  4  1  0
  4  5  1  0
  5  6  1  0
  6  7  1  0
  7  8  1  0
  8  9  2  0
  8 10  1  0
 10 11  1  0
 11 12  2  0
 12 13  1  0
 13 14  2  0
 14 15  1  0
 15 16  1  0
 16 17  1  0
 17 18  2  0
 18 19  1  0
 19 20  2  0
 20 21  1  0
 20 22  1  0
 17 23  1  0
 22 23  2  0
 14 24  1  0
 24 25  1  0
 11 26  1  0
 24 26  2  0
  7 27  1  0
  4 28  1  0
 27 28  1  0
M  END
