piperidine-amides-12254-covalent
     RDKit          3D

 24 26  0  0  0  0  0  0  0  0999 V2000
    7.0120   -3.3510   19.3490 C   0  0  0  0  0  0  0  0  0  0  0  0
    6.3360   -4.1870   20.3380 C   0  0  0  0  0  0  0  0  0  0  0  0
    5.3610   -4.8480   19.9860 O   0  0  0  0  0  0  0  0  0  0  0  0
    6.8130   -4.2920   21.6990 N   0  0  0  0  0  0  0  0  0  0  0  0
    7.6550   -3.2460   22.2510 C   0  0  0  0  0  0  0  0  0  0  0  0
    7.3590   -3.0200   23.7100 C   0  0  0  0  0  0  0  0  0  0  0  0
    6.1130   -3.8160   24.0120 C   0  0  0  0  0  0  0  0  0  0  0  0
    5.5850   -3.5260   25.3790 C   0  0  0  0  0  0  0  0  0  0  0  0
    4.3610   -3.4460   25.5890 O   0  0  0  0  0  0  0  0  0  0  0  0
    6.4540   -3.3170   26.4770 N   0  0  0  0  0  0  0  0  0  0  0  0
    6.4230   -1.9930   27.0310 C   0  0  0  0  0  0  0  0  0  0  0  0
    6.9610   -1.8680   28.4300 C   0  0  0  0  0  0  0  0  0  0  0  0
    6.9750   -0.6470   29.0690 C   0  0  0  0  0  0  0  0  0  0  0  0
    6.4730    0.4640   28.3740 C   0  0  0  0  0  0  0  0  0  0  0  0
    6.4580    1.7390   28.9650 N   0  0  0  0  0  0  0  0  0  0  0  0
    5.9740    2.8830   28.3160 C   0  0  0  0  0  0  0  0  0  0  0  0
    5.9290    4.2300   28.8620 C   0  0  0  0  0  0  0  0  0  0  0  0
    5.4660    2.7080   26.9650 N   0  0  0  0  0  0  0  0  0  0  0  0
    5.5520    1.4240   26.5510 C   0  0  0  0  0  0  0  0  0  0  0  0
    5.1040    1.2160   25.3370 O   0  0  0  0  0  0  0  0  0  0  0  0
    5.9980    0.2700   27.0960 C   0  0  0  0  0  0  0  0  0  0  0  0
    5.9590   -0.9170   26.4080 C   0  0  0  0  0  0  0  0  0  0  0  0
    6.2150   -5.2320   23.7340 C   0  0  0  0  0  0  0  0  0  0  0  0
    6.6560   -5.5210   22.4490 C   0  0  0  0  0  0  0  0  0  0  0  0
  1  2  1  0
  2  3  2  0
  2  4  1  0
  4  5  1  0
  5  6  1  0
  6  7  1  0
  7  8  1  0
  8  9  2  0
  8 10  1  0
 10 11  1  0
 11 12  2  0
 12 13  1  0
 13 14  2  0
 14 15  1  0
 15 16  2  0
 16 17  1  0
 16 18  1  0
 18 19  2  0
 19 20  1  0
 14 21  1  0
 19 21  1  0
 11 22  1  0
 21 22  2  0
  7 23  1  0
  4 24  1  0
 23 24  1  0
M  END
