piperidine-amides-14636-covalent
     RDKit          3D

 23 25  0  0  0  0  0  0  0  0999 V2000
    7.0600   -3.3610   19.3660 C   0  0  0  0  0  0  0  0  0  0  0  0
    6.3540   -4.1740   20.3510 C   0  0  0  0  0  0  0  0  0  0  0  0
    5.3620   -4.8210   19.9740 O   0  0  0  0  0  0  0  0  0  0  0  0
    6.8320   -4.2520   21.6830 N   0  0  0  0  0  0  0  0  0  0  0  0
    7.6600   -3.1790   22.1790 C   0  0  0  0  0  0  0  0  0  0  0  0
    7.5240   -3.0490   23.6670 C   0  0  0  0  0  0  0  0  0  0  0  0
    6.1570   -3.5880   24.0090 C   0  0  0  0  0  0  0  0  0  0  0  0
    5.7320   -3.2120   25.3970 C   0  0  0  0  0  0  0  0  0  0  0  0
    4.5780   -3.5140   25.7000 O   0  0  0  0  0  0  0  0  0  0  0  0
    6.6280   -2.5480   26.2340 N   0  0  0  0  0  0  0  0  0  0  0  0
    6.1870   -1.5190   27.1330 C   0  0  1  0  0  0  0  0  0  0  0  0
    7.0210   -1.4980   28.2400 C   0  0  0  0  0  0  0  0  0  0  0  0
    6.5620   -0.5200   28.8840 C   0  0  0  0  0  0  0  0  0  0  0  0
    6.1120    0.2130   27.8560 C   0  0  0  0  0  0  0  0  0  0  0  0
    6.0780    1.5480   28.5090 C   0  0  0  0  0  0  0  0  0  0  0  0
    5.6520    2.7610   27.7680 C   0  0  0  0  0  0  0  0  0  0  0  0
    5.5900    4.1260   28.3460 C   0  0  0  0  0  0  0  0  0  0  0  0
    5.3000    2.4460   26.3920 C   0  0  0  0  0  0  0  0  0  0  0  0
    5.4090    0.9620   25.9100 C   0  0  0  0  0  0  0  0  0  0  0  0
    5.0610    0.7200   24.5990 C   0  0  0  0  0  0  0  0  0  0  0  0
    5.7910   -0.2820   26.4960 C   0  0  0  0  0  0  0  0  0  0  0  0
    6.0840   -5.0650   23.8290 C   0  0  0  0  0  0  0  0  0  0  0  0
    6.6140   -5.4380   22.4730 C   0  0  0  0  0  0  0  0  0  0  0  0
  1  2  1  0
  2  3  2  0
  2  4  1  0
  4  5  1  0
  5  6  1  0
  6  7  1  0
  7  8  1  0
  8  9  2  0
  8 10  1  0
 11 10  1  6
 11 12  1  0
 12 13  1  0
 13 14  1  0
 14 15  1  0
 15 16  2  0
 16 17  1  0
 16 18  1  0
 18 19  2  0
 19 20  1  0
 11 21  1  0
 14 21  2  0
 19 21  1  0
  7 22  1  0
  4 23  1  0
 22 23  1  0
M  END
