piperidine-amides-3344-covalent
     RDKit          3D

 22 23  0  0  0  0  0  0  0  0999 V2000
    7.0740   -3.2870   19.2880 C   0  0  0  0  0  0  0  0  0  0  0  0
    6.3490   -4.0820   20.2770 C   0  0  0  0  0  0  0  0  0  0  0  0
    5.3460   -4.7080   19.9430 O   0  0  0  0  0  0  0  0  0  0  0  0
    6.8240   -4.1830   21.6340 N   0  0  0  0  0  0  0  0  0  0  0  0
    7.6930   -3.1540   22.1710 C   0  0  0  0  0  0  0  0  0  0  0  0
    7.4150   -2.9400   23.6290 C   0  0  0  0  0  0  0  0  0  0  0  0
    6.1170   -3.6640   23.9130 C   0  0  0  0  0  0  0  0  0  0  0  0
    5.6070   -3.3310   25.2730 C   0  0  0  0  0  0  0  0  0  0  0  0
    4.3900   -3.2580   25.5070 O   0  0  0  0  0  0  0  0  0  0  0  0
    6.5120   -3.0920   26.3270 N   0  0  0  0  0  0  0  0  0  0  0  0
    6.2570   -3.6780   27.6340 C   0  0  2  0  0  0  0  0  0  0  0  0
    5.8080   -5.1190   27.4820 C   0  0  0  0  0  0  0  0  0  0  0  0
    5.2650   -2.8520   28.3710 C   0  0  0  0  0  0  0  0  0  0  0  0
    5.7850   -1.9160   29.3010 C   0  0  0  0  0  0  0  0  0  0  0  0
    4.9410   -1.1010   30.0390 C   0  0  0  0  0  0  0  0  0  0  0  0
    3.5200   -1.2350   29.8270 C   0  0  0  0  0  0  0  0  0  0  0  0
    3.0040   -2.1230   28.9400 C   0  0  0  0  0  0  0  0  0  0  0  0
    3.8780   -2.9120   28.2300 C   0  0  0  0  0  0  0  0  0  0  0  0
    3.2360   -3.7700   27.3590 O   0  0  0  0  0  0  0  0  0  0  0  0
    2.3010   -3.1060   26.5530 C   0  0  0  0  0  0  0  0  0  0  0  0
    6.1350   -5.0930   23.6600 C   0  0  0  0  0  0  0  0  0  0  0  0
    6.6440   -5.3980   22.4040 C   0  0  0  0  0  0  0  0  0  0  0  0
  1  2  1  0
  2  3  2  0
  2  4  1  0
  4  5  1  0
  5  6  1  0
  6  7  1  0
  7  8  1  0
  8  9  2  0
  8 10  1  0
 10 11  1  0
 11 12  1  6
 11 13  1  0
 13 14  2  0
 14 15  1  0
 15 16  2  0
 16 17  1  0
 13 18  1  0
 17 18  2  0
 18 19  1  0
 19 20  1  0
  7 21  1  0
  4 22  1  0
 21 22  1  0
M  END
