piperidine-amides-32751-covalent
     RDKit          3D

 27 29  0  0  0  0  0  0  0  0999 V2000
    7.0210   -3.3480   19.4030 C   0  0  0  0  0  0  0  0  0  0  0  0
    6.3590   -4.2480   20.3900 C   0  0  0  0  0  0  0  0  0  0  0  0
    5.4050   -4.9440   20.0010 O   0  0  0  0  0  0  0  0  0  0  0  0
    6.8420   -4.3260   21.7240 N   0  0  0  0  0  0  0  0  0  0  0  0
    7.6170   -3.2430   22.3130 C   0  0  0  0  0  0  0  0  0  0  0  0
    7.2740   -3.1330   23.8160 C   0  0  0  0  0  0  0  0  0  0  0  0
    5.9440   -3.7900   24.0090 C   0  0  0  0  0  0  0  0  0  0  0  0
    5.0510   -3.2380   25.0900 C   0  0  0  0  0  0  0  0  0  0  0  0
    4.0030   -2.7820   24.6530 O   0  0  0  0  0  0  0  0  0  0  0  0
    5.3110   -3.2380   26.4800 N   0  0  0  0  0  0  0  0  0  0  0  0
    6.2730   -3.9750   27.0420 C   0  0  0  0  0  0  0  0  0  0  0  0
    5.9060   -4.4160   28.2330 C   0  0  0  0  0  0  0  0  0  0  0  0
    6.3730   -5.6590   28.7130 C   0  0  0  0  0  0  0  0  0  0  0  0
    5.3960   -6.5930   28.9540 C   0  0  0  0  0  0  0  0  0  0  0  0
    4.4300   -5.9360   30.2700 S   0  0  0  0  0  0  0  0  0  0  0  0
    5.1830   -6.2940   31.5390 O   0  0  0  0  0  0  0  0  0  0  0  0
    3.0630   -6.5460   30.2490 O   0  0  0  0  0  0  0  0  0  0  0  0
    4.3370   -4.1480   30.0400 C   0  0  0  0  0  0  0  0  0  0  0  0
    5.5290   -3.5180   29.2440 C   0  0  0  0  0  0  0  0  0  0  0  0
    4.6300   -4.0670   28.3910 C   0  0  0  0  0  0  0  0  0  0  0  0
    4.2170   -3.1190   27.4120 C   0  0  1  0  0  0  0  0  0  0  0  0
    3.8860   -1.7370   27.8660 C   0  0  0  0  0  0  0  0  0  0  0  0
    3.5230   -1.3960   29.1440 O   0  0  0  0  0  0  0  0  0  0  0  0
    3.9740   -0.7700   26.8500 O   0  0  0  0  0  0  0  0  0  0  0  0
    3.0960   -0.9010   25.7510 C   0  0  0  0  0  0  0  0  0  0  0  0
    6.1830   -5.2370   23.9370 C   0  0  0  0  0  0  0  0  0  0  0  0
    6.6190   -5.5360   22.4810 C   0  0  0  0  0  0  0  0  0  0  0  0
  1  2  1  0
  2  3  2  0
  2  4  1  0
  4  5  1  0
  5  6  1  0
  6  7  1  0
  7  8  1  0
  8  9  2  0
  8 10  1  0
 10 11  1  0
 12 11  1  0
 12 13  1  0
 13 14  1  0
 15 14  1  0
 15 16  2  0
 15 17  2  0
 15 18  1  0
 12 19  1  0
 18 19  1  0
 12 20  1  0
 10 21  1  0
 20 21  1  0
 21 22  1  1
 22 23  2  0
 22 24  1  0
 24 25  1  0
  7 26  1  0
  4 27  1  0
 26 27  1  0
M  END
