piperidine-amides-21682-covalent
     RDKit          3D

 23 25  0  0  0  0  0  0  0  0999 V2000
    6.9780   -3.3760   19.4400 C   0  0  0  0  0  0  0  0  0  0  0  0
    6.3400   -4.2540   20.4340 C   0  0  0  0  0  0  0  0  0  0  0  0
    5.3970   -4.9660   20.0020 O   0  0  0  0  0  0  0  0  0  0  0  0
    6.7810   -4.3110   21.7710 N   0  0  0  0  0  0  0  0  0  0  0  0
    6.6740   -5.5340   22.5490 C   0  0  0  0  0  0  0  0  0  0  0  0
    6.1280   -5.1830   23.9070 C   0  0  0  0  0  0  0  0  0  0  0  0
    6.0080   -3.6930   24.0580 C   0  0  0  0  0  0  0  0  0  0  0  0
    5.3300   -3.2190   25.3210 C   0  0  0  0  0  0  0  0  0  0  0  0
    4.5890   -2.2330   25.1770 O   0  0  0  0  0  0  0  0  0  0  0  0
    5.4020   -3.7340   26.6570 N   0  0  0  0  0  0  0  0  0  0  0  0
    5.3250   -2.8030   27.7550 C   0  0  0  0  0  0  0  0  0  0  0  0
    5.9120   -3.4130   29.0250 C   0  0  0  0  0  0  0  0  0  0  0  0
    6.4060   -4.6810   29.0850 C   0  0  0  0  0  0  0  0  0  0  0  0
    6.0970   -5.5370   28.0810 C   0  0  1  0  0  0  0  0  0  0  0  0
    4.9310   -6.2680   28.2760 C   0  0  0  0  0  0  0  0  0  0  0  0
    4.7420   -7.4010   29.0230 C   0  0  0  0  0  0  0  0  0  0  0  0
    3.3960   -7.7760   28.9330 C   0  0  0  0  0  0  0  0  0  0  0  0
    2.8080   -6.8480   28.1200 N   0  0  0  0  0  0  0  0  0  0  0  0
    3.6850   -5.9500   27.7170 N   0  0  0  0  0  0  0  0  0  0  0  0
    3.2770   -4.9000   26.8670 C   0  0  0  0  0  0  0  0  0  0  0  0
    6.2800   -4.7560   26.9720 C   0  0  0  0  0  0  0  0  0  0  0  0
    7.3470   -2.9920   23.7680 C   0  0  0  0  0  0  0  0  0  0  0  0
    7.6500   -3.2460   22.2900 C   0  0  0  0  0  0  0  0  0  0  0  0
  1  2  1  0
  2  3  2  0
  2  4  1  0
  4  5  1  0
  5  6  1  0
  6  7  1  0
  7  8  1  0
  8  9  2  0
  8 10  1  0
 10 11  1  0
 11 12  1  0
 12 13  1  0
 13 14  1  0
 14 15  1  1
 15 16  2  0
 16 17  1  0
 17 18  2  0
 15 19  1  0
 18 19  1  0
 19 20  1  0
 10 21  1  0
 14 21  1  0
  7 22  1  0
  4 23  1  0
 22 23  1  0
M  END
