piperidine-amides-31638-covalent
     RDKit          3D

 27 30  0  0  0  0  0  0  0  0999 V2000
    7.0840   -3.4070   19.3240 C   0  0  0  0  0  0  0  0  0  0  0  0
    6.4430   -4.1990   20.3450 C   0  0  0  0  0  0  0  0  0  0  0  0
    5.4100   -4.8540   19.9990 O   0  0  0  0  0  0  0  0  0  0  0  0
    6.9530   -4.3140   21.6640 N   0  0  0  0  0  0  0  0  0  0  0  0
    7.7600   -3.2170   22.2180 C   0  0  0  0  0  0  0  0  0  0  0  0
    6.6770   -2.6350   23.1870 C   0  0  0  0  0  0  0  0  0  0  0  0
    6.4040   -3.7320   24.1870 C   0  0  0  0  0  0  0  0  0  0  0  0
    5.3790   -3.2250   25.2960 C   0  0  0  0  0  0  0  0  0  0  0  0
    4.2710   -3.1640   24.7940 O   0  0  0  0  0  0  0  0  0  0  0  0
    5.9120   -2.9960   26.4380 N   0  0  0  0  0  0  0  0  0  0  0  0
    6.2170   -2.3700   27.5800 C   0  0  0  0  0  0  0  0  0  0  0  0
    6.0690   -2.7850   28.8520 C   0  0  0  0  0  0  0  0  0  0  0  0
    4.8840   -3.6100   28.7290 N   0  0  0  0  0  0  0  0  0  0  0  0
    4.1560   -3.9740   29.7870 C   0  0  0  0  0  0  0  0  0  0  0  0
    3.2210   -3.2110   30.3880 N   0  0  0  0  0  0  0  0  0  0  0  0
    2.4320   -3.5020   31.4790 C   0  0  0  0  0  0  0  0  0  0  0  0
    2.5540   -4.7370   32.1080 N   0  0  0  0  0  0  0  0  0  0  0  0
    3.5230   -5.7220   31.6070 C   0  0  0  0  0  0  0  0  0  0  0  0
    4.0320   -7.3930   32.0670 S   0  0  0  0  0  0  0  0  0  0  0  0
    5.1390   -7.4870   30.8490 C   0  0  0  0  0  0  0  0  0  0  0  0
    6.1320   -8.0120   30.0280 C   0  0  0  0  0  0  0  0  0  0  0  0
    5.3170   -6.4000   29.9640 C   0  0  0  0  0  0  0  0  0  0  0  0
    4.3380   -5.2710   30.3860 C   0  0  0  0  0  0  0  0  0  0  0  0
    5.2830   -4.7150   27.8820 C   0  0  0  0  0  0  0  0  0  0  0  0
    6.2360   -4.3020   27.0080 C   0  0  0  0  0  0  0  0  0  0  0  0
    6.0060   -5.1040   23.6120 C   0  0  0  0  0  0  0  0  0  0  0  0
    6.7240   -5.4640   22.4880 C   0  0  0  0  0  0  0  0  0  0  0  0
  1  2  1  0
  2  3  2  0
  2  4  1  0
  4  5  1  0
  5  6  1  0
  6  7  1  0
  7  8  1  0
  8  9  2  0
  8 10  1  0
 10 11  1  0
 11 12  1  0
 12 13  1  0
 13 14  1  0
 14 15  2  0
 15 16  1  0
 16 17  2  0
 17 18  1  0
 18 19  1  0
 19 20  1  0
 20 21  1  0
 20 22  2  0
 14 23  1  0
 18 23  2  0
 22 23  1  0
 13 24  1  0
 10 25  1  0
 24 25  1  0
  7 26  1  0
  4 27  1  0
 26 27  1  0
M  END
