piperidine-amides-3728-covalent
     RDKit          3D

 24 25  0  0  0  0  0  0  0  0999 V2000
    7.1470   -3.2840   19.1980 C   0  0  0  0  0  0  0  0  0  0  0  0
    6.3990   -4.0490   20.2030 C   0  0  0  0  0  0  0  0  0  0  0  0
    5.2720   -4.4790   19.8620 O   0  0  0  0  0  0  0  0  0  0  0  0
    6.9640   -4.3620   21.4620 N   0  0  0  0  0  0  0  0  0  0  0  0
    6.4880   -5.4960   22.1360 C   0  0  0  0  0  0  0  0  0  0  0  0
    5.8160   -5.0990   23.3460 C   0  0  0  0  0  0  0  0  0  0  0  0
    5.7100   -3.6300   23.5080 C   0  0  0  0  0  0  0  0  0  0  0  0
    5.3210   -3.3450   24.9080 C   0  0  0  0  0  0  0  0  0  0  0  0
    4.3710   -2.5800   25.1600 O   0  0  0  0  0  0  0  0  0  0  0  0
    6.0200   -3.9490   25.9460 N   0  0  0  0  0  0  0  0  0  0  0  0
    5.5070   -4.3850   27.1670 C   0  0  0  0  0  0  0  0  0  0  0  0
    6.1340   -3.9550   28.3740 C   0  0  1  0  0  0  0  0  0  0  0  0
    7.4310   -4.6420   28.4460 C   0  0  0  0  0  0  0  0  0  0  0  0
    7.9810   -3.4480   28.2120 C   0  0  1  0  0  0  0  0  0  0  0  0
    8.5620   -3.3530   26.9600 O   0  0  0  0  0  0  0  0  0  0  0  0
    9.1380   -4.5270   26.5070 C   0  0  0  0  0  0  0  0  0  0  0  0
    8.1470   -5.2430   25.6620 C   0  0  0  0  0  0  0  0  0  0  0  0
    9.5400   -5.5280   27.6010 C   0  0  0  0  0  0  0  0  0  0  0  0
   10.3310   -4.2310   25.6650 C   0  0  0  0  0  0  0  0  0  0  0  0
    6.8590   -2.5770   28.2350 C   0  0  0  0  0  0  0  0  0  0  0  0
    6.4950   -1.8260   26.9440 C   0  0  0  0  0  0  0  0  0  0  0  0
    6.6880   -1.6980   29.4460 C   0  0  0  0  0  0  0  0  0  0  0  0
    6.9070   -2.7840   23.1500 C   0  0  0  0  0  0  0  0  0  0  0  0
    7.7150   -3.3930   22.2070 C   0  0  0  0  0  0  0  0  0  0  0  0
  1  2  1  0
  2  3  2  0
  2  4  1  0
  4  5  1  0
  5  6  1  0
  6  7  1  0
  7  8  1  0
  8  9  2  0
  8 10  1  0
 10 11  1  0
 12 11  1  6
 12 13  1  0
 13 14  1  0
 14 15  1  6
 16 15  1  0
 16 17  1  0
 16 18  1  0
 16 19  1  0
 12 20  1  0
 14 20  1  0
 20 21  1  0
 20 22  1  0
  7 23  1  0
  4 24  1  0
 23 24  1  0
M  END
