piperidine-amides-8931-covalent
     RDKit          3D

 22 23  0  0  0  0  0  0  0  0999 V2000
    7.0740   -3.2890   19.2390 C   0  0  0  0  0  0  0  0  0  0  0  0
    6.3510   -4.0470   20.2680 C   0  0  0  0  0  0  0  0  0  0  0  0
    5.3380   -4.6870   19.9360 O   0  0  0  0  0  0  0  0  0  0  0  0
    6.7990   -4.1050   21.6000 N   0  0  0  0  0  0  0  0  0  0  0  0
    7.7340   -3.1280   22.1270 C   0  0  0  0  0  0  0  0  0  0  0  0
    7.4400   -3.0150   23.5920 C   0  0  0  0  0  0  0  0  0  0  0  0
    6.0960   -3.5840   23.9100 C   0  0  0  0  0  0  0  0  0  0  0  0
    5.6340   -3.2900   25.2890 C   0  0  0  0  0  0  0  0  0  0  0  0
    4.4040   -3.1160   25.5210 O   0  0  0  0  0  0  0  0  0  0  0  0
    6.5190   -3.1740   26.3810 N   0  0  0  0  0  0  0  0  0  0  0  0
    6.1500   -3.6030   27.7550 C   0  0  0  0  0  0  0  0  0  0  0  0
    5.9420   -5.0730   27.8050 C   0  0  0  0  0  0  0  0  0  0  0  0
    4.9360   -5.3540   28.6610 N   0  0  0  0  0  0  0  0  0  0  0  0
    3.5780   -5.0300   28.4280 C   0  0  0  0  0  0  0  0  0  0  0  0
    2.9550   -4.6480   29.7410 C   0  0  0  0  0  0  0  0  0  0  0  0
    2.8000   -5.8680   30.3390 O   0  0  0  0  0  0  0  0  0  0  0  0
    4.0240   -6.2910   30.7800 C   0  0  0  0  0  0  0  0  0  0  0  0
    4.9760   -6.4290   29.6420 C   0  0  0  0  0  0  0  0  0  0  0  0
    6.1040   -7.1990   29.6820 C   0  0  0  0  0  0  0  0  0  0  0  0
    4.8380   -7.7930   29.0020 C   0  0  0  0  0  0  0  0  0  0  0  0
    6.0180   -5.0980   23.6690 C   0  0  0  0  0  0  0  0  0  0  0  0
    6.6500   -5.3710   22.2940 C   0  0  0  0  0  0  0  0  0  0  0  0
  1  2  1  0
  2  3  2  0
  2  4  1  0
  4  5  1  0
  5  6  1  0
  6  7  1  0
  7  8  1  0
  8  9  2  0
  8 10  1  0
 10 11  1  0
 11 12  1  0
 12 13  1  0
 13 14  1  0
 14 15  1  0
 15 16  1  0
 16 17  1  0
 13 18  1  0
 17 18  1  0
 18 19  1  0
 18 20  1  0
  7 21  1  0
  4 22  1  0
 21 22  1  0
M  END
