piperidine-amides-4847-covalent
     RDKit          3D

 23 24  0  0  0  0  0  0  0  0999 V2000
    7.1280   -3.2640   19.1920 C   0  0  0  0  0  0  0  0  0  0  0  0
    6.3900   -4.0310   20.2200 C   0  0  0  0  0  0  0  0  0  0  0  0
    5.2950   -4.5220   19.8720 O   0  0  0  0  0  0  0  0  0  0  0  0
    6.9340   -4.2440   21.4930 N   0  0  0  0  0  0  0  0  0  0  0  0
    7.6080   -3.1870   22.1690 C   0  0  0  0  0  0  0  0  0  0  0  0
    6.9650   -2.7360   23.4080 C   0  0  0  0  0  0  0  0  0  0  0  0
    6.1810   -3.7500   24.1620 C   0  0  0  0  0  0  0  0  0  0  0  0
    5.0620   -3.0820   24.8910 C   0  0  0  0  0  0  0  0  0  0  0  0
    3.9040   -3.3320   24.5220 O   0  0  0  0  0  0  0  0  0  0  0  0
    5.2500   -2.1950   25.9730 N   0  0  0  0  0  0  0  0  0  0  0  0
    4.4040   -2.3050   27.1910 C   0  0  0  0  0  0  0  0  0  0  0  0
    4.4940   -3.6700   27.7400 C   0  0  0  0  0  0  0  0  0  0  0  0
    5.8090   -4.0820   27.5670 C   0  0  0  0  0  0  0  0  0  0  0  0
    6.5440   -3.4410   26.6240 C   0  0  0  0  0  0  0  0  0  0  0  0
    7.8150   -3.6690   26.3270 C   0  0  0  0  0  0  0  0  0  0  0  0
    8.3760   -4.6150   27.0540 C   0  0  0  0  0  0  0  0  0  0  0  0
    9.6590   -4.8880   26.8970 N   0  0  0  0  0  0  0  0  0  0  0  0
    9.9070   -5.1160   28.2160 C   0  0  0  0  0  0  0  0  0  0  0  0
    9.7280   -6.0200   26.0120 C   0  0  0  0  0  0  0  0  0  0  0  0
    7.6480   -5.3320   28.0400 N   0  0  0  0  0  0  0  0  0  0  0  0
    6.3900   -5.0610   28.2830 C   0  0  0  0  0  0  0  0  0  0  0  0
    5.6430   -4.9090   23.3960 C   0  0  0  0  0  0  0  0  0  0  0  0
    6.5730   -5.3810   22.3110 C   0  0  0  0  0  0  0  0  0  0  0  0
  1  2  1  0
  2  3  2  0
  2  4  1  0
  4  5  1  0
  5  6  1  0
  6  7  1  0
  7  8  1  0
  8  9  2  0
  8 10  1  0
 10 11  1  0
 11 12  1  0
 12 13  1  0
 13 14  2  0
 14 15  1  0
 15 16  2  0
 16 17  1  0
 17 18  1  0
 17 19  1  0
 16 20  1  0
 13 21  1  0
 20 21  2  0
  7 22  1  0
  4 23  1  0
 22 23  1  0
M  END
