piperidine-amides-35339-covalent
     RDKit          3D

 34 37  0  0  0  0  0  0  0  0999 V2000
    7.2820   -3.9360   19.5750 C   0  0  0  0  0  0  0  0  0  0  0  0
    6.0630   -3.7570   20.2370 C   0  0  0  0  0  0  0  0  0  0  0  0
    5.0600   -3.8990   19.5530 O   0  0  0  0  0  0  0  0  0  0  0  0
    6.1620   -3.5650   21.5710 N   0  0  0  0  0  0  0  0  0  0  0  0
    5.6710   -4.5980   22.4030 C   0  0  0  0  0  0  0  0  0  0  0  0
    4.8580   -3.8740   23.4150 C   0  0  0  0  0  0  0  0  0  0  0  0
    5.7020   -2.7520   24.0380 C   0  0  0  0  0  0  0  0  0  0  0  0
    5.4560   -2.8910   25.4970 C   0  0  0  0  0  0  0  0  0  0  0  0
    4.3190   -3.2550   25.8270 O   0  0  0  0  0  0  0  0  0  0  0  0
    6.3850   -2.6140   26.5360 N   0  0  0  0  0  0  0  0  0  0  0  0
    5.7960   -1.7440   27.5150 C   0  0  0  0  0  0  0  0  0  0  0  0
    5.0340   -2.6680   28.4190 C   0  0  0  0  0  0  0  0  0  0  0  0
    5.7320   -3.5840   29.0680 C   0  0  0  0  0  0  0  0  0  0  0  0
    6.6480   -4.1730   28.3430 C   0  0  0  0  0  0  0  0  0  0  0  0
    7.2450   -5.1890   28.7770 C   0  0  0  0  0  0  0  0  0  0  0  0
    8.3030   -5.9380   28.0650 C   0  0  0  0  0  0  0  0  0  0  0  0
    8.8820   -5.6650   26.6760 C   0  0  0  0  0  0  0  0  0  0  0  0
    9.0400   -4.9790   25.3940 C   0  0  0  0  0  0  0  0  0  0  0  0
    8.3120   -3.7310   25.7410 C   0  0  0  0  0  0  0  0  0  0  0  0
    6.8440   -3.7920   25.3490 C   0  0  0  0  0  0  0  0  0  0  0  0
    6.3090   -5.0110   24.8900 N   0  0  0  0  0  0  0  0  0  0  0  0
    4.9900   -5.4390   25.2280 C   0  0  0  0  0  0  0  0  0  0  0  0
    4.2910   -6.1770   24.2690 O   0  0  0  0  0  0  0  0  0  0  0  0
    4.3620   -5.2290   26.3760 O   0  0  0  0  0  0  0  0  0  0  0  0
    3.8360   -6.3020   27.1270 C   0  0  0  0  0  0  0  0  0  0  0  0
    4.7540   -6.8650   28.1880 C   0  0  0  0  0  0  0  0  0  0  0  0
    2.5210   -5.9130   27.6960 C   0  0  0  0  0  0  0  0  0  0  0  0
    3.5140   -7.4200   26.1630 C   0  0  0  0  0  0  0  0  0  0  0  0
    7.1140   -6.0720   24.5480 C   0  0  0  0  0  0  0  0  0  0  0  0
    8.4760   -5.5580   24.2920 C   0  0  0  0  0  0  0  0  0  0  0  0
    8.0510   -4.5780   26.5300 N   0  0  0  0  0  0  0  0  0  0  0  0
    7.0220   -3.8010   27.1700 C   0  0  0  0  0  0  0  0  0  0  0  0
    7.1050   -2.6520   23.5880 C   0  0  0  0  0  0  0  0  0  0  0  0
    7.2570   -2.8430   22.1280 C   0  0  0  0  0  0  0  0  0  0  0  0
  1  2  1  0
  2  3  2  0
  2  4  1  0
  4  5  1  0
  5  6  1  0
  6  7  1  0
  7  8  1  0
  8  9  2  0
  8 10  1  0
 10 11  1  0
 11 12  1  0
 12 13  1  0
 13 14  1  0
 14 15  2  0
 15 16  1  0
 16 17  2  0
 17 18  1  0
 18 19  1  0
 19 20  1  0
 20 21  1  0
 21 22  1  0
 22 23  2  0
 22 24  1  0
 25 24  1  0
 25 26  1  0
 25 27  1  0
 25 28  1  0
 21 29  1  0
 18 30  1  0
 29 30  1  0
 17 31  1  0
 10 32  1  0
 14 32  1  0
 31 32  2  0
  7 33  1  0
  4 34  1  0
 33 34  1  0
M  END
