piperidine-amides-33760-covalent
     RDKit          3D

 24 26  0  0  0  0  0  0  0  0999 V2000
    7.1090   -3.3840   19.3500 C   0  0  0  0  0  0  0  0  0  0  0  0
    6.4340   -4.2050   20.3660 C   0  0  0  0  0  0  0  0  0  0  0  0
    5.4180   -4.8450   19.9920 O   0  0  0  0  0  0  0  0  0  0  0  0
    6.9600   -4.2930   21.6860 N   0  0  0  0  0  0  0  0  0  0  0  0
    6.5170   -5.3470   22.5340 C   0  0  0  0  0  0  0  0  0  0  0  0
    6.1260   -4.8880   23.8740 C   0  0  0  0  0  0  0  0  0  0  0  0
    6.4360   -3.4580   24.1280 C   0  0  0  0  0  0  0  0  0  0  0  0
    6.0660   -2.9220   25.4960 C   0  0  0  0  0  0  0  0  0  0  0  0
    5.8030   -1.7190   25.6030 O   0  0  0  0  0  0  0  0  0  0  0  0
    5.9310   -3.7150   26.6420 N   0  0  0  0  0  0  0  0  0  0  0  0
    4.9170   -4.6150   26.7100 C   0  0  0  0  0  0  0  0  0  0  0  0
    5.2530   -5.4260   27.7830 C   0  0  0  0  0  0  0  0  0  0  0  0
    4.6450   -7.1680   28.0420 S   0  0  0  0  0  0  0  0  0  0  0  0
    5.4970   -7.4340   29.5270 C   0  0  0  0  0  0  0  0  0  0  0  0
    6.2730   -6.5310   30.1220 C   0  0  0  0  0  0  0  0  0  0  0  0
    7.1320   -5.7080   29.4350 O   0  0  0  0  0  0  0  0  0  0  0  0
    6.1460   -6.5200   31.3610 O   0  0  0  0  0  0  0  0  0  0  0  0
    5.5520   -7.6060   32.0520 C   0  0  0  0  0  0  0  0  0  0  0  0
    5.5070   -6.2360   28.7080 C   0  0  0  0  0  0  0  0  0  0  0  0
    4.4240   -6.3400   27.1370 Br  0  0  0  0  0  0  0  0  0  0  0  0
    6.1770   -4.9070   28.8070 C   0  0  0  0  0  0  0  0  0  0  0  0
    6.2940   -3.5260   28.0640 C   0  0  0  0  0  0  0  0  0  0  0  0
    7.8360   -3.1600   23.6880 C   0  0  0  0  0  0  0  0  0  0  0  0
    7.7810   -3.1970   22.1550 C   0  0  0  0  0  0  0  0  0  0  0  0
  1  2  1  0
  2  3  2  0
  2  4  1  0
  4  5  1  0
  5  6  1  0
  6  7  1  0
  7  8  1  0
  8  9  2  0
  8 10  1  0
 10 11  1  0
 11 12  1  0
 12 13  1  0
 13 14  1  0
 14 15  1  0
 15 16  2  0
 15 17  1  0
 17 18  1  0
 14 19  2  0
 19 20  1  0
 12 21  2  0
 19 21  1  0
 10 22  1  0
 21 22  1  0
  7 23  1  0
  4 24  1  0
 23 24  1  0
M  END
