piperidine-amides-14493-covalent
     RDKit          3D

 25 26  0  0  0  0  0  0  0  0999 V2000
    7.1050   -3.2600   19.2230 C   0  0  0  0  0  0  0  0  0  0  0  0
    6.3640   -4.0250   20.2260 C   0  0  0  0  0  0  0  0  0  0  0  0
    5.2920   -4.5570   19.8860 O   0  0  0  0  0  0  0  0  0  0  0  0
    6.8930   -4.1880   21.5260 N   0  0  0  0  0  0  0  0  0  0  0  0
    6.5280   -5.3460   22.2880 C   0  0  0  0  0  0  0  0  0  0  0  0
    5.7480   -4.9050   23.4910 C   0  0  0  0  0  0  0  0  0  0  0  0
    6.5950   -3.8620   24.1780 C   0  0  0  0  0  0  0  0  0  0  0  0
    5.8360   -3.2510   25.3230 C   0  0  0  0  0  0  0  0  0  0  0  0
    4.6750   -2.9230   25.0890 O   0  0  0  0  0  0  0  0  0  0  0  0
    6.4890   -3.0910   26.5430 N   0  0  0  0  0  0  0  0  0  0  0  0
    6.1770   -3.8480   27.7250 C   0  0  0  0  0  0  0  0  0  0  0  0
    5.6450   -5.1380   27.5280 C   0  0  0  0  0  0  0  0  0  0  0  0
    4.4450   -5.4480   28.1610 C   0  0  1  0  0  0  0  0  0  0  0  0
    3.6890   -6.5090   27.5500 N   0  0  0  0  0  0  0  0  0  0  0  0
    2.3340   -6.5290   27.9530 C   0  0  0  0  0  0  0  0  0  0  0  0
    1.3080   -6.2910   26.8820 C   0  0  0  0  0  0  0  0  0  0  0  0
    1.5840   -7.0600   25.7790 O   0  0  0  0  0  0  0  0  0  0  0  0
    2.9030   -7.5070   25.8870 C   0  0  0  0  0  0  0  0  0  0  0  0
    3.9510   -6.4840   26.1410 C   0  0  0  0  0  0  0  0  0  0  0  0
    4.4300   -5.4360   29.5490 C   0  0  0  0  0  0  0  0  0  0  0  0
    3.4500   -6.2220   30.1190 F   0  0  0  0  0  0  0  0  0  0  0  0
    5.5740   -5.9090   30.1470 F   0  0  0  0  0  0  0  0  0  0  0  0
    4.2980   -4.1590   30.0270 F   0  0  0  0  0  0  0  0  0  0  0  0
    7.0770   -2.7540   23.3470 C   0  0  0  0  0  0  0  0  0  0  0  0
    7.6730   -3.1600   22.1800 C   0  0  0  0  0  0  0  0  0  0  0  0
  1  2  1  0
  2  3  2  0
  2  4  1  0
  4  5  1  0
  5  6  1  0
  6  7  1  0
  7  8  1  0
  8  9  2  0
  8 10  1  0
 10 11  1  0
 11 12  1  0
 13 12  1  1
 13 14  1  0
 14 15  1  0
 15 16  1  0
 16 17  1  0
 17 18  1  0
 14 19  1  0
 18 19  1  0
 13 20  1  0
 20 21  1  0
 20 22  1  0
 20 23  1  0
  7 24  1  0
  4 25  1  0
 24 25  1  0
M  END
