piperidine-amides-31277-covalent
     RDKit          3D

 27 29  0  0  0  0  0  0  0  0999 V2000
    7.1220   -3.3930   19.4840 C   0  0  0  0  0  0  0  0  0  0  0  0
    6.4610   -4.2830   20.4030 C   0  0  0  0  0  0  0  0  0  0  0  0
    5.4260   -4.9050   19.9990 O   0  0  0  0  0  0  0  0  0  0  0  0
    6.9640   -4.5130   21.7030 N   0  0  0  0  0  0  0  0  0  0  0  0
    7.8130   -3.4610   22.2960 C   0  0  0  0  0  0  0  0  0  0  0  0
    6.7280   -2.7700   23.1860 C   0  0  0  0  0  0  0  0  0  0  0  0
    6.3140   -3.8220   24.1840 C   0  0  0  0  0  0  0  0  0  0  0  0
    5.5010   -3.1220   25.3680 C   0  0  0  0  0  0  0  0  0  0  0  0
    5.0670   -2.0570   24.9730 O   0  0  0  0  0  0  0  0  0  0  0  0
    5.4740   -3.8310   26.4310 N   0  0  0  0  0  0  0  0  0  0  0  0
    5.0560   -4.7750   27.3220 C   0  0  0  0  0  0  0  0  0  0  0  0
    4.8060   -4.9230   28.6550 C   0  0  0  0  0  0  0  0  0  0  0  0
    5.8420   -4.3700   29.3140 O   0  0  0  0  0  0  0  0  0  0  0  0
    6.8480   -4.2470   28.4250 C   0  0  0  0  0  0  0  0  0  0  0  0
    6.3750   -3.2110   27.4470 C   0  0  2  0  0  0  0  0  0  0  0  0
    5.5840   -2.4210   28.5130 C   0  0  0  0  0  0  0  0  0  0  0  0
    6.6320   -1.7500   29.1580 C   0  0  0  0  0  0  0  0  0  0  0  0
    6.6480   -0.8200   30.2620 C   0  0  0  0  0  0  0  0  0  0  0  0
    5.0940   -0.7850   30.5300 C   0  0  0  0  0  0  0  0  0  0  0  0
    4.5770    0.1290   31.6870 C   0  0  0  0  0  0  0  0  0  0  0  0
    5.6210    0.8630   32.2590 F   0  0  0  0  0  0  0  0  0  0  0  0
    3.6600    1.0530   31.3250 F   0  0  0  0  0  0  0  0  0  0  0  0
    4.0650   -0.6470   32.7550 F   0  0  0  0  0  0  0  0  0  0  0  0
    3.9970   -1.5150   29.8250 C   0  0  0  0  0  0  0  0  0  0  0  0
    4.2930   -2.3220   28.8180 C   0  0  0  0  0  0  0  0  0  0  0  0
    5.6940   -5.0720   23.5550 C   0  0  0  0  0  0  0  0  0  0  0  0
    6.4860   -5.5790   22.5410 C   0  0  0  0  0  0  0  0  0  0  0  0
  1  2  1  0
  2  3  2  0
  2  4  1  0
  4  5  1  0
  5  6  1  0
  6  7  1  0
  7  8  1  0
  8  9  2  0
  8 10  1  0
 10 11  1  0
 11 12  1  0
 12 13  1  0
 13 14  1  0
 10 15  1  0
 14 15  1  0
 15 16  1  1
 16 17  2  0
 17 18  1  0
 18 19  2  0
 19 20  1  0
 20 21  1  0
 20 22  1  0
 20 23  1  0
 19 24  1  0
 16 25  1  0
 24 25  2  0
  7 26  1  0
  4 27  1  0
 26 27  1  0
M  END
