piperidine-amides-9917-covalent
     RDKit          3D

 27 29  0  0  0  0  0  0  0  0999 V2000
    7.0640   -3.3260   19.2980 C   0  0  0  0  0  0  0  0  0  0  0  0
    6.3840   -4.1490   20.2990 C   0  0  0  0  0  0  0  0  0  0  0  0
    5.3260   -4.7260   19.9420 O   0  0  0  0  0  0  0  0  0  0  0  0
    6.9340   -4.3060   21.5680 N   0  0  0  0  0  0  0  0  0  0  0  0
    7.7150   -3.2560   22.1770 C   0  0  0  0  0  0  0  0  0  0  0  0
    6.9380   -2.7240   23.3400 C   0  0  0  0  0  0  0  0  0  0  0  0
    6.6110   -3.8230   24.3040 C   0  0  0  0  0  0  0  0  0  0  0  0
    5.8120   -3.2960   25.4300 C   0  0  0  0  0  0  0  0  0  0  0  0
    4.5950   -3.0790   25.2300 O   0  0  0  0  0  0  0  0  0  0  0  0
    6.3370   -3.0310   26.7100 N   0  0  0  0  0  0  0  0  0  0  0  0
    6.3010   -1.6890   27.2500 C   0  0  0  0  0  0  0  0  0  0  0  0
    7.0330   -1.5430   28.5690 C   0  0  0  0  0  0  0  0  0  0  0  0
    7.0930   -0.3510   29.2260 C   0  0  0  0  0  0  0  0  0  0  0  0
    6.4630    0.7400   28.6610 C   0  0  0  0  0  0  0  0  0  0  0  0
    6.5510    1.8590   29.3410 O   0  0  0  0  0  0  0  0  0  0  0  0
    7.2270    1.7200   30.4420 C   0  0  0  0  0  0  0  0  0  0  0  0
    5.7180    0.6650   27.3470 C   0  0  0  0  0  0  0  0  0  0  0  0
    5.1260    1.7780   26.8620 N   0  0  0  0  0  0  0  0  0  0  0  0
    3.8810    1.7270   26.3260 C   0  0  0  0  0  0  0  0  0  0  0  0
    2.9450    1.9070   27.5040 C   0  0  0  0  0  0  0  0  0  0  0  0
    3.2230    3.3720   27.8670 C   0  0  0  0  0  0  0  0  0  0  0  0
    4.6470    3.8500   28.0680 C   0  0  0  0  0  0  0  0  0  0  0  0
    5.7060    3.0230   27.3710 C   0  0  0  0  0  0  0  0  0  0  0  0
    7.0070    3.4490   27.2570 O   0  0  0  0  0  0  0  0  0  0  0  0
    5.6740   -0.5630   26.6940 C   0  0  0  0  0  0  0  0  0  0  0  0
    5.8220   -4.9060   23.5780 C   0  0  0  0  0  0  0  0  0  0  0  0
    6.6200   -5.4450   22.3980 C   0  0  0  0  0  0  0  0  0  0  0  0
  1  2  1  0
  2  3  2  0
  2  4  1  0
  4  5  1  0
  5  6  1  0
  6  7  1  0
  7  8  1  0
  8  9  2  0
  8 10  1  0
 10 11  1  0
 11 12  2  0
 12 13  1  0
 13 14  2  0
 14 15  1  0
 15 16  1  0
 14 17  1  0
 17 18  1  0
 18 19  1  0
 19 20  1  0
 20 21  1  0
 21 22  1  0
 18 23  1  0
 22 23  1  0
 23 24  2  0
 11 25  1  0
 17 25  2  0
  7 26  1  0
  4 27  1  0
 26 27  1  0
M  END
