piperidine-amides-29522-covalent
     RDKit          3D

 26 27  0  0  0  0  0  0  0  0999 V2000
    7.0730   -3.3320   19.3380 C   0  0  0  0  0  0  0  0  0  0  0  0
    6.3880   -4.1830   20.3060 C   0  0  0  0  0  0  0  0  0  0  0  0
    5.3740   -4.7960   19.9720 O   0  0  0  0  0  0  0  0  0  0  0  0
    6.9210   -4.3530   21.6300 N   0  0  0  0  0  0  0  0  0  0  0  0
    6.5310   -5.4910   22.4130 C   0  0  0  0  0  0  0  0  0  0  0  0
    5.8610   -5.0330   23.6790 C   0  0  0  0  0  0  0  0  0  0  0  0
    6.6790   -3.9010   24.2950 C   0  0  0  0  0  0  0  0  0  0  0  0
    5.9650   -3.3350   25.4710 C   0  0  0  0  0  0  0  0  0  0  0  0
    4.7320   -3.1340   25.4720 O   0  0  0  0  0  0  0  0  0  0  0  0
    6.7280   -3.0150   26.6250 N   0  0  0  0  0  0  0  0  0  0  0  0
    7.5460   -4.0850   27.1750 C   0  0  0  0  0  0  0  0  0  0  0  0
    7.0810   -1.6210   26.8460 C   0  0  2  0  0  0  0  0  0  0  0  0
    7.7390   -1.3710   28.0460 C   0  0  0  0  0  0  0  0  0  0  0  0
    7.1470   -0.2030   28.6230 N   0  0  0  0  0  0  0  0  0  0  0  0
    8.1160    0.6180   29.2910 C   0  0  0  0  0  0  0  0  0  0  0  0
    9.4330    0.1440   29.2690 O   0  0  0  0  0  0  0  0  0  0  0  0
    7.8870    1.7770   29.9480 O   0  0  0  0  0  0  0  0  0  0  0  0
    8.8260    2.3180   30.8590 C   0  0  0  0  0  0  0  0  0  0  0  0
   10.1060    2.1430   30.1810 C   0  0  0  0  0  0  0  0  0  0  0  0
    8.8730    3.6770   31.0190 C   0  0  0  0  0  0  0  0  0  0  0  0
    8.6610    1.7340   32.0980 C   0  0  0  0  0  0  0  0  0  0  0  0
    6.1860    0.2460   27.7950 C   0  0  0  0  0  0  0  0  0  0  0  0
    5.9850   -0.7570   26.7440 C   0  0  1  0  0  0  0  0  0  0  0  0
    5.7480    0.0050   25.6080 O   0  0  0  0  0  0  0  0  0  0  0  0
    7.0050   -2.7890   23.3080 C   0  0  0  0  0  0  0  0  0  0  0  0
    7.7190   -3.3350   22.2590 C   0  0  0  0  0  0  0  0  0  0  0  0
  1  2  1  0
  2  3  2  0
  2  4  1  0
  4  5  1  0
  5  6  1  0
  6  7  1  0
  7  8  1  0
  8  9  2  0
  8 10  1  0
 10 11  1  0
 12 10  1  1
 12 13  1  0
 13 14  1  0
 14 15  1  0
 15 16  2  0
 15 17  1  0
 18 17  1  0
 18 19  1  0
 18 20  1  0
 18 21  1  0
 14 22  1  0
 12 23  1  0
 22 23  1  0
 23 24  1  6
  7 25  1  0
  4 26  1  0
 25 26  1  0
M  END
