piperidine-amides-10173-covalent
     RDKit          3D

 25 27  0  0  0  0  0  0  0  0999 V2000
    7.1170   -3.2890   19.2190 C   0  0  0  0  0  0  0  0  0  0  0  0
    6.3190   -4.0070   20.2150 C   0  0  0  0  0  0  0  0  0  0  0  0
    5.2160   -4.4730   19.8400 O   0  0  0  0  0  0  0  0  0  0  0  0
    6.8170   -4.1960   21.4960 N   0  0  0  0  0  0  0  0  0  0  0  0
    6.5310   -5.3920   22.2560 C   0  0  0  0  0  0  0  0  0  0  0  0
    5.7320   -5.0140   23.4820 C   0  0  0  0  0  0  0  0  0  0  0  0
    5.9070   -3.5690   23.8690 C   0  0  0  0  0  0  0  0  0  0  0  0
    5.6580   -3.3730   25.3110 C   0  0  0  0  0  0  0  0  0  0  0  0
    4.5080   -3.0370   25.6700 O   0  0  0  0  0  0  0  0  0  0  0  0
    6.6570   -3.5330   26.2870 N   0  0  0  0  0  0  0  0  0  0  0  0
    6.4070   -4.2440   27.5160 C   0  0  0  0  0  0  0  0  0  0  0  0
    6.2690   -5.7510   27.3380 C   0  0  0  0  0  0  0  0  0  0  0  0
    5.2060   -6.4480   27.8600 C   0  0  0  0  0  0  0  0  0  0  0  0
    4.7040   -6.8610   29.0490 C   0  0  0  0  0  0  0  0  0  0  0  0
    5.2960   -6.6260   30.2810 C   0  0  0  0  0  0  0  0  0  0  0  0
    3.5240   -7.5480   28.8720 N   0  0  0  0  0  0  0  0  0  0  0  0
    3.2490   -7.5900   27.5130 C   0  0  0  0  0  0  0  0  0  0  0  0
    2.1630   -8.1750   26.8220 C   0  0  0  0  0  0  0  0  0  0  0  0
    1.1950   -8.8010   27.5070 F   0  0  0  0  0  0  0  0  0  0  0  0
    1.9580   -8.1750   25.3040 C   0  0  0  0  0  0  0  0  0  0  0  0
    3.0590   -7.4580   24.5570 C   0  0  0  0  0  0  0  0  0  0  0  0
    4.2010   -6.8300   25.2520 C   0  0  0  0  0  0  0  0  0  0  0  0
    4.3490   -6.8670   26.7450 C   0  0  0  0  0  0  0  0  0  0  0  0
    7.2590   -3.0850   23.5510 C   0  0  0  0  0  0  0  0  0  0  0  0
    7.5940   -3.1580   22.0970 C   0  0  0  0  0  0  0  0  0  0  0  0
  1  2  1  0
  2  3  2  0
  2  4  1  0
  4  5  1  0
  5  6  1  0
  6  7  1  0
  7  8  1  0
  8  9  2  0
  8 10  1  0
 10 11  1  0
 11 12  1  0
 12 13  1  0
 13 14  2  0
 14 15  1  0
 14 16  1  0
 16 17  1  0
 17 18  1  0
 18 19  1  0
 18 20  2  0
 20 21  1  0
 21 22  2  0
 13 23  1  0
 17 23  2  0
 22 23  1  0
  7 24  1  0
  4 25  1  0
 24 25  1  0
M  END
