piperidine-amides-12036-covalent
     RDKit          3D

 25 27  0  0  0  0  0  0  0  0999 V2000
    7.0900   -3.3740   19.3650 C   0  0  0  0  0  0  0  0  0  0  0  0
    6.3640   -4.2230   20.2960 C   0  0  0  0  0  0  0  0  0  0  0  0
    5.3140   -4.7590   19.9520 O   0  0  0  0  0  0  0  0  0  0  0  0
    6.9080   -4.4950   21.5940 N   0  0  0  0  0  0  0  0  0  0  0  0
    6.4160   -5.6110   22.3430 C   0  0  0  0  0  0  0  0  0  0  0  0
    5.5730   -5.1150   23.4860 C   0  0  0  0  0  0  0  0  0  0  0  0
    6.3650   -4.0730   24.2660 C   0  0  0  0  0  0  0  0  0  0  0  0
    5.5270   -3.5480   25.3970 C   0  0  0  0  0  0  0  0  0  0  0  0
    4.2810   -3.6020   25.3650 O   0  0  0  0  0  0  0  0  0  0  0  0
    6.1370   -2.9560   26.5410 N   0  0  0  0  0  0  0  0  0  0  0  0
    6.4130   -1.5400   26.4500 C   0  0  1  0  0  0  0  0  0  0  0  0
    7.2530   -1.4880   25.1960 C   0  0  0  0  0  0  0  0  0  0  0  0
    6.6320   -0.6450   24.2890 O   0  0  0  0  0  0  0  0  0  0  0  0
    6.9150    0.6670   24.0510 C   0  0  0  0  0  0  0  0  0  0  0  0
    5.2360   -0.7310   26.1310 C   0  0  0  0  0  0  0  0  0  0  0  0
    5.3930    0.4360   26.7490 O   0  0  0  0  0  0  0  0  0  0  0  0
    5.4280    0.3820   28.1370 C   0  0  0  0  0  0  0  0  0  0  0  0
    4.1910    1.3600   28.5890 C   0  0  0  0  0  0  0  0  0  0  0  0
    4.4390    1.1110   29.8870 C   0  0  0  0  0  0  0  0  0  0  0  0
    5.0500    0.6640   28.8860 C   0  0  0  0  0  0  0  0  0  0  0  0
    5.7780    0.0270   29.6870 C   0  0  0  0  0  0  0  0  0  0  0  0
    6.5310   -0.5280   28.7770 C   0  0  0  0  0  0  0  0  0  0  0  0
    7.0320   -0.8500   27.5200 C   0  0  0  0  0  0  0  0  0  0  0  0
    6.7920   -2.9290   23.3800 C   0  0  0  0  0  0  0  0  0  0  0  0
    7.5970   -3.4450   22.2490 C   0  0  0  0  0  0  0  0  0  0  0  0
  1  2  1  0
  2  3  2  0
  2  4  1  0
  4  5  1  0
  5  6  1  0
  6  7  1  0
  7  8  1  0
  8  9  2  0
  8 10  1  0
 11 10  1  0
 11 12  1  6
 12 13  1  0
 13 14  1  0
 11 15  1  0
 15 16  1  0
 16 17  1  0
 17 18  2  0
 18 19  1  0
 19 20  2  0
 20 21  1  0
 17 22  1  0
 21 22  2  0
 11 23  1  0
 22 23  1  0
  7 24  1  0
  4 25  1  0
 24 25  1  0
M  END
