piperidine-amides-21740-covalent
     RDKit          3D

 23 24  0  0  0  0  0  0  0  0999 V2000
    7.0670   -3.2900   19.2790 C   0  0  0  0  0  0  0  0  0  0  0  0
    6.3610   -4.0600   20.3070 C   0  0  0  0  0  0  0  0  0  0  0  0
    5.3210   -4.6620   19.9280 O   0  0  0  0  0  0  0  0  0  0  0  0
    6.8590   -4.1430   21.6160 N   0  0  0  0  0  0  0  0  0  0  0  0
    7.7110   -3.1240   22.2040 C   0  0  0  0  0  0  0  0  0  0  0  0
    7.4400   -3.0580   23.6840 C   0  0  0  0  0  0  0  0  0  0  0  0
    6.0870   -3.6390   23.9980 C   0  0  0  0  0  0  0  0  0  0  0  0
    5.6560   -3.4370   25.4090 C   0  0  0  0  0  0  0  0  0  0  0  0
    4.4780   -3.7440   25.6860 O   0  0  0  0  0  0  0  0  0  0  0  0
    6.4430   -2.9300   26.4640 N   0  0  0  0  0  0  0  0  0  0  0  0
    6.3700   -3.5850   27.7550 C   0  0  0  0  0  0  0  0  0  0  0  0
    6.8550   -1.5450   26.3820 C   0  0  0  0  0  0  0  0  0  0  0  0
    5.8280   -0.7530   25.9160 C   0  0  0  0  0  0  0  0  0  0  0  0
    5.5550   -0.4450   24.6060 C   0  0  0  0  0  0  0  0  0  0  0  0
    4.5000    0.3530   24.3620 N   0  0  0  0  0  0  0  0  0  0  0  0
    3.7150    0.8530   25.3200 C   0  0  0  0  0  0  0  0  0  0  0  0
    2.6440    1.6790   24.8700 N   0  0  0  0  0  0  0  0  0  0  0  0
    3.1130    2.9310   24.3130 C   0  0  0  0  0  0  0  0  0  0  0  0
    1.8190    1.0110   23.9000 C   0  0  0  0  0  0  0  0  0  0  0  0
    3.9710    0.5590   26.6300 N   0  0  0  0  0  0  0  0  0  0  0  0
    5.0180   -0.2360   26.9040 C   0  0  0  0  0  0  0  0  0  0  0  0
    6.0550   -5.1000   23.7030 C   0  0  0  0  0  0  0  0  0  0  0  0
    6.5750   -5.3950   22.3140 C   0  0  0  0  0  0  0  0  0  0  0  0
  1  2  1  0
  2  3  2  0
  2  4  1  0
  4  5  1  0
  5  6  1  0
  6  7  1  0
  7  8  1  0
  8  9  2  0
  8 10  1  0
 10 11  1  0
 10 12  1  0
 12 13  1  0
 13 14  2  0
 14 15  1  0
 15 16  2  0
 16 17  1  0
 17 18  1  0
 17 19  1  0
 16 20  1  0
 13 21  1  0
 20 21  2  0
  7 22  1  0
  4 23  1  0
 22 23  1  0
M  END
