piperidine-amides-10693-covalent
     RDKit          3D

 23 24  0  0  0  0  0  0  0  0999 V2000
    7.0520   -3.2800   19.2460 C   0  0  0  0  0  0  0  0  0  0  0  0
    6.3330   -4.0360   20.2840 C   0  0  0  0  0  0  0  0  0  0  0  0
    5.2920   -4.6370   19.9100 O   0  0  0  0  0  0  0  0  0  0  0  0
    6.8060   -4.1110   21.6040 N   0  0  0  0  0  0  0  0  0  0  0  0
    7.7260   -3.1350   22.1470 C   0  0  0  0  0  0  0  0  0  0  0  0
    7.4360   -2.9870   23.6110 C   0  0  0  0  0  0  0  0  0  0  0  0
    6.0930   -3.5760   23.9360 C   0  0  0  0  0  0  0  0  0  0  0  0
    5.6570   -3.2250   25.3080 C   0  0  0  0  0  0  0  0  0  0  0  0
    4.4330   -3.0740   25.5000 O   0  0  0  0  0  0  0  0  0  0  0  0
    6.5310   -3.0480   26.3990 N   0  0  0  0  0  0  0  0  0  0  0  0
    6.2550   -3.6280   27.6940 C   0  0  0  0  0  0  0  0  0  0  0  0
    6.1080   -5.1500   27.6740 C   0  0  0  0  0  0  0  0  0  0  0  0
    4.9760   -5.6600   27.8740 O   0  0  0  0  0  0  0  0  0  0  0  0
    4.7950   -6.1720   29.1380 C   0  0  0  0  0  0  0  0  0  0  0  0
    5.8160   -6.9900   29.6880 C   0  0  0  0  0  0  0  0  0  0  0  0
    5.7210   -7.5630   30.9720 C   0  0  0  0  0  0  0  0  0  0  0  0
    4.5860   -7.2880   31.6740 C   0  0  0  0  0  0  0  0  0  0  0  0
    3.8480   -7.4470   32.8300 C   0  0  0  0  0  0  0  0  0  0  0  0
    2.9650   -8.4410   32.6680 N   0  0  0  0  0  0  0  0  0  0  0  0
    3.4440   -6.4440   31.2090 C   0  0  0  0  0  0  0  0  0  0  0  0
    3.6210   -5.8690   29.8230 C   0  0  0  0  0  0  0  0  0  0  0  0
    6.0710   -5.0960   23.7000 C   0  0  0  0  0  0  0  0  0  0  0  0
    6.6710   -5.3760   22.3230 C   0  0  0  0  0  0  0  0  0  0  0  0
  1  2  1  0
  2  3  2  0
  2  4  1  0
  4  5  1  0
  5  6  1  0
  6  7  1  0
  7  8  1  0
  8  9  2  0
  8 10  1  0
 10 11  1  0
 11 12  1  0
 12 13  1  0
 13 14  1  0
 14 15  2  0
 15 16  1  0
 16 17  2  0
 17 18  1  0
 18 19  3  0
 17 20  1  0
 14 21  1  0
 20 21  2  0
  7 22  1  0
  4 23  1  0
 22 23  1  0
M  END
