piperidine-amides-613-covalent
     RDKit          3D

 26 28  0  0  0  0  0  0  0  0999 V2000
    7.0660   -3.3470   19.2840 C   0  0  0  0  0  0  0  0  0  0  0  0
    6.3840   -4.0850   20.3190 C   0  0  0  0  0  0  0  0  0  0  0  0
    5.3650   -4.7600   19.9700 O   0  0  0  0  0  0  0  0  0  0  0  0
    6.8170   -4.1380   21.6640 N   0  0  0  0  0  0  0  0  0  0  0  0
    7.5860   -2.9820   22.2020 C   0  0  0  0  0  0  0  0  0  0  0  0
    7.6040   -3.2710   23.7620 C   0  0  0  0  0  0  0  0  0  0  0  0
    6.2420   -3.8270   24.0950 C   0  0  0  0  0  0  0  0  0  0  0  0
    5.8070   -3.7370   25.6210 C   0  0  0  0  0  0  0  0  0  0  0  0
    5.2590   -4.7710   25.9350 O   0  0  0  0  0  0  0  0  0  0  0  0
    6.0910   -2.6250   26.1570 N   0  0  0  0  0  0  0  0  0  0  0  0
    6.1830   -1.4510   26.8230 C   0  0  0  0  0  0  0  0  0  0  0  0
    5.8320   -0.1190   26.6600 C   0  0  0  0  0  0  0  0  0  0  0  0
    6.0260    0.9670   27.5440 C   0  0  0  0  0  0  0  0  0  0  0  0
    6.6570    0.9250   28.8590 C   0  0  0  0  0  0  0  0  0  0  0  0
    6.7790    2.0840   29.6280 O   0  0  0  0  0  0  0  0  0  0  0  0
    5.9150    1.9620   30.7020 C   0  0  0  0  0  0  0  0  0  0  0  0
    4.6240    1.6800   30.1960 C   0  0  0  0  0  0  0  0  0  0  0  0
    3.4140    1.4730   30.9110 C   0  0  0  0  0  0  0  0  0  0  0  0
    4.3190    1.7100   32.1140 C   0  0  0  0  0  0  0  0  0  0  0  0
    3.2760    1.5570   33.2670 C   0  0  0  0  0  0  0  0  0  0  0  0
    5.2940    1.9320   32.6800 N   0  0  0  0  0  0  0  0  0  0  0  0
    6.3610    2.1110   31.9560 N   0  0  0  0  0  0  0  0  0  0  0  0
    7.0490   -0.5370   29.0400 C   0  0  0  0  0  0  0  0  0  0  0  0
    6.8620   -1.5870   28.1900 C   0  0  0  0  0  0  0  0  0  0  0  0
    5.9790   -5.2070   23.5140 C   0  0  0  0  0  0  0  0  0  0  0  0
    6.7520   -5.3690   22.4010 C   0  0  0  0  0  0  0  0  0  0  0  0
  1  2  1  0
  2  3  2  0
  2  4  1  0
  4  5  1  0
  5  6  1  0
  6  7  1  0
  7  8  1  0
  8  9  2  0
  8 10  1  0
 10 11  1  0
 11 12  2  0
 12 13  1  0
 13 14  2  0
 14 15  1  0
 15 16  1  0
 16 17  2  0
 17 18  1  0
 18 19  2  0
 19 20  1  0
 19 21  1  0
 16 22  1  0
 21 22  2  0
 14 23  1  0
 11 24  1  0
 23 24  2  0
  7 25  1  0
  4 26  1  0
 25 26  1  0
M  END
