piperidine-amides-21632-covalent
     RDKit          3D

 23 25  0  0  0  0  0  0  0  0999 V2000
    6.9860   -3.3690   19.3740 C   0  0  0  0  0  0  0  0  0  0  0  0
    6.3250   -4.2380   20.3580 C   0  0  0  0  0  0  0  0  0  0  0  0
    5.3180   -4.8720   19.9680 O   0  0  0  0  0  0  0  0  0  0  0  0
    6.8240   -4.3700   21.6510 N   0  0  0  0  0  0  0  0  0  0  0  0
    6.6960   -5.6030   22.4020 C   0  0  0  0  0  0  0  0  0  0  0  0
    5.9440   -5.3000   23.6680 C   0  0  0  0  0  0  0  0  0  0  0  0
    5.8790   -3.8230   23.9020 C   0  0  0  0  0  0  0  0  0  0  0  0
    5.2940   -3.4800   25.2250 C   0  0  0  0  0  0  0  0  0  0  0  0
    4.4960   -2.5240   25.2670 O   0  0  0  0  0  0  0  0  0  0  0  0
    5.5610   -4.1460   26.4380 N   0  0  0  0  0  0  0  0  0  0  0  0
    4.7840   -3.8470   27.6130 C   0  0  0  0  0  0  0  0  0  0  0  0
    5.4180   -4.4420   28.8780 C   0  0  0  0  0  0  0  0  0  0  0  0
    6.2890   -5.5180   28.9240 C   0  0  0  0  0  0  0  0  0  0  0  0
    5.8760   -6.8150   29.1840 C   0  0  0  0  0  0  0  0  0  0  0  0
    5.0090   -7.0270   30.2430 C   0  0  0  0  0  0  0  0  0  0  0  0
    3.7600   -7.5780   30.2370 C   0  0  0  0  0  0  0  0  0  0  0  0
    3.2920   -7.5840   31.5450 C   0  0  0  0  0  0  0  0  0  0  0  0
    4.3010   -7.0280   32.2780 N   0  0  0  0  0  0  0  0  0  0  0  0
    5.3640   -6.6720   31.5570 N   0  0  0  0  0  0  0  0  0  0  0  0
    7.1140   -5.4590   27.8330 C   0  0  0  0  0  0  0  0  0  0  0  0
    6.8660   -4.3550   26.8200 C   0  0  0  0  0  0  0  0  0  0  0  0
    7.2650   -3.2170   23.7210 C   0  0  0  0  0  0  0  0  0  0  0  0
    7.5710   -3.2620   22.2380 C   0  0  0  0  0  0  0  0  0  0  0  0
  1  2  1  0
  2  3  2  0
  2  4  1  0
  4  5  1  0
  5  6  1  0
  6  7  1  0
  7  8  1  0
  8  9  2  0
  8 10  1  0
 10 11  1  0
 11 12  1  0
 12 13  1  0
 13 14  1  0
 14 15  1  0
 15 16  2  0
 16 17  1  0
 17 18  2  0
 15 19  1  0
 18 19  1  0
 13 20  1  0
 10 21  1  0
 20 21  1  0
  7 22  1  0
  4 23  1  0
 22 23  1  0
M  END
