piperidine-amides-21568-covalent
     RDKit          3D

 23 24  0  0  0  0  0  0  0  0999 V2000
    7.0760   -3.3040   19.2890 C   0  0  0  0  0  0  0  0  0  0  0  0
    6.3350   -4.0560   20.3080 C   0  0  0  0  0  0  0  0  0  0  0  0
    5.2850   -4.6240   19.9140 O   0  0  0  0  0  0  0  0  0  0  0  0
    6.8130   -4.1620   21.6250 N   0  0  0  0  0  0  0  0  0  0  0  0
    6.6680   -5.4120   22.3390 C   0  0  0  0  0  0  0  0  0  0  0  0
    6.0980   -5.0900   23.6900 C   0  0  0  0  0  0  0  0  0  0  0  0
    6.0310   -3.6050   23.8750 C   0  0  0  0  0  0  0  0  0  0  0  0
    5.5750   -3.2540   25.2490 C   0  0  0  0  0  0  0  0  0  0  0  0
    4.3430   -3.1560   25.4210 O   0  0  0  0  0  0  0  0  0  0  0  0
    6.3990   -3.0190   26.3700 N   0  0  0  0  0  0  0  0  0  0  0  0
    6.8450   -1.6630   26.5830 C   0  0  0  0  0  0  0  0  0  0  0  0
    6.1850   -3.8950   27.5090 C   0  0  0  0  0  0  0  0  0  0  0  0
    5.7620   -5.1270   27.0640 C   0  0  0  0  0  0  0  0  0  0  0  0
    5.8150   -6.1930   27.9870 O   0  0  0  0  0  0  0  0  0  0  0  0
    4.7010   -6.7830   28.4600 C   0  0  0  0  0  0  0  0  0  0  0  0
    3.5880   -6.8650   27.6330 C   0  0  0  0  0  0  0  0  0  0  0  0
    2.4040   -7.4340   28.0110 C   0  0  0  0  0  0  0  0  0  0  0  0
    2.2340   -7.9700   29.2490 C   0  0  0  0  0  0  0  0  0  0  0  0
    3.3420   -7.9670   30.2690 C   0  0  0  0  0  0  0  0  0  0  0  0
    4.6360   -7.3070   29.7490 C   0  0  0  0  0  0  0  0  0  0  0  0
    5.8530   -7.2130   30.6320 C   0  0  0  0  0  0  0  0  0  0  0  0
    7.3510   -2.9580   23.5710 C   0  0  0  0  0  0  0  0  0  0  0  0
    7.6810   -3.1350   22.2340 C   0  0  0  0  0  0  0  0  0  0  0  0
  1  2  1  0
  2  3  2  0
  2  4  1  0
  4  5  1  0
  5  6  1  0
  6  7  1  0
  7  8  1  0
  8  9  2  0
  8 10  1  0
 10 11  1  0
 10 12  1  0
 12 13  1  0
 13 14  1  0
 14 15  1  0
 15 16  2  0
 16 17  1  0
 17 18  2  0
 18 19  1  0
 15 20  1  0
 19 20  2  0
 20 21  1  0
  7 22  1  0
  4 23  1  0
 22 23  1  0
M  END
