piperidine-amides-19114-covalent
     RDKit          3D

 22 24  0  0  0  0  0  0  0  0999 V2000
    6.9300   -3.4450   19.4470 C   0  0  0  0  0  0  0  0  0  0  0  0
    6.2920   -4.2790   20.4530 C   0  0  0  0  0  0  0  0  0  0  0  0
    5.4020   -5.0710   20.0200 O   0  0  0  0  0  0  0  0  0  0  0  0
    6.6140   -4.2830   21.8430 N   0  0  0  0  0  0  0  0  0  0  0  0
    6.5580   -5.6120   22.5310 C   0  0  0  0  0  0  0  0  0  0  0  0
    5.9780   -5.2930   23.9850 C   0  0  0  0  0  0  0  0  0  0  0  0
    5.8610   -3.7990   24.0350 C   0  0  0  0  0  0  0  0  0  0  0  0
    4.9140   -3.0360   25.1360 C   0  0  0  0  0  0  0  0  0  0  0  0
    4.4210   -2.1130   24.5210 O   0  0  0  0  0  0  0  0  0  0  0  0
    4.8050   -3.4530   26.3840 N   0  0  0  0  0  0  0  0  0  0  0  0
    4.1900   -3.5880   27.6110 C   0  0  0  0  0  0  0  0  0  0  0  0
    3.0170   -3.0800   28.1660 C   0  0  0  0  0  0  0  0  0  0  0  0
    2.5450   -3.3610   29.4750 C   0  0  0  0  0  0  0  0  0  0  0  0
    3.3090   -4.2500   30.3390 C   0  0  0  0  0  0  0  0  0  0  0  0
    4.4860   -4.7910   29.8480 N   0  0  0  0  0  0  0  0  0  0  0  0
    4.9880   -4.4980   28.5170 C   0  0  0  0  0  0  0  0  0  0  0  0
    6.1380   -5.0490   28.0880 C   0  0  0  0  0  0  0  0  0  0  0  0
    5.9130   -5.4140   26.7500 C   0  0  0  0  0  0  0  0  0  0  0  0
    6.0630   -3.8270   26.8790 C   0  0  1  0  0  0  0  0  0  0  0  0
    6.8920   -2.8280   26.0050 C   0  0  0  0  0  0  0  0  0  0  0  0
    7.2380   -3.1600   23.7390 C   0  0  0  0  0  0  0  0  0  0  0  0
    7.4940   -3.2520   22.3900 C   0  0  0  0  0  0  0  0  0  0  0  0
  1  2  1  0
  2  3  2  0
  2  4  1  0
  4  5  1  0
  5  6  1  0
  6  7  1  0
  7  8  1  0
  8  9  2  0
  8 10  1  0
 10 11  1  0
 11 12  2  0
 12 13  1  0
 13 14  2  0
 14 15  1  0
 11 16  1  0
 15 16  2  0
 16 17  1  0
 17 18  1  0
 10 19  1  0
 18 19  1  0
 19 20  1  6
  7 21  1  0
  4 22  1  0
 21 22  1  0
M  END
