piperidine-amides-114-covalent
     RDKit          3D

 20 22  0  0  0  0  0  0  0  0999 V2000
    7.2110   -3.3270   19.3730 C   0  0  0  0  0  0  0  0  0  0  0  0
    6.4480   -4.0960   20.3260 C   0  0  0  0  0  0  0  0  0  0  0  0
    5.3730   -4.6570   19.9370 O   0  0  0  0  0  0  0  0  0  0  0  0
    6.9040   -4.2660   21.6450 N   0  0  0  0  0  0  0  0  0  0  0  0
    6.4450   -5.4540   22.3880 C   0  0  0  0  0  0  0  0  0  0  0  0
    5.5050   -4.7490   23.4400 C   0  0  0  0  0  0  0  0  0  0  0  0
    6.3340   -3.6690   24.1170 C   0  0  0  0  0  0  0  0  0  0  0  0
    5.5720   -3.2150   25.4330 C   0  0  0  0  0  0  0  0  0  0  0  0
    5.0380   -2.1290   25.2740 O   0  0  0  0  0  0  0  0  0  0  0  0
    5.7040   -4.1110   26.3230 N   0  0  0  0  0  0  0  0  0  0  0  0
    5.7640   -5.0460   27.3070 C   0  0  0  0  0  0  0  0  0  0  0  0
    5.0970   -5.5720   28.3680 C   0  0  2  0  0  0  0  0  0  0  0  0
    4.5300   -6.8390   28.1030 C   0  0  0  0  0  0  0  0  0  0  0  0
    3.7030   -7.3180   29.2360 C   0  0  0  0  0  0  0  0  0  0  0  0
    4.6100   -6.4760   30.1440 C   0  0  2  0  0  0  0  0  0  0  0  0
    3.8980   -5.2780   29.8670 C   0  0  0  0  0  0  0  0  0  0  0  0
    3.9730   -4.8600   28.6980 O   0  0  0  0  0  0  0  0  0  0  0  0
    5.5950   -5.4470   29.5900 C   0  0  0  0  0  0  0  0  0  0  0  0
    6.8940   -2.6290   23.2960 C   0  0  0  0  0  0  0  0  0  0  0  0
    7.7980   -3.4080   22.3140 C   0  0  0  0  0  0  0  0  0  0  0  0
  1  2  1  0
  2  3  2  0
  2  4  1  0
  4  5  1  0
  5  6  1  0
  6  7  1  0
  7  8  1  0
  8  9  2  0
  8 10  1  0
 10 11  1  0
 12 11  1  6
 12 13  1  0
 13 14  1  0
 15 14  1  6
 15 16  1  0
 12 17  1  0
 16 17  1  0
 12 18  1  0
 15 18  1  0
  7 19  1  0
  4 20  1  0
 19 20  1  0
M  END
