piperidine-amides-15338-covalent
     RDKit          3D

 17 18  0  0  0  0  0  0  0  0999 V2000
    7.1090   -3.3550   19.3380 C   0  0  0  0  0  0  0  0  0  0  0  0
    6.3700   -4.1720   20.3010 C   0  0  0  0  0  0  0  0  0  0  0  0
    5.3390   -4.7910   19.9630 O   0  0  0  0  0  0  0  0  0  0  0  0
    6.8740   -4.2960   21.5960 N   0  0  0  0  0  0  0  0  0  0  0  0
    6.6020   -5.4820   22.3810 C   0  0  0  0  0  0  0  0  0  0  0  0
    5.7590   -5.0500   23.5970 C   0  0  0  0  0  0  0  0  0  0  0  0
    6.5390   -3.9910   24.3570 C   0  0  0  0  0  0  0  0  0  0  0  0
    5.7610   -3.5650   25.5320 C   0  0  0  0  0  0  0  0  0  0  0  0
    4.5150   -3.4430   25.4470 O   0  0  0  0  0  0  0  0  0  0  0  0
    6.4190   -3.2840   26.7460 N   0  0  0  0  0  0  0  0  0  0  0  0
    6.7370   -4.4010   27.6170 C   0  0  0  0  0  0  0  0  0  0  0  0
    5.7220   -5.5050   27.4610 C   0  0  0  0  0  0  0  0  0  0  0  0
    5.9990   -2.0210   27.3480 C   0  0  0  0  0  0  0  0  0  0  0  0
    6.2060   -0.9540   26.8540 C   0  0  0  0  0  0  0  0  0  0  0  0
    6.9570   -1.2430   28.0820 C   0  0  0  0  0  0  0  0  0  0  0  0
    6.8540   -2.8180   23.5110 C   0  0  0  0  0  0  0  0  0  0  0  0
    7.5370   -3.1970   22.2340 C   0  0  0  0  0  0  0  0  0  0  0  0
  1  2  1  0
  2  3  2  0
  2  4  1  0
  4  5  1  0
  5  6  1  0
  6  7  1  0
  7  8  1  0
  8  9  2  0
  8 10  1  0
 10 11  1  0
 11 12  1  0
 10 13  1  0
 13 14  1  0
 13 15  1  0
 14 15  1  0
  7 16  1  0
  4 17  1  0
 16 17  1  0
M  END
