piperidine-amides-6678-covalent
     RDKit          3D

 24 25  0  0  0  0  0  0  0  0999 V2000
    7.1620   -3.2880   19.2450 C   0  0  0  0  0  0  0  0  0  0  0  0
    6.3750   -4.0430   20.2240 C   0  0  0  0  0  0  0  0  0  0  0  0
    5.2890   -4.5710   19.8960 O   0  0  0  0  0  0  0  0  0  0  0  0
    6.8740   -4.2270   21.5170 N   0  0  0  0  0  0  0  0  0  0  0  0
    7.6960   -3.2000   22.1150 C   0  0  0  0  0  0  0  0  0  0  0  0
    6.8500   -2.5990   23.2300 C   0  0  0  0  0  0  0  0  0  0  0  0
    6.6170   -3.7170   24.2100 C   0  0  0  0  0  0  0  0  0  0  0  0
    5.8450   -3.2130   25.3610 C   0  0  0  0  0  0  0  0  0  0  0  0
    4.7420   -2.6720   25.1350 O   0  0  0  0  0  0  0  0  0  0  0  0
    6.3500   -3.3460   26.6750 N   0  0  0  0  0  0  0  0  0  0  0  0
    5.5800   -4.0850   27.6300 C   0  0  2  0  0  0  0  0  0  0  0  0
    6.4900   -4.9100   28.5120 C   0  0  0  0  0  0  0  0  0  0  0  0
    5.6760   -5.5460   29.5280 N   0  0  0  0  0  0  0  0  0  0  0  0
    4.3690   -5.0610   29.9300 C   0  0  0  0  0  0  0  0  0  0  0  0
    5.9290   -6.9090   29.7170 C   0  0  0  0  0  0  0  0  0  0  0  0
    4.6680   -4.9970   26.8600 C   0  0  0  0  0  0  0  0  0  0  0  0
    3.3400   -4.5930   26.6870 C   0  0  0  0  0  0  0  0  0  0  0  0
    2.0880   -5.1890   25.9910 C   0  0  0  0  0  0  0  0  0  0  0  0
    2.8670   -6.4130   25.5500 C   0  0  0  0  0  0  0  0  0  0  0  0
    2.6800   -7.6950   24.7920 C   0  0  0  0  0  0  0  0  0  0  0  0
    4.2530   -6.9630   25.6580 C   0  0  0  0  0  0  0  0  0  0  0  0
    5.1180   -6.1680   26.3530 C   0  0  0  0  0  0  0  0  0  0  0  0
    5.7530   -4.7990   23.5480 C   0  0  0  0  0  0  0  0  0  0  0  0
    6.4590   -5.3370   22.3280 C   0  0  0  0  0  0  0  0  0  0  0  0
  1  2  1  0
  2  3  2  0
  2  4  1  0
  4  5  1  0
  5  6  1  0
  6  7  1  0
  7  8  1  0
  8  9  2  0
  8 10  1  0
 10 11  1  0
 11 12  1  1
 12 13  1  0
 13 14  1  0
 13 15  1  0
 11 16  1  0
 16 17  2  0
 17 18  1  0
 18 19  2  0
 19 20  1  0
 19 21  1  0
 16 22  1  0
 21 22  2  0
  7 23  1  0
  4 24  1  0
 23 24  1  0
M  END
