piperidine-amides-6450-covalent
     RDKit          3D

 25 27  0  0  0  0  0  0  0  0999 V2000
    7.0160   -3.3760   19.3750 C   0  0  0  0  0  0  0  0  0  0  0  0
    6.2930   -4.2530   20.3130 C   0  0  0  0  0  0  0  0  0  0  0  0
    5.2550   -4.8280   19.9510 O   0  0  0  0  0  0  0  0  0  0  0  0
    6.7680   -4.5110   21.5990 N   0  0  0  0  0  0  0  0  0  0  0  0
    6.2250   -5.6330   22.3270 C   0  0  0  0  0  0  0  0  0  0  0  0
    6.1540   -5.2220   23.8080 C   0  0  0  0  0  0  0  0  0  0  0  0
    5.6650   -3.7880   23.8610 C   0  0  0  0  0  0  0  0  0  0  0  0
    5.2550   -3.3620   25.2270 C   0  0  0  0  0  0  0  0  0  0  0  0
    4.0380   -3.1560   25.4160 O   0  0  0  0  0  0  0  0  0  0  0  0
    6.1890   -3.1850   26.2830 N   0  0  0  0  0  0  0  0  0  0  0  0
    6.7850   -1.8940   26.5250 C   0  0  0  0  0  0  0  0  0  0  0  0
    7.5020   -1.6650   25.1870 C   0  0  0  0  0  0  0  0  0  0  0  0
    7.4180   -0.5410   24.3540 C   0  0  0  0  0  0  0  0  0  0  0  0
    8.0980   -0.3670   23.1600 C   0  0  0  0  0  0  0  0  0  0  0  0
    8.9400   -1.3490   22.6980 C   0  0  0  0  0  0  0  0  0  0  0  0
    9.1220   -2.5000   23.3750 C   0  0  0  0  0  0  0  0  0  0  0  0
    8.4210   -2.8000   24.6880 C   0  0  0  0  0  0  0  0  0  0  0  0
    8.6500   -4.4500   25.6370 Br  0  0  0  0  0  0  0  0  0  0  0  0
    5.6720   -0.8770   26.6140 C   0  0  0  0  0  0  0  0  0  0  0  0
    5.9420    0.5160   27.1520 C   0  0  0  0  0  0  0  0  0  0  0  0
    5.7180   -0.4230   28.2560 C   0  0  0  0  0  0  0  0  0  0  0  0
    6.9280   -0.9980   28.6770 C   0  0  0  0  0  0  0  0  0  0  0  0
    7.4910   -1.7740   27.6940 C   0  0  0  0  0  0  0  0  0  0  0  0
    6.6930   -2.8260   23.3180 C   0  0  0  0  0  0  0  0  0  0  0  0
    7.5310   -3.5210   22.2840 C   0  0  0  0  0  0  0  0  0  0  0  0
  1  2  1  0
  2  3  2  0
  2  4  1  0
  4  5  1  0
  5  6  1  0
  6  7  1  0
  7  8  1  0
  8  9  2  0
  8 10  1  0
 11 10  1  0
 11 12  1  0
 12 13  2  0
 13 14  1  0
 14 15  2  0
 15 16  1  0
 12 17  1  0
 16 17  2  0
 17 18  1  0
 11 19  1  0
 19 20  1  0
 20 21  1  0
 21 22  1  0
 11 23  1  0
 22 23  1  0
  7 24  1  0
  4 25  1  0
 24 25  1  0
M  END
