piperidine-amides-24405-covalent
     RDKit          3D

 24 26  0  0  0  0  0  0  0  0999 V2000
    7.0920   -3.3720   19.3510 C   0  0  0  0  0  0  0  0  0  0  0  0
    6.4090   -4.2300   20.3230 C   0  0  0  0  0  0  0  0  0  0  0  0
    5.3720   -4.8410   19.9850 O   0  0  0  0  0  0  0  0  0  0  0  0
    6.9500   -4.4240   21.6040 N   0  0  0  0  0  0  0  0  0  0  0  0
    6.5580   -5.5700   22.3730 C   0  0  0  0  0  0  0  0  0  0  0  0
    5.5440   -5.0370   23.3860 C   0  0  0  0  0  0  0  0  0  0  0  0
    6.2780   -4.0800   24.3060 C   0  0  0  0  0  0  0  0  0  0  0  0
    5.3190   -3.4450   25.2480 C   0  0  0  0  0  0  0  0  0  0  0  0
    4.4980   -2.6450   24.7690 O   0  0  0  0  0  0  0  0  0  0  0  0
    5.3210   -3.7250   26.6430 N   0  0  0  0  0  0  0  0  0  0  0  0
    4.2470   -3.2530   27.4710 C   0  0  0  0  0  0  0  0  0  0  0  0
    4.4850   -3.5900   28.9480 C   0  0  0  0  0  0  0  0  0  0  0  0
    5.7120   -3.9760   29.3650 C   0  0  0  0  0  0  0  0  0  0  0  0
    6.4880   -4.4050   28.3900 C   0  0  1  0  0  0  0  0  0  0  0  0
    6.2240   -5.7200   27.9680 C   0  0  0  0  0  0  0  0  0  0  0  0
    5.1000   -6.0740   28.6300 N   0  0  0  0  0  0  0  0  0  0  0  0
    3.8940   -6.4580   27.9730 C   0  0  0  0  0  0  0  0  0  0  0  0
    2.9830   -7.3370   28.8000 C   0  0  0  0  0  0  0  0  0  0  0  0
    4.4830   -7.3710   28.9610 C   0  0  0  0  0  0  0  0  0  0  0  0
    5.0200   -7.6500   30.3220 C   0  0  0  0  0  0  0  0  0  0  0  0
    5.0830   -6.2100   30.0730 C   0  0  0  0  0  0  0  0  0  0  0  0
    6.3950   -3.3810   27.4670 C   0  0  0  0  0  0  0  0  0  0  0  0
    6.8740   -2.9260   23.4850 C   0  0  0  0  0  0  0  0  0  0  0  0
    7.6740   -3.3840   22.2910 C   0  0  0  0  0  0  0  0  0  0  0  0
  1  2  1  0
  2  3  2  0
  2  4  1  0
  4  5  1  0
  5  6  1  0
  6  7  1  0
  7  8  1  0
  8  9  2  0
  8 10  1  0
 10 11  1  0
 11 12  1  0
 12 13  1  0
 13 14  1  0
 14 15  1  6
 15 16  1  0
 16 17  1  0
 17 18  1  0
 18 19  1  0
 19 20  1  0
 16 21  1  0
 20 21  1  0
 10 22  1  0
 14 22  1  0
  7 23  1  0
  4 24  1  0
 23 24  1  0
M  END
