piperidine-amides-14419-covalent
     RDKit          3D

 23 25  0  0  0  0  0  0  0  0999 V2000
    7.1350   -3.2720   19.1890 C   0  0  0  0  0  0  0  0  0  0  0  0
    6.3840   -4.0220   20.1910 C   0  0  0  0  0  0  0  0  0  0  0  0
    5.2900   -4.5190   19.8700 O   0  0  0  0  0  0  0  0  0  0  0  0
    6.9380   -4.2160   21.4750 N   0  0  0  0  0  0  0  0  0  0  0  0
    7.7080   -3.1510   22.0490 C   0  0  0  0  0  0  0  0  0  0  0  0
    7.3870   -3.0640   23.5040 C   0  0  0  0  0  0  0  0  0  0  0  0
    5.9490   -3.5050   23.6390 C   0  0  0  0  0  0  0  0  0  0  0  0
    5.4440   -3.0990   24.9720 C   0  0  0  0  0  0  0  0  0  0  0  0
    4.2590   -2.7860   25.0580 O   0  0  0  0  0  0  0  0  0  0  0  0
    6.3580   -3.1170   25.9910 N   0  0  0  0  0  0  0  0  0  0  0  0
    6.6240   -4.3300   26.6500 C   0  0  0  0  0  0  0  0  0  0  0  0
    6.9250   -4.1330   27.9700 C   0  0  0  0  0  0  0  0  0  0  0  0
    6.2960   -5.0010   28.8220 C   0  0  0  0  0  0  0  0  0  0  0  0
    6.7630   -6.3110   29.0500 C   0  0  0  0  0  0  0  0  0  0  0  0
    5.9960   -7.1990   30.0050 C   0  0  0  0  0  0  0  0  0  0  0  0
    4.8910   -6.8470   30.6690 N   0  0  0  0  0  0  0  0  0  0  0  0
    4.4410   -5.6450   30.4720 C   0  0  0  0  0  0  0  0  0  0  0  0
    5.0300   -4.6320   29.5920 C   0  0  0  0  0  0  0  0  0  0  0  0
    6.8090   -2.7230   28.3960 C   0  0  0  0  0  0  0  0  0  0  0  0
    8.3200   -2.7010   28.3110 C   0  0  0  0  0  0  0  0  0  0  0  0
    8.3100   -3.9890   28.1280 C   0  0  0  0  0  0  0  0  0  0  0  0
    5.9340   -5.0020   23.5330 C   0  0  0  0  0  0  0  0  0  0  0  0
    6.5060   -5.3830   22.2000 C   0  0  0  0  0  0  0  0  0  0  0  0
  1  2  1  0
  2  3  2  0
  2  4  1  0
  4  5  1  0
  5  6  1  0
  6  7  1  0
  7  8  1  0
  8  9  2  0
  8 10  1  0
 10 11  1  0
 12 11  1  0
 12 13  1  0
 13 14  2  0
 14 15  1  0
 15 16  2  0
 16 17  1  0
 13 18  1  0
 17 18  2  0
 12 19  1  0
 19 20  1  0
 12 21  1  0
 20 21  1  0
  7 22  1  0
  4 23  1  0
 22 23  1  0
M  END
