piperidine-amides-14647-covalent
     RDKit          3D

 22 24  0  0  0  0  0  0  0  0999 V2000
    7.1670   -3.2790   19.1610 C   0  0  0  0  0  0  0  0  0  0  0  0
    6.4280   -4.0520   20.1550 C   0  0  0  0  0  0  0  0  0  0  0  0
    5.2990   -4.4810   19.8600 O   0  0  0  0  0  0  0  0  0  0  0  0
    7.0340   -4.3550   21.3910 N   0  0  0  0  0  0  0  0  0  0  0  0
    6.4880   -5.4320   22.1530 C   0  0  0  0  0  0  0  0  0  0  0  0
    5.6150   -4.8470   23.2160 C   0  0  0  0  0  0  0  0  0  0  0  0
    6.4670   -3.8100   23.9150 C   0  0  0  0  0  0  0  0  0  0  0  0
    5.6690   -3.0390   24.8880 C   0  0  0  0  0  0  0  0  0  0  0  0
    4.4500   -3.2110   24.9100 O   0  0  0  0  0  0  0  0  0  0  0  0
    6.3850   -2.1830   25.6870 N   0  0  0  0  0  0  0  0  0  0  0  0
    6.2240   -2.2300   27.0690 C   0  0  0  0  0  0  0  0  0  0  0  0
    7.0380   -3.1360   27.7080 C   0  0  1  0  0  0  0  0  0  0  0  0
    8.0310   -2.5070   28.4070 C   0  0  0  0  0  0  0  0  0  0  0  0
    7.4330   -1.6910   29.3400 O   0  0  0  0  0  0  0  0  0  0  0  0
    6.3300   -3.8860   28.7270 C   0  0  0  0  0  0  0  0  0  0  0  0
    6.6840   -5.2910   28.6630 C   0  0  1  0  0  0  0  0  0  0  0  0
    5.8670   -5.9030   27.5420 C   0  0  0  0  0  0  0  0  0  0  0  0
    6.3400   -5.1590   26.3470 C   0  0  0  0  0  0  0  0  0  0  0  0
    7.4560   -4.2790   26.9200 C   0  0  2  0  0  0  0  0  0  0  0  0
    7.9680   -5.1430   28.1310 C   0  0  0  0  0  0  0  0  0  0  0  0
    6.9280   -2.7530   22.9510 C   0  0  0  0  0  0  0  0  0  0  0  0
    7.7880   -3.3380   22.0820 C   0  0  0  0  0  0  0  0  0  0  0  0
  1  2  1  0
  2  3  2  0
  2  4  1  0
  4  5  1  0
  5  6  1  0
  6  7  1  0
  7  8  1  0
  8  9  2  0
  8 10  1  0
 10 11  1  0
 12 11  1  6
 12 13  1  0
 13 14  1  0
 12 15  1  0
 16 15  1  6
 16 17  1  0
 17 18  1  0
 12 19  1  0
 19 18  1  1
 16 20  1  0
 19 20  1  0
  7 21  1  0
  4 22  1  0
 21 22  1  0
M  END
