piperidine-amides-13750-covalent
     RDKit          3D

 27 29  0  0  0  0  0  0  0  0999 V2000
    6.7210   -3.5050   19.8030 C   0  0  0  0  0  0  0  0  0  0  0  0
    6.1350   -4.5850   20.6950 C   0  0  0  0  0  0  0  0  0  0  0  0
    5.4610   -5.4230   20.0580 O   0  0  0  0  0  0  0  0  0  0  0  0
    6.2620   -4.6460   22.1770 N   0  0  0  0  0  0  0  0  0  0  0  0
    7.2620   -3.9290   22.9630 C   0  0  0  0  0  0  0  0  0  0  0  0
    6.7580   -3.6970   24.4450 C   0  0  0  0  0  0  0  0  0  0  0  0
    6.2050   -4.9750   25.1320 C   0  0  0  0  0  0  0  0  0  0  0  0
    5.8220   -4.8320   26.7230 C   0  0  0  0  0  0  0  0  0  0  0  0
    5.5740   -3.6350   26.9590 O   0  0  0  0  0  0  0  0  0  0  0  0
    5.6710   -5.9150   27.8820 N   0  0  0  0  0  0  0  0  0  0  0  0
    6.2630   -6.3820   29.3400 C   0  0  0  0  0  0  0  0  0  0  0  0
    7.0140   -7.6350   29.2720 C   0  0  0  0  0  0  0  0  0  0  0  0
    7.7470   -6.8010   28.0670 C   0  0  0  0  0  0  0  0  0  0  0  0
    9.0550   -7.4560   26.8410 C   0  0  0  0  0  0  0  0  0  0  0  0
    9.7560   -9.2020   26.8820 C   0  0  0  0  0  0  0  0  0  0  0  0
    9.0180  -10.5500   28.4840 C   0  0  0  0  0  0  0  0  0  0  0  0
    7.6370   -9.5480   29.6440 C   0  0  0  0  0  0  0  0  0  0  0  0
    7.2630  -10.5940   30.5110 O   0  0  0  0  0  0  0  0  0  0  0  0
    8.3200  -11.5590   30.3970 C   0  0  0  0  0  0  0  0  0  0  0  0
    8.9600  -11.4670   29.1600 C   0  0  0  0  0  0  0  0  0  0  0  0
   10.0500  -12.4400   29.0740 C   0  0  0  0  0  0  0  0  0  0  0  0
   10.5960  -13.3710   29.8480 C   0  0  0  0  0  0  0  0  0  0  0  0
    9.8250  -13.2730   31.1660 C   0  0  0  0  0  0  0  0  0  0  0  0
    8.6760  -12.3960   31.4470 C   0  0  0  0  0  0  0  0  0  0  0  0
    7.9400  -12.4250   32.7950 C   0  0  0  0  0  0  0  0  0  0  0  0
    5.0440   -5.3540   24.2130 C   0  0  0  0  0  0  0  0  0  0  0  0
    5.4860   -5.6640   22.8750 C   0  0  0  0  0  0  0  0  0  0  0  0
  1  2  1  0
  2  3  2  0
  2  4  1  0
  4  5  1  0
  5  6  1  0
  6  7  1  0
  7  8  1  0
  8  9  2  0
  8 10  1  0
 10 11  1  0
 11 12  1  0
 12 13  2  0
 13 14  1  0
 14 15  2  0
 15 16  1  0
 12 17  1  0
 16 17  2  0
 17 18  1  0
 18 19  1  0
 19 20  2  0
 20 21  1  0
 21 22  2  0
 22 23  1  0
 19 24  1  0
 23 24  2  0
 24 25  1  0
  7 26  1  0
  4 27  1  0
 26 27  1  0
M  END
