piperidine-amides-30132-covalent
     RDKit          3D

 27 29  0  0  0  0  0  0  0  0999 V2000
    7.0670   -3.3270   19.3510 C   0  0  0  0  0  0  0  0  0  0  0  0
    6.3830   -4.1730   20.3240 C   0  0  0  0  0  0  0  0  0  0  0  0
    5.3890   -4.8160   19.9780 O   0  0  0  0  0  0  0  0  0  0  0  0
    6.8840   -4.3020   21.6700 N   0  0  0  0  0  0  0  0  0  0  0  0
    7.7240   -3.2700   22.2560 C   0  0  0  0  0  0  0  0  0  0  0  0
    7.6610   -3.3150   23.7620 C   0  0  0  0  0  0  0  0  0  0  0  0
    6.2590   -3.7760   24.0940 C   0  0  0  0  0  0  0  0  0  0  0  0
    5.8250   -3.6190   25.5210 C   0  0  0  0  0  0  0  0  0  0  0  0
    4.6030   -3.6510   25.7660 O   0  0  0  0  0  0  0  0  0  0  0  0
    6.6850   -3.3940   26.6530 N   0  0  0  0  0  0  0  0  0  0  0  0
    5.9550   -2.6240   27.6920 C   0  0  0  0  0  0  0  0  0  0  0  0
    5.3030   -3.5750   28.7120 C   0  0  0  0  0  0  0  0  0  0  0  0
    5.8470   -4.7670   28.8330 N   0  0  0  0  0  0  0  0  0  0  0  0
    5.5750   -6.0080   29.6590 C   0  0  0  0  0  0  0  0  0  0  0  0
    4.5750   -6.2730   30.6180 C   0  0  0  0  0  0  0  0  0  0  0  0
    3.5010   -5.3710   30.6730 O   0  0  0  0  0  0  0  0  0  0  0  0
    4.7380   -7.3750   31.4010 N   0  0  0  0  0  0  0  0  0  0  0  0
    4.4690   -7.3980   32.6970 C   0  0  0  0  0  0  0  0  0  0  0  0
    3.6120   -8.4130   33.2890 C   0  0  0  0  0  0  0  0  0  0  0  0
    5.5920   -7.6440   33.4340 C   0  0  0  0  0  0  0  0  0  0  0  0
    6.5500   -7.0510   29.3450 C   0  0  0  0  0  0  0  0  0  0  0  0
    6.5100   -5.9380   28.8410 C   0  0  0  0  0  0  0  0  0  0  0  0
    6.8950   -4.9750   28.0480 C   0  0  0  0  0  0  0  0  0  0  0  0
    7.6520   -4.3730   27.1080 C   0  0  1  0  0  0  0  0  0  0  0  0
    8.1890   -5.1910   26.1170 C   0  0  0  0  0  0  0  0  0  0  0  0
    6.0270   -5.2140   23.6880 C   0  0  0  0  0  0  0  0  0  0  0  0
    6.7390   -5.5520   22.3730 C   0  0  0  0  0  0  0  0  0  0  0  0
  1  2  1  0
  2  3  2  0
  2  4  1  0
  4  5  1  0
  5  6  1  0
  6  7  1  0
  7  8  1  0
  8  9  2  0
  8 10  1  0
 10 11  1  0
 11 12  1  0
 12 13  1  0
 13 14  1  0
 14 15  1  0
 15 16  2  0
 15 17  1  0
 17 18  1  0
 18 19  1  0
 18 20  1  0
 14 21  2  0
 21 22  1  0
 13 23  1  0
 22 23  2  0
 10 24  1  0
 23 24  1  0
 24 25  1  6
  7 26  1  0
  4 27  1  0
 26 27  1  0
M  END
