piperidine-amides-35541-covalent
     RDKit          3D

 37 41  0  0  0  0  0  0  0  0999 V2000
    7.0640   -3.3170   19.3200 C   0  0  0  0  0  0  0  0  0  0  0  0
    6.3910   -4.1780   20.3210 C   0  0  0  0  0  0  0  0  0  0  0  0
    5.3740   -4.7700   19.9640 O   0  0  0  0  0  0  0  0  0  0  0  0
    6.9450   -4.3280   21.5930 N   0  0  0  0  0  0  0  0  0  0  0  0
    6.5650   -5.4260   22.4210 C   0  0  0  0  0  0  0  0  0  0  0  0
    5.6440   -4.9010   23.4850 C   0  0  0  0  0  0  0  0  0  0  0  0
    6.3470   -3.8520   24.3680 C   0  0  0  0  0  0  0  0  0  0  0  0
    5.3800   -3.5230   25.4530 C   0  0  0  0  0  0  0  0  0  0  0  0
    4.3790   -4.2370   25.5570 O   0  0  0  0  0  0  0  0  0  0  0  0
    5.4980   -2.4370   26.3650 N   0  0  0  0  0  0  0  0  0  0  0  0
    6.7560   -2.0510   26.9280 C   0  0  0  0  0  0  0  0  0  0  0  0
    6.6480   -0.4910   27.1700 C   0  0  0  0  0  0  0  0  0  0  0  0
    6.3170    0.5880   26.2690 C   0  0  0  0  0  0  0  0  0  0  0  0
    6.2550    1.9370   26.6210 C   0  0  0  0  0  0  0  0  0  0  0  0
    6.5160    2.3280   27.8970 C   0  0  0  0  0  0  0  0  0  0  0  0
    6.8760    1.3510   28.9610 C   0  0  0  0  0  0  0  0  0  0  0  0
    7.0940    2.1320   30.2240 C   0  0  0  0  0  0  0  0  0  0  0  0
    7.4740    1.2690   31.4020 C   0  0  0  0  0  0  0  0  0  0  0  0
    7.5860   -0.2020   31.1960 C   0  0  0  0  0  0  0  0  0  0  0  0
    7.3400   -0.8500   29.8850 C   0  0  0  0  0  0  0  0  0  0  0  0
    6.9600   -0.1120   28.6400 C   0  0  0  0  0  0  0  0  0  0  0  0
    5.0920   -1.0880   26.3380 C   0  0  0  0  0  0  0  0  0  0  0  0
    4.4030   -0.5640   25.0520 C   0  0  0  0  0  0  0  0  0  0  0  0
    3.1670    0.0440   25.1800 O   0  0  0  0  0  0  0  0  0  0  0  0
    4.9700   -0.6660   23.7820 O   0  0  0  0  0  0  0  0  0  0  0  0
    5.5770    0.4540   23.1890 C   0  0  0  0  0  0  0  0  0  0  0  0
    7.0730    0.2720   23.3450 C   0  0  0  0  0  0  0  0  0  0  0  0
    6.5360   -0.3820   26.6840 C   0  0  0  0  0  0  0  0  0  0  0  0
    6.2170    0.1740   28.0640 C   0  0  0  0  0  0  0  0  0  0  0  0
    5.1290    0.2370   28.9500 C   0  0  0  0  0  0  0  0  0  0  0  0
    4.0870   -0.6160   27.9160 C   0  0  0  0  0  0  0  0  0  0  0  0
    4.2240   -1.2700   26.4670 C   0  0  0  0  0  0  0  0  0  0  0  0
    5.5870   -0.9770   26.1040 C   0  0  0  0  0  0  0  0  0  0  0  0
    5.4990   -0.3880   27.3870 C   0  0  0  0  0  0  0  0  0  0  0  0
    4.2040   -0.6820   27.6720 C   0  0  0  0  0  0  0  0  0  0  0  0
    6.7990   -2.7390   23.4580 C   0  0  0  0  0  0  0  0  0  0  0  0
    7.6250   -3.3340   22.3310 C   0  0  0  0  0  0  0  0  0  0  0  0
  1  2  1  0
  2  3  2  0
  2  4  1  0
  4  5  1  0
  5  6  1  0
  6  7  1  0
  7  8  1  0
  8  9  2  0
  8 10  1  0
 10 11  1  0
 11 12  1  0
 12 13  2  0
 13 14  1  0
 14 15  2  0
 15 16  1  0
 16 17  1  0
 17 18  2  0
 18 19  1  0
 19 20  2  0
 12 21  1  0
 16 21  2  0
 20 21  1  0
 10 22  1  0
 22 23  1  0
 23 24  2  0
 23 25  1  0
 25 26  1  0
 26 27  1  0
 22 28  1  0
 28 29  1  0
 29 30  1  0
 30 31  2  0
 31 32  1  0
 32 33  2  0
 29 34  2  0
 33 34  1  0
 22 35  1  0
 34 35  1  0
  7 36  1  0
  4 37  1  0
 36 37  1  0
M  END
