piperidine-amides-13110-covalent
     RDKit          3D

 23 24  0  0  0  0  0  0  0  0999 V2000
    7.0860   -3.3020   19.1900 C   0  0  0  0  0  0  0  0  0  0  0  0
    6.3100   -4.0160   20.2310 C   0  0  0  0  0  0  0  0  0  0  0  0
    5.2380   -4.5290   19.8680 O   0  0  0  0  0  0  0  0  0  0  0  0
    6.7890   -4.1460   21.5430 N   0  0  0  0  0  0  0  0  0  0  0  0
    7.5960   -3.1320   22.1270 C   0  0  0  0  0  0  0  0  0  0  0  0
    7.3180   -2.9050   23.5440 C   0  0  0  0  0  0  0  0  0  0  0  0
    6.0870   -3.5590   24.0440 C   0  0  0  0  0  0  0  0  0  0  0  0
    5.9420   -3.3830   25.5200 C   0  0  0  0  0  0  0  0  0  0  0  0
    4.7760   -3.3340   25.9610 O   0  0  0  0  0  0  0  0  0  0  0  0
    7.0600   -3.2430   26.3890 N   0  0  0  0  0  0  0  0  0  0  0  0
    7.4010   -4.1500   27.5340 C   0  0  2  0  0  0  0  0  0  0  0  0
    8.2870   -5.2610   27.0720 C   0  0  0  0  0  0  0  0  0  0  0  0
    8.9230   -5.1820   25.7670 C   0  0  0  0  0  0  0  0  0  0  0  0
    8.0700   -5.7190   24.8370 F   0  0  0  0  0  0  0  0  0  0  0  0
    9.0640   -3.8410   25.4310 F   0  0  0  0  0  0  0  0  0  0  0  0
    6.1490   -4.6820   28.0440 C   0  0  0  0  0  0  0  0  0  0  0  0
    6.0480   -6.0260   28.3870 C   0  0  0  0  0  0  0  0  0  0  0  0
    4.8680   -6.5200   28.8660 C   0  0  0  0  0  0  0  0  0  0  0  0
    3.7840   -5.7130   29.0150 C   0  0  0  0  0  0  0  0  0  0  0  0
    3.8230   -4.3920   28.6990 C   0  0  0  0  0  0  0  0  0  0  0  0
    5.0290   -3.8990   28.2130 C   0  0  0  0  0  0  0  0  0  0  0  0
    5.8470   -4.9730   23.6290 C   0  0  0  0  0  0  0  0  0  0  0  0
    6.5740   -5.3420   22.3490 C   0  0  0  0  0  0  0  0  0  0  0  0
  1  2  1  0
  2  3  2  0
  2  4  1  0
  4  5  1  0
  5  6  1  0
  6  7  1  0
  7  8  1  0
  8  9  2  0
  8 10  1  0
 10 11  1  0
 11 12  1  6
 12 13  1  0
 13 14  1  0
 13 15  1  0
 11 16  1  0
 16 17  2  0
 17 18  1  0
 18 19  2  0
 19 20  1  0
 16 21  1  0
 20 21  2  0
  7 22  1  0
  4 23  1  0
 22 23  1  0
M  END
