piperidine-amides-10724-covalent
     RDKit          3D

 22 24  0  0  0  0  0  0  0  0999 V2000
    7.0500   -3.3400   19.3310 C   0  0  0  0  0  0  0  0  0  0  0  0
    6.3720   -4.1570   20.3410 C   0  0  0  0  0  0  0  0  0  0  0  0
    5.4060   -4.8600   19.9900 O   0  0  0  0  0  0  0  0  0  0  0  0
    6.8230   -4.1900   21.6750 N   0  0  0  0  0  0  0  0  0  0  0  0
    7.7500   -3.1910   22.1790 C   0  0  0  0  0  0  0  0  0  0  0  0
    7.5190   -3.1020   23.6590 C   0  0  0  0  0  0  0  0  0  0  0  0
    6.1470   -3.5760   24.0010 C   0  0  0  0  0  0  0  0  0  0  0  0
    5.6950   -3.2480   25.3770 C   0  0  0  0  0  0  0  0  0  0  0  0
    4.4700   -3.3740   25.6770 O   0  0  0  0  0  0  0  0  0  0  0  0
    6.5550   -2.7890   26.4010 N   0  0  0  0  0  0  0  0  0  0  0  0
    6.3960   -1.4420   27.0100 C   0  0  0  0  0  0  0  0  0  0  0  0
    6.9530   -1.5950   28.4050 C   0  0  0  0  0  0  0  0  0  0  0  0
    6.8990   -0.5130   29.1070 N   0  0  0  0  0  0  0  0  0  0  0  0
    6.3770    0.5960   28.5630 C   0  0  0  0  0  0  0  0  0  0  0  0
    6.2920    1.8870   29.3370 C   0  0  0  0  0  0  0  0  0  0  0  0
    5.9430    0.5340   27.3280 N   0  0  0  0  0  0  0  0  0  0  0  0
    5.7970   -0.3100   26.2600 C   0  0  0  0  0  0  0  0  0  0  0  0
    5.2440    0.9740   25.7510 C   0  0  0  0  0  0  0  0  0  0  0  0
    4.0180    1.1610   25.4430 C   0  0  0  0  0  0  0  0  0  0  0  0
    3.9450    1.3430   26.7300 C   0  0  0  0  0  0  0  0  0  0  0  0
    5.9760   -5.0840   23.7610 C   0  0  0  0  0  0  0  0  0  0  0  0
    6.6460   -5.4220   22.4170 C   0  0  0  0  0  0  0  0  0  0  0  0
  1  2  1  0
  2  3  2  0
  2  4  1  0
  4  5  1  0
  5  6  1  0
  6  7  1  0
  7  8  1  0
  8  9  2  0
  8 10  1  0
 10 11  1  0
 11 12  2  0
 12 13  1  0
 13 14  2  0
 14 15  1  0
 14 16  1  0
 11 17  1  0
 16 17  2  0
 17 18  1  0
 18 19  1  0
 18 20  1  0
 19 20  1  0
  7 21  1  0
  4 22  1  0
 21 22  1  0
M  END
