piperidine-amides-17910-covalent
     RDKit          3D

 21 22  0  0  0  0  0  0  0  0999 V2000
    7.1630   -3.3320   19.4180 C   0  0  0  0  0  0  0  0  0  0  0  0
    6.4580   -4.1580   20.3720 C   0  0  0  0  0  0  0  0  0  0  0  0
    5.4180   -4.7830   19.9780 O   0  0  0  0  0  0  0  0  0  0  0  0
    6.9250   -4.3200   21.6980 N   0  0  0  0  0  0  0  0  0  0  0  0
    7.7930   -3.2750   22.2710 C   0  0  0  0  0  0  0  0  0  0  0  0
    6.7790   -2.6300   23.2810 C   0  0  0  0  0  0  0  0  0  0  0  0
    6.2690   -3.7560   24.1590 C   0  0  0  0  0  0  0  0  0  0  0  0
    5.4260   -3.1330   25.3640 C   0  0  0  0  0  0  0  0  0  0  0  0
    4.3930   -2.6770   24.9040 O   0  0  0  0  0  0  0  0  0  0  0  0
    5.9980   -3.2530   26.5050 N   0  0  0  0  0  0  0  0  0  0  0  0
    6.3480   -3.8390   27.6960 C   0  0  0  0  0  0  0  0  0  0  0  0
    6.3950   -1.9330   26.8130 C   0  0  0  0  0  0  0  0  0  0  0  0
    6.2580   -1.5000   28.1600 C   0  0  0  0  0  0  0  0  0  0  0  0
    7.3650   -1.2020   29.0820 C   0  0  0  0  0  0  0  0  0  0  0  0
    6.9860   -0.7470   30.4930 C   0  0  0  0  0  0  0  0  0  0  0  0
    5.6290   -0.6420   30.8150 C   0  0  0  0  0  0  0  0  0  0  0  0
    4.4010   -0.8530   30.1630 C   0  0  0  0  0  0  0  0  0  0  0  0
    3.1090   -0.7150   30.5900 F   0  0  0  0  0  0  0  0  0  0  0  0
    4.9070   -1.2980   28.7860 C   0  0  0  0  0  0  0  0  0  0  0  0
    5.5920   -4.8540   23.3760 C   0  0  0  0  0  0  0  0  0  0  0  0
    6.5180   -5.4090   22.5270 C   0  0  0  0  0  0  0  0  0  0  0  0
  1  2  1  0
  2  3  2  0
  2  4  1  0
  4  5  1  0
  5  6  1  0
  6  7  1  0
  7  8  1  0
  8  9  2  0
  8 10  1  0
 10 11  1  0
 10 12  1  0
 12 13  1  0
 13 14  2  0
 14 15  1  0
 15 16  2  0
 16 17  1  0
 17 18  1  0
 13 19  1  0
 17 19  2  0
  7 20  1  0
  4 21  1  0
 20 21  1  0
M  END
