piperidine-amides-6738-covalent
     RDKit          3D

 23 24  0  0  0  0  0  0  0  0999 V2000
    7.1120   -3.2870   19.2660 C   0  0  0  0  0  0  0  0  0  0  0  0
    6.3980   -4.1090   20.2580 C   0  0  0  0  0  0  0  0  0  0  0  0
    5.3500   -4.7110   19.9440 O   0  0  0  0  0  0  0  0  0  0  0  0
    6.9130   -4.2650   21.5550 N   0  0  0  0  0  0  0  0  0  0  0  0
    7.7270   -3.2110   22.1130 C   0  0  0  0  0  0  0  0  0  0  0  0
    6.9400   -2.6540   23.2920 C   0  0  0  0  0  0  0  0  0  0  0  0
    6.6690   -3.8170   24.2200 C   0  0  0  0  0  0  0  0  0  0  0  0
    5.9340   -3.2880   25.3820 C   0  0  0  0  0  0  0  0  0  0  0  0
    4.7120   -3.5220   25.4910 O   0  0  0  0  0  0  0  0  0  0  0  0
    6.6590   -2.5040   26.3130 N   0  0  0  0  0  0  0  0  0  0  0  0
    6.3330   -2.4250   27.7140 C   0  0  0  0  0  0  0  0  0  0  0  0
    5.2170   -3.3590   28.0900 C   0  0  0  0  0  0  0  0  0  0  0  0
    3.9200   -3.0000   27.8440 C   0  0  0  0  0  0  0  0  0  0  0  0
    2.9130   -3.8970   28.2190 N   0  0  0  0  0  0  0  0  0  0  0  0
    3.1950   -5.1200   28.8210 C   0  0  0  0  0  0  0  0  0  0  0  0
    4.5290   -5.4510   29.0550 C   0  0  0  0  0  0  0  0  0  0  0  0
    4.8440   -6.6440   29.6400 C   0  0  0  0  0  0  0  0  0  0  0  0
    3.8390   -7.6140   30.2320 C   0  0  0  0  0  0  0  0  0  0  0  0
    4.5560   -7.8900   28.9200 C   0  0  0  0  0  0  0  0  0  0  0  0
    6.0280   -6.8010   30.2570 C   0  0  0  0  0  0  0  0  0  0  0  0
    5.5250   -4.5620   28.6850 C   0  0  0  0  0  0  0  0  0  0  0  0
    5.8320   -4.8490   23.5120 C   0  0  0  0  0  0  0  0  0  0  0  0
    6.4130   -5.3220   22.3660 C   0  0  0  0  0  0  0  0  0  0  0  0
  1  2  1  0
  2  3  2  0
  2  4  1  0
  4  5  1  0
  5  6  1  0
  6  7  1  0
  7  8  1  0
  8  9  2  0
  8 10  1  0
 10 11  1  0
 11 12  1  0
 12 13  2  0
 13 14  1  0
 14 15  2  0
 15 16  1  0
 16 17  1  0
 17 18  1  0
 17 19  1  0
 17 20  1  0
 12 21  1  0
 16 21  2  0
  7 22  1  0
  4 23  1  0
 22 23  1  0
M  END
