piperidine-amides-3801-covalent
     RDKit          3D

 22 23  0  0  0  0  0  0  0  0999 V2000
    7.0970   -3.2820   19.1880 C   0  0  0  0  0  0  0  0  0  0  0  0
    6.3610   -4.0290   20.2300 C   0  0  0  0  0  0  0  0  0  0  0  0
    5.2720   -4.5420   19.8810 O   0  0  0  0  0  0  0  0  0  0  0  0
    6.8740   -4.2180   21.5450 N   0  0  0  0  0  0  0  0  0  0  0  0
    7.6430   -3.1690   22.1310 C   0  0  0  0  0  0  0  0  0  0  0  0
    7.3010   -2.9230   23.5230 C   0  0  0  0  0  0  0  0  0  0  0  0
    6.0950   -3.6530   23.9480 C   0  0  0  0  0  0  0  0  0  0  0  0
    5.6080   -3.2370   25.3050 C   0  0  0  0  0  0  0  0  0  0  0  0
    4.4100   -2.9160   25.4370 O   0  0  0  0  0  0  0  0  0  0  0  0
    6.4480   -3.1910   26.4310 N   0  0  0  0  0  0  0  0  0  0  0  0
    6.2140   -3.7100   27.7280 C   0  0  0  0  0  0  0  0  0  0  0  0
    5.7130   -5.0600   28.0000 C   0  0  2  0  0  0  0  0  0  0  0  0
    5.5570   -5.8040   26.6640 C   0  0  0  0  0  0  0  0  0  0  0  0
    4.4400   -5.2430   28.7160 C   0  0  0  0  0  0  0  0  0  0  0  0
    3.3390   -4.2150   28.3590 C   0  0  0  0  0  0  0  0  0  0  0  0
    2.0990   -4.5160   29.1570 C   0  0  0  0  0  0  0  0  0  0  0  0
    1.9000   -5.4960   30.0480 N   0  0  0  0  0  0  0  0  0  0  0  0
    2.8670   -6.3580   30.3260 C   0  0  0  0  0  0  0  0  0  0  0  0
    4.1930   -6.2400   29.6440 C   0  0  0  0  0  0  0  0  0  0  0  0
    5.6510   -7.4020   29.9540 Br  0  0  0  0  0  0  0  0  0  0  0  0
    6.2790   -5.1410   23.7580 C   0  0  0  0  0  0  0  0  0  0  0  0
    6.5120   -5.4190   22.2560 C   0  0  0  0  0  0  0  0  0  0  0  0
  1  2  1  0
  2  3  2  0
  2  4  1  0
  4  5  1  0
  5  6  1  0
  6  7  1  0
  7  8  1  0
  8  9  2  0
  8 10  1  0
 10 11  1  0
 11 12  1  0
 12 13  1  6
 12 14  1  0
 14 15  2  0
 15 16  1  0
 16 17  2  0
 17 18  1  0
 14 19  1  0
 18 19  2  0
 19 20  1  0
  7 21  1  0
  4 22  1  0
 21 22  1  0
M  END
