piperidine-amides-6413-covalent
     RDKit          3D

 25 27  0  0  0  0  0  0  0  0999 V2000
    7.0080   -3.1290   19.1100 C   0  0  0  0  0  0  0  0  0  0  0  0
    6.1400   -3.7850   20.1090 C   0  0  0  0  0  0  0  0  0  0  0  0
    5.1410   -4.4340   19.7760 O   0  0  0  0  0  0  0  0  0  0  0  0
    6.3860   -3.7280   21.4660 N   0  0  0  0  0  0  0  0  0  0  0  0
    5.8210   -4.8070   22.2370 C   0  0  0  0  0  0  0  0  0  0  0  0
    5.0820   -4.1720   23.4060 C   0  0  0  0  0  0  0  0  0  0  0  0
    6.1320   -3.3740   24.1270 C   0  0  0  0  0  0  0  0  0  0  0  0
    5.6130   -2.9220   25.4310 C   0  0  0  0  0  0  0  0  0  0  0  0
    4.3710   -2.8380   25.5740 O   0  0  0  0  0  0  0  0  0  0  0  0
    6.5110   -2.6090   26.4810 N   0  0  0  0  0  0  0  0  0  0  0  0
    6.9760   -3.6280   27.3770 C   0  0  1  0  0  0  0  0  0  0  0  0
    5.8280   -4.5060   27.8280 C   0  0  0  0  0  0  0  0  0  0  0  0
    7.9090   -4.4840   26.6650 C   0  0  0  0  0  0  0  0  0  0  0  0
    7.7850   -4.7370   25.3450 C   0  0  0  0  0  0  0  0  0  0  0  0
    8.5040   -4.2170   24.3200 C   0  0  0  0  0  0  0  0  0  0  0  0
    8.3800   -4.4940   22.9970 C   0  0  0  0  0  0  0  0  0  0  0  0
    7.4370   -5.4590   22.2460 C   0  0  0  0  0  0  0  0  0  0  0  0
    6.7030   -5.9430   23.4960 C   0  0  0  0  0  0  0  0  0  0  0  0
    6.8700   -5.5950   24.9410 C   0  0  0  0  0  0  0  0  0  0  0  0
    9.1180   -3.7900   26.7100 C   0  0  0  0  0  0  0  0  0  0  0  0
   10.0220   -4.8180   26.4770 C   0  0  0  0  0  0  0  0  0  0  0  0
    9.5780   -5.8200   27.2340 C   0  0  0  0  0  0  0  0  0  0  0  0
    8.1340   -5.6840   27.4850 C   0  0  0  0  0  0  0  0  0  0  0  0
    6.5890   -2.1830   23.3130 C   0  0  0  0  0  0  0  0  0  0  0  0
    7.2610   -2.7200   22.0320 C   0  0  0  0  0  0  0  0  0  0  0  0
  1  2  1  0
  2  3  2  0
  2  4  1  0
  4  5  1  0
  5  6  1  0
  6  7  1  0
  7  8  1  0
  8  9  2  0
  8 10  1  0
 10 11  1  0
 11 12  1  6
 11 13  1  0
 13 14  1  0
 14 15  2  0
 15 16  1  0
 16 17  2  0
 17 18  1  0
 14 19  1  0
 18 19  2  0
 13 20  1  0
 20 21  1  0
 21 22  1  0
 13 23  1  0
 22 23  1  0
  7 24  1  0
  4 25  1  0
 24 25  1  0
M  END
