piperidine-amides-3364-covalent
     RDKit          3D

 21 22  0  0  0  0  0  0  0  0999 V2000
    7.0970   -3.3080   19.2540 C   0  0  0  0  0  0  0  0  0  0  0  0
    6.3660   -4.0990   20.2380 C   0  0  0  0  0  0  0  0  0  0  0  0
    5.3040   -4.6350   19.9210 O   0  0  0  0  0  0  0  0  0  0  0  0
    6.9040   -4.3180   21.5540 N   0  0  0  0  0  0  0  0  0  0  0  0
    6.4540   -5.4530   22.2980 C   0  0  0  0  0  0  0  0  0  0  0  0
    5.6900   -4.9630   23.4940 C   0  0  0  0  0  0  0  0  0  0  0  0
    6.5220   -3.9030   24.2140 C   0  0  0  0  0  0  0  0  0  0  0  0
    5.7750   -3.4010   25.4050 C   0  0  0  0  0  0  0  0  0  0  0  0
    4.5330   -3.2850   25.3990 O   0  0  0  0  0  0  0  0  0  0  0  0
    6.4890   -3.0420   26.5720 N   0  0  0  0  0  0  0  0  0  0  0  0
    6.2710   -3.7500   27.8180 C   0  0  2  0  0  0  0  0  0  0  0  0
    5.9340   -5.2100   27.5500 C   0  0  0  0  0  0  0  0  0  0  0  0
    5.1770   -3.0920   28.5720 C   0  0  0  0  0  0  0  0  0  0  0  0
    3.8730   -3.6110   28.5570 C   0  0  0  0  0  0  0  0  0  0  0  0
    2.8800   -2.9770   29.2760 C   0  0  0  0  0  0  0  0  0  0  0  0
    3.2460   -1.7920   30.0180 C   0  0  0  0  0  0  0  0  0  0  0  0
    1.9670   -0.9850   30.9450 Cl  0  0  0  0  0  0  0  0  0  0  0  0
    4.5050   -1.2700   30.0440 C   0  0  0  0  0  0  0  0  0  0  0  0
    5.4650   -1.8990   29.3370 N   0  0  0  0  0  0  0  0  0  0  0  0
    6.7670   -2.7390   23.2590 C   0  0  0  0  0  0  0  0  0  0  0  0
    7.5520   -3.1950   22.2030 C   0  0  0  0  0  0  0  0  0  0  0  0
  1  2  1  0
  2  3  2  0
  2  4  1  0
  4  5  1  0
  5  6  1  0
  6  7  1  0
  7  8  1  0
  8  9  2  0
  8 10  1  0
 10 11  1  0
 11 12  1  6
 11 13  1  0
 13 14  2  0
 14 15  1  0
 15 16  2  0
 16 17  1  0
 16 18  1  0
 13 19  1  0
 18 19  2  0
  7 20  1  0
  4 21  1  0
 20 21  1  0
M  END
