piperidine-amides-19243-covalent
     RDKit          3D

 22 23  0  0  0  0  0  0  0  0999 V2000
    7.0520   -3.3640   19.2980 C   0  0  0  0  0  0  0  0  0  0  0  0
    6.3200   -4.0600   20.3340 C   0  0  0  0  0  0  0  0  0  0  0  0
    5.3090   -4.7210   19.9530 O   0  0  0  0  0  0  0  0  0  0  0  0
    6.6950   -4.0840   21.7060 N   0  0  0  0  0  0  0  0  0  0  0  0
    7.6310   -3.0150   22.1760 C   0  0  0  0  0  0  0  0  0  0  0  0
    7.4150   -3.0010   23.7470 C   0  0  0  0  0  0  0  0  0  0  0  0
    6.1130   -3.7230   23.9430 C   0  0  0  0  0  0  0  0  0  0  0  0
    5.2820   -3.3890   25.2740 C   0  0  0  0  0  0  0  0  0  0  0  0
    4.1020   -3.6280   25.0770 O   0  0  0  0  0  0  0  0  0  0  0  0
    6.0160   -2.9440   26.2130 N   0  0  0  0  0  0  0  0  0  0  0  0
    6.7330   -2.0130   26.8990 C   0  0  0  0  0  0  0  0  0  0  0  0
    5.9350   -3.9310   27.2380 C   0  0  0  0  0  0  0  0  0  0  0  0
    5.6380   -5.2900   26.8750 C   0  0  0  0  0  0  0  0  0  0  0  0
    4.6590   -5.9810   27.7250 C   0  0  0  0  0  0  0  0  0  0  0  0
    3.3190   -6.0180   27.1140 C   0  0  0  0  0  0  0  0  0  0  0  0
    2.5220   -6.7330   28.0770 C   0  0  0  0  0  0  0  0  0  0  0  0
    2.6720   -7.3820   29.3990 C   0  0  0  0  0  0  0  0  0  0  0  0
    4.1910   -7.1550   29.7370 C   0  0  0  0  0  0  0  0  0  0  0  0
    5.2620   -6.4330   28.9020 C   0  0  0  0  0  0  0  0  0  0  0  0
    6.5720   -6.2550   29.2260 C   0  0  0  0  0  0  0  0  0  0  0  0
    6.1710   -5.2050   23.6390 C   0  0  0  0  0  0  0  0  0  0  0  0
    6.6690   -5.3640   22.3820 C   0  0  0  0  0  0  0  0  0  0  0  0
  1  2  1  0
  2  3  2  0
  2  4  1  0
  4  5  1  0
  5  6  1  0
  6  7  1  0
  7  8  1  0
  8  9  2  0
  8 10  1  0
 10 11  1  0
 10 12  1  0
 12 13  1  0
 13 14  1  0
 14 15  2  0
 15 16  1  0
 16 17  2  0
 17 18  1  0
 14 19  1  0
 18 19  2  0
 19 20  1  0
  7 21  1  0
  4 22  1  0
 21 22  1  0
M  END
