piperidine-amides-12163-covalent
     RDKit          3D

 25 26  0  0  0  0  0  0  0  0999 V2000
    7.0260   -3.2850   19.2880 C   0  0  0  0  0  0  0  0  0  0  0  0
    6.2510   -4.0920   20.2320 C   0  0  0  0  0  0  0  0  0  0  0  0
    5.2010   -4.6050   19.8780 O   0  0  0  0  0  0  0  0  0  0  0  0
    6.7230   -4.3380   21.5620 N   0  0  0  0  0  0  0  0  0  0  0  0
    6.3960   -5.5520   22.2500 C   0  0  0  0  0  0  0  0  0  0  0  0
    6.2150   -5.2500   23.7180 C   0  0  0  0  0  0  0  0  0  0  0  0
    5.7240   -3.8130   23.8440 C   0  0  0  0  0  0  0  0  0  0  0  0
    5.4190   -3.4280   25.2620 C   0  0  0  0  0  0  0  0  0  0  0  0
    4.6570   -2.4790   25.5180 O   0  0  0  0  0  0  0  0  0  0  0  0
    5.9760   -4.1490   26.3530 N   0  0  0  0  0  0  0  0  0  0  0  0
    7.3440   -3.9270   26.7270 C   0  0  1  0  0  0  0  0  0  0  0  0
    7.9250   -5.3070   26.8570 C   0  0  0  0  0  0  0  0  0  0  0  0
    8.6590   -5.6090   27.9740 C   0  0  0  0  0  0  0  0  0  0  0  0
    8.0070   -3.1200   25.6880 C   0  0  0  0  0  0  0  0  0  0  0  0
    8.6440   -3.6850   24.5850 C   0  0  0  0  0  0  0  0  0  0  0  0
    9.2500   -2.7950   23.5910 C   0  0  0  0  0  0  0  0  0  0  0  0
    9.2230   -1.4350   23.6960 C   0  0  0  0  0  0  0  0  0  0  0  0
    8.5940   -0.9310   24.8000 C   0  0  0  0  0  0  0  0  0  0  0  0
    8.0110   -1.7340   25.7590 C   0  0  0  0  0  0  0  0  0  0  0  0
    7.3820   -1.1860   26.8600 O   0  0  0  0  0  0  0  0  0  0  0  0
    7.4710    0.2020   27.0010 C   0  0  0  0  0  0  0  0  0  0  0  0
    7.9840    0.5050   28.2290 F   0  0  0  0  0  0  0  0  0  0  0  0
    6.2160    0.7740   26.9380 F   0  0  0  0  0  0  0  0  0  0  0  0
    6.5810   -2.7550   23.1580 C   0  0  0  0  0  0  0  0  0  0  0  0
    7.4720   -3.3610   22.2740 C   0  0  0  0  0  0  0  0  0  0  0  0
  1  2  1  0
  2  3  2  0
  2  4  1  0
  4  5  1  0
  5  6  1  0
  6  7  1  0
  7  8  1  0
  8  9  2  0
  8 10  1  0
 10 11  1  0
 11 12  1  6
 12 13  1  0
 11 14  1  0
 14 15  2  0
 15 16  1  0
 16 17  2  0
 17 18  1  0
 14 19  1  0
 18 19  2  0
 19 20  1  0
 20 21  1  0
 21 22  1  0
 21 23  1  0
  7 24  1  0
  4 25  1  0
 24 25  1  0
M  END
