piperidine-amides-8236-covalent
     RDKit          3D

 25 27  0  0  0  0  0  0  0  0999 V2000
    7.1890   -3.2780   19.1950 C   0  0  0  0  0  0  0  0  0  0  0  0
    6.4490   -4.0420   20.1910 C   0  0  0  0  0  0  0  0  0  0  0  0
    5.3340   -4.4970   19.8770 O   0  0  0  0  0  0  0  0  0  0  0  0
    7.0370   -4.3060   21.4510 N   0  0  0  0  0  0  0  0  0  0  0  0
    6.4150   -5.3150   22.2370 C   0  0  0  0  0  0  0  0  0  0  0  0
    5.5190   -4.5990   23.1930 C   0  0  0  0  0  0  0  0  0  0  0  0
    6.4080   -3.6690   23.9880 C   0  0  0  0  0  0  0  0  0  0  0  0
    5.6420   -3.1410   25.1420 C   0  0  0  0  0  0  0  0  0  0  0  0
    4.6830   -2.4150   24.9010 O   0  0  0  0  0  0  0  0  0  0  0  0
    6.0730   -3.5180   26.3870 N   0  0  0  0  0  0  0  0  0  0  0  0
    5.4470   -4.5850   27.0730 C   0  0  1  0  0  0  0  0  0  0  0  0
    5.6850   -5.8490   26.5240 C   0  0  0  0  0  0  0  0  0  0  0  0
    4.5940   -6.6150   26.1680 C   0  0  0  0  0  0  0  0  0  0  0  0
    4.3410   -6.8770   24.8130 C   0  0  0  0  0  0  0  0  0  0  0  0
    3.1500   -7.7190   24.4300 C   0  0  0  0  0  0  0  0  0  0  0  0
    2.1990   -8.3030   25.4930 C   0  0  0  0  0  0  0  0  0  0  0  0
    2.5440   -7.9740   26.8840 C   0  0  0  0  0  0  0  0  0  0  0  0
    3.7490   -7.1330   27.1200 C   0  0  0  0  0  0  0  0  0  0  0  0
    6.0070   -4.5470   28.4100 C   0  0  0  0  0  0  0  0  0  0  0  0
    7.1710   -5.2610   28.6060 C   0  0  0  0  0  0  0  0  0  0  0  0
    8.3010   -4.6290   28.1800 C   0  0  0  0  0  0  0  0  0  0  0  0
    7.8990   -3.1950   28.2410 C   0  0  0  0  0  0  0  0  0  0  0  0
    6.4780   -3.1400   28.6860 C   0  0  0  0  0  0  0  0  0  0  0  0
    6.8770   -2.5510   23.0790 C   0  0  0  0  0  0  0  0  0  0  0  0
    7.7940   -3.2300   22.0660 C   0  0  0  0  0  0  0  0  0  0  0  0
  1  2  1  0
  2  3  2  0
  2  4  1  0
  4  5  1  0
  5  6  1  0
  6  7  1  0
  7  8  1  0
  8  9  2  0
  8 10  1  0
 10 11  1  0
 11 12  1  6
 12 13  1  0
 13 14  2  0
 14 15  1  0
 15 16  2  0
 16 17  1  0
 13 18  1  0
 17 18  2  0
 11 19  1  0
 19 20  1  0
 20 21  1  0
 21 22  1  0
 19 23  1  0
 22 23  1  0
  7 24  1  0
  4 25  1  0
 24 25  1  0
M  END
