piperidine-amides-1181-covalent
     RDKit          3D

 23 24  0  0  0  0  0  0  0  0999 V2000
    7.1420   -3.2710   19.2030 C   0  0  0  0  0  0  0  0  0  0  0  0
    6.3850   -4.0540   20.2190 C   0  0  0  0  0  0  0  0  0  0  0  0
    5.3080   -4.5820   19.8980 O   0  0  0  0  0  0  0  0  0  0  0  0
    6.9420   -4.2170   21.5020 N   0  0  0  0  0  0  0  0  0  0  0  0
    7.7580   -3.2090   22.1370 C   0  0  0  0  0  0  0  0  0  0  0  0
    6.9130   -2.6110   23.2540 C   0  0  0  0  0  0  0  0  0  0  0  0
    6.5390   -3.7420   24.1390 C   0  0  0  0  0  0  0  0  0  0  0  0
    5.7660   -3.2930   25.3120 C   0  0  0  0  0  0  0  0  0  0  0  0
    4.5690   -3.0540   25.1150 O   0  0  0  0  0  0  0  0  0  0  0  0
    6.3810   -3.1620   26.5530 N   0  0  0  0  0  0  0  0  0  0  0  0
    5.9230   -3.7180   27.7710 C   0  0  1  0  0  0  0  0  0  0  0  0
    6.5300   -4.7600   28.4410 C   0  0  0  0  0  0  0  0  0  0  0  0
    5.5430   -5.2370   29.3850 O   0  0  0  0  0  0  0  0  0  0  0  0
    5.7640   -2.5630   28.7710 C   0  0  0  0  0  0  0  0  0  0  0  0
    6.8770   -1.9220   29.2490 C   0  0  0  0  0  0  0  0  0  0  0  0
    6.8300   -0.8100   30.2020 C   0  0  0  0  0  0  0  0  0  0  0  0
    5.5010   -0.3050   30.7130 C   0  0  0  0  0  0  0  0  0  0  0  0
    4.3140   -1.0750   30.1250 C   0  0  0  0  0  0  0  0  0  0  0  0
    2.6780   -0.6370   30.5970 Cl  0  0  0  0  0  0  0  0  0  0  0  0
    4.5140   -2.1280   29.2150 C   0  0  0  0  0  0  0  0  0  0  0  0
    3.3920   -2.7530   28.7450 F   0  0  0  0  0  0  0  0  0  0  0  0
    5.7750   -4.8400   23.4760 C   0  0  0  0  0  0  0  0  0  0  0  0
    6.5520   -5.3640   22.2840 C   0  0  0  0  0  0  0  0  0  0  0  0
  1  2  1  0
  2  3  2  0
  2  4  1  0
  4  5  1  0
  5  6  1  0
  6  7  1  0
  7  8  1  0
  8  9  2  0
  8 10  1  0
 10 11  1  0
 11 12  1  1
 12 13  1  0
 11 14  1  0
 14 15  2  0
 15 16  1  0
 16 17  2  0
 17 18  1  0
 18 19  1  0
 14 20  1  0
 18 20  2  0
 20 21  1  0
  7 22  1  0
  4 23  1  0
 22 23  1  0
M  END
