piperidine-amides-33299-covalent
     RDKit          3D

 29 31  0  0  0  0  0  0  0  0999 V2000
    7.1050   -3.3440   19.2910 C   0  0  0  0  0  0  0  0  0  0  0  0
    6.4540   -4.1770   20.3130 C   0  0  0  0  0  0  0  0  0  0  0  0
    5.4050   -4.7820   19.9740 O   0  0  0  0  0  0  0  0  0  0  0  0
    7.0370   -4.3220   21.5990 N   0  0  0  0  0  0  0  0  0  0  0  0
    6.5230   -5.3240   22.4520 C   0  0  0  0  0  0  0  0  0  0  0  0
    6.0640   -4.8370   23.7640 C   0  0  0  0  0  0  0  0  0  0  0  0
    6.6290   -3.5610   24.3120 C   0  0  0  0  0  0  0  0  0  0  0  0
    5.7140   -3.0240   25.3710 C   0  0  0  0  0  0  0  0  0  0  0  0
    4.5780   -2.6600   25.0190 O   0  0  0  0  0  0  0  0  0  0  0  0
    6.0500   -2.9580   26.7430 N   0  0  0  0  0  0  0  0  0  0  0  0
    5.7300   -4.0770   27.5700 C   0  0  0  0  0  0  0  0  0  0  0  0
    4.4230   -4.2490   28.1390 C   0  0  0  0  0  0  0  0  0  0  0  0
    5.1540   -4.4220   29.4210 C   0  0  0  0  0  0  0  0  0  0  0  0
    6.4370   -4.1650   28.9290 C   0  0  0  0  0  0  0  0  0  0  0  0
    5.9890   -1.5830   27.3700 C   0  0  2  0  0  0  0  0  0  0  0  0
    5.8870   -0.6540   26.1760 C   0  0  0  0  0  0  0  0  0  0  0  0
    5.3500    0.4890   27.0540 C   0  0  0  0  0  0  0  0  0  0  0  0
    6.1260    0.9230   28.2480 C   0  0  0  0  0  0  0  0  0  0  0  0
    6.8090   -0.0660   28.9580 N   0  0  0  0  0  0  0  0  0  0  0  0
    6.5450   -0.1500   30.2620 C   0  0  0  0  0  0  0  0  0  0  0  0
    7.4280   -0.6740   30.9770 O   0  0  0  0  0  0  0  0  0  0  0  0
    5.4130    0.3100   30.8820 O   0  0  0  0  0  0  0  0  0  0  0  0
    4.4300   -0.5060   31.4920 C   0  0  0  0  0  0  0  0  0  0  0  0
    4.3890   -1.7360   30.6560 C   0  0  0  0  0  0  0  0  0  0  0  0
    4.5140   -0.7680   32.8480 C   0  0  0  0  0  0  0  0  0  0  0  0
    2.9710   -0.2650   31.1610 C   0  0  0  0  0  0  0  0  0  0  0  0
    7.0120   -1.3160   28.2930 C   0  0  0  0  0  0  0  0  0  0  0  0
    6.9280   -2.5470   23.2570 C   0  0  0  0  0  0  0  0  0  0  0  0
    7.7160   -3.1980   22.1500 C   0  0  0  0  0  0  0  0  0  0  0  0
  1  2  1  0
  2  3  2  0
  2  4  1  0
  4  5  1  0
  5  6  1  0
  6  7  1  0
  7  8  1  0
  8  9  2  0
  8 10  1  0
 10 11  1  0
 11 12  1  0
 12 13  1  0
 11 14  1  0
 13 14  1  0
 15 10  1  6
 15 16  1  0
 16 17  1  0
 17 18  1  0
 18 19  1  0
 19 20  1  0
 20 21  2  0
 20 22  1  0
 23 22  1  0
 23 24  1  0
 23 25  1  0
 23 26  1  0
 15 27  1  0
 19 27  1  0
  7 28  1  0
  4 29  1  0
 28 29  1  0
M  END
