piperidine-amides-13610-covalent
     RDKit          3D

 30 32  0  0  0  0  0  0  0  0999 V2000
    7.0980   -3.2680   19.2060 C   0  0  0  0  0  0  0  0  0  0  0  0
    6.3240   -4.0530   20.2070 C   0  0  0  0  0  0  0  0  0  0  0  0
    5.2400   -4.5550   19.8760 O   0  0  0  0  0  0  0  0  0  0  0  0
    6.8530   -4.2570   21.4960 N   0  0  0  0  0  0  0  0  0  0  0  0
    6.5070   -5.4320   22.2490 C   0  0  0  0  0  0  0  0  0  0  0  0
    5.8150   -4.9200   23.5160 C   0  0  0  0  0  0  0  0  0  0  0  0
    6.7850   -4.0140   24.2030 C   0  0  0  0  0  0  0  0  0  0  0  0
    6.2310   -3.3490   25.3950 C   0  0  0  0  0  0  0  0  0  0  0  0
    4.9890   -3.3080   25.4990 O   0  0  0  0  0  0  0  0  0  0  0  0
    7.1260   -2.7960   26.3200 N   0  0  0  0  0  0  0  0  0  0  0  0
    7.0970   -2.9070   27.7270 C   0  0  2  0  0  0  0  0  0  0  0  0
    6.4500   -3.9630   28.3280 C   0  0  0  0  0  0  0  0  0  0  0  0
    5.1150   -3.7570   28.7620 C   0  0  0  0  0  0  0  0  0  0  0  0
    4.3350   -4.7080   29.3800 C   0  0  0  0  0  0  0  0  0  0  0  0
    4.8740   -6.0560   29.6320 C   0  0  0  0  0  0  0  0  0  0  0  0
    4.0830   -7.0030   30.2530 F   0  0  0  0  0  0  0  0  0  0  0  0
    6.2950   -6.3610   29.1950 C   0  0  0  0  0  0  0  0  0  0  0  0
    7.0160   -5.1940   28.5280 C   0  0  0  0  0  0  0  0  0  0  0  0
    6.7640   -1.7210   28.3780 C   0  0  0  0  0  0  0  0  0  0  0  0
    6.2000   -1.7520   29.7230 C   0  0  0  0  0  0  0  0  0  0  0  0
    5.9010   -0.3580   30.2690 C   0  0  0  0  0  0  0  0  0  0  0  0
    6.0280    0.9510   29.8060 C   0  0  0  0  0  0  0  0  0  0  0  0
    6.6330    0.7290   28.3840 C   0  0  0  0  0  0  0  0  0  0  0  0
    6.9070    2.1920   27.5310 S   0  0  0  0  0  0  0  0  0  0  0  0
    8.3820    2.9760   28.0520 C   0  0  0  0  0  0  0  0  0  0  0  0
    7.0470    1.8130   26.0720 O   0  0  0  0  0  0  0  0  0  0  0  0
    5.7310    3.1030   27.6880 O   0  0  0  0  0  0  0  0  0  0  0  0
    6.9480   -0.4890   27.7850 C   0  0  0  0  0  0  0  0  0  0  0  0
    7.2200   -2.8340   23.3590 C   0  0  0  0  0  0  0  0  0  0  0  0
    7.5810   -3.1770   22.0740 C   0  0  0  0  0  0  0  0  0  0  0  0
  1  2  1  0
  2  3  2  0
  2  4  1  0
  4  5  1  0
  5  6  1  0
  6  7  1  0
  7  8  1  0
  8  9  2  0
  8 10  1  0
 11 10  1  6
 11 12  1  0
 12 13  2  0
 13 14  1  0
 14 15  2  0
 15 16  1  0
 15 17  1  0
 12 18  1  0
 17 18  2  0
 11 19  1  0
 19 20  2  0
 20 21  1  0
 21 22  2  0
 22 23  1  0
 23 24  1  0
 24 25  1  0
 24 26  2  0
 24 27  2  0
 19 28  1  0
 23 28  2  0
  7 29  1  0
  4 30  1  0
 29 30  1  0
M  END
