piperidine-amides-32269-covalent
     RDKit          3D

 29 31  0  0  0  0  0  0  0  0999 V2000
    7.1260   -3.2730   19.2440 C   0  0  0  0  0  0  0  0  0  0  0  0
    6.2650   -4.0410   20.1880 C   0  0  0  0  0  0  0  0  0  0  0  0
    5.1570   -4.4370   19.8160 O   0  0  0  0  0  0  0  0  0  0  0  0
    6.7500   -4.3590   21.4630 N   0  0  0  0  0  0  0  0  0  0  0  0
    6.4150   -5.6010   22.1260 C   0  0  0  0  0  0  0  0  0  0  0  0
    5.7240   -5.2800   23.4690 C   0  0  0  0  0  0  0  0  0  0  0  0
    6.1400   -3.9190   23.9160 C   0  0  0  0  0  0  0  0  0  0  0  0
    5.7350   -3.6070   25.2940 C   0  0  0  0  0  0  0  0  0  0  0  0
    4.6520   -4.0640   25.6710 O   0  0  0  0  0  0  0  0  0  0  0  0
    6.5480   -2.8010   26.0820 N   0  0  0  0  0  0  0  0  0  0  0  0
    6.4200   -2.7860   27.5150 C   0  0  0  0  0  0  0  0  0  0  0  0
    6.5330   -3.8410   28.4060 C   0  0  0  0  0  0  0  0  0  0  0  0
    5.9620   -5.0960   28.1810 C   0  0  0  0  0  0  0  0  0  0  0  0
    5.4520   -5.7350   29.3000 O   0  0  0  0  0  0  0  0  0  0  0  0
    6.9170   -1.5250   25.6160 C   0  0  0  0  0  0  0  0  0  0  0  0
    5.8540   -0.5430   25.2970 C   0  0  0  0  0  0  0  0  0  0  0  0
    5.1580    0.4170   26.2540 C   0  0  0  0  0  0  0  0  0  0  0  0
    4.1220    1.2790   25.5800 C   0  0  0  0  0  0  0  0  0  0  0  0
    3.8140    1.2370   24.2480 C   0  0  0  0  0  0  0  0  0  0  0  0
    4.3930    0.3700   23.1790 C   0  0  0  0  0  0  0  0  0  0  0  0
    5.4440   -0.5150   23.8560 C   0  0  0  0  0  0  0  0  0  0  0  0
    7.8760   -1.3640   24.4330 C   0  0  0  0  0  0  0  0  0  0  0  0
    7.8960   -0.0950   23.5530 C   0  0  0  0  0  0  0  0  0  0  0  0
    8.8150    0.1080   22.3960 C   0  0  0  0  0  0  0  0  0  0  0  0
    9.7910   -0.9910   22.0600 C   0  0  0  0  0  0  0  0  0  0  0  0
    9.7600   -2.2070   22.9160 C   0  0  0  0  0  0  0  0  0  0  0  0
    8.9090   -2.4490   24.0170 C   0  0  0  0  0  0  0  0  0  0  0  0
    7.5400   -3.5960   23.5660 C   0  0  0  0  0  0  0  0  0  0  0  0
    7.5650   -3.4040   22.1000 C   0  0  0  0  0  0  0  0  0  0  0  0
  1  2  1  0
  2  3  2  0
  2  4  1  0
  4  5  1  0
  5  6  1  0
  6  7  1  0
  7  8  1  0
  8  9  2  0
  8 10  1  0
 10 11  1  0
 11 12  1  0
 12 13  1  0
 13 14  1  0
 10 15  1  0
 15 16  1  0
 16 17  2  0
 17 18  1  0
 18 19  2  0
 19 20  1  0
 16 21  1  0
 20 21  2  0
 15 22  1  0
 22 23  2  0
 23 24  1  0
 24 25  2  0
 25 26  1  0
 22 27  1  0
 26 27  2  0
  7 28  1  0
  4 29  1  0
 28 29  1  0
M  END
