piperidine-amides-35349-covalent
     RDKit          3D

 34 37  0  0  0  0  0  0  0  0999 V2000
    7.0350   -3.2820   19.2280 C   0  0  0  0  0  0  0  0  0  0  0  0
    6.2740   -4.1040   20.2050 C   0  0  0  0  0  0  0  0  0  0  0  0
    5.1950   -4.5580   19.8570 O   0  0  0  0  0  0  0  0  0  0  0  0
    6.8050   -4.3810   21.4460 N   0  0  0  0  0  0  0  0  0  0  0  0
    6.5120   -5.6290   22.1020 C   0  0  0  0  0  0  0  0  0  0  0  0
    5.6750   -5.3500   23.3170 C   0  0  0  0  0  0  0  0  0  0  0  0
    6.4430   -4.3630   24.1800 C   0  0  0  0  0  0  0  0  0  0  0  0
    5.5850   -4.0350   25.3340 C   0  0  0  0  0  0  0  0  0  0  0  0
    4.5090   -3.4630   25.1050 O   0  0  0  0  0  0  0  0  0  0  0  0
    5.9190   -4.3420   26.6720 N   0  0  0  0  0  0  0  0  0  0  0  0
    5.1910   -5.4560   27.2080 C   0  0  0  0  0  0  0  0  0  0  0  0
    5.8240   -5.8560   28.5100 C   0  0  0  0  0  0  0  0  0  0  0  0
    6.7630   -4.9430   28.8310 O   0  0  0  0  0  0  0  0  0  0  0  0
    6.5430   -3.6530   28.7140 C   0  0  0  0  0  0  0  0  0  0  0  0
    5.9120   -3.2740   27.5640 C   0  0  2  0  0  0  0  0  0  0  0  0
    4.6400   -2.7450   27.7400 C   0  0  0  0  0  0  0  0  0  0  0  0
    4.4290   -1.2890   28.0790 C   0  0  2  0  0  0  0  0  0  0  0  0
    5.0330   -0.9010   26.7590 C   0  0  0  0  0  0  0  0  0  0  0  0
    6.4000   -1.3970   26.9230 N   0  0  0  0  0  0  0  0  0  0  0  0
    7.1060   -1.1160   25.6640 C   0  0  0  0  0  0  0  0  0  0  0  0
    6.2360   -0.5920   24.7130 O   0  0  0  0  0  0  0  0  0  0  0  0
    8.4760   -1.2980   25.3620 O   0  0  0  0  0  0  0  0  0  0  0  0
    9.1220   -1.7600   24.1880 C   0  0  0  0  0  0  0  0  0  0  0  0
   10.4460   -1.0830   24.0420 C   0  0  0  0  0  0  0  0  0  0  0  0
    9.4480   -3.1220   23.6760 C   0  0  0  0  0  0  0  0  0  0  0  0
    8.6610   -0.8800   23.0380 C   0  0  0  0  0  0  0  0  0  0  0  0
    6.6390   -1.0230   28.2860 C   0  0  0  0  0  0  0  0  0  0  0  0
    7.8840   -0.7970   28.8120 C   0  0  0  0  0  0  0  0  0  0  0  0
    8.0290   -0.3900   30.2470 C   0  0  0  0  0  0  0  0  0  0  0  0
    6.7690   -0.2460   31.0660 C   0  0  0  0  0  0  0  0  0  0  0  0
    5.4650   -0.5400   30.3580 C   0  0  0  0  0  0  0  0  0  0  0  0
    5.4530   -0.9110   29.0390 C   0  0  0  0  0  0  0  0  0  0  0  0
    6.8640   -3.1520   23.4910 C   0  0  0  0  0  0  0  0  0  0  0  0
    7.4970   -3.3900   22.1750 C   0  0  0  0  0  0  0  0  0  0  0  0
  1  2  1  0
  2  3  2  0
  2  4  1  0
  4  5  1  0
  5  6  1  0
  6  7  1  0
  7  8  1  0
  8  9  2  0
  8 10  1  0
 10 11  1  0
 11 12  1  0
 12 13  1  0
 13 14  1  0
 10 15  1  0
 14 15  1  0
 15 16  1  1
 17 16  1  6
 17 18  1  0
 18 19  1  0
 19 20  1  0
 20 21  2  0
 20 22  1  0
 23 22  1  0
 23 24  1  0
 23 25  1  0
 23 26  1  0
 19 27  1  0
 27 28  1  0
 28 29  2  0
 29 30  1  0
 30 31  2  0
 17 32  1  0
 27 32  2  0
 31 32  1  0
  7 33  1  0
  4 34  1  0
 33 34  1  0
M  END
