piperidine-amides-6859-covalent
     RDKit          3D

 23 25  0  0  0  0  0  0  0  0999 V2000
    7.0460   -3.3290   19.3710 C   0  0  0  0  0  0  0  0  0  0  0  0
    6.3920   -4.1900   20.3690 C   0  0  0  0  0  0  0  0  0  0  0  0
    5.4430   -4.9270   20.0110 O   0  0  0  0  0  0  0  0  0  0  0  0
    6.8520   -4.2160   21.7070 N   0  0  0  0  0  0  0  0  0  0  0  0
    7.5830   -3.0860   22.2290 C   0  0  0  0  0  0  0  0  0  0  0  0
    6.7630   -2.5710   23.4210 C   0  0  0  0  0  0  0  0  0  0  0  0
    6.6400   -3.7220   24.3960 C   0  0  0  0  0  0  0  0  0  0  0  0
    5.8700   -3.2840   25.6150 C   0  0  0  0  0  0  0  0  0  0  0  0
    4.6240   -3.3990   25.5490 O   0  0  0  0  0  0  0  0  0  0  0  0
    6.4860   -2.7460   26.8160 N   0  0  0  0  0  0  0  0  0  0  0  0
    6.5920   -1.2960   26.9260 C   0  0  1  0  0  0  0  0  0  0  0  0
    5.3680   -0.8600   26.1640 C   0  0  0  0  0  0  0  0  0  0  0  0
    5.0110    0.4360   26.2420 C   0  0  0  0  0  0  0  0  0  0  0  0
    5.8920    1.1950   26.8990 C   0  0  0  0  0  0  0  0  0  0  0  0
    6.3670    0.7610   28.0960 C   0  0  0  0  0  0  0  0  0  0  0  0
    6.3960    1.6600   29.0400 C   0  0  0  0  0  0  0  0  0  0  0  0
    6.8200    1.6100   30.4270 C   0  0  0  0  0  0  0  0  0  0  0  0
    7.2170    0.1200   30.3730 C   0  0  0  0  0  0  0  0  0  0  0  0
    7.7770   -0.1270   32.0140 Cl  0  0  0  0  0  0  0  0  0  0  0  0
    7.2710   -1.1290   29.3850 C   0  0  0  0  0  0  0  0  0  0  0  0
    6.7410   -0.5390   28.1470 C   0  0  0  0  0  0  0  0  0  0  0  0
    5.8760   -4.8550   23.7310 C   0  0  0  0  0  0  0  0  0  0  0  0
    6.4830   -5.2860   22.5700 C   0  0  0  0  0  0  0  0  0  0  0  0
  1  2  1  0
  2  3  2  0
  2  4  1  0
  4  5  1  0
  5  6  1  0
  6  7  1  0
  7  8  1  0
  8  9  2  0
  8 10  1  0
 11 10  1  1
 11 12  1  0
 12 13  1  0
 13 14  1  0
 14 15  1  0
 15 16  2  0
 16 17  1  0
 17 18  2  0
 18 19  1  0
 18 20  1  0
 11 21  1  0
 15 21  1  0
 20 21  2  0
  7 22  1  0
  4 23  1  0
 22 23  1  0
M  END
