piperidine-amides-30563-covalent
     RDKit          3D

 23 25  0  0  0  0  0  0  0  0999 V2000
    7.0330   -3.3690   19.4300 C   0  0  0  0  0  0  0  0  0  0  0  0
    6.3790   -4.2550   20.3970 C   0  0  0  0  0  0  0  0  0  0  0  0
    5.3940   -4.9090   20.0030 O   0  0  0  0  0  0  0  0  0  0  0  0
    6.8490   -4.4380   21.7210 N   0  0  0  0  0  0  0  0  0  0  0  0
    6.5350   -5.5910   22.5130 C   0  0  0  0  0  0  0  0  0  0  0  0
    5.7740   -5.0660   23.7130 C   0  0  0  0  0  0  0  0  0  0  0  0
    6.2920   -3.7600   24.2870 C   0  0  0  0  0  0  0  0  0  0  0  0
    5.3280   -3.1470   25.2800 C   0  0  0  0  0  0  0  0  0  0  0  0
    4.5170   -2.2670   24.8910 O   0  0  0  0  0  0  0  0  0  0  0  0
    5.2490   -3.4950   26.6620 N   0  0  0  0  0  0  0  0  0  0  0  0
    4.8780   -2.5190   27.6880 C   0  0  0  0  0  0  0  0  0  0  0  0
    4.4020   -3.2330   28.9020 C   0  0  0  0  0  0  0  0  0  0  0  0
    4.9690   -4.5440   29.2440 C   0  0  0  0  0  0  0  0  0  0  0  0
    5.9620   -5.0780   28.3030 C   0  0  0  0  0  0  0  0  0  0  0  0
    6.6220   -6.3890   28.5380 C   0  0  0  0  0  0  0  0  0  0  0  0
    6.1410   -7.0400   29.7830 C   0  0  0  0  0  0  0  0  0  0  0  0
    5.2030   -6.5040   30.6260 C   0  0  0  0  0  0  0  0  0  0  0  0
    4.7000   -7.4570   32.1790 Br  0  0  0  0  0  0  0  0  0  0  0  0
    4.6170   -5.2650   30.3570 C   0  0  0  0  0  0  0  0  0  0  0  0
    3.5720   -4.6770   31.2900 C   0  0  0  0  0  0  0  0  0  0  0  0
    6.2960   -4.2980   27.0960 C   0  0  0  0  0  0  0  0  0  0  0  0
    6.6500   -2.7950   23.1320 C   0  0  0  0  0  0  0  0  0  0  0  0
    7.4730   -3.3090   22.4110 C   0  0  0  0  0  0  0  0  0  0  0  0
  1  2  1  0
  2  3  2  0
  2  4  1  0
  4  5  1  0
  5  6  1  0
  6  7  1  0
  7  8  1  0
  8  9  2  0
  8 10  1  0
 10 11  1  0
 11 12  1  0
 12 13  1  0
 13 14  2  0
 14 15  1  0
 15 16  2  0
 16 17  1  0
 17 18  1  0
 13 19  1  0
 17 19  2  0
 19 20  1  0
 10 21  1  0
 14 21  1  0
  7 22  1  0
  4 23  1  0
 22 23  1  0
M  END
