piperidine-amides-19282-covalent
     RDKit          3D

 22 23  0  0  0  0  0  0  0  0999 V2000
    7.0430   -3.4210   19.3530 C   0  0  0  0  0  0  0  0  0  0  0  0
    6.3900   -4.2060   20.3800 C   0  0  0  0  0  0  0  0  0  0  0  0
    5.3990   -4.9090   20.0050 O   0  0  0  0  0  0  0  0  0  0  0  0
    6.8180   -4.2740   21.7320 N   0  0  0  0  0  0  0  0  0  0  0  0
    7.8080   -3.2820   22.2280 C   0  0  0  0  0  0  0  0  0  0  0  0
    6.9050   -2.5000   23.2450 C   0  0  0  0  0  0  0  0  0  0  0  0
    6.1220   -3.5520   23.9890 C   0  0  0  0  0  0  0  0  0  0  0  0
    5.5310   -2.9870   25.3640 C   0  0  0  0  0  0  0  0  0  0  0  0
    4.5800   -2.2610   25.1370 O   0  0  0  0  0  0  0  0  0  0  0  0
    6.1800   -3.4330   26.3530 N   0  0  0  0  0  0  0  0  0  0  0  0
    6.7330   -4.3870   27.1610 C   0  0  0  0  0  0  0  0  0  0  0  0
    6.3500   -5.5820   27.7050 C   0  0  0  0  0  0  0  0  0  0  0  0
    5.1220   -6.0140   27.0320 N   0  0  0  0  0  0  0  0  0  0  0  0
    6.3450   -2.1550   27.1160 C   0  0  0  0  0  0  0  0  0  0  0  0
    6.9530   -2.0430   28.4680 C   0  0  0  0  0  0  0  0  0  0  0  0
    7.0360   -0.6420   29.1120 C   0  0  0  0  0  0  0  0  0  0  0  0
    6.5200    0.4090   28.3500 C   0  0  0  0  0  0  0  0  0  0  0  0
    5.9130    0.6440   27.1150 C   0  0  0  0  0  0  0  0  0  0  0  0
    5.4570    1.7830   26.5060 F   0  0  0  0  0  0  0  0  0  0  0  0
    5.9050   -0.8000   26.6100 C   0  0  0  0  0  0  0  0  0  0  0  0
    6.6910   -4.9310   23.8700 C   0  0  0  0  0  0  0  0  0  0  0  0
    6.4440   -5.3660   22.5810 C   0  0  0  0  0  0  0  0  0  0  0  0
  1  2  1  0
  2  3  2  0
  2  4  1  0
  4  5  1  0
  5  6  1  0
  6  7  1  0
  7  8  1  0
  8  9  2  0
  8 10  1  0
 10 11  1  0
 11 12  1  0
 12 13  3  0
 10 14  1  0
 14 15  2  0
 15 16  1  0
 16 17  2  0
 17 18  1  0
 18 19  1  0
 14 20  1  0
 18 20  2  0
  7 21  1  0
  4 22  1  0
 21 22  1  0
M  END
