piperidine-amides-33393-covalent
     RDKit          3D

 25 26  0  0  0  0  0  0  0  0999 V2000
    7.1180   -3.3050   19.2370 C   0  0  0  0  0  0  0  0  0  0  0  0
    6.4090   -4.0950   20.2590 C   0  0  0  0  0  0  0  0  0  0  0  0
    5.3120   -4.5900   19.9090 O   0  0  0  0  0  0  0  0  0  0  0  0
    6.9690   -4.3430   21.5440 N   0  0  0  0  0  0  0  0  0  0  0  0
    6.4580   -5.4360   22.2850 C   0  0  0  0  0  0  0  0  0  0  0  0
    5.9690   -5.0590   23.6100 C   0  0  0  0  0  0  0  0  0  0  0  0
    5.7880   -3.6060   23.8490 C   0  0  0  0  0  0  0  0  0  0  0  0
    5.3800   -3.3270   25.2670 C   0  0  0  0  0  0  0  0  0  0  0  0
    4.1640   -3.2480   25.5180 O   0  0  0  0  0  0  0  0  0  0  0  0
    6.2830   -3.1520   26.3360 N   0  0  0  0  0  0  0  0  0  0  0  0
    6.4650   -4.1160   27.3610 C   0  0  0  0  0  0  0  0  0  0  0  0
    7.0240   -5.4100   27.0130 C   0  0  0  0  0  0  0  0  0  0  0  0
    7.8580   -5.8600   28.2200 C   0  0  0  0  0  0  0  0  0  0  0  0
    7.8360   -5.5500   25.7960 C   0  0  0  0  0  0  0  0  0  0  0  0
    6.5170   -1.7400   26.7070 C   0  0  2  0  0  0  0  0  0  0  0  0
    6.8100   -1.6450   28.1730 C   0  0  0  0  0  0  0  0  0  0  0  0
    5.2650   -0.8510   26.4930 C   0  0  0  0  0  0  0  0  0  0  0  0
    4.1370   -0.9450   27.5030 C   0  0  0  0  0  0  0  0  0  0  0  0
    2.9260   -0.0700   27.2710 C   0  0  0  0  0  0  0  0  0  0  0  0
    2.8690    0.8550   26.0670 C   0  0  0  0  0  0  0  0  0  0  0  0
    4.0640    0.8080   25.1940 C   0  0  0  0  0  0  0  0  0  0  0  0
    5.2070    0.0160   25.3680 C   0  0  0  0  0  0  0  0  0  0  0  0
    6.5900    0.1730   24.0720 Br  0  0  0  0  0  0  0  0  0  0  0  0
    6.8740   -2.7100   23.3550 C   0  0  0  0  0  0  0  0  0  0  0  0
    7.6860   -3.3050   22.2310 C   0  0  0  0  0  0  0  0  0  0  0  0
  1  2  1  0
  2  3  2  0
  2  4  1  0
  4  5  1  0
  5  6  1  0
  6  7  1  0
  7  8  1  0
  8  9  2  0
  8 10  1  0
 10 11  1  0
 11 12  1  0
 12 13  1  0
 12 14  1  0
 10 15  1  0
 15 16  1  1
 15 17  1  0
 17 18  2  0
 18 19  1  0
 19 20  2  0
 20 21  1  0
 17 22  1  0
 21 22  2  0
 22 23  1  0
  7 24  1  0
  4 25  1  0
 24 25  1  0
M  END
