piperidine-amides-13200-covalent
     RDKit          3D

 19 19  0  0  0  0  0  0  0  0999 V2000
    7.1170   -3.2470   19.1700 C   0  0  0  0  0  0  0  0  0  0  0  0
    6.3440   -3.9900   20.1960 C   0  0  0  0  0  0  0  0  0  0  0  0
    5.2570   -4.4780   19.8440 O   0  0  0  0  0  0  0  0  0  0  0  0
    6.8420   -4.1800   21.4910 N   0  0  0  0  0  0  0  0  0  0  0  0
    7.5900   -3.1350   22.1160 C   0  0  0  0  0  0  0  0  0  0  0  0
    7.1450   -2.7740   23.4650 C   0  0  0  0  0  0  0  0  0  0  0  0
    6.5410   -3.8850   24.2280 C   0  0  0  0  0  0  0  0  0  0  0  0
    5.7980   -3.3780   25.4140 C   0  0  0  0  0  0  0  0  0  0  0  0
    4.5680   -3.2100   25.3100 O   0  0  0  0  0  0  0  0  0  0  0  0
    6.4590   -3.0810   26.6260 N   0  0  0  0  0  0  0  0  0  0  0  0
    6.0690   -3.6280   27.9520 C   0  0  0  0  0  0  0  0  0  0  0  0
    6.2580   -5.1070   28.0950 C   0  0  0  0  0  0  0  0  0  0  0  0
    5.2900   -5.8870   28.8580 C   0  0  0  0  0  0  0  0  0  0  0  0
    4.6490   -5.3160   29.9290 C   0  0  0  0  0  0  0  0  0  0  0  0
    6.1670   -6.9820   29.4890 C   0  0  0  0  0  0  0  0  0  0  0  0
    4.2520   -6.5920   28.0670 C   0  0  0  0  0  0  0  0  0  0  0  0
    3.0260   -5.8970   28.0160 O   0  0  0  0  0  0  0  0  0  0  0  0
    5.7560   -4.8850   23.4370 C   0  0  0  0  0  0  0  0  0  0  0  0
    6.4320   -5.2710   22.3220 C   0  0  0  0  0  0  0  0  0  0  0  0
  1  2  1  0
  2  3  2  0
  2  4  1  0
  4  5  1  0
  5  6  1  0
  6  7  1  0
  7  8  1  0
  8  9  2  0
  8 10  1  0
 10 11  1  0
 11 12  1  0
 13 12  1  0
 13 14  1  0
 13 15  1  0
 13 16  1  0
 16 17  1  0
  7 18  1  0
  4 19  1  0
 18 19  1  0
M  END
