piperidine-amides-23605-covalent
     RDKit          3D

 24 25  0  0  0  0  0  0  0  0999 V2000
    7.0820   -3.2600   19.2550 C   0  0  0  0  0  0  0  0  0  0  0  0
    6.3400   -4.0260   20.2800 C   0  0  0  0  0  0  0  0  0  0  0  0
    5.2860   -4.5850   19.8940 O   0  0  0  0  0  0  0  0  0  0  0  0
    6.7930   -4.1810   21.6210 N   0  0  0  0  0  0  0  0  0  0  0  0
    7.6340   -3.1850   22.1990 C   0  0  0  0  0  0  0  0  0  0  0  0
    7.2850   -2.9290   23.5770 C   0  0  0  0  0  0  0  0  0  0  0  0
    6.1060   -3.7140   23.9720 C   0  0  0  0  0  0  0  0  0  0  0  0
    5.6330   -3.4030   25.3680 C   0  0  0  0  0  0  0  0  0  0  0  0
    4.4560   -3.6680   25.6700 O   0  0  0  0  0  0  0  0  0  0  0  0
    6.4550   -2.8000   26.3390 N   0  0  0  0  0  0  0  0  0  0  0  0
    6.9750   -1.4930   26.2650 C   0  0  0  0  0  0  0  0  0  0  0  0
    6.2600   -3.2350   27.7150 C   0  0  0  0  0  0  0  0  0  0  0  0
    6.4900   -2.1650   28.8040 C   0  0  0  0  0  0  0  0  0  0  0  0
    7.5260   -1.4270   29.3970 C   0  0  0  0  0  0  0  0  0  0  0  0
    7.0360   -0.4400   30.5240 C   0  0  0  0  0  0  0  0  0  0  0  0
    5.5420   -0.5200   30.7020 C   0  0  0  0  0  0  0  0  0  0  0  0
    5.0740    0.4430   31.8000 C   0  0  0  0  0  0  0  0  0  0  0  0
    5.8390    1.5350   32.2070 O   0  0  0  0  0  0  0  0  0  0  0  0
    3.8180    0.2010   32.4130 N   0  0  0  0  0  0  0  0  0  0  0  0
    3.8960    0.7570   33.7000 C   0  0  0  0  0  0  0  0  0  0  0  0
    4.5070   -1.3230   30.0390 C   0  0  0  0  0  0  0  0  0  0  0  0
    5.0160   -2.2370   28.9870 C   0  0  0  0  0  0  0  0  0  0  0  0
    6.3330   -5.1780   23.7300 C   0  0  0  0  0  0  0  0  0  0  0  0
    6.5470   -5.4170   22.3530 C   0  0  0  0  0  0  0  0  0  0  0  0
  1  2  1  0
  2  3  2  0
  2  4  1  0
  4  5  1  0
  5  6  1  0
  6  7  1  0
  7  8  1  0
  8  9  2  0
  8 10  1  0
 10 11  1  0
 10 12  1  0
 12 13  1  0
 13 14  2  0
 14 15  1  0
 15 16  2  0
 16 17  1  0
 17 18  2  0
 17 19  1  0
 19 20  1  0
 16 21  1  0
 13 22  1  0
 21 22  2  0
  7 23  1  0
  4 24  1  0
 23 24  1  0
M  END
