piperidine-amides-3505-covalent
     RDKit          3D

 20 21  0  0  0  0  0  0  0  0999 V2000
    7.2100   -3.2580   19.2150 C   0  0  0  0  0  0  0  0  0  0  0  0
    6.4060   -3.9490   20.2050 C   0  0  0  0  0  0  0  0  0  0  0  0
    5.3310   -4.4630   19.8760 O   0  0  0  0  0  0  0  0  0  0  0  0
    6.9090   -4.0870   21.5430 N   0  0  0  0  0  0  0  0  0  0  0  0
    6.2820   -5.0130   22.4200 C   0  0  0  0  0  0  0  0  0  0  0  0
    5.2600   -4.2600   23.2160 C   0  0  0  0  0  0  0  0  0  0  0  0
    5.9620   -3.0380   23.8030 C   0  0  0  0  0  0  0  0  0  0  0  0
    5.5640   -2.8550   25.2380 C   0  0  0  0  0  0  0  0  0  0  0  0
    4.3820   -2.6120   25.5440 O   0  0  0  0  0  0  0  0  0  0  0  0
    6.5010   -2.9590   26.2990 N   0  0  0  0  0  0  0  0  0  0  0  0
    6.1400   -3.8450   27.3930 C   0  0  0  0  0  0  0  0  0  0  0  0
    5.6970   -5.0990   26.6960 C   0  0  0  0  0  0  0  0  0  0  0  0
    6.0170   -5.3520   25.4140 C   0  0  0  0  0  0  0  0  0  0  0  0
    5.4810   -6.5280   25.0870 C   0  0  0  0  0  0  0  0  0  0  0  0
    5.5370   -7.1870   23.8900 C   0  0  0  0  0  0  0  0  0  0  0  0
    6.8640   -7.5300   23.3770 C   0  0  0  0  0  0  0  0  0  0  0  0
    4.7910   -7.0570   26.1980 N   0  0  0  0  0  0  0  0  0  0  0  0
    4.9500   -6.1330   27.1850 N   0  0  0  0  0  0  0  0  0  0  0  0
    7.4530   -3.0250   23.5720 C   0  0  0  0  0  0  0  0  0  0  0  0
    7.6960   -3.0330   22.2050 C   0  0  0  0  0  0  0  0  0  0  0  0
  1  2  1  0
  2  3  2  0
  2  4  1  0
  4  5  1  0
  5  6  1  0
  6  7  1  0
  7  8  1  0
  8  9  2  0
  8 10  1  0
 10 11  1  0
 11 12  1  0
 12 13  2  0
 13 14  1  0
 14 15  1  0
 15 16  1  0
 14 17  2  0
 12 18  1  0
 17 18  1  0
  7 19  1  0
  4 20  1  0
 19 20  1  0
M  END
