piperidine-amides-9873-covalent
     RDKit          3D

 28 29  0  0  0  0  0  0  0  0999 V2000
    7.0680   -3.2940   19.2960 C   0  0  0  0  0  0  0  0  0  0  0  0
    6.3590   -4.0790   20.3140 C   0  0  0  0  0  0  0  0  0  0  0  0
    5.3130   -4.6710   19.9280 O   0  0  0  0  0  0  0  0  0  0  0  0
    6.8540   -4.1880   21.6240 N   0  0  0  0  0  0  0  0  0  0  0  0
    7.7050   -3.1620   22.2030 C   0  0  0  0  0  0  0  0  0  0  0  0
    7.3180   -2.9250   23.6410 C   0  0  0  0  0  0  0  0  0  0  0  0
    6.0160   -3.5930   23.9890 C   0  0  0  0  0  0  0  0  0  0  0  0
    5.6150   -3.2900   25.3880 C   0  0  0  0  0  0  0  0  0  0  0  0
    4.4460   -2.8980   25.5710 O   0  0  0  0  0  0  0  0  0  0  0  0
    6.4630   -3.4020   26.5100 N   0  0  0  0  0  0  0  0  0  0  0  0
    5.9640   -3.7100   27.8360 C   0  0  2  0  0  0  0  0  0  0  0  0
    6.7520   -4.8180   28.5260 C   0  0  0  0  0  0  0  0  0  0  0  0
    4.5460   -4.1060   27.8570 C   0  0  0  0  0  0  0  0  0  0  0  0
    3.5740   -3.3540   28.5330 C   0  0  0  0  0  0  0  0  0  0  0  0
    2.1940   -3.6780   28.6060 C   0  0  0  0  0  0  0  0  0  0  0  0
    1.6140   -4.8000   28.0090 C   0  0  0  0  0  0  0  0  0  0  0  0
    0.2560   -5.1610   28.0600 O   0  0  0  0  0  0  0  0  0  0  0  0
   -0.4960   -4.6830   29.1620 C   0  0  0  0  0  0  0  0  0  0  0  0
   -1.1510   -5.7110   30.0580 C   0  0  0  0  0  0  0  0  0  0  0  0
   -0.4750   -6.0640   31.1760 F   0  0  0  0  0  0  0  0  0  0  0  0
   -2.3670   -5.1670   30.3930 F   0  0  0  0  0  0  0  0  0  0  0  0
   -1.4030   -6.8630   29.3030 F   0  0  0  0  0  0  0  0  0  0  0  0
    2.5080   -5.7010   27.2480 C   0  0  0  0  0  0  0  0  0  0  0  0
    2.2420   -6.6380   26.7040 O   0  0  0  0  0  0  0  0  0  0  0  0
    2.8940   -7.8610   26.8860 C   0  0  0  0  0  0  0  0  0  0  0  0
    4.0060   -5.3280   27.1820 C   0  0  0  0  0  0  0  0  0  0  0  0
    6.0500   -5.0550   23.7330 C   0  0  0  0  0  0  0  0  0  0  0  0
    6.6090   -5.3960   22.3650 C   0  0  0  0  0  0  0  0  0  0  0  0
  1  2  1  0
  2  3  2  0
  2  4  1  0
  4  5  1  0
  5  6  1  0
  6  7  1  0
  7  8  1  0
  8  9  2  0
  8 10  1  0
 10 11  1  0
 11 12  1  6
 11 13  1  0
 13 14  2  0
 14 15  1  0
 15 16  2  0
 16 17  1  0
 17 18  1  0
 18 19  1  0
 19 20  1  0
 19 21  1  0
 19 22  1  0
 16 23  1  0
 23 24  1  0
 24 25  1  0
 13 26  1  0
 23 26  2  0
  7 27  1  0
  4 28  1  0
 27 28  1  0
M  END
