piperidine-amides-4605-covalent
     RDKit          3D

 25 27  0  0  0  0  0  0  0  0999 V2000
    7.1290   -3.3220   19.2540 C   0  0  0  0  0  0  0  0  0  0  0  0
    6.3590   -4.0980   20.2460 C   0  0  0  0  0  0  0  0  0  0  0  0
    5.2700   -4.5720   19.8810 O   0  0  0  0  0  0  0  0  0  0  0  0
    6.8890   -4.3280   21.5120 N   0  0  0  0  0  0  0  0  0  0  0  0
    6.3780   -5.3960   22.3010 C   0  0  0  0  0  0  0  0  0  0  0  0
    5.8320   -4.9580   23.5890 C   0  0  0  0  0  0  0  0  0  0  0  0
    6.5850   -3.8410   24.1980 C   0  0  0  0  0  0  0  0  0  0  0  0
    5.9220   -3.2410   25.3700 C   0  0  0  0  0  0  0  0  0  0  0  0
    4.6910   -3.3930   25.5220 O   0  0  0  0  0  0  0  0  0  0  0  0
    6.6910   -2.5000   26.2790 N   0  0  0  0  0  0  0  0  0  0  0  0
    6.1100   -1.6070   27.2910 C   0  0  2  0  0  0  0  0  0  0  0  0
    5.7670   -0.2790   26.7150 C   0  0  0  0  0  0  0  0  0  0  0  0
    5.9570    0.7820   27.7040 C   0  0  0  0  0  0  0  0  0  0  0  0
    6.4960    0.0240   28.8220 N   0  0  0  0  0  0  0  0  0  0  0  0
    6.5170    0.4050   30.1870 C   0  0  0  0  0  0  0  0  0  0  0  0
    7.4970   -0.0640   31.0360 C   0  0  0  0  0  0  0  0  0  0  0  0
    7.5030    0.3090   32.3470 C   0  0  0  0  0  0  0  0  0  0  0  0
    6.5390    1.1470   32.8190 C   0  0  0  0  0  0  0  0  0  0  0  0
    5.5500    1.6360   32.0130 C   0  0  0  0  0  0  0  0  0  0  0  0
    4.6100    2.4660   32.5210 O   0  0  0  0  0  0  0  0  0  0  0  0
    3.5150    2.8710   31.7320 C   0  0  0  0  0  0  0  0  0  0  0  0
    5.5550    1.2520   30.6890 C   0  0  0  0  0  0  0  0  0  0  0  0
    6.7040   -1.3380   28.4870 C   0  0  0  0  0  0  0  0  0  0  0  0
    6.9100   -2.7800   23.1610 C   0  0  0  0  0  0  0  0  0  0  0  0
    7.7120   -3.3340   22.1660 C   0  0  0  0  0  0  0  0  0  0  0  0
  1  2  1  0
  2  3  2  0
  2  4  1  0
  4  5  1  0
  5  6  1  0
  6  7  1  0
  7  8  1  0
  8  9  2  0
  8 10  1  0
 11 10  1  6
 11 12  1  0
 12 13  1  0
 13 14  1  0
 14 15  1  0
 15 16  2  0
 16 17  1  0
 17 18  2  0
 18 19  1  0
 19 20  1  0
 20 21  1  0
 15 22  1  0
 19 22  2  0
 11 23  1  0
 14 23  1  0
  7 24  1  0
  4 25  1  0
 24 25  1  0
M  END
