piperidine-amides-29677-covalent
     RDKit          3D

 27 30  0  0  0  0  0  0  0  0999 V2000
    7.0830   -3.3640   19.3040 C   0  0  0  0  0  0  0  0  0  0  0  0
    6.4290   -4.2180   20.2830 C   0  0  0  0  0  0  0  0  0  0  0  0
    5.3870   -4.8030   19.9810 O   0  0  0  0  0  0  0  0  0  0  0  0
    7.0410   -4.4330   21.5650 N   0  0  0  0  0  0  0  0  0  0  0  0
    7.8130   -3.4100   22.2000 C   0  0  0  0  0  0  0  0  0  0  0  0
    7.0020   -2.7740   23.2700 C   0  0  0  0  0  0  0  0  0  0  0  0
    6.4340   -3.8480   24.1930 C   0  0  0  0  0  0  0  0  0  0  0  0
    5.2730   -3.2480   24.8750 C   0  0  0  0  0  0  0  0  0  0  0  0
    4.3400   -2.7380   24.2460 O   0  0  0  0  0  0  0  0  0  0  0  0
    5.1400   -3.2180   26.2650 N   0  0  0  0  0  0  0  0  0  0  0  0
    3.7980   -3.0400   26.7570 C   0  0  0  0  0  0  0  0  0  0  0  0
    3.8160   -3.9250   27.9470 C   0  0  0  0  0  0  0  0  0  0  0  0
    5.0870   -4.0990   28.2780 C   0  0  2  0  0  0  0  0  0  0  0  0
    5.8390   -4.1960   27.1140 C   0  0  0  0  0  0  0  0  0  0  0  0
    5.2540   -4.8920   29.1910 O   0  0  0  0  0  0  0  0  0  0  0  0
    6.5550   -5.2530   29.2590 C   0  0  0  0  0  0  0  0  0  0  0  0
    6.8960   -6.5300   29.5930 O   0  0  0  0  0  0  0  0  0  0  0  0
    7.3810   -4.1700   28.9350 N   0  0  0  0  0  0  0  0  0  0  0  0
    6.7440   -2.9080   29.0450 C   0  0  0  0  0  0  0  0  0  0  0  0
    7.3650   -1.7670   29.4660 C   0  0  0  0  0  0  0  0  0  0  0  0
    6.7340   -0.5630   29.5960 C   0  0  0  0  0  0  0  0  0  0  0  0
    5.3780   -0.3070   29.3260 C   0  0  0  0  0  0  0  0  0  0  0  0
    4.5360    0.8900   29.4050 C   0  0  0  0  0  0  0  0  0  0  0  0
    4.7930   -1.6610   28.8480 C   0  0  0  0  0  0  0  0  0  0  0  0
    5.5040   -2.8550   28.7350 C   0  0  0  0  0  0  0  0  0  0  0  0
    5.8770   -5.0870   23.4990 C   0  0  0  0  0  0  0  0  0  0  0  0
    6.7450   -5.5900   22.3480 C   0  0  0  0  0  0  0  0  0  0  0  0
  1  2  1  0
  2  3  2  0
  2  4  1  0
  4  5  1  0
  5  6  1  0
  6  7  1  0
  7  8  1  0
  8  9  2  0
  8 10  1  0
 10 11  1  0
 11 12  1  0
 13 12  1  6
 10 14  1  0
 13 14  1  0
 13 15  1  0
 15 16  1  0
 16 17  2  0
 16 18  1  0
 18 19  1  0
 19 20  2  0
 20 21  1  0
 21 22  2  0
 22 23  1  0
 22 24  1  0
 13 25  1  0
 19 25  1  0
 24 25  2  0
  7 26  1  0
  4 27  1  0
 26 27  1  0
M  END
