piperidine-amides-2193-covalent
     RDKit          3D

 30 33  0  0  0  0  0  0  0  0999 V2000
    7.0630   -3.2640   19.2180 C   0  0  0  0  0  0  0  0  0  0  0  0
    6.3060   -4.0440   20.2400 C   0  0  0  0  0  0  0  0  0  0  0  0
    5.2480   -4.5470   19.8760 O   0  0  0  0  0  0  0  0  0  0  0  0
    6.8000   -4.2390   21.5340 N   0  0  0  0  0  0  0  0  0  0  0  0
    6.5200   -5.4480   22.2610 C   0  0  0  0  0  0  0  0  0  0  0  0
    5.8740   -5.0900   23.5690 C   0  0  0  0  0  0  0  0  0  0  0  0
    6.6760   -3.9640   24.2220 C   0  0  0  0  0  0  0  0  0  0  0  0
    6.0370   -3.6250   25.5090 C   0  0  0  0  0  0  0  0  0  0  0  0
    4.8860   -3.1520   25.5250 O   0  0  0  0  0  0  0  0  0  0  0  0
    6.7490   -3.8570   26.7120 N   0  0  0  0  0  0  0  0  0  0  0  0
    6.2980   -3.2540   27.9490 C   0  0  0  0  0  0  0  0  0  0  0  0
    6.8000   -1.8250   27.9530 C   0  0  0  0  0  0  0  0  0  0  0  0
    6.5690   -0.8890   28.9670 C   0  0  0  0  0  0  0  0  0  0  0  0
    7.0740    0.3920   28.8730 C   0  0  0  0  0  0  0  0  0  0  0  0
    7.7960    0.6740   27.7620 C   0  0  0  0  0  0  0  0  0  0  0  0
    8.0820   -0.2690   26.6530 C   0  0  0  0  0  0  0  0  0  0  0  0
    8.8170   -0.0220   25.5370 O   0  0  0  0  0  0  0  0  0  0  0  0
    9.6730   -1.1040   25.3280 C   0  0  0  0  0  0  0  0  0  0  0  0
    9.1440   -2.2440   26.1750 C   0  0  0  0  0  0  0  0  0  0  0  0
    9.9120   -3.4920   26.1100 C   0  0  0  0  0  0  0  0  0  0  0  0
   11.0920   -3.5130   25.2550 C   0  0  0  0  0  0  0  0  0  0  0  0
   11.5560   -2.3290   24.4330 C   0  0  0  0  0  0  0  0  0  0  0  0
   12.7790   -2.3960   23.5570 C   0  0  0  0  0  0  0  0  0  0  0  0
   13.2000   -1.1960   22.7510 C   0  0  0  0  0  0  0  0  0  0  0  0
   12.4770   -0.0520   22.8220 C   0  0  0  0  0  0  0  0  0  0  0  0
   11.2720    0.0350   23.6760 C   0  0  0  0  0  0  0  0  0  0  0  0
   10.8190   -1.1600   24.5010 C   0  0  0  0  0  0  0  0  0  0  0  0
    7.5380   -1.4910   26.8370 C   0  0  0  0  0  0  0  0  0  0  0  0
    6.8860   -2.7280   23.3860 C   0  0  0  0  0  0  0  0  0  0  0  0
    7.6170   -3.1950   22.1250 C   0  0  0  0  0  0  0  0  0  0  0  0
  1  2  1  0
  2  3  2  0
  2  4  1  0
  4  5  1  0
  5  6  1  0
  6  7  1  0
  7  8  1  0
  8  9  2  0
  8 10  1  0
 10 11  1  0
 11 12  1  0
 12 13  2  0
 13 14  1  0
 14 15  2  0
 15 16  1  0
 16 17  1  0
 17 18  1  0
 18 19  2  0
 19 20  1  0
 20 21  2  0
 21 22  1  0
 22 23  1  0
 23 24  2  0
 24 25  1  0
 25 26  2  0
 18 27  1  0
 22 27  2  0
 26 27  1  0
 12 28  1  0
 16 28  2  0
  7 29  1  0
  4 30  1  0
 29 30  1  0
M  END
