piperidine-amides-3626-covalent
     RDKit          3D

 19 20  0  0  0  0  0  0  0  0999 V2000
    7.1120   -3.2810   19.2630 C   0  0  0  0  0  0  0  0  0  0  0  0
    6.3860   -4.0630   20.2830 C   0  0  0  0  0  0  0  0  0  0  0  0
    5.3140   -4.5970   19.9090 O   0  0  0  0  0  0  0  0  0  0  0  0
    6.8930   -4.2500   21.6010 N   0  0  0  0  0  0  0  0  0  0  0  0
    7.6430   -3.1880   22.1890 C   0  0  0  0  0  0  0  0  0  0  0  0
    7.2690   -2.9220   23.5670 C   0  0  0  0  0  0  0  0  0  0  0  0
    6.0640   -3.6650   23.9600 C   0  0  0  0  0  0  0  0  0  0  0  0
    5.5960   -3.3420   25.3530 C   0  0  0  0  0  0  0  0  0  0  0  0
    4.3810   -3.1670   25.5360 O   0  0  0  0  0  0  0  0  0  0  0  0
    6.4790   -3.2190   26.4480 N   0  0  0  0  0  0  0  0  0  0  0  0
    6.3630   -3.7400   27.7710 C   0  0  2  0  0  0  0  0  0  0  0  0
    6.4300   -5.1700   28.0850 C   0  0  0  0  0  0  0  0  0  0  0  0
    5.0530   -3.3290   28.3590 C   0  0  0  0  0  0  0  0  0  0  0  0
    3.7240   -3.0890   27.7400 N   0  0  0  0  0  0  0  0  0  0  0  0
    2.8480   -2.7200   28.7980 C   0  0  0  0  0  0  0  0  0  0  0  0
    3.6660   -2.7380   30.0600 C   0  0  0  0  0  0  0  0  0  0  0  0
    4.9610   -3.1050   29.7310 O   0  0  0  0  0  0  0  0  0  0  0  0
    6.1290   -5.1370   23.7570 C   0  0  0  0  0  0  0  0  0  0  0  0
    6.5400   -5.4720   22.3060 C   0  0  0  0  0  0  0  0  0  0  0  0
  1  2  1  0
  2  3  2  0
  2  4  1  0
  4  5  1  0
  5  6  1  0
  6  7  1  0
  7  8  1  0
  8  9  2  0
  8 10  1  0
 10 11  1  0
 11 12  1  6
 11 13  1  0
 13 14  2  0
 14 15  1  0
 15 16  2  0
 13 17  1  0
 16 17  1  0
  7 18  1  0
  4 19  1  0
 18 19  1  0
M  END
