piperidine-amides-6842-covalent
     RDKit          3D

 23 24  0  0  0  0  0  0  0  0999 V2000
    7.0970   -3.2800   19.2620 C   0  0  0  0  0  0  0  0  0  0  0  0
    6.3610   -4.0790   20.2530 C   0  0  0  0  0  0  0  0  0  0  0  0
    5.3030   -4.6550   19.9240 O   0  0  0  0  0  0  0  0  0  0  0  0
    6.8590   -4.2580   21.5530 N   0  0  0  0  0  0  0  0  0  0  0  0
    6.5630   -5.5050   22.2260 C   0  0  0  0  0  0  0  0  0  0  0  0
    6.1790   -5.1750   23.6780 C   0  0  0  0  0  0  0  0  0  0  0  0
    5.9600   -3.6810   23.7530 C   0  0  0  0  0  0  0  0  0  0  0  0
    5.4920   -3.3010   25.0880 C   0  0  0  0  0  0  0  0  0  0  0  0
    4.3480   -2.8160   25.2100 O   0  0  0  0  0  0  0  0  0  0  0  0
    6.3470   -3.4930   26.1790 N   0  0  0  0  0  0  0  0  0  0  0  0
    5.8460   -3.8830   27.4600 C   0  0  0  0  0  0  0  0  0  0  0  0
    5.9920   -5.3960   27.5960 C   0  0  0  0  0  0  0  0  0  0  0  0
    4.4040   -3.5500   27.4680 C   0  0  0  0  0  0  0  0  0  0  0  0
    6.5630   -3.1550   28.4900 C   0  0  0  0  0  0  0  0  0  0  0  0
    5.9110   -2.2630   29.3430 C   0  0  0  0  0  0  0  0  0  0  0  0
    4.6250   -2.3040   29.6520 C   0  0  0  0  0  0  0  0  0  0  0  0
    3.7820   -1.4480   30.5310 C   0  0  0  0  0  0  0  0  0  0  0  0
    4.9160   -0.4780   30.9740 C   0  0  0  0  0  0  0  0  0  0  0  0
    6.4330   -0.2400   30.7550 C   0  0  0  0  0  0  0  0  0  0  0  0
    7.5920    1.0990   31.4800 Br  0  0  0  0  0  0  0  0  0  0  0  0
    6.7440   -1.3340   29.8330 C   0  0  0  0  0  0  0  0  0  0  0  0
    7.2560   -2.9930   23.4590 C   0  0  0  0  0  0  0  0  0  0  0  0
    7.6110   -3.2090   22.1690 C   0  0  0  0  0  0  0  0  0  0  0  0
  1  2  1  0
  2  3  2  0
  2  4  1  0
  4  5  1  0
  5  6  1  0
  6  7  1  0
  7  8  1  0
  8  9  2  0
  8 10  1  0
 11 10  1  0
 11 12  1  0
 11 13  1  0
 11 14  1  0
 14 15  1  0
 15 16  2  0
 16 17  1  0
 17 18  2  0
 18 19  1  0
 19 20  1  0
 15 21  1  0
 19 21  2  0
  7 22  1  0
  4 23  1  0
 22 23  1  0
M  END
