piperidine-amides-8468-covalent
     RDKit          3D

 24 25  0  0  0  0  0  0  0  0999 V2000
    7.1080   -3.2350   19.1880 C   0  0  0  0  0  0  0  0  0  0  0  0
    6.3280   -3.9470   20.2020 C   0  0  0  0  0  0  0  0  0  0  0  0
    5.2650   -4.4890   19.8580 O   0  0  0  0  0  0  0  0  0  0  0  0
    6.7980   -4.0550   21.5350 N   0  0  0  0  0  0  0  0  0  0  0  0
    7.7090   -3.0410   22.0150 C   0  0  0  0  0  0  0  0  0  0  0  0
    7.4880   -2.7350   23.4670 C   0  0  0  0  0  0  0  0  0  0  0  0
    6.3540   -3.6070   23.9290 C   0  0  0  0  0  0  0  0  0  0  0  0
    5.9770   -3.2970   25.3440 C   0  0  0  0  0  0  0  0  0  0  0  0
    4.9220   -2.6790   25.4970 O   0  0  0  0  0  0  0  0  0  0  0  0
    6.8310   -3.7240   26.3660 N   0  0  0  0  0  0  0  0  0  0  0  0
    6.7490   -5.0390   26.9230 C   0  0  1  0  0  0  0  0  0  0  0  0
    7.0230   -5.1070   28.3030 C   0  0  0  0  0  0  0  0  0  0  0  0
    5.9760   -5.3510   29.1900 C   0  0  0  0  0  0  0  0  0  0  0  0
    5.4740   -6.6410   29.2450 C   0  0  0  0  0  0  0  0  0  0  0  0
    5.0200   -6.8300   30.6510 C   0  0  0  0  0  0  0  0  0  0  0  0
    3.9720   -5.8030   31.0950 C   0  0  0  0  0  0  0  0  0  0  0  0
    3.7220   -4.7350   30.0960 C   0  0  0  0  0  0  0  0  0  0  0  0
    5.0240   -4.3560   29.4110 C   0  0  0  0  0  0  0  0  0  0  0  0
    5.3790   -5.5730   26.6370 C   0  0  0  0  0  0  0  0  0  0  0  0
    4.9350   -6.8160   27.0250 C   0  0  0  0  0  0  0  0  0  0  0  0
    4.4040   -4.6540   26.9390 C   0  0  0  0  0  0  0  0  0  0  0  0
    5.1640   -5.7560   25.1330 C   0  0  0  0  0  0  0  0  0  0  0  0
    6.7920   -5.0550   23.7120 C   0  0  0  0  0  0  0  0  0  0  0  0
    6.6740   -5.2970   22.2300 C   0  0  0  0  0  0  0  0  0  0  0  0
  1  2  1  0
  2  3  2  0
  2  4  1  0
  4  5  1  0
  5  6  1  0
  6  7  1  0
  7  8  1  0
  8  9  2  0
  8 10  1  0
 10 11  1  0
 11 12  1  1
 12 13  1  0
 13 14  1  0
 14 15  1  0
 15 16  1  0
 16 17  1  0
 13 18  1  0
 17 18  1  0
 11 19  1  0
 19 20  1  0
 19 21  1  0
 19 22  1  0
  7 23  1  0
  4 24  1  0
 23 24  1  0
M  END
