piperidine-amides-8720-covalent
     RDKit          3D

 23 24  0  0  0  0  0  0  0  0999 V2000
    7.0370   -3.3620   19.4150 C   0  0  0  0  0  0  0  0  0  0  0  0
    6.3420   -4.1820   20.4080 C   0  0  0  0  0  0  0  0  0  0  0  0
    5.4200   -4.9150   20.0000 O   0  0  0  0  0  0  0  0  0  0  0  0
    6.7340   -4.1670   21.7800 N   0  0  0  0  0  0  0  0  0  0  0  0
    7.6670   -3.1640   22.2250 C   0  0  0  0  0  0  0  0  0  0  0  0
    7.5500   -3.0590   23.7090 C   0  0  0  0  0  0  0  0  0  0  0  0
    6.1530   -3.5430   23.9800 C   0  0  0  0  0  0  0  0  0  0  0  0
    5.6760   -3.2510   25.3840 C   0  0  0  0  0  0  0  0  0  0  0  0
    4.4950   -3.5110   25.5910 O   0  0  0  0  0  0  0  0  0  0  0  0
    6.5430   -2.7120   26.3450 N   0  0  0  0  0  0  0  0  0  0  0  0
    6.3660   -1.3880   26.8700 C   0  0  0  0  0  0  0  0  0  0  0  0
    5.7940   -0.3700   26.0730 C   0  0  0  0  0  0  0  0  0  0  0  0
    5.5750    0.9240   26.4650 C   0  0  0  0  0  0  0  0  0  0  0  0
    5.0320    2.0040   25.7920 C   0  0  0  0  0  0  0  0  0  0  0  0
    5.9860    1.3000   27.8880 C   0  0  0  0  0  0  0  0  0  0  0  0
    6.6020    0.2830   28.8080 C   0  0  0  0  0  0  0  0  0  0  0  0
    6.7670   -1.0660   28.2330 C   0  0  0  0  0  0  0  0  0  0  0  0
    7.3430   -1.9410   29.1590 N   0  0  0  0  0  0  0  0  0  0  0  0
    7.9710   -1.0600   30.1180 C   0  0  0  0  0  0  0  0  0  0  0  0
    7.2400   -0.2880   31.2420 C   0  0  0  0  0  0  0  0  0  0  0  0
    9.1940   -0.8330   30.1110 O   0  0  0  0  0  0  0  0  0  0  0  0
    6.0720   -5.0490   23.7860 C   0  0  0  0  0  0  0  0  0  0  0  0
    6.6560   -5.3810   22.5610 C   0  0  0  0  0  0  0  0  0  0  0  0
  1  2  1  0
  2  3  2  0
  2  4  1  0
  4  5  1  0
  5  6  1  0
  6  7  1  0
  7  8  1  0
  8  9  2  0
  8 10  1  0
 10 11  1  0
 11 12  2  0
 12 13  1  0
 13 14  1  0
 13 15  2  0
 15 16  1  0
 11 17  1  0
 16 17  2  0
 17 18  1  0
 18 19  1  0
 19 20  1  0
 19 21  2  0
  7 22  1  0
  4 23  1  0
 22 23  1  0
M  END
