piperidine-amides-10127-covalent
     RDKit          3D

 25 27  0  0  0  0  0  0  0  0999 V2000
    6.9500   -3.3820   19.4420 C   0  0  0  0  0  0  0  0  0  0  0  0
    6.3150   -4.2870   20.4100 C   0  0  0  0  0  0  0  0  0  0  0  0
    5.3260   -4.9290   19.9840 O   0  0  0  0  0  0  0  0  0  0  0  0
    6.8020   -4.4650   21.7110 N   0  0  0  0  0  0  0  0  0  0  0  0
    6.6530   -5.7330   22.3870 C   0  0  0  0  0  0  0  0  0  0  0  0
    6.0210   -5.4740   23.7250 C   0  0  0  0  0  0  0  0  0  0  0  0
    5.6930   -4.0230   23.9040 C   0  0  0  0  0  0  0  0  0  0  0  0
    5.0990   -3.7760   25.2640 C   0  0  0  0  0  0  0  0  0  0  0  0
    3.9820   -4.2720   25.4850 O   0  0  0  0  0  0  0  0  0  0  0  0
    5.6630   -3.0130   26.3050 N   0  0  0  0  0  0  0  0  0  0  0  0
    6.3270   -1.8430   25.8780 C   0  0  1  0  0  0  0  0  0  0  0  0
    5.7120   -0.4940   26.1300 C   0  0  0  0  0  0  0  0  0  0  0  0
    6.2380    0.4710   25.5030 O   0  0  0  0  0  0  0  0  0  0  0  0
    6.6790    0.2260   24.1870 C   0  0  0  0  0  0  0  0  0  0  0  0
    6.0780    0.8850   23.1160 C   0  0  0  0  0  0  0  0  0  0  0  0
    6.4960    0.6740   21.8000 C   0  0  0  0  0  0  0  0  0  0  0  0
    7.5240   -0.1950   21.4960 C   0  0  0  0  0  0  0  0  0  0  0  0
    8.1580   -0.8760   22.4950 C   0  0  0  0  0  0  0  0  0  0  0  0
    7.7400   -0.6830   23.9300 C   0  0  0  0  0  0  0  0  0  0  0  0
    8.4540   -1.4410   24.9410 N   0  0  0  0  0  0  0  0  0  0  0  0
    9.6650   -2.0740   24.6350 C   0  0  0  0  0  0  0  0  0  0  0  0
    7.7510   -1.8530   26.1250 C   0  0  0  0  0  0  0  0  0  0  0  0
    8.2920   -2.2090   27.3330 O   0  0  0  0  0  0  0  0  0  0  0  0
    6.9140   -3.1820   23.6370 C   0  0  0  0  0  0  0  0  0  0  0  0
    7.5550   -3.4320   22.4320 C   0  0  0  0  0  0  0  0  0  0  0  0
  1  2  1  0
  2  3  2  0
  2  4  1  0
  4  5  1  0
  5  6  1  0
  6  7  1  0
  7  8  1  0
  8  9  2  0
  8 10  1  0
 11 10  1  1
 11 12  1  0
 12 13  1  0
 13 14  1  0
 14 15  1  0
 15 16  2  0
 16 17  1  0
 17 18  2  0
 14 19  2  0
 18 19  1  0
 19 20  1  0
 20 21  1  0
 11 22  1  0
 20 22  1  0
 22 23  2  0
  7 24  1  0
  4 25  1  0
 24 25  1  0
M  END
