piperidine-amides-24175-covalent
     RDKit          3D

 24 25  0  0  0  0  0  0  0  0999 V2000
    7.1290   -3.2680   19.3140 C   0  0  0  0  0  0  0  0  0  0  0  0
    6.3410   -4.0380   20.2820 C   0  0  0  0  0  0  0  0  0  0  0  0
    5.2800   -4.5860   19.9130 O   0  0  0  0  0  0  0  0  0  0  0  0
    6.7950   -4.2100   21.6060 N   0  0  0  0  0  0  0  0  0  0  0  0
    6.5520   -5.5000   22.2260 C   0  0  0  0  0  0  0  0  0  0  0  0
    6.4120   -5.2690   23.7360 C   0  0  0  0  0  0  0  0  0  0  0  0
    6.0970   -3.8040   23.9170 C   0  0  0  0  0  0  0  0  0  0  0  0
    5.5780   -3.5620   25.2860 C   0  0  0  0  0  0  0  0  0  0  0  0
    4.3590   -3.7800   25.4440 O   0  0  0  0  0  0  0  0  0  0  0  0
    6.3660   -3.1180   26.3880 N   0  0  0  0  0  0  0  0  0  0  0  0
    6.2430   -3.8850   27.6110 C   0  0  0  0  0  0  0  0  0  0  0  0
    5.8560   -5.3310   27.2940 C   0  0  0  0  0  0  0  0  0  0  0  0
    6.3170   -6.1440   28.3620 O   0  0  0  0  0  0  0  0  0  0  0  0
    6.4360   -1.6720   26.5710 C   0  0  0  0  0  0  0  0  0  0  0  0
    5.2210   -0.9990   26.5650 C   0  0  0  0  0  0  0  0  0  0  0  0
    4.0150   -1.5270   26.2130 C   0  0  0  0  0  0  0  0  0  0  0  0
    2.8520   -0.7990   26.2320 C   0  0  0  0  0  0  0  0  0  0  0  0
    2.4590    0.6440   26.5870 C   0  0  0  0  0  0  0  0  0  0  0  0
    3.8830    1.0890   26.9530 C   0  0  0  0  0  0  0  0  0  0  0  0
    5.1560    0.2950   26.9320 C   0  0  0  0  0  0  0  0  0  0  0  0
    6.3200    0.9440   27.3170 O   0  0  0  0  0  0  0  0  0  0  0  0
    6.5510    2.2180   26.7540 C   0  0  0  0  0  0  0  0  0  0  0  0
    7.3250   -3.0240   23.5760 C   0  0  0  0  0  0  0  0  0  0  0  0
    7.5870   -3.1830   22.2380 C   0  0  0  0  0  0  0  0  0  0  0  0
  1  2  1  0
  2  3  2  0
  2  4  1  0
  4  5  1  0
  5  6  1  0
  6  7  1  0
  7  8  1  0
  8  9  2  0
  8 10  1  0
 10 11  1  0
 11 12  1  0
 12 13  1  0
 10 14  1  0
 14 15  1  0
 15 16  2  0
 16 17  1  0
 17 18  2  0
 18 19  1  0
 15 20  1  0
 19 20  2  0
 20 21  1  0
 21 22  1  0
  7 23  1  0
  4 24  1  0
 23 24  1  0
M  END
