piperidine-amides-6545-covalent
     RDKit          3D

 24 25  0  0  0  0  0  0  0  0999 V2000
    7.1500   -3.2630   19.1690 C   0  0  0  0  0  0  0  0  0  0  0  0
    6.3920   -4.0260   20.1730 C   0  0  0  0  0  0  0  0  0  0  0  0
    5.2890   -4.5360   19.8820 O   0  0  0  0  0  0  0  0  0  0  0  0
    6.9290   -4.2460   21.4420 N   0  0  0  0  0  0  0  0  0  0  0  0
    7.7420   -3.2270   22.0630 C   0  0  0  0  0  0  0  0  0  0  0  0
    6.9090   -2.6770   23.2050 C   0  0  0  0  0  0  0  0  0  0  0  0
    6.5360   -3.8860   24.0260 C   0  0  0  0  0  0  0  0  0  0  0  0
    5.7610   -3.4570   25.1820 C   0  0  0  0  0  0  0  0  0  0  0  0
    4.5200   -3.3570   25.0810 O   0  0  0  0  0  0  0  0  0  0  0  0
    6.4440   -3.1780   26.3670 N   0  0  0  0  0  0  0  0  0  0  0  0
    6.0940   -3.8770   27.5520 C   0  0  0  0  0  0  0  0  0  0  0  0
    6.3980   -2.9440   28.6870 C   0  0  0  0  0  0  0  0  0  0  0  0
    6.2090   -1.5890   28.5670 C   0  0  2  0  0  0  0  0  0  0  0  0
    7.1750   -0.8290   29.1760 C   0  0  0  0  0  0  0  0  0  0  0  0
    7.0080   -0.3450   30.4720 C   0  0  0  0  0  0  0  0  0  0  0  0
    5.7260   -0.3030   30.9610 C   0  0  0  0  0  0  0  0  0  0  0  0
    4.6250   -0.9790   30.1780 C   0  0  0  0  0  0  0  0  0  0  0  0
    4.8800   -1.2050   28.8810 N   0  0  0  0  0  0  0  0  0  0  0  0
    4.0140   -0.7260   27.8550 C   0  0  0  0  0  0  0  0  0  0  0  0
    2.9910   -1.2960   27.3890 O   0  0  0  0  0  0  0  0  0  0  0  0
    4.3950    0.4930   27.3850 N   0  0  0  0  0  0  0  0  0  0  0  0
    5.6320    0.6770   26.6470 C   0  0  0  0  0  0  0  0  0  0  0  0
    5.7250   -4.8810   23.2340 C   0  0  0  0  0  0  0  0  0  0  0  0
    6.5320   -5.3940   22.2170 C   0  0  0  0  0  0  0  0  0  0  0  0
  1  2  1  0
  2  3  2  0
  2  4  1  0
  4  5  1  0
  5  6  1  0
  6  7  1  0
  7  8  1  0
  8  9  2  0
  8 10  1  0
 10 11  1  0
 11 12  1  0
 13 12  1  1
 13 14  1  0
 14 15  1  0
 15 16  1  0
 16 17  1  0
 13 18  1  0
 17 18  1  0
 18 19  1  0
 19 20  2  0
 19 21  1  0
 21 22  1  0
  7 23  1  0
  4 24  1  0
 23 24  1  0
M  END
