piperidine-amides-28043-covalent
     RDKit          3D

 26 28  0  0  0  0  0  0  0  0999 V2000
    7.0670   -3.3570   19.3550 C   0  0  0  0  0  0  0  0  0  0  0  0
    6.4140   -4.2200   20.3630 C   0  0  0  0  0  0  0  0  0  0  0  0
    5.4060   -4.8550   19.9870 O   0  0  0  0  0  0  0  0  0  0  0  0
    6.9540   -4.3320   21.6550 N   0  0  0  0  0  0  0  0  0  0  0  0
    6.6890   -5.5100   22.4270 C   0  0  0  0  0  0  0  0  0  0  0  0
    6.1890   -5.1940   23.7600 C   0  0  0  0  0  0  0  0  0  0  0  0
    6.2040   -3.7440   23.9900 C   0  0  0  0  0  0  0  0  0  0  0  0
    5.6730   -3.3020   25.3050 C   0  0  0  0  0  0  0  0  0  0  0  0
    4.8110   -2.4090   25.2680 O   0  0  0  0  0  0  0  0  0  0  0  0
    6.0320   -3.8220   26.5560 N   0  0  0  0  0  0  0  0  0  0  0  0
    5.7590   -2.8810   27.6670 C   0  0  0  0  0  0  0  0  0  0  0  0
    6.2080   -3.3880   28.9630 C   0  0  0  0  0  0  0  0  0  0  0  0
    6.5950   -4.7650   28.9990 C   0  0  0  0  0  0  0  0  0  0  0  0
    5.9630   -5.5910   28.1320 C   0  0  1  0  0  0  0  0  0  0  0  0
    4.7630   -6.0300   28.6290 C   0  0  0  0  0  0  0  0  0  0  0  0
    4.5970   -7.3430   28.9970 C   0  0  0  0  0  0  0  0  0  0  0  0
    3.3900   -7.7860   29.5000 C   0  0  0  0  0  0  0  0  0  0  0  0
    2.3190   -6.9510   29.6520 C   0  0  0  0  0  0  0  0  0  0  0  0
    1.2030   -7.6850   30.1980 N   0  0  0  0  0  0  0  0  0  0  0  0
    0.1920   -7.9570   29.4300 O   0  0  0  0  0  0  0  0  0  0  0  0
    0.8800   -7.5950   31.5640 O   0  0  0  0  0  0  0  0  0  0  0  0
    2.4390   -5.6290   29.2960 C   0  0  0  0  0  0  0  0  0  0  0  0
    3.7130   -5.1550   28.7650 C   0  0  0  0  0  0  0  0  0  0  0  0
    5.8560   -5.1970   26.8090 C   0  0  0  0  0  0  0  0  0  0  0  0
    7.5810   -3.1900   23.6330 C   0  0  0  0  0  0  0  0  0  0  0  0
    7.7660   -3.2560   22.2320 C   0  0  0  0  0  0  0  0  0  0  0  0
  1  2  1  0
  2  3  2  0
  2  4  1  0
  4  5  1  0
  5  6  1  0
  6  7  1  0
  7  8  1  0
  8  9  2  0
  8 10  1  0
 10 11  1  0
 11 12  1  0
 12 13  1  0
 13 14  1  0
 14 15  1  1
 15 16  2  0
 16 17  1  0
 17 18  2  0
 18 19  1  0
 19 20  2  0
 19 21  1  0
 18 22  1  0
 15 23  1  0
 22 23  2  0
 10 24  1  0
 14 24  1  0
  7 25  1  0
  4 26  1  0
 25 26  1  0
M  CHG  2  19   1  21  -1
M  END
