piperidine-amides-32764-covalent
     RDKit          3D

 29 32  0  0  0  0  0  0  0  0999 V2000
    7.0490   -3.3300   19.3370 C   0  0  0  0  0  0  0  0  0  0  0  0
    6.3190   -4.1960   20.3050 C   0  0  0  0  0  0  0  0  0  0  0  0
    5.2860   -4.7750   19.9440 O   0  0  0  0  0  0  0  0  0  0  0  0
    6.8410   -4.3830   21.5960 N   0  0  0  0  0  0  0  0  0  0  0  0
    6.6570   -5.6330   22.3040 C   0  0  0  0  0  0  0  0  0  0  0  0
    6.0960   -5.3610   23.7160 C   0  0  0  0  0  0  0  0  0  0  0  0
    6.0040   -3.8910   23.9310 C   0  0  0  0  0  0  0  0  0  0  0  0
    5.4920   -3.4420   25.2580 C   0  0  0  0  0  0  0  0  0  0  0  0
    4.3580   -2.9600   25.2320 O   0  0  0  0  0  0  0  0  0  0  0  0
    6.2050   -3.5390   26.4660 N   0  0  0  0  0  0  0  0  0  0  0  0
    5.8380   -2.7860   27.6220 C   0  0  0  0  0  0  0  0  0  0  0  0
    5.1900   -3.3320   28.7190 C   0  0  0  0  0  0  0  0  0  0  0  0
    5.9480   -4.4770   29.1520 N   0  0  0  0  0  0  0  0  0  0  0  0
    5.4230   -5.5520   29.8010 C   0  0  0  0  0  0  0  0  0  0  0  0
    4.2860   -5.5350   30.5550 C   0  0  0  0  0  0  0  0  0  0  0  0
    3.9910   -6.8470   31.1280 C   0  0  0  0  0  0  0  0  0  0  0  0
    2.8800   -6.8860   31.8900 N   0  0  0  0  0  0  0  0  0  0  0  0
    1.8640   -5.9230   31.6160 C   0  0  0  0  0  0  0  0  0  0  0  0
    0.5910   -6.7090   31.9620 C   0  0  0  0  0  0  0  0  0  0  0  0
    0.9090   -7.9550   32.4270 C   0  0  0  0  0  0  0  0  0  0  0  0
    2.3690   -8.1350   32.4270 C   0  0  0  0  0  0  0  0  0  0  0  0
    4.7530   -7.9180   30.9210 N   0  0  0  0  0  0  0  0  0  0  0  0
    5.8860   -7.8470   30.1410 C   0  0  0  0  0  0  0  0  0  0  0  0
    6.1740   -6.6320   29.6070 N   0  0  0  0  0  0  0  0  0  0  0  0
    7.0050   -4.6310   28.3790 C   0  0  0  0  0  0  0  0  0  0  0  0
    6.7270   -4.8230   26.8820 C   0  0  1  0  0  0  0  0  0  0  0  0
    5.7010   -5.8940   26.5820 C   0  0  0  0  0  0  0  0  0  0  0  0
    7.3330   -3.2860   23.6610 C   0  0  0  0  0  0  0  0  0  0  0  0
    7.5960   -3.2970   22.2160 C   0  0  0  0  0  0  0  0  0  0  0  0
  1  2  1  0
  2  3  2  0
  2  4  1  0
  4  5  1  0
  5  6  1  0
  6  7  1  0
  7  8  1  0
  8  9  2  0
  8 10  1  0
 10 11  1  0
 11 12  1  0
 12 13  1  0
 13 14  1  0
 14 15  2  0
 15 16  1  0
 16 17  1  0
 17 18  1  0
 18 19  1  0
 19 20  1  0
 17 21  1  0
 20 21  1  0
 16 22  2  0
 22 23  1  0
 14 24  1  0
 23 24  2  0
 13 25  1  0
 10 26  1  0
 25 26  1  0
 26 27  1  1
  7 28  1  0
  4 29  1  0
 28 29  1  0
M  END
