piperidine-amides-27345-covalent
     RDKit          3D

 26 29  0  0  0  0  0  0  0  0999 V2000
    7.0680   -3.3030   19.2720 C   0  0  0  0  0  0  0  0  0  0  0  0
    6.3740   -4.0850   20.3050 C   0  0  0  0  0  0  0  0  0  0  0  0
    5.3380   -4.6990   19.9390 O   0  0  0  0  0  0  0  0  0  0  0  0
    6.8780   -4.1640   21.6080 N   0  0  0  0  0  0  0  0  0  0  0  0
    6.6040   -5.3090   22.4550 C   0  0  0  0  0  0  0  0  0  0  0  0
    6.0190   -4.8250   23.7630 C   0  0  0  0  0  0  0  0  0  0  0  0
    6.1420   -3.3290   23.9040 C   0  0  0  0  0  0  0  0  0  0  0  0
    5.7800   -2.8510   25.2540 C   0  0  0  0  0  0  0  0  0  0  0  0
    5.2640   -3.6560   26.0590 O   0  0  0  0  0  0  0  0  0  0  0  0
    5.9770   -1.5030   25.6460 N   0  0  0  0  0  0  0  0  0  0  0  0
    6.0350   -1.1010   27.0330 C   0  0  0  0  0  0  0  0  0  0  0  0
    5.3410    0.1190   26.6930 C   0  0  0  0  0  0  0  0  0  0  0  0
    6.1450    1.3100   27.0620 N   0  0  0  0  0  0  0  0  0  0  0  0
    6.0950    1.8760   28.2860 C   0  0  0  0  0  0  0  0  0  0  0  0
    6.8390    2.9880   28.5750 N   0  0  0  0  0  0  0  0  0  0  0  0
    7.6540    3.6050   27.6940 C   0  0  0  0  0  0  0  0  0  0  0  0
    8.5560    4.5010   28.2620 C   0  0  0  0  0  0  0  0  0  0  0  0
    9.4240    5.1680   27.4140 C   0  0  0  0  0  0  0  0  0  0  0  0
    9.4060    4.9600   26.0540 C   0  0  0  0  0  0  0  0  0  0  0  0
    8.4590    4.0060   25.3660 C   0  0  0  0  0  0  0  0  0  0  0  0
    7.5430    3.3180   26.3750 C   0  0  0  0  0  0  0  0  0  0  0  0
    6.4860    2.3070   26.0510 C   0  0  0  0  0  0  0  0  0  0  0  0
    5.8660    2.3740   24.7940 O   0  0  0  0  0  0  0  0  0  0  0  0
    5.3000   -0.1620   25.3170 C   0  0  0  0  0  0  0  0  0  0  0  0
    7.4950   -2.8480   23.5490 C   0  0  0  0  0  0  0  0  0  0  0  0
    7.7480   -3.1180   22.0930 C   0  0  0  0  0  0  0  0  0  0  0  0
  1  2  1  0
  2  3  2  0
  2  4  1  0
  4  5  1  0
  5  6  1  0
  6  7  1  0
  7  8  1  0
  8  9  2  0
  8 10  1  0
 10 11  1  0
 11 12  1  0
 12 13  1  0
 13 14  1  0
 14 15  2  0
 15 16  1  0
 16 17  2  0
 17 18  1  0
 18 19  2  0
 19 20  1  0
 16 21  1  0
 20 21  2  0
 13 22  1  0
 21 22  1  0
 22 23  2  0
 10 24  1  0
 12 24  1  0
  7 25  1  0
  4 26  1  0
 25 26  1  0
M  END
