piperidine-amides-30219-covalent
     RDKit          3D

 27 29  0  0  0  0  0  0  0  0999 V2000
    7.0830   -3.3850   19.4530 C   0  0  0  0  0  0  0  0  0  0  0  0
    6.3850   -4.2590   20.3830 C   0  0  0  0  0  0  0  0  0  0  0  0
    5.3890   -4.8770   19.9990 O   0  0  0  0  0  0  0  0  0  0  0  0
    6.8930   -4.4400   21.7210 N   0  0  0  0  0  0  0  0  0  0  0  0
    7.6310   -3.3930   22.3710 C   0  0  0  0  0  0  0  0  0  0  0  0
    6.8190   -2.7910   23.4930 C   0  0  0  0  0  0  0  0  0  0  0  0
    6.2460   -3.8860   24.3990 C   0  0  0  0  0  0  0  0  0  0  0  0
    5.2950   -3.2760   25.4080 C   0  0  0  0  0  0  0  0  0  0  0  0
    4.5680   -2.3230   25.1000 O   0  0  0  0  0  0  0  0  0  0  0  0
    5.1900   -3.7780   26.7510 N   0  0  0  0  0  0  0  0  0  0  0  0
    4.7000   -2.9170   27.7930 C   0  0  0  0  0  0  0  0  0  0  0  0
    4.9340   -3.7530   29.0270 C   0  0  0  0  0  0  0  0  0  0  0  0
    5.5580   -4.8550   29.4390 N   0  0  0  0  0  0  0  0  0  0  0  0
    4.7820   -5.6900   30.1640 C   0  0  0  0  0  0  0  0  0  0  0  0
    5.4240   -6.4440   31.0070 N   0  0  0  0  0  0  0  0  0  0  0  0
    4.7520   -7.3640   31.8680 C   0  0  0  0  0  0  0  0  0  0  0  0
    5.4190   -8.1560   32.7760 C   0  0  0  0  0  0  0  0  0  0  0  0
    3.3640   -7.3380   31.6560 C   0  0  0  0  0  0  0  0  0  0  0  0
    2.6210   -6.5490   30.7490 C   0  0  0  0  0  0  0  0  0  0  0  0
    1.3190   -6.6080   30.6320 O   0  0  0  0  0  0  0  0  0  0  0  0
    0.0510   -6.4350   31.2550 C   0  0  0  0  0  0  0  0  0  0  0  0
   -0.0660   -5.1410   31.7580 C   0  0  0  0  0  0  0  0  0  0  0  0
    3.4620   -5.6670   29.9670 N   0  0  0  0  0  0  0  0  0  0  0  0
    5.9500   -5.4320   28.2950 C   0  0  0  0  0  0  0  0  0  0  0  0
    6.1180   -4.7130   27.1300 C   0  0  0  0  0  0  0  0  0  0  0  0
    5.5310   -4.9630   23.6110 C   0  0  0  0  0  0  0  0  0  0  0  0
    6.3700   -5.5000   22.4930 C   0  0  0  0  0  0  0  0  0  0  0  0
  1  2  1  0
  2  3  2  0
  2  4  1  0
  4  5  1  0
  5  6  1  0
  6  7  1  0
  7  8  1  0
  8  9  2  0
  8 10  1  0
 10 11  1  0
 11 12  1  0
 12 13  1  0
 13 14  1  0
 14 15  2  0
 15 16  1  0
 16 17  1  0
 16 18  2  0
 18 19  1  0
 19 20  1  0
 20 21  1  0
 21 22  1  0
 14 23  1  0
 19 23  2  0
 13 24  1  0
 10 25  1  0
 24 25  1  0
  7 26  1  0
  4 27  1  0
 26 27  1  0
M  END
