piperidine-amides-33779-covalent
     RDKit          3D

 28 30  0  0  0  0  0  0  0  0999 V2000
    7.0320   -3.3780   19.3830 C   0  0  0  0  0  0  0  0  0  0  0  0
    6.4060   -4.2490   20.3920 C   0  0  0  0  0  0  0  0  0  0  0  0
    5.4010   -4.8980   20.0030 O   0  0  0  0  0  0  0  0  0  0  0  0
    6.9340   -4.4050   21.7130 N   0  0  0  0  0  0  0  0  0  0  0  0
    6.4710   -5.4660   22.5150 C   0  0  0  0  0  0  0  0  0  0  0  0
    6.0630   -5.0880   23.8800 C   0  0  0  0  0  0  0  0  0  0  0  0
    6.4130   -3.7270   24.3910 C   0  0  0  0  0  0  0  0  0  0  0  0
    5.3040   -3.1940   25.2920 C   0  0  0  0  0  0  0  0  0  0  0  0
    4.3720   -2.5980   24.7340 O   0  0  0  0  0  0  0  0  0  0  0  0
    5.2240   -3.3190   26.7190 N   0  0  0  0  0  0  0  0  0  0  0  0
    4.1190   -3.3940   27.5540 C   0  0  0  0  0  0  0  0  0  0  0  0
    4.3720   -4.0630   28.8250 C   0  0  0  0  0  0  0  0  0  0  0  0
    5.3340   -4.9830   28.9550 N   0  0  0  0  0  0  0  0  0  0  0  0
    4.5890   -6.3660   28.3550 S   0  0  0  0  0  0  0  0  0  0  0  0
    3.4980   -5.9650   27.3990 O   0  0  0  0  0  0  0  0  0  0  0  0
    5.5310   -7.2550   27.6440 O   0  0  0  0  0  0  0  0  0  0  0  0
    3.9180   -7.1190   29.8110 C   0  0  0  0  0  0  0  0  0  0  0  0
    2.6420   -7.5490   29.4890 C   0  0  0  0  0  0  0  0  0  0  0  0
    1.8280   -8.2670   30.6460 C   0  0  0  0  0  0  0  0  0  0  0  0
    2.3890   -8.4900   32.0610 C   0  0  0  0  0  0  0  0  0  0  0  0
    1.5440   -9.1370   32.9750 F   0  0  0  0  0  0  0  0  0  0  0  0
    3.7970   -7.9380   32.1730 C   0  0  0  0  0  0  0  0  0  0  0  0
    4.5510   -7.2790   31.1130 C   0  0  0  0  0  0  0  0  0  0  0  0
    5.8090   -6.9050   31.5710 F   0  0  0  0  0  0  0  0  0  0  0  0
    6.5050   -4.6810   28.3870 C   0  0  0  0  0  0  0  0  0  0  0  0
    6.4060   -3.4390   27.4400 C   0  0  0  0  0  0  0  0  0  0  0  0
    6.7280   -2.7640   23.2780 C   0  0  0  0  0  0  0  0  0  0  0  0
    7.6470   -3.3560   22.4070 C   0  0  0  0  0  0  0  0  0  0  0  0
  1  2  1  0
  2  3  2  0
  2  4  1  0
  4  5  1  0
  5  6  1  0
  6  7  1  0
  7  8  1  0
  8  9  2  0
  8 10  1  0
 10 11  1  0
 11 12  1  0
 12 13  1  0
 13 14  1  0
 14 15  2  0
 14 16  2  0
 14 17  1  0
 17 18  2  0
 18 19  1  0
 19 20  2  0
 20 21  1  0
 20 22  1  0
 17 23  1  0
 22 23  2  0
 23 24  1  0
 13 25  1  0
 10 26  1  0
 25 26  1  0
  7 27  1  0
  4 28  1  0
 27 28  1  0
M  END
