piperidine-amides-33668-covalent
     RDKit          3D

 29 31  0  0  0  0  0  0  0  0999 V2000
    7.1420   -3.3550   19.2550 C   0  0  0  0  0  0  0  0  0  0  0  0
    6.4170   -4.1350   20.2600 C   0  0  0  0  0  0  0  0  0  0  0  0
    5.3130   -4.6220   19.9180 O   0  0  0  0  0  0  0  0  0  0  0  0
    7.0020   -4.3810   21.5220 N   0  0  0  0  0  0  0  0  0  0  0  0
    6.5230   -5.4760   22.2820 C   0  0  0  0  0  0  0  0  0  0  0  0
    5.9080   -5.0910   23.5490 C   0  0  0  0  0  0  0  0  0  0  0  0
    6.4600   -3.8870   24.2160 C   0  0  0  0  0  0  0  0  0  0  0  0
    5.4850   -3.3590   25.2120 C   0  0  0  0  0  0  0  0  0  0  0  0
    4.5940   -2.5880   24.8270 O   0  0  0  0  0  0  0  0  0  0  0  0
    5.5170   -3.7050   26.5630 N   0  0  0  0  0  0  0  0  0  0  0  0
    4.4350   -4.1650   27.3290 C   0  0  0  0  0  0  0  0  0  0  0  0
    4.6640   -4.9000   28.5630 C   0  0  0  0  0  0  0  0  0  0  0  0
    5.7170   -4.1310   29.3420 C   0  0  0  0  0  0  0  0  0  0  0  0
    5.2410   -2.8820   29.7210 C   0  0  0  0  0  0  0  0  0  0  0  0
    4.3480   -2.9490   30.7700 O   0  0  0  0  0  0  0  0  0  0  0  0
    4.0190   -1.7100   31.3020 C   0  0  0  0  0  0  0  0  0  0  0  0
    2.7140   -1.8230   32.0750 C   0  0  0  0  0  0  0  0  0  0  0  0
    2.3800   -0.4240   32.6540 C   0  0  0  0  0  0  0  0  0  0  0  0
    3.1770    0.8360   32.5000 C   0  0  0  0  0  0  0  0  0  0  0  0
    2.7100    2.1380   33.1360 C   0  0  0  0  0  0  0  0  0  0  0  0
    3.2140    2.2430   34.4000 F   0  0  0  0  0  0  0  0  0  0  0  0
    2.9130    3.2210   32.3270 F   0  0  0  0  0  0  0  0  0  0  0  0
    1.3710    2.0970   33.3690 F   0  0  0  0  0  0  0  0  0  0  0  0
    4.4280    0.7670   31.7120 C   0  0  0  0  0  0  0  0  0  0  0  0
    4.7610   -0.4850   31.1720 N   0  0  0  0  0  0  0  0  0  0  0  0
    6.7160   -4.0970   28.4530 C   0  0  0  0  0  0  0  0  0  0  0  0
    6.3730   -3.1220   27.5230 C   0  0  0  0  0  0  0  0  0  0  0  0
    6.9710   -2.8080   23.3340 C   0  0  0  0  0  0  0  0  0  0  0  0
    7.7370   -3.3250   22.1600 C   0  0  0  0  0  0  0  0  0  0  0  0
  1  2  1  0
  2  3  2  0
  2  4  1  0
  4  5  1  0
  5  6  1  0
  6  7  1  0
  7  8  1  0
  8  9  2  0
  8 10  1  0
 10 11  1  0
 11 12  1  0
 12 13  1  0
 13 14  1  0
 14 15  1  0
 15 16  1  0
 16 17  2  0
 17 18  1  0
 18 19  2  0
 19 20  1  0
 20 21  1  0
 20 22  1  0
 20 23  1  0
 19 24  1  0
 16 25  1  0
 24 25  2  0
 13 26  1  0
 10 27  1  0
 26 27  1  0
  7 28  1  0
  4 29  1  0
 28 29  1  0
M  END
