piperidine-amides-4541-covalent
     RDKit          3D

 24 26  0  0  0  0  0  0  0  0999 V2000
    7.1140   -3.2700   19.2440 C   0  0  0  0  0  0  0  0  0  0  0  0
    6.3760   -4.0430   20.2700 C   0  0  0  0  0  0  0  0  0  0  0  0
    5.3110   -4.5780   19.9010 O   0  0  0  0  0  0  0  0  0  0  0  0
    6.8910   -4.1940   21.5720 N   0  0  0  0  0  0  0  0  0  0  0  0
    6.5700   -5.3430   22.3530 C   0  0  0  0  0  0  0  0  0  0  0  0
    6.0080   -4.9890   23.6540 C   0  0  0  0  0  0  0  0  0  0  0  0
    5.9840   -3.5290   23.9000 C   0  0  0  0  0  0  0  0  0  0  0  0
    5.6110   -3.2390   25.3050 C   0  0  0  0  0  0  0  0  0  0  0  0
    4.8480   -2.2830   25.5280 O   0  0  0  0  0  0  0  0  0  0  0  0
    6.0940   -4.0370   26.3510 N   0  0  0  0  0  0  0  0  0  0  0  0
    5.9720   -3.7150   27.7870 C   0  0  0  0  0  0  0  0  0  0  0  0
    4.7800   -4.4160   28.3580 C   0  0  2  0  0  0  0  0  0  0  0  0
    4.0130   -4.9620   27.5170 O   0  0  0  0  0  0  0  0  0  0  0  0
    3.8420   -3.5210   29.0710 C   0  0  0  0  0  0  0  0  0  0  0  0
    3.5160   -4.0800   30.2900 C   0  0  0  0  0  0  0  0  0  0  0  0
    4.2590   -5.2180   30.4010 C   0  0  0  0  0  0  0  0  0  0  0  0
    4.3000   -6.0760   31.4580 C   0  0  0  0  0  0  0  0  0  0  0  0
    5.1130   -7.1780   31.4090 C   0  0  0  0  0  0  0  0  0  0  0  0
    5.1280   -8.0330   32.5230 F   0  0  0  0  0  0  0  0  0  0  0  0
    5.8890   -7.4340   30.2990 C   0  0  0  0  0  0  0  0  0  0  0  0
    5.8740   -6.5810   29.1960 C   0  0  0  0  0  0  0  0  0  0  0  0
    4.9940   -5.4120   29.2880 C   0  0  0  0  0  0  0  0  0  0  0  0
    7.2620   -2.8400   23.5610 C   0  0  0  0  0  0  0  0  0  0  0  0
    7.7300   -3.1710   22.1700 C   0  0  0  0  0  0  0  0  0  0  0  0
  1  2  1  0
  2  3  2  0
  2  4  1  0
  4  5  1  0
  5  6  1  0
  6  7  1  0
  7  8  1  0
  8  9  2  0
  8 10  1  0
 10 11  1  0
 11 12  1  0
 12 13  1  6
 12 14  1  0
 14 15  1  0
 15 16  1  0
 16 17  1  0
 17 18  2  0
 18 19  1  0
 18 20  1  0
 20 21  2  0
 12 22  1  0
 16 22  2  0
 21 22  1  0
  7 23  1  0
  4 24  1  0
 23 24  1  0
M  END
