piperidine-amides-35463-covalent
     RDKit          3D

 33 37  0  0  0  0  0  0  0  0999 V2000
    6.9940   -3.3720   19.3930 C   0  0  0  0  0  0  0  0  0  0  0  0
    6.3750   -4.2700   20.4120 C   0  0  0  0  0  0  0  0  0  0  0  0
    5.4330   -4.9570   20.0080 O   0  0  0  0  0  0  0  0  0  0  0  0
    6.8660   -4.3420   21.7380 N   0  0  0  0  0  0  0  0  0  0  0  0
    6.7050   -5.5520   22.5200 C   0  0  0  0  0  0  0  0  0  0  0  0
    6.0870   -5.2160   23.8580 C   0  0  0  0  0  0  0  0  0  0  0  0
    6.1530   -3.7040   24.0270 C   0  0  0  0  0  0  0  0  0  0  0  0
    5.6830   -3.2270   25.3700 C   0  0  0  0  0  0  0  0  0  0  0  0
    5.2170   -2.0880   25.4270 O   0  0  0  0  0  0  0  0  0  0  0  0
    5.6830   -3.9790   26.5740 N   0  0  0  0  0  0  0  0  0  0  0  0
    6.3730   -3.4580   27.7050 C   0  0  0  0  0  0  0  0  0  0  0  0
    6.7190   -4.6880   28.5430 C   0  0  0  0  0  0  0  0  0  0  0  0
    5.5210   -4.9600   29.3280 N   0  0  0  0  0  0  0  0  0  0  0  0
    5.5820   -6.4070   29.6050 C   0  0  0  0  0  0  0  0  0  0  0  0
    5.1540   -6.6140   30.8820 C   0  0  0  0  0  0  0  0  0  0  0  0
    5.8350   -6.9320   32.0380 N   0  0  0  0  0  0  0  0  0  0  0  0
    5.3650   -7.1490   33.4100 C   0  0  0  0  0  0  0  0  0  0  0  0
    6.1790   -7.5820   34.8610 S   0  0  0  0  0  0  0  0  0  0  0  0
    4.6470   -7.5120   35.6870 C   0  0  0  0  0  0  0  0  0  0  0  0
    3.5610   -7.1470   34.7710 C   0  0  0  0  0  0  0  0  0  0  0  0
    2.2330   -7.0810   35.4700 C   0  0  0  0  0  0  0  0  0  0  0  0
    2.1590   -5.9990   36.4770 C   0  0  0  0  0  0  0  0  0  0  0  0
    0.8480   -5.9840   37.1250 C   0  0  0  0  0  0  0  0  0  0  0  0
   -0.1340   -7.0350   36.6580 C   0  0  0  0  0  0  0  0  0  0  0  0
    0.7290   -7.9130   35.4530 S   0  0  0  0  0  0  0  0  0  0  0  0
    3.9780   -6.9390   33.4590 C   0  0  0  0  0  0  0  0  0  0  0  0
    3.1820   -6.5620   32.2630 C   0  0  0  0  0  0  0  0  0  0  0  0
    1.8390   -6.3020   32.4020 O   0  0  0  0  0  0  0  0  0  0  0  0
    3.8010   -6.4740   31.0150 N   0  0  0  0  0  0  0  0  0  0  0  0
    4.4270   -4.6490   28.5060 C   0  0  0  0  0  0  0  0  0  0  0  0
    4.4290   -4.4950   26.9980 C   0  0  0  0  0  0  0  0  0  0  0  0
    7.5530   -3.1550   23.7410 C   0  0  0  0  0  0  0  0  0  0  0  0
    7.6980   -3.2410   22.2170 C   0  0  0  0  0  0  0  0  0  0  0  0
  1  2  1  0
  2  3  2  0
  2  4  1  0
  4  5  1  0
  5  6  1  0
  6  7  1  0
  7  8  1  0
  8  9  2  0
  8 10  1  0
 10 11  1  0
 11 12  1  0
 12 13  1  0
 13 14  1  0
 14 15  1  0
 15 16  2  0
 16 17  1  0
 17 18  1  0
 18 19  1  0
 19 20  2  0
 20 21  1  0
 21 22  2  0
 22 23  1  0
 23 24  2  0
 21 25  1  0
 24 25  1  0
 17 26  2  0
 20 26  1  0
 26 27  1  0
 27 28  2  0
 15 29  1  0
 27 29  1  0
 13 30  1  0
 10 31  1  0
 30 31  1  0
  7 32  1  0
  4 33  1  0
 32 33  1  0
M  END
