piperidine-amides-2961-covalent
     RDKit          3D

 24 25  0  0  0  0  0  0  0  0999 V2000
    7.1750   -4.0780   19.7780 C   0  0  0  0  0  0  0  0  0  0  0  0
    5.9150   -3.8960   20.3300 C   0  0  0  0  0  0  0  0  0  0  0  0
    4.9660   -3.9150   19.5570 O   0  0  0  0  0  0  0  0  0  0  0  0
    5.8450   -3.8210   21.7420 N   0  0  0  0  0  0  0  0  0  0  0  0
    6.6630   -2.8120   22.3550 C   0  0  0  0  0  0  0  0  0  0  0  0
    7.1880   -3.2710   23.6890 C   0  0  0  0  0  0  0  0  0  0  0  0
    6.0840   -4.0070   24.4560 C   0  0  0  0  0  0  0  0  0  0  0  0
    5.2200   -3.0590   25.2150 C   0  0  0  0  0  0  0  0  0  0  0  0
    4.6110   -2.1280   24.6680 O   0  0  0  0  0  0  0  0  0  0  0  0
    5.0860   -3.2410   26.6100 N   0  0  0  0  0  0  0  0  0  0  0  0
    6.2080   -3.8610   27.2100 C   0  0  0  0  0  0  0  0  0  0  0  0
    6.2320   -3.6600   28.6890 C   0  0  0  0  0  0  0  0  0  0  0  0
    6.5530   -2.3440   28.9560 O   0  0  0  0  0  0  0  0  0  0  0  0
    5.7680   -1.4200   29.5750 C   0  0  0  0  0  0  0  0  0  0  0  0
    6.4230   -0.6620   30.5460 C   0  0  0  0  0  0  0  0  0  0  0  0
    7.7990   -0.4700   30.4960 C   0  0  0  0  0  0  0  0  0  0  0  0
    8.4340    0.3300   31.5340 C   0  0  0  0  0  0  0  0  0  0  0  0
    7.7370    0.9000   32.5620 C   0  0  0  0  0  0  0  0  0  0  0  0
    6.3930    0.6750   32.5600 C   0  0  0  0  0  0  0  0  0  0  0  0
    5.7340   -0.0760   31.5980 C   0  0  0  0  0  0  0  0  0  0  0  0
    4.3670   -0.1990   31.7590 O   0  0  0  0  0  0  0  0  0  0  0  0
    3.4420    0.7840   31.4170 C   0  0  0  0  0  0  0  0  0  0  0  0
    5.2230   -4.9110   23.6020 C   0  0  0  0  0  0  0  0  0  0  0  0
    5.8620   -5.0970   22.4000 C   0  0  0  0  0  0  0  0  0  0  0  0
  1  2  1  0
  2  3  2  0
  2  4  1  0
  4  5  1  0
  5  6  1  0
  6  7  1  0
  7  8  1  0
  8  9  2  0
  8 10  1  0
 10 11  1  0
 11 12  1  0
 12 13  1  0
 13 14  1  0
 14 15  1  0
 15 16  2  0
 16 17  1  0
 17 18  2  0
 18 19  1  0
 15 20  1  0
 19 20  2  0
 20 21  1  0
 21 22  1  0
  7 23  1  0
  4 24  1  0
 23 24  1  0
M  END
