piperidine-amides-27788-covalent
     RDKit          3D

 26 28  0  0  0  0  0  0  0  0999 V2000
    7.1050   -3.2810   19.2580 C   0  0  0  0  0  0  0  0  0  0  0  0
    6.3920   -4.0810   20.2820 C   0  0  0  0  0  0  0  0  0  0  0  0
    5.3300   -4.6250   19.9160 O   0  0  0  0  0  0  0  0  0  0  0  0
    6.9200   -4.2490   21.5760 N   0  0  0  0  0  0  0  0  0  0  0  0
    6.4990   -5.3190   22.4070 C   0  0  0  0  0  0  0  0  0  0  0  0
    5.9450   -4.8540   23.6840 C   0  0  0  0  0  0  0  0  0  0  0  0
    5.8050   -3.3750   23.7980 C   0  0  0  0  0  0  0  0  0  0  0  0
    5.2020   -3.0160   25.1170 C   0  0  0  0  0  0  0  0  0  0  0  0
    3.9660   -2.9200   25.1630 O   0  0  0  0  0  0  0  0  0  0  0  0
    5.9490   -2.7920   26.2900 N   0  0  0  0  0  0  0  0  0  0  0  0
    6.3190   -3.9210   27.1500 C   0  0  0  0  0  0  0  0  0  0  0  0
    7.6940   -4.2730   26.8220 C   0  0  0  0  0  0  0  0  0  0  0  0
    8.3840   -4.8980   27.9190 C   0  0  0  0  0  0  0  0  0  0  0  0
    9.6630   -5.3000   27.8360 C   0  0  0  0  0  0  0  0  0  0  0  0
   10.2140   -5.0480   26.6010 N   0  0  0  0  0  0  0  0  0  0  0  0
    9.5220   -4.4250   25.5220 C   0  0  0  0  0  0  0  0  0  0  0  0
    8.2450   -4.0200   25.5960 C   0  0  0  0  0  0  0  0  0  0  0  0
    6.3520   -1.4590   26.6960 C   0  0  0  0  0  0  0  0  0  0  0  0
    5.8610   -1.3150   27.9640 C   0  0  0  0  0  0  0  0  0  0  0  0
    5.1250   -0.1310   28.0540 C   0  0  0  0  0  0  0  0  0  0  0  0
    5.9070    1.0220   28.5580 C   0  0  0  0  0  0  0  0  0  0  0  0
    5.9800    0.6710   30.0270 C   0  0  0  0  0  0  0  0  0  0  0  0
    6.5310   -0.7270   30.0900 C   0  0  0  0  0  0  0  0  0  0  0  0
    6.8680   -1.3760   28.8870 C   0  0  0  0  0  0  0  0  0  0  0  0
    6.9440   -2.5870   23.3110 C   0  0  0  0  0  0  0  0  0  0  0  0
    7.7450   -3.2380   22.2310 C   0  0  0  0  0  0  0  0  0  0  0  0
  1  2  1  0
  2  3  2  0
  2  4  1  0
  4  5  1  0
  5  6  1  0
  6  7  1  0
  7  8  1  0
  8  9  2  0
  8 10  1  0
 10 11  1  0
 11 12  1  0
 12 13  2  0
 13 14  1  0
 14 15  2  0
 15 16  1  0
 12 17  1  0
 16 17  2  0
 10 18  1  0
 18 19  1  0
 19 20  1  0
 20 21  1  0
 21 22  1  0
 22 23  1  0
 19 24  1  0
 23 24  1  0
  7 25  1  0
  4 26  1  0
 25 26  1  0
M  END
