piperidine-amides-8269-covalent
     RDKit          3D

 25 27  0  0  0  0  0  0  0  0999 V2000
    7.0550   -3.3210   19.3220 C   0  0  0  0  0  0  0  0  0  0  0  0
    6.3770   -4.1560   20.3120 C   0  0  0  0  0  0  0  0  0  0  0  0
    5.3600   -4.7780   19.9600 O   0  0  0  0  0  0  0  0  0  0  0  0
    6.8960   -4.2900   21.6230 N   0  0  0  0  0  0  0  0  0  0  0  0
    6.5740   -5.4770   22.3590 C   0  0  0  0  0  0  0  0  0  0  0  0
    6.3450   -5.1670   23.8170 C   0  0  0  0  0  0  0  0  0  0  0  0
    6.2320   -3.6650   23.9820 C   0  0  0  0  0  0  0  0  0  0  0  0
    5.8870   -3.3010   25.3900 C   0  0  0  0  0  0  0  0  0  0  0  0
    4.9070   -3.8690   25.8630 O   0  0  0  0  0  0  0  0  0  0  0  0
    6.6640   -2.3450   26.0430 N   0  0  0  0  0  0  0  0  0  0  0  0
    6.1720   -1.0100   26.1510 C   0  0  1  0  0  0  0  0  0  0  0  0
    4.8800   -0.9250   26.6580 C   0  0  0  0  0  0  0  0  0  0  0  0
    4.7050   -1.0280   28.0440 C   0  0  0  0  0  0  0  0  0  0  0  0
    5.5050   -1.8080   28.9360 C   0  0  0  0  0  0  0  0  0  0  0  0
    6.7120   -0.8820   29.8750 S   0  0  0  0  0  0  0  0  0  0  0  0
    8.1080   -1.4320   29.8260 O   0  0  0  0  0  0  0  0  0  0  0  0
    6.3320   -0.4310   31.2500 O   0  0  0  0  0  0  0  0  0  0  0  0
    6.6710    0.4250   28.7200 C   0  0  0  0  0  0  0  0  0  0  0  0
    6.8440    1.8760   29.1750 C   0  0  0  0  0  0  0  0  0  0  0  0
    6.7500    2.9010   28.1530 C   0  0  0  0  0  0  0  0  0  0  0  0
    6.4900    2.3040   26.8340 C   0  0  0  0  0  0  0  0  0  0  0  0
    6.3590    0.7630   26.6600 C   0  0  0  0  0  0  0  0  0  0  0  0
    6.4200   -0.3980   27.4730 C   0  0  0  0  0  0  0  0  0  0  0  0
    7.5530   -3.0800   23.6230 C   0  0  0  0  0  0  0  0  0  0  0  0
    7.6910   -3.1910   22.1400 C   0  0  0  0  0  0  0  0  0  0  0  0
  1  2  1  0
  2  3  2  0
  2  4  1  0
  4  5  1  0
  5  6  1  0
  6  7  1  0
  7  8  1  0
  8  9  2  0
  8 10  1  0
 11 10  1  1
 11 12  1  0
 12 13  1  0
 13 14  1  0
 15 14  1  0
 15 16  2  0
 15 17  2  0
 15 18  1  0
 18 19  1  0
 19 20  2  0
 20 21  1  0
 21 22  2  0
 11 23  1  0
 18 23  2  0
 22 23  1  0
  7 24  1  0
  4 25  1  0
 24 25  1  0
M  END
