piperidine-amides-1830-covalent
     RDKit          3D

 18 19  0  0  0  0  0  0  0  0999 V2000
    7.0490   -3.2950   19.2660 C   0  0  0  0  0  0  0  0  0  0  0  0
    6.3480   -4.0970   20.3040 C   0  0  0  0  0  0  0  0  0  0  0  0
    5.3390   -4.7000   19.9430 O   0  0  0  0  0  0  0  0  0  0  0  0
    6.8490   -4.1810   21.6130 N   0  0  0  0  0  0  0  0  0  0  0  0
    7.6900   -3.1530   22.1970 C   0  0  0  0  0  0  0  0  0  0  0  0
    7.3580   -2.9510   23.6570 C   0  0  0  0  0  0  0  0  0  0  0  0
    6.0270   -3.6290   23.9780 C   0  0  0  0  0  0  0  0  0  0  0  0
    5.6020   -3.2540   25.3500 C   0  0  0  0  0  0  0  0  0  0  0  0
    4.3960   -3.3110   25.6270 O   0  0  0  0  0  0  0  0  0  0  0  0
    6.5150   -2.8320   26.3380 N   0  0  0  0  0  0  0  0  0  0  0  0
    6.0650   -2.7410   27.7190 C   0  0  1  0  0  0  0  0  0  0  0  0
    6.3130   -4.0930   28.3640 C   0  0  0  0  0  0  0  0  0  0  0  0
    6.8790   -1.6840   28.4850 C   0  0  0  0  0  0  0  0  0  0  0  0
    5.6960   -1.1730   28.6620 C   0  0  2  0  0  0  0  0  0  0  0  0
    4.7710   -1.7220   29.5110 C   0  0  0  0  0  0  0  0  0  0  0  0
    4.8410   -2.1040   28.0660 C   0  0  0  0  0  0  0  0  0  0  0  0
    6.0960   -5.1020   23.7330 C   0  0  0  0  0  0  0  0  0  0  0  0
    6.6330   -5.4010   22.3630 C   0  0  0  0  0  0  0  0  0  0  0  0
  1  2  1  0
  2  3  2  0
  2  4  1  0
  4  5  1  0
  5  6  1  0
  6  7  1  0
  7  8  1  0
  8  9  2  0
  8 10  1  0
 11 10  1  0
 11 12  1  1
 11 13  1  0
 13 14  1  0
 14 15  1  1
 11 16  1  0
 14 16  1  0
  7 17  1  0
  4 18  1  0
 17 18  1  0
M  END
