piperidine-amides-24238-covalent
     RDKit          3D

 23 25  0  0  0  0  0  0  0  0999 V2000
    7.0720   -3.3780   19.4310 C   0  0  0  0  0  0  0  0  0  0  0  0
    6.3960   -4.2420   20.4080 C   0  0  0  0  0  0  0  0  0  0  0  0
    5.4270   -4.9350   20.0190 O   0  0  0  0  0  0  0  0  0  0  0  0
    6.8590   -4.3330   21.7430 N   0  0  0  0  0  0  0  0  0  0  0  0
    6.5170   -5.4780   22.5340 C   0  0  0  0  0  0  0  0  0  0  0  0
    5.6190   -4.9510   23.6690 C   0  0  0  0  0  0  0  0  0  0  0  0
    6.2900   -3.7740   24.3890 C   0  0  0  0  0  0  0  0  0  0  0  0
    5.2870   -3.1940   25.3500 C   0  0  0  0  0  0  0  0  0  0  0  0
    4.1490   -3.0030   24.8880 O   0  0  0  0  0  0  0  0  0  0  0  0
    5.5380   -2.8600   26.7360 N   0  0  0  0  0  0  0  0  0  0  0  0
    4.6070   -2.0520   27.4820 C   0  0  0  0  0  0  0  0  0  0  0  0
    4.5960   -2.4050   28.9720 C   0  0  0  0  0  0  0  0  0  0  0  0
    4.8480   -3.6700   29.3000 C   0  0  0  0  0  0  0  0  0  0  0  0
    4.1240   -4.4060   30.2670 C   0  0  0  0  0  0  0  0  0  0  0  0
    4.3960   -5.7670   30.5980 C   0  0  0  0  0  0  0  0  0  0  0  0
    3.4740   -6.6510   31.8090 Cl  0  0  0  0  0  0  0  0  0  0  0  0
    5.4230   -6.3350   29.9090 C   0  0  0  0  0  0  0  0  0  0  0  0
    6.1070   -5.4830   28.9280 C   0  0  0  0  0  0  0  0  0  0  0  0
    6.9210   -6.6550   28.6720 C   0  0  0  0  0  0  0  0  0  0  0  0
    5.8340   -4.1610   28.6170 C   0  0  0  0  0  0  0  0  0  0  0  0
    6.4990   -3.3340   27.6470 C   0  0  0  0  0  0  0  0  0  0  0  0
    6.7130   -2.7020   23.4010 C   0  0  0  0  0  0  0  0  0  0  0  0
    7.4710   -3.2160   22.3770 C   0  0  0  0  0  0  0  0  0  0  0  0
  1  2  1  0
  2  3  2  0
  2  4  1  0
  4  5  1  0
  5  6  1  0
  6  7  1  0
  7  8  1  0
  8  9  2  0
  8 10  1  0
 10 11  1  0
 11 12  1  0
 12 13  1  0
 13 14  2  0
 14 15  1  0
 15 16  1  0
 15 17  2  0
 17 18  1  0
 18 19  1  0
 13 20  1  0
 18 20  2  0
 10 21  1  0
 20 21  1  0
  7 22  1  0
  4 23  1  0
 22 23  1  0
M  END
