piperidine-amides-26112-covalent
     RDKit          3D

 25 27  0  0  0  0  0  0  0  0999 V2000
    6.9840   -3.3760   19.4590 C   0  0  0  0  0  0  0  0  0  0  0  0
    6.3480   -4.2740   20.4310 C   0  0  0  0  0  0  0  0  0  0  0  0
    5.4220   -4.9930   20.0160 O   0  0  0  0  0  0  0  0  0  0  0  0
    6.7620   -4.3790   21.7880 N   0  0  0  0  0  0  0  0  0  0  0  0
    6.5780   -5.5910   22.5610 C   0  0  0  0  0  0  0  0  0  0  0  0
    5.8520   -5.1720   23.8220 C   0  0  0  0  0  0  0  0  0  0  0  0
    5.8660   -3.6790   23.9680 C   0  0  0  0  0  0  0  0  0  0  0  0
    5.2350   -3.0750   25.2190 C   0  0  0  0  0  0  0  0  0  0  0  0
    4.6550   -1.9670   25.1100 O   0  0  0  0  0  0  0  0  0  0  0  0
    5.1970   -3.6200   26.5460 N   0  0  0  0  0  0  0  0  0  0  0  0
    6.1990   -4.5680   26.7420 C   0  0  0  0  0  0  0  0  0  0  0  0
    6.0150   -5.5590   27.7970 C   0  0  0  0  0  0  0  0  0  0  0  0
    6.2220   -5.0310   29.1330 C   0  0  0  0  0  0  0  0  0  0  0  0
    5.0430   -4.3700   29.6610 N   0  0  0  0  0  0  0  0  0  0  0  0
    4.2450   -5.5340   30.1540 C   0  0  0  0  0  0  0  0  0  0  0  0
    3.1180   -5.9530   29.4960 O   0  0  0  0  0  0  0  0  0  0  0  0
    4.6030   -6.3170   31.3990 C   0  0  0  0  0  0  0  0  0  0  0  0
    5.4940   -7.4660   31.2710 C   0  0  0  0  0  0  0  0  0  0  0  0
    5.6400   -7.9750   32.5250 C   0  0  0  0  0  0  0  0  0  0  0  0
    4.8580   -7.1430   33.3570 C   0  0  0  0  0  0  0  0  0  0  0  0
    4.2350   -6.1460   32.6730 N   0  0  0  0  0  0  0  0  0  0  0  0
    4.4540   -3.4570   28.8520 C   0  0  0  0  0  0  0  0  0  0  0  0
    5.1940   -2.7300   27.7130 C   0  0  0  0  0  0  0  0  0  0  0  0
    7.3040   -3.2320   23.6180 C   0  0  0  0  0  0  0  0  0  0  0  0
    7.4000   -3.1940   22.3980 C   0  0  0  0  0  0  0  0  0  0  0  0
  1  2  1  0
  2  3  2  0
  2  4  1  0
  4  5  1  0
  5  6  1  0
  6  7  1  0
  7  8  1  0
  8  9  2  0
  8 10  1  0
 10 11  1  0
 11 12  1  0
 12 13  1  0
 13 14  1  0
 14 15  1  0
 15 16  2  0
 15 17  1  0
 17 18  2  0
 18 19  1  0
 19 20  2  0
 17 21  1  0
 20 21  1  0
 14 22  1  0
 10 23  1  0
 22 23  1  0
  7 24  1  0
  4 25  1  0
 24 25  1  0
M  END
