piperidine-amides-8934-covalent
     RDKit          3D

 22 23  0  0  0  0  0  0  0  0999 V2000
    7.1150   -3.3040   19.2550 C   0  0  0  0  0  0  0  0  0  0  0  0
    6.3580   -4.0280   20.2780 C   0  0  0  0  0  0  0  0  0  0  0  0
    5.3370   -4.6480   19.9310 O   0  0  0  0  0  0  0  0  0  0  0  0
    6.7970   -4.0710   21.6200 N   0  0  0  0  0  0  0  0  0  0  0  0
    7.7430   -3.0940   22.1300 C   0  0  0  0  0  0  0  0  0  0  0  0
    7.4850   -2.9780   23.6100 C   0  0  0  0  0  0  0  0  0  0  0  0
    6.1480   -3.5550   23.9370 C   0  0  0  0  0  0  0  0  0  0  0  0
    5.6120   -3.2130   25.2920 C   0  0  0  0  0  0  0  0  0  0  0  0
    4.5480   -2.5340   25.3790 O   0  0  0  0  0  0  0  0  0  0  0  0
    6.2050   -3.5810   26.5270 N   0  0  0  0  0  0  0  0  0  0  0  0
    5.8970   -4.8870   27.1760 C   0  0  1  0  0  0  0  0  0  0  0  0
    6.3220   -4.8730   28.5930 C   0  0  0  0  0  0  0  0  0  0  0  0
    6.4750   -6.2130   29.1790 C   0  0  0  0  0  0  0  0  0  0  0  0
    4.4830   -5.3330   27.0680 C   0  0  0  0  0  0  0  0  0  0  0  0
    4.0800   -6.3680   26.1600 N   0  0  0  0  0  0  0  0  0  0  0  0
    3.1990   -7.2710   26.8840 C   0  0  0  0  0  0  0  0  0  0  0  0
    2.5530   -8.1890   25.9150 C   0  0  0  0  0  0  0  0  0  0  0  0
    3.1560   -8.2460   24.6850 O   0  0  0  0  0  0  0  0  0  0  0  0
    3.2840   -7.0150   24.0420 C   0  0  0  0  0  0  0  0  0  0  0  0
    3.3220   -5.9740   24.9890 C   0  0  0  0  0  0  0  0  0  0  0  0
    6.0990   -5.0730   23.7120 C   0  0  0  0  0  0  0  0  0  0  0  0
    6.6800   -5.3400   22.3080 C   0  0  0  0  0  0  0  0  0  0  0  0
  1  2  1  0
  2  3  2  0
  2  4  1  0
  4  5  1  0
  5  6  1  0
  6  7  1  0
  7  8  1  0
  8  9  2  0
  8 10  1  0
 10 11  1  0
 11 12  1  1
 12 13  1  0
 11 14  1  0
 14 15  1  0
 15 16  1  0
 16 17  1  0
 17 18  1  0
 18 19  1  0
 15 20  1  0
 19 20  1  0
  7 21  1  0
  4 22  1  0
 21 22  1  0
M  END
