piperidine-amides-24255-covalent
     RDKit          3D

 23 25  0  0  0  0  0  0  0  0999 V2000
    7.0370   -3.3560   19.3890 C   0  0  0  0  0  0  0  0  0  0  0  0
    6.3840   -4.2410   20.3660 C   0  0  0  0  0  0  0  0  0  0  0  0
    5.4030   -4.9280   20.0070 O   0  0  0  0  0  0  0  0  0  0  0  0
    6.8700   -4.3670   21.6810 N   0  0  0  0  0  0  0  0  0  0  0  0
    6.6240   -5.6190   22.3750 C   0  0  0  0  0  0  0  0  0  0  0  0
    6.2800   -5.2970   23.8420 C   0  0  0  0  0  0  0  0  0  0  0  0
    6.1300   -3.7980   23.9200 C   0  0  0  0  0  0  0  0  0  0  0  0
    5.6020   -3.3290   25.2310 C   0  0  0  0  0  0  0  0  0  0  0  0
    4.7270   -2.4470   25.2050 O   0  0  0  0  0  0  0  0  0  0  0  0
    6.0260   -3.8420   26.4780 N   0  0  0  0  0  0  0  0  0  0  0  0
    6.4140   -2.8850   27.4740 C   0  0  0  0  0  0  0  0  0  0  0  0
    6.6560   -3.7440   28.6730 C   0  0  0  0  0  0  0  0  0  0  0  0
    6.1240   -4.9380   28.4690 C   0  0  1  0  0  0  0  0  0  0  0  0
    5.2270   -5.4030   29.3830 C   0  0  0  0  0  0  0  0  0  0  0  0
    5.1640   -6.6410   29.9260 C   0  0  0  0  0  0  0  0  0  0  0  0
    4.2590   -7.0950   30.8450 C   0  0  0  0  0  0  0  0  0  0  0  0
    3.0760   -6.3790   31.5310 C   0  0  0  0  0  0  0  0  0  0  0  0
    3.2390   -5.0010   30.8550 C   0  0  0  0  0  0  0  0  0  0  0  0
    2.0710   -3.7720   31.3410 Cl  0  0  0  0  0  0  0  0  0  0  0  0
    4.2710   -4.5990   29.8500 C   0  0  0  0  0  0  0  0  0  0  0  0
    5.4970   -4.9900   27.2210 C   0  0  0  0  0  0  0  0  0  0  0  0
    7.4490   -3.1670   23.6040 C   0  0  0  0  0  0  0  0  0  0  0  0
    7.6440   -3.3000   22.2570 C   0  0  0  0  0  0  0  0  0  0  0  0
  1  2  1  0
  2  3  2  0
  2  4  1  0
  4  5  1  0
  5  6  1  0
  6  7  1  0
  7  8  1  0
  8  9  2  0
  8 10  1  0
 10 11  1  0
 11 12  1  0
 12 13  1  0
 13 14  1  1
 14 15  2  0
 15 16  1  0
 16 17  2  0
 17 18  1  0
 18 19  1  0
 14 20  1  0
 18 20  2  0
 10 21  1  0
 13 21  1  0
  7 22  1  0
  4 23  1  0
 22 23  1  0
M  END
