piperidine-amides-2305-covalent
     RDKit          3D

 28 30  0  0  0  0  0  0  0  0999 V2000
    7.1130   -3.2680   19.2510 C   0  0  0  0  0  0  0  0  0  0  0  0
    6.3740   -4.0580   20.2720 C   0  0  0  0  0  0  0  0  0  0  0  0
    5.3270   -4.5930   19.9080 O   0  0  0  0  0  0  0  0  0  0  0  0
    6.8930   -4.2070   21.5640 N   0  0  0  0  0  0  0  0  0  0  0  0
    6.5710   -5.3300   22.3980 C   0  0  0  0  0  0  0  0  0  0  0  0
    5.8070   -4.8530   23.6080 C   0  0  0  0  0  0  0  0  0  0  0  0
    6.5380   -3.6890   24.2980 C   0  0  0  0  0  0  0  0  0  0  0  0
    5.7100   -3.2820   25.4610 C   0  0  0  0  0  0  0  0  0  0  0  0
    4.4850   -3.1930   25.3120 O   0  0  0  0  0  0  0  0  0  0  0  0
    6.2770   -2.9890   26.7260 N   0  0  0  0  0  0  0  0  0  0  0  0
    6.2560   -4.0090   27.7600 C   0  0  0  0  0  0  0  0  0  0  0  0
    5.1390   -3.7290   28.7320 C   0  0  0  0  0  0  0  0  0  0  0  0
    5.0860   -2.7050   29.6520 C   0  0  0  0  0  0  0  0  0  0  0  0
    4.0440   -2.5210   30.5050 C   0  0  0  0  0  0  0  0  0  0  0  0
    2.9760   -3.3620   30.4910 C   0  0  0  0  0  0  0  0  0  0  0  0
    1.7850   -3.2210   31.4150 C   0  0  0  0  0  0  0  0  0  0  0  0
    1.4610   -4.3680   32.0990 O   0  0  0  0  0  0  0  0  0  0  0  0
    2.4230   -5.3840   32.1610 C   0  0  0  0  0  0  0  0  0  0  0  0
    3.3420   -5.1420   33.3450 C   0  0  0  0  0  0  0  0  0  0  0  0
    4.4220   -6.1660   33.5220 C   0  0  0  0  0  0  0  0  0  0  0  0
    4.5740   -7.3210   32.6040 C   0  0  0  0  0  0  0  0  0  0  0  0
    5.5810   -8.2040   32.8330 F   0  0  0  0  0  0  0  0  0  0  0  0
    3.5970   -7.4490   31.4640 C   0  0  0  0  0  0  0  0  0  0  0  0
    2.5180   -6.4490   31.2710 C   0  0  0  0  0  0  0  0  0  0  0  0
    2.9790   -4.4740   29.5240 C   0  0  0  0  0  0  0  0  0  0  0  0
    4.0030   -4.7020   28.6450 C   0  0  0  0  0  0  0  0  0  0  0  0
    6.7940   -2.5920   23.3160 C   0  0  0  0  0  0  0  0  0  0  0  0
    7.6770   -3.1380   22.1950 C   0  0  0  0  0  0  0  0  0  0  0  0
  1  2  1  0
  2  3  2  0
  2  4  1  0
  4  5  1  0
  5  6  1  0
  6  7  1  0
  7  8  1  0
  8  9  2  0
  8 10  1  0
 10 11  1  0
 11 12  1  0
 12 13  2  0
 13 14  1  0
 14 15  2  0
 15 16  1  0
 16 17  1  0
 17 18  1  0
 18 19  2  0
 19 20  1  0
 20 21  2  0
 21 22  1  0
 21 23  1  0
 18 24  1  0
 23 24  2  0
 15 25  1  0
 12 26  1  0
 25 26  2  0
  7 27  1  0
  4 28  1  0
 27 28  1  0
M  END
