piperidine-amides-29466-covalent
     RDKit          3D

 26 28  0  0  0  0  0  0  0  0999 V2000
    7.0500   -3.3440   19.3550 C   0  0  0  0  0  0  0  0  0  0  0  0
    6.3930   -4.2070   20.3320 C   0  0  0  0  0  0  0  0  0  0  0  0
    5.3740   -4.8250   19.9740 O   0  0  0  0  0  0  0  0  0  0  0  0
    6.9420   -4.3670   21.6310 N   0  0  0  0  0  0  0  0  0  0  0  0
    6.5930   -5.5270   22.3890 C   0  0  0  0  0  0  0  0  0  0  0  0
    5.8050   -5.0870   23.5890 C   0  0  0  0  0  0  0  0  0  0  0  0
    6.5920   -3.9680   24.2390 C   0  0  0  0  0  0  0  0  0  0  0  0
    5.8320   -3.4160   25.4270 C   0  0  0  0  0  0  0  0  0  0  0  0
    4.9690   -2.5770   25.1790 O   0  0  0  0  0  0  0  0  0  0  0  0
    6.1310   -3.8990   26.7050 N   0  0  0  0  0  0  0  0  0  0  0  0
    6.0350   -3.1480   27.9280 C   0  0  0  0  0  0  0  0  0  0  0  0
    5.0980   -3.5800   28.9010 C   0  0  0  0  0  0  0  0  0  0  0  0
    5.5030   -4.9230   29.3750 N   0  0  0  0  0  0  0  0  0  0  0  0
    4.8310   -5.8730   30.1950 C   0  0  0  0  0  0  0  0  0  0  0  0
    3.6150   -6.4080   29.7930 C   0  0  0  0  0  0  0  0  0  0  0  0
    3.7410   -7.6020   29.0120 C   0  0  0  0  0  0  0  0  0  0  0  0
    2.2820   -7.8980   28.7640 C   0  0  0  0  0  0  0  0  0  0  0  0
    1.4850   -6.9590   29.3530 N   0  0  0  0  0  0  0  0  0  0  0  0
    2.3220   -6.0540   29.9790 N   0  0  0  0  0  0  0  0  0  0  0  0
    1.7670   -4.9220   30.7070 C   0  0  0  0  0  0  0  0  0  0  0  0
    1.5760   -5.2600   32.0420 F   0  0  0  0  0  0  0  0  0  0  0  0
    0.5910   -4.5740   30.1050 F   0  0  0  0  0  0  0  0  0  0  0  0
    6.1680   -5.7010   28.3810 C   0  0  0  0  0  0  0  0  0  0  0  0
    5.8770   -5.3040   26.9330 C   0  0  0  0  0  0  0  0  0  0  0  0
    6.7730   -2.8360   23.2570 C   0  0  0  0  0  0  0  0  0  0  0  0
    7.6450   -3.2920   22.2930 C   0  0  0  0  0  0  0  0  0  0  0  0
  1  2  1  0
  2  3  2  0
  2  4  1  0
  4  5  1  0
  5  6  1  0
  6  7  1  0
  7  8  1  0
  8  9  2  0
  8 10  1  0
 10 11  1  0
 11 12  1  0
 12 13  1  0
 13 14  1  0
 14 15  1  0
 15 16  2  0
 16 17  1  0
 17 18  2  0
 15 19  1  0
 18 19  1  0
 19 20  1  0
 20 21  1  0
 20 22  1  0
 13 23  1  0
 10 24  1  0
 23 24  1  0
  7 25  1  0
  4 26  1  0
 25 26  1  0
M  END
