piperidine-amides-30119-covalent
     RDKit          3D

 27 29  0  0  0  0  0  0  0  0999 V2000
    7.0120   -3.3750   19.3990 C   0  0  0  0  0  0  0  0  0  0  0  0
    6.3440   -4.2460   20.3590 C   0  0  0  0  0  0  0  0  0  0  0  0
    5.3610   -4.8880   19.9920 O   0  0  0  0  0  0  0  0  0  0  0  0
    6.8370   -4.4180   21.7080 N   0  0  0  0  0  0  0  0  0  0  0  0
    7.5790   -3.3770   22.3790 C   0  0  0  0  0  0  0  0  0  0  0  0
    6.8090   -2.8120   23.5580 C   0  0  0  0  0  0  0  0  0  0  0  0
    6.1740   -3.9330   24.3860 C   0  0  0  0  0  0  0  0  0  0  0  0
    5.1350   -3.3920   25.3420 C   0  0  0  0  0  0  0  0  0  0  0  0
    4.1000   -2.8670   24.9110 O   0  0  0  0  0  0  0  0  0  0  0  0
    5.3070   -3.4600   26.7680 N   0  0  0  0  0  0  0  0  0  0  0  0
    6.6100   -3.3610   27.2290 C   0  0  0  0  0  0  0  0  0  0  0  0
    6.7720   -4.6600   27.9630 C   0  0  0  0  0  0  0  0  0  0  0  0
    5.8240   -4.9430   28.8120 C   0  0  0  0  0  0  0  0  0  0  0  0
    6.0820   -5.8160   29.8560 C   0  0  0  0  0  0  0  0  0  0  0  0
    5.2050   -6.1970   30.8420 C   0  0  0  0  0  0  0  0  0  0  0  0
    5.6520   -6.9620   31.7180 O   0  0  0  0  0  0  0  0  0  0  0  0
    5.0190   -7.9040   32.4910 C   0  0  0  0  0  0  0  0  0  0  0  0
    3.9200   -5.7280   30.8500 C   0  0  0  0  0  0  0  0  0  0  0  0
    3.0140   -6.0970   31.8280 O   0  0  0  0  0  0  0  0  0  0  0  0
    1.6540   -6.1500   31.4660 C   0  0  0  0  0  0  0  0  0  0  0  0
    3.5620   -4.7850   29.7360 C   0  0  0  0  0  0  0  0  0  0  0  0
    4.5770   -4.4410   28.7570 C   0  0  0  0  0  0  0  0  0  0  0  0
    4.2360   -3.5560   27.7190 C   0  0  0  0  0  0  0  0  0  0  0  0
    4.0620   -2.2690   28.2190 C   0  0  0  0  0  0  0  0  0  0  0  0
    3.1730   -4.0050   26.9850 C   0  0  0  0  0  0  0  0  0  0  0  0
    5.5090   -5.0120   23.5800 C   0  0  0  0  0  0  0  0  0  0  0  0
    6.4090   -5.5370   22.4780 C   0  0  0  0  0  0  0  0  0  0  0  0
  1  2  1  0
  2  3  2  0
  2  4  1  0
  4  5  1  0
  5  6  1  0
  6  7  1  0
  7  8  1  0
  8  9  2  0
  8 10  1  0
 10 11  1  0
 11 12  1  0
 12 13  1  0
 13 14  2  0
 14 15  1  0
 15 16  1  0
 16 17  1  0
 15 18  2  0
 18 19  1  0
 19 20  1  0
 18 21  1  0
 13 22  1  0
 21 22  2  0
 10 23  1  0
 22 23  1  0
 23 24  1  0
 23 25  1  0
  7 26  1  0
  4 27  1  0
 26 27  1  0
M  END
