piperidine-amides-12383-covalent
     RDKit          3D

 24 25  0  0  0  0  0  0  0  0999 V2000
    7.0640   -3.2930   19.3350 C   0  0  0  0  0  0  0  0  0  0  0  0
    6.3530   -4.0980   20.3230 C   0  0  0  0  0  0  0  0  0  0  0  0
    5.3790   -4.7690   19.9680 O   0  0  0  0  0  0  0  0  0  0  0  0
    6.8050   -4.1530   21.6960 N   0  0  0  0  0  0  0  0  0  0  0  0
    6.6260   -5.3740   22.4460 C   0  0  0  0  0  0  0  0  0  0  0  0
    6.0310   -5.0670   23.7910 C   0  0  0  0  0  0  0  0  0  0  0  0
    6.1250   -3.5670   23.9740 C   0  0  0  0  0  0  0  0  0  0  0  0
    5.6250   -3.1590   25.3240 C   0  0  0  0  0  0  0  0  0  0  0  0
    4.4020   -3.0890   25.5480 O   0  0  0  0  0  0  0  0  0  0  0  0
    6.5050   -2.8510   26.3940 N   0  0  0  0  0  0  0  0  0  0  0  0
    6.1800   -3.4050   27.6990 C   0  0  0  0  0  0  0  0  0  0  0  0
    6.1030   -2.3190   28.7600 C   0  0  0  0  0  0  0  0  0  0  0  0
    4.9210   -2.0940   29.4690 C   0  0  0  0  0  0  0  0  0  0  0  0
    4.7850   -1.1070   30.4810 C   0  0  0  0  0  0  0  0  0  0  0  0
    5.8280   -0.2790   30.8480 C   0  0  0  0  0  0  0  0  0  0  0  0
    5.7360    0.7230   31.8630 N   0  0  0  0  0  0  0  0  0  0  0  0
    5.3400    2.0450   31.4880 C   0  0  0  0  0  0  0  0  0  0  0  0
    6.1800    0.3370   33.1810 C   0  0  0  0  0  0  0  0  0  0  0  0
    7.5560    0.2050   33.2570 C   0  0  0  0  0  0  0  0  0  0  0  0
    5.2880    0.1590   34.1220 O   0  0  0  0  0  0  0  0  0  0  0  0
    7.0700   -0.5150   30.0970 C   0  0  0  0  0  0  0  0  0  0  0  0
    7.1840   -1.5250   29.0700 C   0  0  0  0  0  0  0  0  0  0  0  0
    7.5030   -3.0510   23.6230 C   0  0  0  0  0  0  0  0  0  0  0  0
    7.6590   -3.1010   22.2310 C   0  0  0  0  0  0  0  0  0  0  0  0
  1  2  1  0
  2  3  2  0
  2  4  1  0
  4  5  1  0
  5  6  1  0
  6  7  1  0
  7  8  1  0
  8  9  2  0
  8 10  1  0
 10 11  1  0
 11 12  1  0
 12 13  2  0
 13 14  1  0
 14 15  2  0
 15 16  1  0
 16 17  1  0
 16 18  1  0
 18 19  1  0
 18 20  2  0
 15 21  1  0
 12 22  1  0
 21 22  2  0
  7 23  1  0
  4 24  1  0
 23 24  1  0
M  END
