piperidine-amides-3182-covalent
     RDKit          3D

 22 23  0  0  0  0  0  0  0  0999 V2000
    7.1190   -3.2910   19.2760 C   0  0  0  0  0  0  0  0  0  0  0  0
    6.3820   -4.0850   20.2510 C   0  0  0  0  0  0  0  0  0  0  0  0
    5.3350   -4.6450   19.9260 O   0  0  0  0  0  0  0  0  0  0  0  0
    6.9050   -4.2620   21.5770 N   0  0  0  0  0  0  0  0  0  0  0  0
    6.5090   -5.3910   22.3670 C   0  0  0  0  0  0  0  0  0  0  0  0
    5.8450   -4.9160   23.6320 C   0  0  0  0  0  0  0  0  0  0  0  0
    6.6180   -3.7220   24.1930 C   0  0  0  0  0  0  0  0  0  0  0  0
    5.8660   -3.0990   25.3140 C   0  0  0  0  0  0  0  0  0  0  0  0
    4.6990   -2.6770   25.1840 O   0  0  0  0  0  0  0  0  0  0  0  0
    6.5030   -2.9680   26.5690 N   0  0  0  0  0  0  0  0  0  0  0  0
    6.0740   -3.7520   27.7110 C   0  0  0  0  0  0  0  0  0  0  0  0
    5.3020   -4.9780   27.2620 C   0  0  0  0  0  0  0  0  0  0  0  0
    4.5000   -4.9720   26.1010 C   0  0  0  0  0  0  0  0  0  0  0  0
    3.7650   -6.0930   25.6570 C   0  0  0  0  0  0  0  0  0  0  0  0
    3.8370   -7.2310   26.3910 C   0  0  0  0  0  0  0  0  0  0  0  0
    4.6560   -7.1930   27.5520 C   0  0  0  0  0  0  0  0  0  0  0  0
    5.3780   -6.1440   28.0130 C   0  0  0  0  0  0  0  0  0  0  0  0
    6.1410   -6.2210   29.1620 C   0  0  0  0  0  0  0  0  0  0  0  0
    5.7950   -7.1570   30.1360 C   0  0  0  0  0  0  0  0  0  0  0  0
    4.3780   -7.5040   30.2810 C   0  0  0  0  0  0  0  0  0  0  0  0
    6.9460   -2.6630   23.1570 C   0  0  0  0  0  0  0  0  0  0  0  0
    7.7290   -3.2550   22.1850 C   0  0  0  0  0  0  0  0  0  0  0  0
  1  2  1  0
  2  3  2  0
  2  4  1  0
  4  5  1  0
  5  6  1  0
  6  7  1  0
  7  8  1  0
  8  9  2  0
  8 10  1  0
 10 11  1  0
 11 12  1  0
 12 13  2  0
 13 14  1  0
 14 15  2  0
 15 16  1  0
 12 17  1  0
 16 17  2  0
 17 18  1  0
 18 19  1  0
 19 20  1  0
  7 21  1  0
  4 22  1  0
 21 22  1  0
M  END
