piperidine-amides-14211-covalent
     RDKit          3D

 24 25  0  0  0  0  0  0  0  0999 V2000
    7.1050   -3.2860   19.2950 C   0  0  0  0  0  0  0  0  0  0  0  0
    6.3020   -4.0490   20.2900 C   0  0  0  0  0  0  0  0  0  0  0  0
    5.2620   -4.6120   19.9070 O   0  0  0  0  0  0  0  0  0  0  0  0
    6.7640   -4.1550   21.6210 N   0  0  0  0  0  0  0  0  0  0  0  0
    7.6270   -3.1300   22.1850 C   0  0  0  0  0  0  0  0  0  0  0  0
    7.5080   -3.1620   23.7150 C   0  0  0  0  0  0  0  0  0  0  0  0
    6.1610   -3.7090   24.0480 C   0  0  0  0  0  0  0  0  0  0  0  0
    5.6090   -3.2370   25.3470 C   0  0  0  0  0  0  0  0  0  0  0  0
    4.4620   -2.7870   25.2960 O   0  0  0  0  0  0  0  0  0  0  0  0
    6.3370   -3.3040   26.5500 N   0  0  0  0  0  0  0  0  0  0  0  0
    5.9010   -3.8870   27.7810 C   0  0  1  0  0  0  0  0  0  0  0  0
    6.4920   -4.9890   28.3660 C   0  0  0  0  0  0  0  0  0  0  0  0
    5.5640   -5.6880   29.2350 N   0  0  0  0  0  0  0  0  0  0  0  0
    4.3060   -5.1840   29.5320 C   0  0  0  0  0  0  0  0  0  0  0  0
    5.9860   -6.9140   29.6220 C   0  0  0  0  0  0  0  0  0  0  0  0
    5.8450   -2.7410   28.7340 C   0  0  0  0  0  0  0  0  0  0  0  0
    6.8830   -1.6220   28.7940 C   0  0  0  0  0  0  0  0  0  0  0  0
    6.6870   -0.5330   29.8270 C   0  0  0  0  0  0  0  0  0  0  0  0
    5.6430   -0.4720   30.7150 C   0  0  0  0  0  0  0  0  0  0  0  0
    5.6150    0.8780   31.8280 Cl  0  0  0  0  0  0  0  0  0  0  0  0
    4.5540   -1.4820   30.7760 C   0  0  0  0  0  0  0  0  0  0  0  0
    4.7420   -2.5890   29.7380 C   0  0  0  0  0  0  0  0  0  0  0  0
    6.2440   -5.1600   23.8370 C   0  0  0  0  0  0  0  0  0  0  0  0
    6.5690   -5.3870   22.3460 C   0  0  0  0  0  0  0  0  0  0  0  0
  1  2  1  0
  2  3  2  0
  2  4  1  0
  4  5  1  0
  5  6  1  0
  6  7  1  0
  7  8  1  0
  8  9  2  0
  8 10  1  0
 10 11  1  0
 11 12  1  1
 12 13  1  0
 13 14  1  0
 13 15  1  0
 11 16  1  0
 16 17  2  0
 17 18  1  0
 18 19  2  0
 19 20  1  0
 19 21  1  0
 16 22  1  0
 21 22  2  0
  7 23  1  0
  4 24  1  0
 23 24  1  0
M  END
