piperidine-amides-27885-covalent
     RDKit          3D

 26 28  0  0  0  0  0  0  0  0999 V2000
    7.0690   -3.4040   19.4370 C   0  0  0  0  0  0  0  0  0  0  0  0
    6.4050   -4.2720   20.4280 C   0  0  0  0  0  0  0  0  0  0  0  0
    5.4240   -4.9260   20.0090 O   0  0  0  0  0  0  0  0  0  0  0  0
    6.9060   -4.3710   21.7450 N   0  0  0  0  0  0  0  0  0  0  0  0
    6.6240   -5.5280   22.5460 C   0  0  0  0  0  0  0  0  0  0  0  0
    6.0730   -5.1770   23.8620 C   0  0  0  0  0  0  0  0  0  0  0  0
    6.0050   -3.7160   24.0250 C   0  0  0  0  0  0  0  0  0  0  0  0
    5.3450   -3.1920   25.2680 C   0  0  0  0  0  0  0  0  0  0  0  0
    4.6030   -2.2180   25.0930 O   0  0  0  0  0  0  0  0  0  0  0  0
    5.4570   -3.6750   26.5910 N   0  0  0  0  0  0  0  0  0  0  0  0
    4.2230   -3.8010   27.3770 C   0  0  0  0  0  0  0  0  0  0  0  0
    4.4020   -4.5550   28.6540 C   0  0  0  0  0  0  0  0  0  0  0  0
    5.6950   -4.6530   29.2800 C   0  0  0  0  0  0  0  0  0  0  0  0
    5.5120   -5.8890   30.0350 N   0  0  0  0  0  0  0  0  0  0  0  0
    4.3300   -6.1980   30.7870 C   0  0  0  0  0  0  0  0  0  0  0  0
    3.3070   -5.5740   30.4560 O   0  0  0  0  0  0  0  0  0  0  0  0
    4.3260   -7.1280   31.8210 C   0  0  0  0  0  0  0  0  0  0  0  0
    5.3130   -7.2460   32.7400 C   0  0  0  0  0  0  0  0  0  0  0  0
    5.2290   -8.1790   33.7280 C   0  0  0  0  0  0  0  0  0  0  0  0
    4.1840   -9.0460   33.8800 C   0  0  0  0  0  0  0  0  0  0  0  0
    3.2130   -8.9150   32.9620 N   0  0  0  0  0  0  0  0  0  0  0  0
    3.2730   -8.0010   31.9710 C   0  0  0  0  0  0  0  0  0  0  0  0
    6.6780   -4.4890   28.3880 C   0  0  0  0  0  0  0  0  0  0  0  0
    6.4760   -3.3350   27.4160 C   0  0  0  0  0  0  0  0  0  0  0  0
    7.3560   -3.0910   23.6860 C   0  0  0  0  0  0  0  0  0  0  0  0
    7.7180   -3.3040   22.3310 C   0  0  0  0  0  0  0  0  0  0  0  0
  1  2  1  0
  2  3  2  0
  2  4  1  0
  4  5  1  0
  5  6  1  0
  6  7  1  0
  7  8  1  0
  8  9  2  0
  8 10  1  0
 10 11  1  0
 11 12  1  0
 12 13  1  0
 13 14  1  0
 14 15  1  0
 15 16  2  0
 15 17  1  0
 17 18  2  0
 18 19  1  0
 19 20  2  0
 20 21  1  0
 17 22  1  0
 21 22  2  0
 13 23  1  0
 10 24  1  0
 23 24  1  0
  7 25  1  0
  4 26  1  0
 25 26  1  0
M  END
