piperidine-amides-4189-covalent
     RDKit          3D

 27 29  0  0  0  0  0  0  0  0999 V2000
    7.0900   -3.3090   19.2110 C   0  0  0  0  0  0  0  0  0  0  0  0
    6.3600   -4.0750   20.2380 C   0  0  0  0  0  0  0  0  0  0  0  0
    5.2730   -4.5890   19.8930 O   0  0  0  0  0  0  0  0  0  0  0  0
    6.8860   -4.2820   21.5300 N   0  0  0  0  0  0  0  0  0  0  0  0
    7.6170   -3.2020   22.1140 C   0  0  0  0  0  0  0  0  0  0  0  0
    7.1860   -2.8080   23.4410 C   0  0  0  0  0  0  0  0  0  0  0  0
    6.5490   -3.8830   24.2140 C   0  0  0  0  0  0  0  0  0  0  0  0
    5.7770   -3.3230   25.3700 C   0  0  0  0  0  0  0  0  0  0  0  0
    4.5490   -3.1450   25.2580 O   0  0  0  0  0  0  0  0  0  0  0  0
    6.4100   -2.9920   26.5830 N   0  0  0  0  0  0  0  0  0  0  0  0
    6.4330   -1.7480   27.2610 C   0  0  0  0  0  0  0  0  0  0  0  0
    5.8910   -0.5310   26.6420 C   0  0  0  0  0  0  0  0  0  0  0  0
    5.9120    0.8350   27.3990 C   0  0  0  0  0  0  0  0  0  0  0  0
    6.4310    0.9890   28.6830 C   0  0  0  0  0  0  0  0  0  0  0  0
    6.9520   -0.3400   29.1910 C   0  0  0  0  0  0  0  0  0  0  0  0
    7.4910   -0.0960   30.5660 C   0  0  0  0  0  0  0  0  0  0  0  0
    6.4990    0.4940   31.3470 O   0  0  0  0  0  0  0  0  0  0  0  0
    6.4250    0.1620   32.6640 C   0  0  0  0  0  0  0  0  0  0  0  0
    7.5930    0.0150   33.6250 C   0  0  0  0  0  0  0  0  0  0  0  0
    7.3270   -0.3680   35.0600 C   0  0  0  0  0  0  0  0  0  0  0  0
    5.9090   -0.6070   35.5600 C   0  0  0  0  0  0  0  0  0  0  0  0
    5.7260   -0.9530   36.8840 F   0  0  0  0  0  0  0  0  0  0  0  0
    4.9050   -0.4170   34.4850 C   0  0  0  0  0  0  0  0  0  0  0  0
    5.1150   -0.0650   33.1460 C   0  0  0  0  0  0  0  0  0  0  0  0
    6.9480   -1.6310   28.5070 C   0  0  0  0  0  0  0  0  0  0  0  0
    5.6800   -4.7630   23.3810 C   0  0  0  0  0  0  0  0  0  0  0  0
    6.4180   -5.3570   22.3650 C   0  0  0  0  0  0  0  0  0  0  0  0
  1  2  1  0
  2  3  2  0
  2  4  1  0
  4  5  1  0
  5  6  1  0
  6  7  1  0
  7  8  1  0
  8  9  2  0
  8 10  1  0
 10 11  1  0
 11 12  2  0
 12 13  1  0
 13 14  2  0
 14 15  1  0
 15 16  1  0
 16 17  1  0
 17 18  1  0
 18 19  2  0
 19 20  1  0
 20 21  2  0
 21 22  1  0
 21 23  1  0
 18 24  1  0
 23 24  2  0
 11 25  1  0
 15 25  2  0
  7 26  1  0
  4 27  1  0
 26 27  1  0
M  END
