piperidine-amides-27976-covalent
     RDKit          3D

 26 28  0  0  0  0  0  0  0  0999 V2000
    7.0960   -3.3780   19.3660 C   0  0  0  0  0  0  0  0  0  0  0  0
    6.3970   -4.2110   20.3620 C   0  0  0  0  0  0  0  0  0  0  0  0
    5.3730   -4.8060   19.9730 O   0  0  0  0  0  0  0  0  0  0  0  0
    6.9200   -4.3510   21.6570 N   0  0  0  0  0  0  0  0  0  0  0  0
    6.5580   -5.4320   22.5020 C   0  0  0  0  0  0  0  0  0  0  0  0
    6.1620   -5.0560   23.8750 C   0  0  0  0  0  0  0  0  0  0  0  0
    6.4650   -3.6750   24.3660 C   0  0  0  0  0  0  0  0  0  0  0  0
    5.3400   -3.2390   25.2420 C   0  0  0  0  0  0  0  0  0  0  0  0
    4.3460   -2.7720   24.6740 O   0  0  0  0  0  0  0  0  0  0  0  0
    5.3220   -3.3380   26.6570 N   0  0  0  0  0  0  0  0  0  0  0  0
    4.2000   -3.8570   27.4120 C   0  0  0  0  0  0  0  0  0  0  0  0
    4.7340   -4.7800   28.4290 C   0  0  0  0  0  0  0  0  0  0  0  0
    5.7420   -4.2900   29.3390 C   0  0  0  0  0  0  0  0  0  0  0  0
    5.5220   -3.1350   29.8390 O   0  0  0  0  0  0  0  0  0  0  0  0
    4.2790   -2.9100   30.4460 C   0  0  0  0  0  0  0  0  0  0  0  0
    3.2410   -3.8300   30.5920 C   0  0  0  0  0  0  0  0  0  0  0  0
    2.0790   -3.4630   31.2100 C   0  0  0  0  0  0  0  0  0  0  0  0
    1.9310   -2.2020   31.6870 C   0  0  0  0  0  0  0  0  0  0  0  0
    2.9200   -1.2910   31.5610 C   0  0  0  0  0  0  0  0  0  0  0  0
    2.8760    0.0290   32.0130 C   0  0  0  0  0  0  0  0  0  0  0  0
    4.0960   -1.6330   30.9440 C   0  0  0  0  0  0  0  0  0  0  0  0
    5.2100   -0.6190   30.7980 C   0  0  0  0  0  0  0  0  0  0  0  0
    6.6550   -4.2910   28.3190 C   0  0  0  0  0  0  0  0  0  0  0  0
    6.4840   -3.1750   27.4320 C   0  0  0  0  0  0  0  0  0  0  0  0
    6.9010   -2.7180   23.3470 C   0  0  0  0  0  0  0  0  0  0  0  0
    7.7330   -3.3270   22.2860 C   0  0  0  0  0  0  0  0  0  0  0  0
  1  2  1  0
  2  3  2  0
  2  4  1  0
  4  5  1  0
  5  6  1  0
  6  7  1  0
  7  8  1  0
  8  9  2  0
  8 10  1  0
 10 11  1  0
 11 12  1  0
 12 13  1  0
 13 14  1  0
 14 15  1  0
 15 16  2  0
 16 17  1  0
 17 18  2  0
 18 19  1  0
 19 20  1  0
 15 21  1  0
 19 21  2  0
 21 22  1  0
 13 23  1  0
 10 24  1  0
 23 24  1  0
  7 25  1  0
  4 26  1  0
 25 26  1  0
M  END
