piperidine-amides-8747-covalent
     RDKit          3D

 23 26  0  0  0  0  0  0  0  0999 V2000
    7.0710   -3.2790   19.2640 C   0  0  0  0  0  0  0  0  0  0  0  0
    6.3500   -4.0620   20.2690 C   0  0  0  0  0  0  0  0  0  0  0  0
    5.3050   -4.6340   19.9160 O   0  0  0  0  0  0  0  0  0  0  0  0
    6.8540   -4.1980   21.5910 N   0  0  0  0  0  0  0  0  0  0  0  0
    7.6670   -3.1340   22.1360 C   0  0  0  0  0  0  0  0  0  0  0  0
    7.4300   -3.0030   23.6110 C   0  0  0  0  0  0  0  0  0  0  0  0
    6.0570   -3.5730   23.8710 C   0  0  0  0  0  0  0  0  0  0  0  0
    5.5720   -3.2170   25.2430 C   0  0  0  0  0  0  0  0  0  0  0  0
    4.3840   -2.9250   25.3440 O   0  0  0  0  0  0  0  0  0  0  0  0
    6.4920   -3.2370   26.2810 N   0  0  0  0  0  0  0  0  0  0  0  0
    6.1420   -3.2450   27.6660 C   0  0  0  0  0  0  0  0  0  0  0  0
    5.3440   -4.3050   28.1390 C   0  0  2  0  0  0  0  0  0  0  0  0
    3.9650   -4.1570   28.1480 C   0  0  0  0  0  0  0  0  0  0  0  0
    3.2550   -5.0900   28.8410 C   0  0  1  0  0  0  0  0  0  0  0  0
    3.2110   -6.1310   27.7800 C   0  0  0  0  0  0  0  0  0  0  0  0
    4.6160   -6.7260   27.6170 C   0  0  2  0  0  0  0  0  0  0  0  0
    4.8360   -7.3800   28.9060 C   0  0  0  0  0  0  0  0  0  0  0  0
    5.2060   -6.1670   29.6880 C   0  0  2  0  0  0  0  0  0  0  0  0
    3.8790   -5.4450   30.0120 C   0  0  0  0  0  0  0  0  0  0  0  0
    6.0100   -5.3100   28.9220 C   0  0  0  0  0  0  0  0  0  0  0  0
    5.5130   -5.6680   27.4370 C   0  0  0  0  0  0  0  0  0  0  0  0
    6.0360   -5.0500   23.6840 C   0  0  0  0  0  0  0  0  0  0  0  0
    6.6240   -5.4070   22.3460 C   0  0  0  0  0  0  0  0  0  0  0  0
  1  2  1  0
  2  3  2  0
  2  4  1  0
  4  5  1  0
  5  6  1  0
  6  7  1  0
  7  8  1  0
  8  9  2  0
  8 10  1  0
 10 11  1  0
 12 11  1  6
 12 13  1  0
 14 13  1  6
 14 15  1  0
 16 15  1  1
 16 17  1  0
 18 17  1  6
 14 19  1  0
 18 19  1  0
 12 20  1  0
 18 20  1  0
 12 21  1  0
 16 21  1  0
  7 22  1  0
  4 23  1  0
 22 23  1  0
M  END
