piperidine-amides-6355-covalent
     RDKit          3D

 25 26  0  0  0  0  0  0  0  0999 V2000
    7.1750   -3.2610   19.2530 C   0  0  0  0  0  0  0  0  0  0  0  0
    6.3460   -4.0070   20.2130 C   0  0  0  0  0  0  0  0  0  0  0  0
    5.2600   -4.5200   19.8630 O   0  0  0  0  0  0  0  0  0  0  0  0
    6.7870   -4.2000   21.5170 N   0  0  0  0  0  0  0  0  0  0  0  0
    6.4760   -5.4460   22.1760 C   0  0  0  0  0  0  0  0  0  0  0  0
    6.3260   -5.1060   23.6540 C   0  0  0  0  0  0  0  0  0  0  0  0
    5.6710   -3.7430   23.7100 C   0  0  0  0  0  0  0  0  0  0  0  0
    5.2690   -3.4280   25.0810 C   0  0  0  0  0  0  0  0  0  0  0  0
    4.0650   -3.4860   25.3990 O   0  0  0  0  0  0  0  0  0  0  0  0
    6.2680   -3.0610   25.9790 N   0  0  0  0  0  0  0  0  0  0  0  0
    6.5060   -3.8090   27.1610 C   0  0  1  0  0  0  0  0  0  0  0  0
    6.3780   -5.2970   26.8800 C   0  0  0  0  0  0  0  0  0  0  0  0
    7.8630   -3.4320   27.5140 C   0  0  2  0  0  0  0  0  0  0  0  0
    8.4330   -4.1170   28.4050 O   0  0  0  0  0  0  0  0  0  0  0  0
    8.7090   -5.4110   28.0410 C   0  0  0  0  0  0  0  0  0  0  0  0
    7.9240   -2.0680   27.7690 C   0  0  0  0  0  0  0  0  0  0  0  0
    8.5680   -1.6470   28.8980 C   0  0  0  0  0  0  0  0  0  0  0  0
    8.9080   -0.3330   29.6290 C   0  0  0  0  0  0  0  0  0  0  0  0
    8.2510    0.6200   28.6270 C   0  0  0  0  0  0  0  0  0  0  0  0
    8.3070    1.8670   28.8560 O   0  0  0  0  0  0  0  0  0  0  0  0
    9.3950    2.3820   29.5990 C   0  0  0  0  0  0  0  0  0  0  0  0
    7.5240    0.2250   27.3510 C   0  0  0  0  0  0  0  0  0  0  0  0
    7.4050   -1.0930   27.0040 C   0  0  0  0  0  0  0  0  0  0  0  0
    6.6880   -2.6720   23.3220 C   0  0  0  0  0  0  0  0  0  0  0  0
    7.5490   -3.1790   22.2080 C   0  0  0  0  0  0  0  0  0  0  0  0
  1  2  1  0
  2  3  2  0
  2  4  1  0
  4  5  1  0
  5  6  1  0
  6  7  1  0
  7  8  1  0
  8  9  2  0
  8 10  1  0
 10 11  1  0
 11 12  1  6
 11 13  1  0
 13 14  1  1
 14 15  1  0
 13 16  1  0
 16 17  2  0
 17 18  1  0
 18 19  2  0
 19 20  1  0
 20 21  1  0
 19 22  1  0
 16 23  1  0
 22 23  2  0
  7 24  1  0
  4 25  1  0
 24 25  1  0
M  END
