piperidine-amides-29597-covalent
     RDKit          3D

 27 29  0  0  0  0  0  0  0  0999 V2000
    7.0110   -3.3620   19.3560 C   0  0  0  0  0  0  0  0  0  0  0  0
    6.3570   -4.2050   20.3550 C   0  0  0  0  0  0  0  0  0  0  0  0
    5.3960   -4.8940   20.0010 O   0  0  0  0  0  0  0  0  0  0  0  0
    6.8420   -4.2820   21.7170 N   0  0  0  0  0  0  0  0  0  0  0  0
    7.6760   -3.2220   22.2650 C   0  0  0  0  0  0  0  0  0  0  0  0
    7.3620   -2.9590   23.7160 C   0  0  0  0  0  0  0  0  0  0  0  0
    6.0210   -3.6090   23.9800 C   0  0  0  0  0  0  0  0  0  0  0  0
    5.3900   -3.2630   25.2970 C   0  0  0  0  0  0  0  0  0  0  0  0
    4.1650   -3.0650   25.3610 O   0  0  0  0  0  0  0  0  0  0  0  0
    6.1270   -3.1410   26.5100 N   0  0  0  0  0  0  0  0  0  0  0  0
    6.1790   -4.3180   27.3640 C   0  0  0  0  0  0  0  0  0  0  0  0
    4.9140   -4.6010   28.1040 C   0  0  0  0  0  0  0  0  0  0  0  0
    3.7690   -3.8030   27.9980 C   0  0  0  0  0  0  0  0  0  0  0  0
    2.5980   -4.1140   28.7120 C   0  0  0  0  0  0  0  0  0  0  0  0
    2.5870   -5.2190   29.5210 C   0  0  0  0  0  0  0  0  0  0  0  0
    3.7740   -6.0260   29.6170 C   0  0  0  0  0  0  0  0  0  0  0  0
    4.9120   -5.7230   28.9260 C   0  0  0  0  0  0  0  0  0  0  0  0
    6.0310   -6.4240   28.9870 O   0  0  0  0  0  0  0  0  0  0  0  0
    6.2470   -1.8480   27.1640 C   0  0  0  0  0  0  0  0  0  0  0  0
    5.7780   -0.6380   26.6440 C   0  0  0  0  0  0  0  0  0  0  0  0
    5.9480    0.5990   27.4170 C   0  0  0  0  0  0  0  0  0  0  0  0
    6.5510    0.6850   28.6540 C   0  0  0  0  0  0  0  0  0  0  0  0
    6.6450    1.8610   29.2640 F   0  0  0  0  0  0  0  0  0  0  0  0
    7.0160   -0.5200   29.1520 C   0  0  0  0  0  0  0  0  0  0  0  0
    6.8530   -1.7880   28.3830 C   0  0  0  0  0  0  0  0  0  0  0  0
    6.0470   -5.0940   23.8250 C   0  0  0  0  0  0  0  0  0  0  0  0
    6.6330   -5.4860   22.4830 C   0  0  0  0  0  0  0  0  0  0  0  0
  1  2  1  0
  2  3  2  0
  2  4  1  0
  4  5  1  0
  5  6  1  0
  6  7  1  0
  7  8  1  0
  8  9  2  0
  8 10  1  0
 10 11  1  0
 11 12  1  0
 12 13  2  0
 13 14  1  0
 14 15  2  0
 15 16  1  0
 12 17  1  0
 16 17  2  0
 17 18  1  0
 10 19  1  0
 19 20  2  0
 20 21  1  0
 21 22  2  0
 22 23  1  0
 22 24  1  0
 19 25  1  0
 24 25  2  0
  7 26  1  0
  4 27  1  0
 26 27  1  0
M  END
