piperidine-amides-7085-covalent
     RDKit          3D

 22 23  0  0  0  0  0  0  0  0999 V2000
    7.1350   -3.2290   19.1790 C   0  0  0  0  0  0  0  0  0  0  0  0
    6.3450   -3.9810   20.1690 C   0  0  0  0  0  0  0  0  0  0  0  0
    5.2600   -4.5060   19.8590 O   0  0  0  0  0  0  0  0  0  0  0  0
    6.8320   -4.1650   21.4650 N   0  0  0  0  0  0  0  0  0  0  0  0
    7.6380   -3.1330   22.0790 C   0  0  0  0  0  0  0  0  0  0  0  0
    6.9290   -2.7490   23.3770 C   0  0  0  0  0  0  0  0  0  0  0  0
    6.7000   -4.0560   24.0850 C   0  0  0  0  0  0  0  0  0  0  0  0
    6.1380   -3.8640   25.4200 C   0  0  0  0  0  0  0  0  0  0  0  0
    5.2180   -3.0320   25.5910 O   0  0  0  0  0  0  0  0  0  0  0  0
    6.7070   -4.6600   26.4340 N   0  0  0  0  0  0  0  0  0  0  0  0
    6.0740   -4.8920   27.6990 C   0  0  2  0  0  0  0  0  0  0  0  0
    5.4530   -6.2530   27.6040 C   0  0  0  0  0  0  0  0  0  0  0  0
    5.0970   -3.8140   28.0200 C   0  0  0  0  0  0  0  0  0  0  0  0
    3.8920   -3.6730   27.3520 C   0  0  0  0  0  0  0  0  0  0  0  0
    2.9640   -2.6600   27.6400 C   0  0  0  0  0  0  0  0  0  0  0  0
    3.2380   -1.7510   28.6260 C   0  0  0  0  0  0  0  0  0  0  0  0
    4.5230   -1.8450   29.3910 C   0  0  0  0  0  0  0  0  0  0  0  0
    4.8590   -1.0750   30.2940 O   0  0  0  0  0  0  0  0  0  0  0  0
    6.1840   -0.5840   30.3780 C   0  0  0  0  0  0  0  0  0  0  0  0
    5.4110   -2.9330   29.0150 C   0  0  0  0  0  0  0  0  0  0  0  0
    5.7800   -4.9480   23.2910 C   0  0  0  0  0  0  0  0  0  0  0  0
    6.5300   -5.3720   22.1940 C   0  0  0  0  0  0  0  0  0  0  0  0
  1  2  1  0
  2  3  2  0
  2  4  1  0
  4  5  1  0
  5  6  1  0
  6  7  1  0
  7  8  1  0
  8  9  2  0
  8 10  1  0
 10 11  1  0
 11 12  1  6
 11 13  1  0
 13 14  2  0
 14 15  1  0
 15 16  2  0
 16 17  1  0
 17 18  1  0
 18 19  1  0
 13 20  1  0
 17 20  2  0
  7 21  1  0
  4 22  1  0
 21 22  1  0
M  END
