piperidine-amides-2125-covalent
     RDKit          3D

 26 28  0  0  0  0  0  0  0  0999 V2000
    7.0590   -3.3570   19.3610 C   0  0  0  0  0  0  0  0  0  0  0  0
    6.3590   -4.1810   20.3750 C   0  0  0  0  0  0  0  0  0  0  0  0
    5.3860   -4.8300   19.9820 O   0  0  0  0  0  0  0  0  0  0  0  0
    6.8310   -4.2350   21.6870 N   0  0  0  0  0  0  0  0  0  0  0  0
    7.7020   -3.2150   22.2340 C   0  0  0  0  0  0  0  0  0  0  0  0
    7.3320   -2.9300   23.6570 C   0  0  0  0  0  0  0  0  0  0  0  0
    5.9860   -3.5800   23.9710 C   0  0  0  0  0  0  0  0  0  0  0  0
    5.4810   -3.1430   25.2970 C   0  0  0  0  0  0  0  0  0  0  0  0
    4.2600   -3.0180   25.4400 O   0  0  0  0  0  0  0  0  0  0  0  0
    6.3180   -2.8830   26.4080 N   0  0  0  0  0  0  0  0  0  0  0  0
    6.8750   -1.5550   26.6260 C   0  0  2  0  0  0  0  0  0  0  0  0
    7.1110   -1.4270   28.1090 C   0  0  0  0  0  0  0  0  0  0  0  0
    6.4140   -0.4310   28.6840 C   0  0  0  0  0  0  0  0  0  0  0  0
    5.6760    0.1580   27.7110 C   0  0  0  0  0  0  0  0  0  0  0  0
    6.0730   -0.2770   26.4560 C   0  0  2  0  0  0  0  0  0  0  0  0
    5.1300   -0.3360   25.4810 O   0  0  0  0  0  0  0  0  0  0  0  0
    5.3620    0.4280   24.3750 C   0  0  0  0  0  0  0  0  0  0  0  0
    5.5640    1.8820   24.7520 C   0  0  0  0  0  0  0  0  0  0  0  0
    5.8470    2.9750   23.7220 C   0  0  0  0  0  0  0  0  0  0  0  0
    6.0220    4.2670   24.1270 F   0  0  0  0  0  0  0  0  0  0  0  0
    5.9160    2.5240   22.3010 C   0  0  0  0  0  0  0  0  0  0  0  0
    5.7190    1.1110   21.9360 C   0  0  0  0  0  0  0  0  0  0  0  0
    5.8200    0.9010   20.5870 F   0  0  0  0  0  0  0  0  0  0  0  0
    5.4380    0.0140   22.9280 C   0  0  0  0  0  0  0  0  0  0  0  0
    6.0860   -5.0910   23.8540 C   0  0  0  0  0  0  0  0  0  0  0  0
    6.6360   -5.4250   22.4910 C   0  0  0  0  0  0  0  0  0  0  0  0
  1  2  1  0
  2  3  2  0
  2  4  1  0
  4  5  1  0
  5  6  1  0
  6  7  1  0
  7  8  1  0
  8  9  2  0
  8 10  1  0
 11 10  1  1
 11 12  1  0
 12 13  1  0
 13 14  1  0
 11 15  1  0
 14 15  1  0
 15 16  1  6
 16 17  1  0
 17 18  2  0
 18 19  1  0
 19 20  1  0
 19 21  2  0
 21 22  1  0
 22 23  1  0
 17 24  1  0
 22 24  2  0
  7 25  1  0
  4 26  1  0
 25 26  1  0
M  END
