piperidine-amides-23260-covalent
     RDKit          3D

 22 24  0  0  0  0  0  0  0  0999 V2000
    7.1060   -3.3160   19.2480 C   0  0  0  0  0  0  0  0  0  0  0  0
    6.3430   -4.0310   20.2820 C   0  0  0  0  0  0  0  0  0  0  0  0
    5.2930   -4.6090   19.9090 O   0  0  0  0  0  0  0  0  0  0  0  0
    6.8040   -4.1030   21.6180 N   0  0  0  0  0  0  0  0  0  0  0  0
    6.5110   -5.2710   22.3710 C   0  0  0  0  0  0  0  0  0  0  0  0
    5.9940   -4.9640   23.6940 C   0  0  0  0  0  0  0  0  0  0  0  0
    6.0520   -3.5270   24.0260 C   0  0  0  0  0  0  0  0  0  0  0  0
    5.6330   -3.2490   25.4440 C   0  0  0  0  0  0  0  0  0  0  0  0
    5.5330   -4.1970   26.2320 O   0  0  0  0  0  0  0  0  0  0  0  0
    5.3080   -1.9530   25.9120 N   0  0  0  0  0  0  0  0  0  0  0  0
    4.2400   -1.5350   26.6640 C   0  0  0  0  0  0  0  0  0  0  0  0
    4.9510   -0.4050   27.1240 C   0  0  0  0  0  0  0  0  0  0  0  0
    5.1660    0.0180   28.3940 N   0  0  0  0  0  0  0  0  0  0  0  0
    6.2860    0.6800   29.0190 C   0  0  0  0  0  0  0  0  0  0  0  0
    6.8250   -0.1930   29.9970 C   0  0  0  0  0  0  0  0  0  0  0  0
    5.4860   -0.2950   30.7890 C   0  0  0  0  0  0  0  0  0  0  0  0
    4.5660   -0.9810   29.5490 S   0  0  0  0  0  0  0  0  0  0  0  0
    3.0960   -0.7660   29.7750 O   0  0  0  0  0  0  0  0  0  0  0  0
    4.9280   -2.4210   29.4720 O   0  0  0  0  0  0  0  0  0  0  0  0
    6.2280   -0.9090   26.4310 C   0  0  0  0  0  0  0  0  0  0  0  0
    7.4550   -3.0070   23.7090 C   0  0  0  0  0  0  0  0  0  0  0  0
    7.6660   -3.0880   22.2080 C   0  0  0  0  0  0  0  0  0  0  0  0
  1  2  1  0
  2  3  2  0
  2  4  1  0
  4  5  1  0
  5  6  1  0
  6  7  1  0
  7  8  1  0
  8  9  2  0
  8 10  1  0
 10 11  1  0
 11 12  1  0
 12 13  1  0
 13 14  1  0
 14 15  1  0
 15 16  1  0
 17 13  1  0
 16 17  1  0
 17 18  2  0
 17 19  2  0
 10 20  1  0
 12 20  1  0
  7 21  1  0
  4 22  1  0
 21 22  1  0
M  END
