piperidine-amides-18913-covalent
     RDKit          3D

 21 22  0  0  0  0  0  0  0  0999 V2000
    7.1440   -3.3920   19.4730 C   0  0  0  0  0  0  0  0  0  0  0  0
    6.4500   -4.2290   20.4150 C   0  0  0  0  0  0  0  0  0  0  0  0
    5.4400   -4.8950   20.0000 O   0  0  0  0  0  0  0  0  0  0  0  0
    6.8920   -4.3560   21.7480 N   0  0  0  0  0  0  0  0  0  0  0  0
    6.4830   -5.5490   22.4940 C   0  0  0  0  0  0  0  0  0  0  0  0
    5.4880   -4.8440   23.4910 C   0  0  0  0  0  0  0  0  0  0  0  0
    6.3000   -3.8460   24.3010 C   0  0  0  0  0  0  0  0  0  0  0  0
    5.3380   -3.3100   25.4600 C   0  0  0  0  0  0  0  0  0  0  0  0
    4.4120   -2.7250   24.9280 O   0  0  0  0  0  0  0  0  0  0  0  0
    5.7260   -3.6040   26.6540 N   0  0  0  0  0  0  0  0  0  0  0  0
    6.3880   -3.8810   27.7810 C   0  0  0  0  0  0  0  0  0  0  0  0
    6.6330   -5.0100   28.4900 C   0  0  0  0  0  0  0  0  0  0  0  0
    5.4610   -5.2860   29.1570 O   0  0  0  0  0  0  0  0  0  0  0  0
    4.3540   -4.8800   28.4420 C   0  0  1  0  0  0  0  0  0  0  0  0
    3.3480   -4.6150   29.4930 C   0  0  0  0  0  0  0  0  0  0  0  0
    3.1840   -5.7010   30.3120 O   0  0  0  0  0  0  0  0  0  0  0  0
    4.5860   -3.6660   27.5440 C   0  0  0  0  0  0  0  0  0  0  0  0
    3.3490   -3.1890   27.0800 C   0  0  0  0  0  0  0  0  0  0  0  0
    4.1670   -2.4240   28.3270 C   0  0  0  0  0  0  0  0  0  0  0  0
    7.0860   -2.8490   23.6100 C   0  0  0  0  0  0  0  0  0  0  0  0
    7.8080   -3.5090   22.3990 C   0  0  0  0  0  0  0  0  0  0  0  0
  1  2  1  0
  2  3  2  0
  2  4  1  0
  4  5  1  0
  5  6  1  0
  6  7  1  0
  7  8  1  0
  8  9  2  0
  8 10  1  0
 10 11  1  0
 11 12  1  0
 12 13  1  0
 13 14  1  0
 14 15  1  1
 15 16  1  0
 10 17  1  0
 14 17  1  0
 17 18  1  0
 17 19  1  0
  7 20  1  0
  4 21  1  0
 20 21  1  0
M  END
