piperidine-amides-14006-covalent
     RDKit          3D

 25 26  0  0  0  0  0  0  0  0999 V2000
    7.1420   -3.2820   19.2440 C   0  0  0  0  0  0  0  0  0  0  0  0
    6.3170   -4.0380   20.2230 C   0  0  0  0  0  0  0  0  0  0  0  0
    5.2330   -4.5160   19.8640 O   0  0  0  0  0  0  0  0  0  0  0  0
    6.8200   -4.2450   21.5180 N   0  0  0  0  0  0  0  0  0  0  0  0
    6.5130   -5.4430   22.2530 C   0  0  0  0  0  0  0  0  0  0  0  0
    5.7050   -4.9930   23.4680 C   0  0  0  0  0  0  0  0  0  0  0  0
    6.4970   -3.9140   24.1300 C   0  0  0  0  0  0  0  0  0  0  0  0
    5.8150   -3.3590   25.3150 C   0  0  0  0  0  0  0  0  0  0  0  0
    4.5900   -3.2010   25.2340 O   0  0  0  0  0  0  0  0  0  0  0  0
    6.5640   -3.0380   26.4490 N   0  0  0  0  0  0  0  0  0  0  0  0
    6.3180   -3.3960   27.8010 C   0  0  2  0  0  0  0  0  0  0  0  0
    5.3870   -4.3600   28.1140 C   0  0  0  0  0  0  0  0  0  0  0  0
    5.7570   -5.5320   28.7960 C   0  0  0  0  0  0  0  0  0  0  0  0
    4.6280   -6.4060   29.0590 N   0  0  0  0  0  0  0  0  0  0  0  0
    7.0470   -5.8300   29.1820 O   0  0  0  0  0  0  0  0  0  0  0  0
    6.2080   -2.3190   28.7240 C   0  0  0  0  0  0  0  0  0  0  0  0
    5.1450   -2.3510   29.7370 C   0  0  0  0  0  0  0  0  0  0  0  0
    4.9870   -1.2330   30.7290 C   0  0  0  0  0  0  0  0  0  0  0  0
    6.0350   -0.1480   30.5250 C   0  0  0  0  0  0  0  0  0  0  0  0
    5.9710    0.9250   31.3930 O   0  0  0  0  0  0  0  0  0  0  0  0
    6.9020    1.9700   31.2590 C   0  0  0  0  0  0  0  0  0  0  0  0
    7.0260   -0.1160   29.5870 N   0  0  0  0  0  0  0  0  0  0  0  0
    7.1110   -1.2500   28.6480 C   0  0  0  0  0  0  0  0  0  0  0  0
    6.8980   -2.7730   23.2480 C   0  0  0  0  0  0  0  0  0  0  0  0
    7.6090   -3.2470   22.1860 C   0  0  0  0  0  0  0  0  0  0  0  0
  1  2  1  0
  2  3  2  0
  2  4  1  0
  4  5  1  0
  5  6  1  0
  6  7  1  0
  7  8  1  0
  8  9  2  0
  8 10  1  0
 10 11  1  0
 11 12  1  6
 12 13  1  0
 13 14  1  0
 13 15  2  0
 11 16  1  0
 16 17  2  0
 17 18  1  0
 18 19  2  0
 19 20  1  0
 20 21  1  0
 19 22  1  0
 16 23  1  0
 22 23  2  0
  7 24  1  0
  4 25  1  0
 24 25  1  0
M  END
