piperidine-amides-2819-covalent
     RDKit          3D

 24 26  0  0  0  0  0  0  0  0999 V2000
    7.1360   -3.3200   19.2090 C   0  0  0  0  0  0  0  0  0  0  0  0
    6.3460   -4.0370   20.1960 C   0  0  0  0  0  0  0  0  0  0  0  0
    5.2630   -4.5220   19.8790 O   0  0  0  0  0  0  0  0  0  0  0  0
    6.8710   -4.2380   21.5130 N   0  0  0  0  0  0  0  0  0  0  0  0
    7.6790   -3.2150   22.1180 C   0  0  0  0  0  0  0  0  0  0  0  0
    6.9660   -2.6520   23.3020 C   0  0  0  0  0  0  0  0  0  0  0  0
    6.5730   -3.8130   24.2020 C   0  0  0  0  0  0  0  0  0  0  0  0
    5.8640   -3.2900   25.3940 C   0  0  0  0  0  0  0  0  0  0  0  0
    4.6210   -3.3280   25.5090 O   0  0  0  0  0  0  0  0  0  0  0  0
    6.6470   -2.7160   26.4170 N   0  0  0  0  0  0  0  0  0  0  0  0
    6.3040   -2.9290   27.8040 C   0  0  0  0  0  0  0  0  0  0  0  0
    6.2640   -4.4050   28.1030 C   0  0  0  0  0  0  0  0  0  0  0  0
    5.1550   -4.9380   28.7040 C   0  0  0  0  0  0  0  0  0  0  0  0
    4.9450   -6.3300   28.8540 C   0  0  0  0  0  0  0  0  0  0  0  0
    3.7400   -6.6670   29.4970 N   0  0  0  0  0  0  0  0  0  0  0  0
    3.1730   -7.8890   29.8290 C   0  0  0  0  0  0  0  0  0  0  0  0
    3.2860   -5.3600   29.7010 C   0  0  0  0  0  0  0  0  0  0  0  0
    2.0630   -5.2150   30.3420 C   0  0  0  0  0  0  0  0  0  0  0  0
    1.5840   -3.9450   30.5610 C   0  0  0  0  0  0  0  0  0  0  0  0
    2.2830   -2.8240   30.1630 C   0  0  0  0  0  0  0  0  0  0  0  0
    3.5590   -3.0150   29.4950 C   0  0  0  0  0  0  0  0  0  0  0  0
    4.0460   -4.2940   29.2720 C   0  0  0  0  0  0  0  0  0  0  0  0
    5.6910   -4.8050   23.4910 C   0  0  0  0  0  0  0  0  0  0  0  0
    6.3710   -5.3250   22.2730 C   0  0  0  0  0  0  0  0  0  0  0  0
  1  2  1  0
  2  3  2  0
  2  4  1  0
  4  5  1  0
  5  6  1  0
  6  7  1  0
  7  8  1  0
  8  9  2  0
  8 10  1  0
 10 11  1  0
 11 12  1  0
 12 13  1  0
 13 14  2  0
 14 15  1  0
 15 16  1  0
 15 17  1  0
 17 18  1  0
 18 19  2  0
 19 20  1  0
 20 21  2  0
 13 22  1  0
 17 22  2  0
 21 22  1  0
  7 23  1  0
  4 24  1  0
 23 24  1  0
M  END
