piperidine-amides-23642-covalent
     RDKit          3D

 22 23  0  0  0  0  0  0  0  0999 V2000
    7.0320   -3.3680   19.3720 C   0  0  0  0  0  0  0  0  0  0  0  0
    6.4100   -4.2400   20.3810 C   0  0  0  0  0  0  0  0  0  0  0  0
    5.4000   -4.8840   19.9980 O   0  0  0  0  0  0  0  0  0  0  0  0
    6.9530   -4.3960   21.6920 N   0  0  0  0  0  0  0  0  0  0  0  0
    6.4930   -5.4670   22.4910 C   0  0  0  0  0  0  0  0  0  0  0  0
    5.8030   -5.0780   23.7320 C   0  0  0  0  0  0  0  0  0  0  0  0
    6.2340   -3.8250   24.4260 C   0  0  0  0  0  0  0  0  0  0  0  0
    5.1650   -3.3190   25.3910 C   0  0  0  0  0  0  0  0  0  0  0  0
    4.0560   -3.0350   24.9240 O   0  0  0  0  0  0  0  0  0  0  0  0
    5.3540   -3.1500   26.8020 N   0  0  0  0  0  0  0  0  0  0  0  0
    6.5380   -3.2110   27.4180 C   0  0  0  0  0  0  0  0  0  0  0  0
    6.6910   -4.3550   28.3190 C   0  0  0  0  0  0  0  0  0  0  0  0
    5.3660   -4.5530   29.0240 C   0  0  0  0  0  0  0  0  0  0  0  0
    5.8020   -5.6050   29.9400 N   0  0  0  0  0  0  0  0  0  0  0  0
    4.5660   -6.3080   30.8200 S   0  0  0  0  0  0  0  0  0  0  0  0
    5.3060   -7.4510   31.9680 C   0  0  0  0  0  0  0  0  0  0  0  0
    3.6910   -7.1290   29.9190 O   0  0  0  0  0  0  0  0  0  0  0  0
    3.7210   -5.3140   31.5320 O   0  0  0  0  0  0  0  0  0  0  0  0
    4.4000   -5.0220   27.9170 C   0  0  0  0  0  0  0  0  0  0  0  0
    4.4530   -3.5230   27.8580 C   0  0  0  0  0  0  0  0  0  0  0  0
    6.6430   -2.7450   23.4140 C   0  0  0  0  0  0  0  0  0  0  0  0
    7.6120   -3.3280   22.4060 C   0  0  0  0  0  0  0  0  0  0  0  0
  1  2  1  0
  2  3  2  0
  2  4  1  0
  4  5  1  0
  5  6  1  0
  6  7  1  0
  7  8  1  0
  8  9  2  0
  8 10  1  0
 10 11  1  0
 11 12  1  0
 12 13  1  0
 13 14  1  0
 15 14  1  0
 15 16  1  0
 15 17  2  0
 15 18  2  0
 13 19  1  0
 10 20  1  0
 19 20  1  0
  7 21  1  0
  4 22  1  0
 21 22  1  0
M  END
