piperidine-amides-5386-covalent
     RDKit          3D

 21 22  0  0  0  0  0  0  0  0999 V2000
    7.1230   -3.2970   19.2630 C   0  0  0  0  0  0  0  0  0  0  0  0
    6.3310   -4.0210   20.2580 C   0  0  0  0  0  0  0  0  0  0  0  0
    5.2820   -4.5760   19.8980 O   0  0  0  0  0  0  0  0  0  0  0  0
    6.7580   -4.1450   21.5920 N   0  0  0  0  0  0  0  0  0  0  0  0
    6.6610   -5.3940   22.3160 C   0  0  0  0  0  0  0  0  0  0  0  0
    6.0840   -5.0530   23.6670 C   0  0  0  0  0  0  0  0  0  0  0  0
    6.0680   -3.5730   23.9080 C   0  0  0  0  0  0  0  0  0  0  0  0
    5.6160   -3.2050   25.2720 C   0  0  0  0  0  0  0  0  0  0  0  0
    4.4070   -2.8780   25.4650 O   0  0  0  0  0  0  0  0  0  0  0  0
    6.4590   -3.1920   26.4000 N   0  0  0  0  0  0  0  0  0  0  0  0
    6.0990   -3.9350   27.6310 C   0  0  0  0  0  0  0  0  0  0  0  0
    5.5930   -5.2860   27.2610 C   0  0  2  0  0  0  0  0  0  0  0  0
    4.5190   -5.3300   26.6070 O   0  0  0  0  0  0  0  0  0  0  0  0
    5.2520   -6.0940   28.4280 C   0  0  0  0  0  0  0  0  0  0  0  0
    6.3790   -6.6090   29.2860 C   0  0  0  0  0  0  0  0  0  0  0  0
    5.7230   -7.3770   30.3740 C   0  0  0  0  0  0  0  0  0  0  0  0
    4.3280   -7.1870   29.9720 C   0  0  0  0  0  0  0  0  0  0  0  0
    3.3670   -7.7690   30.7560 C   0  0  0  0  0  0  0  0  0  0  0  0
    4.0880   -6.5060   28.9400 O   0  0  0  0  0  0  0  0  0  0  0  0
    7.4110   -2.9670   23.6100 C   0  0  0  0  0  0  0  0  0  0  0  0
    7.6700   -3.1430   22.1330 C   0  0  0  0  0  0  0  0  0  0  0  0
  1  2  1  0
  2  3  2  0
  2  4  1  0
  4  5  1  0
  5  6  1  0
  6  7  1  0
  7  8  1  0
  8  9  2  0
  8 10  1  0
 10 11  1  0
 11 12  1  0
 12 13  1  6
 12 14  1  0
 14 15  2  0
 15 16  1  0
 16 17  2  0
 17 18  1  0
 14 19  1  0
 17 19  1  0
  7 20  1  0
  4 21  1  0
 20 21  1  0
M  END
