piperidine-amides-5356-covalent
     RDKit          3D

 21 22  0  0  0  0  0  0  0  0999 V2000
    7.0680   -3.3680   19.3130 C   0  0  0  0  0  0  0  0  0  0  0  0
    6.3660   -4.1530   20.3500 C   0  0  0  0  0  0  0  0  0  0  0  0
    5.3620   -4.7880   19.9700 O   0  0  0  0  0  0  0  0  0  0  0  0
    6.8560   -4.2080   21.6680 N   0  0  0  0  0  0  0  0  0  0  0  0
    6.6240   -5.3770   22.4510 C   0  0  0  0  0  0  0  0  0  0  0  0
    6.0620   -5.0480   23.7560 C   0  0  0  0  0  0  0  0  0  0  0  0
    6.0840   -3.5940   23.9960 C   0  0  0  0  0  0  0  0  0  0  0  0
    5.6290   -3.2220   25.3600 C   0  0  0  0  0  0  0  0  0  0  0  0
    4.4190   -3.3650   25.6230 O   0  0  0  0  0  0  0  0  0  0  0  0
    6.5080   -2.7120   26.3340 N   0  0  0  0  0  0  0  0  0  0  0  0
    6.3530   -1.3600   26.9300 C   0  0  0  0  0  0  0  0  0  0  0  0
    5.8690   -0.2430   26.1110 C   0  0  0  0  0  0  0  0  0  0  0  0
    5.7220    1.0630   26.7090 C   0  0  0  0  0  0  0  0  0  0  0  0
    6.0490    1.1960   28.0380 C   0  0  0  0  0  0  0  0  0  0  0  0
    6.5050    0.1510   28.8200 C   0  0  0  0  0  0  0  0  0  0  0  0
    6.6660   -1.1050   28.3130 C   0  0  0  0  0  0  0  0  0  0  0  0
    7.1080   -2.0190   29.1570 C   0  0  0  0  0  0  0  0  0  0  0  0
    8.2390   -1.6560   29.5160 O   0  0  0  0  0  0  0  0  0  0  0  0
    8.2310   -0.6440   30.4240 C   0  0  0  0  0  0  0  0  0  0  0  0
    7.4540   -3.0520   23.6800 C   0  0  0  0  0  0  0  0  0  0  0  0
    7.7050   -3.1500   22.2150 C   0  0  0  0  0  0  0  0  0  0  0  0
  1  2  1  0
  2  3  2  0
  2  4  1  0
  4  5  1  0
  5  6  1  0
  6  7  1  0
  7  8  1  0
  8  9  2  0
  8 10  1  0
 10 11  1  0
 11 12  2  0
 12 13  1  0
 13 14  2  0
 14 15  1  0
 11 16  1  0
 15 16  2  0
 16 17  1  0
 17 18  1  0
 18 19  1  0
  7 20  1  0
  4 21  1  0
 20 21  1  0
M  END
