piperidine-amides-28955-covalent
     RDKit          3D

 26 28  0  0  0  0  0  0  0  0999 V2000
    7.0440   -3.3940   19.4320 C   0  0  0  0  0  0  0  0  0  0  0  0
    6.3700   -4.2550   20.4000 C   0  0  0  0  0  0  0  0  0  0  0  0
    5.3860   -4.9000   20.0000 O   0  0  0  0  0  0  0  0  0  0  0  0
    6.8610   -4.3770   21.7350 N   0  0  0  0  0  0  0  0  0  0  0  0
    6.5160   -5.5530   22.5020 C   0  0  0  0  0  0  0  0  0  0  0  0
    6.3350   -5.2370   23.9810 C   0  0  0  0  0  0  0  0  0  0  0  0
    6.2110   -3.7350   24.1270 C   0  0  0  0  0  0  0  0  0  0  0  0
    5.7760   -3.2010   25.4790 C   0  0  0  0  0  0  0  0  0  0  0  0
    5.2790   -2.0870   25.4130 O   0  0  0  0  0  0  0  0  0  0  0  0
    5.8600   -3.8930   26.7000 N   0  0  0  0  0  0  0  0  0  0  0  0
    4.7060   -3.7890   27.5410 C   0  0  0  0  0  0  0  0  0  0  0  0
    4.1840   -4.9640   28.1290 C   0  0  0  0  0  0  0  0  0  0  0  0
    5.2560   -5.4970   28.9620 N   0  0  0  0  0  0  0  0  0  0  0  0
    5.1700   -6.2310   30.1730 C   0  0  0  0  0  0  0  0  0  0  0  0
    6.2760   -6.6110   30.8870 O   0  0  0  0  0  0  0  0  0  0  0  0
    3.9530   -6.5690   30.6420 N   0  0  0  0  0  0  0  0  0  0  0  0
    3.6760   -5.7900   31.6770 C   0  0  0  0  0  0  0  0  0  0  0  0
    2.5020   -6.0170   32.5670 C   0  0  0  0  0  0  0  0  0  0  0  0
    1.9590   -7.2430   32.5220 N   0  0  0  0  0  0  0  0  0  0  0  0
    0.7740   -7.5860   33.0440 C   0  0  0  0  0  0  0  0  0  0  0  0
    2.8430   -8.1970   31.8620 C   0  0  0  0  0  0  0  0  0  0  0  0
    3.1790   -7.7840   30.4510 C   0  0  0  0  0  0  0  0  0  0  0  0
    6.5350   -5.0230   28.6250 C   0  0  0  0  0  0  0  0  0  0  0  0
    6.4300   -3.7930   28.0240 C   0  0  0  0  0  0  0  0  0  0  0  0
    7.5270   -3.1590   23.7320 C   0  0  0  0  0  0  0  0  0  0  0  0
    7.6750   -3.2950   22.2500 C   0  0  0  0  0  0  0  0  0  0  0  0
  1  2  1  0
  2  3  2  0
  2  4  1  0
  4  5  1  0
  5  6  1  0
  6  7  1  0
  7  8  1  0
  8  9  2  0
  8 10  1  0
 10 11  1  0
 11 12  1  0
 12 13  1  0
 13 14  1  0
 14 15  2  0
 14 16  1  0
 16 17  1  0
 17 18  1  0
 18 19  1  0
 19 20  1  0
 19 21  1  0
 16 22  1  0
 21 22  1  0
 13 23  1  0
 10 24  1  0
 23 24  1  0
  7 25  1  0
  4 26  1  0
 25 26  1  0
M  END
