piperidine-amides-25214-covalent
     RDKit          3D

 25 27  0  0  0  0  0  0  0  0999 V2000
    7.0280   -3.3350   19.3300 C   0  0  0  0  0  0  0  0  0  0  0  0
    6.3670   -4.2060   20.3400 C   0  0  0  0  0  0  0  0  0  0  0  0
    5.3760   -4.8360   19.9750 O   0  0  0  0  0  0  0  0  0  0  0  0
    6.9000   -4.3160   21.6300 N   0  0  0  0  0  0  0  0  0  0  0  0
    6.6390   -5.4470   22.4880 C   0  0  0  0  0  0  0  0  0  0  0  0
    5.9470   -4.9900   23.7520 C   0  0  0  0  0  0  0  0  0  0  0  0
    6.6670   -3.7670   24.3320 C   0  0  0  0  0  0  0  0  0  0  0  0
    5.8700   -3.2260   25.4750 C   0  0  0  0  0  0  0  0  0  0  0  0
    5.2970   -2.1380   25.3130 O   0  0  0  0  0  0  0  0  0  0  0  0
    5.6570   -3.8800   26.7230 N   0  0  0  0  0  0  0  0  0  0  0  0
    4.3340   -3.6710   27.2480 C   0  0  0  0  0  0  0  0  0  0  0  0
    4.1220   -4.5210   28.4930 C   0  0  0  0  0  0  0  0  0  0  0  0
    5.0460   -5.6480   28.4630 N   0  0  0  0  0  0  0  0  0  0  0  0
    4.6030   -6.4610   29.6050 C   0  0  0  0  0  0  0  0  0  0  0  0
    3.4950   -7.2530   29.4270 C   0  0  0  0  0  0  0  0  0  0  0  0
    3.0530   -8.0060   30.4870 C   0  0  0  0  0  0  0  0  0  0  0  0
    3.5950   -8.1220   31.8850 C   0  0  0  0  0  0  0  0  0  0  0  0
    4.7430   -7.2040   31.8010 C   0  0  0  0  0  0  0  0  0  0  0  0
    5.4580   -7.1640   33.1240 C   0  0  0  0  0  0  0  0  0  0  0  0
    5.6260   -8.4670   33.4450 N   0  0  0  0  0  0  0  0  0  0  0  0
    5.2430   -6.4370   30.8100 N   0  0  0  0  0  0  0  0  0  0  0  0
    6.3980   -5.1630   28.5730 C   0  0  0  0  0  0  0  0  0  0  0  0
    6.4040   -3.7970   27.9820 C   0  0  0  0  0  0  0  0  0  0  0  0
    7.0110   -2.7200   23.3520 C   0  0  0  0  0  0  0  0  0  0  0  0
    7.7240   -3.2530   22.1690 C   0  0  0  0  0  0  0  0  0  0  0  0
  1  2  1  0
  2  3  2  0
  2  4  1  0
  4  5  1  0
  5  6  1  0
  6  7  1  0
  7  8  1  0
  8  9  2  0
  8 10  1  0
 10 11  1  0
 11 12  1  0
 12 13  1  0
 13 14  1  0
 14 15  2  0
 15 16  1  0
 16 17  2  0
 17 18  1  0
 18 19  1  0
 19 20  3  0
 14 21  1  0
 18 21  2  0
 13 22  1  0
 10 23  1  0
 22 23  1  0
  7 24  1  0
  4 25  1  0
 24 25  1  0
M  END
