piperidine-amides-32812-covalent
     RDKit          3D

 28 31  0  0  0  0  0  0  0  0999 V2000
    7.1340   -3.3330   19.2900 C   0  0  0  0  0  0  0  0  0  0  0  0
    6.4380   -4.1970   20.2810 C   0  0  0  0  0  0  0  0  0  0  0  0
    5.3770   -4.7570   19.9620 O   0  0  0  0  0  0  0  0  0  0  0  0
    7.0530   -4.4030   21.5310 N   0  0  0  0  0  0  0  0  0  0  0  0
    6.7640   -5.5420   22.3580 C   0  0  0  0  0  0  0  0  0  0  0  0
    5.8490   -5.0310   23.4690 C   0  0  0  0  0  0  0  0  0  0  0  0
    6.5080   -3.8770   24.1610 C   0  0  0  0  0  0  0  0  0  0  0  0
    5.5530   -3.1590   25.0020 C   0  0  0  0  0  0  0  0  0  0  0  0
    4.6690   -2.5680   24.3890 O   0  0  0  0  0  0  0  0  0  0  0  0
    5.5740   -3.1330   26.3860 N   0  0  0  0  0  0  0  0  0  0  0  0
    4.3970   -2.7620   26.9980 C   0  0  0  0  0  0  0  0  0  0  0  0
    4.0820   -3.6900   27.9020 C   0  0  2  0  0  0  0  0  0  0  0  0
    3.6380   -3.1460   29.1680 C   0  0  2  0  0  0  0  0  0  0  0  0
    4.5460   -2.1440   29.5200 C   0  0  0  0  0  0  0  0  0  0  0  0
    5.8540   -2.7850   29.4450 C   0  0  0  0  0  0  0  0  0  0  0  0
    5.3720   -4.2220   29.3920 C   0  0  2  0  0  0  0  0  0  0  0  0
    5.1470   -4.5180   28.0120 C   0  0  2  0  0  0  0  0  0  0  0  0
    6.1230   -4.2280   27.0990 C   0  0  0  0  0  0  0  0  0  0  0  0
    4.6480   -4.8530   30.3970 N   0  0  0  0  0  0  0  0  0  0  0  0
    4.4340   -6.2400   30.2440 C   0  0  0  0  0  0  0  0  0  0  0  0
    3.3860   -6.9140   30.3110 O   0  0  0  0  0  0  0  0  0  0  0  0
    5.6580   -7.0650   29.9620 C   0  0  0  0  0  0  0  0  0  0  0  0
    6.6720   -6.4150   29.3160 F   0  0  0  0  0  0  0  0  0  0  0  0
    5.4100   -8.1550   29.1820 F   0  0  0  0  0  0  0  0  0  0  0  0
    6.1390   -7.5250   31.1630 F   0  0  0  0  0  0  0  0  0  0  0  0
    3.5620   -4.0610   30.2910 C   0  0  0  0  0  0  0  0  0  0  0  0
    7.1080   -2.7920   23.3220 C   0  0  0  0  0  0  0  0  0  0  0  0
    7.8350   -3.3500   22.1450 C   0  0  0  0  0  0  0  0  0  0  0  0
  1  2  1  0
  2  3  2  0
  2  4  1  0
  4  5  1  0
  5  6  1  0
  6  7  1  0
  7  8  1  0
  8  9  2  0
  8 10  1  0
 10 11  1  0
 12 11  1  6
 12 13  1  0
 13 14  1  1
 14 15  1  0
 16 15  1  6
 12 17  1  0
 16 17  1  0
 10 18  1  0
 17 18  1  6
 16 19  1  0
 19 20  1  0
 20 21  2  0
 20 22  1  0
 22 23  1  0
 22 24  1  0
 22 25  1  0
 13 26  1  0
 19 26  1  0
  7 27  1  0
  4 28  1  0
 27 28  1  0
M  END
