piperidine-amides-25419-covalent
     RDKit          3D

 25 27  0  0  0  0  0  0  0  0999 V2000
    7.0160   -3.3440   19.3670 C   0  0  0  0  0  0  0  0  0  0  0  0
    6.3720   -4.2210   20.3800 C   0  0  0  0  0  0  0  0  0  0  0  0
    5.3970   -4.8670   19.9910 O   0  0  0  0  0  0  0  0  0  0  0  0
    6.8880   -4.3360   21.6840 N   0  0  0  0  0  0  0  0  0  0  0  0
    6.6350   -5.5320   22.4550 C   0  0  0  0  0  0  0  0  0  0  0  0
    6.1920   -5.1760   23.8540 C   0  0  0  0  0  0  0  0  0  0  0  0
    6.0710   -3.6590   24.0090 C   0  0  0  0  0  0  0  0  0  0  0  0
    5.5480   -3.3280   25.3610 C   0  0  0  0  0  0  0  0  0  0  0  0
    4.3480   -3.5440   25.5720 O   0  0  0  0  0  0  0  0  0  0  0  0
    6.3070   -2.7890   26.4270 N   0  0  0  0  0  0  0  0  0  0  0  0
    6.3130   -3.6560   27.5880 C   0  0  0  0  0  0  0  0  0  0  0  0
    6.3180   -1.3490   26.6470 C   0  0  2  0  0  0  0  0  0  0  0  0
    6.9620   -1.1700   27.8740 C   0  0  0  0  0  0  0  0  0  0  0  0
    6.4940   -0.1190   28.4570 C   0  0  0  0  0  0  0  0  0  0  0  0
    5.6280    0.2490   27.5330 C   0  0  0  0  0  0  0  0  0  0  0  0
    4.8430   -0.7680   26.6990 C   0  0  1  0  0  0  0  0  0  0  0  0
    5.3440   -0.6950   25.2650 C   0  0  0  0  0  0  0  0  0  0  0  0
    6.4060    0.3610   25.2170 C   0  0  0  0  0  0  0  0  0  0  0  0
    7.0150    0.5820   23.8750 C   0  0  0  0  0  0  0  0  0  0  0  0
    6.6110   -0.1710   22.6560 C   0  0  0  0  0  0  0  0  0  0  0  0
    7.1490   -0.0490   21.2310 C   0  0  0  0  0  0  0  0  0  0  0  0
    5.5090   -1.2220   22.8110 C   0  0  0  0  0  0  0  0  0  0  0  0
    4.9010   -1.4370   24.1920 C   0  0  0  0  0  0  0  0  0  0  0  0
    7.4090   -3.0560   23.6910 C   0  0  0  0  0  0  0  0  0  0  0  0
    7.6700   -3.2470   22.2220 C   0  0  0  0  0  0  0  0  0  0  0  0
  1  2  1  0
  2  3  2  0
  2  4  1  0
  4  5  1  0
  5  6  1  0
  6  7  1  0
  7  8  1  0
  8  9  2  0
  8 10  1  0
 10 11  1  0
 12 10  1  1
 12 13  1  0
 13 14  1  0
 14 15  1  0
 12 16  1  0
 15 16  1  0
 16 17  1  6
 17 18  2  0
 18 19  1  0
 19 20  2  0
 20 21  1  0
 20 22  1  0
 17 23  1  0
 22 23  2  0
  7 24  1  0
  4 25  1  0
 24 25  1  0
M  END
