piperidine-amides-26143-covalent
     RDKit          3D

 23 24  0  0  0  0  0  0  0  0999 V2000
    7.0910   -3.3080   19.2480 C   0  0  0  0  0  0  0  0  0  0  0  0
    6.3580   -4.0860   20.2440 C   0  0  0  0  0  0  0  0  0  0  0  0
    5.3070   -4.6600   19.9210 O   0  0  0  0  0  0  0  0  0  0  0  0
    6.8580   -4.2380   21.5420 N   0  0  0  0  0  0  0  0  0  0  0  0
    7.7290   -3.2610   22.1600 C   0  0  0  0  0  0  0  0  0  0  0  0
    6.9700   -2.7480   23.3420 C   0  0  0  0  0  0  0  0  0  0  0  0
    6.5420   -3.8740   24.2270 C   0  0  0  0  0  0  0  0  0  0  0  0
    5.8180   -3.3730   25.4120 C   0  0  0  0  0  0  0  0  0  0  0  0
    4.5610   -3.2150   25.3940 O   0  0  0  0  0  0  0  0  0  0  0  0
    6.5100   -3.0500   26.5970 N   0  0  0  0  0  0  0  0  0  0  0  0
    7.8810   -3.5400   26.7550 C   0  0  0  0  0  0  0  0  0  0  0  0
    8.0260   -4.8850   26.1620 C   0  0  0  0  0  0  0  0  0  0  0  0
    8.8610   -5.6450   26.6720 O   0  0  0  0  0  0  0  0  0  0  0  0
    8.7970   -5.7420   27.9980 C   0  0  0  0  0  0  0  0  0  0  0  0
    6.1310   -1.9360   27.3830 C   0  0  1  0  0  0  0  0  0  0  0  0
    7.1850   -1.3910   28.3370 C   0  0  0  0  0  0  0  0  0  0  0  0
    6.5780   -0.2980   29.1220 C   0  0  0  0  0  0  0  0  0  0  0  0
    5.5680    0.4600   27.9760 S   0  0  0  0  0  0  0  0  0  0  0  0
    5.9610    1.8920   27.6720 O   0  0  0  0  0  0  0  0  0  0  0  0
    4.1100    0.3690   28.3790 O   0  0  0  0  0  0  0  0  0  0  0  0
    5.9250   -0.5870   26.6810 C   0  0  0  0  0  0  0  0  0  0  0  0
    5.7010   -4.8950   23.4950 C   0  0  0  0  0  0  0  0  0  0  0  0
    6.5020   -5.4070   22.3180 C   0  0  0  0  0  0  0  0  0  0  0  0
  1  2  1  0
  2  3  2  0
  2  4  1  0
  4  5  1  0
  5  6  1  0
  6  7  1  0
  7  8  1  0
  8  9  2  0
  8 10  1  0
 10 11  1  0
 11 12  1  0
 12 13  1  0
 13 14  1  0
 15 10  1  6
 15 16  1  0
 16 17  1  0
 18 17  1  0
 18 19  2  0
 18 20  2  0
 15 21  1  0
 18 21  1  0
  7 22  1  0
  4 23  1  0
 22 23  1  0
M  END
