piperidine-amides-33988-covalent
     RDKit          3D

 30 31  0  0  0  0  0  0  0  0999 V2000
    7.0730   -3.2660   19.2850 C   0  0  0  0  0  0  0  0  0  0  0  0
    6.3110   -4.1000   20.2350 C   0  0  0  0  0  0  0  0  0  0  0  0
    5.2290   -4.6080   19.8870 O   0  0  0  0  0  0  0  0  0  0  0  0
    6.7950   -4.3870   21.5100 N   0  0  0  0  0  0  0  0  0  0  0  0
    6.2900   -5.5560   22.1900 C   0  0  0  0  0  0  0  0  0  0  0  0
    5.4410   -5.0330   23.3530 C   0  0  0  0  0  0  0  0  0  0  0  0
    6.3810   -4.1710   24.1580 C   0  0  0  0  0  0  0  0  0  0  0  0
    5.6820   -3.6100   25.3400 C   0  0  0  0  0  0  0  0  0  0  0  0
    4.5430   -3.1240   25.1760 O   0  0  0  0  0  0  0  0  0  0  0  0
    6.3000   -3.6330   26.6240 N   0  0  0  0  0  0  0  0  0  0  0  0
    6.3040   -2.4260   27.4320 C   0  0  0  0  0  0  0  0  0  0  0  0
    6.5390   -1.1740   26.5900 C   0  0  1  0  0  0  0  0  0  0  0  0
    7.4980   -0.4640   27.3540 O   0  0  0  0  0  0  0  0  0  0  0  0
    6.9350   -1.3090   25.2860 C   0  0  0  0  0  0  0  0  0  0  0  0
    8.1300   -0.7990   24.9820 O   0  0  0  0  0  0  0  0  0  0  0  0
    9.3970   -1.0560   24.6990 C   0  0  0  0  0  0  0  0  0  0  0  0
    9.6170   -1.9190   23.5590 C   0  0  0  0  0  0  0  0  0  0  0  0
   10.8920   -2.2550   23.1970 C   0  0  0  0  0  0  0  0  0  0  0  0
   11.8470   -1.6280   24.0960 C   0  0  0  0  0  0  0  0  0  0  0  0
   12.9250   -2.2820   23.3010 C   0  0  0  0  0  0  0  0  0  0  0  0
   13.1980   -1.4760   22.0990 C   0  0  0  0  0  0  0  0  0  0  0  0
   12.9600   -1.9970   20.9250 N   0  0  0  0  0  0  0  0  0  0  0  0
   13.6220   -0.3310   22.0650 O   0  0  0  0  0  0  0  0  0  0  0  0
   11.7660   -0.8070   25.1760 C   0  0  0  0  0  0  0  0  0  0  0  0
   10.4280   -0.5030   25.4960 C   0  0  0  0  0  0  0  0  0  0  0  0
    6.2830   -4.9270   27.3140 C   0  0  0  0  0  0  0  0  0  0  0  0
    4.9030   -5.3850   27.6050 C   0  0  0  0  0  0  0  0  0  0  0  0
    7.0220   -4.9610   28.6360 C   0  0  0  0  0  0  0  0  0  0  0  0
    7.0110   -3.0320   23.4220 C   0  0  0  0  0  0  0  0  0  0  0  0
    7.5350   -3.3600   22.2000 C   0  0  0  0  0  0  0  0  0  0  0  0
  1  2  1  0
  2  3  2  0
  2  4  1  0
  4  5  1  0
  5  6  1  0
  6  7  1  0
  7  8  1  0
  8  9  2  0
  8 10  1  0
 10 11  1  0
 11 12  1  0
 12 13  1  1
 12 14  1  0
 14 15  1  0
 15 16  1  0
 16 17  2  0
 17 18  1  0
 18 19  2  0
 19 20  1  0
 20 21  1  0
 21 22  1  0
 21 23  2  0
 19 24  1  0
 16 25  1  0
 24 25  2  0
 10 26  1  0
 26 27  1  0
 26 28  1  0
  7 29  1  0
  4 30  1  0
 29 30  1  0
M  END
