piperidine-amides-15029-covalent
     RDKit          3D

 21 22  0  0  0  0  0  0  0  0999 V2000
    7.1140   -3.2770   19.2030 C   0  0  0  0  0  0  0  0  0  0  0  0
    6.3800   -4.0490   20.2030 C   0  0  0  0  0  0  0  0  0  0  0  0
    5.2830   -4.5340   19.8790 O   0  0  0  0  0  0  0  0  0  0  0  0
    6.9440   -4.2840   21.4810 N   0  0  0  0  0  0  0  0  0  0  0  0
    7.6070   -3.1990   22.1450 C   0  0  0  0  0  0  0  0  0  0  0  0
    6.7220   -2.6840   23.2420 C   0  0  0  0  0  0  0  0  0  0  0  0
    6.5640   -3.8020   24.2520 C   0  0  0  0  0  0  0  0  0  0  0  0
    5.7790   -3.3160   25.4270 C   0  0  0  0  0  0  0  0  0  0  0  0
    4.5550   -3.3470   25.3110 O   0  0  0  0  0  0  0  0  0  0  0  0
    6.4650   -2.8690   26.5520 N   0  0  0  0  0  0  0  0  0  0  0  0
    6.5680   -1.4870   26.8630 C   0  0  0  0  0  0  0  0  0  0  0  0
    5.3310   -0.8570   27.0700 C   0  0  0  0  0  0  0  0  0  0  0  0
    4.3760   -0.5500   26.1180 C   0  0  0  0  0  0  0  0  0  0  0  0
    3.1740    0.0790   26.4380 C   0  0  0  0  0  0  0  0  0  0  0  0
    2.9990    0.3960   27.8910 C   0  0  0  0  0  0  0  0  0  0  0  0
    1.8080    1.0150   28.1810 O   0  0  0  0  0  0  0  0  0  0  0  0
    0.7800    0.1080   27.9230 C   0  0  0  0  0  0  0  0  0  0  0  0
    3.9340    0.1000   28.8490 C   0  0  0  0  0  0  0  0  0  0  0  0
    5.1540   -0.5430   28.4980 N   0  0  0  0  0  0  0  0  0  0  0  0
    5.9600   -5.0120   23.6300 C   0  0  0  0  0  0  0  0  0  0  0  0
    6.4390   -5.4020   22.2240 C   0  0  0  0  0  0  0  0  0  0  0  0
  1  2  1  0
  2  3  2  0
  2  4  1  0
  4  5  1  0
  5  6  1  0
  6  7  1  0
  7  8  1  0
  8  9  2  0
  8 10  1  0
 10 11  1  0
 11 12  1  0
 12 13  2  0
 13 14  1  0
 14 15  2  0
 15 16  1  0
 16 17  1  0
 15 18  1  0
 12 19  1  0
 18 19  2  0
  7 20  1  0
  4 21  1  0
 20 21  1  0
M  END
