piperidine-amides-3532-covalent
     RDKit          3D

 20 21  0  0  0  0  0  0  0  0999 V2000
    7.0420   -3.3230   19.3480 C   0  0  0  0  0  0  0  0  0  0  0  0
    6.3580   -4.1610   20.3280 C   0  0  0  0  0  0  0  0  0  0  0  0
    5.3910   -4.8400   19.9810 O   0  0  0  0  0  0  0  0  0  0  0  0
    6.8280   -4.2340   21.6930 N   0  0  0  0  0  0  0  0  0  0  0  0
    7.7110   -3.2150   22.2260 C   0  0  0  0  0  0  0  0  0  0  0  0
    7.4460   -2.9910   23.6900 C   0  0  0  0  0  0  0  0  0  0  0  0
    6.1280   -3.6690   23.9720 C   0  0  0  0  0  0  0  0  0  0  0  0
    5.5870   -3.3500   25.3310 C   0  0  0  0  0  0  0  0  0  0  0  0
    4.3670   -3.4370   25.5630 O   0  0  0  0  0  0  0  0  0  0  0  0
    6.4470   -2.9500   26.3870 N   0  0  0  0  0  0  0  0  0  0  0  0
    6.6220   -1.5380   26.6940 C   0  0  2  0  0  0  0  0  0  0  0  0
    7.0830   -1.3700   28.1280 C   0  0  0  0  0  0  0  0  0  0  0  0
    6.4080   -0.5230   28.9810 C   0  0  0  0  0  0  0  0  0  0  0  0
    6.2720    0.8500   28.7220 C   0  0  0  0  0  0  0  0  0  0  0  0
    5.3840    1.2840   27.7640 C   0  0  0  0  0  0  0  0  0  0  0  0
    5.1900    0.5500   26.5680 N   0  0  0  0  0  0  0  0  0  0  0  0
    5.2680   -0.8740   26.5860 C   0  0  0  0  0  0  0  0  0  0  0  0
    4.2270   -1.6020   26.5290 O   0  0  0  0  0  0  0  0  0  0  0  0
    6.1530   -5.1550   23.7330 C   0  0  0  0  0  0  0  0  0  0  0  0
    6.6820   -5.4630   22.4870 C   0  0  0  0  0  0  0  0  0  0  0  0
  1  2  1  0
  2  3  2  0
  2  4  1  0
  4  5  1  0
  5  6  1  0
  6  7  1  0
  7  8  1  0
  8  9  2  0
  8 10  1  0
 11 10  1  1
 11 12  1  0
 12 13  1  0
 13 14  1  0
 14 15  1  0
 15 16  1  0
 11 17  1  0
 16 17  1  0
 17 18  2  0
  7 19  1  0
  4 20  1  0
 19 20  1  0
M  END
