piperidine-amides-6862-covalent
     RDKit          3D

 23 25  0  0  0  0  0  0  0  0999 V2000
    7.0280   -3.3320   19.3400 C   0  0  0  0  0  0  0  0  0  0  0  0
    6.3770   -4.1750   20.3590 C   0  0  0  0  0  0  0  0  0  0  0  0
    5.4310   -4.9220   20.0070 O   0  0  0  0  0  0  0  0  0  0  0  0
    6.8120   -4.1840   21.7030 N   0  0  0  0  0  0  0  0  0  0  0  0
    7.6670   -3.1050   22.1800 C   0  0  0  0  0  0  0  0  0  0  0  0
    7.6020   -3.1000   23.7160 C   0  0  0  0  0  0  0  0  0  0  0  0
    6.2220   -3.6010   24.0550 C   0  0  0  0  0  0  0  0  0  0  0  0
    5.8130   -3.3390   25.4690 C   0  0  0  0  0  0  0  0  0  0  0  0
    4.7040   -3.7980   25.8140 O   0  0  0  0  0  0  0  0  0  0  0  0
    6.5970   -2.5820   26.4010 N   0  0  0  0  0  0  0  0  0  0  0  0
    6.0000   -1.3790   26.9530 C   0  0  2  0  0  0  0  0  0  0  0  0
    6.0090   -0.4290   25.7890 C   0  0  0  0  0  0  0  0  0  0  0  0
    5.7310    0.8680   26.0540 C   0  0  0  0  0  0  0  0  0  0  0  0
    5.3940    1.1100   27.3300 C   0  0  0  0  0  0  0  0  0  0  0  0
    6.1010    0.5360   28.3410 C   0  0  0  0  0  0  0  0  0  0  0  0
    6.3790    1.2890   29.3690 C   0  0  0  0  0  0  0  0  0  0  0  0
    7.0900    1.0190   30.6040 C   0  0  0  0  0  0  0  0  0  0  0  0
    7.3780   -0.4540   30.2340 C   0  0  0  0  0  0  0  0  0  0  0  0
    8.0340   -0.8810   31.2750 F   0  0  0  0  0  0  0  0  0  0  0  0
    7.1710   -1.5410   29.1230 C   0  0  0  0  0  0  0  0  0  0  0  0
    6.4280   -0.7670   28.1540 C   0  0  0  0  0  0  0  0  0  0  0  0
    6.1760   -5.0840   23.7820 C   0  0  0  0  0  0  0  0  0  0  0  0
    6.5650   -5.3500   22.4900 C   0  0  0  0  0  0  0  0  0  0  0  0
  1  2  1  0
  2  3  2  0
  2  4  1  0
  4  5  1  0
  5  6  1  0
  6  7  1  0
  7  8  1  0
  8  9  2  0
  8 10  1  0
 11 10  1  6
 11 12  1  0
 12 13  1  0
 13 14  1  0
 14 15  1  0
 15 16  2  0
 16 17  1  0
 17 18  2  0
 18 19  1  0
 18 20  1  0
 11 21  1  0
 15 21  1  0
 20 21  2  0
  7 22  1  0
  4 23  1  0
 22 23  1  0
M  END
