piperidine-amides-4167-covalent
     RDKit          3D

 27 29  0  0  0  0  0  0  0  0999 V2000
    7.0760   -3.3080   19.2830 C   0  0  0  0  0  0  0  0  0  0  0  0
    6.3650   -4.1180   20.2860 C   0  0  0  0  0  0  0  0  0  0  0  0
    5.2990   -4.6650   19.9220 O   0  0  0  0  0  0  0  0  0  0  0  0
    6.8860   -4.3190   21.5880 N   0  0  0  0  0  0  0  0  0  0  0  0
    7.6060   -3.2470   22.1930 C   0  0  0  0  0  0  0  0  0  0  0  0
    7.3800   -3.0680   23.6210 C   0  0  0  0  0  0  0  0  0  0  0  0
    6.4710   -4.0490   24.2490 C   0  0  0  0  0  0  0  0  0  0  0  0
    5.7090   -3.4210   25.3820 C   0  0  0  0  0  0  0  0  0  0  0  0
    4.4700   -3.3170   25.2950 O   0  0  0  0  0  0  0  0  0  0  0  0
    6.3490   -2.9240   26.5430 N   0  0  0  0  0  0  0  0  0  0  0  0
    6.3090   -1.6090   27.0600 C   0  0  0  0  0  0  0  0  0  0  0  0
    5.5870   -0.4720   26.6290 C   0  0  0  0  0  0  0  0  0  0  0  0
    5.7580    0.8370   27.4220 C   0  0  0  0  0  0  0  0  0  0  0  0
    6.5480    1.1560   28.5590 C   0  0  0  0  0  0  0  0  0  0  0  0
    7.4080    1.1260   29.6280 O   0  0  0  0  0  0  0  0  0  0  0  0
    6.7880    1.3620   30.8440 C   0  0  0  0  0  0  0  0  0  0  0  0
    5.8740    2.5530   30.8310 C   0  0  0  0  0  0  0  0  0  0  0  0
    5.2320    2.7250   32.2450 C   0  0  0  0  0  0  0  0  0  0  0  0
    4.3680    3.7680   32.4170 F   0  0  0  0  0  0  0  0  0  0  0  0
    5.4370    1.8740   33.4980 C   0  0  0  0  0  0  0  0  0  0  0  0
    6.3890    0.7170   33.3300 C   0  0  0  0  0  0  0  0  0  0  0  0
    6.6730   -0.1330   34.3610 F   0  0  0  0  0  0  0  0  0  0  0  0
    7.0650    0.4610   32.0040 C   0  0  0  0  0  0  0  0  0  0  0  0
    7.1620   -0.1220   28.7920 N   0  0  0  0  0  0  0  0  0  0  0  0
    7.1200   -1.3250   28.2270 C   0  0  0  0  0  0  0  0  0  0  0  0
    5.5570   -4.7390   23.2920 C   0  0  0  0  0  0  0  0  0  0  0  0
    6.3840   -5.3890   22.3970 C   0  0  0  0  0  0  0  0  0  0  0  0
  1  2  1  0
  2  3  2  0
  2  4  1  0
  4  5  1  0
  5  6  1  0
  6  7  1  0
  7  8  1  0
  8  9  2  0
  8 10  1  0
 10 11  1  0
 11 12  2  0
 12 13  1  0
 13 14  2  0
 14 15  1  0
 15 16  1  0
 16 17  2  0
 17 18  1  0
 18 19  1  0
 18 20  2  0
 20 21  1  0
 21 22  1  0
 16 23  1  0
 21 23  2  0
 14 24  1  0
 11 25  1  0
 24 25  2  0
  7 26  1  0
  4 27  1  0
 26 27  1  0
M  END
