piperidine-amides-28888-covalent
     RDKit          3D

 22 24  0  0  0  0  0  0  0  0999 V2000
    7.0060   -3.4010   19.4300 C   0  0  0  0  0  0  0  0  0  0  0  0
    6.3440   -4.2640   20.4180 C   0  0  0  0  0  0  0  0  0  0  0  0
    5.4270   -5.0000   20.0100 O   0  0  0  0  0  0  0  0  0  0  0  0
    6.7670   -4.2560   21.7780 N   0  0  0  0  0  0  0  0  0  0  0  0
    6.5910   -5.4390   22.5970 C   0  0  0  0  0  0  0  0  0  0  0  0
    6.1190   -5.0680   23.9920 C   0  0  0  0  0  0  0  0  0  0  0  0
    6.3420   -3.5770   24.1260 C   0  0  0  0  0  0  0  0  0  0  0  0
    6.3550   -2.9790   25.5210 C   0  0  0  0  0  0  0  0  0  0  0  0
    7.1670   -2.1090   25.6610 O   0  0  0  0  0  0  0  0  0  0  0  0
    5.4740   -3.3050   26.5420 N   0  0  0  0  0  0  0  0  0  0  0  0
    4.0890   -3.5730   26.3040 C   0  0  0  0  0  0  0  0  0  0  0  0
    3.7140   -4.8100   26.9120 C   0  0  0  0  0  0  0  0  0  0  0  0
    4.7350   -5.1460   27.6860 C   0  0  0  0  0  0  0  0  0  0  0  0
    5.0500   -6.2060   28.7020 C   0  0  0  0  0  0  0  0  0  0  0  0
    3.8300   -7.1050   28.7860 C   0  0  0  0  0  0  0  0  0  0  0  0
    6.3590   -6.2970   29.4630 C   0  0  0  0  0  0  0  0  0  0  0  0
    7.3700   -5.2310   29.1540 C   0  0  0  0  0  0  0  0  0  0  0  0
    6.3640   -5.0420   28.4470 C   0  0  0  0  0  0  0  0  0  0  0  0
    5.2950   -6.5010   29.0560 Br  0  0  0  0  0  0  0  0  0  0  0  0
    5.7070   -4.3390   27.5140 C   0  0  0  0  0  0  0  0  0  0  0  0
    7.7270   -3.2930   23.5960 C   0  0  0  0  0  0  0  0  0  0  0  0
    7.6520   -3.2100   22.2340 C   0  0  0  0  0  0  0  0  0  0  0  0
  1  2  1  0
  2  3  2  0
  2  4  1  0
  4  5  1  0
  5  6  1  0
  6  7  1  0
  7  8  1  0
  8  9  2  0
  8 10  1  0
 10 11  1  0
 11 12  1  0
 12 13  1  0
 13 14  1  0
 14 15  1  0
 14 16  2  0
 16 17  1  0
 17 18  2  0
 18 19  1  0
 10 20  1  0
 13 20  2  0
 18 20  1  0
  7 21  1  0
  4 22  1  0
 21 22  1  0
M  END
