piperidine-amides-8369-covalent
     RDKit          3D

 24 24  0  0  0  0  0  0  0  0999 V2000
    7.1320   -3.2840   19.1740 C   0  0  0  0  0  0  0  0  0  0  0  0
    6.4100   -4.0510   20.1860 C   0  0  0  0  0  0  0  0  0  0  0  0
    5.3110   -4.5470   19.8850 O   0  0  0  0  0  0  0  0  0  0  0  0
    7.0010   -4.2600   21.4510 N   0  0  0  0  0  0  0  0  0  0  0  0
    7.6810   -3.1340   22.0440 C   0  0  0  0  0  0  0  0  0  0  0  0
    7.3810   -3.0190   23.5110 C   0  0  0  0  0  0  0  0  0  0  0  0
    5.9440   -3.4300   23.7260 C   0  0  0  0  0  0  0  0  0  0  0  0
    5.4700   -2.9870   25.0640 C   0  0  0  0  0  0  0  0  0  0  0  0
    4.3360   -2.5240   25.1290 O   0  0  0  0  0  0  0  0  0  0  0  0
    6.3340   -3.1510   26.1200 N   0  0  0  0  0  0  0  0  0  0  0  0
    6.4680   -4.4260   26.7060 C   0  0  0  0  0  0  0  0  0  0  0  0
    6.4470   -4.3990   28.0860 C   0  0  2  0  0  0  0  0  0  0  0  0
    5.4080   -4.0330   28.6830 O   0  0  0  0  0  0  0  0  0  0  0  0
    7.2800   -3.4250   28.5450 C   0  0  0  0  0  0  0  0  0  0  0  0
    8.5530   -3.1140   28.1350 C   0  0  0  0  0  0  0  0  0  0  0  0
    9.2220   -3.6740   27.2510 O   0  0  0  0  0  0  0  0  0  0  0  0
    9.5680   -5.0230   27.4890 C   0  0  0  0  0  0  0  0  0  0  0  0
    9.6150   -5.8260   26.1820 C   0  0  0  0  0  0  0  0  0  0  0  0
    6.5960   -5.6840   28.5520 C   0  0  0  0  0  0  0  0  0  0  0  0
    6.0150   -5.8240   29.7970 F   0  0  0  0  0  0  0  0  0  0  0  0
    5.9080   -6.4640   27.6670 F   0  0  0  0  0  0  0  0  0  0  0  0
    7.9120   -6.0980   28.5880 F   0  0  0  0  0  0  0  0  0  0  0  0
    5.8080   -4.8880   23.4900 C   0  0  0  0  0  0  0  0  0  0  0  0
    6.5100   -5.3690   22.2220 C   0  0  0  0  0  0  0  0  0  0  0  0
  1  2  1  0
  2  3  2  0
  2  4  1  0
  4  5  1  0
  5  6  1  0
  6  7  1  0
  7  8  1  0
  8  9  2  0
  8 10  1  0
 10 11  1  0
 11 12  1  0
 12 13  1  6
 12 14  1  0
 14 15  2  3
 15 16  1  0
 16 17  1  0
 17 18  1  0
 12 19  1  0
 19 20  1  0
 19 21  1  0
 19 22  1  0
  7 23  1  0
  4 24  1  0
 23 24  1  0
M  END
