piperidine-amides-13645-covalent
     RDKit          3D

 28 29  0  0  0  0  0  0  0  0999 V2000
    7.1770   -3.2590   19.1230 C   0  0  0  0  0  0  0  0  0  0  0  0
    6.3890   -4.0000   20.1440 C   0  0  0  0  0  0  0  0  0  0  0  0
    5.2790   -4.4750   19.8520 O   0  0  0  0  0  0  0  0  0  0  0  0
    6.9700   -4.1900   21.4020 N   0  0  0  0  0  0  0  0  0  0  0  0
    7.8170   -3.1620   21.9750 C   0  0  0  0  0  0  0  0  0  0  0  0
    7.4530   -3.0540   23.4390 C   0  0  0  0  0  0  0  0  0  0  0  0
    6.1190   -3.6920   23.5310 C   0  0  0  0  0  0  0  0  0  0  0  0
    5.5540   -3.5720   24.8450 C   0  0  0  0  0  0  0  0  0  0  0  0
    4.3340   -3.7230   24.9640 O   0  0  0  0  0  0  0  0  0  0  0  0
    6.3890   -3.2880   25.8820 N   0  0  0  0  0  0  0  0  0  0  0  0
    5.8620   -2.7730   27.0330 C   0  0  1  0  0  0  0  0  0  0  0  0
    6.1630   -3.2680   28.2350 C   0  0  0  0  0  0  0  0  0  0  0  0
    5.2160   -2.9150   29.1720 C   0  0  0  0  0  0  0  0  0  0  0  0
    3.9260   -3.4080   29.0730 O   0  0  0  0  0  0  0  0  0  0  0  0
    5.4990   -2.0890   30.2250 O   0  0  0  0  0  0  0  0  0  0  0  0
    6.3770   -0.9580   30.1640 C   0  0  0  0  0  0  0  0  0  0  0  0
    7.5980   -1.2040   29.3530 C   0  0  0  0  0  0  0  0  0  0  0  0
    5.7020   -1.3760   26.9700 C   0  0  0  0  0  0  0  0  0  0  0  0
    6.3660   -0.5120   25.8840 C   0  0  0  0  0  0  0  0  0  0  0  0
    6.2070    0.8560   25.8300 C   0  0  0  0  0  0  0  0  0  0  0  0
    5.3800    1.5120   26.8390 C   0  0  0  0  0  0  0  0  0  0  0  0
    5.4470    2.9800   26.4780 C   0  0  0  0  0  0  0  0  0  0  0  0
    5.6110    3.9290   27.4550 C   0  0  0  0  0  0  0  0  0  0  0  0
    6.7780    3.6340   26.4960 C   0  0  0  0  0  0  0  0  0  0  0  0
    4.7480    0.8410   27.8320 C   0  0  0  0  0  0  0  0  0  0  0  0
    4.9180   -0.6820   27.8980 C   0  0  0  0  0  0  0  0  0  0  0  0
    6.1500   -5.1740   23.2950 C   0  0  0  0  0  0  0  0  0  0  0  0
    6.6770   -5.4250   22.0600 C   0  0  0  0  0  0  0  0  0  0  0  0
  1  2  1  0
  2  3  2  0
  2  4  1  0
  4  5  1  0
  5  6  1  0
  6  7  1  0
  7  8  1  0
  8  9  2  0
  8 10  1  0
 10 11  1  0
 11 12  1  1
 12 13  1  0
 13 14  2  0
 13 15  1  0
 15 16  1  0
 16 17  1  0
 11 18  1  0
 18 19  2  0
 19 20  1  0
 20 21  2  0
 21 22  1  0
 22 23  1  0
 22 24  1  0
 21 25  1  0
 18 26  1  0
 25 26  2  0
  7 27  1  0
  4 28  1  0
 27 28  1  0
M  END
