piperidine-amides-9016-covalent
     RDKit          3D

 21 22  0  0  0  0  0  0  0  0999 V2000
    7.0550   -3.3320   19.3150 C   0  0  0  0  0  0  0  0  0  0  0  0
    6.3620   -4.1490   20.3160 C   0  0  0  0  0  0  0  0  0  0  0  0
    5.3610   -4.7960   19.9700 O   0  0  0  0  0  0  0  0  0  0  0  0
    6.8270   -4.2580   21.6420 N   0  0  0  0  0  0  0  0  0  0  0  0
    6.7340   -5.4860   22.4020 C   0  0  0  0  0  0  0  0  0  0  0  0
    6.0690   -5.1280   23.7050 C   0  0  0  0  0  0  0  0  0  0  0  0
    6.0750   -3.6470   23.9360 C   0  0  0  0  0  0  0  0  0  0  0  0
    5.6260   -3.2740   25.2960 C   0  0  0  0  0  0  0  0  0  0  0  0
    4.3900   -3.1480   25.5380 O   0  0  0  0  0  0  0  0  0  0  0  0
    6.5070   -3.0450   26.3680 N   0  0  0  0  0  0  0  0  0  0  0  0
    6.4430   -1.7840   27.1310 C   0  0  0  0  0  0  0  0  0  0  0  0
    6.0950   -0.5070   26.5040 C   0  0  0  0  0  0  0  0  0  0  0  0
    6.0520    0.6840   27.3680 C   0  0  0  0  0  0  0  0  0  0  0  0
    6.5020    0.6100   28.8170 C   0  0  0  0  0  0  0  0  0  0  0  0
    6.3870    1.9420   29.5310 C   0  0  0  0  0  0  0  0  0  0  0  0
    6.9800   -0.6310   29.3750 N   0  0  0  0  0  0  0  0  0  0  0  0
    8.0870   -0.7270   30.2970 C   0  0  0  0  0  0  0  0  0  0  0  0
    6.7240   -1.7290   28.6350 C   0  0  0  0  0  0  0  0  0  0  0  0
    6.6200   -2.9490   29.0380 O   0  0  0  0  0  0  0  0  0  0  0  0
    7.4290   -3.0630   23.6530 C   0  0  0  0  0  0  0  0  0  0  0  0
    7.6820   -3.2020   22.1720 C   0  0  0  0  0  0  0  0  0  0  0  0
  1  2  1  0
  2  3  2  0
  2  4  1  0
  4  5  1  0
  5  6  1  0
  6  7  1  0
  7  8  1  0
  8  9  2  0
  8 10  1  0
 10 11  1  0
 11 12  2  0
 12 13  1  0
 13 14  2  0
 14 15  1  0
 14 16  1  0
 16 17  1  0
 11 18  1  0
 16 18  1  0
 18 19  2  0
  7 20  1  0
  4 21  1  0
 20 21  1  0
M  END
