piperidine-amides-4629-covalent
     RDKit          3D

 24 24  0  0  0  0  0  0  0  0999 V2000
    7.0920   -3.2870   19.2490 C   0  0  0  0  0  0  0  0  0  0  0  0
    6.3870   -4.0590   20.2980 C   0  0  0  0  0  0  0  0  0  0  0  0
    5.3370   -4.6290   19.9280 O   0  0  0  0  0  0  0  0  0  0  0  0
    6.8930   -4.1860   21.6110 N   0  0  0  0  0  0  0  0  0  0  0  0
    7.6760   -3.1410   22.2150 C   0  0  0  0  0  0  0  0  0  0  0  0
    7.3100   -2.8310   23.6000 C   0  0  0  0  0  0  0  0  0  0  0  0
    6.0910   -3.5440   24.0260 C   0  0  0  0  0  0  0  0  0  0  0  0
    5.5980   -3.1410   25.3860 C   0  0  0  0  0  0  0  0  0  0  0  0
    4.4780   -2.5990   25.4190 O   0  0  0  0  0  0  0  0  0  0  0  0
    6.2980   -3.3270   26.6060 N   0  0  0  0  0  0  0  0  0  0  0  0
    6.0560   -4.5010   27.4960 C   0  0  2  0  0  0  0  0  0  0  0  0
    5.4420   -5.6200   26.7210 C   0  0  0  0  0  0  0  0  0  0  0  0
    4.0590   -6.0470   26.9810 C   0  0  0  0  0  0  0  0  0  0  0  0
    3.1120   -5.9140   25.9830 C   0  0  0  0  0  0  0  0  0  0  0  0
    2.9490   -7.2120   25.4530 N   0  0  0  0  0  0  0  0  0  0  0  0
    5.4570   -4.2220   28.7840 C   0  0  0  0  0  0  0  0  0  0  0  0
    5.4880   -2.9730   29.1700 O   0  0  0  0  0  0  0  0  0  0  0  0
    4.8900   -5.2660   29.5610 O   0  0  0  0  0  0  0  0  0  0  0  0
    5.5540   -6.5320   29.5950 C   0  0  0  0  0  0  0  0  0  0  0  0
    6.7570   -6.2760   29.0300 C   0  0  0  0  0  0  0  0  0  0  0  0
    4.8940   -7.5640   28.9410 C   0  0  0  0  0  0  0  0  0  0  0  0
    5.7030   -7.1530   30.8120 C   0  0  0  0  0  0  0  0  0  0  0  0
    6.1290   -5.0100   23.7890 C   0  0  0  0  0  0  0  0  0  0  0  0
    6.6580   -5.3830   22.4200 C   0  0  0  0  0  0  0  0  0  0  0  0
  1  2  1  0
  2  3  2  0
  2  4  1  0
  4  5  1  0
  5  6  1  0
  6  7  1  0
  7  8  1  0
  8  9  2  0
  8 10  1  0
 10 11  1  0
 11 12  1  6
 12 13  1  0
 13 14  1  0
 14 15  3  0
 11 16  1  0
 16 17  2  0
 16 18  1  0
 19 18  1  0
 19 20  1  0
 19 21  1  0
 19 22  1  0
  7 23  1  0
  4 24  1  0
 23 24  1  0
M  END
