piperidine-amides-16221-covalent
     RDKit          3D

 19 19  0  0  0  0  0  0  0  0999 V2000
    7.0930   -3.2880   19.2480 C   0  0  0  0  0  0  0  0  0  0  0  0
    6.3860   -4.0730   20.2870 C   0  0  0  0  0  0  0  0  0  0  0  0
    5.3550   -4.6480   19.9370 O   0  0  0  0  0  0  0  0  0  0  0  0
    6.9170   -4.1740   21.5840 N   0  0  0  0  0  0  0  0  0  0  0  0
    7.7350   -3.1170   22.1620 C   0  0  0  0  0  0  0  0  0  0  0  0
    7.3950   -2.9110   23.6210 C   0  0  0  0  0  0  0  0  0  0  0  0
    6.0710   -3.6090   23.9020 C   0  0  0  0  0  0  0  0  0  0  0  0
    5.5450   -3.2290   25.2380 C   0  0  0  0  0  0  0  0  0  0  0  0
    4.4660   -2.6270   25.2660 O   0  0  0  0  0  0  0  0  0  0  0  0
    6.1610   -3.5010   26.4810 N   0  0  0  0  0  0  0  0  0  0  0  0
    6.4700   -2.2520   27.1560 C   0  0  0  0  0  0  0  0  0  0  0  0
    6.4880   -2.5090   28.6450 C   0  0  0  0  0  0  0  0  0  0  0  0
    5.6240   -4.6680   27.0500 C   0  0  0  0  0  0  0  0  0  0  0  0
    5.2130   -5.4230   26.0280 C   0  0  0  0  0  0  0  0  0  0  0  0
    4.5320   -6.5630   26.3630 C   0  0  0  0  0  0  0  0  0  0  0  0
    6.1650   -5.7770   27.8900 C   0  0  0  0  0  0  0  0  0  0  0  0
    6.8400   -5.5010   29.1490 C   0  0  0  0  0  0  0  0  0  0  0  0
    6.1400   -5.0620   23.6770 C   0  0  0  0  0  0  0  0  0  0  0  0
    6.6280   -5.3770   22.3130 C   0  0  0  0  0  0  0  0  0  0  0  0
  1  2  1  0
  2  3  2  0
  2  4  1  0
  4  5  1  0
  5  6  1  0
  6  7  1  0
  7  8  1  0
  8  9  2  0
  8 10  1  0
 10 11  1  0
 11 12  1  0
 10 13  1  0
 13 14  1  0
 14 15  1  0
 13 16  1  0
 16 17  1  0
  7 18  1  0
  4 19  1  0
 18 19  1  0
M  END
