piperidine-amides-17090-covalent
     RDKit          3D

 20 21  0  0  0  0  0  0  0  0999 V2000
    7.1380   -3.2980   19.2520 C   0  0  0  0  0  0  0  0  0  0  0  0
    6.3610   -4.0320   20.2620 C   0  0  0  0  0  0  0  0  0  0  0  0
    5.2820   -4.5520   19.8880 O   0  0  0  0  0  0  0  0  0  0  0  0
    6.8490   -4.1920   21.5780 N   0  0  0  0  0  0  0  0  0  0  0  0
    6.5400   -5.3780   22.2990 C   0  0  0  0  0  0  0  0  0  0  0  0
    6.1090   -5.0960   23.6570 C   0  0  0  0  0  0  0  0  0  0  0  0
    6.0790   -3.6490   23.9580 C   0  0  0  0  0  0  0  0  0  0  0  0
    5.5770   -3.3760   25.3400 C   0  0  0  0  0  0  0  0  0  0  0  0
    4.3950   -3.6550   25.6070 O   0  0  0  0  0  0  0  0  0  0  0  0
    6.3820   -2.7970   26.3420 N   0  0  0  0  0  0  0  0  0  0  0  0
    6.9580   -1.5110   26.2780 C   0  0  0  0  0  0  0  0  0  0  0  0
    6.1570   -3.2930   27.6880 C   0  0  0  0  0  0  0  0  0  0  0  0
    5.9620   -2.2770   28.8330 C   0  0  0  0  0  0  0  0  0  0  0  0
    6.6180   -1.0600   28.7930 C   0  0  0  0  0  0  0  0  0  0  0  0
    6.2060   -0.7140   30.2400 C   0  0  0  0  0  0  0  0  0  0  0  0
    5.1420   -1.4710   30.7370 O   0  0  0  0  0  0  0  0  0  0  0  0
    4.0760   -1.4340   29.8430 C   0  0  0  0  0  0  0  0  0  0  0  0
    4.5020   -2.2860   28.6550 C   0  0  0  0  0  0  0  0  0  0  0  0
    7.3720   -2.9450   23.6390 C   0  0  0  0  0  0  0  0  0  0  0  0
    7.7060   -3.1770   22.1750 C   0  0  0  0  0  0  0  0  0  0  0  0
  1  2  1  0
  2  3  2  0
  2  4  1  0
  4  5  1  0
  5  6  1  0
  6  7  1  0
  7  8  1  0
  8  9  2  0
  8 10  1  0
 10 11  1  0
 10 12  1  0
 12 13  1  0
 13 14  1  0
 14 15  1  0
 15 16  1  0
 16 17  1  0
 13 18  1  0
 17 18  1  0
  7 19  1  0
  4 20  1  0
 19 20  1  0
M  END
