piperidine-amides-32774-covalent
     RDKit          3D

 29 31  0  0  0  0  0  0  0  0999 V2000
    7.0060   -3.3730   19.4570 C   0  0  0  0  0  0  0  0  0  0  0  0
    6.3570   -4.2940   20.4390 C   0  0  0  0  0  0  0  0  0  0  0  0
    5.4180   -4.9960   20.0150 O   0  0  0  0  0  0  0  0  0  0  0  0
    6.8180   -4.3890   21.7880 N   0  0  0  0  0  0  0  0  0  0  0  0
    6.5740   -5.5880   22.5820 C   0  0  0  0  0  0  0  0  0  0  0  0
    6.1310   -5.2100   24.0230 C   0  0  0  0  0  0  0  0  0  0  0  0
    6.0540   -3.7230   24.0880 C   0  0  0  0  0  0  0  0  0  0  0  0
    5.6650   -3.0130   25.3620 C   0  0  0  0  0  0  0  0  0  0  0  0
    5.5170   -1.8070   25.1980 O   0  0  0  0  0  0  0  0  0  0  0  0
    5.4180   -3.5760   26.6450 N   0  0  0  0  0  0  0  0  0  0  0  0
    6.2440   -4.4560   27.3470 C   0  0  0  0  0  0  0  0  0  0  0  0
    5.8750   -5.2690   28.3400 C   0  0  0  0  0  0  0  0  0  0  0  0
    6.4890   -6.5080   28.5510 C   0  0  0  0  0  0  0  0  0  0  0  0
    6.1250   -7.4030   29.5450 C   0  0  0  0  0  0  0  0  0  0  0  0
    5.0280   -7.0530   30.4450 C   0  0  0  0  0  0  0  0  0  0  0  0
    4.3320   -5.7290   30.2720 C   0  0  0  0  0  0  0  0  0  0  0  0
    4.9000   -4.8910   29.1250 C   0  0  0  0  0  0  0  0  0  0  0  0
    4.3860   -3.6610   28.8630 C   0  0  0  0  0  0  0  0  0  0  0  0
    4.2020   -3.2900   27.4300 C   0  0  1  0  0  0  0  0  0  0  0  0
    3.9540   -1.8450   27.8560 C   0  0  0  0  0  0  0  0  0  0  0  0
    5.1760   -1.2250   28.1070 O   0  0  0  0  0  0  0  0  0  0  0  0
    2.8630   -1.0800   28.0460 N   0  0  0  0  0  0  0  0  0  0  0  0
    2.7320   -0.3580   29.1650 C   0  0  0  0  0  0  0  0  0  0  0  0
    1.4200   -0.2490   29.9790 C   0  0  0  0  0  0  0  0  0  0  0  0
    1.2900    0.1200   31.2800 N   0  0  0  0  0  0  0  0  0  0  0  0
    0.0710    0.3820   31.8150 C   0  0  0  0  0  0  0  0  0  0  0  0
    2.4290    0.7020   31.7240 C   0  0  0  0  0  0  0  0  0  0  0  0
    7.3530   -3.0920   23.6540 C   0  0  0  0  0  0  0  0  0  0  0  0
    7.5950   -3.2950   22.3100 C   0  0  0  0  0  0  0  0  0  0  0  0
  1  2  1  0
  2  3  2  0
  2  4  1  0
  4  5  1  0
  5  6  1  0
  6  7  1  0
  7  8  1  0
  8  9  2  0
  8 10  1  0
 10 11  1  0
 11 12  1  0
 12 13  2  0
 13 14  1  0
 14 15  2  0
 15 16  1  0
 12 17  1  0
 16 17  2  0
 17 18  1  0
 10 19  1  0
 18 19  1  0
 19 20  1  1
 20 21  2  0
 20 22  1  0
 22 23  1  0
 23 24  1  0
 24 25  1  0
 25 26  1  0
 25 27  1  0
  7 28  1  0
  4 29  1  0
 28 29  1  0
M  END
