piperidine-amides-14624-covalent
     RDKit          3D

 23 24  0  0  0  0  0  0  0  0999 V2000
    7.1640   -3.9740   19.7710 C   0  0  0  0  0  0  0  0  0  0  0  0
    5.8770   -3.8470   20.3240 C   0  0  0  0  0  0  0  0  0  0  0  0
    4.9370   -3.9360   19.5310 O   0  0  0  0  0  0  0  0  0  0  0  0
    5.7800   -3.7210   21.7070 N   0  0  0  0  0  0  0  0  0  0  0  0
    6.3990   -2.5410   22.2140 C   0  0  0  0  0  0  0  0  0  0  0  0
    7.1620   -2.8370   23.4620 C   0  0  0  0  0  0  0  0  0  0  0  0
    6.2570   -3.6070   24.4100 C   0  0  0  0  0  0  0  0  0  0  0  0
    5.1570   -2.7620   24.9610 C   0  0  0  0  0  0  0  0  0  0  0  0
    4.0470   -2.8980   24.4670 O   0  0  0  0  0  0  0  0  0  0  0  0
    5.4400   -1.9050   26.0050 N   0  0  0  0  0  0  0  0  0  0  0  0
    5.2790   -2.3780   27.3210 C   0  0  0  0  0  0  0  0  0  0  0  0
    6.3550   -3.1210   27.6720 C   0  0  0  0  0  0  0  0  0  0  0  0
    6.6560   -4.4140   27.4190 C   0  0  0  0  0  0  0  0  0  0  0  0
    7.9340   -4.5760   28.0480 N   0  0  0  0  0  0  0  0  0  0  0  0
    8.6160   -5.7680   28.0150 C   0  0  0  0  0  0  0  0  0  0  0  0
    8.8370   -6.1350   26.6170 C   0  0  0  0  0  0  0  0  0  0  0  0
    9.0920   -5.0010   25.6240 C   0  0  0  0  0  0  0  0  0  0  0  0
    8.1100   -5.1640   24.5370 C   0  0  0  0  0  0  0  0  0  0  0  0
    8.4800   -3.5510   28.6680 N   0  0  0  0  0  0  0  0  0  0  0  0
    7.4080   -2.7040   28.3740 C   0  0  0  0  0  0  0  0  0  0  0  0
    7.3890   -1.2400   28.8500 C   0  0  0  0  0  0  0  0  0  0  0  0
    5.5450   -4.7600   23.7230 C   0  0  0  0  0  0  0  0  0  0  0  0
    6.0180   -4.9310   22.4560 C   0  0  0  0  0  0  0  0  0  0  0  0
  1  2  1  0
  2  3  2  0
  2  4  1  0
  4  5  1  0
  5  6  1  0
  6  7  1  0
  7  8  1  0
  8  9  2  0
  8 10  1  0
 10 11  1  0
 11 12  1  0
 12 13  2  0
 13 14  1  0
 14 15  1  0
 15 16  1  0
 16 17  1  0
 17 18  1  0
 14 19  1  0
 12 20  1  0
 19 20  2  0
 20 21  1  0
  7 22  1  0
  4 23  1  0
 22 23  1  0
M  END
