piperidine-amides-4883-covalent
     RDKit          3D

 23 23  0  0  0  0  0  0  0  0999 V2000
    7.1590   -3.2700   19.1480 C   0  0  0  0  0  0  0  0  0  0  0  0
    6.3550   -3.9790   20.1680 C   0  0  0  0  0  0  0  0  0  0  0  0
    5.2460   -4.4270   19.8220 O   0  0  0  0  0  0  0  0  0  0  0  0
    6.8800   -4.1710   21.4450 N   0  0  0  0  0  0  0  0  0  0  0  0
    7.6210   -3.1230   22.0670 C   0  0  0  0  0  0  0  0  0  0  0  0
    7.0690   -2.6690   23.3380 C   0  0  0  0  0  0  0  0  0  0  0  0
    6.5650   -3.7580   24.1870 C   0  0  0  0  0  0  0  0  0  0  0  0
    5.7870   -3.2270   25.3240 C   0  0  0  0  0  0  0  0  0  0  0  0
    4.8830   -2.4000   25.1020 O   0  0  0  0  0  0  0  0  0  0  0  0
    6.0530   -3.6690   26.6230 N   0  0  0  0  0  0  0  0  0  0  0  0
    5.8030   -5.0820   26.9650 C   0  0  0  0  0  0  0  0  0  0  0  0
    6.1360   -5.4160   28.3650 C   0  0  0  0  0  0  0  0  0  0  0  0
    5.5580   -4.5630   29.3850 C   0  0  0  0  0  0  0  0  0  0  0  0
    4.3260   -3.9800   29.1990 C   0  0  0  0  0  0  0  0  0  0  0  0
    3.7070   -3.3340   30.2560 C   0  0  0  0  0  0  0  0  0  0  0  0
    2.5260   -3.7960   30.5730 O   0  0  0  0  0  0  0  0  0  0  0  0
    4.3180   -2.2650   30.9260 O   0  0  0  0  0  0  0  0  0  0  0  0
    3.6110   -1.6760   32.0030 C   0  0  0  0  0  0  0  0  0  0  0  0
    2.5620   -1.0420   31.4040 C   0  0  0  0  0  0  0  0  0  0  0  0
    4.3920   -0.8070   32.7510 C   0  0  0  0  0  0  0  0  0  0  0  0
    3.1580   -2.5120   32.9990 C   0  0  0  0  0  0  0  0  0  0  0  0
    5.8320   -4.8480   23.5060 C   0  0  0  0  0  0  0  0  0  0  0  0
    6.5360   -5.3170   22.2660 C   0  0  0  0  0  0  0  0  0  0  0  0
  1  2  1  0
  2  3  2  0
  2  4  1  0
  4  5  1  0
  5  6  1  0
  6  7  1  0
  7  8  1  0
  8  9  2  0
  8 10  1  0
 10 11  1  0
 11 12  1  0
 12 13  1  0
 13 14  1  0
 14 15  1  0
 15 16  2  0
 15 17  1  0
 18 17  1  0
 18 19  1  0
 18 20  1  0
 18 21  1  0
  7 22  1  0
  4 23  1  0
 22 23  1  0
M  END
