piperidine-amides-3748-covalent
     RDKit          3D

 21 22  0  0  0  0  0  0  0  0999 V2000
    7.1330   -3.2710   19.1850 C   0  0  0  0  0  0  0  0  0  0  0  0
    6.3900   -4.0320   20.2010 C   0  0  0  0  0  0  0  0  0  0  0  0
    5.2830   -4.5120   19.8690 O   0  0  0  0  0  0  0  0  0  0  0  0
    6.9420   -4.2660   21.4790 N   0  0  0  0  0  0  0  0  0  0  0  0
    6.4380   -5.3550   22.2300 C   0  0  0  0  0  0  0  0  0  0  0  0
    5.8630   -4.9800   23.5210 C   0  0  0  0  0  0  0  0  0  0  0  0
    6.5000   -3.8310   24.2050 C   0  0  0  0  0  0  0  0  0  0  0  0
    5.7040   -3.3630   25.3840 C   0  0  0  0  0  0  0  0  0  0  0  0
    4.4740   -3.5560   25.4020 O   0  0  0  0  0  0  0  0  0  0  0  0
    6.2970   -2.7010   26.4690 N   0  0  0  0  0  0  0  0  0  0  0  0
    6.1620   -1.3370   26.8170 C   0  0  1  0  0  0  0  0  0  0  0  0
    4.8540   -0.7090   26.8860 C   0  0  0  0  0  0  0  0  0  0  0  0
    5.2610   -0.3800   28.2820 C   0  0  2  0  0  0  0  0  0  0  0  0
    5.8150    0.8700   28.4860 C   0  0  0  0  0  0  0  0  0  0  0  0
    6.3510    0.9070   30.2180 S   0  0  0  0  0  0  0  0  0  0  0  0
    5.6020   -0.4730   31.1190 C   0  0  0  0  0  0  0  0  0  0  0  0
    7.8450    0.7610   30.2150 O   0  0  0  0  0  0  0  0  0  0  0  0
    5.9600    2.1690   30.8990 O   0  0  0  0  0  0  0  0  0  0  0  0
    6.5760   -1.0710   28.2750 C   0  0  0  0  0  0  0  0  0  0  0  0
    6.7450   -2.6830   23.2340 C   0  0  0  0  0  0  0  0  0  0  0  0
    7.6700   -3.2450   22.1930 C   0  0  0  0  0  0  0  0  0  0  0  0
  1  2  1  0
  2  3  2  0
  2  4  1  0
  4  5  1  0
  5  6  1  0
  6  7  1  0
  7  8  1  0
  8  9  2  0
  8 10  1  0
 11 10  1  1
 11 12  1  0
 12 13  1  0
 13 14  1  6
 15 14  1  0
 15 16  1  0
 15 17  2  0
 15 18  2  0
 11 19  1  0
 13 19  1  0
  7 20  1  0
  4 21  1  0
 20 21  1  0
M  END
