piperidine-amides-25915-covalent
     RDKit          3D

 25 26  0  0  0  0  0  0  0  0999 V2000
    7.1160   -3.2550   19.2430 C   0  0  0  0  0  0  0  0  0  0  0  0
    6.3640   -4.0380   20.2580 C   0  0  0  0  0  0  0  0  0  0  0  0
    5.3140   -4.5640   19.8940 O   0  0  0  0  0  0  0  0  0  0  0  0
    6.8790   -4.1890   21.5460 N   0  0  0  0  0  0  0  0  0  0  0  0
    7.7490   -3.2000   22.1470 C   0  0  0  0  0  0  0  0  0  0  0  0
    7.3750   -3.0260   23.5810 C   0  0  0  0  0  0  0  0  0  0  0  0
    5.9940   -3.6390   23.7740 C   0  0  0  0  0  0  0  0  0  0  0  0
    5.4540   -3.2370   25.0730 C   0  0  0  0  0  0  0  0  0  0  0  0
    4.2350   -3.1370   25.2210 O   0  0  0  0  0  0  0  0  0  0  0  0
    6.2660   -2.9670   26.1650 N   0  0  0  0  0  0  0  0  0  0  0  0
    6.5930   -1.5680   26.3370 C   0  0  0  0  0  0  0  0  0  0  0  0
    5.9730   -3.7890   27.2850 C   0  0  0  0  0  0  0  0  0  0  0  0
    6.6160   -3.3880   28.3910 C   0  0  0  0  0  0  0  0  0  0  0  0
    6.8140   -4.2580   29.2650 O   0  0  0  0  0  0  0  0  0  0  0  0
    7.0870   -2.0660   28.6300 N   0  0  0  0  0  0  0  0  0  0  0  0
    6.8160   -1.3000   29.8140 C   0  0  0  0  0  0  0  0  0  0  0  0
    7.8060   -0.7460   30.5310 C   0  0  0  0  0  0  0  0  0  0  0  0
    7.3680    0.0140   31.7270 C   0  0  0  0  0  0  0  0  0  0  0  0
    8.2820    0.7090   32.6810 C   0  0  0  0  0  0  0  0  0  0  0  0
    6.1320    0.4050   32.4550 C   0  0  0  0  0  0  0  0  0  0  0  0
    5.0840   -0.2530   31.5830 C   0  0  0  0  0  0  0  0  0  0  0  0
    5.3630   -1.0690   30.3250 C   0  0  0  0  0  0  0  0  0  0  0  0
    4.1810   -1.6560   29.5760 C   0  0  0  0  0  0  0  0  0  0  0  0
    6.0870   -5.1440   23.6540 C   0  0  0  0  0  0  0  0  0  0  0  0
    6.6480   -5.4160   22.2880 C   0  0  0  0  0  0  0  0  0  0  0  0
  1  2  1  0
  2  3  2  0
  2  4  1  0
  4  5  1  0
  5  6  1  0
  6  7  1  0
  7  8  1  0
  8  9  2  0
  8 10  1  0
 10 11  1  0
 10 12  1  0
 12 13  1  0
 13 14  2  0
 13 15  1  0
 15 16  1  0
 16 17  2  0
 17 18  1  0
 18 19  1  0
 18 20  2  0
 20 21  1  0
 16 22  1  0
 21 22  2  0
 22 23  1  0
  7 24  1  0
  4 25  1  0
 24 25  1  0
M  END
