piperidine-amides-10765-covalent
     RDKit          3D

 22 23  0  0  0  0  0  0  0  0999 V2000
    7.1050   -3.3350   19.2550 C   0  0  0  0  0  0  0  0  0  0  0  0
    6.3560   -4.0950   20.2550 C   0  0  0  0  0  0  0  0  0  0  0  0
    5.3020   -4.6660   19.9290 O   0  0  0  0  0  0  0  0  0  0  0  0
    6.8510   -4.2230   21.5540 N   0  0  0  0  0  0  0  0  0  0  0  0
    7.6610   -3.2060   22.1820 C   0  0  0  0  0  0  0  0  0  0  0  0
    6.8340   -2.7090   23.3260 C   0  0  0  0  0  0  0  0  0  0  0  0
    6.5000   -3.8470   24.2240 C   0  0  0  0  0  0  0  0  0  0  0  0
    5.7700   -3.4240   25.4470 C   0  0  0  0  0  0  0  0  0  0  0  0
    4.5000   -3.4000   25.4760 O   0  0  0  0  0  0  0  0  0  0  0  0
    6.4170   -3.0160   26.6350 N   0  0  0  0  0  0  0  0  0  0  0  0
    5.8370   -1.9120   27.4320 C   0  0  0  0  0  0  0  0  0  0  0  0
    4.9820   -2.1970   28.6180 C   0  0  0  0  0  0  0  0  0  0  0  0
    5.2130   -1.8470   29.8100 O   0  0  0  0  0  0  0  0  0  0  0  0
    3.8740   -2.9020   28.3060 N   0  0  0  0  0  0  0  0  0  0  0  0
    2.9120   -3.3470   29.2440 C   0  0  0  0  0  0  0  0  0  0  0  0
    1.9720   -4.2270   28.4490 C   0  0  0  0  0  0  0  0  0  0  0  0
    0.8850   -3.4820   28.1060 O   0  0  0  0  0  0  0  0  0  0  0  0
    0.6580   -3.0440   26.7720 C   0  0  0  0  0  0  0  0  0  0  0  0
    5.9690   -0.5160   26.9350 C   0  0  0  0  0  0  0  0  0  0  0  0
    6.8900   -0.8920   27.8850 C   0  0  0  0  0  0  0  0  0  0  0  0
    5.7280   -4.9290   23.5120 C   0  0  0  0  0  0  0  0  0  0  0  0
    6.5400   -5.4000   22.3310 C   0  0  0  0  0  0  0  0  0  0  0  0
  1  2  1  0
  2  3  2  0
  2  4  1  0
  4  5  1  0
  5  6  1  0
  6  7  1  0
  7  8  1  0
  8  9  2  0
  8 10  1  0
 10 11  1  0
 11 12  1  0
 12 13  2  0
 12 14  1  0
 14 15  1  0
 15 16  1  0
 16 17  1  0
 17 18  1  0
 11 19  1  0
 11 20  1  0
 19 20  1  0
  7 21  1  0
  4 22  1  0
 21 22  1  0
M  END
