piperidine-amides-19681-covalent
     RDKit          3D

 22 24  0  0  0  0  0  0  0  0999 V2000
    7.0750   -3.3680   19.3960 C   0  0  0  0  0  0  0  0  0  0  0  0
    6.3930   -4.2360   20.3900 C   0  0  0  0  0  0  0  0  0  0  0  0
    5.4030   -4.8540   19.9900 O   0  0  0  0  0  0  0  0  0  0  0  0
    6.9040   -4.3590   21.6930 N   0  0  0  0  0  0  0  0  0  0  0  0
    6.7420   -5.5920   22.4400 C   0  0  0  0  0  0  0  0  0  0  0  0
    6.1800   -5.2960   23.8070 C   0  0  0  0  0  0  0  0  0  0  0  0
    6.1460   -3.7900   23.9780 C   0  0  0  0  0  0  0  0  0  0  0  0
    5.5070   -3.4390   25.2700 C   0  0  0  0  0  0  0  0  0  0  0  0
    4.4020   -2.8890   25.2240 O   0  0  0  0  0  0  0  0  0  0  0  0
    6.0440   -3.6880   26.5440 N   0  0  0  0  0  0  0  0  0  0  0  0
    5.1740   -4.4860   27.3750 C   0  0  0  0  0  0  0  0  0  0  0  0
    5.9600   -5.0030   28.5500 C   0  0  0  0  0  0  0  0  0  0  0  0
    6.8970   -4.0770   28.8800 O   0  0  0  0  0  0  0  0  0  0  0  0
    6.7820   -2.7790   28.6670 C   0  0  2  0  0  0  0  0  0  0  0  0
    5.8810   -2.2630   29.5370 C   0  0  0  0  0  0  0  0  0  0  0  0
    4.6510   -2.7830   29.8060 C   0  0  0  0  0  0  0  0  0  0  0  0
    3.7900   -2.0900   30.7840 C   0  0  0  0  0  0  0  0  0  0  0  0
    4.8360   -1.0640   30.9910 C   0  0  0  0  0  0  0  0  0  0  0  0
    6.0200   -1.2060   30.2530 O   0  0  0  0  0  0  0  0  0  0  0  0
    6.4640   -2.4980   27.2220 C   0  0  0  0  0  0  0  0  0  0  0  0
    7.4080   -3.1070   23.6730 C   0  0  0  0  0  0  0  0  0  0  0  0
    7.7340   -3.2930   22.2310 C   0  0  0  0  0  0  0  0  0  0  0  0
  1  2  1  0
  2  3  2  0
  2  4  1  0
  4  5  1  0
  5  6  1  0
  6  7  1  0
  7  8  1  0
  8  9  2  0
  8 10  1  0
 10 11  1  0
 11 12  1  0
 12 13  1  0
 13 14  1  0
 14 15  1  1
 15 16  2  0
 16 17  1  0
 17 18  2  0
 15 19  1  0
 18 19  1  0
 10 20  1  0
 14 20  1  0
  7 21  1  0
  4 22  1  0
 21 22  1  0
M  END
