piperidine-amides-33828-covalent
     RDKit          3D

 30 32  0  0  0  0  0  0  0  0999 V2000
    7.1130   -3.3850   19.3880 C   0  0  0  0  0  0  0  0  0  0  0  0
    6.4290   -4.2190   20.3840 C   0  0  0  0  0  0  0  0  0  0  0  0
    5.4020   -4.8340   19.9910 O   0  0  0  0  0  0  0  0  0  0  0  0
    6.9610   -4.3570   21.6960 N   0  0  0  0  0  0  0  0  0  0  0  0
    6.6050   -5.5030   22.4800 C   0  0  0  0  0  0  0  0  0  0  0  0
    6.1910   -5.2090   23.8640 C   0  0  0  0  0  0  0  0  0  0  0  0
    6.1060   -3.7650   24.1650 C   0  0  0  0  0  0  0  0  0  0  0  0
    5.5220   -3.4130   25.5170 C   0  0  0  0  0  0  0  0  0  0  0  0
    4.3360   -3.0450   25.5100 O   0  0  0  0  0  0  0  0  0  0  0  0
    6.1650   -3.4450   26.7840 N   0  0  0  0  0  0  0  0  0  0  0  0
    6.0670   -2.4140   27.7170 C   0  0  0  0  0  0  0  0  0  0  0  0
    5.6080   -2.8420   29.0340 C   0  0  0  0  0  0  0  0  0  0  0  0
    4.9210   -3.9800   29.2400 N   0  0  0  0  0  0  0  0  0  0  0  0
    3.7240   -4.0710   30.0490 C   0  0  0  0  0  0  0  0  0  0  0  0
    2.6380   -3.6040   29.3410 C   0  0  0  0  0  0  0  0  0  0  0  0
    1.4390   -4.2100   29.6570 O   0  0  0  0  0  0  0  0  0  0  0  0
    1.4880   -5.5940   29.5500 C   0  0  0  0  0  0  0  0  0  0  0  0
    1.2910   -6.0970   28.1450 C   0  0  0  0  0  0  0  0  0  0  0  0
    1.3730   -7.6430   28.1980 C   0  0  0  0  0  0  0  0  0  0  0  0
    1.6010   -8.5820   29.3580 C   0  0  0  0  0  0  0  0  0  0  0  0
    1.7870   -7.9630   30.7170 C   0  0  0  0  0  0  0  0  0  0  0  0
    1.7230   -6.4410   30.7770 C   0  0  0  0  0  0  0  0  0  0  0  0
    5.1420   -4.9750   28.3720 C   0  0  2  0  0  0  0  0  0  0  0  0
    5.4280   -6.2340   28.8770 C   0  0  0  0  0  0  0  0  0  0  0  0
    4.9010   -7.2850   28.1650 C   0  0  0  0  0  0  0  0  0  0  0  0
    6.7440   -6.5420   28.8980 C   0  0  0  0  0  0  0  0  0  0  0  0
    4.9330   -6.5020   30.2580 C   0  0  0  0  0  0  0  0  0  0  0  0
    6.0650   -4.7390   27.3710 C   0  0  0  0  0  0  0  0  0  0  0  0
    7.3350   -3.0700   23.7630 C   0  0  0  0  0  0  0  0  0  0  0  0
    7.7130   -3.3130   22.3580 C   0  0  0  0  0  0  0  0  0  0  0  0
  1  2  1  0
  2  3  2  0
  2  4  1  0
  4  5  1  0
  5  6  1  0
  6  7  1  0
  7  8  1  0
  8  9  2  0
  8 10  1  0
 10 11  1  0
 11 12  1  0
 12 13  1  0
 13 14  1  0
 14 15  1  0
 15 16  1  0
 16 17  1  0
 17 18  2  0
 18 19  1  0
 19 20  2  0
 20 21  1  0
 17 22  1  0
 21 22  2  0
 13 23  1  0
 23 24  1  1
 24 25  1  0
 24 26  1  0
 24 27  1  0
 10 28  1  0
 23 28  1  0
  7 29  1  0
  4 30  1  0
 29 30  1  0
M  END
