piperidine-amides-34089-covalent
     RDKit          3D

 30 32  0  0  0  0  0  0  0  0999 V2000
    7.1020   -3.3450   19.2860 C   0  0  0  0  0  0  0  0  0  0  0  0
    6.3640   -4.1360   20.2740 C   0  0  0  0  0  0  0  0  0  0  0  0
    5.3260   -4.7500   19.9530 O   0  0  0  0  0  0  0  0  0  0  0  0
    6.8590   -4.2500   21.5710 N   0  0  0  0  0  0  0  0  0  0  0  0
    6.5560   -5.4330   22.3380 C   0  0  0  0  0  0  0  0  0  0  0  0
    5.7770   -4.9470   23.5660 C   0  0  0  0  0  0  0  0  0  0  0  0
    6.6690   -3.9180   24.2270 C   0  0  0  0  0  0  0  0  0  0  0  0
    5.9500   -3.2340   25.3270 C   0  0  0  0  0  0  0  0  0  0  0  0
    5.3970   -2.1520   25.0580 O   0  0  0  0  0  0  0  0  0  0  0  0
    5.8210   -3.7720   26.6320 N   0  0  0  0  0  0  0  0  0  0  0  0
    4.6860   -3.3040   27.3370 C   0  0  0  0  0  0  0  0  0  0  0  0
    4.4780   -4.4130   28.3030 C   0  0  2  0  0  0  0  0  0  0  0  0
    3.2080   -4.6780   28.7270 C   0  0  0  0  0  0  0  0  0  0  0  0
    3.0450   -6.0340   28.7530 C   0  0  0  0  0  0  0  0  0  0  0  0
    4.2020   -6.7310   28.4020 C   0  0  0  0  0  0  0  0  0  0  0  0
    5.2450   -5.9080   27.9850 C   0  0  0  0  0  0  0  0  0  0  0  0
    6.6560   -6.4070   27.9850 C   0  0  0  0  0  0  0  0  0  0  0  0
    6.6810   -5.0420   28.6240 C   0  0  1  0  0  0  0  0  0  0  0  0
    6.3300   -3.7000   27.9870 C   0  0  0  0  0  0  0  0  0  0  0  0
    5.4020   -4.5490   29.2990 C   0  0  0  0  0  0  0  0  0  0  0  0
    5.0770   -5.4910   30.3140 N   0  0  0  0  0  0  0  0  0  0  0  0
    3.9410   -5.3830   31.1780 C   0  0  0  0  0  0  0  0  0  0  0  0
    3.3690   -4.3110   31.4940 O   0  0  0  0  0  0  0  0  0  0  0  0
    3.4430   -6.3920   31.7030 O   0  0  0  0  0  0  0  0  0  0  0  0
    4.0320   -7.2120   32.6650 C   0  0  0  0  0  0  0  0  0  0  0  0
    4.0230   -6.4760   33.9840 C   0  0  0  0  0  0  0  0  0  0  0  0
    3.2500   -8.4930   32.8720 C   0  0  0  0  0  0  0  0  0  0  0  0
    5.3120   -7.5770   32.2990 C   0  0  0  0  0  0  0  0  0  0  0  0
    7.1640   -2.8280   23.3420 C   0  0  0  0  0  0  0  0  0  0  0  0
    7.6880   -3.2290   22.1690 C   0  0  0  0  0  0  0  0  0  0  0  0
  1  2  1  0
  2  3  2  0
  2  4  1  0
  4  5  1  0
  5  6  1  0
  6  7  1  0
  7  8  1  0
  8  9  2  0
  8 10  1  0
 10 11  1  0
 12 11  1  1
 12 13  1  0
 13 14  1  0
 14 15  1  0
 15 16  1  0
 16 17  1  0
 18 17  1  6
 10 19  1  0
 18 19  1  0
 12 20  1  0
 18 20  1  0
 20 21  1  0
 21 22  1  0
 22 23  2  0
 22 24  1  0
 25 24  1  0
 25 26  1  0
 25 27  1  0
 25 28  1  0
  7 29  1  0
  4 30  1  0
 29 30  1  0
M  END
