piperidine-amides-4340-covalent
     RDKit          3D

 26 27  0  0  0  0  0  0  0  0999 V2000
    7.0600   -3.3330   19.3500 C   0  0  0  0  0  0  0  0  0  0  0  0
    6.3810   -4.1620   20.3640 C   0  0  0  0  0  0  0  0  0  0  0  0
    5.3800   -4.8100   19.9750 O   0  0  0  0  0  0  0  0  0  0  0  0
    6.8620   -4.2680   21.7000 N   0  0  0  0  0  0  0  0  0  0  0  0
    7.6820   -3.2350   22.2250 C   0  0  0  0  0  0  0  0  0  0  0  0
    7.3170   -2.9170   23.5860 C   0  0  0  0  0  0  0  0  0  0  0  0
    6.0800   -3.6150   23.9610 C   0  0  0  0  0  0  0  0  0  0  0  0
    5.6180   -3.2480   25.3450 C   0  0  0  0  0  0  0  0  0  0  0  0
    4.3990   -3.2620   25.5880 O   0  0  0  0  0  0  0  0  0  0  0  0
    6.5090   -2.8880   26.3740 N   0  0  0  0  0  0  0  0  0  0  0  0
    6.5180   -1.7350   27.2050 C   0  0  0  0  0  0  0  0  0  0  0  0
    7.1410   -1.6270   28.5330 C   0  0  0  0  0  0  0  0  0  0  0  0
    7.0520   -0.2870   29.2810 C   0  0  0  0  0  0  0  0  0  0  0  0
    6.3850    0.7390   28.6580 C   0  0  0  0  0  0  0  0  0  0  0  0
    6.4440    1.9400   29.6020 C   0  0  0  0  0  0  0  0  0  0  0  0
    5.7100    0.6970   27.2830 C   0  0  0  0  0  0  0  0  0  0  0  0
    5.0770    1.7580   26.7640 N   0  0  0  0  0  0  0  0  0  0  0  0
    3.7430    1.8970   26.8210 C   0  0  0  0  0  0  0  0  0  0  0  0
    2.9940    0.7220   26.8940 O   0  0  0  0  0  0  0  0  0  0  0  0
    3.2330    3.3180   26.7990 C   0  0  0  0  0  0  0  0  0  0  0  0
    3.1180    3.6710   25.4900 N   0  0  0  0  0  0  0  0  0  0  0  0
    4.0920    4.6140   24.8740 C   0  0  0  0  0  0  0  0  0  0  0  0
    2.0200    2.8620   24.9750 C   0  0  0  0  0  0  0  0  0  0  0  0
    5.8190   -0.5250   26.6470 C   0  0  0  0  0  0  0  0  0  0  0  0
    6.1080   -5.1050   23.7550 C   0  0  0  0  0  0  0  0  0  0  0  0
    6.6120   -5.4480   22.4900 C   0  0  0  0  0  0  0  0  0  0  0  0
  1  2  1  0
  2  3  2  0
  2  4  1  0
  4  5  1  0
  5  6  1  0
  6  7  1  0
  7  8  1  0
  8  9  2  0
  8 10  1  0
 10 11  1  0
 11 12  2  0
 12 13  1  0
 13 14  2  0
 14 15  1  0
 14 16  1  0
 16 17  1  0
 17 18  1  0
 18 19  2  0
 18 20  1  0
 20 21  1  0
 21 22  1  0
 21 23  1  0
 11 24  1  0
 16 24  2  0
  7 25  1  0
  4 26  1  0
 25 26  1  0
M  END
