piperidine-amides-30161-covalent
     RDKit          3D

 21 22  0  0  0  0  0  0  0  0999 V2000
    7.1030   -3.3570   19.3500 C   0  0  0  0  0  0  0  0  0  0  0  0
    6.3620   -4.1700   20.2990 C   0  0  0  0  0  0  0  0  0  0  0  0
    5.3290   -4.7440   19.9560 O   0  0  0  0  0  0  0  0  0  0  0  0
    6.8890   -4.3470   21.6190 N   0  0  0  0  0  0  0  0  0  0  0  0
    6.5630   -5.5020   22.4090 C   0  0  0  0  0  0  0  0  0  0  0  0
    5.8730   -5.0890   23.6850 C   0  0  0  0  0  0  0  0  0  0  0  0
    6.6170   -3.9050   24.2940 C   0  0  0  0  0  0  0  0  0  0  0  0
    5.8150   -3.3330   25.4080 C   0  0  0  0  0  0  0  0  0  0  0  0
    4.6030   -3.0640   25.2860 O   0  0  0  0  0  0  0  0  0  0  0  0
    6.4530   -3.1090   26.6440 N   0  0  0  0  0  0  0  0  0  0  0  0
    6.6100   -4.2850   27.4800 C   0  0  0  0  0  0  0  0  0  0  0  0
    6.4300   -1.7680   27.2230 C   0  0  0  0  0  0  0  0  0  0  0  0
    6.9090   -1.6610   28.5140 C   0  0  0  0  0  0  0  0  0  0  0  0
    6.9320   -0.4420   29.1850 C   0  0  0  0  0  0  0  0  0  0  0  0
    6.4720    0.6990   28.5760 C   0  0  0  0  0  0  0  0  0  0  0  0
    6.4740    2.2530   29.3890 Cl  0  0  0  0  0  0  0  0  0  0  0  0
    5.9780    0.6190   27.2480 N   0  0  0  0  0  0  0  0  0  0  0  0
    5.9530   -0.6310   26.5420 C   0  0  0  0  0  0  0  0  0  0  0  0
    5.2880   -0.6970   24.7610 Br  0  0  0  0  0  0  0  0  0  0  0  0
    6.9400   -2.8150   23.3100 C   0  0  0  0  0  0  0  0  0  0  0  0
    7.6840   -3.3060   22.2690 C   0  0  0  0  0  0  0  0  0  0  0  0
  1  2  1  0
  2  3  2  0
  2  4  1  0
  4  5  1  0
  5  6  1  0
  6  7  1  0
  7  8  1  0
  8  9  2  0
  8 10  1  0
 10 11  1  0
 10 12  1  0
 12 13  2  0
 13 14  1  0
 14 15  2  0
 15 16  1  0
 15 17  1  0
 12 18  1  0
 17 18  2  0
 18 19  1  0
  7 20  1  0
  4 21  1  0
 20 21  1  0
M  END
