piperidine-amides-13618-covalent
     RDKit          3D

 30 32  0  0  0  0  0  0  0  0999 V2000
    6.9770   -3.2800   19.4110 C   0  0  0  0  0  0  0  0  0  0  0  0
    6.2330   -4.1460   20.3840 C   0  0  0  0  0  0  0  0  0  0  0  0
    5.2630   -4.7790   19.9480 O   0  0  0  0  0  0  0  0  0  0  0  0
    6.6190   -4.2910   21.7480 N   0  0  0  0  0  0  0  0  0  0  0  0
    6.5960   -5.6120   22.3280 C   0  0  0  0  0  0  0  0  0  0  0  0
    6.4200   -5.5560   23.8520 C   0  0  0  0  0  0  0  0  0  0  0  0
    6.1670   -4.1760   24.3400 C   0  0  0  0  0  0  0  0  0  0  0  0
    5.8580   -4.1520   25.8320 C   0  0  0  0  0  0  0  0  0  0  0  0
    5.4010   -3.0850   26.2620 O   0  0  0  0  0  0  0  0  0  0  0  0
    6.0770   -5.3440   26.6480 N   0  0  0  0  0  0  0  0  0  0  0  0
    6.0350   -5.6360   28.1000 C   0  0  0  0  0  0  0  0  0  0  0  0
    4.9140   -6.2830   28.6960 C   0  0  0  0  0  0  0  0  0  0  0  0
    3.7300   -6.0510   27.9610 C   0  0  0  0  0  0  0  0  0  0  0  0
    2.4900   -6.5370   28.2790 C   0  0  0  0  0  0  0  0  0  0  0  0
    2.2900   -7.3770   29.4680 C   0  0  0  0  0  0  0  0  0  0  0  0
    3.4170   -7.6460   30.2400 N   0  0  0  0  0  0  0  0  0  0  0  0
    4.7260   -7.1370   29.9010 C   0  0  0  0  0  0  0  0  0  0  0  0
    5.8710   -7.4410   30.7160 O   0  0  0  0  0  0  0  0  0  0  0  0
    5.6760   -7.8380   32.1300 C   0  0  0  0  0  0  0  0  0  0  0  0
    4.9580   -6.8870   32.7670 C   0  0  0  0  0  0  0  0  0  0  0  0
    4.5930   -6.9620   34.1800 C   0  0  0  0  0  0  0  0  0  0  0  0
    5.1120   -8.2320   34.8330 C   0  0  0  0  0  0  0  0  0  0  0  0
    5.8440   -9.3370   34.4230 C   0  0  0  0  0  0  0  0  0  0  0  0
    6.0800   -8.9820   32.9180 C   0  0  0  0  0  0  0  0  0  0  0  0
    6.7650   -9.9190   32.3080 O   0  0  0  0  0  0  0  0  0  0  0  0
    7.0740  -11.2630   32.8460 C   0  0  0  0  0  0  0  0  0  0  0  0
    7.9020  -12.2560   31.8590 C   0  0  0  0  0  0  0  0  0  0  0  0
    8.4400  -11.7590   30.4250 C   0  0  0  0  0  0  0  0  0  0  0  0
    7.2800   -3.2420   23.8550 C   0  0  0  0  0  0  0  0  0  0  0  0
    7.3040   -3.2130   22.4670 C   0  0  0  0  0  0  0  0  0  0  0  0
  1  2  1  0
  2  3  2  0
  2  4  1  0
  4  5  1  0
  5  6  1  0
  6  7  1  0
  7  8  1  0
  8  9  2  0
  8 10  1  0
 10 11  1  0
 11 12  1  0
 12 13  2  0
 13 14  1  0
 14 15  2  0
 15 16  1  0
 12 17  1  0
 16 17  2  0
 17 18  1  0
 18 19  1  0
 19 20  2  0
 20 21  1  0
 21 22  2  0
 22 23  1  0
 19 24  1  0
 23 24  2  0
 24 25  1  0
 25 26  1  0
 26 27  1  0
 27 28  1  0
  7 29  1  0
  4 30  1  0
 29 30  1  0
M  END
