piperidine-amides-29357-covalent
     RDKit          3D

 27 29  0  0  0  0  0  0  0  0999 V2000
    7.3900   -3.2780   19.1880 C   0  0  0  0  0  0  0  0  0  0  0  0
    6.5370   -3.9590   20.1740 C   0  0  0  0  0  0  0  0  0  0  0  0
    5.4020   -4.3500   19.8300 O   0  0  0  0  0  0  0  0  0  0  0  0
    7.0250   -4.2110   21.4740 N   0  0  0  0  0  0  0  0  0  0  0  0
    6.3280   -5.1790   22.2580 C   0  0  0  0  0  0  0  0  0  0  0  0
    5.4990   -4.4500   23.2800 C   0  0  0  0  0  0  0  0  0  0  0  0
    6.4410   -3.5250   24.0310 C   0  0  0  0  0  0  0  0  0  0  0  0
    5.7810   -2.9650   25.2480 C   0  0  0  0  0  0  0  0  0  0  0  0
    4.6430   -2.5200   25.1110 O   0  0  0  0  0  0  0  0  0  0  0  0
    6.5100   -2.9860   26.4300 N   0  0  0  0  0  0  0  0  0  0  0  0
    7.4340   -1.9450   26.7160 C   0  0  0  0  0  0  0  0  0  0  0  0
    6.7530   -4.2340   27.0550 C   0  0  1  0  0  0  0  0  0  0  0  0
    5.6730   -5.0090   27.4010 C   0  0  0  0  0  0  0  0  0  0  0  0
    4.6100   -5.1960   26.5280 C   0  0  0  0  0  0  0  0  0  0  0  0
    4.6260   -6.5690   25.9830 C   0  0  0  0  0  0  0  0  0  0  0  0
    3.5570   -7.0530   24.9770 C   0  0  0  0  0  0  0  0  0  0  0  0
    2.4790   -6.0970   24.5500 C   0  0  0  0  0  0  0  0  0  0  0  0
    2.5280   -4.7020   25.1570 C   0  0  0  0  0  0  0  0  0  0  0  0
    3.6350   -4.2950   26.1610 C   0  0  0  0  0  0  0  0  0  0  0  0
    7.6650   -4.9050   26.2720 C   0  0  0  0  0  0  0  0  0  0  0  0
    7.6680   -5.0170   24.8660 N   0  0  0  0  0  0  0  0  0  0  0  0
    8.8100   -5.8070   24.6290 C   0  0  0  0  0  0  0  0  0  0  0  0
    9.1360   -5.9170   26.0040 C   0  0  0  0  0  0  0  0  0  0  0  0
    8.6790   -5.5360   26.9150 N   0  0  0  0  0  0  0  0  0  0  0  0
    8.9850   -5.6470   28.1870 C   0  0  0  0  0  0  0  0  0  0  0  0
    6.9070   -2.4400   23.0840 C   0  0  0  0  0  0  0  0  0  0  0  0
    7.8100   -3.1600   22.0870 C   0  0  0  0  0  0  0  0  0  0  0  0
  1  2  1  0
  2  3  2  0
  2  4  1  0
  4  5  1  0
  5  6  1  0
  6  7  1  0
  7  8  1  0
  8  9  2  0
  8 10  1  0
 10 11  1  0
 10 12  1  0
 12 13  1  6
 13 14  1  0
 14 15  2  0
 15 16  1  0
 16 17  2  0
 17 18  1  0
 14 19  1  0
 18 19  2  0
 12 20  1  0
 20 21  2  0
 21 22  1  0
 22 23  2  0
 20 24  1  0
 23 24  1  0
 24 25  1  0
  7 26  1  0
  4 27  1  0
 26 27  1  0
M  END
