piperidine-amides-25968-covalent
     RDKit          3D

 23 24  0  0  0  0  0  0  0  0999 V2000
    7.0520   -3.3420   19.3690 C   0  0  0  0  0  0  0  0  0  0  0  0
    6.3750   -4.1830   20.3640 C   0  0  0  0  0  0  0  0  0  0  0  0
    5.3980   -4.8570   19.9920 O   0  0  0  0  0  0  0  0  0  0  0  0
    6.8230   -4.2810   21.6980 N   0  0  0  0  0  0  0  0  0  0  0  0
    6.6990   -5.5040   22.4700 C   0  0  0  0  0  0  0  0  0  0  0  0
    6.0660   -5.1130   23.7850 C   0  0  0  0  0  0  0  0  0  0  0  0
    5.9450   -3.6240   23.9060 C   0  0  0  0  0  0  0  0  0  0  0  0
    5.2510   -3.1220   25.1410 C   0  0  0  0  0  0  0  0  0  0  0  0
    4.1300   -2.5600   25.0240 O   0  0  0  0  0  0  0  0  0  0  0  0
    5.7170   -3.2260   26.4670 N   0  0  0  0  0  0  0  0  0  0  0  0
    5.4080   -2.2380   27.5140 C   0  0  0  0  0  0  0  0  0  0  0  0
    4.8800   -2.9320   28.7220 C   0  0  0  0  0  0  0  0  0  0  0  0
    5.3900   -4.2660   29.0430 C   0  0  0  0  0  0  0  0  0  0  0  0
    5.4450   -5.1520   27.8770 C   0  0  2  0  0  0  0  0  0  0  0  0
    6.5050   -6.3900   28.5040 S   0  0  0  0  0  0  0  0  0  0  0  0
    7.3750   -5.7970   29.4910 O   0  0  0  0  0  0  0  0  0  0  0  0
    7.3020   -6.8670   27.3430 O   0  0  0  0  0  0  0  0  0  0  0  0
    5.4580   -7.5350   29.1390 N   0  0  0  0  0  0  0  0  0  0  0  0
    5.4830   -7.4660   30.5920 C   0  0  0  0  0  0  0  0  0  0  0  0
    4.0810   -7.3710   28.7420 C   0  0  0  0  0  0  0  0  0  0  0  0
    6.2360   -4.4220   26.8870 C   0  0  0  0  0  0  0  0  0  0  0  0
    7.2780   -2.9640   23.6810 C   0  0  0  0  0  0  0  0  0  0  0  0
    7.6930   -3.2380   22.2480 C   0  0  0  0  0  0  0  0  0  0  0  0
  1  2  1  0
  2  3  2  0
  2  4  1  0
  4  5  1  0
  5  6  1  0
  6  7  1  0
  7  8  1  0
  8  9  2  0
  8 10  1  0
 10 11  1  0
 11 12  1  0
 12 13  1  0
 13 14  1  0
 14 15  1  1
 15 16  2  0
 15 17  2  0
 15 18  1  0
 18 19  1  0
 18 20  1  0
 10 21  1  0
 14 21  1  0
  7 22  1  0
  4 23  1  0
 22 23  1  0
M  END
