piperidine-amides-29748-covalent
     RDKit          3D

 27 29  0  0  0  0  0  0  0  0999 V2000
    7.1150   -3.2920   19.2170 C   0  0  0  0  0  0  0  0  0  0  0  0
    6.3650   -4.0480   20.2080 C   0  0  0  0  0  0  0  0  0  0  0  0
    5.3000   -4.5790   19.9010 O   0  0  0  0  0  0  0  0  0  0  0  0
    6.9060   -4.2290   21.5240 N   0  0  0  0  0  0  0  0  0  0  0  0
    7.6860   -3.1860   22.1330 C   0  0  0  0  0  0  0  0  0  0  0  0
    6.9020   -2.5850   23.2560 C   0  0  0  0  0  0  0  0  0  0  0  0
    6.5340   -3.7150   24.1960 C   0  0  0  0  0  0  0  0  0  0  0  0
    5.6680   -3.1840   25.2770 C   0  0  0  0  0  0  0  0  0  0  0  0
    4.5750   -2.6340   25.0540 O   0  0  0  0  0  0  0  0  0  0  0  0
    6.1330   -3.3500   26.5900 N   0  0  0  0  0  0  0  0  0  0  0  0
    6.5200   -2.1480   27.3090 C   0  0  0  0  0  0  0  0  0  0  0  0
    5.2810   -1.4370   27.8020 C   0  0  0  0  0  0  0  0  0  0  0  0
    4.3020   -2.0040   28.6550 N   0  0  0  0  0  0  0  0  0  0  0  0
    3.3550   -1.0830   28.8820 N   0  0  0  0  0  0  0  0  0  0  0  0
    3.7720    0.0330   28.1620 C   0  0  0  0  0  0  0  0  0  0  0  0
    3.0620    1.2140   28.1310 C   0  0  0  0  0  0  0  0  0  0  0  0
    3.6050    2.2340   27.3710 C   0  0  0  0  0  0  0  0  0  0  0  0
    4.8800    1.9690   26.6710 C   0  0  0  0  0  0  0  0  0  0  0  0
    5.5940    0.7710   26.7040 C   0  0  0  0  0  0  0  0  0  0  0  0
    4.8800   -0.1570   27.5340 N   0  0  0  0  0  0  0  0  0  0  0  0
    6.8170   -4.6000   26.8320 C   0  0  2  0  0  0  0  0  0  0  0  0
    6.2250   -5.7330   27.3550 C   0  0  0  0  0  0  0  0  0  0  0  0
    7.1360   -4.9900   28.2080 C   0  0  0  0  0  0  0  0  0  0  0  0
    8.0800   -5.9930   28.2110 C   0  0  0  0  0  0  0  0  0  0  0  0
    6.0100   -5.5800   28.9950 C   0  0  0  0  0  0  0  0  0  0  0  0
    5.7460   -4.8040   23.4980 C   0  0  0  0  0  0  0  0  0  0  0  0
    6.5530   -5.3670   22.3210 C   0  0  0  0  0  0  0  0  0  0  0  0
  1  2  1  0
  2  3  2  0
  2  4  1  0
  4  5  1  0
  5  6  1  0
  6  7  1  0
  7  8  1  0
  8  9  2  0
  8 10  1  0
 10 11  1  0
 11 12  1  0
 12 13  2  0
 13 14  1  0
 14 15  2  0
 15 16  1  0
 16 17  2  0
 17 18  1  0
 18 19  2  0
 12 20  1  0
 15 20  1  0
 19 20  1  0
 10 21  1  0
 21 22  1  1
 21 23  1  0
 23 24  1  0
 23 25  1  0
  7 26  1  0
  4 27  1  0
 26 27  1  0
M  END
