piperidine-amides-24877-covalent
     RDKit          3D

 24 25  0  0  0  0  0  0  0  0999 V2000
    7.0540   -3.3500   19.3730 C   0  0  0  0  0  0  0  0  0  0  0  0
    6.3570   -4.2010   20.3420 C   0  0  0  0  0  0  0  0  0  0  0  0
    5.3470   -4.8420   19.9800 O   0  0  0  0  0  0  0  0  0  0  0  0
    6.8300   -4.3540   21.6560 N   0  0  0  0  0  0  0  0  0  0  0  0
    6.6190   -5.6050   22.3320 C   0  0  0  0  0  0  0  0  0  0  0  0
    5.8800   -5.2490   23.6220 C   0  0  0  0  0  0  0  0  0  0  0  0
    6.7500   -4.2550   24.3640 C   0  0  0  0  0  0  0  0  0  0  0  0
    6.1080   -3.9010   25.6610 C   0  0  0  0  0  0  0  0  0  0  0  0
    5.2890   -2.9520   25.6620 O   0  0  0  0  0  0  0  0  0  0  0  0
    6.3970   -4.6410   26.8630 N   0  0  0  0  0  0  0  0  0  0  0  0
    5.6240   -4.4100   28.0590 C   0  0  0  0  0  0  0  0  0  0  0  0
    5.2890   -5.7530   28.7310 C   0  0  0  0  0  0  0  0  0  0  0  0
    6.4810   -6.6080   28.8800 N   0  0  0  0  0  0  0  0  0  0  0  0
    6.4300   -7.9830   29.6690 C   0  0  0  0  0  0  0  0  0  0  0  0
    5.5000   -8.1250   30.5000 O   0  0  0  0  0  0  0  0  0  0  0  0
    7.4280   -9.0560   29.4260 N   0  0  0  0  0  0  0  0  0  0  0  0
    7.6530  -10.3690   29.9310 C   0  0  0  0  0  0  0  0  0  0  0  0
    7.7710  -10.8620   31.2580 C   0  0  0  0  0  0  0  0  0  0  0  0
    8.8070  -10.8910   29.3980 C   0  0  0  0  0  0  0  0  0  0  0  0
    7.6770   -5.9760   28.5530 C   0  0  0  0  0  0  0  0  0  0  0  0
    7.7070   -5.0610   27.3210 C   0  0  1  0  0  0  0  0  0  0  0  0
    8.5170   -5.6150   26.1830 C   0  0  0  0  0  0  0  0  0  0  0  0
    6.9610   -3.0130   23.5150 C   0  0  0  0  0  0  0  0  0  0  0  0
    7.6330   -3.3470   22.3230 C   0  0  0  0  0  0  0  0  0  0  0  0
  1  2  1  0
  2  3  2  0
  2  4  1  0
  4  5  1  0
  5  6  1  0
  6  7  1  0
  7  8  1  0
  8  9  2  0
  8 10  1  0
 10 11  1  0
 11 12  1  0
 12 13  1  0
 13 14  1  0
 14 15  2  0
 14 16  1  0
 16 17  1  0
 17 18  1  0
 17 19  1  0
 13 20  1  0
 10 21  1  0
 20 21  1  0
 21 22  1  6
  7 23  1  0
  4 24  1  0
 23 24  1  0
M  END
