piperidine-amides-23585-covalent
     RDKit          3D

 24 25  0  0  0  0  0  0  0  0999 V2000
    7.0610   -3.3160   19.3380 C   0  0  0  0  0  0  0  0  0  0  0  0
    6.3740   -4.1340   20.3560 C   0  0  0  0  0  0  0  0  0  0  0  0
    5.3780   -4.7930   19.9680 O   0  0  0  0  0  0  0  0  0  0  0  0
    6.8300   -4.2170   21.7030 N   0  0  0  0  0  0  0  0  0  0  0  0
    7.6950   -3.2060   22.2060 C   0  0  0  0  0  0  0  0  0  0  0  0
    7.4580   -2.9720   23.6090 C   0  0  0  0  0  0  0  0  0  0  0  0
    6.2010   -3.6020   24.0340 C   0  0  0  0  0  0  0  0  0  0  0  0
    5.7900   -3.1910   25.4230 C   0  0  0  0  0  0  0  0  0  0  0  0
    4.5690   -3.0910   25.6670 O   0  0  0  0  0  0  0  0  0  0  0  0
    6.7100   -2.9080   26.4660 N   0  0  0  0  0  0  0  0  0  0  0  0
    7.1790   -3.8240   27.4250 C   0  0  0  0  0  0  0  0  0  0  0  0
    7.2350   -5.2310   27.1430 C   0  0  0  0  0  0  0  0  0  0  0  0
    7.6580   -6.3640   26.8140 O   0  0  0  0  0  0  0  0  0  0  0  0
    8.5090   -5.0150   26.8400 N   0  0  0  0  0  0  0  0  0  0  0  0
    9.2780   -5.7370   25.8840 C   0  0  0  0  0  0  0  0  0  0  0  0
    8.7730   -5.5350   28.1340 C   0  0  0  0  0  0  0  0  0  0  0  0
    6.5720   -1.6120   27.1290 C   0  0  0  0  0  0  0  0  0  0  0  0
    7.2310   -1.6310   28.4840 C   0  0  0  0  0  0  0  0  0  0  0  0
    7.0280   -0.2480   29.1250 C   0  0  0  0  0  0  0  0  0  0  0  0
    6.3290    0.9790   28.5990 C   0  0  0  0  0  0  0  0  0  0  0  0
    5.7120    0.8880   27.2290 C   0  0  0  0  0  0  0  0  0  0  0  0
    5.8510   -0.4440   26.5060 C   0  0  0  0  0  0  0  0  0  0  0  0
    6.2210   -5.0950   23.8230 C   0  0  0  0  0  0  0  0  0  0  0  0
    6.6250   -5.4150   22.5000 C   0  0  0  0  0  0  0  0  0  0  0  0
  1  2  1  0
  2  3  2  0
  2  4  1  0
  4  5  1  0
  5  6  1  0
  6  7  1  0
  7  8  1  0
  8  9  2  0
  8 10  1  0
 10 11  1  0
 11 12  1  0
 12 13  2  0
 12 14  1  0
 14 15  1  0
 14 16  1  0
 10 17  1  0
 17 18  2  0
 18 19  1  0
 19 20  2  0
 20 21  1  0
 17 22  1  0
 21 22  2  0
  7 23  1  0
  4 24  1  0
 23 24  1  0
M  END
