piperidine-amides-27580-covalent
     RDKit          3D

 26 29  0  0  0  0  0  0  0  0999 V2000
    7.1060   -3.3100   19.2240 C   0  0  0  0  0  0  0  0  0  0  0  0
    6.3990   -4.1060   20.2250 C   0  0  0  0  0  0  0  0  0  0  0  0
    5.2880   -4.5900   19.8920 O   0  0  0  0  0  0  0  0  0  0  0  0
    6.9950   -4.3530   21.4570 N   0  0  0  0  0  0  0  0  0  0  0  0
    6.7300   -5.5770   22.1610 C   0  0  0  0  0  0  0  0  0  0  0  0
    6.0070   -5.2010   23.4130 C   0  0  0  0  0  0  0  0  0  0  0  0
    6.6570   -4.0220   24.0750 C   0  0  0  0  0  0  0  0  0  0  0  0
    5.7230   -3.4850   25.0590 C   0  0  0  0  0  0  0  0  0  0  0  0
    4.7170   -2.8740   24.6490 O   0  0  0  0  0  0  0  0  0  0  0  0
    5.8720   -3.6170   26.4220 N   0  0  0  0  0  0  0  0  0  0  0  0
    4.6350   -3.8410   27.1460 C   0  0  0  0  0  0  0  0  0  0  0  0
    4.8440   -4.5100   28.4800 C   0  0  0  0  0  0  0  0  0  0  0  0
    5.6450   -3.8870   29.3300 C   0  0  0  0  0  0  0  0  0  0  0  0
    5.0840   -2.8280   30.0370 C   0  0  0  0  0  0  0  0  0  0  0  0
    5.7480   -1.6650   29.9200 N   0  0  0  0  0  0  0  0  0  0  0  0
    5.0360   -0.8100   30.6720 N   0  0  0  0  0  0  0  0  0  0  0  0
    3.9400   -1.5480   31.2160 C   0  0  0  0  0  0  0  0  0  0  0  0
    2.9630   -1.0400   32.0500 N   0  0  0  0  0  0  0  0  0  0  0  0
    1.8590   -1.8770   32.5720 C   0  0  0  0  0  0  0  0  0  0  0  0
    2.0130   -3.1570   32.0790 C   0  0  0  0  0  0  0  0  0  0  0  0
    3.0820   -3.6740   31.1770 C   0  0  0  0  0  0  0  0  0  0  0  0
    3.9980   -2.8090   30.7980 N   0  0  0  0  0  0  0  0  0  0  0  0
    6.7200   -3.5510   28.6470 C   0  0  0  0  0  0  0  0  0  0  0  0
    6.3550   -2.7350   27.4370 C   0  0  0  0  0  0  0  0  0  0  0  0
    6.9700   -2.9020   23.1370 C   0  0  0  0  0  0  0  0  0  0  0  0
    7.7970   -3.3410   22.1470 C   0  0  0  0  0  0  0  0  0  0  0  0
  1  2  1  0
  2  3  2  0
  2  4  1  0
  4  5  1  0
  5  6  1  0
  6  7  1  0
  7  8  1  0
  8  9  2  0
  8 10  1  0
 10 11  1  0
 11 12  1  0
 12 13  1  0
 13 14  1  0
 14 15  2  0
 15 16  1  0
 16 17  2  0
 17 18  1  0
 18 19  2  0
 19 20  1  0
 20 21  2  0
 14 22  1  0
 17 22  1  0
 21 22  1  0
 13 23  1  0
 10 24  1  0
 23 24  1  0
  7 25  1  0
  4 26  1  0
 25 26  1  0
M  END
