piperidine-amides-31825-covalent
     RDKit          3D

 28 30  0  0  0  0  0  0  0  0999 V2000
    7.1180   -3.3580   19.3140 C   0  0  0  0  0  0  0  0  0  0  0  0
    6.3960   -4.0590   20.3490 C   0  0  0  0  0  0  0  0  0  0  0  0
    5.3850   -4.7400   19.9770 O   0  0  0  0  0  0  0  0  0  0  0  0
    6.7950   -4.0670   21.7080 N   0  0  0  0  0  0  0  0  0  0  0  0
    7.7790   -3.0070   22.1160 C   0  0  0  0  0  0  0  0  0  0  0  0
    7.6550   -2.9480   23.6910 C   0  0  0  0  0  0  0  0  0  0  0  0
    6.3060   -3.5300   23.9400 C   0  0  0  0  0  0  0  0  0  0  0  0
    5.4770   -2.8710   25.1410 C   0  0  0  0  0  0  0  0  0  0  0  0
    4.5470   -2.2560   24.6430 O   0  0  0  0  0  0  0  0  0  0  0  0
    5.9270   -3.1220   26.3160 N   0  0  0  0  0  0  0  0  0  0  0  0
    6.1650   -3.8170   27.4790 C   0  0  0  0  0  0  0  0  0  0  0  0
    6.1290   -5.1250   27.9210 C   0  0  0  0  0  0  0  0  0  0  0  0
    4.8250   -5.6970   27.8390 C   0  0  0  0  0  0  0  0  0  0  0  0
    4.5810   -6.4050   26.7320 N   0  0  0  0  0  0  0  0  0  0  0  0
    5.3380   -6.4010   25.5960 C   0  0  0  0  0  0  0  0  0  0  0  0
    4.7270   -7.3260   24.5840 C   0  0  0  0  0  0  0  0  0  0  0  0
    3.6310   -7.8780   25.0900 N   0  0  0  0  0  0  0  0  0  0  0  0
    3.5450   -7.3440   26.3380 C   0  0  0  0  0  0  0  0  0  0  0  0
    6.1990   -1.8730   27.0450 C   0  0  0  0  0  0  0  0  0  0  0  0
    5.7920   -0.6080   26.2710 C   0  0  0  0  0  0  0  0  0  0  0  0
    6.0640    0.7130   27.0580 C   0  0  0  0  0  0  0  0  0  0  0  0
    5.7450    1.9520   26.4920 F   0  0  0  0  0  0  0  0  0  0  0  0
    6.6190    0.6290   28.3020 C   0  0  0  0  0  0  0  0  0  0  0  0
    6.9470   -0.5530   28.8950 C   0  0  0  0  0  0  0  0  0  0  0  0
    6.7430   -1.7620   28.2930 C   0  0  0  0  0  0  0  0  0  0  0  0
    7.1300   -2.8010   29.0750 F   0  0  0  0  0  0  0  0  0  0  0  0
    6.1870   -4.9930   23.7130 C   0  0  0  0  0  0  0  0  0  0  0  0
    6.7160   -5.2920   22.4600 C   0  0  0  0  0  0  0  0  0  0  0  0
  1  2  1  0
  2  3  2  0
  2  4  1  0
  4  5  1  0
  5  6  1  0
  6  7  1  0
  7  8  1  0
  8  9  2  0
  8 10  1  0
 10 11  1  0
 11 12  1  0
 12 13  1  0
 13 14  1  0
 14 15  1  0
 15 16  2  0
 16 17  1  0
 14 18  1  0
 17 18  2  0
 10 19  1  0
 19 20  2  0
 20 21  1  0
 21 22  1  0
 21 23  2  0
 23 24  1  0
 19 25  1  0
 24 25  2  0
 25 26  1  0
  7 27  1  0
  4 28  1  0
 27 28  1  0
M  END
