piperidine-amides-25550-covalent
     RDKit          3D

 25 27  0  0  0  0  0  0  0  0999 V2000
    7.0390   -3.3470   19.3070 C   0  0  0  0  0  0  0  0  0  0  0  0
    6.3800   -4.2150   20.3190 C   0  0  0  0  0  0  0  0  0  0  0  0
    5.3600   -4.8040   19.9670 O   0  0  0  0  0  0  0  0  0  0  0  0
    6.9360   -4.3840   21.5900 N   0  0  0  0  0  0  0  0  0  0  0  0
    6.6550   -5.5450   22.3860 C   0  0  0  0  0  0  0  0  0  0  0  0
    5.8970   -5.1190   23.6130 C   0  0  0  0  0  0  0  0  0  0  0  0
    6.5740   -3.9020   24.2580 C   0  0  0  0  0  0  0  0  0  0  0  0
    5.6590   -3.3320   25.2790 C   0  0  0  0  0  0  0  0  0  0  0  0
    4.8460   -2.4750   24.9180 O   0  0  0  0  0  0  0  0  0  0  0  0
    5.6450   -3.7210   26.6370 N   0  0  0  0  0  0  0  0  0  0  0  0
    4.4810   -3.3730   27.3710 C   0  0  0  0  0  0  0  0  0  0  0  0
    4.0360   -4.6340   28.0550 C   0  0  0  0  0  0  0  0  0  0  0  0
    4.5180   -5.0300   29.2490 C   0  0  0  0  0  0  0  0  0  0  0  0
    5.8370   -5.2780   29.4770 N   0  0  0  0  0  0  0  0  0  0  0  0
    6.1670   -6.6600   29.7290 C   0  0  0  0  0  0  0  0  0  0  0  0
    6.7460   -4.6490   28.5890 C   0  0  0  0  0  0  0  0  0  0  0  0
    6.3990   -3.3680   27.7990 C   0  0  2  0  0  0  0  0  0  0  0  0
    5.7630   -2.5280   28.8900 C   0  0  0  0  0  0  0  0  0  0  0  0
    6.9060   -1.6340   29.3610 C   0  0  0  0  0  0  0  0  0  0  0  0
    6.5870   -0.6610   30.4580 C   0  0  0  0  0  0  0  0  0  0  0  0
    5.2150   -0.6110   31.0170 C   0  0  0  0  0  0  0  0  0  0  0  0
    4.1500   -1.5250   30.4940 C   0  0  0  0  0  0  0  0  0  0  0  0
    4.4590   -2.4910   29.4090 C   0  0  0  0  0  0  0  0  0  0  0  0
    6.8620   -2.8120   23.2390 C   0  0  0  0  0  0  0  0  0  0  0  0
    7.6690   -3.3120   22.2470 C   0  0  0  0  0  0  0  0  0  0  0  0
  1  2  1  0
  2  3  2  0
  2  4  1  0
  4  5  1  0
  5  6  1  0
  6  7  1  0
  7  8  1  0
  8  9  2  0
  8 10  1  0
 10 11  1  0
 11 12  1  0
 12 13  1  0
 13 14  1  0
 14 15  1  0
 14 16  1  0
 10 17  1  0
 16 17  1  0
 17 18  1  1
 18 19  2  0
 19 20  1  0
 20 21  2  0
 21 22  1  0
 18 23  1  0
 22 23  2  0
  7 24  1  0
  4 25  1  0
 24 25  1  0
M  END
