piperidine-amides-19106-covalent
     RDKit          3D

 20 21  0  0  0  0  0  0  0  0999 V2000
    7.0750   -3.4060   19.2860 C   0  0  0  0  0  0  0  0  0  0  0  0
    6.4180   -4.1800   20.3140 C   0  0  0  0  0  0  0  0  0  0  0  0
    5.3720   -4.8190   19.9810 O   0  0  0  0  0  0  0  0  0  0  0  0
    6.9190   -4.2990   21.6260 N   0  0  0  0  0  0  0  0  0  0  0  0
    6.6440   -5.5290   22.3900 C   0  0  0  0  0  0  0  0  0  0  0  0
    5.7900   -4.9060   23.5630 C   0  0  0  0  0  0  0  0  0  0  0  0
    6.6500   -3.8500   24.2540 C   0  0  0  0  0  0  0  0  0  0  0  0
    5.8750   -3.1780   25.4680 C   0  0  0  0  0  0  0  0  0  0  0  0
    5.1200   -2.3450   24.9810 O   0  0  0  0  0  0  0  0  0  0  0  0
    6.1540   -3.6040   26.6530 N   0  0  0  0  0  0  0  0  0  0  0  0
    5.8110   -3.8510   27.9490 C   0  0  0  0  0  0  0  0  0  0  0  0
    5.6130   -4.9770   28.6390 C   0  0  0  0  0  0  0  0  0  0  0  0
    6.9590   -5.9160   28.5730 S   0  0  0  0  0  0  0  0  0  0  0  0
    8.1200   -5.0950   27.6050 C   0  0  0  0  0  0  0  0  0  0  0  0
    7.6680   -3.7740   26.9720 C   0  0  1  0  0  0  0  0  0  0  0  0
    8.4130   -4.2040   25.6880 C   0  0  0  0  0  0  0  0  0  0  0  0
    7.8020   -5.4690   25.6590 C   0  0  0  0  0  0  0  0  0  0  0  0
    6.6120   -5.5620   26.0430 O   0  0  0  0  0  0  0  0  0  0  0  0
    7.0830   -2.7180   23.3360 C   0  0  0  0  0  0  0  0  0  0  0  0
    7.8430   -3.3280   22.1810 C   0  0  0  0  0  0  0  0  0  0  0  0
  1  2  1  0
  2  3  2  0
  2  4  1  0
  4  5  1  0
  5  6  1  0
  6  7  1  0
  7  8  1  0
  8  9  2  0
  8 10  1  0
 10 11  1  0
 11 12  1  0
 12 13  1  0
 13 14  1  0
 10 15  1  0
 14 15  1  0
 15 16  1  6
 16 17  1  0
 17 18  1  0
  7 19  1  0
  4 20  1  0
 19 20  1  0
M  END
