piperidine-amides-17253-covalent
     RDKit          3D

 20 21  0  0  0  0  0  0  0  0999 V2000
    7.1090   -3.3460   19.2700 C   0  0  0  0  0  0  0  0  0  0  0  0
    6.4330   -4.1850   20.2710 C   0  0  0  0  0  0  0  0  0  0  0  0
    5.3440   -4.7090   19.9420 O   0  0  0  0  0  0  0  0  0  0  0  0
    7.0340   -4.4390   21.5260 N   0  0  0  0  0  0  0  0  0  0  0  0
    6.5090   -5.4790   22.3250 C   0  0  0  0  0  0  0  0  0  0  0  0
    6.2250   -5.0410   23.6870 C   0  0  0  0  0  0  0  0  0  0  0  0
    5.9930   -3.5840   23.8530 C   0  0  0  0  0  0  0  0  0  0  0  0
    5.7920   -3.1650   25.2750 C   0  0  0  0  0  0  0  0  0  0  0  0
    5.1320   -2.1310   25.4770 O   0  0  0  0  0  0  0  0  0  0  0  0
    6.2250   -3.8630   26.4170 N   0  0  0  0  0  0  0  0  0  0  0  0
    5.3740   -4.0000   27.5230 C   0  0  0  0  0  0  0  0  0  0  0  0
    5.7540   -4.9250   28.5490 C   0  0  0  0  0  0  0  0  0  0  0  0
    7.2640   -4.7360   28.6490 C   0  0  0  0  0  0  0  0  0  0  0  0
    7.9950   -5.1770   27.5810 C   0  0  0  0  0  0  0  0  0  0  0  0
    7.6630   -3.8840   26.8050 C   0  0  1  0  0  0  0  0  0  0  0  0
    8.5740   -4.2810   25.6710 C   0  0  1  0  0  0  0  0  0  0  0  0
    7.9900   -5.6810   25.6280 C   0  0  0  0  0  0  0  0  0  0  0  0
    8.3080   -3.5810   24.5120 O   0  0  0  0  0  0  0  0  0  0  0  0
    6.9400   -2.6350   23.1350 C   0  0  0  0  0  0  0  0  0  0  0  0
    7.8150   -3.4160   22.1790 C   0  0  0  0  0  0  0  0  0  0  0  0
  1  2  1  0
  2  3  2  0
  2  4  1  0
  4  5  1  0
  5  6  1  0
  6  7  1  0
  7  8  1  0
  8  9  2  0
  8 10  1  0
 10 11  1  0
 11 12  1  0
 12 13  1  0
 13 14  1  0
 10 15  1  0
 15 14  1  1
 15 16  1  0
 16 17  1  6
 16 18  1  0
  7 19  1  0
  4 20  1  0
 19 20  1  0
M  END
