piperidine-amides-28805-covalent
     RDKit          3D

 26 28  0  0  0  0  0  0  0  0999 V2000
    6.9970   -3.3900   19.4690 C   0  0  0  0  0  0  0  0  0  0  0  0
    6.3310   -4.2540   20.4490 C   0  0  0  0  0  0  0  0  0  0  0  0
    5.4310   -4.9990   20.0160 O   0  0  0  0  0  0  0  0  0  0  0  0
    6.7250   -4.2470   21.8230 N   0  0  0  0  0  0  0  0  0  0  0  0
    6.5790   -5.4740   22.5760 C   0  0  0  0  0  0  0  0  0  0  0  0
    6.2050   -5.2340   24.0330 C   0  0  0  0  0  0  0  0  0  0  0  0
    6.2190   -3.7470   24.3290 C   0  0  0  0  0  0  0  0  0  0  0  0
    5.9440   -3.3540   25.7930 C   0  0  0  0  0  0  0  0  0  0  0  0
    5.8010   -2.1510   25.9530 O   0  0  0  0  0  0  0  0  0  0  0  0
    5.8050   -4.2920   26.8590 N   0  0  0  0  0  0  0  0  0  0  0  0
    4.6000   -4.8610   27.2050 C   0  0  0  0  0  0  0  0  0  0  0  0
    4.7750   -6.2120   27.5570 C   0  0  0  0  0  0  0  0  0  0  0  0
    5.4660   -6.4820   28.8660 N   0  0  0  0  0  0  0  0  0  0  0  0
    5.3210   -7.7810   29.5290 C   0  0  0  0  0  0  0  0  0  0  0  0
    6.2180   -8.3170   30.4900 C   0  0  0  0  0  0  0  0  0  0  0  0
    7.1020   -9.4370   30.0470 N   0  0  0  0  0  0  0  0  0  0  0  0
    7.8700  -10.4800   30.8450 C   0  0  0  0  0  0  0  0  0  0  0  0
    7.6160  -10.6190   32.1890 O   0  0  0  0  0  0  0  0  0  0  0  0
    8.8680  -11.5540   30.2250 C   0  0  0  0  0  0  0  0  0  0  0  0
    9.4560  -12.5100   31.2800 C   0  0  0  0  0  0  0  0  0  0  0  0
   10.7420  -12.4240   30.5150 C   0  0  0  0  0  0  0  0  0  0  0  0
   10.0800  -11.3980   29.6150 C   0  0  0  0  0  0  0  0  0  0  0  0
    6.6190   -5.6590   28.4520 C   0  0  0  0  0  0  0  0  0  0  0  0
    6.4760   -4.3000   28.1040 C   0  0  0  0  0  0  0  0  0  0  0  0
    7.4830   -3.1170   23.8350 C   0  0  0  0  0  0  0  0  0  0  0  0
    7.5850   -3.2090   22.3380 C   0  0  0  0  0  0  0  0  0  0  0  0
  1  2  1  0
  2  3  2  0
  2  4  1  0
  4  5  1  0
  5  6  1  0
  6  7  1  0
  7  8  1  0
  8  9  2  0
  8 10  1  0
 10 11  1  0
 11 12  1  0
 12 13  1  0
 13 14  1  0
 14 15  1  0
 15 16  1  0
 16 17  1  0
 17 18  2  0
 17 19  1  0
 19 20  1  0
 20 21  1  0
 19 22  1  0
 21 22  1  0
 13 23  1  0
 10 24  1  0
 23 24  1  0
  7 25  1  0
  4 26  1  0
 25 26  1  0
M  END
