piperidine-amides-24452-covalent
     RDKit          3D

 24 26  0  0  0  0  0  0  0  0999 V2000
    7.0380   -3.3570   19.3780 C   0  0  0  0  0  0  0  0  0  0  0  0
    6.4070   -4.2490   20.3640 C   0  0  0  0  0  0  0  0  0  0  0  0
    5.4090   -4.9200   20.0070 O   0  0  0  0  0  0  0  0  0  0  0  0
    6.9270   -4.4030   21.6700 N   0  0  0  0  0  0  0  0  0  0  0  0
    6.5620   -5.5660   22.4200 C   0  0  0  0  0  0  0  0  0  0  0  0
    5.5700   -5.0600   23.4750 C   0  0  0  0  0  0  0  0  0  0  0  0
    6.2160   -3.9430   24.2940 C   0  0  0  0  0  0  0  0  0  0  0  0
    5.1390   -3.3550   25.1540 C   0  0  0  0  0  0  0  0  0  0  0  0
    4.0600   -3.1200   24.5940 O   0  0  0  0  0  0  0  0  0  0  0  0
    5.2890   -3.0590   26.5430 N   0  0  0  0  0  0  0  0  0  0  0  0
    6.5500   -3.1540   27.1410 C   0  0  0  0  0  0  0  0  0  0  0  0
    6.4410   -4.3310   28.0740 C   0  0  0  0  0  0  0  0  0  0  0  0
    5.1860   -4.3290   28.4520 C   0  0  0  0  0  0  0  0  0  0  0  0
    4.5680   -3.2860   27.8130 C   0  0  1  0  0  0  0  0  0  0  0  0
    4.5690   -2.0110   28.3820 C   0  0  0  0  0  0  0  0  0  0  0  0
    5.3050   -1.7000   29.4530 C   0  0  0  0  0  0  0  0  0  0  0  0
    5.4160   -0.3910   30.1860 C   0  0  0  0  0  0  0  0  0  0  0  0
    6.1320   -0.0010   31.2740 F   0  0  0  0  0  0  0  0  0  0  0  0
    4.4210    0.3800   29.2740 C   0  0  0  0  0  0  0  0  0  0  0  0
    3.4920    0.2720   28.0490 C   0  0  0  0  0  0  0  0  0  0  0  0
    2.6910    1.1630   27.4380 F   0  0  0  0  0  0  0  0  0  0  0  0
    3.7650   -1.1280   27.7640 C   0  0  0  0  0  0  0  0  0  0  0  0
    6.7730   -2.8500   23.4040 C   0  0  0  0  0  0  0  0  0  0  0  0
    7.5310   -3.3050   22.3500 C   0  0  0  0  0  0  0  0  0  0  0  0
  1  2  1  0
  2  3  2  0
  2  4  1  0
  4  5  1  0
  5  6  1  0
  6  7  1  0
  7  8  1  0
  8  9  2  0
  8 10  1  0
 10 11  1  0
 11 12  1  0
 12 13  1  0
 10 14  1  0
 13 14  1  0
 14 15  1  1
 15 16  2  0
 16 17  1  0
 17 18  1  0
 17 19  2  0
 19 20  1  0
 20 21  1  0
 15 22  1  0
 20 22  2  0
  7 23  1  0
  4 24  1  0
 23 24  1  0
M  END
