piperidine-amides-13641-covalent
     RDKit          3D

 29 31  0  0  0  0  0  0  0  0999 V2000
    7.1190   -3.3430   19.3120 C   0  0  0  0  0  0  0  0  0  0  0  0
    6.3770   -4.1730   20.2950 C   0  0  0  0  0  0  0  0  0  0  0  0
    5.3190   -4.7180   19.9440 O   0  0  0  0  0  0  0  0  0  0  0  0
    6.9270   -4.3700   21.5790 N   0  0  0  0  0  0  0  0  0  0  0  0
    6.5400   -5.4930   22.3870 C   0  0  0  0  0  0  0  0  0  0  0  0
    5.6660   -4.9170   23.5060 C   0  0  0  0  0  0  0  0  0  0  0  0
    6.4660   -3.8720   24.2180 C   0  0  0  0  0  0  0  0  0  0  0  0
    5.7580   -3.3150   25.3920 C   0  0  0  0  0  0  0  0  0  0  0  0
    4.5260   -3.2590   25.3090 O   0  0  0  0  0  0  0  0  0  0  0  0
    6.4640   -2.8810   26.5190 N   0  0  0  0  0  0  0  0  0  0  0  0
    6.3840   -1.6020   27.1310 C   0  0  0  0  0  0  0  0  0  0  0  0
    5.8660   -0.4080   26.6890 C   0  0  0  0  0  0  0  0  0  0  0  0
    5.8810    0.7690   27.4530 C   0  0  0  0  0  0  0  0  0  0  0  0
    6.4250    0.8100   28.7180 C   0  0  0  0  0  0  0  0  0  0  0  0
    6.4370    2.0650   29.5170 C   0  0  0  0  0  0  0  0  0  0  0  0
    6.5570    3.2130   28.8470 O   0  0  0  0  0  0  0  0  0  0  0  0
    6.3160    1.8150   30.8980 N   0  0  0  0  0  0  0  0  0  0  0  0
    5.1250    2.2570   31.5740 C   0  0  0  0  0  0  0  0  0  0  0  0
    3.9630    2.8280   30.7860 C   0  0  0  0  0  0  0  0  0  0  0  0
    2.8290    3.2470   31.4420 C   0  0  0  0  0  0  0  0  0  0  0  0
    2.5560    3.2340   32.7630 N   0  0  0  0  0  0  0  0  0  0  0  0
    3.6560    2.6890   33.5630 C   0  0  0  0  0  0  0  0  0  0  0  0
    3.3510    2.6770   35.0510 C   0  0  0  0  0  0  0  0  0  0  0  0
    4.9740    2.1800   33.0290 C   0  0  0  0  0  0  0  0  0  0  0  0
    6.9570   -0.3200   29.2380 C   0  0  0  0  0  0  0  0  0  0  0  0
    7.4960   -0.3270   30.4740 F   0  0  0  0  0  0  0  0  0  0  0  0
    6.9950   -1.6420   28.5060 C   0  0  0  0  0  0  0  0  0  0  0  0
    6.8290   -2.7180   23.3140 C   0  0  0  0  0  0  0  0  0  0  0  0
    7.6590   -3.2770   22.2210 C   0  0  0  0  0  0  0  0  0  0  0  0
  1  2  1  0
  2  3  2  0
  2  4  1  0
  4  5  1  0
  5  6  1  0
  6  7  1  0
  7  8  1  0
  8  9  2  0
  8 10  1  0
 10 11  1  0
 11 12  2  0
 12 13  1  0
 13 14  2  0
 14 15  1  0
 15 16  2  0
 15 17  1  0
 17 18  1  0
 18 19  2  0
 19 20  1  0
 20 21  2  0
 21 22  1  0
 22 23  1  0
 18 24  1  0
 22 24  2  0
 14 25  1  0
 25 26  1  0
 11 27  1  0
 25 27  2  0
  7 28  1  0
  4 29  1  0
 28 29  1  0
M  END
