piperidine-amides-1833-covalent
     RDKit          3D

 18 19  0  0  0  0  0  0  0  0999 V2000
    7.0600   -3.3380   19.3020 C   0  0  0  0  0  0  0  0  0  0  0  0
    6.3790   -4.1770   20.3170 C   0  0  0  0  0  0  0  0  0  0  0  0
    5.3570   -4.7620   19.9620 O   0  0  0  0  0  0  0  0  0  0  0  0
    6.9330   -4.3130   21.5940 N   0  0  0  0  0  0  0  0  0  0  0  0
    7.7100   -3.2580   22.1890 C   0  0  0  0  0  0  0  0  0  0  0  0
    6.9640   -2.7170   23.3650 C   0  0  0  0  0  0  0  0  0  0  0  0
    6.6960   -3.8440   24.3610 C   0  0  0  0  0  0  0  0  0  0  0  0
    5.9110   -3.2690   25.4650 C   0  0  0  0  0  0  0  0  0  0  0  0
    4.7130   -2.9930   25.2920 O   0  0  0  0  0  0  0  0  0  0  0  0
    6.5230   -3.0420   26.7040 N   0  0  0  0  0  0  0  0  0  0  0  0
    6.4850   -1.7240   27.3050 C   0  0  0  0  0  0  0  0  0  0  0  0
    5.8080   -0.6250   26.5630 C   0  0  0  0  0  0  0  0  0  0  0  0
    5.7260    0.5810   27.0450 C   0  0  0  0  0  0  0  0  0  0  0  0
    6.6380    0.1230   28.5950 S   0  0  0  0  0  0  0  0  0  0  0  0
    7.1710   -1.6640   28.6750 C   0  0  0  0  0  0  0  0  0  0  0  0
    7.5370   -0.9380   29.7720 C   0  0  0  0  0  0  0  0  0  0  0  0
    5.9050   -4.9710   23.7030 C   0  0  0  0  0  0  0  0  0  0  0  0
    6.5310   -5.3960   22.4160 C   0  0  0  0  0  0  0  0  0  0  0  0
  1  2  1  0
  2  3  2  0
  2  4  1  0
  4  5  1  0
  5  6  1  0
  6  7  1  0
  7  8  1  0
  8  9  2  0
  8 10  1  0
 10 11  1  0
 11 12  1  0
 12 13  2  0
 13 14  1  0
 11 15  2  0
 14 15  1  0
 15 16  1  0
  7 17  1  0
  4 18  1  0
 17 18  1  0
M  END
