piperidine-amides-34998-covalent
     RDKit          3D

 30 31  0  0  0  0  0  0  0  0999 V2000
    7.0870   -3.2610   19.2430 C   0  0  0  0  0  0  0  0  0  0  0  0
    6.3380   -4.0490   20.2650 C   0  0  0  0  0  0  0  0  0  0  0  0
    5.2980   -4.5910   19.8950 O   0  0  0  0  0  0  0  0  0  0  0  0
    6.8300   -4.1860   21.5650 N   0  0  0  0  0  0  0  0  0  0  0  0
    6.6300   -5.3970   22.3220 C   0  0  0  0  0  0  0  0  0  0  0  0
    5.9640   -5.0660   23.6280 C   0  0  0  0  0  0  0  0  0  0  0  0
    6.1530   -3.5740   23.9200 C   0  0  0  0  0  0  0  0  0  0  0  0
    5.9760   -3.3130   25.3650 C   0  0  0  0  0  0  0  0  0  0  0  0
    4.8320   -3.0970   25.7990 O   0  0  0  0  0  0  0  0  0  0  0  0
    7.0810   -3.3080   26.2520 N   0  0  0  0  0  0  0  0  0  0  0  0
    7.2380   -2.1620   27.1360 C   0  0  0  0  0  0  0  0  0  0  0  0
    8.1020   -1.1210   26.4380 C   0  0  0  0  0  0  0  0  0  0  0  0
    9.4490   -1.1290   26.7120 O   0  0  0  0  0  0  0  0  0  0  0  0
    7.3680   -0.2060   25.5480 N   0  0  0  0  0  0  0  0  0  0  0  0
    8.3690    0.6780   24.9380 C   0  0  0  0  0  0  0  0  0  0  0  0
    9.3970   -0.0780   24.5650 C   0  0  0  0  0  0  0  0  0  0  0  0
   10.4250    0.5060   23.9820 C   0  0  0  0  0  0  0  0  0  0  0  0
   10.5790    1.9570   23.6810 C   0  0  0  0  0  0  0  0  0  0  0  0
   11.9240    2.7420   22.9080 Cl  0  0  0  0  0  0  0  0  0  0  0  0
    9.3490    2.7300   24.1490 C   0  0  0  0  0  0  0  0  0  0  0  0
    8.0850    2.1600   24.8420 C   0  0  0  0  0  0  0  0  0  0  0  0
    7.0200    3.1510   25.1920 C   0  0  0  0  0  0  0  0  0  0  0  0
    7.3840    4.4140   25.5760 F   0  0  0  0  0  0  0  0  0  0  0  0
    6.2220    3.2790   24.0700 F   0  0  0  0  0  0  0  0  0  0  0  0
    6.3210    2.6790   26.2690 F   0  0  0  0  0  0  0  0  0  0  0  0
    7.5730   -4.5320   26.9280 C   0  0  0  0  0  0  0  0  0  0  0  0
    6.4950   -5.5740   27.1460 C   0  0  0  0  0  0  0  0  0  0  0  0
    8.2300   -4.5400   28.2970 C   0  0  0  0  0  0  0  0  0  0  0  0
    7.5370   -3.1080   23.5000 C   0  0  0  0  0  0  0  0  0  0  0  0
    7.7100   -3.1680   22.1390 C   0  0  0  0  0  0  0  0  0  0  0  0
  1  2  1  0
  2  3  2  0
  2  4  1  0
  4  5  1  0
  5  6  1  0
  6  7  1  0
  7  8  1  0
  8  9  2  0
  8 10  1  0
 10 11  1  0
 11 12  1  0
 12 13  2  0
 12 14  1  0
 14 15  1  0
 15 16  2  0
 16 17  1  0
 17 18  2  0
 18 19  1  0
 18 20  1  0
 15 21  1  0
 20 21  2  0
 21 22  1  0
 22 23  1  0
 22 24  1  0
 22 25  1  0
 10 26  1  0
 26 27  1  0
 26 28  1  0
  7 29  1  0
  4 30  1  0
 29 30  1  0
M  END
