piperidine-amides-3045-covalent
     RDKit          3D

 23 25  0  0  0  0  0  0  0  0999 V2000
    7.0030   -3.3500   19.3500 C   0  0  0  0  0  0  0  0  0  0  0  0
    6.3380   -4.1690   20.3630 C   0  0  0  0  0  0  0  0  0  0  0  0
    5.4220   -4.9120   20.0060 O   0  0  0  0  0  0  0  0  0  0  0  0
    6.7590   -4.1460   21.7500 N   0  0  0  0  0  0  0  0  0  0  0  0
    7.6610   -3.1120   22.2110 C   0  0  0  0  0  0  0  0  0  0  0  0
    7.5510   -2.9480   23.6980 C   0  0  0  0  0  0  0  0  0  0  0  0
    6.1800   -3.4770   24.0650 C   0  0  0  0  0  0  0  0  0  0  0  0
    5.7550   -3.1100   25.4620 C   0  0  0  0  0  0  0  0  0  0  0  0
    4.6590   -3.5010   25.9120 O   0  0  0  0  0  0  0  0  0  0  0  0
    6.5810   -2.2930   26.3090 N   0  0  0  0  0  0  0  0  0  0  0  0
    5.9970   -1.0950   26.9660 C   0  0  2  0  0  0  0  0  0  0  0  0
    5.8120   -0.1330   25.7480 C   0  0  0  0  0  0  0  0  0  0  0  0
    5.4260    1.1770   25.7860 N   0  0  0  0  0  0  0  0  0  0  0  0
    4.0870    1.2440   25.6570 C   0  0  0  0  0  0  0  0  0  0  0  0
    5.8970    1.5930   27.0230 C   0  0  0  0  0  0  0  0  0  0  0  0
    6.1870    0.3550   27.4680 C   0  0  0  0  0  0  0  0  0  0  0  0
    6.2080   -0.9500   27.4150 C   0  0  0  0  0  0  0  0  0  0  0  0
    6.9170   -0.8730   28.7560 C   0  0  0  0  0  0  0  0  0  0  0  0
    7.1370   -2.1430   29.0810 C   0  0  0  0  0  0  0  0  0  0  0  0
    6.5650   -2.1740   27.9920 C   0  0  0  0  0  0  0  0  0  0  0  0
    6.6350   -0.6130   28.2300 C   0  0  0  0  0  0  0  0  0  0  0  0
    6.0300   -4.9720   23.7860 C   0  0  0  0  0  0  0  0  0  0  0  0
    6.6270   -5.3340   22.5640 C   0  0  0  0  0  0  0  0  0  0  0  0
  1  2  1  0
  2  3  2  0
  2  4  1  0
  4  5  1  0
  5  6  1  0
  6  7  1  0
  7  8  1  0
  8  9  2  0
  8 10  1  0
 11 10  1  6
 11 12  1  0
 12 13  1  0
 13 14  1  0
 13 15  1  0
 15 16  1  0
 16 17  2  0
 17 18  1  0
 18 19  2  0
 19 20  1  0
 11 21  1  0
 16 21  1  0
 20 21  2  0
  7 22  1  0
  4 23  1  0
 22 23  1  0
M  END
