piperidine-amides-2398-covalent
     RDKit          3D

 27 28  0  0  0  0  0  0  0  0999 V2000
    7.0350   -3.2410   19.1850 C   0  0  0  0  0  0  0  0  0  0  0  0
    6.2190   -3.9720   20.1910 C   0  0  0  0  0  0  0  0  0  0  0  0
    5.1800   -4.4960   19.8260 O   0  0  0  0  0  0  0  0  0  0  0  0
    6.6610   -4.0620   21.4940 N   0  0  0  0  0  0  0  0  0  0  0  0
    7.4140   -2.9900   22.0870 C   0  0  0  0  0  0  0  0  0  0  0  0
    6.7480   -2.5520   23.3620 C   0  0  0  0  0  0  0  0  0  0  0  0
    6.5250   -3.7940   24.2200 C   0  0  0  0  0  0  0  0  0  0  0  0
    5.9610   -3.3490   25.5100 C   0  0  0  0  0  0  0  0  0  0  0  0
    4.7490   -3.0840   25.6000 O   0  0  0  0  0  0  0  0  0  0  0  0
    6.8150   -3.2290   26.6340 N   0  0  0  0  0  0  0  0  0  0  0  0
    6.6710   -4.1640   27.7340 C   0  0  0  0  0  0  0  0  0  0  0  0
    7.7730   -5.2080   27.6650 C   0  0  2  0  0  0  0  0  0  0  0  0
    9.0060   -4.6630   27.5730 O   0  0  0  0  0  0  0  0  0  0  0  0
    7.8130   -6.0570   26.6680 C   0  0  0  0  0  0  0  0  0  0  0  0
    7.9970   -5.4940   25.4340 O   0  0  0  0  0  0  0  0  0  0  0  0
    9.0280   -4.5610   25.0520 C   0  0  0  0  0  0  0  0  0  0  0  0
   10.2150   -4.6660   25.7550 C   0  0  0  0  0  0  0  0  0  0  0  0
   11.5410   -3.8760   25.6360 C   0  0  0  0  0  0  0  0  0  0  0  0
   11.4180   -2.8510   24.5420 C   0  0  0  0  0  0  0  0  0  0  0  0
   12.5970   -1.9780   24.2300 C   0  0  0  0  0  0  0  0  0  0  0  0
   13.4050   -2.5590   23.3020 F   0  0  0  0  0  0  0  0  0  0  0  0
   12.3750   -0.6900   23.9030 F   0  0  0  0  0  0  0  0  0  0  0  0
   13.4580   -1.8210   25.3360 F   0  0  0  0  0  0  0  0  0  0  0  0
   10.1880   -2.6550   23.7390 C   0  0  0  0  0  0  0  0  0  0  0  0
    9.0100   -3.4790   23.9730 C   0  0  0  0  0  0  0  0  0  0  0  0
    5.7920   -4.8830   23.5400 C   0  0  0  0  0  0  0  0  0  0  0  0
    6.4410   -5.2790   22.2560 C   0  0  0  0  0  0  0  0  0  0  0  0
  1  2  1  0
  2  3  2  0
  2  4  1  0
  4  5  1  0
  5  6  1  0
  6  7  1  0
  7  8  1  0
  8  9  2  0
  8 10  1  0
 10 11  1  0
 11 12  1  0
 12 13  1  6
 12 14  1  0
 14 15  1  0
 15 16  1  0
 16 17  2  0
 17 18  1  0
 18 19  2  0
 19 20  1  0
 20 21  1  0
 20 22  1  0
 20 23  1  0
 19 24  1  0
 16 25  1  0
 24 25  2  0
  7 26  1  0
  4 27  1  0
 26 27  1  0
M  END
