piperidine-amides-4985-covalent
     RDKit          3D

 23 24  0  0  0  0  0  0  0  0999 V2000
    7.0920   -3.2690   19.2150 C   0  0  0  0  0  0  0  0  0  0  0  0
    6.3540   -4.0450   20.2370 C   0  0  0  0  0  0  0  0  0  0  0  0
    5.2780   -4.5620   19.8820 O   0  0  0  0  0  0  0  0  0  0  0  0
    6.8750   -4.2170   21.5220 N   0  0  0  0  0  0  0  0  0  0  0  0
    7.5130   -3.1140   22.1570 C   0  0  0  0  0  0  0  0  0  0  0  0
    6.8890   -2.7660   23.4280 C   0  0  0  0  0  0  0  0  0  0  0  0
    6.5990   -3.9300   24.2870 C   0  0  0  0  0  0  0  0  0  0  0  0
    5.8330   -3.5180   25.4890 C   0  0  0  0  0  0  0  0  0  0  0  0
    4.6450   -3.1800   25.3140 O   0  0  0  0  0  0  0  0  0  0  0  0
    6.4070   -3.4740   26.7850 N   0  0  0  0  0  0  0  0  0  0  0  0
    6.6470   -4.6550   27.6770 C   0  0  2  0  0  0  0  0  0  0  0  0
    7.5690   -5.6730   27.0860 C   0  0  0  0  0  0  0  0  0  0  0  0
    8.0810   -5.5730   25.9340 O   0  0  0  0  0  0  0  0  0  0  0  0
    5.4180   -5.3570   28.1410 C   0  0  0  0  0  0  0  0  0  0  0  0
    5.5680   -6.6220   28.6420 C   0  0  0  0  0  0  0  0  0  0  0  0
    4.5870   -7.4450   29.1160 C   0  0  0  0  0  0  0  0  0  0  0  0
    3.3150   -6.9780   29.1000 C   0  0  0  0  0  0  0  0  0  0  0  0
    3.0850   -5.7180   28.6180 C   0  0  0  0  0  0  0  0  0  0  0  0
    1.4320   -5.1320   28.6110 Cl  0  0  0  0  0  0  0  0  0  0  0  0
    4.1020   -4.9110   28.1450 C   0  0  0  0  0  0  0  0  0  0  0  0
    3.5630   -3.3220   27.5750 Cl  0  0  0  0  0  0  0  0  0  0  0  0
    5.8460   -4.9700   23.4850 C   0  0  0  0  0  0  0  0  0  0  0  0
    6.6540   -5.4080   22.3140 C   0  0  0  0  0  0  0  0  0  0  0  0
  1  2  1  0
  2  3  2  0
  2  4  1  0
  4  5  1  0
  5  6  1  0
  6  7  1  0
  7  8  1  0
  8  9  2  0
  8 10  1  0
 10 11  1  0
 11 12  1  6
 12 13  1  0
 11 14  1  0
 14 15  2  0
 15 16  1  0
 16 17  2  0
 17 18  1  0
 18 19  1  0
 14 20  1  0
 18 20  2  0
 20 21  1  0
  7 22  1  0
  4 23  1  0
 22 23  1  0
M  END
