piperidine-amides-24941-covalent
     RDKit          3D

 24 25  0  0  0  0  0  0  0  0999 V2000
    7.1280   -3.3540   19.3200 C   0  0  0  0  0  0  0  0  0  0  0  0
    6.4220   -4.1970   20.2850 C   0  0  0  0  0  0  0  0  0  0  0  0
    5.3700   -4.7960   19.9700 O   0  0  0  0  0  0  0  0  0  0  0  0
    6.9850   -4.3780   21.5480 N   0  0  0  0  0  0  0  0  0  0  0  0
    6.6890   -5.5750   22.2980 C   0  0  0  0  0  0  0  0  0  0  0  0
    5.7920   -5.1480   23.4670 C   0  0  0  0  0  0  0  0  0  0  0  0
    6.5040   -4.0400   24.2210 C   0  0  0  0  0  0  0  0  0  0  0  0
    5.5720   -3.5060   25.2240 C   0  0  0  0  0  0  0  0  0  0  0  0
    4.8720   -2.5180   24.9310 O   0  0  0  0  0  0  0  0  0  0  0  0
    5.5200   -4.1110   26.4860 N   0  0  0  0  0  0  0  0  0  0  0  0
    6.8060   -4.2840   27.0330 C   0  0  0  0  0  0  0  0  0  0  0  0
    6.6690   -4.9810   28.3080 C   0  0  0  0  0  0  0  0  0  0  0  0
    5.5590   -4.4550   28.7860 C   0  0  0  0  0  0  0  0  0  0  0  0
    4.9160   -3.7490   27.7900 C   0  0  2  0  0  0  0  0  0  0  0  0
    3.5580   -3.9650   27.5230 C   0  0  0  0  0  0  0  0  0  0  0  0
    3.0990   -5.1560   27.0660 O   0  0  0  0  0  0  0  0  0  0  0  0
    2.8450   -2.8510   27.7850 N   0  0  0  0  0  0  0  0  0  0  0  0
    1.4210   -2.7830   27.6510 C   0  0  0  0  0  0  0  0  0  0  0  0
    0.7410   -1.4290   27.5640 C   0  0  0  0  0  0  0  0  0  0  0  0
    1.2770   -0.3300   28.1700 O   0  0  0  0  0  0  0  0  0  0  0  0
   -0.4520   -1.4310   26.8280 O   0  0  0  0  0  0  0  0  0  0  0  0
   -0.5410   -1.8920   25.4860 C   0  0  0  0  0  0  0  0  0  0  0  0
    6.9110   -2.9010   23.3890 C   0  0  0  0  0  0  0  0  0  0  0  0
    7.6210   -3.2930   22.1970 C   0  0  0  0  0  0  0  0  0  0  0  0
  1  2  1  0
  2  3  2  0
  2  4  1  0
  4  5  1  0
  5  6  1  0
  6  7  1  0
  7  8  1  0
  8  9  2  0
  8 10  1  0
 10 11  1  0
 11 12  1  0
 12 13  1  0
 10 14  1  0
 13 14  1  0
 14 15  1  6
 15 16  2  0
 15 17  1  0
 17 18  1  0
 18 19  1  0
 19 20  2  0
 19 21  1  0
 21 22  1  0
  7 23  1  0
  4 24  1  0
 23 24  1  0
M  END
