piperidine-amides-15226-covalent
     RDKit          3D

 20 21  0  0  0  0  0  0  0  0999 V2000
    7.1160   -3.2920   19.2670 C   0  0  0  0  0  0  0  0  0  0  0  0
    6.3410   -4.0420   20.2640 C   0  0  0  0  0  0  0  0  0  0  0  0
    5.2890   -4.6230   19.9170 O   0  0  0  0  0  0  0  0  0  0  0  0
    6.7960   -4.1630   21.5890 N   0  0  0  0  0  0  0  0  0  0  0  0
    6.5830   -5.4150   22.2900 C   0  0  0  0  0  0  0  0  0  0  0  0
    6.0880   -5.1050   23.7190 C   0  0  0  0  0  0  0  0  0  0  0  0
    6.0470   -3.6000   23.8690 C   0  0  0  0  0  0  0  0  0  0  0  0
    5.6010   -3.2310   25.2240 C   0  0  0  0  0  0  0  0  0  0  0  0
    4.3730   -3.1100   25.4120 O   0  0  0  0  0  0  0  0  0  0  0  0
    6.5220   -3.0290   26.2660 N   0  0  0  0  0  0  0  0  0  0  0  0
    6.2020   -3.5370   27.5660 C   0  0  0  0  0  0  0  0  0  0  0  0
    5.3930   -2.4780   28.2740 C   0  0  0  0  0  0  0  0  0  0  0  0
    5.7640   -1.7300   29.1500 C   0  0  0  0  0  0  0  0  0  0  0  0
    7.1130   -1.4900   29.2040 C   0  0  0  0  0  0  0  0  0  0  0  0
    4.8940   -0.7430   29.4940 C   0  0  0  0  0  0  0  0  0  0  0  0
    5.2140   -2.9600   29.7260 C   0  0  0  0  0  0  0  0  0  0  0  0
    3.9340   -3.7660   29.8340 C   0  0  0  0  0  0  0  0  0  0  0  0
    4.0430   -2.6570   30.5930 C   0  0  0  0  0  0  0  0  0  0  0  0
    7.3190   -2.9390   23.5520 C   0  0  0  0  0  0  0  0  0  0  0  0
    7.6610   -3.1780   22.1600 C   0  0  0  0  0  0  0  0  0  0  0  0
  1  2  1  0
  2  3  2  0
  2  4  1  0
  4  5  1  0
  5  6  1  0
  6  7  1  0
  7  8  1  0
  8  9  2  0
  8 10  1  0
 10 11  1  0
 11 12  1  0
 12 13  1  0
 13 14  1  0
 13 15  1  0
 12 16  1  0
 13 16  1  0
 16 17  1  0
 16 18  1  0
  7 19  1  0
  4 20  1  0
 19 20  1  0
M  END
