piperidine-amides-8282-covalent
     RDKit          3D

 25 26  0  0  0  0  0  0  0  0999 V2000
    7.0670   -3.3570   19.3460 C   0  0  0  0  0  0  0  0  0  0  0  0
    6.3550   -4.1590   20.3370 C   0  0  0  0  0  0  0  0  0  0  0  0
    5.3400   -4.7750   19.9630 O   0  0  0  0  0  0  0  0  0  0  0  0
    6.8430   -4.2680   21.6650 N   0  0  0  0  0  0  0  0  0  0  0  0
    6.5580   -5.4710   22.3970 C   0  0  0  0  0  0  0  0  0  0  0  0
    6.2310   -5.1550   23.8340 C   0  0  0  0  0  0  0  0  0  0  0  0
    6.0610   -3.6540   23.9610 C   0  0  0  0  0  0  0  0  0  0  0  0
    5.6020   -3.2660   25.3360 C   0  0  0  0  0  0  0  0  0  0  0  0
    4.3960   -3.3390   25.5390 O   0  0  0  0  0  0  0  0  0  0  0  0
    6.5370   -2.8510   26.2750 N   0  0  0  0  0  0  0  0  0  0  0  0
    6.4130   -1.6180   26.9810 C   0  0  0  0  0  0  0  0  0  0  0  0
    5.8160   -0.3850   26.5990 C   0  0  0  0  0  0  0  0  0  0  0  0
    5.7520    0.7610   27.3660 C   0  0  0  0  0  0  0  0  0  0  0  0
    6.2830    0.8320   28.6290 C   0  0  0  0  0  0  0  0  0  0  0  0
    6.1340    2.0550   29.2670 O   0  0  0  0  0  0  0  0  0  0  0  0
    4.8630    2.2900   29.7330 C   0  0  0  0  0  0  0  0  0  0  0  0
    4.1030    3.6370   29.7190 C   0  0  0  0  0  0  0  0  0  0  0  0
    3.0910    3.7860   28.7550 N   0  0  0  0  0  0  0  0  0  0  0  0
    3.5310    3.4720   27.4260 C   0  0  0  0  0  0  0  0  0  0  0  0
    1.8730    3.1080   29.1210 C   0  0  0  0  0  0  0  0  0  0  0  0
    6.9000   -0.2870   29.1480 C   0  0  0  0  0  0  0  0  0  0  0  0
    7.5840   -0.2180   30.7670 Cl  0  0  0  0  0  0  0  0  0  0  0  0
    6.9620   -1.4240   28.3860 C   0  0  0  0  0  0  0  0  0  0  0  0
    7.3890   -3.0400   23.6510 C   0  0  0  0  0  0  0  0  0  0  0  0
    7.6550   -3.1820   22.1840 C   0  0  0  0  0  0  0  0  0  0  0  0
  1  2  1  0
  2  3  2  0
  2  4  1  0
  4  5  1  0
  5  6  1  0
  6  7  1  0
  7  8  1  0
  8  9  2  0
  8 10  1  0
 10 11  1  0
 11 12  2  0
 12 13  1  0
 13 14  2  0
 14 15  1  0
 15 16  1  0
 16 17  1  0
 17 18  1  0
 18 19  1  0
 18 20  1  0
 14 21  1  0
 21 22  1  0
 11 23  1  0
 21 23  2  0
  7 24  1  0
  4 25  1  0
 24 25  1  0
M  END
