piperidine-amides-12160-covalent
     RDKit          3D

 25 27  0  0  0  0  0  0  0  0999 V2000
    7.1090   -3.3400   19.3120 C   0  0  0  0  0  0  0  0  0  0  0  0
    6.4280   -4.1780   20.2920 C   0  0  0  0  0  0  0  0  0  0  0  0
    5.4030   -4.7870   19.9740 O   0  0  0  0  0  0  0  0  0  0  0  0
    6.9890   -4.3320   21.6060 N   0  0  0  0  0  0  0  0  0  0  0  0
    6.5750   -5.4190   22.4470 C   0  0  0  0  0  0  0  0  0  0  0  0
    5.9010   -4.8820   23.6850 C   0  0  0  0  0  0  0  0  0  0  0  0
    6.5790   -3.5900   24.1560 C   0  0  0  0  0  0  0  0  0  0  0  0
    5.6300   -2.8650   25.0400 C   0  0  0  0  0  0  0  0  0  0  0  0
    4.7510   -2.1130   24.5780 O   0  0  0  0  0  0  0  0  0  0  0  0
    5.6970   -3.0400   26.4510 N   0  0  0  0  0  0  0  0  0  0  0  0
    6.3880   -2.1130   27.3250 C   0  0  0  0  0  0  0  0  0  0  0  0
    6.6570   -1.0470   26.5140 C   0  0  0  0  0  0  0  0  0  0  0  0
    5.9900   -2.1920   26.1710 N   0  0  0  0  0  0  0  0  0  0  0  0
    5.8970   -3.0850   27.3470 N   0  0  0  0  0  0  0  0  0  0  0  0
    5.1920   -4.3950   27.2850 C   0  0  0  0  0  0  0  0  0  0  0  0
    4.0890   -4.3040   26.4070 C   0  0  0  0  0  0  0  0  0  0  0  0
    3.2530   -5.3510   26.1410 C   0  0  0  0  0  0  0  0  0  0  0  0
    3.5360   -6.5910   26.8060 C   0  0  0  0  0  0  0  0  0  0  0  0
    2.4620   -7.9570   26.4690 Cl  0  0  0  0  0  0  0  0  0  0  0  0
    4.5940   -6.7130   27.6650 C   0  0  0  0  0  0  0  0  0  0  0  0
    5.4260   -5.6250   27.9140 C   0  0  0  0  0  0  0  0  0  0  0  0
    6.7160   -5.8920   29.0190 Cl  0  0  0  0  0  0  0  0  0  0  0  0
    6.5530   -2.4830   28.4710 C   0  0  0  0  0  0  0  0  0  0  0  0
    7.0740   -2.6760   23.1470 C   0  0  0  0  0  0  0  0  0  0  0  0
    7.8250   -3.3310   22.2100 C   0  0  0  0  0  0  0  0  0  0  0  0
  1  2  1  0
  2  3  2  0
  2  4  1  0
  4  5  1  0
  5  6  1  0
  6  7  1  0
  7  8  1  0
  8  9  2  0
  8 10  1  0
 10 11  1  0
 11 12  1  0
 12 13  2  0
 13 14  1  0
 14 15  1  0
 15 16  2  0
 16 17  1  0
 17 18  2  0
 18 19  1  0
 18 20  1  0
 15 21  1  0
 20 21  2  0
 21 22  1  0
 11 23  2  0
 14 23  1  0
  7 24  1  0
  4 25  1  0
 24 25  1  0
M  END
