piperidine-amides-27255-covalent
     RDKit          3D

 25 26  0  0  0  0  0  0  0  0999 V2000
    7.0220   -3.3150   19.3350 C   0  0  0  0  0  0  0  0  0  0  0  0
    6.3270   -4.1470   20.3260 C   0  0  0  0  0  0  0  0  0  0  0  0
    5.2840   -4.7280   19.9330 O   0  0  0  0  0  0  0  0  0  0  0  0
    6.8260   -4.3200   21.6160 N   0  0  0  0  0  0  0  0  0  0  0  0
    6.7000   -5.5980   22.2720 C   0  0  0  0  0  0  0  0  0  0  0  0
    6.3490   -5.3250   23.7020 C   0  0  0  0  0  0  0  0  0  0  0  0
    6.0530   -3.8660   23.9110 C   0  0  0  0  0  0  0  0  0  0  0  0
    5.7100   -3.5660   25.3240 C   0  0  0  0  0  0  0  0  0  0  0  0
    4.5340   -3.1730   25.4990 O   0  0  0  0  0  0  0  0  0  0  0  0
    6.5030   -3.6510   26.5050 N   0  0  0  0  0  0  0  0  0  0  0  0
    5.7670   -3.3320   27.7130 C   0  0  0  0  0  0  0  0  0  0  0  0
    6.0740   -4.3450   28.8010 C   0  0  0  0  0  0  0  0  0  0  0  0
    7.1180   -5.2260   28.6850 C   0  0  0  0  0  0  0  0  0  0  0  0
    7.6370   -5.5050   27.4460 C   0  0  0  0  0  0  0  0  0  0  0  0
    7.7540   -4.4120   26.6080 C   0  0  1  0  0  0  0  0  0  0  0  0
    8.4990   -4.5640   25.4450 C   0  0  0  0  0  0  0  0  0  0  0  0
    9.8900   -4.2950   25.4740 O   0  0  0  0  0  0  0  0  0  0  0  0
   10.3460   -3.0800   24.8830 C   0  0  0  0  0  0  0  0  0  0  0  0
    9.6540   -1.9610   25.1470 O   0  0  0  0  0  0  0  0  0  0  0  0
   11.4070   -2.9370   24.0690 N   0  0  0  0  0  0  0  0  0  0  0  0
   12.3040   -2.1090   24.5950 C   0  0  0  0  0  0  0  0  0  0  0  0
   13.3970   -2.8150   25.3800 C   0  0  0  0  0  0  0  0  0  0  0  0
   12.7440   -1.2670   23.5860 C   0  0  0  0  0  0  0  0  0  0  0  0
    7.1260   -2.9150   23.4430 C   0  0  0  0  0  0  0  0  0  0  0  0
    7.7050   -3.3320   22.2640 C   0  0  0  0  0  0  0  0  0  0  0  0
  1  2  1  0
  2  3  2  0
  2  4  1  0
  4  5  1  0
  5  6  1  0
  6  7  1  0
  7  8  1  0
  8  9  2  0
  8 10  1  0
 10 11  1  0
 11 12  1  0
 12 13  1  0
 13 14  1  0
 10 15  1  0
 14 15  1  0
 15 16  1  6
 16 17  1  0
 17 18  1  0
 18 19  2  0
 18 20  1  0
 20 21  1  0
 21 22  1  0
 21 23  1  0
  7 24  1  0
  4 25  1  0
 24 25  1  0
M  END
