piperidine-amides-2106-covalent
     RDKit          3D

 23 25  0  0  0  0  0  0  0  0999 V2000
    7.0400   -3.3030   19.2620 C   0  0  0  0  0  0  0  0  0  0  0  0
    6.3490   -4.1130   20.3060 C   0  0  0  0  0  0  0  0  0  0  0  0
    5.3490   -4.7330   19.9490 O   0  0  0  0  0  0  0  0  0  0  0  0
    6.8560   -4.1830   21.6130 N   0  0  0  0  0  0  0  0  0  0  0  0
    7.6690   -3.1290   22.1790 C   0  0  0  0  0  0  0  0  0  0  0  0
    7.3200   -2.9230   23.6310 C   0  0  0  0  0  0  0  0  0  0  0  0
    6.0190   -3.6630   23.9450 C   0  0  0  0  0  0  0  0  0  0  0  0
    5.5920   -3.3540   25.3350 C   0  0  0  0  0  0  0  0  0  0  0  0
    4.3840   -3.3230   25.5820 O   0  0  0  0  0  0  0  0  0  0  0  0
    6.5210   -3.0770   26.3570 N   0  0  0  0  0  0  0  0  0  0  0  0
    6.3240   -3.5720   27.7180 C   0  0  0  0  0  0  0  0  0  0  0  0
    4.9690   -4.2290   27.8980 C   0  0  0  0  0  0  0  0  0  0  0  0
    4.6780   -5.4560   27.3200 C   0  0  0  0  0  0  0  0  0  0  0  0
    3.4600   -5.9760   27.5660 C   0  0  0  0  0  0  0  0  0  0  0  0
    3.0220   -7.1870   27.0670 O   0  0  0  0  0  0  0  0  0  0  0  0
    2.5060   -5.3060   28.3740 N   0  0  0  0  0  0  0  0  0  0  0  0
    1.2740   -5.7770   28.6500 N   0  0  0  0  0  0  0  0  0  0  0  0
    0.7060   -4.7740   29.4760 C   0  0  0  0  0  0  0  0  0  0  0  0
    1.5620   -3.6220   29.7570 C   0  0  0  0  0  0  0  0  0  0  0  0
    2.7560   -4.0790   28.9660 C   0  0  0  0  0  0  0  0  0  0  0  0
    4.0140   -3.6250   28.6740 N   0  0  0  0  0  0  0  0  0  0  0  0
    6.0880   -5.1200   23.7250 C   0  0  0  0  0  0  0  0  0  0  0  0
    6.5960   -5.3960   22.3480 C   0  0  0  0  0  0  0  0  0  0  0  0
  1  2  1  0
  2  3  2  0
  2  4  1  0
  4  5  1  0
  5  6  1  0
  6  7  1  0
  7  8  1  0
  8  9  2  0
  8 10  1  0
 10 11  1  0
 11 12  1  0
 12 13  1  0
 13 14  2  0
 14 15  1  0
 14 16  1  0
 16 17  1  0
 17 18  2  0
 18 19  1  0
 16 20  1  0
 19 20  2  0
 12 21  2  0
 20 21  1  0
  7 22  1  0
  4 23  1  0
 22 23  1  0
M  END
