piperidine-amides-32884-covalent
     RDKit          3D

 25 27  0  0  0  0  0  0  0  0999 V2000
    7.1220   -3.3450   19.3050 C   0  0  0  0  0  0  0  0  0  0  0  0
    6.3680   -4.1520   20.2940 C   0  0  0  0  0  0  0  0  0  0  0  0
    5.3130   -4.7050   19.9430 O   0  0  0  0  0  0  0  0  0  0  0  0
    6.9120   -4.3180   21.5830 N   0  0  0  0  0  0  0  0  0  0  0  0
    6.6340   -5.4600   22.4080 C   0  0  0  0  0  0  0  0  0  0  0  0
    5.7730   -4.9570   23.5700 C   0  0  0  0  0  0  0  0  0  0  0  0
    6.4700   -3.7930   24.2080 C   0  0  0  0  0  0  0  0  0  0  0  0
    5.6260   -3.1420   25.2270 C   0  0  0  0  0  0  0  0  0  0  0  0
    4.5400   -2.7170   24.8220 O   0  0  0  0  0  0  0  0  0  0  0  0
    6.0330   -3.0250   26.5540 N   0  0  0  0  0  0  0  0  0  0  0  0
    6.2270   -1.7760   27.2100 C   0  0  0  0  0  0  0  0  0  0  0  0
    5.7620   -0.5550   26.7410 C   0  0  0  0  0  0  0  0  0  0  0  0
    5.9430    0.6830   27.4110 C   0  0  0  0  0  0  0  0  0  0  0  0
    6.6160    0.7420   28.6090 C   0  0  0  0  0  0  0  0  0  0  0  0
    7.1450   -0.5120   29.1700 C   0  0  0  0  0  0  0  0  0  0  0  0
    6.9300   -1.8090   28.4190 C   0  0  0  0  0  0  0  0  0  0  0  0
    5.4990   -4.1110   27.3810 C   0  0  0  0  0  0  0  0  0  0  0  0
    5.7560   -5.3480   26.9060 N   0  0  0  0  0  0  0  0  0  0  0  0
    5.3320   -6.4280   27.5850 C   0  0  0  0  0  0  0  0  0  0  0  0
    4.5720   -6.3410   28.8440 C   0  0  0  0  0  0  0  0  0  0  0  0
    4.3700   -4.8890   29.2040 C   0  0  0  0  0  0  0  0  0  0  0  0
    4.7960   -3.7700   28.5340 C   0  0  0  0  0  0  0  0  0  0  0  0
    4.4170   -1.9920   29.1780 Br  0  0  0  0  0  0  0  0  0  0  0  0
    6.9030   -2.6950   23.2920 C   0  0  0  0  0  0  0  0  0  0  0  0
    7.7300   -3.2750   22.1810 C   0  0  0  0  0  0  0  0  0  0  0  0
  1  2  1  0
  2  3  2  0
  2  4  1  0
  4  5  1  0
  5  6  1  0
  6  7  1  0
  7  8  1  0
  8  9  2  0
  8 10  1  0
 10 11  1  0
 11 12  2  0
 12 13  1  0
 13 14  2  0
 14 15  1  0
 11 16  1  0
 15 16  2  0
 10 17  1  0
 17 18  2  0
 18 19  1  0
 19 20  2  0
 20 21  1  0
 17 22  1  0
 21 22  2  0
 22 23  1  0
  7 24  1  0
  4 25  1  0
 24 25  1  0
M  END
