piperidine-amides-844-covalent
     RDKit          3D

 25 27  0  0  0  0  0  0  0  0999 V2000
    7.1310   -3.3100   19.3750 C   0  0  0  0  0  0  0  0  0  0  0  0
    6.4240   -4.1130   20.3430 C   0  0  0  0  0  0  0  0  0  0  0  0
    5.4080   -4.7880   19.9670 O   0  0  0  0  0  0  0  0  0  0  0  0
    6.8520   -4.1930   21.6820 N   0  0  0  0  0  0  0  0  0  0  0  0
    6.6570   -5.4600   22.4040 C   0  0  0  0  0  0  0  0  0  0  0  0
    5.5850   -4.9620   23.4400 C   0  0  0  0  0  0  0  0  0  0  0  0
    6.1820   -3.7280   24.0890 C   0  0  0  0  0  0  0  0  0  0  0  0
    5.9170   -3.8260   25.6560 C   0  0  0  0  0  0  0  0  0  0  0  0
    5.7720   -4.9820   25.9760 O   0  0  0  0  0  0  0  0  0  0  0  0
    5.8930   -2.6810   26.1870 N   0  0  0  0  0  0  0  0  0  0  0  0
    5.7070   -1.4900   26.8140 C   0  0  2  0  0  0  0  0  0  0  0  0
    5.7290   -0.1370   26.5860 C   0  0  0  0  0  0  0  0  0  0  0  0
    5.8040    0.5610   27.7950 C   0  0  0  0  0  0  0  0  0  0  0  0
    6.1120   -0.2470   28.7870 N   0  0  0  0  0  0  0  0  0  0  0  0
    5.0080   -0.4920   29.5890 C   0  0  0  0  0  0  0  0  0  0  0  0
    4.4370    0.8680   30.0270 C   0  0  0  0  0  0  0  0  0  0  0  0
    3.0580    0.6320   29.8700 C   0  0  0  0  0  0  0  0  0  0  0  0
    1.8740    1.4310   30.0820 C   0  0  0  0  0  0  0  0  0  0  0  0
    2.5870    2.7350   30.5730 C   0  0  0  0  0  0  0  0  0  0  0  0
    4.1030    3.0440   30.7640 C   0  0  0  0  0  0  0  0  0  0  0  0
    4.6150    4.2380   31.2040 C   0  0  0  0  0  0  0  0  0  0  0  0
    5.0210    1.9950   30.4490 C   0  0  0  0  0  0  0  0  0  0  0  0
    6.6340   -1.3630   28.0750 C   0  0  0  0  0  0  0  0  0  0  0  0
    7.5610   -3.3300   23.6760 C   0  0  0  0  0  0  0  0  0  0  0  0
    7.6440   -3.1610   22.2900 C   0  0  0  0  0  0  0  0  0  0  0  0
  1  2  1  0
  2  3  2  0
  2  4  1  0
  4  5  1  0
  5  6  1  0
  6  7  1  0
  7  8  1  0
  8  9  2  0
  8 10  1  0
 11 10  1  6
 11 12  1  0
 12 13  1  0
 13 14  1  0
 14 15  1  0
 15 16  1  0
 16 17  2  0
 17 18  1  0
 18 19  2  0
 19 20  1  0
 20 21  1  0
 16 22  1  0
 20 22  2  0
 11 23  1  0
 14 23  1  0
  7 24  1  0
  4 25  1  0
 24 25  1  0
M  END
