piperidine-amides-34283-covalent
     RDKit          3D

 29 31  0  0  0  0  0  0  0  0999 V2000
    7.0750   -3.3350   19.3960 C   0  0  0  0  0  0  0  0  0  0  0  0
    6.4140   -4.2340   20.3510 C   0  0  0  0  0  0  0  0  0  0  0  0
    5.3950   -4.8690   19.9930 O   0  0  0  0  0  0  0  0  0  0  0  0
    6.9350   -4.4380   21.6400 N   0  0  0  0  0  0  0  0  0  0  0  0
    6.4590   -5.5710   22.3820 C   0  0  0  0  0  0  0  0  0  0  0  0
    5.5310   -4.9680   23.4400 C   0  0  0  0  0  0  0  0  0  0  0  0
    6.3820   -4.0510   24.3010 C   0  0  0  0  0  0  0  0  0  0  0  0
    5.5240   -3.4030   25.3380 C   0  0  0  0  0  0  0  0  0  0  0  0
    4.7740   -2.4940   24.9400 O   0  0  0  0  0  0  0  0  0  0  0  0
    5.5100   -3.7700   26.7280 N   0  0  0  0  0  0  0  0  0  0  0  0
    4.2940   -3.5580   27.4510 C   0  0  0  0  0  0  0  0  0  0  0  0
    4.4770   -3.9980   28.9040 C   0  0  0  0  0  0  0  0  0  0  0  0
    5.2420   -5.2140   28.9180 N   0  0  0  0  0  0  0  0  0  0  0  0
    4.6400   -6.5810   28.1700 S   0  0  0  0  0  0  0  0  0  0  0  0
    5.7130   -7.6130   28.1030 O   0  0  0  0  0  0  0  0  0  0  0  0
    4.0720   -6.2400   26.8210 O   0  0  0  0  0  0  0  0  0  0  0  0
    3.3270   -7.1510   29.2490 C   0  0  0  0  0  0  0  0  0  0  0  0
    3.4580   -7.8250   30.4300 C   0  0  0  0  0  0  0  0  0  0  0  0
    2.1960   -8.0660   30.9050 C   0  0  0  0  0  0  0  0  0  0  0  0
    1.7690   -8.7100   32.0450 C   0  0  0  0  0  0  0  0  0  0  0  0
    2.5460   -8.8890   33.1150 N   0  0  0  0  0  0  0  0  0  0  0  0
    0.4640   -9.2010   32.0800 O   0  0  0  0  0  0  0  0  0  0  0  0
    1.2130   -7.5870   30.1060 N   0  0  0  0  0  0  0  0  0  0  0  0
   -0.2260   -7.6490   30.2730 C   0  0  0  0  0  0  0  0  0  0  0  0
    1.9670   -6.9800   29.0080 C   0  0  0  0  0  0  0  0  0  0  0  0
    6.5540   -4.8710   28.3750 C   0  0  0  0  0  0  0  0  0  0  0  0
    6.4580   -3.5390   27.7470 C   0  0  0  0  0  0  0  0  0  0  0  0
    6.9780   -2.9530   23.4480 C   0  0  0  0  0  0  0  0  0  0  0  0
    7.6160   -3.3740   22.3100 C   0  0  0  0  0  0  0  0  0  0  0  0
  1  2  1  0
  2  3  2  0
  2  4  1  0
  4  5  1  0
  5  6  1  0
  6  7  1  0
  7  8  1  0
  8  9  2  0
  8 10  1  0
 10 11  1  0
 11 12  1  0
 12 13  1  0
 13 14  1  0
 14 15  2  0
 14 16  2  0
 14 17  1  0
 17 18  1  0
 18 19  2  0
 19 20  1  0
 20 21  1  0
 20 22  2  0
 19 23  1  0
 23 24  1  0
 17 25  2  0
 23 25  1  0
 13 26  1  0
 10 27  1  0
 26 27  1  0
  7 28  1  0
  4 29  1  0
 28 29  1  0
M  END
