piperidine-amides-13260-covalent
     RDKit          3D

 17 17  0  0  0  0  0  0  0  0999 V2000
    7.0950   -3.2890   19.2710 C   0  0  0  0  0  0  0  0  0  0  0  0
    6.3920   -4.1020   20.2930 C   0  0  0  0  0  0  0  0  0  0  0  0
    5.3240   -4.6280   19.9210 O   0  0  0  0  0  0  0  0  0  0  0  0
    6.9330   -4.3000   21.5810 N   0  0  0  0  0  0  0  0  0  0  0  0
    6.5200   -5.4370   22.3380 C   0  0  0  0  0  0  0  0  0  0  0  0
    5.9970   -5.0690   23.6570 C   0  0  0  0  0  0  0  0  0  0  0  0
    5.9960   -3.6040   23.8990 C   0  0  0  0  0  0  0  0  0  0  0  0
    5.5720   -3.2810   25.2840 C   0  0  0  0  0  0  0  0  0  0  0  0
    4.3920   -2.9220   25.4470 O   0  0  0  0  0  0  0  0  0  0  0  0
    6.4470   -3.3600   26.3810 N   0  0  0  0  0  0  0  0  0  0  0  0
    6.1030   -4.0270   27.6670 C   0  0  0  0  0  0  0  0  0  0  0  0
    6.0750   -5.5210   27.6260 C   0  0  1  0  0  0  0  0  0  0  0  0
    6.9560   -6.1870   28.2350 O   0  0  0  0  0  0  0  0  0  0  0  0
    4.8180   -6.1950   27.9490 C   0  0  0  0  0  0  0  0  0  0  0  0
    3.6900   -5.4310   27.8010 O   0  0  0  0  0  0  0  0  0  0  0  0
    7.2630   -2.9510   23.4970 C   0  0  0  0  0  0  0  0  0  0  0  0
    7.6320   -3.1950   22.1880 C   0  0  0  0  0  0  0  0  0  0  0  0
  1  2  1  0
  2  3  2  0
  2  4  1  0
  4  5  1  0
  5  6  1  0
  6  7  1  0
  7  8  1  0
  8  9  2  0
  8 10  1  0
 10 11  1  0
 11 12  1  0
 12 13  1  1
 12 14  1  0
 14 15  1  0
  7 16  1  0
  4 17  1  0
 16 17  1  0
M  END
