piperidine-amides-21594-covalent
     RDKit          3D

 23 24  0  0  0  0  0  0  0  0999 V2000
    7.0740   -3.3060   19.3040 C   0  0  0  0  0  0  0  0  0  0  0  0
    6.3370   -4.0680   20.3170 C   0  0  0  0  0  0  0  0  0  0  0  0
    5.2860   -4.6330   19.9170 O   0  0  0  0  0  0  0  0  0  0  0  0
    6.8180   -4.1910   21.6290 N   0  0  0  0  0  0  0  0  0  0  0  0
    6.6950   -5.4560   22.3260 C   0  0  0  0  0  0  0  0  0  0  0  0
    6.1780   -5.1630   23.7000 C   0  0  0  0  0  0  0  0  0  0  0  0
    6.0410   -3.6830   23.8780 C   0  0  0  0  0  0  0  0  0  0  0  0
    5.5230   -3.3360   25.2290 C   0  0  0  0  0  0  0  0  0  0  0  0
    4.2950   -3.1290   25.3070 O   0  0  0  0  0  0  0  0  0  0  0  0
    6.2610   -3.2120   26.4280 N   0  0  0  0  0  0  0  0  0  0  0  0
    6.6060   -1.8370   26.7530 C   0  0  0  0  0  0  0  0  0  0  0  0
    6.3130   -1.4330   28.1950 C   0  0  0  0  0  0  0  0  0  0  0  0
    5.0360   -1.2690   28.6930 C   0  0  0  0  0  0  0  0  0  0  0  0
    4.8360   -0.8920   29.9990 C   0  0  0  0  0  0  0  0  0  0  0  0
    5.8550   -0.6540   30.8860 C   0  0  0  0  0  0  0  0  0  0  0  0
    7.1270   -0.8180   30.3910 C   0  0  0  0  0  0  0  0  0  0  0  0
    7.3510   -1.1970   29.0830 C   0  0  0  0  0  0  0  0  0  0  0  0
    5.9420   -4.2040   27.4220 C   0  0  1  0  0  0  0  0  0  0  0  0
    5.8950   -5.6450   26.9190 C   0  0  0  0  0  0  0  0  0  0  0  0
    6.5830   -4.0530   28.6200 C   0  0  0  0  0  0  0  0  0  0  0  0
    7.0250   -5.2680   29.1840 O   0  0  0  0  0  0  0  0  0  0  0  0
    7.3380   -2.9900   23.5880 C   0  0  0  0  0  0  0  0  0  0  0  0
    7.6780   -3.1600   22.2550 C   0  0  0  0  0  0  0  0  0  0  0  0
  1  2  1  0
  2  3  2  0
  2  4  1  0
  4  5  1  0
  5  6  1  0
  6  7  1  0
  7  8  1  0
  8  9  2  0
  8 10  1  0
 10 11  1  0
 11 12  1  0
 12 13  2  0
 13 14  1  0
 14 15  2  0
 15 16  1  0
 12 17  1  0
 16 17  2  0
 10 18  1  0
 18 19  1  6
 18 20  1  0
 20 21  1  0
  7 22  1  0
  4 23  1  0
 22 23  1  0
M  END
