piperidine-amides-14785-covalent
     RDKit          3D

 22 24  0  0  0  0  0  0  0  0999 V2000
    7.0650   -3.3240   19.3510 C   0  0  0  0  0  0  0  0  0  0  0  0
    6.3290   -4.1060   20.3450 C   0  0  0  0  0  0  0  0  0  0  0  0
    5.3370   -4.7470   19.9530 O   0  0  0  0  0  0  0  0  0  0  0  0
    6.7560   -4.1590   21.7000 N   0  0  0  0  0  0  0  0  0  0  0  0
    6.6470   -5.4140   22.3980 C   0  0  0  0  0  0  0  0  0  0  0  0
    6.0760   -5.1650   23.7630 C   0  0  0  0  0  0  0  0  0  0  0  0
    6.0370   -3.6680   23.9070 C   0  0  0  0  0  0  0  0  0  0  0  0
    5.6000   -3.2360   25.2870 C   0  0  0  0  0  0  0  0  0  0  0  0
    4.6860   -2.4180   25.3120 O   0  0  0  0  0  0  0  0  0  0  0  0
    6.2040   -3.7620   26.4310 N   0  0  0  0  0  0  0  0  0  0  0  0
    5.8580   -5.0460   26.9660 C   0  0  0  0  0  0  0  0  0  0  0  0
    4.9220   -5.0700   28.0020 C   0  0  0  0  0  0  0  0  0  0  0  0
    4.1590   -3.9330   28.3330 C   0  0  0  0  0  0  0  0  0  0  0  0
    3.1990   -3.8710   29.3630 C   0  0  0  0  0  0  0  0  0  0  0  0
    3.0480   -5.1540   30.0990 C   0  0  0  0  0  0  0  0  0  0  0  0
    3.8360   -6.3560   29.7660 C   0  0  0  0  0  0  0  0  0  0  0  0
    4.8010   -6.2850   28.6740 C   0  0  0  0  0  0  0  0  0  0  0  0
    3.4700   -7.5050   30.6800 C   0  0  0  0  0  0  0  0  0  0  0  0
    2.5670   -6.8990   31.3920 O   0  0  0  0  0  0  0  0  0  0  0  0
    2.2340   -5.5500   31.1700 C   0  0  0  0  0  0  0  0  0  0  0  0
    7.4200   -3.1250   23.6280 C   0  0  0  0  0  0  0  0  0  0  0  0
    7.5940   -3.1060   22.2540 C   0  0  0  0  0  0  0  0  0  0  0  0
  1  2  1  0
  2  3  2  0
  2  4  1  0
  4  5  1  0
  5  6  1  0
  6  7  1  0
  7  8  1  0
  8  9  2  0
  8 10  1  0
 10 11  1  0
 11 12  1  0
 12 13  2  0
 13 14  1  0
 14 15  2  0
 15 16  1  0
 12 17  1  0
 16 17  2  0
 16 18  1  0
 18 19  1  0
 15 20  1  0
 19 20  1  0
  7 21  1  0
  4 22  1  0
 21 22  1  0
M  END
