piperidine-amides-33436-covalent
     RDKit          3D

 29 31  0  0  0  0  0  0  0  0999 V2000
    7.0700   -3.3880   19.3540 C   0  0  0  0  0  0  0  0  0  0  0  0
    6.3870   -4.2120   20.3600 C   0  0  0  0  0  0  0  0  0  0  0  0
    5.3570   -4.8140   19.9770 O   0  0  0  0  0  0  0  0  0  0  0  0
    6.9050   -4.3630   21.6740 N   0  0  0  0  0  0  0  0  0  0  0  0
    6.4960   -5.4850   22.4370 C   0  0  0  0  0  0  0  0  0  0  0  0
    5.9310   -5.1480   23.7480 C   0  0  0  0  0  0  0  0  0  0  0  0
    6.3400   -3.8510   24.3450 C   0  0  0  0  0  0  0  0  0  0  0  0
    5.2600   -3.3290   25.2670 C   0  0  0  0  0  0  0  0  0  0  0  0
    4.2290   -2.8700   24.7580 O   0  0  0  0  0  0  0  0  0  0  0  0
    5.3590   -3.3440   26.6890 N   0  0  0  0  0  0  0  0  0  0  0  0
    6.4690   -3.2470   27.4390 C   0  0  0  0  0  0  0  0  0  0  0  0
    6.7000   -4.3510   28.3650 C   0  0  0  0  0  0  0  0  0  0  0  0
    5.3920   -4.6230   29.0630 C   0  0  0  0  0  0  0  0  0  0  0  0
    4.3610   -4.9540   28.1950 C   0  0  0  0  0  0  0  0  0  0  0  0
    4.2210   -3.5450   27.5610 C   0  0  0  0  0  0  0  0  0  0  0  0
    4.5840   -3.5580   29.7060 C   0  0  0  0  0  0  0  0  0  0  0  0
    3.7660   -4.0210   30.6750 N   0  0  0  0  0  0  0  0  0  0  0  0
    3.1390   -3.2360   31.5620 C   0  0  0  0  0  0  0  0  0  0  0  0
    2.0540   -3.6910   32.3160 O   0  0  0  0  0  0  0  0  0  0  0  0
    3.4660   -2.0510   31.7760 O   0  0  0  0  0  0  0  0  0  0  0  0
    2.8610   -0.9720   31.0450 C   0  0  0  0  0  0  0  0  0  0  0  0
    3.7310   -0.6000   29.8570 C   0  0  0  0  0  0  0  0  0  0  0  0
    1.4580   -1.1330   30.5110 C   0  0  0  0  0  0  0  0  0  0  0  0
    2.8240    0.2740   31.9080 C   0  0  0  0  0  0  0  0  0  0  0  0
    3.5880   -5.4030   30.9370 C   0  0  0  0  0  0  0  0  0  0  0  0
    4.6830   -6.1530   30.5830 C   0  0  0  0  0  0  0  0  0  0  0  0
    5.7910   -5.4430   30.0840 O   0  0  0  0  0  0  0  0  0  0  0  0
    6.7030   -2.8260   23.3120 C   0  0  0  0  0  0  0  0  0  0  0  0
    7.6010   -3.3080   22.3640 C   0  0  0  0  0  0  0  0  0  0  0  0
  1  2  1  0
  2  3  2  0
  2  4  1  0
  4  5  1  0
  5  6  1  0
  6  7  1  0
  7  8  1  0
  8  9  2  0
  8 10  1  0
 10 11  1  0
 11 12  1  0
 12 13  1  0
 13 14  1  0
 10 15  1  0
 14 15  1  0
 13 16  1  0
 16 17  1  0
 17 18  1  0
 18 19  2  0
 18 20  1  0
 21 20  1  0
 21 22  1  0
 21 23  1  0
 21 24  1  0
 17 25  1  0
 25 26  1  0
 13 27  1  0
 26 27  1  0
  7 28  1  0
  4 29  1  0
 28 29  1  0
M  END
