piperidine-amides-34859-covalent
     RDKit          3D

 32 35  0  0  0  0  0  0  0  0999 V2000
    7.0550   -3.3290   19.3590 C   0  0  0  0  0  0  0  0  0  0  0  0
    6.3910   -4.2200   20.3490 C   0  0  0  0  0  0  0  0  0  0  0  0
    5.3720   -4.7940   19.9680 O   0  0  0  0  0  0  0  0  0  0  0  0
    6.9340   -4.4300   21.6270 N   0  0  0  0  0  0  0  0  0  0  0  0
    6.6480   -5.6320   22.3550 C   0  0  0  0  0  0  0  0  0  0  0  0
    5.8100   -5.2730   23.5460 C   0  0  0  0  0  0  0  0  0  0  0  0
    6.3730   -4.0380   24.2490 C   0  0  0  0  0  0  0  0  0  0  0  0
    5.3670   -3.6490   25.2760 C   0  0  0  0  0  0  0  0  0  0  0  0
    4.4130   -2.9480   24.9410 O   0  0  0  0  0  0  0  0  0  0  0  0
    5.5110   -4.0810   26.6140 N   0  0  0  0  0  0  0  0  0  0  0  0
    6.8580   -4.2090   26.9000 C   0  0  0  0  0  0  0  0  0  0  0  0
    7.0280   -5.2250   27.9870 C   0  0  0  0  0  0  0  0  0  0  0  0
    6.1910   -5.1350   29.0280 C   0  0  0  0  0  0  0  0  0  0  0  0
    4.9330   -4.7760   28.6690 C   0  0  0  0  0  0  0  0  0  0  0  0
    4.8180   -3.6990   27.8080 C   0  0  1  0  0  0  0  0  0  0  0  0
    5.2350   -2.3080   28.3120 C   0  0  0  0  0  0  0  0  0  0  0  0
    4.3410   -1.5170   27.4110 C   0  0  0  0  0  0  0  0  0  0  0  0
    3.0970   -1.4900   28.2450 C   0  0  0  0  0  0  0  0  0  0  0  0
    2.6720   -2.6820   28.3880 N   0  0  0  0  0  0  0  0  0  0  0  0
    1.2150   -2.6230   28.4700 C   0  0  0  0  0  0  0  0  0  0  0  0
    0.4680   -2.9670   27.3370 O   0  0  0  0  0  0  0  0  0  0  0  0
    0.5820   -2.2750   29.5000 O   0  0  0  0  0  0  0  0  0  0  0  0
    0.1840   -3.2180   30.4580 C   0  0  0  0  0  0  0  0  0  0  0  0
   -1.0410   -3.9810   29.9770 C   0  0  0  0  0  0  0  0  0  0  0  0
   -1.8450   -3.5660   28.7720 C   0  0  0  0  0  0  0  0  0  0  0  0
   -3.0590   -4.3420   28.3130 C   0  0  0  0  0  0  0  0  0  0  0  0
   -3.4700   -5.4560   28.9860 C   0  0  0  0  0  0  0  0  0  0  0  0
   -2.6930   -5.8970   30.1860 C   0  0  0  0  0  0  0  0  0  0  0  0
   -1.4630   -5.1140   30.6550 C   0  0  0  0  0  0  0  0  0  0  0  0
    3.3140   -3.6870   27.5640 C   0  0  0  0  0  0  0  0  0  0  0  0
    6.7380   -2.8510   23.3750 C   0  0  0  0  0  0  0  0  0  0  0  0
    7.6750   -3.3670   22.2730 C   0  0  0  0  0  0  0  0  0  0  0  0
  1  2  1  0
  2  3  2  0
  2  4  1  0
  4  5  1  0
  5  6  1  0
  6  7  1  0
  7  8  1  0
  8  9  2  0
  8 10  1  0
 10 11  1  0
 11 12  1  0
 12 13  1  0
 13 14  1  0
 15 10  1  0
 15 14  1  1
 15 16  1  0
 16 17  1  0
 17 18  1  0
 18 19  1  0
 19 20  1  0
 20 21  2  0
 20 22  1  0
 22 23  1  0
 23 24  1  0
 24 25  2  0
 25 26  1  0
 26 27  2  0
 27 28  1  0
 24 29  1  0
 28 29  2  0
 15 30  1  0
 19 30  1  0
  7 31  1  0
  4 32  1  0
 31 32  1  0
M  END
