piperidine-amides-13996-covalent
     RDKit          3D

 25 27  0  0  0  0  0  0  0  0999 V2000
    7.1060   -3.2700   19.2130 C   0  0  0  0  0  0  0  0  0  0  0  0
    6.3350   -4.0400   20.2280 C   0  0  0  0  0  0  0  0  0  0  0  0
    5.2710   -4.5810   19.8940 O   0  0  0  0  0  0  0  0  0  0  0  0
    6.8590   -4.1780   21.5260 N   0  0  0  0  0  0  0  0  0  0  0  0
    7.6870   -3.1740   22.1570 C   0  0  0  0  0  0  0  0  0  0  0  0
    6.8590   -2.5670   23.2890 C   0  0  0  0  0  0  0  0  0  0  0  0
    6.5680   -3.6890   24.2270 C   0  0  0  0  0  0  0  0  0  0  0  0
    5.7380   -3.2990   25.3870 C   0  0  0  0  0  0  0  0  0  0  0  0
    4.5130   -3.3260   25.2260 O   0  0  0  0  0  0  0  0  0  0  0  0
    6.3360   -2.9300   26.5990 N   0  0  0  0  0  0  0  0  0  0  0  0
    6.4960   -1.6040   27.0730 C   0  0  0  0  0  0  0  0  0  0  0  0
    6.4520   -1.2330   28.3980 C   0  0  0  0  0  0  0  0  0  0  0  0
    7.5240   -1.1460   29.2580 C   0  0  0  0  0  0  0  0  0  0  0  0
    7.1040   -0.7480   30.4560 C   0  0  0  0  0  0  0  0  0  0  0  0
    5.7690   -0.5590   30.4520 N   0  0  0  0  0  0  0  0  0  0  0  0
    5.0250   -0.1540   31.4960 C   0  0  0  0  0  0  0  0  0  0  0  0
    4.6600    1.3360   31.5560 C   0  0  0  0  0  0  0  0  0  0  0  0
    5.8420    2.2540   31.6500 C   0  0  0  0  0  0  0  0  0  0  0  0
    5.6240    3.6050   31.7080 C   0  0  0  0  0  0  0  0  0  0  0  0
    4.2990    4.3060   31.6880 C   0  0  0  0  0  0  0  0  0  0  0  0
    3.1650    3.2550   31.5900 C   0  0  0  0  0  0  0  0  0  0  0  0
    3.3100    1.8800   31.5280 C   0  0  0  0  0  0  0  0  0  0  0  0
    5.3680   -0.8580   29.1860 N   0  0  0  0  0  0  0  0  0  0  0  0
    5.9060   -4.8810   23.5980 C   0  0  0  0  0  0  0  0  0  0  0  0
    6.5450   -5.3550   22.3150 C   0  0  0  0  0  0  0  0  0  0  0  0
  1  2  1  0
  2  3  2  0
  2  4  1  0
  4  5  1  0
  5  6  1  0
  6  7  1  0
  7  8  1  0
  8  9  2  0
  8 10  1  0
 10 11  1  0
 11 12  1  0
 12 13  1  0
 13 14  2  0
 14 15  1  0
 15 16  1  0
 16 17  1  0
 17 18  2  0
 18 19  1  0
 19 20  2  0
 20 21  1  0
 17 22  1  0
 21 22  2  0
 12 23  2  0
 15 23  1  0
  7 24  1  0
  4 25  1  0
 24 25  1  0
M  END
