piperidine-amides-8824-covalent
     RDKit          3D

 22 24  0  0  0  0  0  0  0  0999 V2000
    7.0680   -3.2900   19.2690 C   0  0  0  0  0  0  0  0  0  0  0  0
    6.3740   -4.0970   20.2700 C   0  0  0  0  0  0  0  0  0  0  0  0
    5.3220   -4.6650   19.9290 O   0  0  0  0  0  0  0  0  0  0  0  0
    6.9200   -4.2670   21.5700 N   0  0  0  0  0  0  0  0  0  0  0  0
    6.5350   -5.4170   22.3290 C   0  0  0  0  0  0  0  0  0  0  0  0
    5.7120   -4.9640   23.4970 C   0  0  0  0  0  0  0  0  0  0  0  0
    6.5030   -3.8900   24.2120 C   0  0  0  0  0  0  0  0  0  0  0  0
    5.6850   -3.3290   25.3470 C   0  0  0  0  0  0  0  0  0  0  0  0
    4.5310   -3.0190   25.0640 O   0  0  0  0  0  0  0  0  0  0  0  0
    6.2550   -3.1920   26.6170 N   0  0  0  0  0  0  0  0  0  0  0  0
    6.1470   -4.2000   27.6370 C   0  0  0  0  0  0  0  0  0  0  0  0
    4.8800   -4.4220   28.1880 C   0  0  1  0  0  0  0  0  0  0  0  0
    4.6500   -5.7540   28.5150 C   0  0  0  0  0  0  0  0  0  0  0  0
    4.7370   -6.2340   29.8120 C   0  0  0  0  0  0  0  0  0  0  0  0
    3.6800   -5.4150   30.4620 C   0  0  0  0  0  0  0  0  0  0  0  0
    3.4810   -4.0820   29.7190 C   0  0  1  0  0  0  0  0  0  0  0  0
    3.1140   -2.9060   30.5510 C   0  0  0  0  0  0  0  0  0  0  0  0
    1.9010   -3.1510   31.1280 C   0  0  0  0  0  0  0  0  0  0  0  0
    3.2360   -2.7520   31.9610 C   0  0  0  0  0  0  0  0  0  0  0  0
    4.6010   -3.7640   29.2300 O   0  0  0  0  0  0  0  0  0  0  0  0
    6.7810   -2.7440   23.2640 C   0  0  0  0  0  0  0  0  0  0  0  0
    7.6000   -3.1910   22.2520 C   0  0  0  0  0  0  0  0  0  0  0  0
  1  2  1  0
  2  3  2  0
  2  4  1  0
  4  5  1  0
  5  6  1  0
  6  7  1  0
  7  8  1  0
  8  9  2  0
  8 10  1  0
 10 11  1  0
 12 11  1  1
 12 13  1  0
 13 14  1  0
 14 15  1  0
 15 16  1  0
 16 17  1  1
 17 18  1  0
 17 19  1  0
 18 19  1  0
 12 20  1  0
 16 20  1  0
  7 21  1  0
  4 22  1  0
 21 22  1  0
M  END
