piperidine-amides-4110-covalent
     RDKit          3D

 27 29  0  0  0  0  0  0  0  0999 V2000
    7.0710   -3.3560   19.3440 C   0  0  0  0  0  0  0  0  0  0  0  0
    6.3510   -4.1410   20.3600 C   0  0  0  0  0  0  0  0  0  0  0  0
    5.3290   -4.7480   19.9580 O   0  0  0  0  0  0  0  0  0  0  0  0
    6.8040   -4.2650   21.7080 N   0  0  0  0  0  0  0  0  0  0  0  0
    7.6420   -3.2420   22.2540 C   0  0  0  0  0  0  0  0  0  0  0  0
    7.2570   -2.9050   23.6040 C   0  0  0  0  0  0  0  0  0  0  0  0
    6.1090   -3.7270   23.9970 C   0  0  0  0  0  0  0  0  0  0  0  0
    5.5670   -3.3910   25.3620 C   0  0  0  0  0  0  0  0  0  0  0  0
    4.3360   -3.4530   25.5330 O   0  0  0  0  0  0  0  0  0  0  0  0
    6.3630   -2.9930   26.4550 N   0  0  0  0  0  0  0  0  0  0  0  0
    6.3730   -1.7120   27.0580 C   0  0  0  0  0  0  0  0  0  0  0  0
    5.8570   -0.4590   26.5180 C   0  0  0  0  0  0  0  0  0  0  0  0
    5.9690    0.8530   27.3410 C   0  0  0  0  0  0  0  0  0  0  0  0
    6.5520    0.9230   28.6090 C   0  0  0  0  0  0  0  0  0  0  0  0
    6.5150    2.3640   29.1280 C   0  0  2  0  0  0  0  0  0  0  0  0
    5.3880    1.9620   30.0200 C   0  0  0  0  0  0  0  0  0  0  0  0
    6.2310    3.2890   28.0660 N   0  0  0  0  0  0  0  0  0  0  0  0
    7.3850    3.9100   27.7580 C   0  0  0  0  0  0  0  0  0  0  0  0
    7.5090    4.7880   26.6790 O   0  0  0  0  0  0  0  0  0  0  0  0
    8.3560    3.5460   28.6400 N   0  0  0  0  0  0  0  0  0  0  0  0
    9.2340    4.5400   28.8100 C   0  0  0  0  0  0  0  0  0  0  0  0
    7.8230    2.6980   29.7330 C   0  0  0  0  0  0  0  0  0  0  0  0
    8.4830    2.4240   30.8970 O   0  0  0  0  0  0  0  0  0  0  0  0
    7.0800   -0.4090   29.1570 C   0  0  0  0  0  0  0  0  0  0  0  0
    6.9890   -1.6680   28.4060 C   0  0  0  0  0  0  0  0  0  0  0  0
    6.3680   -5.1920   23.8230 C   0  0  0  0  0  0  0  0  0  0  0  0
    6.5050   -5.4710   22.4520 C   0  0  0  0  0  0  0  0  0  0  0  0
  1  2  1  0
  2  3  2  0
  2  4  1  0
  4  5  1  0
  5  6  1  0
  6  7  1  0
  7  8  1  0
  8  9  2  0
  8 10  1  0
 10 11  1  0
 11 12  2  0
 12 13  1  0
 13 14  2  0
 14 15  1  0
 15 16  1  1
 15 17  1  0
 17 18  1  0
 18 19  2  0
 18 20  1  0
 20 21  1  0
 15 22  1  0
 20 22  1  0
 22 23  2  0
 14 24  1  0
 11 25  1  0
 24 25  2  0
  7 26  1  0
  4 27  1  0
 26 27  1  0
M  END
