piperidine-amides-14769-covalent
     RDKit          3D

 22 23  0  0  0  0  0  0  0  0999 V2000
    7.0720   -3.3060   19.3230 C   0  0  0  0  0  0  0  0  0  0  0  0
    6.3200   -4.0760   20.3090 C   0  0  0  0  0  0  0  0  0  0  0  0
    5.2950   -4.6630   19.9250 O   0  0  0  0  0  0  0  0  0  0  0  0
    6.7800   -4.1820   21.6500 N   0  0  0  0  0  0  0  0  0  0  0  0
    6.6230   -5.4350   22.3420 C   0  0  0  0  0  0  0  0  0  0  0  0
    6.0560   -5.1950   23.7150 C   0  0  0  0  0  0  0  0  0  0  0  0
    5.9880   -3.6960   23.8680 C   0  0  0  0  0  0  0  0  0  0  0  0
    5.5180   -3.2970   25.2410 C   0  0  0  0  0  0  0  0  0  0  0  0
    4.4240   -2.7450   25.2770 O   0  0  0  0  0  0  0  0  0  0  0  0
    6.3020   -3.5590   26.3580 N   0  0  0  0  0  0  0  0  0  0  0  0
    5.7890   -4.2810   27.4880 C   0  0  1  0  0  0  0  0  0  0  0  0
    6.0820   -5.6560   27.5590 C   0  0  0  0  0  0  0  0  0  0  0  0
    6.4140   -3.6950   28.6870 C   0  0  0  0  0  0  0  0  0  0  0  0
    6.5790   -2.3170   28.8010 C   0  0  0  0  0  0  0  0  0  0  0  0
    5.8880   -1.5670   29.7750 N   0  0  0  0  0  0  0  0  0  0  0  0
    4.4760   -1.8900   30.0070 C   0  0  0  0  0  0  0  0  0  0  0  0
    3.8410   -0.8570   30.9620 C   0  0  0  0  0  0  0  0  0  0  0  0
    4.6530   -0.7470   31.9110 O   0  0  0  0  0  0  0  0  0  0  0  0
    5.7560   -0.0030   31.5940 C   0  0  0  0  0  0  0  0  0  0  0  0
    6.5760   -0.4800   30.4330 C   0  0  0  0  0  0  0  0  0  0  0  0
    7.2190   -2.9720   23.5420 C   0  0  0  0  0  0  0  0  0  0  0  0
    7.6430   -3.1780   22.2490 C   0  0  0  0  0  0  0  0  0  0  0  0
  1  2  1  0
  2  3  2  0
  2  4  1  0
  4  5  1  0
  5  6  1  0
  6  7  1  0
  7  8  1  0
  8  9  2  0
  8 10  1  0
 10 11  1  0
 11 12  1  6
 11 13  1  0
 13 14  1  0
 14 15  1  0
 15 16  1  0
 16 17  1  0
 17 18  1  0
 18 19  1  0
 15 20  1  0
 19 20  1  0
  7 21  1  0
  4 22  1  0
 21 22  1  0
M  END
