piperidine-amides-10150-covalent
     RDKit          3D

 25 26  0  0  0  0  0  0  0  0999 V2000
    7.0210   -3.2480   19.2430 C   0  0  0  0  0  0  0  0  0  0  0  0
    6.3030   -4.0270   20.2680 C   0  0  0  0  0  0  0  0  0  0  0  0
    5.2550   -4.6030   19.8950 O   0  0  0  0  0  0  0  0  0  0  0  0
    6.7840   -4.1520   21.5740 N   0  0  0  0  0  0  0  0  0  0  0  0
    6.6410   -5.3930   22.2900 C   0  0  0  0  0  0  0  0  0  0  0  0
    6.0930   -5.0790   23.6570 C   0  0  0  0  0  0  0  0  0  0  0  0
    5.8850   -3.5950   23.8650 C   0  0  0  0  0  0  0  0  0  0  0  0
    5.6440   -3.2800   25.3020 C   0  0  0  0  0  0  0  0  0  0  0  0
    4.4520   -3.2230   25.6760 O   0  0  0  0  0  0  0  0  0  0  0  0
    6.6520   -3.0220   26.2690 N   0  0  0  0  0  0  0  0  0  0  0  0
    7.4010   -4.0760   26.9140 C   0  0  2  0  0  0  0  0  0  0  0  0
    8.3360   -4.6990   25.9000 C   0  0  0  0  0  0  0  0  0  0  0  0
    9.5870   -4.2290   25.6090 C   0  0  0  0  0  0  0  0  0  0  0  0
   10.6940   -4.4790   26.3500 C   0  0  0  0  0  0  0  0  0  0  0  0
   11.9270   -3.9700   25.9730 C   0  0  0  0  0  0  0  0  0  0  0  0
   12.0970   -3.1860   24.8490 C   0  0  0  0  0  0  0  0  0  0  0  0
   11.0420   -2.8870   24.0500 C   0  0  0  0  0  0  0  0  0  0  0  0
   11.3000   -1.8200   22.4950 Br  0  0  0  0  0  0  0  0  0  0  0  0
    9.7100   -3.4520   24.4750 C   0  0  0  0  0  0  0  0  0  0  0  0
    6.6600   -5.2310   27.4550 C   0  0  0  0  0  0  0  0  0  0  0  0
    5.8650   -5.8090   26.6850 O   0  0  0  0  0  0  0  0  0  0  0  0
    6.7790   -5.6010   28.5060 O   0  0  0  0  0  0  0  0  0  0  0  0
    6.0870   -6.6830   29.0660 C   0  0  0  0  0  0  0  0  0  0  0  0
    7.0330   -2.7420   23.3810 C   0  0  0  0  0  0  0  0  0  0  0  0
    7.6420   -3.1460   22.2040 C   0  0  0  0  0  0  0  0  0  0  0  0
  1  2  1  0
  2  3  2  0
  2  4  1  0
  4  5  1  0
  5  6  1  0
  6  7  1  0
  7  8  1  0
  8  9  2  0
  8 10  1  0
 10 11  1  0
 11 12  1  6
 12 13  1  0
 13 14  2  0
 14 15  1  0
 15 16  2  0
 16 17  1  0
 17 18  1  0
 13 19  1  0
 17 19  2  0
 11 20  1  0
 20 21  2  0
 20 22  1  0
 22 23  1  0
  7 24  1  0
  4 25  1  0
 24 25  1  0
M  END
