piperidine-amides-27302-covalent
     RDKit          3D

 25 26  0  0  0  0  0  0  0  0999 V2000
    7.0390   -3.3480   19.3510 C   0  0  0  0  0  0  0  0  0  0  0  0
    6.3780   -4.2080   20.3340 C   0  0  0  0  0  0  0  0  0  0  0  0
    5.3300   -4.7870   19.9580 O   0  0  0  0  0  0  0  0  0  0  0  0
    6.9290   -4.4050   21.6030 N   0  0  0  0  0  0  0  0  0  0  0  0
    6.6130   -5.5880   22.3580 C   0  0  0  0  0  0  0  0  0  0  0  0
    5.7610   -5.1620   23.5220 C   0  0  0  0  0  0  0  0  0  0  0  0
    6.3280   -3.9560   24.2230 C   0  0  0  0  0  0  0  0  0  0  0  0
    5.3330   -3.4200   25.1960 C   0  0  0  0  0  0  0  0  0  0  0  0
    4.4360   -2.6850   24.7510 O   0  0  0  0  0  0  0  0  0  0  0  0
    5.3480   -3.6850   26.5850 N   0  0  0  0  0  0  0  0  0  0  0  0
    6.5220   -3.3500   27.2690 C   0  0  0  0  0  0  0  0  0  0  0  0
    6.7720   -4.4450   28.2880 C   0  0  0  0  0  0  0  0  0  0  0  0
    5.8620   -4.5460   29.2290 C   0  0  0  0  0  0  0  0  0  0  0  0
    4.6090   -4.1570   28.8650 C   0  0  2  0  0  0  0  0  0  0  0  0
    3.7750   -5.2080   28.7950 N   0  0  0  0  0  0  0  0  0  0  0  0
    2.5430   -5.0690   28.3170 C   0  0  0  0  0  0  0  0  0  0  0  0
    1.7960   -3.9780   28.7100 O   0  0  0  0  0  0  0  0  0  0  0  0
    1.9770   -5.9840   27.4420 O   0  0  0  0  0  0  0  0  0  0  0  0
    2.5870   -7.2370   27.3460 C   0  0  0  0  0  0  0  0  0  0  0  0
    3.4470   -7.3960   26.2760 C   0  0  0  0  0  0  0  0  0  0  0  0
    2.2820   -8.3460   26.3120 C   0  0  0  0  0  0  0  0  0  0  0  0
    3.1250   -7.7260   28.6590 C   0  0  0  0  0  0  0  0  0  0  0  0
    4.6060   -3.2780   27.7740 C   0  0  0  0  0  0  0  0  0  0  0  0
    6.7150   -2.8620   23.2610 C   0  0  0  0  0  0  0  0  0  0  0  0
    7.6210   -3.3450   22.3410 C   0  0  0  0  0  0  0  0  0  0  0  0
  1  2  1  0
  2  3  2  0
  2  4  1  0
  4  5  1  0
  5  6  1  0
  6  7  1  0
  7  8  1  0
  8  9  2  0
  8 10  1  0
 10 11  1  0
 11 12  1  0
 12 13  1  0
 13 14  1  0
 14 15  1  6
 15 16  1  0
 16 17  2  0
 16 18  1  0
 19 18  1  0
 19 20  1  0
 19 21  1  0
 19 22  1  0
 10 23  1  0
 14 23  1  0
  7 24  1  0
  4 25  1  0
 24 25  1  0
M  END
