piperidine-amides-33800-covalent
     RDKit          3D

 30 32  0  0  0  0  0  0  0  0999 V2000
    7.1800   -3.3190   19.2910 C   0  0  0  0  0  0  0  0  0  0  0  0
    6.4170   -4.1020   20.2580 C   0  0  0  0  0  0  0  0  0  0  0  0
    5.2990   -4.5380   19.8910 O   0  0  0  0  0  0  0  0  0  0  0  0
    6.9730   -4.4260   21.5160 N   0  0  0  0  0  0  0  0  0  0  0  0
    6.5290   -5.6100   22.1270 C   0  0  0  0  0  0  0  0  0  0  0  0
    5.8340   -5.3570   23.3660 C   0  0  0  0  0  0  0  0  0  0  0  0
    6.4800   -4.3910   24.2660 C   0  0  0  0  0  0  0  0  0  0  0  0
    5.5050   -4.1030   25.3630 C   0  0  0  0  0  0  0  0  0  0  0  0
    4.3040   -4.1700   25.0540 O   0  0  0  0  0  0  0  0  0  0  0  0
    5.7440   -3.7000   26.6860 N   0  0  0  0  0  0  0  0  0  0  0  0
    4.5430   -3.6690   27.4980 C   0  0  0  0  0  0  0  0  0  0  0  0
    4.5160   -3.7900   28.9420 C   0  0  2  0  0  0  0  0  0  0  0  0
    4.3490   -2.3730   29.5190 C   0  0  0  0  0  0  0  0  0  0  0  0
    5.5660   -4.2450   29.5200 N   0  0  0  0  0  0  0  0  0  0  0  0
    4.7470   -5.3540   29.8350 C   0  0  0  0  0  0  0  0  0  0  0  0
    4.8160   -6.0060   31.0510 O   0  0  0  0  0  0  0  0  0  0  0  0
    3.9310   -5.8040   29.0500 O   0  0  0  0  0  0  0  0  0  0  0  0
    4.1360   -7.1160   28.6580 C   0  0  0  0  0  0  0  0  0  0  0  0
    2.9170   -7.8720   29.0570 C   0  0  0  0  0  0  0  0  0  0  0  0
    5.3470   -7.8110   29.3250 C   0  0  0  0  0  0  0  0  0  0  0  0
    4.3210   -7.0920   27.1780 C   0  0  0  0  0  0  0  0  0  0  0  0
    6.4040   -4.2720   28.5300 C   0  0  0  0  0  0  0  0  0  0  0  0
    6.4840   -2.8300   27.9620 C   0  0  0  0  0  0  0  0  0  0  0  0
    7.1030   -2.3220   29.2620 C   0  0  0  0  0  0  0  0  0  0  0  0
    7.2830   -0.9920   28.9840 C   0  0  0  0  0  0  0  0  0  0  0  0
    7.0110   -0.3360   27.8950 C   0  0  0  0  0  0  0  0  0  0  0  0
    6.4380   -1.0540   26.8040 C   0  0  0  0  0  0  0  0  0  0  0  0
    6.0610   -2.3440   26.6390 C   0  0  0  0  0  0  0  0  0  0  0  0
    6.8250   -3.1110   23.5220 C   0  0  0  0  0  0  0  0  0  0  0  0
    7.6510   -3.4120   22.2860 C   0  0  0  0  0  0  0  0  0  0  0  0
  1  2  1  0
  2  3  2  0
  2  4  1  0
  4  5  1  0
  5  6  1  0
  6  7  1  0
  7  8  1  0
  8  9  2  0
  8 10  1  0
 10 11  1  0
 11 12  1  0
 12 13  1  1
 12 14  1  0
 14 15  1  0
 15 16  2  0
 15 17  1  0
 18 17  1  0
 18 19  1  0
 18 20  1  0
 18 21  1  0
 14 22  1  0
 22 23  1  0
 23 24  1  0
 24 25  2  0
 25 26  1  0
 26 27  2  0
 10 28  1  0
 23 28  2  0
 27 28  1  0
  7 29  1  0
  4 30  1  0
 29 30  1  0
M  END
