piperidine-amides-23303-covalent
     RDKit          3D

 24 26  0  0  0  0  0  0  0  0999 V2000
    7.1370   -3.2760   19.2150 C   0  0  0  0  0  0  0  0  0  0  0  0
    6.4080   -4.0250   20.2520 C   0  0  0  0  0  0  0  0  0  0  0  0
    5.3250   -4.5550   19.9020 O   0  0  0  0  0  0  0  0  0  0  0  0
    6.9420   -4.2030   21.5570 N   0  0  0  0  0  0  0  0  0  0  0  0
    6.5780   -5.3720   22.2760 C   0  0  0  0  0  0  0  0  0  0  0  0
    5.8590   -5.0230   23.4800 C   0  0  0  0  0  0  0  0  0  0  0  0
    5.9940   -3.5860   23.7640 C   0  0  0  0  0  0  0  0  0  0  0  0
    5.4680   -3.2760   25.1330 C   0  0  0  0  0  0  0  0  0  0  0  0
    5.0030   -4.2050   25.8080 O   0  0  0  0  0  0  0  0  0  0  0  0
    5.4410   -1.9820   25.6960 N   0  0  0  0  0  0  0  0  0  0  0  0
    6.4790   -1.3450   26.3110 C   0  0  0  0  0  0  0  0  0  0  0  0
    5.7500   -1.2200   27.5260 C   0  0  0  0  0  0  0  0  0  0  0  0
    5.8320   -1.9890   28.6350 N   0  0  0  0  0  0  0  0  0  0  0  0
    6.3280   -3.3430   28.6910 C   0  0  0  0  0  0  0  0  0  0  0  0
    6.8430   -1.0990   29.1220 C   0  0  0  0  0  0  0  0  0  0  0  0
    6.1920   -0.3030   30.2540 C   0  0  0  0  0  0  0  0  0  0  0  0
    5.1260   -1.2110   30.7870 C   0  0  0  0  0  0  0  0  0  0  0  0
    4.4620   -0.4170   31.9390 C   0  0  0  0  0  0  0  0  0  0  0  0
    4.7520    0.9740   32.4760 C   0  0  0  0  0  0  0  0  0  0  0  0
    5.8640    1.7660   31.8230 C   0  0  0  0  0  0  0  0  0  0  0  0
    6.5900    1.0800   30.6760 C   0  0  0  0  0  0  0  0  0  0  0  0
    4.4660   -1.7840   26.7770 C   0  0  0  0  0  0  0  0  0  0  0  0
    7.3930   -3.1030   23.5400 C   0  0  0  0  0  0  0  0  0  0  0  0
    7.7110   -3.1400   22.1800 C   0  0  0  0  0  0  0  0  0  0  0  0
  1  2  1  0
  2  3  2  0
  2  4  1  0
  4  5  1  0
  5  6  1  0
  6  7  1  0
  7  8  1  0
  8  9  2  0
  8 10  1  0
 10 11  1  0
 11 12  1  0
 12 13  1  0
 13 14  1  0
 13 15  1  0
 15 16  1  0
 16 17  2  0
 17 18  1  0
 18 19  2  0
 19 20  1  0
 16 21  1  0
 20 21  2  0
 10 22  1  0
 12 22  1  0
  7 23  1  0
  4 24  1  0
 23 24  1  0
M  END
