piperidine-amides-3398-covalent
     RDKit          3D

 21 22  0  0  0  0  0  0  0  0999 V2000
    7.0390   -3.3010   19.2580 C   0  0  0  0  0  0  0  0  0  0  0  0
    6.3150   -4.0670   20.2700 C   0  0  0  0  0  0  0  0  0  0  0  0
    5.3180   -4.7020   19.9420 O   0  0  0  0  0  0  0  0  0  0  0  0
    6.7670   -4.1280   21.6350 N   0  0  0  0  0  0  0  0  0  0  0  0
    7.6580   -3.1170   22.1600 C   0  0  0  0  0  0  0  0  0  0  0  0
    7.3930   -2.9020   23.6180 C   0  0  0  0  0  0  0  0  0  0  0  0
    6.0710   -3.5820   23.8980 C   0  0  0  0  0  0  0  0  0  0  0  0
    5.5350   -3.2650   25.2590 C   0  0  0  0  0  0  0  0  0  0  0  0
    4.3150   -3.3260   25.4980 O   0  0  0  0  0  0  0  0  0  0  0  0
    6.4010   -2.8890   26.3160 N   0  0  0  0  0  0  0  0  0  0  0  0
    6.8440   -1.5170   26.4440 C   0  0  0  0  0  0  0  0  0  0  0  0
    5.6670   -0.5850   26.6000 C   0  0  0  0  0  0  0  0  0  0  0  0
    5.7240    0.7430   26.3040 C   0  0  0  0  0  0  0  0  0  0  0  0
    4.4760    1.2950   26.5650 N   0  0  0  0  0  0  0  0  0  0  0  0
    4.1190    2.6730   26.3830 C   0  0  0  0  0  0  0  0  0  0  0  0
    2.8460    2.9300   26.8460 C   0  0  0  0  0  0  0  0  0  0  0  0
    2.4930    2.6990   28.2400 C   0  0  0  0  0  0  0  0  0  0  0  0
    3.6450    0.3840   27.0090 N   0  0  0  0  0  0  0  0  0  0  0  0
    4.3770   -0.7620   27.0290 N   0  0  0  0  0  0  0  0  0  0  0  0
    6.0750   -5.0750   23.6610 C   0  0  0  0  0  0  0  0  0  0  0  0
    6.6360   -5.3600   22.4250 C   0  0  0  0  0  0  0  0  0  0  0  0
  1  2  1  0
  2  3  2  0
  2  4  1  0
  4  5  1  0
  5  6  1  0
  6  7  1  0
  7  8  1  0
  8  9  2  0
  8 10  1  0
 10 11  1  0
 11 12  1  0
 12 13  2  0
 13 14  1  0
 14 15  1  0
 15 16  1  0
 16 17  2  3
 14 18  1  0
 12 19  1  0
 18 19  2  0
  7 20  1  0
  4 21  1  0
 20 21  1  0
M  END
