piperidine-amides-5078-covalent
     RDKit          3D

 22 23  0  0  0  0  0  0  0  0999 V2000
    7.1030   -3.2630   19.1410 C   0  0  0  0  0  0  0  0  0  0  0  0
    6.3440   -3.9930   20.1820 C   0  0  0  0  0  0  0  0  0  0  0  0
    5.2450   -4.4670   19.8400 O   0  0  0  0  0  0  0  0  0  0  0  0
    6.8590   -4.1960   21.4640 N   0  0  0  0  0  0  0  0  0  0  0  0
    7.5850   -3.1440   22.1040 C   0  0  0  0  0  0  0  0  0  0  0  0
    7.0740   -2.7580   23.4160 C   0  0  0  0  0  0  0  0  0  0  0  0
    6.5210   -3.8620   24.2270 C   0  0  0  0  0  0  0  0  0  0  0  0
    5.7950   -3.3350   25.4130 C   0  0  0  0  0  0  0  0  0  0  0  0
    4.5750   -3.1180   25.2980 O   0  0  0  0  0  0  0  0  0  0  0  0
    6.4620   -3.0720   26.6260 N   0  0  0  0  0  0  0  0  0  0  0  0
    6.2630   -3.8470   27.8830 C   0  0  0  0  0  0  0  0  0  0  0  0
    5.9120   -5.2890   27.6720 C   0  0  0  0  0  0  0  0  0  0  0  0
    4.7330   -5.7750   28.3900 C   0  0  0  0  0  0  0  0  0  0  0  0
    4.3630   -7.0810   28.1770 C   0  0  0  0  0  0  0  0  0  0  0  0
    3.1060   -7.5160   28.5570 C   0  0  0  0  0  0  0  0  0  0  0  0
    2.1060   -6.5980   28.6690 C   0  0  0  0  0  0  0  0  0  0  0  0
    1.5090   -6.5190   29.9060 F   0  0  0  0  0  0  0  0  0  0  0  0
    1.0750   -7.1420   27.8660 F   0  0  0  0  0  0  0  0  0  0  0  0
    2.4170   -5.3840   28.1450 C   0  0  0  0  0  0  0  0  0  0  0  0
    3.6630   -4.9060   28.4380 C   0  0  0  0  0  0  0  0  0  0  0  0
    5.6880   -4.8060   23.4100 C   0  0  0  0  0  0  0  0  0  0  0  0
    6.4730   -5.3260   22.2740 C   0  0  0  0  0  0  0  0  0  0  0  0
  1  2  1  0
  2  3  2  0
  2  4  1  0
  4  5  1  0
  5  6  1  0
  6  7  1  0
  7  8  1  0
  8  9  2  0
  8 10  1  0
 10 11  1  0
 11 12  1  0
 12 13  1  0
 13 14  1  0
 14 15  1  0
 15 16  1  0
 16 17  1  0
 16 18  1  0
 16 19  1  0
 13 20  1  0
 19 20  1  0
  7 21  1  0
  4 22  1  0
 21 22  1  0
M  END
