piperidine-amides-11853-covalent
     RDKit          3D

 27 28  0  0  0  0  0  0  0  0999 V2000
    7.1230   -3.3390   19.3220 C   0  0  0  0  0  0  0  0  0  0  0  0
    6.3600   -4.1250   20.2790 C   0  0  0  0  0  0  0  0  0  0  0  0
    5.3210   -4.6870   19.9370 O   0  0  0  0  0  0  0  0  0  0  0  0
    6.8640   -4.2830   21.6100 N   0  0  0  0  0  0  0  0  0  0  0  0
    7.6910   -3.2480   22.1780 C   0  0  0  0  0  0  0  0  0  0  0  0
    6.9920   -2.6220   23.3420 C   0  0  0  0  0  0  0  0  0  0  0  0
    6.6180   -3.7480   24.2750 C   0  0  0  0  0  0  0  0  0  0  0  0
    5.7890   -3.2220   25.3920 C   0  0  0  0  0  0  0  0  0  0  0  0
    4.5930   -2.8990   25.2470 O   0  0  0  0  0  0  0  0  0  0  0  0
    6.3890   -3.1020   26.6650 N   0  0  0  0  0  0  0  0  0  0  0  0
    6.4340   -1.8220   27.3400 C   0  0  0  0  0  0  0  0  0  0  0  0
    5.7690   -0.6500   26.6730 C   0  0  0  0  0  0  0  0  0  0  0  0
    5.7550    0.6220   27.2560 C   0  0  0  0  0  0  0  0  0  0  0  0
    6.3630    0.9120   28.5100 C   0  0  0  0  0  0  0  0  0  0  0  0
    6.3660    2.1500   29.1150 C   0  0  0  0  0  0  0  0  0  0  0  0
    7.2860    2.9480   28.8730 O   0  0  0  0  0  0  0  0  0  0  0  0
    5.3080    2.5000   30.0040 N   0  0  0  0  0  0  0  0  0  0  0  0
    5.2960    2.0320   31.3560 C   0  0  0  0  0  0  0  0  0  0  0  0
    5.4270    3.2330   32.0140 C   0  0  0  0  0  0  0  0  0  0  0  0
    4.6770    3.4420   33.1520 C   0  0  0  0  0  0  0  0  0  0  0  0
    4.0400    2.7070   29.5890 C   0  0  0  0  0  0  0  0  0  0  0  0
    3.7350    3.2690   28.2660 C   0  0  0  0  0  0  0  0  0  0  0  0
    3.0470    2.4600   27.3780 C   0  0  0  0  0  0  0  0  0  0  0  0
    7.0410   -0.2510   29.1940 C   0  0  0  0  0  0  0  0  0  0  0  0
    7.0400   -1.5770   28.5620 C   0  0  0  0  0  0  0  0  0  0  0  0
    5.8350   -4.8670   23.6500 C   0  0  0  0  0  0  0  0  0  0  0  0
    6.4970   -5.4140   22.4030 C   0  0  0  0  0  0  0  0  0  0  0  0
  1  2  1  0
  2  3  2  0
  2  4  1  0
  4  5  1  0
  5  6  1  0
  6  7  1  0
  7  8  1  0
  8  9  2  0
  8 10  1  0
 10 11  1  0
 11 12  2  0
 12 13  1  0
 13 14  2  0
 14 15  1  0
 15 16  2  0
 15 17  1  0
 17 18  1  0
 18 19  1  0
 19 20  1  0
 17 21  1  0
 21 22  1  0
 22 23  1  0
 14 24  1  0
 11 25  1  0
 24 25  2  0
  7 26  1  0
  4 27  1  0
 26 27  1  0
M  END
