piperidine-amides-12879-covalent
     RDKit          3D

 21 22  0  0  0  0  0  0  0  0999 V2000
    7.0420   -3.3580   19.3100 C   0  0  0  0  0  0  0  0  0  0  0  0
    6.4020   -4.2030   20.3450 C   0  0  0  0  0  0  0  0  0  0  0  0
    5.3840   -4.8270   19.9810 O   0  0  0  0  0  0  0  0  0  0  0  0
    6.9410   -4.3290   21.6390 N   0  0  0  0  0  0  0  0  0  0  0  0
    6.5930   -5.4440   22.4580 C   0  0  0  0  0  0  0  0  0  0  0  0
    5.9940   -5.0290   23.7260 C   0  0  0  0  0  0  0  0  0  0  0  0
    6.0990   -3.5730   23.9430 C   0  0  0  0  0  0  0  0  0  0  0  0
    5.6340   -3.1810   25.2970 C   0  0  0  0  0  0  0  0  0  0  0  0
    4.4160   -3.2800   25.5470 O   0  0  0  0  0  0  0  0  0  0  0  0
    6.5260   -2.7060   26.2700 N   0  0  0  0  0  0  0  0  0  0  0  0
    6.4030   -1.3850   26.9350 C   0  0  0  0  0  0  0  0  0  0  0  0
    5.9540   -0.1950   26.2010 C   0  0  0  0  0  0  0  0  0  0  0  0
    5.8610    1.0630   26.9140 C   0  0  0  0  0  0  0  0  0  0  0  0
    5.3330    2.5390   26.1240 Cl  0  0  0  0  0  0  0  0  0  0  0  0
    6.2000    1.0950   28.2510 C   0  0  0  0  0  0  0  0  0  0  0  0
    6.0770    2.7650   29.1920 Br  0  0  0  0  0  0  0  0  0  0  0  0
    6.6250   -0.0320   28.9420 C   0  0  0  0  0  0  0  0  0  0  0  0
    6.7290   -1.2470   28.3250 C   0  0  0  0  0  0  0  0  0  0  0  0
    7.1340   -2.2750   29.0550 C   0  0  0  0  0  0  0  0  0  0  0  0
    7.4180   -3.0070   23.5790 C   0  0  0  0  0  0  0  0  0  0  0  0
    7.7020   -3.2350   22.2240 C   0  0  0  0  0  0  0  0  0  0  0  0
  1  2  1  0
  2  3  2  0
  2  4  1  0
  4  5  1  0
  5  6  1  0
  6  7  1  0
  7  8  1  0
  8  9  2  0
  8 10  1  0
 10 11  1  0
 11 12  2  0
 12 13  1  0
 13 14  1  0
 13 15  2  0
 15 16  1  0
 15 17  1  0
 11 18  1  0
 17 18  2  0
 18 19  1  0
  7 20  1  0
  4 21  1  0
 20 21  1  0
M  END
