piperidine-amides-33699-covalent
     RDKit          3D

 28 31  0  0  0  0  0  0  0  0999 V2000
    7.1180   -3.3060   19.2260 C   0  0  0  0  0  0  0  0  0  0  0  0
    6.3750   -4.0770   20.2330 C   0  0  0  0  0  0  0  0  0  0  0  0
    5.2760   -4.5660   19.8870 O   0  0  0  0  0  0  0  0  0  0  0  0
    6.9180   -4.3190   21.5110 N   0  0  0  0  0  0  0  0  0  0  0  0
    7.6320   -3.2530   22.1330 C   0  0  0  0  0  0  0  0  0  0  0  0
    7.4880   -3.1530   23.5770 C   0  0  0  0  0  0  0  0  0  0  0  0
    6.4560   -4.0050   24.2070 C   0  0  0  0  0  0  0  0  0  0  0  0
    5.5240   -3.1440   24.9850 C   0  0  0  0  0  0  0  0  0  0  0  0
    4.6120   -2.5310   24.4070 O   0  0  0  0  0  0  0  0  0  0  0  0
    5.6480   -3.0180   26.3630 N   0  0  0  0  0  0  0  0  0  0  0  0
    5.2080   -4.0640   27.2230 C   0  0  0  0  0  0  0  0  0  0  0  0
    4.2730   -3.9600   28.2210 N   0  0  0  0  0  0  0  0  0  0  0  0
    3.9420   -5.0220   28.9650 C   0  0  0  0  0  0  0  0  0  0  0  0
    2.9530   -5.0520   30.0770 C   0  0  0  0  0  0  0  0  0  0  0  0
    2.6770   -6.1830   30.7820 C   0  0  0  0  0  0  0  0  0  0  0  0
    3.4480   -7.4960   30.3860 C   0  0  0  0  0  0  0  0  0  0  0  0
    4.4800   -7.4810   29.2320 C   0  0  0  0  0  0  0  0  0  0  0  0
    4.6820   -6.1250   28.5290 C   0  0  0  0  0  0  0  0  0  0  0  0
    5.7110   -5.7500   27.2510 S   0  0  0  0  0  0  0  0  0  0  0  0
    5.9670   -1.8140   27.0720 C   0  0  0  0  0  0  0  0  0  0  0  0
    5.7380   -0.4160   26.5060 C   0  0  0  0  0  0  0  0  0  0  0  0
    6.1060    0.8040   27.3570 C   0  0  0  0  0  0  0  0  0  0  0  0
    6.6650    0.4300   28.6720 C   0  0  0  0  0  0  0  0  0  0  0  0
    6.8530   -0.8670   29.1250 C   0  0  0  0  0  0  0  0  0  0  0  0
    6.5050   -1.9520   28.3340 C   0  0  0  0  0  0  0  0  0  0  0  0
    6.6810   -3.6240   28.8150 Cl  0  0  0  0  0  0  0  0  0  0  0  0
    5.6700   -4.8510   23.2660 C   0  0  0  0  0  0  0  0  0  0  0  0
    6.4770   -5.4250   22.3050 C   0  0  0  0  0  0  0  0  0  0  0  0
  1  2  1  0
  2  3  2  0
  2  4  1  0
  4  5  1  0
  5  6  1  0
  6  7  1  0
  7  8  1  0
  8  9  2  0
  8 10  1  0
 10 11  1  0
 11 12  2  0
 12 13  1  0
 13 14  2  0
 14 15  1  0
 15 16  2  0
 16 17  1  0
 13 18  1  0
 17 18  2  0
 11 19  1  0
 18 19  1  0
 10 20  1  0
 20 21  2  0
 21 22  1  0
 22 23  2  0
 23 24  1  0
 20 25  1  0
 24 25  2  0
 25 26  1  0
  7 27  1  0
  4 28  1  0
 27 28  1  0
M  END
