piperidine-amides-8743-covalent
     RDKit          3D

 23 24  0  0  0  0  0  0  0  0999 V2000
    7.0450   -3.3460   19.3840 C   0  0  0  0  0  0  0  0  0  0  0  0
    6.3300   -4.1520   20.3720 C   0  0  0  0  0  0  0  0  0  0  0  0
    5.3680   -4.8370   19.9760 O   0  0  0  0  0  0  0  0  0  0  0  0
    6.7480   -4.1760   21.7320 N   0  0  0  0  0  0  0  0  0  0  0  0
    7.6820   -3.1770   22.1880 C   0  0  0  0  0  0  0  0  0  0  0  0
    7.4670   -3.0030   23.6470 C   0  0  0  0  0  0  0  0  0  0  0  0
    6.0830   -3.5410   23.8670 C   0  0  0  0  0  0  0  0  0  0  0  0
    5.6010   -3.1880   25.2420 C   0  0  0  0  0  0  0  0  0  0  0  0
    4.3870   -3.2290   25.4260 O   0  0  0  0  0  0  0  0  0  0  0  0
    6.5530   -2.8450   26.1910 N   0  0  0  0  0  0  0  0  0  0  0  0
    6.4740   -1.6480   26.9680 C   0  0  0  0  0  0  0  0  0  0  0  0
    5.9400   -0.4030   26.5750 C   0  0  0  0  0  0  0  0  0  0  0  0
    5.9010    0.7230   27.4150 C   0  0  0  0  0  0  0  0  0  0  0  0
    6.3940    0.7320   28.7340 C   0  0  0  0  0  0  0  0  0  0  0  0
    6.3690    1.8480   29.5920 N   0  0  0  0  0  0  0  0  0  0  0  0
    6.2800    3.1890   29.0230 C   0  0  0  0  0  0  0  0  0  0  0  0
    5.6530    1.4950   30.6630 C   0  0  0  0  0  0  0  0  0  0  0  0
    5.3670    0.1480   31.2290 C   0  0  0  0  0  0  0  0  0  0  0  0
    5.0800    2.3320   31.4000 O   0  0  0  0  0  0  0  0  0  0  0  0
    6.9470   -0.4610   29.2120 C   0  0  0  0  0  0  0  0  0  0  0  0
    6.9970   -1.6900   28.3340 C   0  0  0  0  0  0  0  0  0  0  0  0
    6.0930   -5.0530   23.7480 C   0  0  0  0  0  0  0  0  0  0  0  0
    6.6290   -5.3950   22.5050 C   0  0  0  0  0  0  0  0  0  0  0  0
  1  2  1  0
  2  3  2  0
  2  4  1  0
  4  5  1  0
  5  6  1  0
  6  7  1  0
  7  8  1  0
  8  9  2  0
  8 10  1  0
 10 11  1  0
 11 12  2  0
 12 13  1  0
 13 14  2  0
 14 15  1  0
 15 16  1  0
 15 17  1  0
 17 18  1  0
 17 19  2  0
 14 20  1  0
 11 21  1  0
 20 21  2  0
  7 22  1  0
  4 23  1  0
 22 23  1  0
M  END
