piperidine-amides-33289-covalent
     RDKit          3D

 29 31  0  0  0  0  0  0  0  0999 V2000
    7.0580   -3.3880   19.3550 C   0  0  0  0  0  0  0  0  0  0  0  0
    6.4260   -4.2540   20.3660 C   0  0  0  0  0  0  0  0  0  0  0  0
    5.4040   -4.8820   19.9970 O   0  0  0  0  0  0  0  0  0  0  0  0
    6.9880   -4.4030   21.6670 N   0  0  0  0  0  0  0  0  0  0  0  0
    6.5320   -5.4830   22.4850 C   0  0  0  0  0  0  0  0  0  0  0  0
    6.1350   -5.0730   23.8430 C   0  0  0  0  0  0  0  0  0  0  0  0
    6.2110   -3.6110   24.0700 C   0  0  0  0  0  0  0  0  0  0  0  0
    5.6840   -3.0940   25.3880 C   0  0  0  0  0  0  0  0  0  0  0  0
    5.3400   -1.9090   25.4380 O   0  0  0  0  0  0  0  0  0  0  0  0
    5.4960   -3.8470   26.5590 N   0  0  0  0  0  0  0  0  0  0  0  0
    4.2490   -4.2470   27.0200 C   0  0  0  0  0  0  0  0  0  0  0  0
    4.1260   -5.3350   27.9870 C   0  0  0  0  0  0  0  0  0  0  0  0
    5.4350   -5.5590   28.7550 C   0  0  0  0  0  0  0  0  0  0  0  0
    5.3490   -5.0460   29.9830 C   0  0  0  0  0  0  0  0  0  0  0  0
    4.1650   -5.8760   30.4880 C   0  0  0  0  0  0  0  0  0  0  0  0
    4.7430   -7.1340   30.7460 N   0  0  0  0  0  0  0  0  0  0  0  0
    4.8980   -7.2710   32.2100 C   0  0  0  0  0  0  0  0  0  0  0  0
    3.8350   -7.7950   32.9540 O   0  0  0  0  0  0  0  0  0  0  0  0
    6.0580   -6.8960   32.9350 O   0  0  0  0  0  0  0  0  0  0  0  0
    6.0600   -7.1540   34.3350 C   0  0  0  0  0  0  0  0  0  0  0  0
    5.9820   -8.6620   34.4340 C   0  0  0  0  0  0  0  0  0  0  0  0
    7.2860   -6.6140   35.0730 C   0  0  0  0  0  0  0  0  0  0  0  0
    4.8290   -6.5510   34.8620 C   0  0  0  0  0  0  0  0  0  0  0  0
    5.4550   -7.7070   29.8090 C   0  0  0  0  0  0  0  0  0  0  0  0
    5.8480   -6.8790   28.7730 C   0  0  0  0  0  0  0  0  0  0  0  0
    6.5310   -5.0350   28.2050 C   0  0  0  0  0  0  0  0  0  0  0  0
    6.2850   -3.6360   27.7040 C   0  0  0  0  0  0  0  0  0  0  0  0
    7.5630   -3.1070   23.7010 C   0  0  0  0  0  0  0  0  0  0  0  0
    7.7500   -3.3110   22.2130 C   0  0  0  0  0  0  0  0  0  0  0  0
  1  2  1  0
  2  3  2  0
  2  4  1  0
  4  5  1  0
  5  6  1  0
  6  7  1  0
  7  8  1  0
  8  9  2  0
  8 10  1  0
 10 11  1  0
 11 12  1  0
 13 12  1  0
 13 14  1  0
 14 15  1  0
 15 16  1  0
 16 17  1  0
 17 18  2  0
 17 19  1  0
 20 19  1  0
 20 21  1  0
 20 22  1  0
 20 23  1  0
 16 24  1  0
 13 25  1  0
 24 25  1  0
 13 26  1  0
 10 27  1  0
 26 27  1  0
  7 28  1  0
  4 29  1  0
 28 29  1  0
M  END
