piperidine-amides-8869-covalent
     RDKit          3D

 22 23  0  0  0  0  0  0  0  0999 V2000
    7.1930   -3.3200   19.2540 C   0  0  0  0  0  0  0  0  0  0  0  0
    6.4300   -4.1060   20.2100 C   0  0  0  0  0  0  0  0  0  0  0  0
    5.3030   -4.5110   19.8830 O   0  0  0  0  0  0  0  0  0  0  0  0
    7.0340   -4.4470   21.4400 N   0  0  0  0  0  0  0  0  0  0  0  0
    6.4650   -5.5190   22.1920 C   0  0  0  0  0  0  0  0  0  0  0  0
    5.6230   -4.9100   23.2640 C   0  0  0  0  0  0  0  0  0  0  0  0
    6.4560   -3.8030   23.8810 C   0  0  0  0  0  0  0  0  0  0  0  0
    5.6450   -2.9900   24.7970 C   0  0  0  0  0  0  0  0  0  0  0  0
    4.4200   -3.0590   24.7200 O   0  0  0  0  0  0  0  0  0  0  0  0
    6.3460   -2.2180   25.6720 N   0  0  0  0  0  0  0  0  0  0  0  0
    6.1410   -2.4640   27.0150 C   0  0  0  0  0  0  0  0  0  0  0  0
    5.8740   -3.7960   27.3250 C   0  0  0  0  0  0  0  0  0  0  0  0
    5.4290   -4.8030   26.4770 C   0  0  0  0  0  0  0  0  0  0  0  0
    5.1910   -6.1220   26.9050 C   0  0  0  0  0  0  0  0  0  0  0  0
    5.4510   -6.3930   28.3610 C   0  0  0  0  0  0  0  0  0  0  0  0
    5.1970   -7.6800   28.7510 O   0  0  0  0  0  0  0  0  0  0  0  0
    3.8430   -7.7070   29.0800 C   0  0  0  0  0  0  0  0  0  0  0  0
    5.8930   -5.4370   29.2190 C   0  0  0  0  0  0  0  0  0  0  0  0
    6.0840   -4.1030   28.6020 C   0  0  0  0  0  0  0  0  0  0  0  0
    6.5430   -2.7220   29.1490 C   0  0  0  0  0  0  0  0  0  0  0  0
    6.8930   -2.7810   22.8650 C   0  0  0  0  0  0  0  0  0  0  0  0
    7.8120   -3.4700   22.1490 C   0  0  0  0  0  0  0  0  0  0  0  0
  1  2  1  0
  2  3  2  0
  2  4  1  0
  4  5  1  0
  5  6  1  0
  6  7  1  0
  7  8  1  0
  8  9  2  0
  8 10  1  0
 10 11  1  0
 11 12  1  0
 12 13  2  0
 13 14  1  0
 14 15  2  0
 15 16  1  0
 16 17  1  0
 15 18  1  0
 12 19  1  0
 18 19  2  0
 19 20  1  0
  7 21  1  0
  4 22  1  0
 21 22  1  0
M  END
