piperidine-amides-4008-covalent
     RDKit          3D

 29 31  0  0  0  0  0  0  0  0999 V2000
    7.1020   -3.2770   19.2010 C   0  0  0  0  0  0  0  0  0  0  0  0
    6.3590   -4.0190   20.2330 C   0  0  0  0  0  0  0  0  0  0  0  0
    5.2740   -4.5350   19.8790 O   0  0  0  0  0  0  0  0  0  0  0  0
    6.8610   -4.1990   21.5480 N   0  0  0  0  0  0  0  0  0  0  0  0
    7.6750   -3.1800   22.1280 C   0  0  0  0  0  0  0  0  0  0  0  0
    7.3560   -2.9390   23.5200 C   0  0  0  0  0  0  0  0  0  0  0  0
    6.1100   -3.6190   23.9080 C   0  0  0  0  0  0  0  0  0  0  0  0
    5.6580   -3.3350   25.3050 C   0  0  0  0  0  0  0  0  0  0  0  0
    4.6770   -3.9740   25.7200 O   0  0  0  0  0  0  0  0  0  0  0  0
    6.2600   -2.3720   26.1480 N   0  0  0  0  0  0  0  0  0  0  0  0
    5.7460   -1.0750   26.4130 C   0  0  1  0  0  0  0  0  0  0  0  0
    4.3020   -0.8460   26.4280 C   0  0  0  0  0  0  0  0  0  0  0  0
    3.5720   -2.0630   26.9180 C   0  0  0  0  0  0  0  0  0  0  0  0
    2.2270   -2.1530   27.0570 C   0  0  0  0  0  0  0  0  0  0  0  0
    1.3540   -0.9370   26.6960 C   0  0  0  0  0  0  0  0  0  0  0  0
   -0.3910   -1.0150   26.8720 Cl  0  0  0  0  0  0  0  0  0  0  0  0
    2.0980    0.3010   26.1940 C   0  0  0  0  0  0  0  0  0  0  0  0
    3.6410    0.3840   26.0380 C   0  0  0  0  0  0  0  0  0  0  0  0
    6.2310   -0.6150   27.7370 C   0  0  0  0  0  0  0  0  0  0  0  0
    6.0880    0.8770   27.9800 C   0  0  0  0  0  0  0  0  0  0  0  0
    6.5460    1.4530   29.3160 C   0  0  0  0  0  0  0  0  0  0  0  0
    7.0820    0.3810   30.1910 C   0  0  0  0  0  0  0  0  0  0  0  0
    7.1890   -0.9810   29.9060 C   0  0  0  0  0  0  0  0  0  0  0  0
    6.7640   -1.4770   28.6870 C   0  0  0  0  0  0  0  0  0  0  0  0
    6.8730   -2.8340   28.4190 O   0  0  0  0  0  0  0  0  0  0  0  0
    6.0430   -3.6840   29.1630 C   0  0  0  0  0  0  0  0  0  0  0  0
    5.0850   -4.1290   28.2770 C   0  0  0  0  0  0  0  0  0  0  0  0
    6.2830   -5.1080   23.6990 C   0  0  0  0  0  0  0  0  0  0  0  0
    6.6030   -5.4340   22.2460 C   0  0  0  0  0  0  0  0  0  0  0  0
  1  2  1  0
  2  3  2  0
  2  4  1  0
  4  5  1  0
  5  6  1  0
  6  7  1  0
  7  8  1  0
  8  9  2  0
  8 10  1  0
 11 10  1  1
 11 12  1  0
 12 13  2  0
 13 14  1  0
 14 15  2  0
 15 16  1  0
 15 17  1  0
 12 18  1  0
 17 18  2  0
 11 19  1  0
 19 20  2  0
 20 21  1  0
 21 22  2  0
 22 23  1  0
 19 24  1  0
 23 24  2  0
 24 25  1  0
 25 26  1  0
 26 27  1  0
  7 28  1  0
  4 29  1  0
 28 29  1  0
M  END
