piperidine-amides-30385-covalent
     RDKit          3D

 27 29  0  0  0  0  0  0  0  0999 V2000
    7.0100   -3.3690   19.4040 C   0  0  0  0  0  0  0  0  0  0  0  0
    6.3550   -4.2330   20.3850 C   0  0  0  0  0  0  0  0  0  0  0  0
    5.4020   -4.9360   20.0040 O   0  0  0  0  0  0  0  0  0  0  0  0
    6.8060   -4.3140   21.7190 N   0  0  0  0  0  0  0  0  0  0  0  0
    7.6360   -3.3020   22.3280 C   0  0  0  0  0  0  0  0  0  0  0  0
    7.3880   -3.2590   23.8260 C   0  0  0  0  0  0  0  0  0  0  0  0
    6.3660   -4.2160   24.4260 C   0  0  0  0  0  0  0  0  0  0  0  0
    5.5510   -3.5270   25.4950 C   0  0  0  0  0  0  0  0  0  0  0  0
    4.8720   -2.5270   25.1390 O   0  0  0  0  0  0  0  0  0  0  0  0
    5.4470   -3.8490   26.9040 N   0  0  0  0  0  0  0  0  0  0  0  0
    6.3470   -4.8490   27.5020 C   0  0  0  0  0  0  0  0  0  0  0  0
    5.7580   -5.3860   28.6740 C   0  0  0  0  0  0  0  0  0  0  0  0
    6.1520   -6.6070   29.1480 N   0  0  0  0  0  0  0  0  0  0  0  0
    5.3940   -6.7490   30.2150 N   0  0  0  0  0  0  0  0  0  0  0  0
    4.5090   -5.6140   30.4280 C   0  0  0  0  0  0  0  0  0  0  0  0
    4.8400   -4.8400   29.4010 N   0  0  0  0  0  0  0  0  0  0  0  0
    4.2460   -3.5760   29.1530 C   0  0  0  0  0  0  0  0  0  0  0  0
    4.9240   -2.9230   27.9250 C   0  0  2  0  0  0  0  0  0  0  0  0
    3.8210   -2.0750   27.3950 C   0  0  0  0  0  0  0  0  0  0  0  0
    4.1250   -0.7600   27.1610 O   0  0  0  0  0  0  0  0  0  0  0  0
    2.6340   -2.4000   27.1540 O   0  0  0  0  0  0  0  0  0  0  0  0
    2.0550   -2.4510   25.8860 C   0  0  0  0  0  0  0  0  0  0  0  0
    2.6830   -3.3480   25.0170 C   0  0  0  0  0  0  0  0  0  0  0  0
    1.3220   -3.7180   25.4090 C   0  0  0  0  0  0  0  0  0  0  0  0
    0.5020   -2.6320   26.0070 C   0  0  0  0  0  0  0  0  0  0  0  0
    5.4980   -4.8360   23.3130 C   0  0  0  0  0  0  0  0  0  0  0  0
    6.2560   -5.3680   22.5450 C   0  0  0  0  0  0  0  0  0  0  0  0
  1  2  1  0
  2  3  2  0
  2  4  1  0
  4  5  1  0
  5  6  1  0
  6  7  1  0
  7  8  1  0
  8  9  2  0
  8 10  1  0
 10 11  1  0
 11 12  1  0
 12 13  2  0
 13 14  1  0
 14 15  2  0
 12 16  1  0
 15 16  1  0
 16 17  1  0
 10 18  1  0
 17 18  1  0
 18 19  1  6
 19 20  2  0
 19 21  1  0
 22 21  1  0
 22 23  1  0
 22 24  1  0
 22 25  1  0
  7 26  1  0
  4 27  1  0
 26 27  1  0
M  END
