piperidine-amides-16093-covalent
     RDKit          3D

 19 20  0  0  0  0  0  0  0  0999 V2000
    7.1150   -3.2550   19.2010 C   0  0  0  0  0  0  0  0  0  0  0  0
    6.3640   -4.0310   20.2220 C   0  0  0  0  0  0  0  0  0  0  0  0
    5.3010   -4.5390   19.8800 O   0  0  0  0  0  0  0  0  0  0  0  0
    6.9010   -4.1990   21.4990 N   0  0  0  0  0  0  0  0  0  0  0  0
    6.5570   -5.3240   22.3210 C   0  0  0  0  0  0  0  0  0  0  0  0
    5.7800   -4.8320   23.5120 C   0  0  0  0  0  0  0  0  0  0  0  0
    6.5560   -3.7180   24.2260 C   0  0  0  0  0  0  0  0  0  0  0  0
    5.7230   -3.2740   25.3600 C   0  0  0  0  0  0  0  0  0  0  0  0
    4.5360   -3.6310   25.4160 O   0  0  0  0  0  0  0  0  0  0  0  0
    6.2350   -2.4420   26.3740 N   0  0  0  0  0  0  0  0  0  0  0  0
    5.7410   -1.0680   26.4010 C   0  0  0  0  0  0  0  0  0  0  0  0
    5.6000   -1.1040   27.8470 C   0  0  0  0  0  0  0  0  0  0  0  0
    6.3150   -0.3250   28.7160 C   0  0  0  0  0  0  0  0  0  0  0  0
    6.6550   -0.9990   29.8410 C   0  0  0  0  0  0  0  0  0  0  0  0
    6.6970   -0.1420   30.9200 O   0  0  0  0  0  0  0  0  0  0  0  0
    7.9890    0.1150   31.3200 C   0  0  0  0  0  0  0  0  0  0  0  0
    6.1610   -2.4730   27.8740 C   0  0  0  0  0  0  0  0  0  0  0  0
    6.9390   -2.6000   23.3140 C   0  0  0  0  0  0  0  0  0  0  0  0
    7.6410   -3.1140   22.1010 C   0  0  0  0  0  0  0  0  0  0  0  0
  1  2  1  0
  2  3  2  0
  2  4  1  0
  4  5  1  0
  5  6  1  0
  6  7  1  0
  7  8  1  0
  8  9  2  0
  8 10  1  0
 10 11  1  0
 11 12  1  0
 12 13  1  0
 13 14  1  0
 14 15  1  0
 15 16  1  0
 10 17  1  0
 12 17  1  0
  7 18  1  0
  4 19  1  0
 18 19  1  0
M  END
