piperidine-amides-30315-covalent
     RDKit          3D

 27 29  0  0  0  0  0  0  0  0999 V2000
    7.0160   -3.3720   19.4740 C   0  0  0  0  0  0  0  0  0  0  0  0
    6.3580   -4.2710   20.4230 C   0  0  0  0  0  0  0  0  0  0  0  0
    5.4350   -4.9810   20.0170 O   0  0  0  0  0  0  0  0  0  0  0  0
    6.8010   -4.3560   21.8030 N   0  0  0  0  0  0  0  0  0  0  0  0
    7.6480   -3.3120   22.3620 C   0  0  0  0  0  0  0  0  0  0  0  0
    7.2900   -3.0330   23.8020 C   0  0  0  0  0  0  0  0  0  0  0  0
    5.9420   -3.6880   24.0320 C   0  0  0  0  0  0  0  0  0  0  0  0
    5.1960   -3.1690   25.2510 C   0  0  0  0  0  0  0  0  0  0  0  0
    4.3630   -2.2730   25.0870 O   0  0  0  0  0  0  0  0  0  0  0  0
    5.3300   -3.6010   26.6120 N   0  0  0  0  0  0  0  0  0  0  0  0
    6.5170   -3.2340   27.2310 C   0  0  0  0  0  0  0  0  0  0  0  0
    6.7240   -4.3410   28.2410 C   0  0  0  0  0  0  0  0  0  0  0  0
    5.7490   -4.5230   29.1170 C   0  0  0  0  0  0  0  0  0  0  0  0
    5.7250   -5.8060   29.6850 C   0  0  0  0  0  0  0  0  0  0  0  0
    4.6900   -6.6250   29.3090 C   0  0  0  0  0  0  0  0  0  0  0  0
    4.2750   -6.7660   28.1440 O   0  0  0  0  0  0  0  0  0  0  0  0
    3.2560   -7.6260   28.0990 C   0  0  0  0  0  0  0  0  0  0  0  0
    3.1080   -7.9880   29.3920 C   0  0  0  0  0  0  0  0  0  0  0  0
    4.0050   -7.3900   30.2790 C   0  0  0  0  0  0  0  0  0  0  0  0
    4.1610   -7.5140   31.6630 C   0  0  0  0  0  0  0  0  0  0  0  0
    5.3420   -8.0960   32.0940 O   0  0  0  0  0  0  0  0  0  0  0  0
    3.2060   -7.0840   32.5840 O   0  0  0  0  0  0  0  0  0  0  0  0
    3.5550   -5.9480   33.2620 C   0  0  0  0  0  0  0  0  0  0  0  0
    4.4810   -4.3330   28.6440 C   0  0  0  0  0  0  0  0  0  0  0  0
    4.2980   -3.3830   27.6190 C   0  0  0  0  0  0  0  0  0  0  0  0
    6.0630   -5.1870   23.9590 C   0  0  0  0  0  0  0  0  0  0  0  0
    6.6240   -5.5760   22.5680 C   0  0  0  0  0  0  0  0  0  0  0  0
  1  2  1  0
  2  3  2  0
  2  4  1  0
  4  5  1  0
  5  6  1  0
  6  7  1  0
  7  8  1  0
  8  9  2  0
  8 10  1  0
 10 11  1  0
 11 12  1  0
 12 13  1  0
 13 14  1  0
 14 15  1  0
 15 16  1  0
 16 17  1  0
 17 18  2  0
 15 19  2  0
 18 19  1  0
 19 20  1  0
 20 21  2  0
 20 22  1  0
 22 23  1  0
 13 24  1  0
 10 25  1  0
 24 25  1  0
  7 26  1  0
  4 27  1  0
 26 27  1  0
M  END
