piperidine-amides-8876-covalent
     RDKit          3D

 22 23  0  0  0  0  0  0  0  0999 V2000
    7.0800   -3.3070   19.2900 C   0  0  0  0  0  0  0  0  0  0  0  0
    6.3280   -4.0450   20.3050 C   0  0  0  0  0  0  0  0  0  0  0  0
    5.3190   -4.6700   19.9290 O   0  0  0  0  0  0  0  0  0  0  0  0
    6.7620   -4.0780   21.6610 N   0  0  0  0  0  0  0  0  0  0  0  0
    7.7020   -3.0900   22.1310 C   0  0  0  0  0  0  0  0  0  0  0  0
    7.5410   -2.9560   23.6120 C   0  0  0  0  0  0  0  0  0  0  0  0
    6.1410   -3.4460   23.8670 C   0  0  0  0  0  0  0  0  0  0  0  0
    5.6480   -3.1370   25.2570 C   0  0  0  0  0  0  0  0  0  0  0  0
    4.4410   -2.9410   25.3500 O   0  0  0  0  0  0  0  0  0  0  0  0
    6.5280   -3.0820   26.3330 N   0  0  0  0  0  0  0  0  0  0  0  0
    6.2210   -3.7700   27.5500 C   0  0  0  0  0  0  0  0  0  0  0  0
    5.5550   -4.9760   27.3260 C   0  0  0  0  0  0  0  0  0  0  0  0
    5.2590   -6.3080   27.4140 C   0  0  0  0  0  0  0  0  0  0  0  0
    4.2230   -6.9720   26.7810 C   0  0  0  0  0  0  0  0  0  0  0  0
    3.2490   -7.4170   27.8010 C   0  0  0  0  0  0  0  0  0  0  0  0
    1.9980   -8.1850   27.3200 C   0  0  0  0  0  0  0  0  0  0  0  0
    1.8190   -8.4540   25.8540 C   0  0  0  0  0  0  0  0  0  0  0  0
    0.3010   -9.3990   25.1980 Br  0  0  0  0  0  0  0  0  0  0  0  0
    2.8710   -7.9590   24.8810 C   0  0  0  0  0  0  0  0  0  0  0  0
    4.1000   -7.1930   25.4230 C   0  0  0  0  0  0  0  0  0  0  0  0
    6.0820   -4.9490   23.6780 C   0  0  0  0  0  0  0  0  0  0  0  0
    6.6120   -5.2880   22.4390 C   0  0  0  0  0  0  0  0  0  0  0  0
  1  2  1  0
  2  3  2  0
  2  4  1  0
  4  5  1  0
  5  6  1  0
  6  7  1  0
  7  8  1  0
  8  9  2  0
  8 10  1  0
 10 11  1  0
 11 12  1  0
 12 13  2  3
 13 14  1  0
 14 15  2  0
 15 16  1  0
 16 17  2  0
 17 18  1  0
 17 19  1  0
 14 20  1  0
 19 20  2  0
  7 21  1  0
  4 22  1  0
 21 22  1  0
M  END
