piperidine-amides-10329-covalent
     RDKit          3D

 24 26  0  0  0  0  0  0  0  0999 V2000
    7.0620   -3.3090   19.2770 C   0  0  0  0  0  0  0  0  0  0  0  0
    6.3670   -4.1100   20.2910 C   0  0  0  0  0  0  0  0  0  0  0  0
    5.3110   -4.6860   19.9290 O   0  0  0  0  0  0  0  0  0  0  0  0
    6.9040   -4.2430   21.5730 N   0  0  0  0  0  0  0  0  0  0  0  0
    7.7240   -3.1910   22.1370 C   0  0  0  0  0  0  0  0  0  0  0  0
    7.0220   -2.6560   23.3420 C   0  0  0  0  0  0  0  0  0  0  0  0
    6.6480   -3.7870   24.2380 C   0  0  0  0  0  0  0  0  0  0  0  0
    5.8580   -3.2720   25.3750 C   0  0  0  0  0  0  0  0  0  0  0  0
    4.6220   -3.1320   25.2350 O   0  0  0  0  0  0  0  0  0  0  0  0
    6.4460   -2.9400   26.6050 N   0  0  0  0  0  0  0  0  0  0  0  0
    6.3600   -1.6210   27.1850 C   0  0  0  0  0  0  0  0  0  0  0  0
    7.0050   -1.4780   28.5610 C   0  0  0  0  0  0  0  0  0  0  0  0
    6.9790   -0.2800   29.2280 C   0  0  0  0  0  0  0  0  0  0  0  0
    6.3500    0.7680   28.5920 C   0  0  0  0  0  0  0  0  0  0  0  0
    5.7670    0.7130   27.3790 C   0  0  0  0  0  0  0  0  0  0  0  0
    5.7570   -0.4670   26.6530 C   0  0  0  0  0  0  0  0  0  0  0  0
    5.2320    1.8840   27.0120 C   0  0  0  0  0  0  0  0  0  0  0  0
    4.5940    2.1940   25.8040 O   0  0  0  0  0  0  0  0  0  0  0  0
    5.3930    2.7820   28.0180 O   0  0  0  0  0  0  0  0  0  0  0  0
    6.1540    2.1950   29.0600 C   0  0  0  0  0  0  0  0  0  0  0  0
    5.2350    2.1300   30.2820 C   0  0  0  0  0  0  0  0  0  0  0  0
    7.3390    2.8540   29.3030 C   0  0  0  0  0  0  0  0  0  0  0  0
    5.8580   -4.8380   23.5120 C   0  0  0  0  0  0  0  0  0  0  0  0
    6.5550   -5.3690   22.4450 C   0  0  0  0  0  0  0  0  0  0  0  0
  1  2  1  0
  2  3  2  0
  2  4  1  0
  4  5  1  0
  5  6  1  0
  6  7  1  0
  7  8  1  0
  8  9  2  0
  8 10  1  0
 10 11  1  0
 11 12  2  0
 12 13  1  0
 13 14  2  0
 14 15  1  0
 11 16  1  0
 15 16  2  0
 15 17  1  0
 17 18  2  0
 17 19  1  0
 14 20  1  0
 19 20  1  0
 20 21  1  0
 20 22  1  0
  7 23  1  0
  4 24  1  0
 23 24  1  0
M  END
