piperidine-amides-14628-covalent
     RDKit          3D

 25 27  0  0  0  0  0  0  0  0999 V2000
    7.0540   -3.3330   19.2790 C   0  0  0  0  0  0  0  0  0  0  0  0
    6.3930   -4.1620   20.2820 C   0  0  0  0  0  0  0  0  0  0  0  0
    5.3610   -4.7730   19.9580 O   0  0  0  0  0  0  0  0  0  0  0  0
    6.9560   -4.2950   21.5700 N   0  0  0  0  0  0  0  0  0  0  0  0
    6.5190   -5.3870   22.3810 C   0  0  0  0  0  0  0  0  0  0  0  0
    5.6520   -4.8450   23.4790 C   0  0  0  0  0  0  0  0  0  0  0  0
    6.4980   -3.8360   24.2280 C   0  0  0  0  0  0  0  0  0  0  0  0
    5.7550   -3.2600   25.3920 C   0  0  0  0  0  0  0  0  0  0  0  0
    4.5430   -3.1320   25.2620 O   0  0  0  0  0  0  0  0  0  0  0  0
    6.4910   -2.9240   26.5240 N   0  0  0  0  0  0  0  0  0  0  0  0
    6.4370   -1.6390   27.1390 C   0  0  0  0  0  0  0  0  0  0  0  0
    6.9610   -1.5380   28.4330 C   0  0  0  0  0  0  0  0  0  0  0  0
    6.9760   -0.3750   29.1600 C   0  0  0  0  0  0  0  0  0  0  0  0
    6.4740    0.8310   28.6910 C   0  0  0  0  0  0  0  0  0  0  0  0
    5.9230    0.7010   27.3000 C   0  0  0  0  0  0  0  0  0  0  0  0
    5.4280    1.8950   26.8300 O   0  0  0  0  0  0  0  0  0  0  0  0
    6.5250    2.6790   26.4520 C   0  0  0  0  0  0  0  0  0  0  0  0
    7.3370    3.3350   27.5320 C   0  0  0  0  0  0  0  0  0  0  0  0
    8.4890    4.1440   27.0410 C   0  0  0  0  0  0  0  0  0  0  0  0
    8.6730    4.1880   25.5310 C   0  0  0  0  0  0  0  0  0  0  0  0
    7.8850    3.5650   24.6120 C   0  0  0  0  0  0  0  0  0  0  0  0
    6.8390    2.8320   25.0650 N   0  0  0  0  0  0  0  0  0  0  0  0
    5.9290   -0.4890   26.6100 C   0  0  0  0  0  0  0  0  0  0  0  0
    6.9470   -2.7130   23.3650 C   0  0  0  0  0  0  0  0  0  0  0  0
    7.6890   -3.2110   22.1730 C   0  0  0  0  0  0  0  0  0  0  0  0
  1  2  1  0
  2  3  2  0
  2  4  1  0
  4  5  1  0
  5  6  1  0
  6  7  1  0
  7  8  1  0
  8  9  2  0
  8 10  1  0
 10 11  1  0
 11 12  2  0
 12 13  1  0
 13 14  2  0
 14 15  1  0
 15 16  1  0
 16 17  1  0
 17 18  2  0
 18 19  1  0
 19 20  2  0
 20 21  1  0
 17 22  1  0
 21 22  2  0
 11 23  1  0
 15 23  2  0
  7 24  1  0
  4 25  1  0
 24 25  1  0
M  END
