piperidine-amides-11040-covalent
     RDKit          3D

 21 22  0  0  0  0  0  0  0  0999 V2000
    7.1240   -3.2800   19.1760 C   0  0  0  0  0  0  0  0  0  0  0  0
    6.3610   -4.0080   20.1940 C   0  0  0  0  0  0  0  0  0  0  0  0
    5.2930   -4.5580   19.8860 O   0  0  0  0  0  0  0  0  0  0  0  0
    6.8550   -4.1360   21.4940 N   0  0  0  0  0  0  0  0  0  0  0  0
    7.7380   -3.1360   22.0430 C   0  0  0  0  0  0  0  0  0  0  0  0
    7.0150   -2.6220   23.2430 C   0  0  0  0  0  0  0  0  0  0  0  0
    6.6440   -3.7390   24.1630 C   0  0  0  0  0  0  0  0  0  0  0  0
    5.9800   -3.2200   25.3760 C   0  0  0  0  0  0  0  0  0  0  0  0
    4.8150   -3.6010   25.6980 O   0  0  0  0  0  0  0  0  0  0  0  0
    6.6190   -2.2670   26.2030 N   0  0  0  0  0  0  0  0  0  0  0  0
    6.1850   -2.0440   27.5970 C   0  0  0  0  0  0  0  0  0  0  0  0
    6.0020   -0.5830   27.7930 C   0  0  0  0  0  0  0  0  0  0  0  0
    5.7000    0.1530   26.6790 N   0  0  0  0  0  0  0  0  0  0  0  0
    5.5460    1.5210   26.9630 C   0  0  0  0  0  0  0  0  0  0  0  0
    5.7870    1.5770   28.4150 C   0  0  0  0  0  0  0  0  0  0  0  0
    6.0610    0.2810   28.8870 N   0  0  0  0  0  0  0  0  0  0  0  0
    6.3380   -0.1770   30.1090 C   0  0  0  0  0  0  0  0  0  0  0  0
    5.1280   -0.1630   30.8870 F   0  0  0  0  0  0  0  0  0  0  0  0
    7.1960    0.7040   30.6470 F   0  0  0  0  0  0  0  0  0  0  0  0
    5.7730   -4.7360   23.4640 C   0  0  0  0  0  0  0  0  0  0  0  0
    6.3150   -5.1880   22.2910 C   0  0  0  0  0  0  0  0  0  0  0  0
  1  2  1  0
  2  3  2  0
  2  4  1  0
  4  5  1  0
  5  6  1  0
  6  7  1  0
  7  8  1  0
  8  9  2  0
  8 10  1  0
 10 11  1  0
 11 12  1  0
 12 13  2  0
 13 14  1  0
 14 15  2  0
 12 16  1  0
 15 16  1  0
 16 17  1  0
 17 18  1  0
 17 19  1  0
  7 20  1  0
  4 21  1  0
 20 21  1  0
M  END
