piperidine-amides-3621-covalent
     RDKit          3D

 18 19  0  0  0  0  0  0  0  0999 V2000
    7.1190   -3.2840   19.2450 C   0  0  0  0  0  0  0  0  0  0  0  0
    6.4080   -4.0610   20.2730 C   0  0  0  0  0  0  0  0  0  0  0  0
    5.3360   -4.6130   19.9180 O   0  0  0  0  0  0  0  0  0  0  0  0
    6.9450   -4.2120   21.5810 N   0  0  0  0  0  0  0  0  0  0  0  0
    6.5580   -5.3690   22.3260 C   0  0  0  0  0  0  0  0  0  0  0  0
    6.0210   -5.0240   23.6310 C   0  0  0  0  0  0  0  0  0  0  0  0
    6.1480   -3.5870   23.9020 C   0  0  0  0  0  0  0  0  0  0  0  0
    5.6380   -3.2040   25.2550 C   0  0  0  0  0  0  0  0  0  0  0  0
    4.4310   -2.9220   25.3740 O   0  0  0  0  0  0  0  0  0  0  0  0
    6.4520   -3.1580   26.4000 N   0  0  0  0  0  0  0  0  0  0  0  0
    6.0990   -3.5800   27.6990 C   0  0  0  0  0  0  0  0  0  0  0  0
    4.6890   -3.7760   28.0440 C   0  0  2  0  0  0  0  0  0  0  0  0
    3.9870   -2.3990   28.0500 C   0  0  0  0  0  0  0  0  0  0  0  0
    3.3620   -2.0650   29.2400 C   0  0  0  0  0  0  0  0  0  0  0  0
    3.2670   -3.5410   29.6260 C   0  0  0  0  0  0  0  0  0  0  0  0
    4.3850   -4.2280   29.1810 O   0  0  0  0  0  0  0  0  0  0  0  0
    7.5130   -3.0600   23.6680 C   0  0  0  0  0  0  0  0  0  0  0  0
    7.6880   -3.0830   22.1390 C   0  0  0  0  0  0  0  0  0  0  0  0
  1  2  1  0
  2  3  2  0
  2  4  1  0
  4  5  1  0
  5  6  1  0
  6  7  1  0
  7  8  1  0
  8  9  2  0
  8 10  1  0
 10 11  1  0
 12 11  1  1
 12 13  1  0
 13 14  1  0
 14 15  1  0
 12 16  1  0
 15 16  1  0
  7 17  1  0
  4 18  1  0
 17 18  1  0
M  END
