piperidine-amides-31329-covalent
     RDKit          3D

 28 30  0  0  0  0  0  0  0  0999 V2000
    7.2090   -3.2780   19.3080 C   0  0  0  0  0  0  0  0  0  0  0  0
    6.4330   -4.0550   20.2450 C   0  0  0  0  0  0  0  0  0  0  0  0
    5.3130   -4.5280   19.8790 O   0  0  0  0  0  0  0  0  0  0  0  0
    6.9160   -4.3530   21.5270 N   0  0  0  0  0  0  0  0  0  0  0  0
    7.7850   -3.3450   22.1790 C   0  0  0  0  0  0  0  0  0  0  0  0
    6.7600   -2.7630   23.2060 C   0  0  0  0  0  0  0  0  0  0  0  0
    6.4450   -3.9610   24.0620 C   0  0  0  0  0  0  0  0  0  0  0  0
    5.7330   -3.5270   25.3990 C   0  0  0  0  0  0  0  0  0  0  0  0
    4.7360   -4.1930   25.6330 O   0  0  0  0  0  0  0  0  0  0  0  0
    6.4090   -2.5730   25.8480 N   0  0  0  0  0  0  0  0  0  0  0  0
    7.2410   -1.5170   25.8370 C   0  0  0  0  0  0  0  0  0  0  0  0
    6.0210   -2.4320   27.1710 C   0  0  0  0  0  0  0  0  0  0  0  0
    6.2710   -3.4400   28.1170 C   0  0  0  0  0  0  0  0  0  0  0  0
    5.4160   -3.2250   29.2860 C   0  0  0  0  0  0  0  0  0  0  0  0
    5.5370   -2.0140   30.0260 N   0  0  0  0  0  0  0  0  0  0  0  0
    6.5600   -0.9530   29.8990 C   0  0  0  0  0  0  0  0  0  0  0  0
    7.3220   -0.4780   28.8070 O   0  0  0  0  0  0  0  0  0  0  0  0
    6.8240   -0.2720   31.0870 C   0  0  0  0  0  0  0  0  0  0  0  0
    8.1440    0.1220   31.3260 C   0  0  0  0  0  0  0  0  0  0  0  0
    5.8310   -0.0190   31.9470 N   0  0  0  0  0  0  0  0  0  0  0  0
    4.5070   -0.4650   31.6160 C   0  0  0  0  0  0  0  0  0  0  0  0
    3.2490    0.1140   32.2840 C   0  0  0  0  0  0  0  0  0  0  0  0
    2.0540   -0.4140   31.8650 C   0  0  0  0  0  0  0  0  0  0  0  0
    2.0120   -1.4130   30.8920 C   0  0  0  0  0  0  0  0  0  0  0  0
    3.1510   -1.9290   30.2960 C   0  0  0  0  0  0  0  0  0  0  0  0
    4.3800   -1.4350   30.6790 C   0  0  0  0  0  0  0  0  0  0  0  0
    5.7890   -5.1370   23.4380 C   0  0  0  0  0  0  0  0  0  0  0  0
    6.4960   -5.5570   22.1940 C   0  0  0  0  0  0  0  0  0  0  0  0
  1  2  1  0
  2  3  2  0
  2  4  1  0
  4  5  1  0
  5  6  1  0
  6  7  1  0
  7  8  1  0
  8  9  2  0
  8 10  1  0
 10 11  1  0
 10 12  1  0
 12 13  1  0
 13 14  1  0
 14 15  1  0
 15 16  1  0
 16 17  2  0
 16 18  1  0
 18 19  1  0
 18 20  2  0
 20 21  1  0
 21 22  1  0
 22 23  2  0
 23 24  1  0
 24 25  2  0
 15 26  1  0
 21 26  2  0
 25 26  1  0
  7 27  1  0
  4 28  1  0
 27 28  1  0
M  END
