piperidine-amides-21540-covalent
     RDKit          3D

 23 25  0  0  0  0  0  0  0  0999 V2000
    7.0150   -3.3600   19.3860 C   0  0  0  0  0  0  0  0  0  0  0  0
    6.3750   -4.2240   20.3880 C   0  0  0  0  0  0  0  0  0  0  0  0
    5.3800   -4.8820   19.9890 O   0  0  0  0  0  0  0  0  0  0  0  0
    6.8840   -4.3340   21.6970 N   0  0  0  0  0  0  0  0  0  0  0  0
    6.7660   -5.5890   22.4140 C   0  0  0  0  0  0  0  0  0  0  0  0
    6.1670   -5.2990   23.7630 C   0  0  0  0  0  0  0  0  0  0  0  0
    6.0150   -3.8200   23.9340 C   0  0  0  0  0  0  0  0  0  0  0  0
    5.4780   -3.4480   25.2740 C   0  0  0  0  0  0  0  0  0  0  0  0
    4.3950   -2.8340   25.2730 O   0  0  0  0  0  0  0  0  0  0  0  0
    6.0400   -3.7390   26.5380 N   0  0  0  0  0  0  0  0  0  0  0  0
    5.6020   -4.9450   27.2030 C   0  0  0  0  0  0  0  0  0  0  0  0
    6.0210   -4.6730   28.5980 C   0  0  0  0  0  0  0  0  0  0  0  0
    6.5110   -3.4350   28.6710 C   0  0  0  0  0  0  0  0  0  0  0  0
    6.3530   -2.6770   27.5010 C   0  0  2  0  0  0  0  0  0  0  0  0
    5.3720   -1.6960   27.5020 C   0  0  0  0  0  0  0  0  0  0  0  0
    5.0890   -0.9590   26.3520 C   0  0  0  0  0  0  0  0  0  0  0  0
    4.1150    0.0360   26.2980 C   0  0  0  0  0  0  0  0  0  0  0  0
    3.2690    0.4140   27.5040 C   0  0  0  0  0  0  0  0  0  0  0  0
    3.6050   -0.4050   28.7380 C   0  0  0  0  0  0  0  0  0  0  0  0
    2.8880   -0.1350   29.8860 F   0  0  0  0  0  0  0  0  0  0  0  0
    4.6750   -1.4520   28.6640 C   0  0  0  0  0  0  0  0  0  0  0  0
    7.2980   -3.1100   23.6360 C   0  0  0  0  0  0  0  0  0  0  0  0
    7.7030   -3.2690   22.3200 C   0  0  0  0  0  0  0  0  0  0  0  0
  1  2  1  0
  2  3  2  0
  2  4  1  0
  4  5  1  0
  5  6  1  0
  6  7  1  0
  7  8  1  0
  8  9  2  0
  8 10  1  0
 10 11  1  0
 11 12  1  0
 12 13  1  0
 10 14  1  0
 13 14  1  0
 14 15  1  1
 15 16  2  0
 16 17  1  0
 17 18  2  0
 18 19  1  0
 19 20  1  0
 15 21  1  0
 19 21  2  0
  7 22  1  0
  4 23  1  0
 22 23  1  0
M  END
