piperidine-amides-11767-covalent
     RDKit          3D

 29 31  0  0  0  0  0  0  0  0999 V2000
    7.0510   -3.2940   19.3260 C   0  0  0  0  0  0  0  0  0  0  0  0
    6.3200   -4.1060   20.2980 C   0  0  0  0  0  0  0  0  0  0  0  0
    5.3200   -4.7230   19.9420 O   0  0  0  0  0  0  0  0  0  0  0  0
    6.7760   -4.2320   21.6590 N   0  0  0  0  0  0  0  0  0  0  0  0
    7.6200   -3.2140   22.2510 C   0  0  0  0  0  0  0  0  0  0  0  0
    7.2790   -2.9900   23.7070 C   0  0  0  0  0  0  0  0  0  0  0  0
    6.0030   -3.7590   23.9970 C   0  0  0  0  0  0  0  0  0  0  0  0
    5.4050   -3.4730   25.3390 C   0  0  0  0  0  0  0  0  0  0  0  0
    4.1760   -3.5210   25.5060 O   0  0  0  0  0  0  0  0  0  0  0  0
    6.2020   -3.1310   26.4600 N   0  0  0  0  0  0  0  0  0  0  0  0
    6.4540   -1.7320   26.6650 C   0  0  0  0  0  0  0  0  0  0  0  0
    6.2940   -1.3260   28.1290 C   0  0  0  0  0  0  0  0  0  0  0  0
    7.3890   -1.1260   28.9360 C   0  0  0  0  0  0  0  0  0  0  0  0
    7.2480   -0.7400   30.2630 C   0  0  0  0  0  0  0  0  0  0  0  0
    6.0130   -0.5450   30.8260 C   0  0  0  0  0  0  0  0  0  0  0  0
    5.9460   -0.1970   32.0240 O   0  0  0  0  0  0  0  0  0  0  0  0
    6.9520    0.1980   32.8890 C   0  0  0  0  0  0  0  0  0  0  0  0
    7.3300    1.4970   32.6370 C   0  0  0  0  0  0  0  0  0  0  0  0
    6.4080    2.5430   32.5370 C   0  0  0  0  0  0  0  0  0  0  0  0
    6.9190    3.7700   32.2860 C   0  0  0  0  0  0  0  0  0  0  0  0
    8.3270    3.6540   32.1900 C   0  0  0  0  0  0  0  0  0  0  0  0
    9.2980    3.0750   32.2090 N   0  0  0  0  0  0  0  0  0  0  0  0
    8.7520    1.7480   32.4760 C   0  0  0  0  0  0  0  0  0  0  0  0
    4.9240   -0.7500   30.0240 C   0  0  0  0  0  0  0  0  0  0  0  0
    3.7640   -0.5910   30.4780 O   0  0  0  0  0  0  0  0  0  0  0  0
    3.4020    0.4550   31.3550 C   0  0  0  0  0  0  0  0  0  0  0  0
    5.0450   -1.1360   28.6900 C   0  0  0  0  0  0  0  0  0  0  0  0
    6.1870   -5.2190   23.7270 C   0  0  0  0  0  0  0  0  0  0  0  0
    6.6320   -5.5010   22.3310 C   0  0  0  0  0  0  0  0  0  0  0  0
  1  2  1  0
  2  3  2  0
  2  4  1  0
  4  5  1  0
  5  6  1  0
  6  7  1  0
  7  8  1  0
  8  9  2  0
  8 10  1  0
 10 11  1  0
 11 12  1  0
 12 13  2  0
 13 14  1  0
 14 15  2  0
 15 16  1  0
 16 17  1  0
 17 18  1  0
 18 19  2  0
 19 20  1  0
 20 21  2  0
 21 22  1  0
 18 23  1  0
 22 23  2  0
 15 24  1  0
 24 25  1  0
 25 26  1  0
 12 27  1  0
 24 27  2  0
  7 28  1  0
  4 29  1  0
 28 29  1  0
M  END
