piperidine-amides-27106-covalent
     RDKit          3D

 25 27  0  0  0  0  0  0  0  0999 V2000
    7.0730   -3.3550   19.3230 C   0  0  0  0  0  0  0  0  0  0  0  0
    6.4300   -4.1910   20.3400 C   0  0  0  0  0  0  0  0  0  0  0  0
    5.4000   -4.8270   19.9800 O   0  0  0  0  0  0  0  0  0  0  0  0
    6.9880   -4.2860   21.6170 N   0  0  0  0  0  0  0  0  0  0  0  0
    6.7590   -5.4600   22.4440 C   0  0  0  0  0  0  0  0  0  0  0  0
    6.1380   -4.9740   23.7220 C   0  0  0  0  0  0  0  0  0  0  0  0
    6.2380   -3.4810   23.7260 C   0  0  0  0  0  0  0  0  0  0  0  0
    5.7720   -2.8100   24.9550 C   0  0  0  0  0  0  0  0  0  0  0  0
    5.5370   -1.5970   24.8870 O   0  0  0  0  0  0  0  0  0  0  0  0
    5.5140   -3.4040   26.1690 N   0  0  0  0  0  0  0  0  0  0  0  0
    4.1270   -3.5880   26.5200 C   0  0  0  0  0  0  0  0  0  0  0  0
    4.0050   -4.8460   27.2860 C   0  0  1  0  0  0  0  0  0  0  0  0
    3.7310   -6.0580   26.6900 C   0  0  0  0  0  0  0  0  0  0  0  0
    2.7230   -6.9130   27.2080 O   0  0  0  0  0  0  0  0  0  0  0  0
    4.4800   -6.3420   25.5820 O   0  0  0  0  0  0  0  0  0  0  0  0
    3.9700   -7.1270   24.5310 C   0  0  0  0  0  0  0  0  0  0  0  0
    5.1400   -5.0030   27.8970 C   0  0  0  0  0  0  0  0  0  0  0  0
    5.1470   -4.2580   28.9910 C   0  0  0  0  0  0  0  0  0  0  0  0
    6.3930   -4.2100   29.3660 C   0  0  0  0  0  0  0  0  0  0  0  0
    6.6910   -5.2510   30.0030 O   0  0  0  0  0  0  0  0  0  0  0  0
    6.0980   -6.4710   29.6400 C   0  0  0  0  0  0  0  0  0  0  0  0
    5.7070   -6.3380   28.1960 C   0  0  0  0  0  0  0  0  0  0  0  0
    5.9920   -4.5170   26.9560 C   0  0  0  0  0  0  0  0  0  0  0  0
    7.6430   -3.0640   23.4740 C   0  0  0  0  0  0  0  0  0  0  0  0
    7.8810   -3.2210   22.1340 C   0  0  0  0  0  0  0  0  0  0  0  0
  1  2  1  0
  2  3  2  0
  2  4  1  0
  4  5  1  0
  5  6  1  0
  6  7  1  0
  7  8  1  0
  8  9  2  0
  8 10  1  0
 10 11  1  0
 11 12  1  0
 12 13  1  6
 13 14  2  0
 13 15  1  0
 15 16  1  0
 12 17  1  0
 17 18  1  0
 18 19  1  0
 19 20  1  0
 20 21  1  0
 17 22  1  0
 21 22  1  0
 10 23  1  0
 17 23  1  0
  7 24  1  0
  4 25  1  0
 24 25  1  0
M  END
