piperidine-amides-13127-covalent
     RDKit          3D

 23 24  0  0  0  0  0  0  0  0999 V2000
    7.1100   -3.2780   19.2320 C   0  0  0  0  0  0  0  0  0  0  0  0
    6.3860   -4.0580   20.2670 C   0  0  0  0  0  0  0  0  0  0  0  0
    5.3210   -4.5990   19.9050 O   0  0  0  0  0  0  0  0  0  0  0  0
    6.9050   -4.2140   21.5630 N   0  0  0  0  0  0  0  0  0  0  0  0
    7.7170   -3.1930   22.1490 C   0  0  0  0  0  0  0  0  0  0  0  0
    7.3410   -2.8870   23.5170 C   0  0  0  0  0  0  0  0  0  0  0  0
    6.0700   -3.5210   23.9080 C   0  0  0  0  0  0  0  0  0  0  0  0
    5.7040   -3.1470   25.2890 C   0  0  0  0  0  0  0  0  0  0  0  0
    4.5130   -3.2620   25.6220 O   0  0  0  0  0  0  0  0  0  0  0  0
    6.6570   -2.6570   26.1980 N   0  0  0  0  0  0  0  0  0  0  0  0
    6.4660   -2.7490   27.6610 C   0  0  0  0  0  0  0  0  0  0  0  0
    6.4310   -4.1510   28.1370 C   0  0  0  0  0  0  0  0  0  0  0  0
    5.1880   -4.5860   28.7310 C   0  0  0  0  0  0  0  0  0  0  0  0
    4.2240   -3.7420   29.2180 C   0  0  0  0  0  0  0  0  0  0  0  0
    3.0290   -4.1330   29.7890 C   0  0  0  0  0  0  0  0  0  0  0  0
    2.7740   -5.4720   29.8830 C   0  0  0  0  0  0  0  0  0  0  0  0
    3.7130   -6.3450   29.4060 C   0  0  0  0  0  0  0  0  0  0  0  0
    3.6290   -7.6950   29.4160 C   0  0  0  0  0  0  0  0  0  0  0  0
    4.9750   -8.2250   29.5000 N   0  0  0  0  0  0  0  0  0  0  0  0
    2.4640   -8.3840   29.3720 O   0  0  0  0  0  0  0  0  0  0  0  0
    4.8940   -5.9040   28.8410 C   0  0  0  0  0  0  0  0  0  0  0  0
    5.9810   -4.9900   23.6850 C   0  0  0  0  0  0  0  0  0  0  0  0
    6.6500   -5.3960   22.3880 C   0  0  0  0  0  0  0  0  0  0  0  0
  1  2  1  0
  2  3  2  0
  2  4  1  0
  4  5  1  0
  5  6  1  0
  6  7  1  0
  7  8  1  0
  8  9  2  0
  8 10  1  0
 10 11  1  0
 11 12  1  0
 12 13  1  0
 13 14  2  0
 14 15  1  0
 15 16  2  0
 16 17  1  0
 17 18  1  0
 18 19  1  0
 18 20  2  0
 13 21  1  0
 17 21  2  0
  7 22  1  0
  4 23  1  0
 22 23  1  0
M  END
