piperidine-amides-15290-covalent
     RDKit          3D

 16 16  0  0  0  0  0  0  0  0999 V2000
    7.0850   -3.2690   19.2550 C   0  0  0  0  0  0  0  0  0  0  0  0
    6.3530   -4.0730   20.2470 C   0  0  0  0  0  0  0  0  0  0  0  0
    5.3120   -4.6830   19.9280 O   0  0  0  0  0  0  0  0  0  0  0  0
    6.8380   -4.2050   21.5530 N   0  0  0  0  0  0  0  0  0  0  0  0
    7.6610   -3.1730   22.1500 C   0  0  0  0  0  0  0  0  0  0  0  0
    6.8780   -2.6240   23.3420 C   0  0  0  0  0  0  0  0  0  0  0  0
    6.5290   -3.8380   24.1680 C   0  0  0  0  0  0  0  0  0  0  0  0
    5.7820   -3.4370   25.3790 C   0  0  0  0  0  0  0  0  0  0  0  0
    4.5350   -3.5280   25.3610 O   0  0  0  0  0  0  0  0  0  0  0  0
    6.4690   -2.9540   26.5210 N   0  0  0  0  0  0  0  0  0  0  0  0
    6.8420   -1.5700   26.5360 C   0  0  0  0  0  0  0  0  0  0  0  0
    6.2720   -3.5940   27.8090 C   0  0  0  0  0  0  0  0  0  0  0  0
    6.2760   -4.9500   27.6340 C   0  0  0  0  0  0  0  0  0  0  0  0
    6.3080   -5.7690   28.7320 C   0  0  0  0  0  0  0  0  0  0  0  0
    5.7170   -4.8500   23.4170 C   0  0  0  0  0  0  0  0  0  0  0  0
    6.4840   -5.3400   22.3840 C   0  0  0  0  0  0  0  0  0  0  0  0
  1  2  1  0
  2  3  2  0
  2  4  1  0
  4  5  1  0
  5  6  1  0
  6  7  1  0
  7  8  1  0
  8  9  2  0
  8 10  1  0
 10 11  1  0
 10 12  1  0
 12 13  1  0
 13 14  3  0
  7 15  1  0
  4 16  1  0
 15 16  1  0
M  END
