piperidine-amides-14711-covalent
     RDKit          3D

 22 24  0  0  0  0  0  0  0  0999 V2000
    7.0260   -3.3030   19.3250 C   0  0  0  0  0  0  0  0  0  0  0  0
    6.3510   -4.1250   20.3310 C   0  0  0  0  0  0  0  0  0  0  0  0
    5.3600   -4.7790   19.9620 O   0  0  0  0  0  0  0  0  0  0  0  0
    6.8310   -4.2050   21.6730 N   0  0  0  0  0  0  0  0  0  0  0  0
    6.6630   -5.4450   22.3880 C   0  0  0  0  0  0  0  0  0  0  0  0
    6.1230   -5.1710   23.7620 C   0  0  0  0  0  0  0  0  0  0  0  0
    6.0050   -3.6720   23.8690 C   0  0  0  0  0  0  0  0  0  0  0  0
    5.4910   -3.2390   25.2190 C   0  0  0  0  0  0  0  0  0  0  0  0
    4.3680   -2.7480   25.2080 O   0  0  0  0  0  0  0  0  0  0  0  0
    6.2640   -3.3970   26.3690 N   0  0  0  0  0  0  0  0  0  0  0  0
    6.0270   -4.4290   27.3420 C   0  0  0  0  0  0  0  0  0  0  0  0
    4.7390   -4.5160   27.8840 C   0  0  0  0  0  0  0  0  0  0  0  0
    4.1600   -5.7710   27.9230 C   0  0  0  0  0  0  0  0  0  0  0  0
    4.8940   -6.7050   28.6780 C   0  0  0  0  0  0  0  0  0  0  0  0
    4.4610   -6.5500   30.1040 C   0  0  0  0  0  0  0  0  0  0  0  0
    3.3860   -7.3710   30.2920 O   0  0  0  0  0  0  0  0  0  0  0  0
    2.6580   -7.2550   29.1160 C   0  0  0  0  0  0  0  0  0  0  0  0
    2.7460   -5.9120   28.5000 C   0  0  0  0  0  0  0  0  0  0  0  0
    4.3750   -3.5530   29.0190 C   0  0  0  0  0  0  0  0  0  0  0  0
    3.9320   -3.4000   27.7140 C   0  0  0  0  0  0  0  0  0  0  0  0
    7.3630   -3.0610   23.6170 C   0  0  0  0  0  0  0  0  0  0  0  0
    7.6340   -3.1460   22.2630 C   0  0  0  0  0  0  0  0  0  0  0  0
  1  2  1  0
  2  3  2  0
  2  4  1  0
  4  5  1  0
  5  6  1  0
  6  7  1  0
  7  8  1  0
  8  9  2  0
  8 10  1  0
 10 11  1  0
 12 11  1  0
 12 13  1  0
 13 14  1  0
 14 15  1  0
 15 16  1  0
 16 17  1  0
 13 18  1  0
 17 18  1  0
 12 19  1  0
 12 20  1  0
 19 20  1  0
  7 21  1  0
  4 22  1  0
 21 22  1  0
M  END
