piperidine-amides-31219-covalent
     RDKit          3D

 28 31  0  0  0  0  0  0  0  0999 V2000
    7.0590   -3.3420   19.3340 C   0  0  0  0  0  0  0  0  0  0  0  0
    6.3750   -4.1790   20.3200 C   0  0  0  0  0  0  0  0  0  0  0  0
    5.3590   -4.8070   19.9720 O   0  0  0  0  0  0  0  0  0  0  0  0
    6.8630   -4.3390   21.6310 N   0  0  0  0  0  0  0  0  0  0  0  0
    6.7620   -5.6290   22.2950 C   0  0  0  0  0  0  0  0  0  0  0  0
    6.2060   -5.3700   23.6680 C   0  0  0  0  0  0  0  0  0  0  0  0
    6.0280   -3.9090   23.8930 C   0  0  0  0  0  0  0  0  0  0  0  0
    5.3790   -3.5820   25.1780 C   0  0  0  0  0  0  0  0  0  0  0  0
    4.1850   -3.1690   25.1830 O   0  0  0  0  0  0  0  0  0  0  0  0
    5.9930   -3.6870   26.4280 N   0  0  0  0  0  0  0  0  0  0  0  0
    5.4990   -4.7110   27.3790 C   0  0  0  0  0  0  0  0  0  0  0  0
    5.0170   -4.0770   28.6270 C   0  0  0  0  0  0  0  0  0  0  0  0
    5.7130   -2.8420   29.0080 C   0  0  0  0  0  0  0  0  0  0  0  0
    4.9090   -1.5710   28.9430 C   0  0  0  0  0  0  0  0  0  0  0  0
    3.8220   -1.3170   27.9470 C   0  0  0  0  0  0  0  0  0  0  0  0
    3.3300    0.0260   28.2610 N   0  0  0  0  0  0  0  0  0  0  0  0
    4.1550    0.4480   29.4040 C   0  0  0  0  0  0  0  0  0  0  0  0
    4.0220    1.6650   30.0260 C   0  0  0  0  0  0  0  0  0  0  0  0
    4.8810    1.9180   31.1020 C   0  0  0  0  0  0  0  0  0  0  0  0
    5.8920    0.8760   31.5270 C   0  0  0  0  0  0  0  0  0  0  0  0
    6.7580    1.0860   32.5850 O   0  0  0  0  0  0  0  0  0  0  0  0
    7.9410    0.2790   32.5850 C   0  0  0  0  0  0  0  0  0  0  0  0
    5.8620   -0.4030   30.6890 C   0  0  0  0  0  0  0  0  0  0  0  0
    5.0780   -0.5130   29.7850 C   0  0  0  0  0  0  0  0  0  0  0  0
    6.8830   -2.7860   28.1980 C   0  0  0  0  0  0  0  0  0  0  0  0
    6.5920   -2.5240   26.8990 C   0  0  0  0  0  0  0  0  0  0  0  0
    7.2920   -3.1440   23.6700 C   0  0  0  0  0  0  0  0  0  0  0  0
    7.7150   -3.3080   22.2210 C   0  0  0  0  0  0  0  0  0  0  0  0
  1  2  1  0
  2  3  2  0
  2  4  1  0
  4  5  1  0
  5  6  1  0
  6  7  1  0
  7  8  1  0
  8  9  2  0
  8 10  1  0
 10 11  1  0
 11 12  1  0
 12 13  1  0
 13 14  1  0
 14 15  2  0
 15 16  1  0
 16 17  1  0
 17 18  1  0
 18 19  2  0
 19 20  1  0
 20 21  1  0
 21 22  1  0
 20 23  2  0
 14 24  1  0
 17 24  2  0
 23 24  1  0
 13 25  1  0
 10 26  1  0
 25 26  1  0
  7 27  1  0
  4 28  1  0
 27 28  1  0
M  END
