piperidine-amides-7356-covalent
     RDKit          3D

 20 21  0  0  0  0  0  0  0  0999 V2000
    7.0310   -3.3420   19.3430 C   0  0  0  0  0  0  0  0  0  0  0  0
    6.3840   -4.1760   20.3650 C   0  0  0  0  0  0  0  0  0  0  0  0
    5.3900   -4.8530   19.9820 O   0  0  0  0  0  0  0  0  0  0  0  0
    6.8810   -4.2260   21.6740 N   0  0  0  0  0  0  0  0  0  0  0  0
    7.7440   -3.1820   22.1980 C   0  0  0  0  0  0  0  0  0  0  0  0
    7.4340   -2.9780   23.6530 C   0  0  0  0  0  0  0  0  0  0  0  0
    6.0770   -3.5200   23.9910 C   0  0  0  0  0  0  0  0  0  0  0  0
    5.6590   -3.1620   25.3700 C   0  0  0  0  0  0  0  0  0  0  0  0
    4.4410   -3.2350   25.6380 O   0  0  0  0  0  0  0  0  0  0  0  0
    6.5470   -2.7440   26.3810 N   0  0  0  0  0  0  0  0  0  0  0  0
    6.4380   -1.4510   27.0320 C   0  0  0  0  0  0  0  0  0  0  0  0
    5.8460   -0.2880   26.2540 C   0  0  0  0  0  0  0  0  0  0  0  0
    5.7180    0.9650   26.8230 C   0  0  0  0  0  0  0  0  0  0  0  0
    6.1300    1.1900   28.1230 C   0  0  0  0  0  0  0  0  0  0  0  0
    5.9670    2.9080   28.9360 Br  0  0  0  0  0  0  0  0  0  0  0  0
    6.6620    0.1250   28.8090 C   0  0  0  0  0  0  0  0  0  0  0  0
    6.8260   -1.1440   28.3310 C   0  0  0  0  0  0  0  0  0  0  0  0
    7.3600   -2.0600   29.1440 C   0  0  0  0  0  0  0  0  0  0  0  0
    6.0490   -5.0440   23.8150 C   0  0  0  0  0  0  0  0  0  0  0  0
    6.6690   -5.4150   22.4630 C   0  0  0  0  0  0  0  0  0  0  0  0
  1  2  1  0
  2  3  2  0
  2  4  1  0
  4  5  1  0
  5  6  1  0
  6  7  1  0
  7  8  1  0
  8  9  2  0
  8 10  1  0
 10 11  1  0
 11 12  2  0
 12 13  1  0
 13 14  2  0
 14 15  1  0
 14 16  1  0
 11 17  1  0
 16 17  2  0
 17 18  1  0
  7 19  1  0
  4 20  1  0
 19 20  1  0
M  END
