piperidine-amides-24981-covalent
     RDKit          3D

 25 27  0  0  0  0  0  0  0  0999 V2000
    7.0740   -3.3500   19.3120 C   0  0  0  0  0  0  0  0  0  0  0  0
    6.4200   -4.2180   20.2990 C   0  0  0  0  0  0  0  0  0  0  0  0
    5.3880   -4.8460   19.9860 O   0  0  0  0  0  0  0  0  0  0  0  0
    6.9840   -4.3960   21.5740 N   0  0  0  0  0  0  0  0  0  0  0  0
    6.6480   -5.5770   22.3240 C   0  0  0  0  0  0  0  0  0  0  0  0
    5.6930   -5.1130   23.4320 C   0  0  0  0  0  0  0  0  0  0  0  0
    6.4000   -4.0580   24.2660 C   0  0  0  0  0  0  0  0  0  0  0  0
    5.4600   -3.5860   25.3080 C   0  0  0  0  0  0  0  0  0  0  0  0
    4.6370   -2.7010   25.0140 O   0  0  0  0  0  0  0  0  0  0  0  0
    5.5180   -4.1510   26.5980 N   0  0  0  0  0  0  0  0  0  0  0  0
    6.8190   -4.3260   27.0930 C   0  0  0  0  0  0  0  0  0  0  0  0
    6.7250   -5.1230   28.3270 C   0  0  0  0  0  0  0  0  0  0  0  0
    5.5470   -4.7760   28.8150 C   0  0  0  0  0  0  0  0  0  0  0  0
    4.9780   -3.8580   27.9520 C   0  0  1  0  0  0  0  0  0  0  0  0
    5.2100   -2.4860   28.1000 C   0  0  2  0  0  0  0  0  0  0  0  0
    6.3460   -2.1340   28.8040 C   0  0  0  0  0  0  0  0  0  0  0  0
    6.7080   -0.9200   29.2870 N   0  0  0  0  0  0  0  0  0  0  0  0
    4.0700   -2.0940   29.0580 C   0  0  0  0  0  0  0  0  0  0  0  0
    2.6780   -1.8480   28.5730 C   0  0  0  0  0  0  0  0  0  0  0  0
    1.4040   -1.4610   29.2950 C   0  0  0  0  0  0  0  0  0  0  0  0
    1.9190   -1.3830   30.7040 C   0  0  0  0  0  0  0  0  0  0  0  0
    3.2340   -1.6120   31.1750 C   0  0  0  0  0  0  0  0  0  0  0  0
    4.2510   -1.9520   30.3650 C   0  0  0  0  0  0  0  0  0  0  0  0
    6.8290   -2.8580   23.4330 C   0  0  0  0  0  0  0  0  0  0  0  0
    7.6280   -3.2990   22.2350 C   0  0  0  0  0  0  0  0  0  0  0  0
  1  2  1  0
  2  3  2  0
  2  4  1  0
  4  5  1  0
  5  6  1  0
  6  7  1  0
  7  8  1  0
  8  9  2  0
  8 10  1  0
 10 11  1  0
 11 12  1  0
 12 13  1  0
 10 14  1  0
 14 13  1  1
 14 15  1  0
 15 16  1  1
 16 17  3  0
 15 18  1  0
 18 19  2  0
 19 20  1  0
 20 21  2  0
 21 22  1  0
 18 23  1  0
 22 23  2  0
  7 24  1  0
  4 25  1  0
 24 25  1  0
M  END
