piperidine-amides-29873-covalent
     RDKit          3D

 27 29  0  0  0  0  0  0  0  0999 V2000
    7.0950   -3.3240   19.2990 C   0  0  0  0  0  0  0  0  0  0  0  0
    6.3890   -4.1670   20.2540 C   0  0  0  0  0  0  0  0  0  0  0  0
    5.3360   -4.7180   19.9420 O   0  0  0  0  0  0  0  0  0  0  0  0
    6.9590   -4.4090   21.5440 N   0  0  0  0  0  0  0  0  0  0  0  0
    7.6950   -3.3630   22.2090 C   0  0  0  0  0  0  0  0  0  0  0  0
    6.9620   -2.9090   23.4350 C   0  0  0  0  0  0  0  0  0  0  0  0
    6.5160   -4.1420   24.1960 C   0  0  0  0  0  0  0  0  0  0  0  0
    5.6190   -3.7510   25.3100 C   0  0  0  0  0  0  0  0  0  0  0  0
    4.4510   -3.3700   25.1210 O   0  0  0  0  0  0  0  0  0  0  0  0
    6.1040   -3.7910   26.6240 N   0  0  0  0  0  0  0  0  0  0  0  0
    6.5370   -2.5400   27.1280 C   0  0  0  0  0  0  0  0  0  0  0  0
    6.8030   -2.8530   28.5610 C   0  0  0  0  0  0  0  0  0  0  0  0
    5.6560   -3.1400   29.1890 C   0  0  0  0  0  0  0  0  0  0  0  0
    5.1380   -2.4380   30.2810 C   0  0  0  0  0  0  0  0  0  0  0  0
    3.9340   -2.8050   30.8630 C   0  0  0  0  0  0  0  0  0  0  0  0
    3.4060   -2.0670   32.0050 C   0  0  0  0  0  0  0  0  0  0  0  0
    2.3470   -1.1950   31.8900 C   0  0  0  0  0  0  0  0  0  0  0  0
    2.6090    0.1170   31.5410 C   0  0  0  0  0  0  0  0  0  0  0  0
    2.9970    0.8510   32.6490 O   0  0  0  0  0  0  0  0  0  0  0  0
    2.5140    0.6010   30.3860 O   0  0  0  0  0  0  0  0  0  0  0  0
    3.3640   -0.0550   29.5270 C   0  0  0  0  0  0  0  0  0  0  0  0
    3.3010   -3.8920   30.2890 C   0  0  0  0  0  0  0  0  0  0  0  0
    3.7860   -4.5980   29.2050 C   0  0  0  0  0  0  0  0  0  0  0  0
    4.9870   -4.2110   28.6390 C   0  0  0  0  0  0  0  0  0  0  0  0
    5.6000   -4.8720   27.4530 C   0  0  0  0  0  0  0  0  0  0  0  0
    5.7370   -5.1540   23.4190 C   0  0  0  0  0  0  0  0  0  0  0  0
    6.5960   -5.5870   22.2620 C   0  0  0  0  0  0  0  0  0  0  0  0
  1  2  1  0
  2  3  2  0
  2  4  1  0
  4  5  1  0
  5  6  1  0
  6  7  1  0
  7  8  1  0
  8  9  2  0
  8 10  1  0
 10 11  1  0
 11 12  1  0
 12 13  1  0
 13 14  2  0
 14 15  1  0
 15 16  1  0
 16 17  1  0
 17 18  1  0
 18 19  2  0
 18 20  1  0
 20 21  1  0
 15 22  2  0
 22 23  1  0
 13 24  1  0
 23 24  2  0
 10 25  1  0
 24 25  1  0
  7 26  1  0
  4 27  1  0
 26 27  1  0
M  END
