piperidine-amides-3378-covalent
     RDKit          3D

 21 22  0  0  0  0  0  0  0  0999 V2000
    7.0860   -3.3400   19.3420 C   0  0  0  0  0  0  0  0  0  0  0  0
    6.4050   -4.2000   20.3020 C   0  0  0  0  0  0  0  0  0  0  0  0
    5.3750   -4.7900   19.9720 O   0  0  0  0  0  0  0  0  0  0  0  0
    6.9650   -4.4140   21.6080 N   0  0  0  0  0  0  0  0  0  0  0  0
    6.5090   -5.5250   22.3870 C   0  0  0  0  0  0  0  0  0  0  0  0
    5.7840   -4.9970   23.5970 C   0  0  0  0  0  0  0  0  0  0  0  0
    6.5860   -3.8500   24.2140 C   0  0  0  0  0  0  0  0  0  0  0  0
    5.8480   -3.2690   25.3720 C   0  0  0  0  0  0  0  0  0  0  0  0
    4.6130   -3.4260   25.5300 O   0  0  0  0  0  0  0  0  0  0  0  0
    6.5950   -2.4930   26.2990 N   0  0  0  0  0  0  0  0  0  0  0  0
    5.9200   -1.5550   27.1770 C   0  0  1  0  0  0  0  0  0  0  0  0
    4.4430   -1.8150   27.0520 C   0  0  0  0  0  0  0  0  0  0  0  0
    6.2710   -1.9250   28.5430 C   0  0  0  0  0  0  0  0  0  0  0  0
    6.8360   -0.8690   29.2620 C   0  0  0  0  0  0  0  0  0  0  0  0
    6.2000   -0.6540   30.4610 C   0  0  0  0  0  0  0  0  0  0  0  0
    8.1400   -1.1500   29.4070 C   0  0  0  0  0  0  0  0  0  0  0  0
    6.9000    0.2230   28.3640 O   0  0  0  0  0  0  0  0  0  0  0  0
    6.2770   -0.2200   27.1670 C   0  0  0  0  0  0  0  0  0  0  0  0
    6.0300    0.6360   26.1030 O   0  0  0  0  0  0  0  0  0  0  0  0
    6.7720   -2.7530   23.1760 C   0  0  0  0  0  0  0  0  0  0  0  0
    7.6340   -3.2860   22.2290 C   0  0  0  0  0  0  0  0  0  0  0  0
  1  2  1  0
  2  3  2  0
  2  4  1  0
  4  5  1  0
  5  6  1  0
  6  7  1  0
  7  8  1  0
  8  9  2  0
  8 10  1  0
 11 10  1  0
 11 12  1  1
 11 13  1  0
 13 14  1  0
 14 15  1  0
 14 16  1  0
 14 17  1  0
 11 18  1  0
 17 18  1  0
 18 19  2  0
  7 20  1  0
  4 21  1  0
 20 21  1  0
M  END
