piperidine-amides-10856-covalent
     RDKit          3D

 22 22  0  0  0  0  0  0  0  0999 V2000
    7.1170   -3.2710   19.1900 C   0  0  0  0  0  0  0  0  0  0  0  0
    6.3440   -3.9990   20.1960 C   0  0  0  0  0  0  0  0  0  0  0  0
    5.2690   -4.5300   19.8730 O   0  0  0  0  0  0  0  0  0  0  0  0
    6.8230   -4.1500   21.4990 N   0  0  0  0  0  0  0  0  0  0  0  0
    7.6920   -3.1860   22.1330 C   0  0  0  0  0  0  0  0  0  0  0  0
    6.9340   -2.6850   23.3240 C   0  0  0  0  0  0  0  0  0  0  0  0
    6.5310   -3.8230   24.2110 C   0  0  0  0  0  0  0  0  0  0  0  0
    5.8060   -3.3570   25.4130 C   0  0  0  0  0  0  0  0  0  0  0  0
    4.5390   -3.2840   25.4110 O   0  0  0  0  0  0  0  0  0  0  0  0
    6.4700   -2.9700   26.5930 N   0  0  0  0  0  0  0  0  0  0  0  0
    6.2000   -3.6260   27.8950 C   0  0  0  0  0  0  0  0  0  0  0  0
    5.9730   -5.0800   27.6940 C   0  0  0  0  0  0  0  0  0  0  0  0
    6.5650   -6.0040   28.6740 C   0  0  0  0  0  0  0  0  0  0  0  0
    5.5500   -7.0610   29.6160 S   0  0  0  0  0  0  0  0  0  0  0  0
    6.0140   -8.4570   29.4870 O   0  0  0  0  0  0  0  0  0  0  0  0
    5.6350   -6.6040   31.0590 O   0  0  0  0  0  0  0  0  0  0  0  0
    3.8920   -6.9980   29.0340 C   0  0  0  0  0  0  0  0  0  0  0  0
    2.9580   -7.9000   29.8110 C   0  0  0  0  0  0  0  0  0  0  0  0
    3.9270   -7.2190   27.5120 C   0  0  0  0  0  0  0  0  0  0  0  0
    3.0980   -5.7600   29.4180 C   0  0  0  0  0  0  0  0  0  0  0  0
    5.7070   -4.8450   23.4740 C   0  0  0  0  0  0  0  0  0  0  0  0
    6.4720   -5.3290   22.2640 C   0  0  0  0  0  0  0  0  0  0  0  0
  1  2  1  0
  2  3  2  0
  2  4  1  0
  4  5  1  0
  5  6  1  0
  6  7  1  0
  7  8  1  0
  8  9  2  0
  8 10  1  0
 10 11  1  0
 11 12  1  0
 12 13  1  0
 14 13  1  0
 14 15  2  0
 14 16  2  0
 14 17  1  0
 17 18  1  0
 17 19  1  0
 17 20  1  0
  7 21  1  0
  4 22  1  0
 21 22  1  0
M  END
