piperidine-amides-590-covalent
     RDKit          3D

 26 27  0  0  0  0  0  0  0  0999 V2000
    7.1110   -3.2560   19.1290 C   0  0  0  0  0  0  0  0  0  0  0  0
    6.3990   -3.9270   20.1910 C   0  0  0  0  0  0  0  0  0  0  0  0
    5.3170   -4.5180   19.8870 O   0  0  0  0  0  0  0  0  0  0  0  0
    6.8740   -4.0090   21.5120 N   0  0  0  0  0  0  0  0  0  0  0  0
    7.8210   -2.9710   22.0020 C   0  0  0  0  0  0  0  0  0  0  0  0
    7.6740   -3.1280   23.5660 C   0  0  0  0  0  0  0  0  0  0  0  0
    6.1900   -3.2510   23.7900 C   0  0  0  0  0  0  0  0  0  0  0  0
    5.6980   -2.7400   25.2160 C   0  0  0  0  0  0  0  0  0  0  0  0
    4.5600   -2.2930   25.1510 O   0  0  0  0  0  0  0  0  0  0  0  0
    6.6210   -2.9370   26.0700 N   0  0  0  0  0  0  0  0  0  0  0  0
    7.5530   -3.1640   27.0240 C   0  0  0  0  0  0  0  0  0  0  0  0
    7.8970   -4.0490   27.9980 C   0  0  0  0  0  0  0  0  0  0  0  0
    8.4320   -5.2590   27.5200 C   0  0  0  0  0  0  0  0  0  0  0  0
    8.5690   -5.3280   26.0410 C   0  0  0  0  0  0  0  0  0  0  0  0
    7.0570   -5.6020   25.8720 C   0  0  0  0  0  0  0  0  0  0  0  0
    7.0090   -6.4460   24.7480 C   0  0  0  0  0  0  0  0  0  0  0  0
    5.8930   -7.0790   24.0650 C   0  0  0  0  0  0  0  0  0  0  0  0
    4.7000   -6.5430   24.9600 C   0  0  0  0  0  0  0  0  0  0  0  0
    3.2120   -6.9440   24.6410 C   0  0  0  0  0  0  0  0  0  0  0  0
    2.9060   -6.7860   23.2850 F   0  0  0  0  0  0  0  0  0  0  0  0
    2.2710   -6.2170   25.2890 F   0  0  0  0  0  0  0  0  0  0  0  0
    2.9870   -8.3070   24.8940 F   0  0  0  0  0  0  0  0  0  0  0  0
    4.8040   -5.6460   26.1440 C   0  0  0  0  0  0  0  0  0  0  0  0
    5.9810   -5.2090   26.5560 C   0  0  0  0  0  0  0  0  0  0  0  0
    5.6090   -4.5630   23.3010 C   0  0  0  0  0  0  0  0  0  0  0  0
    6.4700   -5.0850   22.3670 C   0  0  0  0  0  0  0  0  0  0  0  0
  1  2  1  0
  2  3  2  0
  2  4  1  0
  4  5  1  0
  5  6  1  0
  6  7  1  0
  7  8  1  0
  8  9  2  0
  8 10  1  0
 10 11  1  0
 11 12  1  0
 12 13  1  0
 13 14  1  0
 14 15  1  0
 15 16  2  0
 16 17  1  0
 17 18  2  0
 18 19  1  0
 19 20  1  0
 19 21  1  0
 19 22  1  0
 18 23  1  0
 15 24  1  0
 23 24  2  0
  7 25  1  0
  4 26  1  0
 25 26  1  0
M  END
