piperidine-amides-27879-covalent
     RDKit          3D

 26 28  0  0  0  0  0  0  0  0999 V2000
    7.0140   -3.3590   19.3790 C   0  0  0  0  0  0  0  0  0  0  0  0
    6.3920   -4.2130   20.4200 C   0  0  0  0  0  0  0  0  0  0  0  0
    5.4410   -4.9180   20.0100 O   0  0  0  0  0  0  0  0  0  0  0  0
    6.8630   -4.2640   21.7620 N   0  0  0  0  0  0  0  0  0  0  0  0
    6.6160   -5.4370   22.5440 C   0  0  0  0  0  0  0  0  0  0  0  0
    6.0730   -5.1400   23.8780 C   0  0  0  0  0  0  0  0  0  0  0  0
    5.8940   -3.6910   24.1050 C   0  0  0  0  0  0  0  0  0  0  0  0
    5.0310   -3.3590   25.3250 C   0  0  0  0  0  0  0  0  0  0  0  0
    3.8250   -3.5640   25.1450 O   0  0  0  0  0  0  0  0  0  0  0  0
    5.3930   -2.8440   26.6160 N   0  0  0  0  0  0  0  0  0  0  0  0
    4.4370   -2.2930   27.5620 C   0  0  0  0  0  0  0  0  0  0  0  0
    4.2620   -3.2120   28.7230 C   0  0  0  0  0  0  0  0  0  0  0  0
    3.1400   -3.0790   29.6260 C   0  0  0  0  0  0  0  0  0  0  0  0
    3.0330   -3.9610   30.6510 C   0  0  0  0  0  0  0  0  0  0  0  0
    3.9470   -4.9610   30.8470 C   0  0  0  0  0  0  0  0  0  0  0  0
    5.0330   -5.1230   30.0150 C   0  0  0  0  0  0  0  0  0  0  0  0
    5.2900   -4.3120   28.9350 C   0  0  0  0  0  0  0  0  0  0  0  0
    6.3610   -4.5330   28.1550 C   0  0  1  0  0  0  0  0  0  0  0  0
    6.0730   -5.7370   27.5310 C   0  0  0  0  0  0  0  0  0  0  0  0
    5.9440   -5.9420   26.3230 O   0  0  0  0  0  0  0  0  0  0  0  0
    5.9170   -6.7160   28.4990 O   0  0  0  0  0  0  0  0  0  0  0  0
    4.8500   -7.6450   28.5020 C   0  0  0  0  0  0  0  0  0  0  0  0
    3.9300   -7.3870   29.6640 C   0  0  0  0  0  0  0  0  0  0  0  0
    6.5190   -3.3720   27.1830 C   0  0  0  0  0  0  0  0  0  0  0  0
    7.0870   -2.8910   23.7920 C   0  0  0  0  0  0  0  0  0  0  0  0
    7.6430   -3.1840   22.3890 C   0  0  0  0  0  0  0  0  0  0  0  0
  1  2  1  0
  2  3  2  0
  2  4  1  0
  4  5  1  0
  5  6  1  0
  6  7  1  0
  7  8  1  0
  8  9  2  0
  8 10  1  0
 10 11  1  0
 11 12  1  0
 12 13  2  0
 13 14  1  0
 14 15  2  0
 15 16  1  0
 12 17  1  0
 16 17  2  0
 17 18  1  0
 18 19  1  6
 19 20  2  0
 19 21  1  0
 21 22  1  0
 22 23  1  0
 10 24  1  0
 18 24  1  0
  7 25  1  0
  4 26  1  0
 25 26  1  0
M  END
