piperidine-amides-17107-covalent
     RDKit          3D

 20 21  0  0  0  0  0  0  0  0999 V2000
    7.1450   -3.3650   19.2620 C   0  0  0  0  0  0  0  0  0  0  0  0
    6.4140   -4.1400   20.2690 C   0  0  0  0  0  0  0  0  0  0  0  0
    5.3160   -4.6330   19.9220 O   0  0  0  0  0  0  0  0  0  0  0  0
    6.9920   -4.3640   21.5350 N   0  0  0  0  0  0  0  0  0  0  0  0
    6.5240   -5.4410   22.3270 C   0  0  0  0  0  0  0  0  0  0  0  0
    6.0770   -5.0450   23.6630 C   0  0  0  0  0  0  0  0  0  0  0  0
    6.6480   -3.7960   24.2260 C   0  0  0  0  0  0  0  0  0  0  0  0
    5.7590   -3.2670   25.2980 C   0  0  0  0  0  0  0  0  0  0  0  0
    4.9160   -2.4030   25.0090 O   0  0  0  0  0  0  0  0  0  0  0  0
    5.8040   -3.7140   26.6200 N   0  0  0  0  0  0  0  0  0  0  0  0
    6.3560   -3.0210   27.6940 C   0  0  0  0  0  0  0  0  0  0  0  0
    6.7360   -3.7470   28.9000 C   0  0  0  0  0  0  0  0  0  0  0  0
    5.9220   -5.0340   29.0070 C   0  0  0  0  0  0  0  0  0  0  0  0
    6.5080   -6.2470   29.3090 C   0  0  0  0  0  0  0  0  0  0  0  0
    5.0850   -4.8720   30.0890 O   0  0  0  0  0  0  0  0  0  0  0  0
    4.2200   -3.7940   29.9490 C   0  0  0  0  0  0  0  0  0  0  0  0
    5.2780   -5.5670   27.8300 C   0  0  0  0  0  0  0  0  0  0  0  0
    4.6540   -4.4360   27.0240 C   0  0  0  0  0  0  0  0  0  0  0  0
    6.9590   -2.7060   23.2430 C   0  0  0  0  0  0  0  0  0  0  0  0
    7.7860   -3.3350   22.1600 C   0  0  0  0  0  0  0  0  0  0  0  0
  1  2  1  0
  2  3  2  0
  2  4  1  0
  4  5  1  0
  5  6  1  0
  6  7  1  0
  7  8  1  0
  8  9  2  0
  8 10  1  0
 10 11  1  0
 11 12  1  0
 12 13  1  0
 13 14  1  0
 13 15  1  0
 15 16  1  0
 13 17  1  0
 10 18  1  0
 17 18  1  0
  7 19  1  0
  4 20  1  0
 19 20  1  0
M  END
