piperidine-amides-21706-covalent
     RDKit          3D

 22 22  0  0  0  0  0  0  0  0999 V2000
    7.0590   -3.2890   19.2730 C   0  0  0  0  0  0  0  0  0  0  0  0
    6.3520   -4.0570   20.3070 C   0  0  0  0  0  0  0  0  0  0  0  0
    5.3240   -4.6790   19.9320 O   0  0  0  0  0  0  0  0  0  0  0  0
    6.8270   -4.1190   21.6260 N   0  0  0  0  0  0  0  0  0  0  0  0
    7.6810   -3.0910   22.1930 C   0  0  0  0  0  0  0  0  0  0  0  0
    7.3650   -2.9690   23.6620 C   0  0  0  0  0  0  0  0  0  0  0  0
    6.0620   -3.6510   23.9790 C   0  0  0  0  0  0  0  0  0  0  0  0
    5.5780   -3.4410   25.3720 C   0  0  0  0  0  0  0  0  0  0  0  0
    4.3650   -3.6540   25.5740 O   0  0  0  0  0  0  0  0  0  0  0  0
    6.3490   -2.9970   26.4750 N   0  0  0  0  0  0  0  0  0  0  0  0
    6.2820   -3.7240   27.7360 C   0  0  0  0  0  0  0  0  0  0  0  0
    6.0320   -5.2220   27.5890 C   0  0  0  0  0  0  0  0  0  0  0  0
    6.6090   -6.1670   28.3990 C   0  0  0  0  0  0  0  0  0  0  0  0
    6.0010   -6.5660   29.5480 N   0  0  0  0  0  0  0  0  0  0  0  0
    6.5920   -1.5840   26.6300 C   0  0  0  0  0  0  0  0  0  0  0  0
    6.2290   -1.2080   27.9230 C   0  0  0  0  0  0  0  0  0  0  0  0
    5.7940    0.1000   28.0920 C   0  0  0  0  0  0  0  0  0  0  0  0
    4.4900    0.0340   28.6100 F   0  0  0  0  0  0  0  0  0  0  0  0
    5.7420    0.7610   26.8850 F   0  0  0  0  0  0  0  0  0  0  0  0
    6.6190    0.7440   29.0160 F   0  0  0  0  0  0  0  0  0  0  0  0
    6.1290   -5.1570   23.7590 C   0  0  0  0  0  0  0  0  0  0  0  0
    6.5800   -5.3770   22.3330 C   0  0  0  0  0  0  0  0  0  0  0  0
  1  2  1  0
  2  3  2  0
  2  4  1  0
  4  5  1  0
  5  6  1  0
  6  7  1  0
  7  8  1  0
  8  9  2  0
  8 10  1  0
 10 11  1  0
 11 12  1  0
 12 13  1  0
 13 14  3  0
 10 15  1  0
 15 16  1  0
 16 17  1  0
 17 18  1  0
 17 19  1  0
 17 20  1  0
  7 21  1  0
  4 22  1  0
 21 22  1  0
M  END
