piperidine-amides-14825-covalent
     RDKit          3D

 22 24  0  0  0  0  0  0  0  0999 V2000
    7.0140   -3.3330   19.3560 C   0  0  0  0  0  0  0  0  0  0  0  0
    6.3690   -4.1860   20.3590 C   0  0  0  0  0  0  0  0  0  0  0  0
    5.4030   -4.8790   19.9900 O   0  0  0  0  0  0  0  0  0  0  0  0
    6.8550   -4.2440   21.6980 N   0  0  0  0  0  0  0  0  0  0  0  0
    7.7170   -3.1920   22.1970 C   0  0  0  0  0  0  0  0  0  0  0  0
    7.4160   -2.8880   23.6340 C   0  0  0  0  0  0  0  0  0  0  0  0
    6.0850   -3.5260   23.9070 C   0  0  0  0  0  0  0  0  0  0  0  0
    5.6320   -3.2100   25.3010 C   0  0  0  0  0  0  0  0  0  0  0  0
    4.4270   -3.3120   25.5180 O   0  0  0  0  0  0  0  0  0  0  0  0
    6.5880   -2.8310   26.2370 N   0  0  0  0  0  0  0  0  0  0  0  0
    6.5010   -1.6540   27.0390 C   0  0  0  0  0  0  0  0  0  0  0  0
    7.0020   -1.5620   28.3410 C   0  0  0  0  0  0  0  0  0  0  0  0
    6.9090   -0.4090   29.1110 C   0  0  0  0  0  0  0  0  0  0  0  0
    6.3120    0.8150   28.7180 C   0  0  0  0  0  0  0  0  0  0  0  0
    6.2330    2.3410   29.8570 Br  0  0  0  0  0  0  0  0  0  0  0  0
    5.7770    0.7060   27.3180 C   0  0  0  0  0  0  0  0  0  0  0  0
    5.8630   -0.5050   26.4710 C   0  0  0  0  0  0  0  0  0  0  0  0
    5.2320   -0.2040   25.1860 C   0  0  0  0  0  0  0  0  0  0  0  0
    4.8370    1.2520   25.4780 C   0  0  0  0  0  0  0  0  0  0  0  0
    5.1390    1.7190   26.6510 O   0  0  0  0  0  0  0  0  0  0  0  0
    6.0360   -4.9800   23.7050 C   0  0  0  0  0  0  0  0  0  0  0  0
    6.6390   -5.4080   22.5390 C   0  0  0  0  0  0  0  0  0  0  0  0
  1  2  1  0
  2  3  2  0
  2  4  1  0
  4  5  1  0
  5  6  1  0
  6  7  1  0
  7  8  1  0
  8  9  2  0
  8 10  1  0
 10 11  1  0
 11 12  2  0
 12 13  1  0
 13 14  2  0
 14 15  1  0
 14 16  1  0
 11 17  1  0
 16 17  2  0
 17 18  1  0
 18 19  1  0
 16 20  1  0
 19 20  1  0
  7 21  1  0
  4 22  1  0
 21 22  1  0
M  END
