piperidine-amides-31452-covalent
     RDKit          3D

 28 30  0  0  0  0  0  0  0  0999 V2000
    7.0300   -3.4230   19.3770 C   0  0  0  0  0  0  0  0  0  0  0  0
    6.4090   -4.2340   20.4060 C   0  0  0  0  0  0  0  0  0  0  0  0
    5.4350   -4.9570   20.0190 O   0  0  0  0  0  0  0  0  0  0  0  0
    6.8450   -4.2970   21.7630 N   0  0  0  0  0  0  0  0  0  0  0  0
    7.8260   -3.2840   22.2430 C   0  0  0  0  0  0  0  0  0  0  0  0
    6.9610   -2.5030   23.3000 C   0  0  0  0  0  0  0  0  0  0  0  0
    6.1100   -3.5380   23.9930 C   0  0  0  0  0  0  0  0  0  0  0  0
    5.3830   -3.0000   25.3190 C   0  0  0  0  0  0  0  0  0  0  0  0
    4.3150   -2.5120   24.9810 O   0  0  0  0  0  0  0  0  0  0  0  0
    6.0320   -3.1940   26.4130 N   0  0  0  0  0  0  0  0  0  0  0  0
    6.4570   -3.8480   27.5460 C   0  0  0  0  0  0  0  0  0  0  0  0
    7.1290   -5.0190   27.8490 C   0  0  0  0  0  0  0  0  0  0  0  0
    6.2700   -6.0350   28.3240 C   0  0  0  0  0  0  0  0  0  0  0  0
    6.5320   -1.8560   26.9700 C   0  0  2  0  0  0  0  0  0  0  0  0
    6.6540   -2.0180   28.5140 C   0  0  0  0  0  0  0  0  0  0  0  0
    7.3040   -0.7810   28.6820 C   0  0  0  0  0  0  0  0  0  0  0  0
    6.6020    0.3610   28.3040 C   0  0  0  0  0  0  0  0  0  0  0  0
    6.1770    0.4330   27.0430 N   0  0  0  0  0  0  0  0  0  0  0  0
    5.6110    1.6220   26.4490 C   0  0  0  0  0  0  0  0  0  0  0  0
    5.2180    2.6730   27.5410 C   0  0  0  0  0  0  0  0  0  0  0  0
    6.1860    3.4220   28.1800 C   0  0  0  0  0  0  0  0  0  0  0  0
    5.9040    4.3520   29.1390 C   0  0  0  0  0  0  0  0  0  0  0  0
    4.6360    4.5880   29.5150 C   0  0  0  0  0  0  0  0  0  0  0  0
    3.6360    3.8760   28.9180 C   0  0  0  0  0  0  0  0  0  0  0  0
    3.9040    2.9180   27.9310 C   0  0  0  0  0  0  0  0  0  0  0  0
    5.7830   -0.7870   26.4720 C   0  0  0  0  0  0  0  0  0  0  0  0
    6.5710   -4.9820   24.0130 C   0  0  0  0  0  0  0  0  0  0  0  0
    6.5200   -5.4570   22.5550 C   0  0  0  0  0  0  0  0  0  0  0  0
  1  2  1  0
  2  3  2  0
  2  4  1  0
  4  5  1  0
  5  6  1  0
  6  7  1  0
  7  8  1  0
  8  9  2  0
  8 10  1  0
 10 11  1  0
 11 12  1  0
 12 13  1  0
 14 10  1  1
 14 15  1  0
 15 16  1  0
 16 17  1  0
 17 18  1  0
 18 19  1  0
 19 20  1  0
 20 21  2  0
 21 22  1  0
 22 23  2  0
 23 24  1  0
 20 25  1  0
 24 25  2  0
 14 26  1  0
 18 26  1  0
  7 27  1  0
  4 28  1  0
 27 28  1  0
M  END
