piperidine-amides-14482-covalent
     RDKit          3D

 25 26  0  0  0  0  0  0  0  0999 V2000
    7.1260   -3.2750   19.1840 C   0  0  0  0  0  0  0  0  0  0  0  0
    6.3960   -4.0340   20.1960 C   0  0  0  0  0  0  0  0  0  0  0  0
    5.2990   -4.5250   19.8810 O   0  0  0  0  0  0  0  0  0  0  0  0
    6.9700   -4.2510   21.4720 N   0  0  0  0  0  0  0  0  0  0  0  0
    6.4700   -5.3390   22.2490 C   0  0  0  0  0  0  0  0  0  0  0  0
    5.7090   -4.7630   23.4060 C   0  0  0  0  0  0  0  0  0  0  0  0
    6.6660   -3.8700   24.1720 C   0  0  0  0  0  0  0  0  0  0  0  0
    5.9930   -3.3480   25.3890 C   0  0  0  0  0  0  0  0  0  0  0  0
    4.8410   -2.9360   25.2530 O   0  0  0  0  0  0  0  0  0  0  0  0
    6.7180   -3.3840   26.5700 N   0  0  0  0  0  0  0  0  0  0  0  0
    6.4990   -4.4330   27.4970 C   0  0  1  0  0  0  0  0  0  0  0  0
    6.2820   -5.7110   26.9810 C   0  0  0  0  0  0  0  0  0  0  0  0
    7.6990   -4.5820   28.2990 C   0  0  0  0  0  0  0  0  0  0  0  0
    8.9940   -4.7600   28.6250 O   0  0  0  0  0  0  0  0  0  0  0  0
    8.2760   -4.6890   27.0240 O   0  0  0  0  0  0  0  0  0  0  0  0
    9.1580   -5.7960   26.7800 C   0  0  0  0  0  0  0  0  0  0  0  0
    5.3520   -4.0760   28.3850 C   0  0  0  0  0  0  0  0  0  0  0  0
    4.3550   -5.1580   28.8930 C   0  0  0  0  0  0  0  0  0  0  0  0
    3.2070   -4.8110   29.7770 C   0  0  0  0  0  0  0  0  0  0  0  0
    3.0860   -3.3630   30.1380 C   0  0  0  0  0  0  0  0  0  0  0  0
    4.0910   -2.3140   29.6230 C   0  0  0  0  0  0  0  0  0  0  0  0
    3.8040   -0.4990   30.1730 Br  0  0  0  0  0  0  0  0  0  0  0  0
    5.1500   -2.6340   28.8070 C   0  0  0  0  0  0  0  0  0  0  0  0
    6.9950   -2.6920   23.3130 C   0  0  0  0  0  0  0  0  0  0  0  0
    7.6730   -3.1370   22.0590 C   0  0  0  0  0  0  0  0  0  0  0  0
  1  2  1  0
  2  3  2  0
  2  4  1  0
  4  5  1  0
  5  6  1  0
  6  7  1  0
  7  8  1  0
  8  9  2  0
  8 10  1  0
 10 11  1  0
 11 12  1  6
 11 13  1  0
 13 14  2  0
 13 15  1  0
 15 16  1  0
 11 17  1  0
 17 18  2  0
 18 19  1  0
 19 20  2  0
 20 21  1  0
 21 22  1  0
 17 23  1  0
 21 23  2  0
  7 24  1  0
  4 25  1  0
 24 25  1  0
M  END
