piperidine-amides-31642-covalent
     RDKit          3D

 28 30  0  0  0  0  0  0  0  0999 V2000
    7.1490   -3.3040   19.4330 C   0  0  0  0  0  0  0  0  0  0  0  0
    6.3580   -4.0630   20.3790 C   0  0  0  0  0  0  0  0  0  0  0  0
    5.3310   -4.6690   19.9330 O   0  0  0  0  0  0  0  0  0  0  0  0
    6.7000   -4.1940   21.7500 N   0  0  0  0  0  0  0  0  0  0  0  0
    7.6620   -3.1740   22.2880 C   0  0  0  0  0  0  0  0  0  0  0  0
    7.2020   -2.8950   23.7900 C   0  0  0  0  0  0  0  0  0  0  0  0
    6.1250   -3.9040   24.0760 C   0  0  0  0  0  0  0  0  0  0  0  0
    5.2120   -3.7040   25.3800 C   0  0  0  0  0  0  0  0  0  0  0  0
    4.0630   -3.9580   25.0580 O   0  0  0  0  0  0  0  0  0  0  0  0
    5.8230   -3.3250   26.4440 N   0  0  0  0  0  0  0  0  0  0  0  0
    6.2300   -2.4430   27.3960 C   0  0  0  0  0  0  0  0  0  0  0  0
    6.7260   -1.1740   27.4000 C   0  0  0  0  0  0  0  0  0  0  0  0
    5.9240   -0.2360   26.6870 C   0  0  0  0  0  0  0  0  0  0  0  0
    4.5140   -0.1420   27.1010 C   0  0  0  0  0  0  0  0  0  0  0  0
    4.3340   -0.0890   28.4860 N   0  0  0  0  0  0  0  0  0  0  0  0
    3.9510    1.1110   29.2320 C   0  0  0  0  0  0  0  0  0  0  0  0
    4.6910    2.1690   28.7630 C   0  0  0  0  0  0  0  0  0  0  0  0
    4.6550    3.5100   29.1890 C   0  0  0  0  0  0  0  0  0  0  0  0
    3.5500    3.2490   30.2720 C   0  0  0  0  0  0  0  0  0  0  0  0
    2.8110    2.0850   30.7080 N   0  0  0  0  0  0  0  0  0  0  0  0
    3.0310    0.9160   30.1370 N   0  0  0  0  0  0  0  0  0  0  0  0
    5.3470   -0.6440   29.1630 C   0  0  0  0  0  0  0  0  0  0  0  0
    6.5880   -0.3240   28.6570 C   0  0  0  0  0  0  0  0  0  0  0  0
    6.0020   -4.6060   27.2100 C   0  0  0  0  0  0  0  0  0  0  0  0
    4.8050   -5.1430   27.4410 C   0  0  0  0  0  0  0  0  0  0  0  0
    6.7230   -4.4860   28.3870 C   0  0  0  0  0  0  0  0  0  0  0  0
    6.3960   -5.3260   23.7700 C   0  0  0  0  0  0  0  0  0  0  0  0
    6.6310   -5.5270   22.3130 C   0  0  0  0  0  0  0  0  0  0  0  0
  1  2  1  0
  2  3  2  0
  2  4  1  0
  4  5  1  0
  5  6  1  0
  6  7  1  0
  7  8  1  0
  8  9  2  0
  8 10  1  0
 10 11  1  0
 11 12  1  0
 12 13  1  0
 13 14  1  0
 14 15  1  0
 15 16  1  0
 16 17  2  0
 17 18  1  0
 18 19  2  0
 19 20  1  0
 16 21  1  0
 20 21  2  0
 15 22  1  0
 12 23  1  0
 22 23  1  0
 10 24  1  0
 24 25  1  0
 24 26  1  0
  7 27  1  0
  4 28  1  0
 27 28  1  0
M  END
