piperidine-amides-28695-covalent
     RDKit          3D

 25 27  0  0  0  0  0  0  0  0999 V2000
    7.0240   -3.3640   19.4140 C   0  0  0  0  0  0  0  0  0  0  0  0
    6.4010   -4.2540   20.3910 C   0  0  0  0  0  0  0  0  0  0  0  0
    5.4180   -4.9160   20.0040 O   0  0  0  0  0  0  0  0  0  0  0  0
    6.9310   -4.3840   21.7080 N   0  0  0  0  0  0  0  0  0  0  0  0
    6.4950   -5.4790   22.5120 C   0  0  0  0  0  0  0  0  0  0  0  0
    5.5460   -4.9580   23.5590 C   0  0  0  0  0  0  0  0  0  0  0  0
    6.2350   -3.8650   24.3710 C   0  0  0  0  0  0  0  0  0  0  0  0
    5.2370   -3.2040   25.3200 C   0  0  0  0  0  0  0  0  0  0  0  0
    4.3450   -2.5800   24.7620 O   0  0  0  0  0  0  0  0  0  0  0  0
    5.3400   -3.3040   26.7290 N   0  0  0  0  0  0  0  0  0  0  0  0
    6.5290   -3.2220   27.3710 C   0  0  0  0  0  0  0  0  0  0  0  0
    6.6770   -4.3060   28.2530 C   0  0  0  0  0  0  0  0  0  0  0  0
    5.6440   -4.4220   29.0940 C   0  0  0  0  0  0  0  0  0  0  0  0
    4.3840   -4.0800   28.6220 C   0  0  2  0  0  0  0  0  0  0  0  0
    3.8010   -5.3980   28.2190 C   0  0  0  0  0  0  0  0  0  0  0  0
    3.3250   -5.5840   26.9690 N   0  0  0  0  0  0  0  0  0  0  0  0
    2.8160   -6.7650   26.6700 C   0  0  0  0  0  0  0  0  0  0  0  0
    2.2580   -7.1240   25.3440 C   0  0  0  0  0  0  0  0  0  0  0  0
    2.1660   -5.8150   24.6010 C   0  0  0  0  0  0  0  0  0  0  0  0
    2.8700   -8.1730   24.7010 C   0  0  0  0  0  0  0  0  0  0  0  0
    2.8140   -7.7110   27.6720 C   0  0  0  0  0  0  0  0  0  0  0  0
    3.5310   -6.9260   29.0070 S   0  0  0  0  0  0  0  0  0  0  0  0
    4.2300   -3.1320   27.6110 C   0  0  0  0  0  0  0  0  0  0  0  0
    6.8600   -2.7950   23.5140 C   0  0  0  0  0  0  0  0  0  0  0  0
    7.6660   -3.3310   22.3560 C   0  0  0  0  0  0  0  0  0  0  0  0
  1  2  1  0
  2  3  2  0
  2  4  1  0
  4  5  1  0
  5  6  1  0
  6  7  1  0
  7  8  1  0
  8  9  2  0
  8 10  1  0
 10 11  1  0
 11 12  1  0
 12 13  1  0
 13 14  1  0
 14 15  1  6
 15 16  2  0
 16 17  1  0
 17 18  1  0
 18 19  1  0
 18 20  1  0
 17 21  2  0
 15 22  1  0
 21 22  1  0
 10 23  1  0
 14 23  1  0
  7 24  1  0
  4 25  1  0
 24 25  1  0
M  END
