piperidine-amides-13130-covalent
     RDKit          3D

 20 21  0  0  0  0  0  0  0  0999 V2000
    7.1620   -3.2350   19.1440 C   0  0  0  0  0  0  0  0  0  0  0  0
    6.3730   -3.9610   20.1670 C   0  0  0  0  0  0  0  0  0  0  0  0
    5.2660   -4.4170   19.8220 O   0  0  0  0  0  0  0  0  0  0  0  0
    6.8860   -4.1680   21.4470 N   0  0  0  0  0  0  0  0  0  0  0  0
    7.6780   -3.1420   22.0450 C   0  0  0  0  0  0  0  0  0  0  0  0
    7.3590   -2.8520   23.4370 C   0  0  0  0  0  0  0  0  0  0  0  0
    6.5690   -3.8890   24.1230 C   0  0  0  0  0  0  0  0  0  0  0  0
    5.7410   -3.2680   25.1660 C   0  0  0  0  0  0  0  0  0  0  0  0
    4.6040   -2.8610   24.8660 O   0  0  0  0  0  0  0  0  0  0  0  0
    6.2160   -3.1530   26.4660 N   0  0  0  0  0  0  0  0  0  0  0  0
    5.8260   -4.1530   27.4630 C   0  0  0  0  0  0  0  0  0  0  0  0
    6.3250   -3.8010   28.7980 C   0  0  0  0  0  0  0  0  0  0  0  0
    6.0330   -2.4470   29.2870 C   0  0  0  0  0  0  0  0  0  0  0  0
    4.6960   -2.1770   29.4940 C   0  0  0  0  0  0  0  0  0  0  0  0
    4.4250   -0.8740   29.9690 N   0  0  0  0  0  0  0  0  0  0  0  0
    5.4410    0.1340   30.2340 C   0  0  0  0  0  0  0  0  0  0  0  0
    6.7220   -0.2410   29.9940 C   0  0  0  0  0  0  0  0  0  0  0  0
    6.9860   -1.5390   29.5200 N   0  0  0  0  0  0  0  0  0  0  0  0
    5.7770   -4.8440   23.2890 C   0  0  0  0  0  0  0  0  0  0  0  0
    6.5280   -5.2960   22.2540 C   0  0  0  0  0  0  0  0  0  0  0  0
  1  2  1  0
  2  3  2  0
  2  4  1  0
  4  5  1  0
  5  6  1  0
  6  7  1  0
  7  8  1  0
  8  9  2  0
  8 10  1  0
 10 11  1  0
 11 12  1  0
 12 13  1  0
 13 14  2  0
 14 15  1  0
 15 16  2  0
 16 17  1  0
 13 18  1  0
 17 18  2  0
  7 19  1  0
  4 20  1  0
 19 20  1  0
M  END
