piperidine-amides-6410-covalent
     RDKit          3D

 21 22  0  0  0  0  0  0  0  0999 V2000
    7.1250   -3.2950   19.2300 C   0  0  0  0  0  0  0  0  0  0  0  0
    6.3340   -4.0420   20.2170 C   0  0  0  0  0  0  0  0  0  0  0  0
    5.2470   -4.5570   19.8830 O   0  0  0  0  0  0  0  0  0  0  0  0
    6.8160   -4.2390   21.5120 N   0  0  0  0  0  0  0  0  0  0  0  0
    7.6390   -3.2310   22.1430 C   0  0  0  0  0  0  0  0  0  0  0  0
    6.8030   -2.6560   23.2820 C   0  0  0  0  0  0  0  0  0  0  0  0
    6.4130   -3.8390   24.1360 C   0  0  0  0  0  0  0  0  0  0  0  0
    5.6680   -3.3730   25.3190 C   0  0  0  0  0  0  0  0  0  0  0  0
    4.4200   -3.4240   25.2900 O   0  0  0  0  0  0  0  0  0  0  0  0
    6.3600   -2.8880   26.4520 N   0  0  0  0  0  0  0  0  0  0  0  0
    6.8530   -1.5430   26.4490 C   0  0  0  0  0  0  0  0  0  0  0  0
    5.7350   -0.5960   26.0460 C   0  0  0  0  0  0  0  0  0  0  0  0
    4.4070   -0.6060   26.4650 C   0  0  0  0  0  0  0  0  0  0  0  0
    3.4590    0.3110   26.0420 C   0  0  0  0  0  0  0  0  0  0  0  0
    3.7840    1.3180   25.1490 C   0  0  0  0  0  0  0  0  0  0  0  0
    2.8140    2.2170   24.7500 F   0  0  0  0  0  0  0  0  0  0  0  0
    5.0340    1.4530   24.6530 C   0  0  0  0  0  0  0  0  0  0  0  0
    5.2180    2.5060   23.7720 F   0  0  0  0  0  0  0  0  0  0  0  0
    6.1220    0.5020   25.0580 C   0  0  0  0  0  0  0  0  0  0  0  0
    5.6490   -4.8840   23.3940 C   0  0  0  0  0  0  0  0  0  0  0  0
    6.4790   -5.4180   22.2780 C   0  0  0  0  0  0  0  0  0  0  0  0
  1  2  1  0
  2  3  2  0
  2  4  1  0
  4  5  1  0
  5  6  1  0
  6  7  1  0
  7  8  1  0
  8  9  2  0
  8 10  1  0
 10 11  1  0
 11 12  1  0
 12 13  2  0
 13 14  1  0
 14 15  2  0
 15 16  1  0
 15 17  1  0
 17 18  1  0
 12 19  1  0
 17 19  2  0
  7 20  1  0
  4 21  1  0
 20 21  1  0
M  END
