piperidine-amides-35489-covalent
     RDKit          3D

 30 33  0  0  0  0  0  0  0  0999 V2000
    7.0110   -3.3900   19.4720 C   0  0  0  0  0  0  0  0  0  0  0  0
    6.3510   -4.2690   20.4750 C   0  0  0  0  0  0  0  0  0  0  0  0
    5.4430   -4.9750   20.0240 O   0  0  0  0  0  0  0  0  0  0  0  0
    6.7720   -4.3100   21.8310 N   0  0  0  0  0  0  0  0  0  0  0  0
    6.6060   -5.5140   22.6210 C   0  0  0  0  0  0  0  0  0  0  0  0
    6.0090   -5.1600   23.9670 C   0  0  0  0  0  0  0  0  0  0  0  0
    5.8380   -3.6430   24.0190 C   0  0  0  0  0  0  0  0  0  0  0  0
    4.9790   -3.1550   25.1800 C   0  0  0  0  0  0  0  0  0  0  0  0
    3.8260   -2.8560   24.8790 O   0  0  0  0  0  0  0  0  0  0  0  0
    5.2970   -2.9890   26.5730 N   0  0  0  0  0  0  0  0  0  0  0  0
    4.2360   -2.8700   27.5550 C   0  0  0  0  0  0  0  0  0  0  0  0
    4.4850   -3.7960   28.7590 C   0  0  0  0  0  0  0  0  0  0  0  0
    5.0490   -5.0640   28.2910 N   0  0  0  0  0  0  0  0  0  0  0  0
    4.1490   -5.5300   27.2250 C   0  0  0  0  0  0  0  0  0  0  0  0
    3.3270   -6.5090   27.6740 C   0  0  0  0  0  0  0  0  0  0  0  0
    2.9120   -6.8900   28.9190 C   0  0  0  0  0  0  0  0  0  0  0  0
    1.9590   -8.0620   29.0260 C   0  0  0  0  0  0  0  0  0  0  0  0
    1.7780   -8.4380   27.5910 C   0  0  0  0  0  0  0  0  0  0  0  0
    0.8880   -9.5870   27.1890 C   0  0  0  0  0  0  0  0  0  0  0  0
   -0.2390   -9.7970   28.1240 C   0  0  0  0  0  0  0  0  0  0  0  0
   -1.1450  -10.9180   27.7710 C   0  0  0  0  0  0  0  0  0  0  0  0
   -0.8810  -11.7540   26.5290 C   0  0  0  0  0  0  0  0  0  0  0  0
   -2.0480  -13.1900   26.0790 Br  0  0  0  0  0  0  0  0  0  0  0  0
    0.3030  -11.4390   25.6570 C   0  0  0  0  0  0  0  0  0  0  0  0
    1.2080  -10.2830   26.0510 C   0  0  0  0  0  0  0  0  0  0  0  0
    2.6360   -7.5030   26.4610 S   0  0  0  0  0  0  0  0  0  0  0  0
    6.2640   -4.7450   27.6980 C   0  0  0  0  0  0  0  0  0  0  0  0
    6.5070   -3.3990   27.0280 C   0  0  0  0  0  0  0  0  0  0  0  0
    7.1620   -2.8910   23.8190 C   0  0  0  0  0  0  0  0  0  0  0  0
    7.5790   -3.2060   22.3650 C   0  0  0  0  0  0  0  0  0  0  0  0
  1  2  1  0
  2  3  2  0
  2  4  1  0
  4  5  1  0
  5  6  1  0
  6  7  1  0
  7  8  1  0
  8  9  2  0
  8 10  1  0
 10 11  1  0
 11 12  1  0
 12 13  1  0
 13 14  1  0
 14 15  1  0
 15 16  2  0
 16 17  1  0
 17 18  2  0
 18 19  1  0
 19 20  2  0
 20 21  1  0
 21 22  2  0
 22 23  1  0
 22 24  1  0
 19 25  1  0
 24 25  2  0
 15 26  1  0
 18 26  1  0
 13 27  1  0
 10 28  1  0
 27 28  1  0
  7 29  1  0
  4 30  1  0
 29 30  1  0
M  END
