piperidine-amides-13856-covalent
     RDKit          3D

 26 27  0  0  0  0  0  0  0  0999 V2000
    7.0790   -3.2690   19.1850 C   0  0  0  0  0  0  0  0  0  0  0  0
    6.2800   -4.0380   20.1840 C   0  0  0  0  0  0  0  0  0  0  0  0
    5.2120   -4.5640   19.8580 O   0  0  0  0  0  0  0  0  0  0  0  0
    6.7890   -4.1810   21.4750 N   0  0  0  0  0  0  0  0  0  0  0  0
    7.6050   -3.1500   22.0540 C   0  0  0  0  0  0  0  0  0  0  0  0
    7.3380   -3.1270   23.5440 C   0  0  0  0  0  0  0  0  0  0  0  0
    5.9810   -3.6240   23.8160 C   0  0  0  0  0  0  0  0  0  0  0  0
    5.5880   -3.3990   25.2170 C   0  0  0  0  0  0  0  0  0  0  0  0
    4.4680   -2.9080   25.3870 O   0  0  0  0  0  0  0  0  0  0  0  0
    6.4540   -3.7290   26.2640 N   0  0  0  0  0  0  0  0  0  0  0  0
    6.0590   -4.1830   27.5490 C   0  0  2  0  0  0  0  0  0  0  0  0
    6.9020   -4.2120   28.6190 C   0  0  0  0  0  0  0  0  0  0  0  0
    5.8370   -5.6760   27.3960 C   0  0  0  0  0  0  0  0  0  0  0  0
    6.2270   -6.4420   28.4630 C   0  0  0  0  0  0  0  0  0  0  0  0
    5.5330   -6.9260   29.4840 O   0  0  0  0  0  0  0  0  0  0  0  0
    7.5530   -6.7590   28.5050 O   0  0  0  0  0  0  0  0  0  0  0  0
    8.5040   -6.2160   27.5860 C   0  0  0  0  0  0  0  0  0  0  0  0
    4.8260   -3.6120   27.9020 C   0  0  0  0  0  0  0  0  0  0  0  0
    3.6690   -4.3890   28.4630 C   0  0  0  0  0  0  0  0  0  0  0  0
    2.4790   -3.8000   28.8030 C   0  0  0  0  0  0  0  0  0  0  0  0
    2.1050   -2.3500   28.6950 C   0  0  0  0  0  0  0  0  0  0  0  0
    0.4130   -1.6250   29.2000 Br  0  0  0  0  0  0  0  0  0  0  0  0
    3.3500   -1.6450   28.1120 C   0  0  0  0  0  0  0  0  0  0  0  0
    4.5690   -2.1820   27.7530 C   0  0  0  0  0  0  0  0  0  0  0  0
    5.8190   -5.0740   23.5030 C   0  0  0  0  0  0  0  0  0  0  0  0
    6.5570   -5.4070   22.2290 C   0  0  0  0  0  0  0  0  0  0  0  0
  1  2  1  0
  2  3  2  0
  2  4  1  0
  4  5  1  0
  5  6  1  0
  6  7  1  0
  7  8  1  0
  8  9  2  0
  8 10  1  0
 11 10  1  0
 11 12  1  1
 11 13  1  0
 13 14  1  0
 14 15  2  0
 14 16  1  0
 16 17  1  0
 11 18  1  0
 18 19  2  0
 19 20  1  0
 20 21  2  0
 21 22  1  0
 21 23  1  0
 18 24  1  0
 23 24  2  0
  7 25  1  0
  4 26  1  0
 25 26  1  0
M  END
