piperidine-amides-23873-covalent
     RDKit          3D

 24 25  0  0  0  0  0  0  0  0999 V2000
    7.1350   -3.1830   19.1350 C   0  0  0  0  0  0  0  0  0  0  0  0
    6.3100   -3.8610   20.1480 C   0  0  0  0  0  0  0  0  0  0  0  0
    5.2120   -4.3260   19.7700 O   0  0  0  0  0  0  0  0  0  0  0  0
    6.7100   -4.0580   21.4850 N   0  0  0  0  0  0  0  0  0  0  0  0
    5.8940   -4.9680   22.1970 C   0  0  0  0  0  0  0  0  0  0  0  0
    5.2650   -4.3900   23.3750 C   0  0  0  0  0  0  0  0  0  0  0  0
    6.0730   -3.3490   24.0540 C   0  0  0  0  0  0  0  0  0  0  0  0
    5.2220   -2.6910   25.1070 C   0  0  0  0  0  0  0  0  0  0  0  0
    3.9950   -2.6270   24.9260 O   0  0  0  0  0  0  0  0  0  0  0  0
    5.7430   -2.1620   26.3060 N   0  0  0  0  0  0  0  0  0  0  0  0
    6.6160   -1.0660   26.4110 C   0  0  0  0  0  0  0  0  0  0  0  0
    6.0220   -3.1550   27.3020 C   0  0  1  0  0  0  0  0  0  0  0  0
    6.3460   -2.7590   28.7410 C   0  0  0  0  0  0  0  0  0  0  0  0
    5.3700   -4.4460   27.3310 C   0  0  0  0  0  0  0  0  0  0  0  0
    6.6060   -5.1360   27.0280 C   0  0  0  0  0  0  0  0  0  0  0  0
    7.1530   -5.4300   28.3640 C   0  0  0  0  0  0  0  0  0  0  0  0
    8.4850   -6.0750   28.0270 C   0  0  0  0  0  0  0  0  0  0  0  0
    9.1430   -6.3740   26.7210 C   0  0  0  0  0  0  0  0  0  0  0  0
    8.3870   -5.9880   25.5270 C   0  0  0  0  0  0  0  0  0  0  0  0
    7.0980   -5.3700   25.6710 C   0  0  0  0  0  0  0  0  0  0  0  0
    6.5700   -5.1050   24.5650 O   0  0  0  0  0  0  0  0  0  0  0  0
    7.1660   -5.7450   23.4540 C   0  0  0  0  0  0  0  0  0  0  0  0
    6.6670   -2.3710   23.0860 C   0  0  0  0  0  0  0  0  0  0  0  0
    7.4920   -3.0610   22.1990 C   0  0  0  0  0  0  0  0  0  0  0  0
  1  2  1  0
  2  3  2  0
  2  4  1  0
  4  5  1  0
  5  6  1  0
  6  7  1  0
  7  8  1  0
  8  9  2  0
  8 10  1  0
 10 11  1  0
 10 12  1  0
 12 13  1  1
 12 14  1  0
 14 15  1  0
 15 16  2  0
 16 17  1  0
 17 18  2  0
 18 19  1  0
 15 20  1  0
 19 20  2  0
 20 21  1  0
 21 22  1  0
  7 23  1  0
  4 24  1  0
 23 24  1  0
M  END
