piperidine-amides-9280-covalent
     RDKit          3D

 20 21  0  0  0  0  0  0  0  0999 V2000
    7.1160   -3.2630   19.2090 C   0  0  0  0  0  0  0  0  0  0  0  0
    6.3560   -4.0120   20.2150 C   0  0  0  0  0  0  0  0  0  0  0  0
    5.2870   -4.5520   19.8870 O   0  0  0  0  0  0  0  0  0  0  0  0
    6.8320   -4.1800   21.5230 N   0  0  0  0  0  0  0  0  0  0  0  0
    6.5550   -5.3510   22.3230 C   0  0  0  0  0  0  0  0  0  0  0  0
    5.8210   -4.8480   23.5410 C   0  0  0  0  0  0  0  0  0  0  0  0
    6.5590   -3.7240   24.2220 C   0  0  0  0  0  0  0  0  0  0  0  0
    5.8360   -3.2110   25.4110 C   0  0  0  0  0  0  0  0  0  0  0  0
    4.5690   -3.1890   25.4240 O   0  0  0  0  0  0  0  0  0  0  0  0
    6.4950   -2.7220   26.5640 N   0  0  0  0  0  0  0  0  0  0  0  0
    6.2040   -3.3060   27.8960 C   0  0  0  0  0  0  0  0  0  0  0  0
    6.2560   -2.2290   28.9280 C   0  0  0  0  0  0  0  0  0  0  0  0
    7.4270   -1.3950   29.2910 C   0  0  0  0  0  0  0  0  0  0  0  0
    7.2910   -0.3520   30.3720 C   0  0  0  0  0  0  0  0  0  0  0  0
    5.9670   -0.1660   31.0670 C   0  0  0  0  0  0  0  0  0  0  0  0
    4.8710   -1.0460   30.6250 C   0  0  0  0  0  0  0  0  0  0  0  0
    3.6050   -1.0200   31.1460 C   0  0  0  0  0  0  0  0  0  0  0  0
    5.1000   -2.0070   29.5930 N   0  0  0  0  0  0  0  0  0  0  0  0
    6.8220   -2.5860   23.2810 C   0  0  0  0  0  0  0  0  0  0  0  0
    7.6330   -3.1360   22.1410 C   0  0  0  0  0  0  0  0  0  0  0  0
  1  2  1  0
  2  3  2  0
  2  4  1  0
  4  5  1  0
  5  6  1  0
  6  7  1  0
  7  8  1  0
  8  9  2  0
  8 10  1  0
 10 11  1  0
 11 12  1  0
 12 13  2  0
 13 14  1  0
 14 15  2  0
 15 16  1  0
 16 17  1  0
 12 18  1  0
 16 18  2  0
  7 19  1  0
  4 20  1  0
 19 20  1  0
M  END
