piperidine-amides-28787-covalent
     RDKit          3D

 25 27  0  0  0  0  0  0  0  0999 V2000
    7.1150   -3.4110   19.3630 C   0  0  0  0  0  0  0  0  0  0  0  0
    6.4360   -4.2780   20.3140 C   0  0  0  0  0  0  0  0  0  0  0  0
    5.3580   -4.7920   19.9700 O   0  0  0  0  0  0  0  0  0  0  0  0
    7.0600   -4.5720   21.5490 N   0  0  0  0  0  0  0  0  0  0  0  0
    6.5760   -5.6800   22.3010 C   0  0  0  0  0  0  0  0  0  0  0  0
    5.6700   -5.1690   23.3840 C   0  0  0  0  0  0  0  0  0  0  0  0
    6.3820   -4.0830   24.1770 C   0  0  0  0  0  0  0  0  0  0  0  0
    5.3990   -3.5210   25.1420 C   0  0  0  0  0  0  0  0  0  0  0  0
    4.2160   -3.6210   24.8470 O   0  0  0  0  0  0  0  0  0  0  0  0
    5.8470   -2.9320   26.2910 N   0  0  0  0  0  0  0  0  0  0  0  0
    5.2520   -3.3430   27.5290 C   0  0  0  0  0  0  0  0  0  0  0  0
    6.0340   -2.9130   28.5640 C   0  0  0  0  0  0  0  0  0  0  0  0
    7.3120   -1.9510   28.0290 S   0  0  0  0  0  0  0  0  0  0  0  0
    7.2810   -2.6630   26.4030 C   0  0  2  0  0  0  0  0  0  0  0  0
    8.0480   -2.0890   25.3970 C   0  0  0  0  0  0  0  0  0  0  0  0
    7.3530   -1.1190   24.5010 C   0  0  0  0  0  0  0  0  0  0  0  0
    8.2420   -0.4870   23.3910 C   0  0  0  0  0  0  0  0  0  0  0  0
    9.6800   -0.9280   23.3630 C   0  0  0  0  0  0  0  0  0  0  0  0
   10.4580   -0.4460   22.4870 O   0  0  0  0  0  0  0  0  0  0  0  0
   11.7960   -0.3410   22.8830 C   0  0  0  0  0  0  0  0  0  0  0  0
   10.1840   -1.8490   24.2700 C   0  0  0  0  0  0  0  0  0  0  0  0
   11.4960   -2.2400   24.2290 O   0  0  0  0  0  0  0  0  0  0  0  0
    9.4010   -2.4060   25.2460 C   0  0  0  0  0  0  0  0  0  0  0  0
    6.7480   -2.9640   23.2550 C   0  0  0  0  0  0  0  0  0  0  0  0
    7.6700   -3.4550   22.2040 C   0  0  0  0  0  0  0  0  0  0  0  0
  1  2  1  0
  2  3  2  0
  2  4  1  0
  4  5  1  0
  5  6  1  0
  6  7  1  0
  7  8  1  0
  8  9  2  0
  8 10  1  0
 10 11  1  0
 11 12  1  0
 12 13  1  0
 10 14  1  0
 13 14  1  0
 14 15  1  6
 15 16  2  0
 16 17  1  0
 17 18  2  0
 18 19  1  0
 19 20  1  0
 18 21  1  0
 21 22  1  0
 15 23  1  0
 21 23  2  0
  7 24  1  0
  4 25  1  0
 24 25  1  0
M  END
