piperidine-amides-21487-covalent
     RDKit          3D

 23 25  0  0  0  0  0  0  0  0999 V2000
    7.1890   -3.2880   19.1780 C   0  0  0  0  0  0  0  0  0  0  0  0
    6.3950   -4.0000   20.1740 C   0  0  0  0  0  0  0  0  0  0  0  0
    5.2560   -4.4080   19.8270 O   0  0  0  0  0  0  0  0  0  0  0  0
    6.9520   -4.2570   21.4170 N   0  0  0  0  0  0  0  0  0  0  0  0
    7.7590   -3.2630   22.0790 C   0  0  0  0  0  0  0  0  0  0  0  0
    6.8790   -2.6070   23.0830 C   0  0  0  0  0  0  0  0  0  0  0  0
    6.2610   -3.6290   23.9910 C   0  0  0  0  0  0  0  0  0  0  0  0
    5.3330   -2.9700   24.9140 C   0  0  0  0  0  0  0  0  0  0  0  0
    4.1780   -3.4250   25.0530 O   0  0  0  0  0  0  0  0  0  0  0  0
    5.7080   -1.8430   25.6440 N   0  0  0  0  0  0  0  0  0  0  0  0
    5.8770   -1.9750   27.0450 C   0  0  0  0  0  0  0  0  0  0  0  0
    5.1720   -1.2410   27.9620 N   0  0  0  0  0  0  0  0  0  0  0  0
    6.8850   -2.9770   27.4810 C   0  0  0  0  0  0  0  0  0  0  0  0
    7.7060   -3.0510   28.5370 C   0  0  0  0  0  0  0  0  0  0  0  0
    8.5190   -4.1280   28.6500 N   0  0  0  0  0  0  0  0  0  0  0  0
    8.1570   -4.7340   27.5620 N   0  0  0  0  0  0  0  0  0  0  0  0
    7.1950   -4.2200   26.7280 C   0  0  0  0  0  0  0  0  0  0  0  0
    6.8980   -4.9070   25.6580 N   0  0  0  0  0  0  0  0  0  0  0  0
    8.1730   -5.3570   25.0590 C   0  0  0  0  0  0  0  0  0  0  0  0
    9.1610   -5.6750   26.0220 C   0  0  0  0  0  0  0  0  0  0  0  0
    8.8000   -5.8670   27.3450 C   0  0  0  0  0  0  0  0  0  0  0  0
    5.5040   -4.7270   23.2300 C   0  0  0  0  0  0  0  0  0  0  0  0
    6.4280   -5.3410   22.1870 C   0  0  0  0  0  0  0  0  0  0  0  0
  1  2  1  0
  2  3  2  0
  2  4  1  0
  4  5  1  0
  5  6  1  0
  6  7  1  0
  7  8  1  0
  8  9  2  0
  8 10  1  0
 10 11  1  0
 11 12  2  3
 11 13  1  0
 13 14  1  0
 14 15  2  0
 15 16  1  0
 13 17  2  0
 16 17  1  0
 17 18  1  0
 18 19  1  0
 19 20  1  0
 16 21  1  0
 20 21  1  0
  7 22  1  0
  4 23  1  0
 22 23  1  0
M  END
