piperidine-amides-18839-covalent
     RDKit          3D

 21 21  0  0  0  0  0  0  0  0999 V2000
    7.1420   -3.2550   19.3780 C   0  0  0  0  0  0  0  0  0  0  0  0
    6.3520   -4.0150   20.3270 C   0  0  0  0  0  0  0  0  0  0  0  0
    5.3020   -4.5920   19.9000 O   0  0  0  0  0  0  0  0  0  0  0  0
    6.7010   -4.1890   21.6880 N   0  0  0  0  0  0  0  0  0  0  0  0
    7.7460   -3.2550   22.2240 C   0  0  0  0  0  0  0  0  0  0  0  0
    7.1710   -2.7510   23.6120 C   0  0  0  0  0  0  0  0  0  0  0  0
    6.2080   -3.8210   24.0550 C   0  0  0  0  0  0  0  0  0  0  0  0
    5.3170   -3.3540   25.3040 C   0  0  0  0  0  0  0  0  0  0  0  0
    4.1490   -3.3150   24.9500 O   0  0  0  0  0  0  0  0  0  0  0  0
    6.0010   -3.1140   26.3670 N   0  0  0  0  0  0  0  0  0  0  0  0
    6.6440   -2.3130   27.2670 C   0  0  0  0  0  0  0  0  0  0  0  0
    5.9750   -4.3530   27.0940 C   0  0  1  0  0  0  0  0  0  0  0  0
    6.6490   -4.4670   28.3460 C   0  0  0  0  0  0  0  0  0  0  0  0
    4.5530   -4.6700   27.5210 C   0  0  0  0  0  0  0  0  0  0  0  0
    4.0190   -4.3150   28.7590 O   0  0  0  0  0  0  0  0  0  0  0  0
    3.8030   -5.3390   26.5880 O   0  0  0  0  0  0  0  0  0  0  0  0
    4.2710   -6.6650   26.5520 C   0  0  0  0  0  0  0  0  0  0  0  0
    3.3510   -7.5850   27.0580 C   0  0  0  0  0  0  0  0  0  0  0  0
    3.6280   -7.4810   25.4350 C   0  0  0  0  0  0  0  0  0  0  0  0
    6.6180   -5.1780   23.8750 C   0  0  0  0  0  0  0  0  0  0  0  0
    6.5320   -5.4320   22.3400 C   0  0  0  0  0  0  0  0  0  0  0  0
  1  2  1  0
  2  3  2  0
  2  4  1  0
  4  5  1  0
  5  6  1  0
  6  7  1  0
  7  8  1  0
  8  9  2  0
  8 10  1  0
 10 11  1  0
 10 12  1  0
 12 13  1  1
 12 14  1  0
 14 15  2  0
 14 16  1  0
 16 17  1  0
 17 18  1  0
 17 19  1  0
  7 20  1  0
  4 21  1  0
 20 21  1  0
M  END
