piperidine-amides-35107-covalent
     RDKit          3D

 32 35  0  0  0  0  0  0  0  0999 V2000
    7.0940   -3.3310   19.2930 C   0  0  0  0  0  0  0  0  0  0  0  0
    6.3420   -4.1300   20.2910 C   0  0  0  0  0  0  0  0  0  0  0  0
    5.2930   -4.6490   19.9150 O   0  0  0  0  0  0  0  0  0  0  0  0
    6.8560   -4.3080   21.5730 N   0  0  0  0  0  0  0  0  0  0  0  0
    6.4840   -5.4530   22.3530 C   0  0  0  0  0  0  0  0  0  0  0  0
    5.6380   -4.9750   23.4990 C   0  0  0  0  0  0  0  0  0  0  0  0
    6.4440   -3.9560   24.3040 C   0  0  0  0  0  0  0  0  0  0  0  0
    5.5290   -3.3690   25.3160 C   0  0  0  0  0  0  0  0  0  0  0  0
    4.8190   -2.4150   24.9880 O   0  0  0  0  0  0  0  0  0  0  0  0
    5.4140   -3.8590   26.6370 N   0  0  0  0  0  0  0  0  0  0  0  0
    6.3080   -3.4220   27.6300 C   0  0  0  0  0  0  0  0  0  0  0  0
    6.4620   -4.6480   28.5100 C   0  0  0  0  0  0  0  0  0  0  0  0
    5.0850   -4.8290   28.9990 N   0  0  0  0  0  0  0  0  0  0  0  0
    5.0810   -5.7690   30.1210 C   0  0  0  0  0  0  0  0  0  0  0  0
    5.9670   -6.7730   29.9450 C   0  0  0  0  0  0  0  0  0  0  0  0
    6.0240   -7.6750   30.9610 C   0  0  0  0  0  0  0  0  0  0  0  0
    5.2800   -7.7650   32.2660 C   0  0  0  0  0  0  0  0  0  0  0  0
    5.3840   -8.9470   33.5940 S   0  0  0  0  0  0  0  0  0  0  0  0
    5.1230   -8.0660   35.1430 C   0  0  0  0  0  0  0  0  0  0  0  0
    6.2970   -7.2440   35.6050 C   0  0  0  0  0  0  0  0  0  0  0  0
    6.1050   -6.5090   36.8790 C   0  0  0  0  0  0  0  0  0  0  0  0
    4.8260   -6.5970   37.6290 C   0  0  0  0  0  0  0  0  0  0  0  0
    4.4580   -5.9160   38.9380 C   0  0  0  0  0  0  0  0  0  0  0  0
    3.7040   -7.4630   37.0660 C   0  0  0  0  0  0  0  0  0  0  0  0
    3.9070   -8.2110   35.7640 C   0  0  0  0  0  0  0  0  0  0  0  0
    2.9000   -8.9990   35.2430 C   0  0  0  0  0  0  0  0  0  0  0  0
    4.3830   -6.7010   32.3570 C   0  0  0  0  0  0  0  0  0  0  0  0
    4.2770   -5.6620   31.2370 C   0  0  0  0  0  0  0  0  0  0  0  0
    4.0970   -5.0420   27.9870 C   0  0  0  0  0  0  0  0  0  0  0  0
    4.0750   -3.9230   27.2020 C   0  0  0  0  0  0  0  0  0  0  0  0
    7.1200   -2.9050   23.5440 C   0  0  0  0  0  0  0  0  0  0  0  0
    7.6530   -3.3140   22.2160 C   0  0  0  0  0  0  0  0  0  0  0  0
  1  2  1  0
  2  3  2  0
  2  4  1  0
  4  5  1  0
  5  6  1  0
  6  7  1  0
  7  8  1  0
  8  9  2  0
  8 10  1  0
 10 11  1  0
 11 12  1  0
 12 13  1  0
 13 14  1  0
 14 15  2  0
 15 16  1  0
 16 17  2  0
 17 18  1  0
 18 19  1  0
 19 20  2  0
 20 21  1  0
 21 22  2  0
 22 23  1  0
 22 24  1  0
 19 25  1  0
 24 25  2  0
 25 26  1  0
 17 27  1  0
 14 28  1  0
 27 28  2  0
 13 29  1  0
 10 30  1  0
 29 30  1  0
  7 31  1  0
  4 32  1  0
 31 32  1  0
M  END
