piperidine-amides-14353-covalent
     RDKit          3D

 22 24  0  0  0  0  0  0  0  0999 V2000
    6.9960   -3.3280   19.3680 C   0  0  0  0  0  0  0  0  0  0  0  0
    6.3360   -4.1800   20.3650 C   0  0  0  0  0  0  0  0  0  0  0  0
    5.3870   -4.8810   19.9810 O   0  0  0  0  0  0  0  0  0  0  0  0
    6.7760   -4.2340   21.7160 N   0  0  0  0  0  0  0  0  0  0  0  0
    7.6760   -3.2220   22.2150 C   0  0  0  0  0  0  0  0  0  0  0  0
    7.4240   -3.0310   23.6720 C   0  0  0  0  0  0  0  0  0  0  0  0
    6.0820   -3.6680   23.8920 C   0  0  0  0  0  0  0  0  0  0  0  0
    5.5230   -3.3990   25.2660 C   0  0  0  0  0  0  0  0  0  0  0  0
    4.3120   -3.5690   25.3780 O   0  0  0  0  0  0  0  0  0  0  0  0
    6.3510   -2.9750   26.3050 N   0  0  0  0  0  0  0  0  0  0  0  0
    6.7100   -1.6040   26.4970 C   0  0  1  0  0  0  0  0  0  0  0  0
    5.7270   -0.6100   26.0990 C   0  0  0  0  0  0  0  0  0  0  0  0
    5.6520    0.3680   27.0610 C   0  0  0  0  0  0  0  0  0  0  0  0
    6.3980   -0.3050   27.9180 C   0  0  0  0  0  0  0  0  0  0  0  0
    6.0340   -0.5040   26.5530 C   0  0  0  0  0  0  0  0  0  0  0  0
    5.3160    0.0240   25.4850 O   0  0  0  0  0  0  0  0  0  0  0  0
    5.6200    0.6970   27.4910 C   0  0  0  0  0  0  0  0  0  0  0  0
    6.1780    0.6450   28.9380 C   0  0  0  0  0  0  0  0  0  0  0  0
    7.0510   -0.5900   29.2130 C   0  0  0  0  0  0  0  0  0  0  0  0
    7.1270   -1.4290   27.9670 C   0  0  0  0  0  0  0  0  0  0  0  0
    6.1940   -5.1710   23.7280 C   0  0  0  0  0  0  0  0  0  0  0  0
    6.6580   -5.4730   22.4530 C   0  0  0  0  0  0  0  0  0  0  0  0
  1  2  1  0
  2  3  2  0
  2  4  1  0
  4  5  1  0
  5  6  1  0
  6  7  1  0
  7  8  1  0
  8  9  2  0
  8 10  1  0
 11 10  1  1
 11 12  1  0
 12 13  1  0
 13 14  1  0
 14 15  1  0
 15 16  1  0
 15 17  2  0
 17 18  1  0
 18 19  2  0
 11 20  1  0
 14 20  2  0
 19 20  1  0
  7 21  1  0
  4 22  1  0
 21 22  1  0
M  END
