piperidine-amides-14969-covalent
     RDKit          3D

 21 22  0  0  0  0  0  0  0  0999 V2000
    7.1310   -3.2870   19.2120 C   0  0  0  0  0  0  0  0  0  0  0  0
    6.3540   -4.0200   20.2070 C   0  0  0  0  0  0  0  0  0  0  0  0
    5.2700   -4.5200   19.8680 O   0  0  0  0  0  0  0  0  0  0  0  0
    6.8800   -4.1880   21.5060 N   0  0  0  0  0  0  0  0  0  0  0  0
    6.5370   -5.3570   22.2680 C   0  0  0  0  0  0  0  0  0  0  0  0
    5.7890   -4.9220   23.4890 C   0  0  0  0  0  0  0  0  0  0  0  0
    6.6250   -3.8350   24.1200 C   0  0  0  0  0  0  0  0  0  0  0  0
    5.8420   -3.1560   25.1860 C   0  0  0  0  0  0  0  0  0  0  0  0
    4.6180   -3.2890   25.1550 O   0  0  0  0  0  0  0  0  0  0  0  0
    6.5400   -2.4240   26.1290 N   0  0  0  0  0  0  0  0  0  0  0  0
    6.3740   -2.7130   27.4980 C   0  0  0  0  0  0  0  0  0  0  0  0
    6.2030   -4.0660   27.7630 C   0  0  0  0  0  0  0  0  0  0  0  0
    5.9210   -4.4650   29.0150 C   0  0  0  0  0  0  0  0  0  0  0  0
    5.0110   -5.4510   29.2150 C   0  0  0  0  0  0  0  0  0  0  0  0
    5.7360   -6.7060   29.0620 C   0  0  0  0  0  0  0  0  0  0  0  0
    4.9030   -7.9380   29.2430 C   0  0  0  0  0  0  0  0  0  0  0  0
    3.4580   -7.8120   29.5540 C   0  0  0  0  0  0  0  0  0  0  0  0
    2.8150   -6.5190   29.6910 N   0  0  0  0  0  0  0  0  0  0  0  0
    3.6320   -5.3190   29.5120 C   0  0  0  0  0  0  0  0  0  0  0  0
    7.1040   -2.7610   23.2470 C   0  0  0  0  0  0  0  0  0  0  0  0
    7.7320   -3.1990   22.1200 C   0  0  0  0  0  0  0  0  0  0  0  0
  1  2  1  0
  2  3  2  0
  2  4  1  0
  4  5  1  0
  5  6  1  0
  6  7  1  0
  7  8  1  0
  8  9  2  0
  8 10  1  0
 10 11  1  0
 11 12  1  0
 12 13  3  0
 13 14  1  0
 14 15  2  0
 15 16  1  0
 16 17  2  0
 17 18  1  0
 14 19  1  0
 18 19  2  0
  7 20  1  0
  4 21  1  0
 20 21  1  0
M  END
