piperidine-amides-31030-covalent
     RDKit          3D

 26 28  0  0  0  0  0  0  0  0999 V2000
    7.0710   -3.3710   19.3850 C   0  0  0  0  0  0  0  0  0  0  0  0
    6.4280   -4.2490   20.3620 C   0  0  0  0  0  0  0  0  0  0  0  0
    5.4150   -4.8800   19.9990 O   0  0  0  0  0  0  0  0  0  0  0  0
    6.9450   -4.4580   21.6660 N   0  0  0  0  0  0  0  0  0  0  0  0
    6.6070   -5.5840   22.4770 C   0  0  0  0  0  0  0  0  0  0  0  0
    5.9460   -5.0110   23.7170 C   0  0  0  0  0  0  0  0  0  0  0  0
    6.4490   -3.6550   24.1870 C   0  0  0  0  0  0  0  0  0  0  0  0
    5.3980   -2.9410   24.9770 C   0  0  0  0  0  0  0  0  0  0  0  0
    4.4710   -2.3510   24.3670 O   0  0  0  0  0  0  0  0  0  0  0  0
    5.2930   -2.8760   26.3800 N   0  0  0  0  0  0  0  0  0  0  0  0
    4.0400   -3.3970   26.9340 C   0  0  0  0  0  0  0  0  0  0  0  0
    4.4600   -4.7510   27.3200 C   0  0  0  0  0  0  0  0  0  0  0  0
    5.8710   -4.6740   27.5870 C   0  0  2  0  0  0  0  0  0  0  0  0
    6.1770   -4.8560   29.2380 S   0  0  0  0  0  0  0  0  0  0  0  0
    6.2860   -3.4720   29.7260 O   0  0  0  0  0  0  0  0  0  0  0  0
    7.4230   -5.6680   29.3560 O   0  0  0  0  0  0  0  0  0  0  0  0
    4.8640   -5.6030   30.1390 C   0  0  0  0  0  0  0  0  0  0  0  0
    5.2780   -6.8950   30.8230 C   0  0  0  0  0  0  0  0  0  0  0  0
    4.2110   -7.5750   31.6130 C   0  0  0  0  0  0  0  0  0  0  0  0
    2.9230   -7.1060   31.7410 C   0  0  0  0  0  0  0  0  0  0  0  0
    1.9610   -7.7380   32.4670 F   0  0  0  0  0  0  0  0  0  0  0  0
    2.6000   -5.9200   31.0920 C   0  0  0  0  0  0  0  0  0  0  0  0
    3.5890   -5.1410   30.2680 C   0  0  0  0  0  0  0  0  0  0  0  0
    6.3450   -3.4540   27.1310 C   0  0  0  0  0  0  0  0  0  0  0  0
    6.8940   -2.7710   23.0010 C   0  0  0  0  0  0  0  0  0  0  0  0
    7.6700   -3.3770   22.3190 C   0  0  0  0  0  0  0  0  0  0  0  0
  1  2  1  0
  2  3  2  0
  2  4  1  0
  4  5  1  0
  5  6  1  0
  6  7  1  0
  7  8  1  0
  8  9  2  0
  8 10  1  0
 10 11  1  0
 11 12  1  0
 12 13  1  0
 13 14  1  1
 14 15  2  0
 14 16  2  0
 14 17  1  0
 17 18  2  0
 18 19  1  0
 19 20  2  0
 20 21  1  0
 20 22  1  0
 17 23  1  0
 22 23  2  0
 10 24  1  0
 13 24  1  0
  7 25  1  0
  4 26  1  0
 25 26  1  0
M  END
