piperidine-amides-1290-covalent
     RDKit          3D

 22 24  0  0  0  0  0  0  0  0999 V2000
    7.0380   -3.3130   19.3360 C   0  0  0  0  0  0  0  0  0  0  0  0
    6.3380   -4.1640   20.3400 C   0  0  0  0  0  0  0  0  0  0  0  0
    5.3490   -4.8200   19.9730 O   0  0  0  0  0  0  0  0  0  0  0  0
    6.8260   -4.2480   21.6670 N   0  0  0  0  0  0  0  0  0  0  0  0
    7.6680   -3.1990   22.2260 C   0  0  0  0  0  0  0  0  0  0  0  0
    7.3790   -3.0730   23.7290 C   0  0  0  0  0  0  0  0  0  0  0  0
    6.0990   -3.7920   23.9610 C   0  0  0  0  0  0  0  0  0  0  0  0
    5.4070   -3.5120   25.2570 C   0  0  0  0  0  0  0  0  0  0  0  0
    4.1910   -3.7340   25.2480 O   0  0  0  0  0  0  0  0  0  0  0  0
    6.0660   -2.9980   26.4130 N   0  0  0  0  0  0  0  0  0  0  0  0
    6.2460   -1.6010   26.6120 C   0  0  0  0  0  0  0  0  0  0  0  0
    6.4480   -0.1550   26.9370 C   0  0  0  0  0  0  0  0  0  0  0  0
    6.6270   -0.2400   28.2900 N   0  0  0  0  0  0  0  0  0  0  0  0
    6.4000   -1.1150   27.3930 N   0  0  0  0  0  0  0  0  0  0  0  0
    6.1220   -2.5170   26.6330 C   0  0  0  0  0  0  0  0  0  0  0  0
    5.9850   -3.9210   27.2850 C   0  0  0  0  0  0  0  0  0  0  0  0
    5.7090   -5.2540   26.6460 C   0  0  0  0  0  0  0  0  0  0  0  0
    6.1200   -4.0220   28.6330 C   0  0  0  0  0  0  0  0  0  0  0  0
    6.1960   -3.0640   27.8210 N   0  0  0  0  0  0  0  0  0  0  0  0
    6.4000   -1.8720   28.1270 C   0  0  0  0  0  0  0  0  0  0  0  0
    6.3450   -5.2860   23.7560 C   0  0  0  0  0  0  0  0  0  0  0  0
    6.5890   -5.5240   22.3110 C   0  0  0  0  0  0  0  0  0  0  0  0
  1  2  1  0
  2  3  2  0
  2  4  1  0
  4  5  1  0
  5  6  1  0
  6  7  1  0
  7  8  1  0
  8  9  2  0
  8 10  1  0
 10 11  1  0
 11 12  1  0
 12 13  2  0
 13 14  1  0
 14 15  1  0
 15 16  2  0
 16 17  1  0
 16 18  1  0
 18 19  2  0
 11 20  2  0
 14 20  1  0
 19 20  1  0
  7 21  1  0
  4 22  1  0
 21 22  1  0
M  END
