piperidine-amides-4499-covalent
     RDKit          3D

 25 26  0  0  0  0  0  0  0  0999 V2000
    7.1110   -3.2680   19.1240 C   0  0  0  0  0  0  0  0  0  0  0  0
    6.3610   -3.9900   20.1770 C   0  0  0  0  0  0  0  0  0  0  0  0
    5.2620   -4.4790   19.8530 O   0  0  0  0  0  0  0  0  0  0  0  0
    6.9080   -4.1570   21.4530 N   0  0  0  0  0  0  0  0  0  0  0  0
    6.5470   -5.2860   22.2280 C   0  0  0  0  0  0  0  0  0  0  0  0
    6.0440   -4.9450   23.5630 C   0  0  0  0  0  0  0  0  0  0  0  0
    6.6310   -3.7300   24.1900 C   0  0  0  0  0  0  0  0  0  0  0  0
    5.7840   -3.3150   25.3270 C   0  0  0  0  0  0  0  0  0  0  0  0
    5.1640   -2.2380   25.2630 O   0  0  0  0  0  0  0  0  0  0  0  0
    5.6620   -4.1440   26.4440 N   0  0  0  0  0  0  0  0  0  0  0  0
    6.0970   -3.7820   27.8010 C   0  0  0  0  0  0  0  0  0  0  0  0
    6.1860   -5.0070   28.6380 C   0  0  0  0  0  0  0  0  0  0  0  0
    5.0830   -5.2230   29.5060 N   0  0  0  0  0  0  0  0  0  0  0  0
    5.0290   -6.8110   30.0840 S   0  0  0  0  0  0  0  0  0  0  0  0
    6.3350   -7.4190   29.7850 O   0  0  0  0  0  0  0  0  0  0  0  0
    3.8970   -7.5000   29.4250 O   0  0  0  0  0  0  0  0  0  0  0  0
    4.7630   -6.8430   31.8690 C   0  0  0  0  0  0  0  0  0  0  0  0
    5.5120   -7.8180   32.4150 C   0  0  0  0  0  0  0  0  0  0  0  0
    5.4650   -8.0350   33.7530 C   0  0  0  0  0  0  0  0  0  0  0  0
    6.1840   -9.0030   34.3790 C   0  0  0  0  0  0  0  0  0  0  0  0
    4.3480   -6.8280   34.2350 S   0  0  0  0  0  0  0  0  0  0  0  0
    3.9910   -6.1070   32.7010 C   0  0  0  0  0  0  0  0  0  0  0  0
    3.1380   -5.0660   32.4540 C   0  0  0  0  0  0  0  0  0  0  0  0
    6.8470   -2.6190   23.2140 C   0  0  0  0  0  0  0  0  0  0  0  0
    7.6730   -3.1230   22.1060 C   0  0  0  0  0  0  0  0  0  0  0  0
  1  2  1  0
  2  3  2  0
  2  4  1  0
  4  5  1  0
  5  6  1  0
  6  7  1  0
  7  8  1  0
  8  9  2  0
  8 10  1  0
 10 11  1  0
 11 12  1  0
 12 13  1  0
 14 13  1  0
 14 15  2  0
 14 16  2  0
 14 17  1  0
 17 18  1  0
 18 19  2  0
 19 20  1  0
 19 21  1  0
 17 22  2  0
 21 22  1  0
 22 23  1  0
  7 24  1  0
  4 25  1  0
 24 25  1  0
M  END
