piperidine-amides-11527-covalent
     RDKit          3D

 19 20  0  0  0  0  0  0  0  0999 V2000
    7.2030   -3.2900   19.1820 C   0  0  0  0  0  0  0  0  0  0  0  0
    6.3840   -3.9630   20.1980 C   0  0  0  0  0  0  0  0  0  0  0  0
    5.3130   -4.5050   19.8700 O   0  0  0  0  0  0  0  0  0  0  0  0
    6.8140   -4.0370   21.5240 N   0  0  0  0  0  0  0  0  0  0  0  0
    7.5690   -2.9420   22.0960 C   0  0  0  0  0  0  0  0  0  0  0  0
    6.8350   -2.5560   23.3400 C   0  0  0  0  0  0  0  0  0  0  0  0
    6.5080   -3.7530   24.1720 C   0  0  0  0  0  0  0  0  0  0  0  0
    5.8080   -3.3740   25.4190 C   0  0  0  0  0  0  0  0  0  0  0  0
    4.5440   -3.2820   25.4440 O   0  0  0  0  0  0  0  0  0  0  0  0
    6.5060   -3.0780   26.6070 N   0  0  0  0  0  0  0  0  0  0  0  0
    6.0370   -3.5440   27.9320 C   0  0  0  0  0  0  0  0  0  0  0  0
    6.2550   -5.0060   28.0690 C   0  0  1  0  0  0  0  0  0  0  0  0
    7.1760   -5.3360   28.8480 O   0  0  0  0  0  0  0  0  0  0  0  0
    5.1200   -5.7630   28.6470 C   0  0  0  0  0  0  0  0  0  0  0  0
    3.6220   -4.8100   28.9120 Cl  0  0  0  0  0  0  0  0  0  0  0  0
    4.8860   -6.9460   27.9820 C   0  0  0  0  0  0  0  0  0  0  0  0
    5.3140   -7.0720   29.4750 C   0  0  0  0  0  0  0  0  0  0  0  0
    5.6830   -4.7200   23.3890 C   0  0  0  0  0  0  0  0  0  0  0  0
    6.3550   -5.1630   22.2820 C   0  0  0  0  0  0  0  0  0  0  0  0
  1  2  1  0
  2  3  2  0
  2  4  1  0
  4  5  1  0
  5  6  1  0
  6  7  1  0
  7  8  1  0
  8  9  2  0
  8 10  1  0
 10 11  1  0
 11 12  1  0
 12 13  1  1
 12 14  1  0
 14 15  1  0
 14 16  1  0
 14 17  1  0
 16 17  1  0
  7 18  1  0
  4 19  1  0
 18 19  1  0
M  END
