piperidine-amides-5235-covalent
     RDKit          3D

 21 22  0  0  0  0  0  0  0  0999 V2000
    7.0550   -3.3340   19.3150 C   0  0  0  0  0  0  0  0  0  0  0  0
    6.3950   -4.1750   20.3400 C   0  0  0  0  0  0  0  0  0  0  0  0
    5.3880   -4.8140   19.9750 O   0  0  0  0  0  0  0  0  0  0  0  0
    6.9210   -4.2670   21.6410 N   0  0  0  0  0  0  0  0  0  0  0  0
    6.6330   -5.4120   22.4410 C   0  0  0  0  0  0  0  0  0  0  0  0
    6.0730   -5.0550   23.7420 C   0  0  0  0  0  0  0  0  0  0  0  0
    6.1120   -3.5990   23.9960 C   0  0  0  0  0  0  0  0  0  0  0  0
    5.6930   -3.2520   25.3750 C   0  0  0  0  0  0  0  0  0  0  0  0
    4.5220   -3.5180   25.7000 O   0  0  0  0  0  0  0  0  0  0  0  0
    6.5800   -2.6300   26.2780 N   0  0  0  0  0  0  0  0  0  0  0  0
    6.1460   -1.6910   27.3460 C   0  0  0  0  0  0  0  0  0  0  0  0
    4.8440   -2.1890   27.8730 C   0  0  0  0  0  0  0  0  0  0  0  0
    4.3440   -1.6180   28.8850 O   0  0  0  0  0  0  0  0  0  0  0  0
    3.3410   -2.2270   29.4540 C   0  0  0  0  0  0  0  0  0  0  0  0
    5.9330   -0.4390   26.6470 C   0  0  0  0  0  0  0  0  0  0  0  0
    5.8580    0.7490   27.3650 C   0  0  0  0  0  0  0  0  0  0  0  0
    6.2550    0.7450   28.6690 C   0  0  0  0  0  0  0  0  0  0  0  0
    6.7510   -0.4040   29.1970 C   0  0  0  0  0  0  0  0  0  0  0  0
    7.0770   -1.4180   28.3610 C   0  0  0  0  0  0  0  0  0  0  0  0
    7.4690   -3.0550   23.6590 C   0  0  0  0  0  0  0  0  0  0  0  0
    7.7510   -3.2120   22.2130 C   0  0  0  0  0  0  0  0  0  0  0  0
  1  2  1  0
  2  3  2  0
  2  4  1  0
  4  5  1  0
  5  6  1  0
  6  7  1  0
  7  8  1  0
  8  9  2  0
  8 10  1  0
 11 10  1  0
 11 12  1  0
 12 13  1  0
 13 14  1  0
 11 15  1  0
 15 16  1  0
 16 17  1  0
 17 18  1  0
 11 19  1  0
 18 19  1  0
  7 20  1  0
  4 21  1  0
 20 21  1  0
M  END
