piperidine-amides-180-covalent
     RDKit          3D

 25 26  0  0  0  0  0  0  0  0999 V2000
    7.1150   -3.3720   19.2710 C   0  0  0  0  0  0  0  0  0  0  0  0
    6.3790   -4.0640   20.2940 C   0  0  0  0  0  0  0  0  0  0  0  0
    5.3240   -4.6800   19.9430 O   0  0  0  0  0  0  0  0  0  0  0  0
    6.8200   -4.1390   21.6260 N   0  0  0  0  0  0  0  0  0  0  0  0
    6.7290   -5.4390   22.3100 C   0  0  0  0  0  0  0  0  0  0  0  0
    5.7710   -4.9960   23.4660 C   0  0  0  0  0  0  0  0  0  0  0  0
    6.4700   -3.8640   24.1950 C   0  0  0  0  0  0  0  0  0  0  0  0
    5.5430   -3.4490   25.4150 C   0  0  0  0  0  0  0  0  0  0  0  0
    4.4780   -4.0360   25.3100 O   0  0  0  0  0  0  0  0  0  0  0  0
    6.0660   -2.6110   26.2160 N   0  0  0  0  0  0  0  0  0  0  0  0
    6.3380   -1.6780   27.1690 C   0  0  0  0  0  0  0  0  0  0  0  0
    7.0170   -1.5760   28.3820 C   0  0  0  0  0  0  0  0  0  0  0  0
    7.0740   -0.3840   29.1640 C   0  0  0  0  0  0  0  0  0  0  0  0
    6.4030    0.8410   28.7350 C   0  0  0  0  0  0  0  0  0  0  0  0
    6.2920    2.2400   29.3710 C   0  0  0  0  0  0  0  0  0  0  0  0
    6.6910    3.2600   28.5050 F   0  0  0  0  0  0  0  0  0  0  0  0
    7.1160    2.3040   30.5000 F   0  0  0  0  0  0  0  0  0  0  0  0
    5.0160    2.4880   29.8050 F   0  0  0  0  0  0  0  0  0  0  0  0
    5.6140    0.9340   27.4440 C   0  0  0  0  0  0  0  0  0  0  0  0
    4.9430    2.0950   26.9930 C   0  0  0  0  0  0  0  0  0  0  0  0
    6.3170    1.7240   26.4440 C   0  0  0  0  0  0  0  0  0  0  0  0
    3.7290    1.1590   26.8640 C   0  0  0  0  0  0  0  0  0  0  0  0
    5.6290   -0.3810   26.7030 C   0  0  0  0  0  0  0  0  0  0  0  0
    6.9360   -2.6910   23.3470 C   0  0  0  0  0  0  0  0  0  0  0  0
    7.5950   -3.0800   22.2280 C   0  0  0  0  0  0  0  0  0  0  0  0
  1  2  1  0
  2  3  2  0
  2  4  1  0
  4  5  1  0
  5  6  1  0
  6  7  1  0
  7  8  1  0
  8  9  2  0
  8 10  1  0
 10 11  1  0
 11 12  2  0
 12 13  1  0
 13 14  2  0
 14 15  1  0
 15 16  1  0
 15 17  1  0
 15 18  1  0
 14 19  1  0
 19 20  1  0
 20 21  1  0
 20 22  1  0
 11 23  1  0
 19 23  2  0
  7 24  1  0
  4 25  1  0
 24 25  1  0
M  END
