piperidine-amides-11076-covalent
     RDKit          3D

 21 22  0  0  0  0  0  0  0  0999 V2000
    7.1110   -3.3530   19.3240 C   0  0  0  0  0  0  0  0  0  0  0  0
    6.3350   -4.1090   20.3040 C   0  0  0  0  0  0  0  0  0  0  0  0
    5.3010   -4.6900   19.9390 O   0  0  0  0  0  0  0  0  0  0  0  0
    6.7810   -4.2240   21.6290 N   0  0  0  0  0  0  0  0  0  0  0  0
    6.6490   -5.4630   22.3790 C   0  0  0  0  0  0  0  0  0  0  0  0
    6.0110   -5.1070   23.7010 C   0  0  0  0  0  0  0  0  0  0  0  0
    6.1450   -3.6480   23.9790 C   0  0  0  0  0  0  0  0  0  0  0  0
    5.7370   -3.2770   25.3400 C   0  0  0  0  0  0  0  0  0  0  0  0
    4.6090   -3.6330   25.7920 O   0  0  0  0  0  0  0  0  0  0  0  0
    6.5560   -2.4960   26.1730 N   0  0  0  0  0  0  0  0  0  0  0  0
    6.3620   -1.0310   26.1680 C   0  0  0  0  0  0  0  0  0  0  0  0
    6.1420    0.3490   26.7790 C   0  0  0  0  0  0  0  0  0  0  0  0
    6.0660    0.4080   28.0750 N   0  0  0  0  0  0  0  0  0  0  0  0
    6.2060   -0.7390   28.4620 N   0  0  0  0  0  0  0  0  0  0  0  0
    6.4050   -1.8420   27.5480 C   0  0  0  0  0  0  0  0  0  0  0  0
    6.3430   -1.9580   29.0310 C   0  0  0  0  0  0  0  0  0  0  0  0
    7.4400   -1.3440   29.6280 F   0  0  0  0  0  0  0  0  0  0  0  0
    5.2260   -1.3250   29.5390 F   0  0  0  0  0  0  0  0  0  0  0  0
    6.3320   -3.2640   29.3540 F   0  0  0  0  0  0  0  0  0  0  0  0
    7.4430   -3.0450   23.6140 C   0  0  0  0  0  0  0  0  0  0  0  0
    7.6620   -3.2200   22.1720 C   0  0  0  0  0  0  0  0  0  0  0  0
  1  2  1  0
  2  3  2  0
  2  4  1  0
  4  5  1  0
  5  6  1  0
  6  7  1  0
  7  8  1  0
  8  9  2  0
  8 10  1  0
 10 11  1  0
 11 12  2  0
 12 13  1  0
 13 14  1  0
 11 15  1  0
 14 15  2  0
 15 16  1  0
 16 17  1  0
 16 18  1  0
 16 19  1  0
  7 20  1  0
  4 21  1  0
 20 21  1  0
M  END
