piperidine-amides-27954-covalent
     RDKit          3D

 26 28  0  0  0  0  0  0  0  0999 V2000
    6.9870   -3.3760   19.3390 C   0  0  0  0  0  0  0  0  0  0  0  0
    6.3320   -4.2770   20.3180 C   0  0  0  0  0  0  0  0  0  0  0  0
    5.2850   -4.8270   19.9540 O   0  0  0  0  0  0  0  0  0  0  0  0
    6.8960   -4.5330   21.5680 N   0  0  0  0  0  0  0  0  0  0  0  0
    6.3840   -5.5980   22.3730 C   0  0  0  0  0  0  0  0  0  0  0  0
    5.5500   -5.1880   23.5260 C   0  0  0  0  0  0  0  0  0  0  0  0
    5.8960   -3.8850   24.1510 C   0  0  0  0  0  0  0  0  0  0  0  0
    4.8380   -3.4520   25.1480 C   0  0  0  0  0  0  0  0  0  0  0  0
    3.6490   -3.6010   24.8430 O   0  0  0  0  0  0  0  0  0  0  0  0
    5.1730   -2.8930   26.4090 N   0  0  0  0  0  0  0  0  0  0  0  0
    4.2400   -2.7490   27.5480 C   0  0  0  0  0  0  0  0  0  0  0  0
    4.4840   -3.7520   28.6120 C   0  0  0  0  0  0  0  0  0  0  0  0
    5.8330   -4.1600   28.7680 C   0  0  0  0  0  0  0  0  0  0  0  0
    6.6070   -4.1150   27.6680 C   0  0  0  0  0  0  0  0  0  0  0  0
    6.5390   -3.0700   26.6730 C   0  0  1  0  0  0  0  0  0  0  0  0
    6.8710   -3.0960   25.2950 C   0  0  0  0  0  0  0  0  0  0  0  0
    7.9070   -2.4710   24.5770 C   0  0  0  0  0  0  0  0  0  0  0  0
    9.0450   -3.1060   24.0580 C   0  0  0  0  0  0  0  0  0  0  0  0
   10.0620   -2.4500   23.3390 C   0  0  0  0  0  0  0  0  0  0  0  0
   10.0140   -1.0200   23.0560 C   0  0  0  0  0  0  0  0  0  0  0  0
   11.0160   -0.3550   22.3600 O   0  0  0  0  0  0  0  0  0  0  0  0
   12.3550   -0.6570   22.6490 C   0  0  0  0  0  0  0  0  0  0  0  0
    8.7880   -0.3260   23.5840 C   0  0  0  0  0  0  0  0  0  0  0  0
    7.7630   -0.9550   24.3100 C   0  0  0  0  0  0  0  0  0  0  0  0
    6.3570   -2.9110   23.1440 C   0  0  0  0  0  0  0  0  0  0  0  0
    7.4680   -3.4470   22.3200 C   0  0  0  0  0  0  0  0  0  0  0  0
  1  2  1  0
  2  3  2  0
  2  4  1  0
  4  5  1  0
  5  6  1  0
  6  7  1  0
  7  8  1  0
  8  9  2  0
  8 10  1  0
 10 11  1  0
 11 12  1  0
 12 13  1  0
 13 14  1  0
 10 15  1  0
 14 15  1  0
 15 16  1  6
 16 17  1  0
 17 18  2  0
 18 19  1  0
 19 20  2  0
 20 21  1  0
 21 22  1  0
 20 23  1  0
 17 24  1  0
 23 24  2  0
  7 25  1  0
  4 26  1  0
 25 26  1  0
M  END
