piperidine-amides-7016-covalent
     RDKit          3D

 22 23  0  0  0  0  0  0  0  0999 V2000
    7.0820   -3.2370   19.1600 C   0  0  0  0  0  0  0  0  0  0  0  0
    6.2740   -4.0020   20.1280 C   0  0  0  0  0  0  0  0  0  0  0  0
    5.1770   -4.4980   19.8220 O   0  0  0  0  0  0  0  0  0  0  0  0
    6.7540   -4.2190   21.3980 N   0  0  0  0  0  0  0  0  0  0  0  0
    6.3840   -5.4260   22.0970 C   0  0  0  0  0  0  0  0  0  0  0  0
    5.5870   -4.9690   23.3200 C   0  0  0  0  0  0  0  0  0  0  0  0
    6.5890   -4.2860   24.2200 C   0  0  0  0  0  0  0  0  0  0  0  0
    5.8900   -3.5050   25.2590 C   0  0  0  0  0  0  0  0  0  0  0  0
    4.9080   -2.8000   24.9360 O   0  0  0  0  0  0  0  0  0  0  0  0
    6.3490   -3.5780   26.5940 N   0  0  0  0  0  0  0  0  0  0  0  0
    6.7650   -4.8490   27.1200 C   0  0  0  0  0  0  0  0  0  0  0  0
    5.5720   -5.7850   27.1330 C   0  0  0  0  0  0  0  0  0  0  0  0
    4.5400   -6.0620   26.2990 C   0  0  0  0  0  0  0  0  0  0  0  0
    3.7360   -7.0770   26.9100 N   0  0  0  0  0  0  0  0  0  0  0  0
    2.5700   -7.6830   26.4180 C   0  0  0  0  0  0  0  0  0  0  0  0
    2.4130   -7.1170   25.1530 C   0  0  0  0  0  0  0  0  0  0  0  0
    3.3090   -7.6360   24.2460 C   0  0  0  0  0  0  0  0  0  0  0  0
    4.1970   -7.4750   28.1140 N   0  0  0  0  0  0  0  0  0  0  0  0
    5.2850   -6.7130   28.2470 C   0  0  0  0  0  0  0  0  0  0  0  0
    6.1330   -6.8390   29.4830 C   0  0  0  0  0  0  0  0  0  0  0  0
    7.5040   -3.3810   23.5080 C   0  0  0  0  0  0  0  0  0  0  0  0
    7.2320   -3.1150   22.1240 C   0  0  0  0  0  0  0  0  0  0  0  0
  1  2  1  0
  2  3  2  0
  2  4  1  0
  4  5  1  0
  5  6  1  0
  6  7  1  0
  7  8  1  0
  8  9  2  0
  8 10  1  0
 10 11  1  0
 11 12  1  0
 12 13  2  0
 13 14  1  0
 14 15  1  0
 15 16  1  0
 16 17  1  0
 14 18  1  0
 12 19  1  0
 18 19  2  0
 19 20  1  0
  7 21  1  0
  4 22  1  0
 21 22  1  0
M  END
