piperidine-amides-13454-covalent
     RDKit          3D

 22 23  0  0  0  0  0  0  0  0999 V2000
    7.0700   -3.3400   19.3600 C   0  0  0  0  0  0  0  0  0  0  0  0
    6.2980   -4.1510   20.3360 C   0  0  0  0  0  0  0  0  0  0  0  0
    5.2910   -4.7630   19.9470 O   0  0  0  0  0  0  0  0  0  0  0  0
    6.7530   -4.2500   21.6690 N   0  0  0  0  0  0  0  0  0  0  0  0
    7.6390   -3.2590   22.2480 C   0  0  0  0  0  0  0  0  0  0  0  0
    7.3750   -3.2220   23.7590 C   0  0  0  0  0  0  0  0  0  0  0  0
    6.0270   -3.8240   23.9690 C   0  0  0  0  0  0  0  0  0  0  0  0
    5.4620   -3.6750   25.3390 C   0  0  0  0  0  0  0  0  0  0  0  0
    4.2300   -3.6930   25.4480 O   0  0  0  0  0  0  0  0  0  0  0  0
    6.2740   -3.5090   26.4550 N   0  0  0  0  0  0  0  0  0  0  0  0
    6.4050   -2.3020   27.1790 C   0  0  0  0  0  0  0  0  0  0  0  0
    7.2600   -1.3830   26.8100 C   0  0  0  0  0  0  0  0  0  0  0  0
    6.9530   -0.9000   25.5750 F   0  0  0  0  0  0  0  0  0  0  0  0
    8.5140   -1.8930   26.7700 F   0  0  0  0  0  0  0  0  0  0  0  0
    7.1780   -0.3490   27.7600 F   0  0  0  0  0  0  0  0  0  0  0  0
    5.1040   -1.5150   27.2030 C   0  0  0  0  0  0  0  0  0  0  0  0
    4.9550   -1.3560   28.8730 S   0  0  0  0  0  0  0  0  0  0  0  0
    5.1380    0.0820   29.3300 O   0  0  0  0  0  0  0  0  0  0  0  0
    3.7960   -2.1190   29.4310 O   0  0  0  0  0  0  0  0  0  0  0  0
    6.4350   -2.2170   28.6050 C   0  0  0  0  0  0  0  0  0  0  0  0
    5.9950   -5.3070   23.6840 C   0  0  0  0  0  0  0  0  0  0  0  0
    6.6550   -5.5400   22.3200 C   0  0  0  0  0  0  0  0  0  0  0  0
  1  2  1  0
  2  3  2  0
  2  4  1  0
  4  5  1  0
  5  6  1  0
  6  7  1  0
  7  8  1  0
  8  9  2  0
  8 10  1  0
 11 10  1  0
 11 12  1  0
 12 13  1  0
 12 14  1  0
 12 15  1  0
 11 16  1  0
 17 16  1  0
 17 18  2  0
 17 19  2  0
 11 20  1  0
 17 20  1  0
  7 21  1  0
  4 22  1  0
 21 22  1  0
M  END
