piperidine-amides-12815-covalent
     RDKit          3D

 22 23  0  0  0  0  0  0  0  0999 V2000
    7.1120   -3.3260   19.2210 C   0  0  0  0  0  0  0  0  0  0  0  0
    6.3400   -4.0680   20.2380 C   0  0  0  0  0  0  0  0  0  0  0  0
    5.2530   -4.5490   19.8780 O   0  0  0  0  0  0  0  0  0  0  0  0
    6.8590   -4.2660   21.5190 N   0  0  0  0  0  0  0  0  0  0  0  0
    7.6220   -3.2320   22.1410 C   0  0  0  0  0  0  0  0  0  0  0  0
    7.0910   -2.7650   23.4150 C   0  0  0  0  0  0  0  0  0  0  0  0
    6.4990   -3.8270   24.2450 C   0  0  0  0  0  0  0  0  0  0  0  0
    5.7780   -3.2320   25.3950 C   0  0  0  0  0  0  0  0  0  0  0  0
    4.5360   -3.1340   25.3340 O   0  0  0  0  0  0  0  0  0  0  0  0
    6.4950   -2.7960   26.5200 N   0  0  0  0  0  0  0  0  0  0  0  0
    6.1100   -1.6550   27.3820 C   0  0  0  0  0  0  0  0  0  0  0  0
    5.7610   -0.3840   26.6880 C   0  0  0  0  0  0  0  0  0  0  0  0
    5.7320    0.8730   27.4650 C   0  0  0  0  0  0  0  0  0  0  0  0
    5.8270    0.5960   28.8960 N   0  0  0  0  0  0  0  0  0  0  0  0
    5.5440    1.4630   29.9790 C   0  0  0  0  0  0  0  0  0  0  0  0
    6.2300    1.2480   31.1620 C   0  0  0  0  0  0  0  0  0  0  0  0
    7.4210    1.8820   31.3450 C   0  0  0  0  0  0  0  0  0  0  0  0
    5.4130    0.3040   31.9870 C   0  0  0  0  0  0  0  0  0  0  0  0
    6.7240   -0.4930   29.3920 C   0  0  0  0  0  0  0  0  0  0  0  0
    7.0500   -1.4760   28.4920 C   0  0  0  0  0  0  0  0  0  0  0  0
    5.7070   -4.8490   23.5350 C   0  0  0  0  0  0  0  0  0  0  0  0
    6.4570   -5.3950   22.3490 C   0  0  0  0  0  0  0  0  0  0  0  0
  1  2  1  0
  2  3  2  0
  2  4  1  0
  4  5  1  0
  5  6  1  0
  6  7  1  0
  7  8  1  0
  8  9  2  0
  8 10  1  0
 10 11  1  0
 11 12  1  0
 12 13  1  0
 13 14  1  0
 14 15  1  0
 15 16  1  0
 16 17  2  3
 16 18  1  0
 14 19  1  0
 11 20  1  0
 19 20  1  0
  7 21  1  0
  4 22  1  0
 21 22  1  0
M  END
