piperidine-amides-25116-covalent
     RDKit          3D

 24 26  0  0  0  0  0  0  0  0999 V2000
    7.0510   -3.3270   19.3180 C   0  0  0  0  0  0  0  0  0  0  0  0
    6.4010   -4.1940   20.3360 C   0  0  0  0  0  0  0  0  0  0  0  0
    5.4010   -4.8200   19.9770 O   0  0  0  0  0  0  0  0  0  0  0  0
    6.9470   -4.3070   21.6200 N   0  0  0  0  0  0  0  0  0  0  0  0
    6.7570   -5.5100   22.4030 C   0  0  0  0  0  0  0  0  0  0  0  0
    6.2030   -5.1540   23.7550 C   0  0  0  0  0  0  0  0  0  0  0  0
    6.2820   -3.6400   23.9350 C   0  0  0  0  0  0  0  0  0  0  0  0
    5.7350   -3.2350   25.2420 C   0  0  0  0  0  0  0  0  0  0  0  0
    4.9170   -2.3120   25.2760 O   0  0  0  0  0  0  0  0  0  0  0  0
    6.0660   -3.8640   26.4470 N   0  0  0  0  0  0  0  0  0  0  0  0
    5.3180   -5.0680   26.5970 C   0  0  0  0  0  0  0  0  0  0  0  0
    5.7520   -5.7120   27.8530 C   0  0  0  0  0  0  0  0  0  0  0  0
    5.7610   -4.9690   28.9330 C   0  0  0  0  0  0  0  0  0  0  0  0
    6.6190   -3.9350   28.7610 C   0  0  0  0  0  0  0  0  0  0  0  0
    6.3490   -3.1510   27.6450 C   0  0  0  0  0  0  0  0  0  0  0  0
    4.3760   -4.4240   29.0920 C   0  0  0  0  0  0  0  0  0  0  0  0
    3.3410   -5.4980   29.2980 C   0  0  2  0  0  0  0  0  0  0  0  0
    2.0560   -5.0540   29.4290 O   0  0  0  0  0  0  0  0  0  0  0  0
    3.7400   -6.1380   30.6170 C   0  0  2  0  0  0  0  0  0  0  0  0
    3.5790   -5.2000   31.6450 O   0  0  0  0  0  0  0  0  0  0  0  0
    5.1410   -6.6640   30.3970 C   0  0  0  0  0  0  0  0  0  0  0  0
    6.0660   -5.6700   30.0760 O   0  0  0  0  0  0  0  0  0  0  0  0
    7.6450   -3.1170   23.6350 C   0  0  0  0  0  0  0  0  0  0  0  0
    7.7800   -3.2240   22.1370 C   0  0  0  0  0  0  0  0  0  0  0  0
  1  2  1  0
  2  3  2  0
  2  4  1  0
  4  5  1  0
  5  6  1  0
  6  7  1  0
  7  8  1  0
  8  9  2  0
  8 10  1  0
 10 11  1  0
 11 12  1  0
 12 13  1  0
 13 14  1  0
 10 15  1  0
 14 15  1  0
 13 16  1  0
 16 17  1  0
 17 18  1  1
 17 19  1  0
 19 20  1  1
 19 21  1  0
 13 22  1  0
 21 22  1  0
  7 23  1  0
  4 24  1  0
 23 24  1  0
M  END
