piperidine-amides-30740-covalent
     RDKit          3D

 26 27  0  0  0  0  0  0  0  0999 V2000
    7.0160   -3.2740   19.2510 C   0  0  0  0  0  0  0  0  0  0  0  0
    6.2780   -4.0780   20.2370 C   0  0  0  0  0  0  0  0  0  0  0  0
    5.2300   -4.6340   19.8920 O   0  0  0  0  0  0  0  0  0  0  0  0
    6.7340   -4.2840   21.5440 N   0  0  0  0  0  0  0  0  0  0  0  0
    6.4000   -5.4640   22.2950 C   0  0  0  0  0  0  0  0  0  0  0  0
    6.4690   -5.0560   23.7530 C   0  0  0  0  0  0  0  0  0  0  0  0
    5.9690   -3.6600   24.0170 C   0  0  0  0  0  0  0  0  0  0  0  0
    5.7820   -3.3610   25.4570 C   0  0  0  0  0  0  0  0  0  0  0  0
    4.6380   -3.5100   25.9830 O   0  0  0  0  0  0  0  0  0  0  0  0
    6.8220   -2.8840   26.2990 N   0  0  0  0  0  0  0  0  0  0  0  0
    6.8850   -1.4600   26.6840 C   0  0  0  0  0  0  0  0  0  0  0  0
    7.6180   -0.7140   25.6320 C   0  0  0  0  0  0  0  0  0  0  0  0
    7.8170   -3.8050   26.8520 C   0  0  0  0  0  0  0  0  0  0  0  0
    9.0050   -3.9130   25.9330 C   0  0  0  0  0  0  0  0  0  0  0  0
   10.0930   -4.4760   26.5540 O   0  0  0  0  0  0  0  0  0  0  0  0
    9.0220   -3.4950   24.5490 N   0  0  0  0  0  0  0  0  0  0  0  0
   10.2760   -2.7920   24.2350 C   0  0  0  0  0  0  0  0  0  0  0  0
   11.5020   -3.0360   25.0530 C   0  0  0  0  0  0  0  0  0  0  0  0
   12.6850   -2.4050   24.7860 C   0  0  0  0  0  0  0  0  0  0  0  0
   14.0120   -2.7860   25.8190 Cl  0  0  0  0  0  0  0  0  0  0  0  0
   12.8100   -1.5110   23.7510 C   0  0  0  0  0  0  0  0  0  0  0  0
   11.6760   -1.1790   22.8620 C   0  0  0  0  0  0  0  0  0  0  0  0
   10.3040   -1.8090   23.0410 C   0  0  0  0  0  0  0  0  0  0  0  0
    9.2180   -1.4140   22.0810 C   0  0  0  0  0  0  0  0  0  0  0  0
    6.8310   -2.6390   23.3460 C   0  0  0  0  0  0  0  0  0  0  0  0
    7.4390   -3.1980   22.1270 C   0  0  0  0  0  0  0  0  0  0  0  0
  1  2  1  0
  2  3  2  0
  2  4  1  0
  4  5  1  0
  5  6  1  0
  6  7  1  0
  7  8  1  0
  8  9  2  0
  8 10  1  0
 10 11  1  0
 11 12  1  0
 10 13  1  0
 13 14  1  0
 14 15  2  0
 14 16  1  0
 16 17  1  0
 17 18  2  0
 18 19  1  0
 19 20  1  0
 19 21  2  0
 21 22  1  0
 17 23  1  0
 22 23  2  0
 23 24  1  0
  7 25  1  0
  4 26  1  0
 25 26  1  0
M  END
