piperidine-amides-13215-covalent
     RDKit          3D

 19 19  0  0  0  0  0  0  0  0999 V2000
    7.1470   -3.2570   19.1870 C   0  0  0  0  0  0  0  0  0  0  0  0
    6.3860   -4.0010   20.2180 C   0  0  0  0  0  0  0  0  0  0  0  0
    5.3030   -4.5070   19.8690 O   0  0  0  0  0  0  0  0  0  0  0  0
    6.9070   -4.1570   21.5120 N   0  0  0  0  0  0  0  0  0  0  0  0
    7.7340   -3.1330   22.0550 C   0  0  0  0  0  0  0  0  0  0  0  0
    7.2850   -2.6360   23.3420 C   0  0  0  0  0  0  0  0  0  0  0  0
    6.1150   -3.3560   23.8750 C   0  0  0  0  0  0  0  0  0  0  0  0
    5.9620   -2.9910   25.3010 C   0  0  0  0  0  0  0  0  0  0  0  0
    4.8730   -3.2280   25.8650 O   0  0  0  0  0  0  0  0  0  0  0  0
    7.0340   -2.3640   25.9770 N   0  0  0  0  0  0  0  0  0  0  0  0
    7.3190   -2.5250   27.4130 C   0  0  0  0  0  0  0  0  0  0  0  0
    7.1860   -3.9210   27.8660 C   0  0  0  0  0  0  0  0  0  0  0  0
    6.9000   -4.9440   26.8740 C   0  0  2  0  0  0  0  0  0  0  0  0
    5.6230   -5.4120   26.6360 C   0  0  0  0  0  0  0  0  0  0  0  0
    7.6650   -6.0170   27.3870 N   0  0  0  0  0  0  0  0  0  0  0  0
    9.0960   -5.9770   27.1380 C   0  0  0  0  0  0  0  0  0  0  0  0
    7.1250   -6.2350   28.5980 C   0  0  0  0  0  0  0  0  0  0  0  0
    6.0700   -4.8400   23.6110 C   0  0  0  0  0  0  0  0  0  0  0  0
    6.5540   -5.2360   22.3910 C   0  0  0  0  0  0  0  0  0  0  0  0
  1  2  1  0
  2  3  2  0
  2  4  1  0
  4  5  1  0
  5  6  1  0
  6  7  1  0
  7  8  1  0
  8  9  2  0
  8 10  1  0
 10 11  1  0
 11 12  1  0
 12 13  1  0
 13 14  1  1
 13 15  1  0
 15 16  1  0
 15 17  1  0
  7 18  1  0
  4 19  1  0
 18 19  1  0
M  END
