piperidine-amides-6800-covalent
     RDKit          3D

 23 24  0  0  0  0  0  0  0  0999 V2000
    7.0910   -3.3160   19.3400 C   0  0  0  0  0  0  0  0  0  0  0  0
    6.3640   -4.1230   20.3280 C   0  0  0  0  0  0  0  0  0  0  0  0
    5.3720   -4.7990   19.9730 O   0  0  0  0  0  0  0  0  0  0  0  0
    6.7980   -4.1710   21.6650 N   0  0  0  0  0  0  0  0  0  0  0  0
    7.6410   -3.0960   22.1640 C   0  0  0  0  0  0  0  0  0  0  0  0
    7.4430   -3.0200   23.6820 C   0  0  0  0  0  0  0  0  0  0  0  0
    6.0670   -3.5830   23.9270 C   0  0  0  0  0  0  0  0  0  0  0  0
    5.5470   -3.2940   25.2870 C   0  0  0  0  0  0  0  0  0  0  0  0
    4.3150   -3.3880   25.4500 O   0  0  0  0  0  0  0  0  0  0  0  0
    6.3940   -2.9150   26.3600 N   0  0  0  0  0  0  0  0  0  0  0  0
    6.3260   -3.6220   27.6170 C   0  0  0  0  0  0  0  0  0  0  0  0
    5.0670   -3.2690   28.3740 C   0  0  0  0  0  0  0  0  0  0  0  0
    4.4940   -2.0080   28.2870 C   0  0  0  0  0  0  0  0  0  0  0  0
    3.3490   -1.7080   28.9830 C   0  0  0  0  0  0  0  0  0  0  0  0
    2.7920   -2.6950   29.7670 C   0  0  0  0  0  0  0  0  0  0  0  0
    3.3060   -3.9460   29.8920 C   0  0  0  0  0  0  0  0  0  0  0  0
    2.8460   -4.9880   30.6250 O   0  0  0  0  0  0  0  0  0  0  0  0
    2.9340   -5.2680   31.9560 C   0  0  0  0  0  0  0  0  0  0  0  0
    3.3830   -6.6780   32.2740 C   0  0  0  0  0  0  0  0  0  0  0  0
    4.8520   -6.9490   32.3600 C   0  0  0  0  0  0  0  0  0  0  0  0
    4.4680   -4.2360   29.1800 C   0  0  0  0  0  0  0  0  0  0  0  0
    6.1240   -5.0650   23.7020 C   0  0  0  0  0  0  0  0  0  0  0  0
    6.5290   -5.3500   22.4260 C   0  0  0  0  0  0  0  0  0  0  0  0
  1  2  1  0
  2  3  2  0
  2  4  1  0
  4  5  1  0
  5  6  1  0
  6  7  1  0
  7  8  1  0
  8  9  2  0
  8 10  1  0
 10 11  1  0
 11 12  1  0
 12 13  2  0
 13 14  1  0
 14 15  2  0
 15 16  1  0
 16 17  1  0
 17 18  1  0
 18 19  1  0
 19 20  3  0
 12 21  1  0
 16 21  2  0
  7 22  1  0
  4 23  1  0
 22 23  1  0
M  END
