piperidine-amides-10168-covalent
     RDKit          3D

 25 27  0  0  0  0  0  0  0  0999 V2000
    7.1090   -3.2790   19.2130 C   0  0  0  0  0  0  0  0  0  0  0  0
    6.3070   -3.9830   20.2100 C   0  0  0  0  0  0  0  0  0  0  0  0
    5.2110   -4.4640   19.8350 O   0  0  0  0  0  0  0  0  0  0  0  0
    6.7960   -4.1420   21.4960 N   0  0  0  0  0  0  0  0  0  0  0  0
    6.5120   -5.3360   22.2530 C   0  0  0  0  0  0  0  0  0  0  0  0
    5.8340   -4.9090   23.5240 C   0  0  0  0  0  0  0  0  0  0  0  0
    6.5600   -3.7460   24.1400 C   0  0  0  0  0  0  0  0  0  0  0  0
    5.8490   -3.2480   25.3400 C   0  0  0  0  0  0  0  0  0  0  0  0
    4.6700   -2.8530   25.2030 O   0  0  0  0  0  0  0  0  0  0  0  0
    6.4360   -3.2050   26.6190 N   0  0  0  0  0  0  0  0  0  0  0  0
    6.4990   -4.3910   27.4480 C   0  0  0  0  0  0  0  0  0  0  0  0
    5.2980   -4.5460   28.3260 C   0  0  0  0  0  0  0  0  0  0  0  0
    4.5850   -5.6940   28.5040 C   0  0  0  0  0  0  0  0  0  0  0  0
    4.8560   -6.9150   27.9480 C   0  0  0  0  0  0  0  0  0  0  0  0
    3.9580   -7.7990   28.3390 N   0  0  0  0  0  0  0  0  0  0  0  0
    3.0760   -7.2500   29.1440 C   0  0  0  0  0  0  0  0  0  0  0  0
    1.9860   -7.8410   29.7630 C   0  0  0  0  0  0  0  0  0  0  0  0
    1.1390   -7.1060   30.5950 C   0  0  0  0  0  0  0  0  0  0  0  0
    0.0900   -7.6910   31.1850 F   0  0  0  0  0  0  0  0  0  0  0  0
    1.3320   -5.6210   30.8920 C   0  0  0  0  0  0  0  0  0  0  0  0
    0.4280   -5.0150   31.7270 F   0  0  0  0  0  0  0  0  0  0  0  0
    2.5590   -5.0990   30.1540 C   0  0  0  0  0  0  0  0  0  0  0  0
    3.4360   -5.9290   29.2710 C   0  0  0  0  0  0  0  0  0  0  0  0
    6.7460   -2.6250   23.1780 C   0  0  0  0  0  0  0  0  0  0  0  0
    7.5530   -3.0790   22.1660 C   0  0  0  0  0  0  0  0  0  0  0  0
  1  2  1  0
  2  3  2  0
  2  4  1  0
  4  5  1  0
  5  6  1  0
  6  7  1  0
  7  8  1  0
  8  9  2  0
  8 10  1  0
 10 11  1  0
 11 12  1  0
 12 13  1  0
 13 14  2  0
 14 15  1  0
 15 16  1  0
 16 17  1  0
 17 18  2  0
 18 19  1  0
 18 20  1  0
 20 21  1  0
 20 22  2  0
 13 23  1  0
 16 23  2  0
 22 23  1  0
  7 24  1  0
  4 25  1  0
 24 25  1  0
M  END
