piperidine-amides-3523-covalent
     RDKit          3D

 20 21  0  0  0  0  0  0  0  0999 V2000
    7.0440   -3.3380   19.3860 C   0  0  0  0  0  0  0  0  0  0  0  0
    6.3720   -4.1880   20.3660 C   0  0  0  0  0  0  0  0  0  0  0  0
    5.4370   -4.9020   19.9950 O   0  0  0  0  0  0  0  0  0  0  0  0
    6.8070   -4.2330   21.7450 N   0  0  0  0  0  0  0  0  0  0  0  0
    7.6970   -3.2170   22.2780 C   0  0  0  0  0  0  0  0  0  0  0  0
    7.4120   -2.9670   23.7340 C   0  0  0  0  0  0  0  0  0  0  0  0
    6.0620   -3.5910   24.0040 C   0  0  0  0  0  0  0  0  0  0  0  0
    5.4030   -3.1130   25.2920 C   0  0  0  0  0  0  0  0  0  0  0  0
    4.2030   -2.7450   25.2590 O   0  0  0  0  0  0  0  0  0  0  0  0
    6.0820   -3.0230   26.5870 N   0  0  0  0  0  0  0  0  0  0  0  0
    6.4700   -1.6910   26.9920 C   0  0  0  0  0  0  0  0  0  0  0  0
    6.9030   -1.5290   28.2290 C   0  0  0  0  0  0  0  0  0  0  0  0
    6.5990   -2.7390   28.1520 N   0  0  0  0  0  0  0  0  0  0  0  0
    6.1360   -2.6480   26.6810 N   0  0  0  0  0  0  0  0  0  0  0  0
    5.6250   -3.9110   26.0810 C   0  0  0  0  0  0  0  0  0  0  0  0
    4.9720   -4.5760   27.1510 C   0  0  0  0  0  0  0  0  0  0  0  0
    5.8350   -5.3050   27.9570 C   0  0  0  0  0  0  0  0  0  0  0  0
    6.2220   -1.1910   25.8970 C   0  0  0  0  0  0  0  0  0  0  0  0
    6.0310   -5.0930   23.8120 C   0  0  0  0  0  0  0  0  0  0  0  0
    6.5820   -5.4260   22.5780 C   0  0  0  0  0  0  0  0  0  0  0  0
  1  2  1  0
  2  3  2  0
  2  4  1  0
  4  5  1  0
  5  6  1  0
  6  7  1  0
  7  8  1  0
  8  9  2  0
  8 10  1  0
 10 11  1  0
 11 12  1  0
 12 13  2  0
 13 14  1  0
 14 15  1  0
 15 16  1  0
 16 17  1  0
 11 18  2  0
 14 18  1  0
  7 19  1  0
  4 20  1  0
 19 20  1  0
M  END
