piperidine-amides-33652-covalent
     RDKit          3D

 30 33  0  0  0  0  0  0  0  0999 V2000
    7.0860   -3.3440   19.3020 C   0  0  0  0  0  0  0  0  0  0  0  0
    6.4180   -4.1550   20.3310 C   0  0  0  0  0  0  0  0  0  0  0  0
    5.3870   -4.7810   19.9740 O   0  0  0  0  0  0  0  0  0  0  0  0
    6.9510   -4.2660   21.6410 N   0  0  0  0  0  0  0  0  0  0  0  0
    6.5410   -5.3630   22.4450 C   0  0  0  0  0  0  0  0  0  0  0  0
    6.0090   -4.9340   23.7310 C   0  0  0  0  0  0  0  0  0  0  0  0
    5.9640   -3.4610   23.8570 C   0  0  0  0  0  0  0  0  0  0  0  0
    5.3350   -2.9480   25.1320 C   0  0  0  0  0  0  0  0  0  0  0  0
    4.1310   -2.6330   25.0780 O   0  0  0  0  0  0  0  0  0  0  0  0
    5.9710   -2.8140   26.3880 N   0  0  0  0  0  0  0  0  0  0  0  0
    5.9010   -3.8780   27.3080 C   0  0  0  0  0  0  0  0  0  0  0  0
    6.7480   -5.0180   27.1280 C   0  0  0  0  0  0  0  0  0  0  0  0
    6.2530   -5.9450   26.4260 O   0  0  0  0  0  0  0  0  0  0  0  0
    7.8880   -4.3790   26.3050 C   0  0  0  0  0  0  0  0  0  0  0  0
    8.8610   -5.2420   25.8510 C   0  0  0  0  0  0  0  0  0  0  0  0
    8.9610   -5.8940   27.2340 C   0  0  0  0  0  0  0  0  0  0  0  0
    8.4480   -4.7380   28.0200 C   0  0  0  0  0  0  0  0  0  0  0  0
    7.2670   -5.6270   28.3370 C   0  0  0  0  0  0  0  0  0  0  0  0
    6.0640   -1.6360   27.2020 C   0  0  1  0  0  0  0  0  0  0  0  0
    7.2140   -1.5780   28.1830 C   0  0  0  0  0  0  0  0  0  0  0  0
    7.0020   -0.5430   29.2970 C   0  0  0  0  0  0  0  0  0  0  0  0
    6.3490    0.6710   28.7000 C   0  0  0  0  0  0  0  0  0  0  0  0
    6.0890    0.7390   27.3230 C   0  0  0  0  0  0  0  0  0  0  0  0
    5.9790    2.0000   26.7320 C   0  0  0  0  0  0  0  0  0  0  0  0
    5.7020    2.1930   25.2590 C   0  0  0  0  0  0  0  0  0  0  0  0
    5.5490    1.0960   24.4540 C   0  0  0  0  0  0  0  0  0  0  0  0
    5.6620   -0.2760   25.0590 C   0  0  0  0  0  0  0  0  0  0  0  0
    5.9420   -0.4500   26.5460 C   0  0  0  0  0  0  0  0  0  0  0  0
    7.3650   -2.8830   23.6470 C   0  0  0  0  0  0  0  0  0  0  0  0
    7.7080   -3.1240   22.1670 C   0  0  0  0  0  0  0  0  0  0  0  0
  1  2  1  0
  2  3  2  0
  2  4  1  0
  4  5  1  0
  5  6  1  0
  6  7  1  0
  7  8  1  0
  8  9  2  0
  8 10  1  0
 10 11  1  0
 11 12  1  0
 12 13  1  0
 12 14  1  0
 14 15  1  0
 15 16  1  0
 16 17  1  0
 12 18  1  0
 17 18  1  0
 19 10  1  6
 19 20  1  0
 20 21  1  0
 21 22  1  0
 22 23  1  0
 23 24  2  0
 24 25  1  0
 25 26  2  0
 26 27  1  0
 19 28  1  0
 23 28  1  0
 27 28  2  0
  7 29  1  0
  4 30  1  0
 29 30  1  0
M  END
