piperidine-amides-13174-covalent
     RDKit          3D

 19 20  0  0  0  0  0  0  0  0999 V2000
    7.1050   -3.2910   19.2750 C   0  0  0  0  0  0  0  0  0  0  0  0
    6.4080   -4.1000   20.3050 C   0  0  0  0  0  0  0  0  0  0  0  0
    5.3580   -4.6710   19.9390 O   0  0  0  0  0  0  0  0  0  0  0  0
    6.9350   -4.2480   21.6050 N   0  0  0  0  0  0  0  0  0  0  0  0
    7.7200   -3.1950   22.1830 C   0  0  0  0  0  0  0  0  0  0  0  0
    7.2730   -2.8020   23.5150 C   0  0  0  0  0  0  0  0  0  0  0  0
    6.0270   -3.4810   23.9020 C   0  0  0  0  0  0  0  0  0  0  0  0
    5.5860   -3.1060   25.2690 C   0  0  0  0  0  0  0  0  0  0  0  0
    4.6280   -2.3190   25.3640 O   0  0  0  0  0  0  0  0  0  0  0  0
    6.1850   -3.6080   26.4330 N   0  0  0  0  0  0  0  0  0  0  0  0
    5.6670   -4.8200   27.1020 C   0  0  0  0  0  0  0  0  0  0  0  0
    5.4930   -4.6450   28.5650 C   0  0  1  0  0  0  0  0  0  0  0  0
    4.2440   -4.0640   29.0090 C   0  0  0  0  0  0  0  0  0  0  0  0
    3.8120   -4.7710   30.0750 C   0  0  0  0  0  0  0  0  0  0  0  0
    4.5960   -5.6840   30.3660 O   0  0  0  0  0  0  0  0  0  0  0  0
    5.6120   -5.6590   29.5130 C   0  0  1  0  0  0  0  0  0  0  0  0
    6.0850   -6.7880   28.9220 C   0  0  0  0  0  0  0  0  0  0  0  0
    5.9950   -4.9610   23.6450 C   0  0  0  0  0  0  0  0  0  0  0  0
    6.6170   -5.3520   22.4810 C   0  0  0  0  0  0  0  0  0  0  0  0
  1  2  1  0
  2  3  2  0
  2  4  1  0
  4  5  1  0
  5  6  1  0
  6  7  1  0
  7  8  1  0
  8  9  2  0
  8 10  1  0
 10 11  1  0
 12 11  1  6
 12 13  1  0
 13 14  1  0
 14 15  1  0
 12 16  1  0
 15 16  1  0
 16 17  1  6
  7 18  1  0
  4 19  1  0
 18 19  1  0
M  END
