piperidine-amides-12752-covalent
     RDKit          3D

 22 23  0  0  0  0  0  0  0  0999 V2000
    7.1590   -3.2650   19.1160 C   0  0  0  0  0  0  0  0  0  0  0  0
    6.3350   -3.9220   20.1480 C   0  0  0  0  0  0  0  0  0  0  0  0
    5.2270   -4.3650   19.8010 O   0  0  0  0  0  0  0  0  0  0  0  0
    6.8250   -4.0930   21.4390 N   0  0  0  0  0  0  0  0  0  0  0  0
    6.3060   -5.1330   22.2550 C   0  0  0  0  0  0  0  0  0  0  0  0
    5.7360   -4.6400   23.5080 C   0  0  0  0  0  0  0  0  0  0  0  0
    6.6090   -3.6660   24.2170 C   0  0  0  0  0  0  0  0  0  0  0  0
    5.9640   -3.0990   25.4390 C   0  0  0  0  0  0  0  0  0  0  0  0
    4.7260   -2.9370   25.4410 O   0  0  0  0  0  0  0  0  0  0  0  0
    6.7610   -2.7450   26.5600 N   0  0  0  0  0  0  0  0  0  0  0  0
    6.5710   -3.2680   27.9460 C   0  0  0  0  0  0  0  0  0  0  0  0
    6.2190   -4.7190   28.0340 C   0  0  0  0  0  0  0  0  0  0  0  0
    6.8390   -5.5580   27.0500 C   0  0  1  0  0  0  0  0  0  0  0  0
    6.2870   -5.5530   25.8060 C   0  0  0  0  0  0  0  0  0  0  0  0
    8.3020   -5.0660   26.9440 C   0  0  0  0  0  0  0  0  0  0  0  0
    9.0150   -5.4860   25.8670 C   0  0  0  0  0  0  0  0  0  0  0  0
    9.7850   -6.5630   26.3120 O   0  0  0  0  0  0  0  0  0  0  0  0
    4.6790   -4.8560   28.0370 C   0  0  0  0  0  0  0  0  0  0  0  0
    4.5860   -5.4030   29.2410 C   0  0  0  0  0  0  0  0  0  0  0  0
    5.9530   -5.2990   29.3050 C   0  0  0  0  0  0  0  0  0  0  0  0
    7.1400   -2.5940   23.3520 C   0  0  0  0  0  0  0  0  0  0  0  0
    7.7200   -3.1230   22.0700 C   0  0  0  0  0  0  0  0  0  0  0  0
  1  2  1  0
  2  3  2  0
  2  4  1  0
  4  5  1  0
  5  6  1  0
  6  7  1  0
  7  8  1  0
  8  9  2  0
  8 10  1  0
 10 11  1  0
 12 11  1  0
 12 13  1  0
 13 14  1  6
 13 15  1  0
 15 16  1  0
 16 17  1  0
 12 18  1  0
 18 19  1  0
 12 20  1  0
 19 20  1  0
  7 21  1  0
  4 22  1  0
 21 22  1  0
M  END
