piperidine-amides-12766-covalent
     RDKit          3D

 22 24  0  0  0  0  0  0  0  0999 V2000
    7.0420   -3.3470   19.3120 C   0  0  0  0  0  0  0  0  0  0  0  0
    6.3800   -4.1810   20.3420 C   0  0  0  0  0  0  0  0  0  0  0  0
    5.3580   -4.7950   19.9710 O   0  0  0  0  0  0  0  0  0  0  0  0
    6.9080   -4.3140   21.6430 N   0  0  0  0  0  0  0  0  0  0  0  0
    7.6580   -3.2520   22.2540 C   0  0  0  0  0  0  0  0  0  0  0  0
    7.2540   -2.9440   23.6260 C   0  0  0  0  0  0  0  0  0  0  0  0
    6.0230   -3.6440   24.0330 C   0  0  0  0  0  0  0  0  0  0  0  0
    5.6120   -3.3030   25.4180 C   0  0  0  0  0  0  0  0  0  0  0  0
    4.3980   -3.3550   25.6800 O   0  0  0  0  0  0  0  0  0  0  0  0
    6.5230   -2.9180   26.4160 N   0  0  0  0  0  0  0  0  0  0  0  0
    6.4400   -1.5840   27.0570 C   0  0  0  0  0  0  0  0  0  0  0  0
    5.6870   -0.4720   26.4290 C   0  0  0  0  0  0  0  0  0  0  0  0
    5.6040    0.8360   27.0710 C   0  0  0  0  0  0  0  0  0  0  0  0
    6.2540    1.0050   28.2780 C   0  0  0  0  0  0  0  0  0  0  0  0
    6.2890    2.1570   29.0280 C   0  0  0  0  0  0  0  0  0  0  0  0
    7.0230    1.9210   30.1230 C   0  0  0  0  0  0  0  0  0  0  0  0
    7.5080    0.6060   30.1470 N   0  0  0  0  0  0  0  0  0  0  0  0
    8.3130    0.0400   31.1650 C   0  0  0  0  0  0  0  0  0  0  0  0
    6.9810   -0.0370   28.8910 C   0  0  0  0  0  0  0  0  0  0  0  0
    7.0990   -1.3090   28.3440 C   0  0  0  0  0  0  0  0  0  0  0  0
    6.0280   -5.1050   23.7880 C   0  0  0  0  0  0  0  0  0  0  0  0
    6.6520   -5.4920   22.4690 C   0  0  0  0  0  0  0  0  0  0  0  0
  1  2  1  0
  2  3  2  0
  2  4  1  0
  4  5  1  0
  5  6  1  0
  6  7  1  0
  7  8  1  0
  8  9  2  0
  8 10  1  0
 10 11  1  0
 11 12  2  0
 12 13  1  0
 13 14  2  0
 14 15  1  0
 15 16  2  0
 16 17  1  0
 17 18  1  0
 14 19  1  0
 17 19  1  0
 11 20  1  0
 19 20  2  0
  7 21  1  0
  4 22  1  0
 21 22  1  0
M  END
