piperidine-amides-30725-covalent
     RDKit          3D

 27 29  0  0  0  0  0  0  0  0999 V2000
    7.0550   -3.3060   19.3170 C   0  0  0  0  0  0  0  0  0  0  0  0
    6.4000   -4.1360   20.3280 C   0  0  0  0  0  0  0  0  0  0  0  0
    5.4180   -4.8260   19.9870 O   0  0  0  0  0  0  0  0  0  0  0  0
    6.8770   -4.2090   21.6500 N   0  0  0  0  0  0  0  0  0  0  0  0
    7.7320   -3.1610   22.2160 C   0  0  0  0  0  0  0  0  0  0  0  0
    7.2860   -2.8790   23.6410 C   0  0  0  0  0  0  0  0  0  0  0  0
    5.9550   -3.5060   23.9220 C   0  0  0  0  0  0  0  0  0  0  0  0
    5.2950   -3.2160   25.2480 C   0  0  0  0  0  0  0  0  0  0  0  0
    4.0370   -3.3380   25.2950 O   0  0  0  0  0  0  0  0  0  0  0  0
    5.8650   -2.8000   26.4920 N   0  0  0  0  0  0  0  0  0  0  0  0
    4.9230   -2.6660   27.6420 C   0  0  0  0  0  0  0  0  0  0  0  0
    5.3960   -3.7410   28.5250 C   0  0  0  0  0  0  0  0  0  0  0  0
    6.5690   -4.2810   27.8610 C   0  0  1  0  0  0  0  0  0  0  0  0
    7.5430   -4.9350   28.7440 C   0  0  0  0  0  0  0  0  0  0  0  0
    7.8410   -6.1710   27.9540 C   0  0  0  0  0  0  0  0  0  0  0  0
    6.9130   -6.0520   26.8230 N   0  0  0  0  0  0  0  0  0  0  0  0
    7.7070   -5.4400   25.7790 C   0  0  0  0  0  0  0  0  0  0  0  0
    8.1320   -6.0440   24.6380 O   0  0  0  0  0  0  0  0  0  0  0  0
    8.0420   -4.2480   25.8630 O   0  0  0  0  0  0  0  0  0  0  0  0
    9.2510   -3.8760   26.3720 C   0  0  0  0  0  0  0  0  0  0  0  0
   10.2290   -4.6970   25.8300 C   0  0  0  0  0  0  0  0  0  0  0  0
   10.0330   -4.8660   27.1830 C   0  0  0  0  0  0  0  0  0  0  0  0
    9.2260   -3.9370   27.9380 C   0  0  0  0  0  0  0  0  0  0  0  0
    5.7730   -5.3680   27.2550 C   0  0  0  0  0  0  0  0  0  0  0  0
    7.0840   -3.4370   26.8650 C   0  0  0  0  0  0  0  0  0  0  0  0
    5.8540   -4.9500   23.6120 C   0  0  0  0  0  0  0  0  0  0  0  0
    6.5560   -5.3210   22.4870 C   0  0  0  0  0  0  0  0  0  0  0  0
  1  2  1  0
  2  3  2  0
  2  4  1  0
  4  5  1  0
  5  6  1  0
  6  7  1  0
  7  8  1  0
  8  9  2  0
  8 10  1  0
 10 11  1  0
 11 12  1  0
 13 12  1  1
 13 14  1  0
 14 15  1  0
 15 16  1  0
 16 17  1  0
 17 18  2  0
 17 19  1  0
 20 19  1  0
 20 21  1  0
 20 22  1  0
 20 23  1  0
 13 24  1  0
 16 24  1  0
 10 25  1  0
 13 25  1  0
  7 26  1  0
  4 27  1  0
 26 27  1  0
M  END
