piperidine-amides-97-covalent
     RDKit          3D

 21 22  0  0  0  0  0  0  0  0999 V2000
    7.0870   -3.2800   19.3280 C   0  0  0  0  0  0  0  0  0  0  0  0
    6.3070   -4.0530   20.2790 C   0  0  0  0  0  0  0  0  0  0  0  0
    5.2550   -4.6320   19.8890 O   0  0  0  0  0  0  0  0  0  0  0  0
    6.6910   -4.1950   21.6170 N   0  0  0  0  0  0  0  0  0  0  0  0
    7.5380   -3.0950   22.1160 C   0  0  0  0  0  0  0  0  0  0  0  0
    7.3530   -3.2150   23.6650 C   0  0  0  0  0  0  0  0  0  0  0  0
    6.0130   -3.8180   23.9410 C   0  0  0  0  0  0  0  0  0  0  0  0
    5.5590   -3.2920   25.3720 C   0  0  0  0  0  0  0  0  0  0  0  0
    4.7720   -2.3610   25.2660 O   0  0  0  0  0  0  0  0  0  0  0  0
    6.1420   -3.9950   26.2670 N   0  0  0  0  0  0  0  0  0  0  0  0
    6.7230   -4.7660   27.2380 C   0  0  1  0  0  0  0  0  0  0  0  0
    7.1760   -4.6360   28.5140 C   0  0  0  0  0  0  0  0  0  0  0  0
    5.9560   -6.0320   27.3670 C   0  0  0  0  0  0  0  0  0  0  0  0
    4.5250   -5.7620   27.6080 C   0  0  0  0  0  0  0  0  0  0  0  0
    4.2400   -4.7000   28.6520 C   0  0  0  0  0  0  0  0  0  0  0  0
    2.8580   -4.8230   28.5070 C   0  0  0  0  0  0  0  0  0  0  0  0
    2.3470   -5.7590   27.5680 N   0  0  0  0  0  0  0  0  0  0  0  0
    3.4570   -6.3090   27.0480 N   0  0  0  0  0  0  0  0  0  0  0  0
    3.3010   -7.3380   26.0290 C   0  0  0  0  0  0  0  0  0  0  0  0
    5.7790   -5.1830   23.5690 C   0  0  0  0  0  0  0  0  0  0  0  0
    6.6980   -5.4140   22.3280 C   0  0  0  0  0  0  0  0  0  0  0  0
  1  2  1  0
  2  3  2  0
  2  4  1  0
  4  5  1  0
  5  6  1  0
  6  7  1  0
  7  8  1  0
  8  9  2  0
  8 10  1  0
 10 11  1  0
 11 12  1  1
 11 13  1  0
 13 14  1  0
 14 15  2  0
 15 16  1  0
 16 17  2  0
 14 18  1  0
 17 18  1  0
 18 19  1  0
  7 20  1  0
  4 21  1  0
 20 21  1  0
M  END
