piperidine-amides-35311-covalent
     RDKit          3D

 33 36  0  0  0  0  0  0  0  0999 V2000
    7.0570   -3.3210   19.2890 C   0  0  0  0  0  0  0  0  0  0  0  0
    6.3770   -4.1570   20.3150 C   0  0  0  0  0  0  0  0  0  0  0  0
    5.3600   -4.7510   19.9580 O   0  0  0  0  0  0  0  0  0  0  0  0
    6.9090   -4.2930   21.6040 N   0  0  0  0  0  0  0  0  0  0  0  0
    6.6570   -5.4710   22.3880 C   0  0  0  0  0  0  0  0  0  0  0  0
    5.9680   -5.0780   23.6640 C   0  0  0  0  0  0  0  0  0  0  0  0
    6.5900   -3.7960   24.2300 C   0  0  0  0  0  0  0  0  0  0  0  0
    5.7590   -3.3790   25.3830 C   0  0  0  0  0  0  0  0  0  0  0  0
    4.5270   -3.4300   25.2710 O   0  0  0  0  0  0  0  0  0  0  0  0
    6.3070   -2.8990   26.5980 N   0  0  0  0  0  0  0  0  0  0  0  0
    6.2890   -3.7770   27.7690 C   0  0  0  0  0  0  0  0  0  0  0  0
    5.9750   -5.2130   27.3780 C   0  0  0  0  0  0  0  0  0  0  0  0
    4.7980   -5.8220   27.7210 C   0  0  0  0  0  0  0  0  0  0  0  0
    4.6830   -7.0720   27.6040 O   0  0  0  0  0  0  0  0  0  0  0  0
    6.0390   -1.5350   26.9100 C   0  0  0  0  0  0  0  0  0  0  0  0
    6.3520   -0.4860   25.9590 N   0  0  0  0  0  0  0  0  0  0  0  0
    6.0560    0.8720   26.3020 C   0  0  0  0  0  0  0  0  0  0  0  0
    6.3750    2.0140   25.3460 C   0  0  0  0  0  0  0  0  0  0  0  0
    7.2140    3.0090   26.1200 C   0  0  0  0  0  0  0  0  0  0  0  0
    7.7020    4.2730   25.4170 C   0  0  0  0  0  0  0  0  0  0  0  0
    7.2770    4.3880   23.9840 C   0  0  0  0  0  0  0  0  0  0  0  0
    6.4560    3.3840   23.2800 C   0  0  0  0  0  0  0  0  0  0  0  0
    5.9460    2.1250   23.9090 C   0  0  0  0  0  0  0  0  0  0  0  0
    5.4830    1.2600   27.4810 C   0  0  0  0  0  0  0  0  0  0  0  0
    5.1690    2.7150   27.8250 C   0  0  0  0  0  0  0  0  0  0  0  0
    4.5900    3.1380   29.0100 C   0  0  0  0  0  0  0  0  0  0  0  0
    4.2860    4.8550   29.2680 Cl  0  0  0  0  0  0  0  0  0  0  0  0
    4.2560    2.0710   30.0120 C   0  0  0  0  0  0  0  0  0  0  0  0
    4.5650    0.6220   29.6780 C   0  0  0  0  0  0  0  0  0  0  0  0
    5.2010    0.2470   28.3530 C   0  0  0  0  0  0  0  0  0  0  0  0
    5.4740   -1.0450   28.0560 N   0  0  0  0  0  0  0  0  0  0  0  0
    6.7920   -2.6610   23.2680 C   0  0  0  0  0  0  0  0  0  0  0  0
    7.6880   -3.2000   22.1550 C   0  0  0  0  0  0  0  0  0  0  0  0
  1  2  1  0
  2  3  2  0
  2  4  1  0
  4  5  1  0
  5  6  1  0
  6  7  1  0
  7  8  1  0
  8  9  2  0
  8 10  1  0
 10 11  1  0
 11 12  1  0
 12 13  1  0
 13 14  1  0
 10 15  1  0
 15 16  2  0
 16 17  1  0
 17 18  1  0
 18 19  2  0
 19 20  1  0
 20 21  2  0
 21 22  1  0
 18 23  1  0
 22 23  2  0
 17 24  2  0
 24 25  1  0
 25 26  2  0
 26 27  1  0
 26 28  1  0
 28 29  2  0
 24 30  1  0
 29 30  1  0
 15 31  1  0
 30 31  2  0
  7 32  1  0
  4 33  1  0
 32 33  1  0
M  END
