piperidine-amides-23349-covalent
     RDKit          3D

 24 26  0  0  0  0  0  0  0  0999 V2000
    7.0070   -3.3480   19.3130 C   0  0  0  0  0  0  0  0  0  0  0  0
    6.3510   -4.1660   20.3470 C   0  0  0  0  0  0  0  0  0  0  0  0
    5.3610   -4.8410   19.9780 O   0  0  0  0  0  0  0  0  0  0  0  0
    6.8350   -4.2280   21.6820 N   0  0  0  0  0  0  0  0  0  0  0  0
    6.5460   -5.3730   22.4730 C   0  0  0  0  0  0  0  0  0  0  0  0
    6.6170   -5.1740   23.9280 C   0  0  0  0  0  0  0  0  0  0  0  0
    6.7810   -3.7780   24.4360 C   0  0  0  0  0  0  0  0  0  0  0  0
    5.8370   -3.5170   25.6160 C   0  0  0  0  0  0  0  0  0  0  0  0
    4.6290   -3.4280   25.3270 O   0  0  0  0  0  0  0  0  0  0  0  0
    6.1630   -3.3390   27.0290 N   0  0  0  0  0  0  0  0  0  0  0  0
    6.6060   -4.2440   28.0120 C   0  0  0  0  0  0  0  0  0  0  0  0
    6.3980   -5.6610   27.9650 C   0  0  0  0  0  0  0  0  0  0  0  0
    5.6120   -5.8590   29.2540 C   0  0  0  0  0  0  0  0  0  0  0  0
    5.8560   -6.7440   30.2850 C   0  0  0  0  0  0  0  0  0  0  0  0
    4.8310   -6.6690   31.4850 C   0  0  0  0  0  0  0  0  0  0  0  0
    3.6500   -5.6810   31.4970 C   0  0  0  0  0  0  0  0  0  0  0  0
    3.5810   -4.8120   30.2490 C   0  0  0  0  0  0  0  0  0  0  0  0
    4.5220   -4.8790   29.1410 C   0  0  0  0  0  0  0  0  0  0  0  0
    4.2300   -3.9180   27.9750 C   0  0  2  0  0  0  0  0  0  0  0  0
    3.9440   -4.5090   26.9000 O   0  0  0  0  0  0  0  0  0  0  0  0
    3.6530   -5.8960   26.8940 C   0  0  0  0  0  0  0  0  0  0  0  0
    5.1120   -2.7030   27.7290 C   0  0  0  0  0  0  0  0  0  0  0  0
    6.6440   -2.7650   23.3460 C   0  0  0  0  0  0  0  0  0  0  0  0
    7.4760   -3.0970   22.2900 C   0  0  0  0  0  0  0  0  0  0  0  0
  1  2  1  0
  2  3  2  0
  2  4  1  0
  4  5  1  0
  5  6  1  0
  6  7  1  0
  7  8  1  0
  8  9  2  0
  8 10  1  0
 10 11  1  0
 11 12  1  0
 12 13  1  0
 13 14  1  0
 14 15  2  0
 15 16  1  0
 16 17  2  0
 13 18  2  0
 17 18  1  0
 18 19  1  0
 19 20  1  6
 20 21  1  0
 10 22  1  0
 19 22  1  0
  7 23  1  0
  4 24  1  0
 23 24  1  0
M  END
