piperidine-amides-25379-covalent
     RDKit          3D

 25 27  0  0  0  0  0  0  0  0999 V2000
    7.1560   -3.3420   19.2580 C   0  0  0  0  0  0  0  0  0  0  0  0
    6.4310   -4.1580   20.2540 C   0  0  0  0  0  0  0  0  0  0  0  0
    5.3360   -4.6040   19.9170 O   0  0  0  0  0  0  0  0  0  0  0  0
    7.0330   -4.4520   21.4740 N   0  0  0  0  0  0  0  0  0  0  0  0
    6.6160   -5.6000   22.2060 C   0  0  0  0  0  0  0  0  0  0  0  0
    5.6710   -5.1090   23.2500 C   0  0  0  0  0  0  0  0  0  0  0  0
    6.3380   -4.0400   24.1200 C   0  0  0  0  0  0  0  0  0  0  0  0
    5.2610   -3.4720   24.9210 C   0  0  0  0  0  0  0  0  0  0  0  0
    4.2890   -2.9470   24.3860 O   0  0  0  0  0  0  0  0  0  0  0  0
    5.3390   -3.5100   26.2860 N   0  0  0  0  0  0  0  0  0  0  0  0
    6.4960   -2.9520   26.8410 C   0  0  0  0  0  0  0  0  0  0  0  0
    6.6640   -3.8050   28.0450 C   0  0  0  0  0  0  0  0  0  0  0  0
    5.8350   -3.6290   28.9940 C   0  0  0  0  0  0  0  0  0  0  0  0
    5.3640   -2.3380   29.0980 C   0  0  1  0  0  0  0  0  0  0  0  0
    4.5500   -1.9990   30.1360 C   0  0  0  0  0  0  0  0  0  0  0  0
    5.9160   -1.3980   30.0550 C   0  0  0  0  0  0  0  0  0  0  0  0
    7.4000   -1.0700   29.9810 C   0  0  0  0  0  0  0  0  0  0  0  0
    8.0660   -0.1000   30.9460 C   0  0  0  0  0  0  0  0  0  0  0  0
    7.2100    0.5320   31.9800 C   0  0  0  0  0  0  0  0  0  0  0  0
    5.7800    0.2270   32.0590 C   0  0  0  0  0  0  0  0  0  0  0  0
    5.0790   -0.7200   31.1320 C   0  0  0  0  0  0  0  0  0  0  0  0
    4.6610   -4.3740   28.4230 C   0  0  0  0  0  0  0  0  0  0  0  0
    4.2390   -3.5720   27.2260 C   0  0  0  0  0  0  0  0  0  0  0  0
    6.9470   -2.9110   23.3190 C   0  0  0  0  0  0  0  0  0  0  0  0
    7.7230   -3.3900   22.1400 C   0  0  0  0  0  0  0  0  0  0  0  0
  1  2  1  0
  2  3  2  0
  2  4  1  0
  4  5  1  0
  5  6  1  0
  6  7  1  0
  7  8  1  0
  8  9  2  0
  8 10  1  0
 10 11  1  0
 11 12  1  0
 12 13  1  0
 13 14  1  0
 14 15  1  1
 14 16  1  0
 16 17  2  0
 17 18  1  0
 18 19  2  0
 19 20  1  0
 16 21  1  0
 20 21  2  0
 13 22  1  0
 10 23  1  0
 22 23  1  0
  7 24  1  0
  4 25  1  0
 24 25  1  0
M  END
