piperidine-amides-5348-covalent
     RDKit          3D

 21 22  0  0  0  0  0  0  0  0999 V2000
    7.1230   -3.2550   19.1880 C   0  0  0  0  0  0  0  0  0  0  0  0
    6.3640   -4.0130   20.2130 C   0  0  0  0  0  0  0  0  0  0  0  0
    5.2750   -4.5010   19.8610 O   0  0  0  0  0  0  0  0  0  0  0  0
    6.8840   -4.2130   21.5000 N   0  0  0  0  0  0  0  0  0  0  0  0
    7.6020   -3.1640   22.1450 C   0  0  0  0  0  0  0  0  0  0  0  0
    7.1260   -2.8390   23.4870 C   0  0  0  0  0  0  0  0  0  0  0  0
    6.4390   -3.9370   24.1980 C   0  0  0  0  0  0  0  0  0  0  0  0
    5.7100   -3.3810   25.3690 C   0  0  0  0  0  0  0  0  0  0  0  0
    4.4690   -3.3130   25.3070 O   0  0  0  0  0  0  0  0  0  0  0  0
    6.3880   -2.9490   26.5300 N   0  0  0  0  0  0  0  0  0  0  0  0
    6.4450   -1.5320   26.9770 C   0  0  0  0  0  0  0  0  0  0  0  0
    5.8940   -0.5730   25.9730 C   0  0  0  0  0  0  0  0  0  0  0  0
    6.4920   -0.2830   24.6980 C   0  0  0  0  0  0  0  0  0  0  0  0
    5.9490    0.6030   23.8250 C   0  0  0  0  0  0  0  0  0  0  0  0
    4.7830    1.2630   24.1510 C   0  0  0  0  0  0  0  0  0  0  0  0
    4.1590    1.0330   25.3600 C   0  0  0  0  0  0  0  0  0  0  0  0
    2.6700    1.9410   25.6680 Cl  0  0  0  0  0  0  0  0  0  0  0  0
    4.6090    0.1560   26.3330 C   0  0  0  0  0  0  0  0  0  0  0  0
    3.6760   -0.0190   27.8480 Cl  0  0  0  0  0  0  0  0  0  0  0  0
    5.6210   -4.8370   23.3500 C   0  0  0  0  0  0  0  0  0  0  0  0
    6.4070   -5.3110   22.2960 C   0  0  0  0  0  0  0  0  0  0  0  0
  1  2  1  0
  2  3  2  0
  2  4  1  0
  4  5  1  0
  5  6  1  0
  6  7  1  0
  7  8  1  0
  8  9  2  0
  8 10  1  0
 10 11  1  0
 11 12  1  0
 12 13  2  0
 13 14  1  0
 14 15  2  0
 15 16  1  0
 16 17  1  0
 12 18  1  0
 16 18  2  0
 18 19  1  0
  7 20  1  0
  4 21  1  0
 20 21  1  0
M  END
