piperidine-amides-6706-covalent
     RDKit          3D

 23 25  0  0  0  0  0  0  0  0999 V2000
    7.0320   -3.3660   19.3880 C   0  0  0  0  0  0  0  0  0  0  0  0
    6.3760   -4.2790   20.3380 C   0  0  0  0  0  0  0  0  0  0  0  0
    5.3660   -4.9230   19.9900 O   0  0  0  0  0  0  0  0  0  0  0  0
    6.9150   -4.4620   21.6180 N   0  0  0  0  0  0  0  0  0  0  0  0
    7.5700   -3.3490   22.2430 C   0  0  0  0  0  0  0  0  0  0  0  0
    6.5050   -2.7950   23.1730 C   0  0  0  0  0  0  0  0  0  0  0  0
    6.3780   -3.8660   24.2150 C   0  0  0  0  0  0  0  0  0  0  0  0
    5.4780   -3.3810   25.2890 C   0  0  0  0  0  0  0  0  0  0  0  0
    4.2450   -3.4640   25.1060 O   0  0  0  0  0  0  0  0  0  0  0  0
    5.9980   -2.8330   26.4910 N   0  0  0  0  0  0  0  0  0  0  0  0
    6.4500   -1.4670   26.5220 C   0  0  1  0  0  0  0  0  0  0  0  0
    7.2350   -1.2160   25.2280 C   0  0  0  0  0  0  0  0  0  0  0  0
    6.8010   -0.0340   24.4910 N   0  0  0  0  0  0  0  0  0  0  0  0
    7.4260    0.3770   23.2410 C   0  0  0  0  0  0  0  0  0  0  0  0
    8.4590   -0.4030   22.7670 C   0  0  0  0  0  0  0  0  0  0  0  0
    8.8720   -1.5370   23.4720 C   0  0  0  0  0  0  0  0  0  0  0  0
    8.2530   -1.9390   24.7020 N   0  0  0  0  0  0  0  0  0  0  0  0
    5.3610   -0.4600   26.6620 C   0  0  0  0  0  0  0  0  0  0  0  0
    5.7920    0.4860   27.7210 C   0  0  0  0  0  0  0  0  0  0  0  0
    6.7100   -0.0040   28.3540 O   0  0  0  0  0  0  0  0  0  0  0  0
    7.2090   -1.2460   27.8420 C   0  0  0  0  0  0  0  0  0  0  0  0
    5.8370   -5.1270   23.6520 C   0  0  0  0  0  0  0  0  0  0  0  0
    6.5320   -5.5780   22.4270 C   0  0  0  0  0  0  0  0  0  0  0  0
  1  2  1  0
  2  3  2  0
  2  4  1  0
  4  5  1  0
  5  6  1  0
  6  7  1  0
  7  8  1  0
  8  9  2  0
  8 10  1  0
 11 10  1  6
 11 12  1  0
 12 13  2  0
 13 14  1  0
 14 15  2  0
 15 16  1  0
 12 17  1  0
 16 17  2  0
 11 18  1  0
 18 19  1  0
 19 20  1  0
 11 21  1  0
 20 21  1  0
  7 22  1  0
  4 23  1  0
 22 23  1  0
M  END
