piperidine-amides-25147-covalent
     RDKit          3D

 25 28  0  0  0  0  0  0  0  0999 V2000
    7.0370   -3.3760   19.4070 C   0  0  0  0  0  0  0  0  0  0  0  0
    6.3330   -4.2420   20.3870 C   0  0  0  0  0  0  0  0  0  0  0  0
    5.3530   -4.8620   19.9800 O   0  0  0  0  0  0  0  0  0  0  0  0
    6.8130   -4.3610   21.6970 N   0  0  0  0  0  0  0  0  0  0  0  0
    6.5100   -5.5040   22.5060 C   0  0  0  0  0  0  0  0  0  0  0  0
    6.6780   -5.1000   23.9500 C   0  0  0  0  0  0  0  0  0  0  0  0
    5.9850   -3.7550   24.2240 C   0  0  0  0  0  0  0  0  0  0  0  0
    6.0410   -2.7970   25.3780 C   0  0  0  0  0  0  0  0  0  0  0  0
    6.4310   -1.6600   25.1800 O   0  0  0  0  0  0  0  0  0  0  0  0
    5.5910   -3.1090   26.6870 N   0  0  0  0  0  0  0  0  0  0  0  0
    6.5860   -3.6610   27.6500 C   0  0  0  0  0  0  0  0  0  0  0  0
    6.0270   -4.9880   28.3960 C   0  0  0  0  0  0  0  0  0  0  0  0
    5.5620   -6.2060   29.1060 C   0  0  0  0  0  0  0  0  0  0  0  0
    6.6050   -5.8050   29.3080 C   0  0  0  0  0  0  0  0  0  0  0  0
    6.6350   -4.7780   28.5480 C   0  0  0  0  0  0  0  0  0  0  0  0
    5.6540   -4.0990   27.5390 C   0  0  0  0  0  0  0  0  0  0  0  0
    4.6640   -4.9500   27.7320 C   0  0  1  0  0  0  0  0  0  0  0  0
    5.1170   -6.3160   27.2380 C   0  0  0  0  0  0  0  0  0  0  0  0
    4.1000   -5.0040   29.1480 C   0  0  0  0  0  0  0  0  0  0  0  0
    3.9460   -3.7080   29.8590 C   0  0  0  0  0  0  0  0  0  0  0  0
    3.4360   -2.5920   28.9830 C   0  0  0  0  0  0  0  0  0  0  0  0
    3.2120   -2.9920   27.5690 C   0  0  0  0  0  0  0  0  0  0  0  0
    4.2150   -3.9170   26.9030 C   0  0  1  0  0  0  0  0  0  0  0  0
    7.3340   -3.1980   23.7750 C   0  0  0  0  0  0  0  0  0  0  0  0
    7.5020   -3.2430   22.2720 C   0  0  0  0  0  0  0  0  0  0  0  0
  1  2  1  0
  2  3  2  0
  2  4  1  0
  4  5  1  0
  5  6  1  0
  6  7  1  0
  7  8  1  0
  8  9  2  0
  8 10  1  0
 10 11  1  0
 11 12  2  0
 12 13  1  0
 13 14  2  0
 14 15  1  0
 11 16  1  0
 15 16  2  0
 16 17  1  0
 17 18  1  6
 17 19  1  0
 19 20  1  0
 20 21  1  0
 21 22  1  0
 10 23  1  0
 17 23  1  0
 23 22  1  1
  7 24  1  0
  4 25  1  0
 24 25  1  0
M  END
