piperidine-amides-9086-covalent
     RDKit          3D

 21 22  0  0  0  0  0  0  0  0999 V2000
    7.0780   -3.3080   19.2810 C   0  0  0  0  0  0  0  0  0  0  0  0
    6.3600   -4.1150   20.2670 C   0  0  0  0  0  0  0  0  0  0  0  0
    5.3130   -4.6910   19.9340 O   0  0  0  0  0  0  0  0  0  0  0  0
    6.8560   -4.3030   21.5670 N   0  0  0  0  0  0  0  0  0  0  0  0
    6.5940   -5.4890   22.3470 C   0  0  0  0  0  0  0  0  0  0  0  0
    5.8120   -5.0140   23.5410 C   0  0  0  0  0  0  0  0  0  0  0  0
    6.5060   -3.8750   24.2350 C   0  0  0  0  0  0  0  0  0  0  0  0
    5.7790   -3.3920   25.4390 C   0  0  0  0  0  0  0  0  0  0  0  0
    4.5150   -3.2440   25.4490 O   0  0  0  0  0  0  0  0  0  0  0  0
    6.4490   -3.0860   26.6380 N   0  0  0  0  0  0  0  0  0  0  0  0
    6.4080   -1.7320   27.2410 C   0  0  0  0  0  0  0  0  0  0  0  0
    7.0060   -1.5990   28.5730 C   0  0  0  0  0  0  0  0  0  0  0  0
    7.0080   -0.3180   29.2550 C   0  0  0  0  0  0  0  0  0  0  0  0
    6.3940    0.8760   28.5890 C   0  0  0  0  0  0  0  0  0  0  0  0
    6.3680    2.2400   29.2560 C   0  0  0  0  0  0  0  0  0  0  0  0
    7.2200    2.1560   30.4100 F   0  0  0  0  0  0  0  0  0  0  0  0
    5.1190    2.5250   29.6680 F   0  0  0  0  0  0  0  0  0  0  0  0
    5.7740    0.7060   27.1840 C   0  0  0  0  0  0  0  0  0  0  0  0
    5.7650   -0.5130   26.5200 C   0  0  0  0  0  0  0  0  0  0  0  0
    6.7680   -2.7240   23.3130 C   0  0  0  0  0  0  0  0  0  0  0  0
    7.6350   -3.2570   22.2040 C   0  0  0  0  0  0  0  0  0  0  0  0
  1  2  1  0
  2  3  2  0
  2  4  1  0
  4  5  1  0
  5  6  1  0
  6  7  1  0
  7  8  1  0
  8  9  2  0
  8 10  1  0
 10 11  1  0
 11 12  2  0
 12 13  1  0
 13 14  2  0
 14 15  1  0
 15 16  1  0
 15 17  1  0
 14 18  1  0
 11 19  1  0
 18 19  2  0
  7 20  1  0
  4 21  1  0
 20 21  1  0
M  END
