piperidine-amides-14060-covalent
     RDKit          3D

 25 27  0  0  0  0  0  0  0  0999 V2000
    7.0770   -3.3130   19.3220 C   0  0  0  0  0  0  0  0  0  0  0  0
    6.3610   -4.1630   20.3130 C   0  0  0  0  0  0  0  0  0  0  0  0
    5.3450   -4.7840   19.9590 O   0  0  0  0  0  0  0  0  0  0  0  0
    6.8760   -4.2800   21.6170 N   0  0  0  0  0  0  0  0  0  0  0  0
    6.7240   -5.4910   22.3960 C   0  0  0  0  0  0  0  0  0  0  0  0
    6.0130   -5.1460   23.7120 C   0  0  0  0  0  0  0  0  0  0  0  0
    6.0920   -3.6690   23.9220 C   0  0  0  0  0  0  0  0  0  0  0  0
    5.7210   -3.2390   25.2770 C   0  0  0  0  0  0  0  0  0  0  0  0
    4.5220   -3.3200   25.5730 O   0  0  0  0  0  0  0  0  0  0  0  0
    6.6990   -2.7620   26.1460 N   0  0  0  0  0  0  0  0  0  0  0  0
    6.5110   -1.8480   27.2090 C   0  0  1  0  0  0  0  0  0  0  0  0
    7.4330   -1.7690   28.1810 C   0  0  0  0  0  0  0  0  0  0  0  0
    7.1180   -0.9720   29.2570 C   0  0  0  0  0  0  0  0  0  0  0  0
    6.5210    0.2490   29.0510 C   0  0  2  0  0  0  0  0  0  0  0  0
    7.2200    1.3540   29.2290 O   0  0  0  0  0  0  0  0  0  0  0  0
    5.4300    0.3110   30.0610 C   0  0  0  0  0  0  0  0  0  0  0  0
    3.9810   -0.0180   29.7310 C   0  0  0  0  0  0  0  0  0  0  0  0
    3.0490    0.1070   30.9250 C   0  0  0  0  0  0  0  0  0  0  0  0
    3.5670    0.4890   32.1470 C   0  0  0  0  0  0  0  0  0  0  0  0
    4.8490    0.7850   32.4610 N   0  0  0  0  0  0  0  0  0  0  0  0
    5.7420    0.6740   31.3530 C   0  0  0  0  0  0  0  0  0  0  0  0
    5.9460    0.4010   27.7710 C   0  0  0  0  0  0  0  0  0  0  0  0
    6.0170   -0.6060   26.8130 C   0  0  0  0  0  0  0  0  0  0  0  0
    7.4220   -3.0680   23.6190 C   0  0  0  0  0  0  0  0  0  0  0  0
    7.7200   -3.2220   22.1610 C   0  0  0  0  0  0  0  0  0  0  0  0
  1  2  1  0
  2  3  2  0
  2  4  1  0
  4  5  1  0
  5  6  1  0
  6  7  1  0
  7  8  1  0
  8  9  2  0
  8 10  1  0
 11 10  1  6
 11 12  1  0
 12 13  1  0
 13 14  1  0
 14 15  1  1
 14 16  1  0
 16 17  2  0
 17 18  1  0
 18 19  2  0
 19 20  1  0
 16 21  1  0
 20 21  2  0
 14 22  1  0
 11 23  1  0
 22 23  1  0
  7 24  1  0
  4 25  1  0
 24 25  1  0
M  END
