piperidine-amides-32415-covalent
     RDKit          3D

 29 33  0  0  0  0  0  0  0  0999 V2000
    7.0010   -3.3630   19.4130 C   0  0  0  0  0  0  0  0  0  0  0  0
    6.3510   -4.2740   20.4030 C   0  0  0  0  0  0  0  0  0  0  0  0
    5.3950   -4.9640   20.0060 O   0  0  0  0  0  0  0  0  0  0  0  0
    6.8380   -4.3690   21.7370 N   0  0  0  0  0  0  0  0  0  0  0  0
    6.6370   -5.5770   22.5220 C   0  0  0  0  0  0  0  0  0  0  0  0
    6.1410   -5.2030   23.9420 C   0  0  0  0  0  0  0  0  0  0  0  0
    6.0220   -3.7210   24.0000 C   0  0  0  0  0  0  0  0  0  0  0  0
    5.3350   -3.0830   25.1780 C   0  0  0  0  0  0  0  0  0  0  0  0
    4.7130   -2.0710   24.8780 O   0  0  0  0  0  0  0  0  0  0  0  0
    5.3240   -3.5370   26.5180 N   0  0  0  0  0  0  0  0  0  0  0  0
    4.1650   -3.5190   27.3680 C   0  0  0  0  0  0  0  0  0  0  0  0
    4.1370   -4.0130   28.6570 C   0  0  0  0  0  0  0  0  0  0  0  0
    5.1150   -4.9140   28.8990 C   0  0  0  0  0  0  0  0  0  0  0  0
    5.0740   -6.0830   29.6640 N   0  0  0  0  0  0  0  0  0  0  0  0
    6.2590   -6.6850   29.6070 C   0  0  0  0  0  0  0  0  0  0  0  0
    7.0740   -5.8150   28.7530 N   0  0  0  0  0  0  0  0  0  0  0  0
    6.3400   -4.6530   28.2810 C   0  0  0  0  0  0  0  0  0  0  0  0
    6.4530   -3.3690   27.3980 C   0  0  2  0  0  0  0  0  0  0  0  0
    6.2360   -2.1760   28.3590 C   0  0  0  0  0  0  0  0  0  0  0  0
    5.0630   -1.5410   28.3700 C   0  0  0  0  0  0  0  0  0  0  0  0
    4.6610   -0.4160   29.1820 C   0  0  0  0  0  0  0  0  0  0  0  0
    5.8410   -0.0260   30.0820 C   0  0  0  0  0  0  0  0  0  0  0  0
    7.1260   -0.4880   30.2740 C   0  0  0  0  0  0  0  0  0  0  0  0
    7.1560   -1.6720   29.2360 C   0  0  0  0  0  0  0  0  0  0  0  0
    7.7630    0.1840   31.1660 O   0  0  0  0  0  0  0  0  0  0  0  0
    6.8130    1.1740   31.6950 C   0  0  0  0  0  0  0  0  0  0  0  0
    5.5850    1.0490   30.9210 O   0  0  0  0  0  0  0  0  0  0  0  0
    7.3620   -3.0790   23.7380 C   0  0  0  0  0  0  0  0  0  0  0  0
    7.6500   -3.2700   22.2900 C   0  0  0  0  0  0  0  0  0  0  0  0
  1  2  1  0
  2  3  2  0
  2  4  1  0
  4  5  1  0
  5  6  1  0
  6  7  1  0
  7  8  1  0
  8  9  2  0
  8 10  1  0
 10 11  1  0
 11 12  1  0
 12 13  1  0
 13 14  1  0
 14 15  1  0
 15 16  2  0
 13 17  2  0
 16 17  1  0
 10 18  1  0
 17 18  1  0
 18 19  1  1
 19 20  2  0
 20 21  1  0
 21 22  2  0
 22 23  1  0
 19 24  1  0
 23 24  2  0
 23 25  1  0
 25 26  1  0
 22 27  1  0
 26 27  1  0
  7 28  1  0
  4 29  1  0
 28 29  1  0
M  END
