piperidine-amides-10459-covalent
     RDKit          3D

 24 25  0  0  0  0  0  0  0  0999 V2000
    7.1340   -3.2790   19.1870 C   0  0  0  0  0  0  0  0  0  0  0  0
    6.3970   -4.0210   20.2130 C   0  0  0  0  0  0  0  0  0  0  0  0
    5.2920   -4.5160   19.8720 O   0  0  0  0  0  0  0  0  0  0  0  0
    6.9490   -4.1990   21.4790 N   0  0  0  0  0  0  0  0  0  0  0  0
    7.8190   -3.2070   22.0660 C   0  0  0  0  0  0  0  0  0  0  0  0
    7.1320   -2.6490   23.2630 C   0  0  0  0  0  0  0  0  0  0  0  0
    6.6840   -3.7330   24.2010 C   0  0  0  0  0  0  0  0  0  0  0  0
    5.9450   -3.0950   25.3010 C   0  0  0  0  0  0  0  0  0  0  0  0
    4.6940   -3.1660   25.3220 O   0  0  0  0  0  0  0  0  0  0  0  0
    6.6210   -2.3850   26.3120 N   0  0  0  0  0  0  0  0  0  0  0  0
    7.5500   -3.0430   27.1950 C   0  0  0  0  0  0  0  0  0  0  0  0
    6.8650   -3.4470   28.4840 C   0  0  0  0  0  0  0  0  0  0  0  0
    5.5100   -3.6890   28.5990 C   0  0  0  0  0  0  0  0  0  0  0  0
    5.0930   -4.9730   28.5050 N   0  0  0  0  0  0  0  0  0  0  0  0
    5.8400   -5.7140   27.7040 C   0  0  0  0  0  0  0  0  0  0  0  0
    5.5910   -5.9250   26.4370 O   0  0  0  0  0  0  0  0  0  0  0  0
    6.8800   -6.2380   28.3980 C   0  0  0  0  0  0  0  0  0  0  0  0
    8.1490   -6.5100   27.9170 O   0  0  0  0  0  0  0  0  0  0  0  0
    6.3420   -6.3600   29.7160 N   0  0  0  0  0  0  0  0  0  0  0  0
    6.0000   -7.7190   30.0520 C   0  0  0  0  0  0  0  0  0  0  0  0
    5.1200   -5.5790   29.7190 C   0  0  0  0  0  0  0  0  0  0  0  0
    4.2800   -5.4960   30.6410 O   0  0  0  0  0  0  0  0  0  0  0  0
    5.7770   -4.7460   23.4890 C   0  0  0  0  0  0  0  0  0  0  0  0
    6.5080   -5.3120   22.2760 C   0  0  0  0  0  0  0  0  0  0  0  0
  1  2  1  0
  2  3  2  0
  2  4  1  0
  4  5  1  0
  5  6  1  0
  6  7  1  0
  7  8  1  0
  8  9  2  0
  8 10  1  0
 10 11  1  0
 11 12  1  0
 12 13  1  0
 13 14  1  0
 14 15  1  0
 15 16  2  0
 15 17  1  0
 17 18  2  0
 17 19  1  0
 19 20  1  0
 14 21  1  0
 19 21  1  0
 21 22  2  0
  7 23  1  0
  4 24  1  0
 23 24  1  0
M  END
