piperidine-amides-25081-covalent
     RDKit          3D

 25 28  0  0  0  0  0  0  0  0999 V2000
    7.1770   -3.2880   19.2080 C   0  0  0  0  0  0  0  0  0  0  0  0
    6.4480   -4.1150   20.1970 C   0  0  0  0  0  0  0  0  0  0  0  0
    5.3330   -4.5390   19.8860 O   0  0  0  0  0  0  0  0  0  0  0  0
    7.0690   -4.4380   21.3920 N   0  0  0  0  0  0  0  0  0  0  0  0
    6.7040   -5.6190   22.1030 C   0  0  0  0  0  0  0  0  0  0  0  0
    5.8260   -5.1980   23.2270 C   0  0  0  0  0  0  0  0  0  0  0  0
    6.5550   -4.1390   24.0480 C   0  0  0  0  0  0  0  0  0  0  0  0
    5.6190   -3.7320   25.0630 C   0  0  0  0  0  0  0  0  0  0  0  0
    4.4840   -3.3500   24.7570 O   0  0  0  0  0  0  0  0  0  0  0  0
    5.9770   -3.7520   26.3760 N   0  0  0  0  0  0  0  0  0  0  0  0
    5.1440   -4.6310   27.1330 C   0  0  0  0  0  0  0  0  0  0  0  0
    5.9580   -4.9780   28.3110 C   0  0  0  0  0  0  0  0  0  0  0  0
    6.7450   -4.0260   28.8080 C   0  0  0  0  0  0  0  0  0  0  0  0
    6.6380   -2.7790   28.3180 C   0  0  0  0  0  0  0  0  0  0  0  0
    6.2500   -2.5830   27.0450 C   0  0  0  0  0  0  0  0  0  0  0  0
    6.0400   -1.3130   26.2260 C   0  0  0  0  0  0  0  0  0  0  0  0
    6.3130   -0.0680   27.0210 C   0  0  0  0  0  0  0  0  0  0  0  0
    6.7280   -0.3120   28.4360 C   0  0  0  0  0  0  0  0  0  0  0  0
    6.9750    0.6550   29.2120 N   0  0  0  0  0  0  0  0  0  0  0  0
    7.3460    0.0960   30.4910 C   0  0  0  0  0  0  0  0  0  0  0  0
    7.7170    0.9110   31.6840 C   0  0  0  0  0  0  0  0  0  0  0  0
    7.2790   -1.2670   30.3590 N   0  0  0  0  0  0  0  0  0  0  0  0
    6.8820   -1.6500   29.0480 C   0  0  0  0  0  0  0  0  0  0  0  0
    6.9440   -2.9280   23.2470 C   0  0  0  0  0  0  0  0  0  0  0  0
    7.7890   -3.4220   22.1330 C   0  0  0  0  0  0  0  0  0  0  0  0
  1  2  1  0
  2  3  2  0
  2  4  1  0
  4  5  1  0
  5  6  1  0
  6  7  1  0
  7  8  1  0
  8  9  2  0
  8 10  1  0
 10 11  1  0
 11 12  1  0
 12 13  1  0
 13 14  1  0
 10 15  1  0
 14 15  2  0
 15 16  1  0
 16 17  2  0
 17 18  1  0
 18 19  1  0
 19 20  1  0
 20 21  1  0
 20 22  2  0
 14 23  1  0
 18 23  2  0
 22 23  1  0
  7 24  1  0
  4 25  1  0
 24 25  1  0
M  END
