piperidine-amides-10789-covalent
     RDKit          3D

 22 24  0  0  0  0  0  0  0  0999 V2000
    7.0880   -3.3460   19.3150 C   0  0  0  0  0  0  0  0  0  0  0  0
    6.4130   -4.1610   20.3210 C   0  0  0  0  0  0  0  0  0  0  0  0
    5.4140   -4.8280   19.9870 O   0  0  0  0  0  0  0  0  0  0  0  0
    6.9170   -4.2360   21.6300 N   0  0  0  0  0  0  0  0  0  0  0  0
    7.7880   -3.2260   22.1820 C   0  0  0  0  0  0  0  0  0  0  0  0
    7.0590   -2.7100   23.3800 C   0  0  0  0  0  0  0  0  0  0  0  0
    6.4760   -3.8220   24.1960 C   0  0  0  0  0  0  0  0  0  0  0  0
    5.6930   -3.3100   25.3550 C   0  0  0  0  0  0  0  0  0  0  0  0
    4.4480   -3.1160   25.2320 O   0  0  0  0  0  0  0  0  0  0  0  0
    6.2530   -3.0290   26.6240 N   0  0  0  0  0  0  0  0  0  0  0  0
    6.6200   -1.6580   27.0930 C   0  0  2  0  0  0  0  0  0  0  0  0
    6.6780   -1.8050   28.5590 C   0  0  0  0  0  0  0  0  0  0  0  0
    6.8470   -0.6000   29.3620 C   0  0  0  0  0  0  0  0  0  0  0  0
    5.9870    0.5630   28.9290 C   0  0  0  0  0  0  0  0  0  0  0  0
    5.8230    0.7170   27.4250 C   0  0  0  0  0  0  0  0  0  0  0  0
    5.6040   -0.6130   26.7880 C   0  0  0  0  0  0  0  0  0  0  0  0
    5.5450   -0.5260   25.3990 C   0  0  0  0  0  0  0  0  0  0  0  0
    4.2580   -0.5790   24.9000 C   0  0  0  0  0  0  0  0  0  0  0  0
    3.3370   -0.8790   26.0110 C   0  0  0  0  0  0  0  0  0  0  0  0
    4.1850   -1.0530   27.2670 C   0  0  0  0  0  0  0  0  0  0  0  0
    5.6380   -4.7470   23.2820 C   0  0  0  0  0  0  0  0  0  0  0  0
    6.3930   -5.2780   22.5020 C   0  0  0  0  0  0  0  0  0  0  0  0
  1  2  1  0
  2  3  2  0
  2  4  1  0
  4  5  1  0
  5  6  1  0
  6  7  1  0
  7  8  1  0
  8  9  2  0
  8 10  1  0
 11 10  1  6
 11 12  1  0
 12 13  1  0
 13 14  1  0
 14 15  1  0
 11 16  1  0
 16 15  1  0
 16 17  1  0
 17 18  1  0
 18 19  1  0
 16 20  1  0
 19 20  1  0
  7 21  1  0
  4 22  1  0
 21 22  1  0
M  END
