piperidine-amides-5370-covalent
     RDKit          3D

 20 20  0  0  0  0  0  0  0  0999 V2000
    7.1240   -3.2940   19.2640 C   0  0  0  0  0  0  0  0  0  0  0  0
    6.3430   -4.0040   20.2780 C   0  0  0  0  0  0  0  0  0  0  0  0
    5.3260   -4.6250   19.9230 O   0  0  0  0  0  0  0  0  0  0  0  0
    6.7530   -4.0350   21.6240 N   0  0  0  0  0  0  0  0  0  0  0  0
    7.7510   -3.1050   22.1390 C   0  0  0  0  0  0  0  0  0  0  0  0
    7.4190   -2.8570   23.5830 C   0  0  0  0  0  0  0  0  0  0  0  0
    6.1000   -3.4600   23.9280 C   0  0  0  0  0  0  0  0  0  0  0  0
    5.6130   -3.0760   25.2810 C   0  0  0  0  0  0  0  0  0  0  0  0
    4.5750   -2.3630   25.3870 O   0  0  0  0  0  0  0  0  0  0  0  0
    6.2270   -3.4600   26.4940 N   0  0  0  0  0  0  0  0  0  0  0  0
    5.8430   -4.7460   27.1080 C   0  0  1  0  0  0  0  0  0  0  0  0
    6.4090   -4.8590   28.4610 C   0  0  0  0  0  0  0  0  0  0  0  0
    6.7470   -6.2470   28.7820 C   0  0  0  0  0  0  0  0  0  0  0  0
    5.8070   -6.9510   29.7290 C   0  0  0  0  0  0  0  0  0  0  0  0
    4.5220   -5.1160   27.3400 C   0  0  0  0  0  0  0  0  0  0  0  0
    3.8740   -5.5340   26.0950 N   0  0  0  0  0  0  0  0  0  0  0  0
    2.8100   -6.4230   26.5070 C   0  0  0  0  0  0  0  0  0  0  0  0
    3.2980   -7.6480   26.8560 C   0  0  0  0  0  0  0  0  0  0  0  0
    6.1270   -4.9580   23.7600 C   0  0  0  0  0  0  0  0  0  0  0  0
    6.6000   -5.2840   22.3540 C   0  0  0  0  0  0  0  0  0  0  0  0
  1  2  1  0
  2  3  2  0
  2  4  1  0
  4  5  1  0
  5  6  1  0
  6  7  1  0
  7  8  1  0
  8  9  2  0
  8 10  1  0
 10 11  1  0
 11 12  1  1
 12 13  1  0
 13 14  1  0
 11 15  1  0
 15 16  1  0
 16 17  1  0
 17 18  1  0
  7 19  1  0
  4 20  1  0
 19 20  1  0
M  END
