piperidine-amides-25581-covalent
     RDKit          3D

 25 27  0  0  0  0  0  0  0  0999 V2000
    7.0090   -3.3200   19.3600 C   0  0  0  0  0  0  0  0  0  0  0  0
    6.3390   -4.1790   20.3710 C   0  0  0  0  0  0  0  0  0  0  0  0
    5.3900   -4.8570   19.9780 O   0  0  0  0  0  0  0  0  0  0  0  0
    6.8000   -4.2310   21.6920 N   0  0  0  0  0  0  0  0  0  0  0  0
    6.7030   -5.4290   22.4750 C   0  0  0  0  0  0  0  0  0  0  0  0
    6.5960   -5.1730   23.9710 C   0  0  0  0  0  0  0  0  0  0  0  0
    6.7600   -3.7080   24.4730 C   0  0  0  0  0  0  0  0  0  0  0  0
    5.6370   -3.4840   25.4470 C   0  0  0  0  0  0  0  0  0  0  0  0
    4.5170   -3.8180   25.0440 O   0  0  0  0  0  0  0  0  0  0  0  0
    5.6490   -2.9120   26.7770 N   0  0  0  0  0  0  0  0  0  0  0  0
    4.4550   -3.1790   27.5450 C   0  0  0  0  0  0  0  0  0  0  0  0
    4.4910   -4.6290   28.0520 C   0  0  0  0  0  0  0  0  0  0  0  0
    5.5050   -4.8200   29.1070 N   0  0  0  0  0  0  0  0  0  0  0  0
    5.5730   -6.2760   29.2850 C   0  0  0  0  0  0  0  0  0  0  0  0
    5.1800   -6.5460   30.5510 C   0  0  0  0  0  0  0  0  0  0  0  0
    4.1680   -5.8040   31.0740 C   0  0  0  0  0  0  0  0  0  0  0  0
    3.5790   -5.9340   32.4710 C   0  0  0  0  0  0  0  0  0  0  0  0
    4.2410   -7.0170   33.2820 C   0  0  0  0  0  0  0  0  0  0  0  0
    5.3630   -7.8390   32.6920 C   0  0  0  0  0  0  0  0  0  0  0  0
    5.7680   -7.5270   31.2990 C   0  0  0  0  0  0  0  0  0  0  0  0
    6.6680   -4.4250   28.4380 C   0  0  0  0  0  0  0  0  0  0  0  0
    6.4550   -2.9980   27.9980 C   0  0  1  0  0  0  0  0  0  0  0  0
    7.2430   -1.8030   28.4180 C   0  0  0  0  0  0  0  0  0  0  0  0
    6.6720   -2.7050   23.3360 C   0  0  0  0  0  0  0  0  0  0  0  0
    7.4860   -3.1210   22.3110 C   0  0  0  0  0  0  0  0  0  0  0  0
  1  2  1  0
  2  3  2  0
  2  4  1  0
  4  5  1  0
  5  6  1  0
  6  7  1  0
  7  8  1  0
  8  9  2  0
  8 10  1  0
 10 11  1  0
 11 12  1  0
 12 13  1  0
 13 14  1  0
 14 15  1  0
 15 16  2  0
 16 17  1  0
 17 18  2  0
 18 19  1  0
 15 20  1  0
 19 20  2  0
 13 21  1  0
 10 22  1  0
 21 22  1  0
 22 23  1  6
  7 24  1  0
  4 25  1  0
 24 25  1  0
M  END
