piperidine-amides-29305-covalent
     RDKit          3D

 27 30  0  0  0  0  0  0  0  0999 V2000
    7.0630   -3.3440   19.3100 C   0  0  0  0  0  0  0  0  0  0  0  0
    6.4220   -4.2090   20.2970 C   0  0  0  0  0  0  0  0  0  0  0  0
    5.3700   -4.7860   19.9660 O   0  0  0  0  0  0  0  0  0  0  0  0
    7.0200   -4.4310   21.5620 N   0  0  0  0  0  0  0  0  0  0  0  0
    7.7280   -3.3500   22.1870 C   0  0  0  0  0  0  0  0  0  0  0  0
    6.9260   -2.8590   23.3480 C   0  0  0  0  0  0  0  0  0  0  0  0
    6.7100   -4.0190   24.3020 C   0  0  0  0  0  0  0  0  0  0  0  0
    5.9380   -3.5200   25.4770 C   0  0  0  0  0  0  0  0  0  0  0  0
    4.7410   -3.8000   25.5100 O   0  0  0  0  0  0  0  0  0  0  0  0
    6.6090   -2.7620   26.4280 N   0  0  0  0  0  0  0  0  0  0  0  0
    7.2420   -3.3920   27.5320 C   0  0  0  0  0  0  0  0  0  0  0  0
    7.4490   -2.4910   28.5790 C   0  0  0  0  0  0  0  0  0  0  0  0
    6.4430   -2.0370   29.4030 C   0  0  0  0  0  0  0  0  0  0  0  0
    6.8560   -1.1600   30.3400 C   0  0  0  0  0  0  0  0  0  0  0  0
    8.2890   -1.1210   29.9960 C   0  0  0  0  0  0  0  0  0  0  0  0
    8.5720   -1.9590   28.9110 O   0  0  0  0  0  0  0  0  0  0  0  0
    6.2910   -1.3550   26.4520 C   0  0  0  0  0  0  0  0  0  0  0  0
    5.7400   -0.6110   25.4330 N   0  0  0  0  0  0  0  0  0  0  0  0
    5.6320    0.7040   25.9990 C   0  0  0  0  0  0  0  0  0  0  0  0
    6.0480    1.0940   27.3960 N   0  0  0  0  0  0  0  0  0  0  0  0
    6.6470    0.3190   28.5240 C   0  0  0  0  0  0  0  0  0  0  0  0
    6.4260    1.5620   28.7390 N   0  0  0  0  0  0  0  0  0  0  0  0
    5.9650    1.7440   27.5960 C   0  0  0  0  0  0  0  0  0  0  0  0
    6.0280    0.4900   26.9460 N   0  0  0  0  0  0  0  0  0  0  0  0
    6.5490   -0.6660   27.6120 C   0  0  0  0  0  0  0  0  0  0  0  0
    5.8730   -5.0510   23.5970 C   0  0  0  0  0  0  0  0  0  0  0  0
    6.4970   -5.5310   22.3210 C   0  0  0  0  0  0  0  0  0  0  0  0
  1  2  1  0
  2  3  2  0
  2  4  1  0
  4  5  1  0
  5  6  1  0
  6  7  1  0
  7  8  1  0
  8  9  2  0
  8 10  1  0
 10 11  1  0
 11 12  1  0
 12 13  2  0
 13 14  1  0
 14 15  2  0
 12 16  1  0
 15 16  1  0
 10 17  1  0
 17 18  2  0
 18 19  1  0
 19 20  2  0
 20 21  1  0
 21 22  1  0
 22 23  2  0
 23 24  1  0
 17 25  1  0
 21 25  2  0
 24 25  1  0
  7 26  1  0
  4 27  1  0
 26 27  1  0
M  END
