piperidine-amides-30468-covalent
     RDKit          3D

 27 29  0  0  0  0  0  0  0  0999 V2000
    7.1010   -3.3330   19.2530 C   0  0  0  0  0  0  0  0  0  0  0  0
    6.4030   -4.1400   20.2500 C   0  0  0  0  0  0  0  0  0  0  0  0
    5.3500   -4.7250   19.9490 O   0  0  0  0  0  0  0  0  0  0  0  0
    6.9520   -4.3070   21.5270 N   0  0  0  0  0  0  0  0  0  0  0  0
    7.7460   -3.2740   22.1450 C   0  0  0  0  0  0  0  0  0  0  0  0
    6.8970   -2.8030   23.2740 C   0  0  0  0  0  0  0  0  0  0  0  0
    6.6040   -3.9480   24.1890 C   0  0  0  0  0  0  0  0  0  0  0  0
    5.9100   -3.4870   25.3920 C   0  0  0  0  0  0  0  0  0  0  0  0
    4.8710   -2.7640   25.3150 O   0  0  0  0  0  0  0  0  0  0  0  0
    6.3720   -3.8550   26.6500 N   0  0  0  0  0  0  0  0  0  0  0  0
    7.0130   -5.1760   26.7500 C   0  0  0  0  0  0  0  0  0  0  0  0
    6.9740   -5.4000   28.1800 C   0  0  0  0  0  0  0  0  0  0  0  0
    6.0900   -4.3870   28.7720 C   0  0  0  0  0  0  0  0  0  0  0  0
    5.8470   -3.2330   27.8240 C   0  0  1  0  0  0  0  0  0  0  0  0
    6.5570   -1.9920   28.3330 C   0  0  0  0  0  0  0  0  0  0  0  0
    4.3230   -2.9980   27.8150 C   0  0  0  0  0  0  0  0  0  0  0  0
    3.8760   -2.6380   29.0650 C   0  0  0  0  0  0  0  0  0  0  0  0
    3.9990   -1.3260   29.5300 C   0  0  0  0  0  0  0  0  0  0  0  0
    3.5310   -0.8860   30.8750 C   0  0  0  0  0  0  0  0  0  0  0  0
    2.8930   -1.9220   31.7680 C   0  0  0  0  0  0  0  0  0  0  0  0
    2.3530   -1.6970   33.1610 C   0  0  0  0  0  0  0  0  0  0  0  0
    1.2770   -2.4070   33.5730 F   0  0  0  0  0  0  0  0  0  0  0  0
    3.2390   -1.9050   34.1260 F   0  0  0  0  0  0  0  0  0  0  0  0
    2.7670   -3.2070   31.3180 C   0  0  0  0  0  0  0  0  0  0  0  0
    3.2630   -3.5880   29.9450 C   0  0  0  0  0  0  0  0  0  0  0  0
    5.8700   -5.0810   23.4990 C   0  0  0  0  0  0  0  0  0  0  0  0
    6.6630   -5.5030   22.2660 C   0  0  0  0  0  0  0  0  0  0  0  0
  1  2  1  0
  2  3  2  0
  2  4  1  0
  4  5  1  0
  5  6  1  0
  6  7  1  0
  7  8  1  0
  8  9  2  0
  8 10  1  0
 10 11  1  0
 11 12  1  0
 12 13  1  0
 10 14  1  0
 13 14  1  0
 14 15  1  1
 14 16  1  0
 16 17  1  0
 17 18  2  0
 18 19  1  0
 19 20  2  0
 20 21  1  0
 21 22  1  0
 21 23  1  0
 20 24  1  0
 17 25  1  0
 24 25  2  0
  7 26  1  0
  4 27  1  0
 26 27  1  0
M  END
