piperidine-amides-3798-covalent
     RDKit          3D

 23 25  0  0  0  0  0  0  0  0999 V2000
    7.0680   -3.3260   19.2560 C   0  0  0  0  0  0  0  0  0  0  0  0
    6.3830   -4.1240   20.2910 C   0  0  0  0  0  0  0  0  0  0  0  0
    5.3340   -4.7160   19.9450 O   0  0  0  0  0  0  0  0  0  0  0  0
    6.9060   -4.2700   21.6000 N   0  0  0  0  0  0  0  0  0  0  0  0
    7.7000   -3.2270   22.1600 C   0  0  0  0  0  0  0  0  0  0  0  0
    7.4720   -3.0510   23.5780 C   0  0  0  0  0  0  0  0  0  0  0  0
    6.2670   -3.7610   24.0240 C   0  0  0  0  0  0  0  0  0  0  0  0
    5.8770   -3.4570   25.4330 C   0  0  0  0  0  0  0  0  0  0  0  0
    4.9280   -4.0830   25.9370 O   0  0  0  0  0  0  0  0  0  0  0  0
    6.5120   -2.4590   26.1940 N   0  0  0  0  0  0  0  0  0  0  0  0
    5.8510   -1.3160   26.6810 C   0  0  1  0  0  0  0  0  0  0  0  0
    5.9390   -1.0270   28.1010 C   0  0  0  0  0  0  0  0  0  0  0  0
    5.3870   -2.1360   28.8480 C   0  0  0  0  0  0  0  0  0  0  0  0
    5.3570   -2.0330   30.1430 C   0  0  0  0  0  0  0  0  0  0  0  0
    5.9120   -0.7540   30.8150 C   0  0  0  0  0  0  0  0  0  0  0  0
    6.5460    0.5300   30.1910 C   0  0  0  0  0  0  0  0  0  0  0  0
    6.4700    0.1860   28.6640 C   0  0  0  0  0  0  0  0  0  0  0  0
    6.9160    1.0830   27.7380 O   0  0  0  0  0  0  0  0  0  0  0  0
    6.1500    1.2130   26.5600 C   0  0  0  0  0  0  0  0  0  0  0  0
    5.8110   -0.1420   25.9570 C   0  0  1  0  0  0  0  0  0  0  0  0
    6.5950   -0.3270   24.8580 F   0  0  0  0  0  0  0  0  0  0  0  0
    6.4030   -5.2720   23.7970 C   0  0  0  0  0  0  0  0  0  0  0  0
    6.5580   -5.5090   22.3290 C   0  0  0  0  0  0  0  0  0  0  0  0
  1  2  1  0
  2  3  2  0
  2  4  1  0
  4  5  1  0
  5  6  1  0
  6  7  1  0
  7  8  1  0
  8  9  2  0
  8 10  1  0
 11 10  1  6
 11 12  1  0
 12 13  2  0
 13 14  1  0
 14 15  2  0
 15 16  1  0
 12 17  1  0
 16 17  2  0
 17 18  1  0
 18 19  1  0
 11 20  1  0
 19 20  1  0
 20 21  1  6
  7 22  1  0
  4 23  1  0
 22 23  1  0
M  END
