piperidine-amides-26070-covalent
     RDKit          3D

 25 26  0  0  0  0  0  0  0  0999 V2000
    7.1520   -3.2970   19.2100 C   0  0  0  0  0  0  0  0  0  0  0  0
    6.4300   -4.0570   20.2240 C   0  0  0  0  0  0  0  0  0  0  0  0
    5.3610   -4.6190   19.9230 O   0  0  0  0  0  0  0  0  0  0  0  0
    6.9690   -4.2050   21.5110 N   0  0  0  0  0  0  0  0  0  0  0  0
    7.7590   -3.1750   22.1270 C   0  0  0  0  0  0  0  0  0  0  0  0
    6.9320   -2.7650   23.3040 C   0  0  0  0  0  0  0  0  0  0  0  0
    6.6740   -3.8970   24.2590 C   0  0  0  0  0  0  0  0  0  0  0  0
    5.8340   -3.4000   25.3610 C   0  0  0  0  0  0  0  0  0  0  0  0
    4.6310   -3.0910   25.1010 O   0  0  0  0  0  0  0  0  0  0  0  0
    6.2070   -3.2150   26.7070 N   0  0  0  0  0  0  0  0  0  0  0  0
    5.5140   -1.9740   27.1610 C   0  0  0  0  0  0  0  0  0  0  0  0
    6.1570   -1.1690   28.2170 C   0  0  0  0  0  0  0  0  0  0  0  0
    7.2390   -1.6800   29.0460 C   0  0  0  0  0  0  0  0  0  0  0  0
    7.8240   -0.7800   30.0980 C   0  0  0  0  0  0  0  0  0  0  0  0
    7.2960    0.6260   30.2970 C   0  0  0  0  0  0  0  0  0  0  0  0
    6.1970    0.9550   29.3610 C   0  0  0  0  0  0  0  0  0  0  0  0
    5.6960    0.1060   28.4110 C   0  0  0  0  0  0  0  0  0  0  0  0
    6.1150   -4.3650   27.5760 C   0  0  1  0  0  0  0  0  0  0  0  0
    5.3980   -5.5190   26.9210 C   0  0  0  0  0  0  0  0  0  0  0  0
    7.3570   -5.0360   28.0140 C   0  0  0  0  0  0  0  0  0  0  0  0
    8.1180   -5.7030   28.7680 O   0  0  0  0  0  0  0  0  0  0  0  0
    6.5140   -5.2850   29.0790 O   0  0  0  0  0  0  0  0  0  0  0  0
    6.1310   -6.6200   29.3550 C   0  0  0  0  0  0  0  0  0  0  0  0
    5.9810   -5.0470   23.5670 C   0  0  0  0  0  0  0  0  0  0  0  0
    6.5860   -5.3550   22.2510 C   0  0  0  0  0  0  0  0  0  0  0  0
  1  2  1  0
  2  3  2  0
  2  4  1  0
  4  5  1  0
  5  6  1  0
  6  7  1  0
  7  8  1  0
  8  9  2  0
  8 10  1  0
 10 11  1  0
 11 12  1  0
 12 13  2  0
 13 14  1  0
 14 15  2  0
 15 16  1  0
 12 17  1  0
 16 17  2  0
 10 18  1  0
 18 19  1  6
 18 20  1  0
 20 21  2  0
 20 22  1  0
 22 23  1  0
  7 24  1  0
  4 25  1  0
 24 25  1  0
M  END
