piperidine-amides-32173-covalent
     RDKit          3D

 28 30  0  0  0  0  0  0  0  0999 V2000
    7.0430   -3.3300   19.3550 C   0  0  0  0  0  0  0  0  0  0  0  0
    6.3580   -4.2110   20.3440 C   0  0  0  0  0  0  0  0  0  0  0  0
    5.3610   -4.8550   19.9790 O   0  0  0  0  0  0  0  0  0  0  0  0
    6.8740   -4.3330   21.6560 N   0  0  0  0  0  0  0  0  0  0  0  0
    6.6960   -5.5590   22.4060 C   0  0  0  0  0  0  0  0  0  0  0  0
    6.2810   -5.2370   23.8600 C   0  0  0  0  0  0  0  0  0  0  0  0
    6.2300   -3.7520   24.0260 C   0  0  0  0  0  0  0  0  0  0  0  0
    5.7720   -3.2330   25.3460 C   0  0  0  0  0  0  0  0  0  0  0  0
    5.1140   -2.1930   25.2880 O   0  0  0  0  0  0  0  0  0  0  0  0
    6.0160   -3.8780   26.5650 N   0  0  0  0  0  0  0  0  0  0  0  0
    5.4620   -5.1450   26.8110 C   0  0  0  0  0  0  0  0  0  0  0  0
    5.5110   -5.7540   28.0260 C   0  0  0  0  0  0  0  0  0  0  0  0
    6.4560   -5.2900   28.8940 C   0  0  0  0  0  0  0  0  0  0  0  0
    6.7060   -3.9640   28.7670 C   0  0  0  0  0  0  0  0  0  0  0  0
    6.0540   -3.0880   27.7570 C   0  0  1  0  0  0  0  0  0  0  0  0
    6.7120   -1.7290   27.6110 C   0  0  0  0  0  0  0  0  0  0  0  0
    5.7400   -0.6540   27.3820 C   0  0  0  0  0  0  0  0  0  0  0  0
    6.3610    0.1040   28.2810 N   0  0  0  0  0  0  0  0  0  0  0  0
    5.5310    0.7510   29.1220 C   0  0  0  0  0  0  0  0  0  0  0  0
    4.2430    0.3460   29.3990 O   0  0  0  0  0  0  0  0  0  0  0  0
    6.0320    1.8890   29.7320 O   0  0  0  0  0  0  0  0  0  0  0  0
    6.5950    3.0190   29.0990 C   0  0  0  0  0  0  0  0  0  0  0  0
    6.6350    2.7910   27.5960 C   0  0  0  0  0  0  0  0  0  0  0  0
    5.9950    4.3440   29.4770 C   0  0  0  0  0  0  0  0  0  0  0  0
    8.0940    3.1880   29.4780 C   0  0  0  0  0  0  0  0  0  0  0  0
    7.1880   -1.0670   28.7490 C   0  0  0  0  0  0  0  0  0  0  0  0
    7.5460   -3.1320   23.6560 C   0  0  0  0  0  0  0  0  0  0  0  0
    7.7220   -3.2570   22.1920 C   0  0  0  0  0  0  0  0  0  0  0  0
  1  2  1  0
  2  3  2  0
  2  4  1  0
  4  5  1  0
  5  6  1  0
  6  7  1  0
  7  8  1  0
  8  9  2  0
  8 10  1  0
 10 11  1  0
 11 12  1  0
 12 13  1  0
 13 14  1  0
 10 15  1  0
 14 15  1  0
 15 16  1  6
 16 17  1  0
 17 18  1  0
 18 19  1  0
 19 20  2  0
 19 21  1  0
 22 21  1  0
 22 23  1  0
 22 24  1  0
 22 25  1  0
 16 26  1  0
 18 26  1  0
  7 27  1  0
  4 28  1  0
 27 28  1  0
M  END
