piperidine-amides-1872-covalent
     RDKit          3D

 17 17  0  0  0  0  0  0  0  0999 V2000
    7.0930   -3.2550   19.1760 C   0  0  0  0  0  0  0  0  0  0  0  0
    6.3320   -4.0100   20.2070 C   0  0  0  0  0  0  0  0  0  0  0  0
    5.2640   -4.5050   19.8630 O   0  0  0  0  0  0  0  0  0  0  0  0
    6.8520   -4.1890   21.4920 N   0  0  0  0  0  0  0  0  0  0  0  0
    6.4580   -5.3150   22.2890 C   0  0  0  0  0  0  0  0  0  0  0  0
    5.7060   -4.8170   23.4900 C   0  0  0  0  0  0  0  0  0  0  0  0
    6.5860   -3.8400   24.2690 C   0  0  0  0  0  0  0  0  0  0  0  0
    5.8540   -3.3060   25.4390 C   0  0  0  0  0  0  0  0  0  0  0  0
    4.6130   -3.2790   25.4240 O   0  0  0  0  0  0  0  0  0  0  0  0
    6.5550   -2.8100   26.5620 N   0  0  0  0  0  0  0  0  0  0  0  0
    6.3100   -3.3450   27.8890 C   0  0  0  0  0  0  0  0  0  0  0  0
    5.1810   -4.3360   27.7990 C   0  0  0  0  0  0  0  0  0  0  0  0
    4.7760   -5.6330   27.9680 C   0  0  0  0  0  0  0  0  0  0  0  0
    5.6920   -5.5960   28.1950 C   0  0  0  0  0  0  0  0  0  0  0  0
    5.8910   -6.5300   27.2360 C   0  0  0  0  0  0  0  0  0  0  0  0
    7.0110   -2.6840   23.3840 C   0  0  0  0  0  0  0  0  0  0  0  0
    7.6080   -3.1450   22.1040 C   0  0  0  0  0  0  0  0  0  0  0  0
  1  2  1  0
  2  3  2  0
  2  4  1  0
  4  5  1  0
  5  6  1  0
  6  7  1  0
  7  8  1  0
  8  9  2  0
  8 10  1  0
 10 11  1  0
 11 12  1  0
 12 13  2  3
 12 14  1  0
 14 15  1  0
  7 16  1  0
  4 17  1  0
 16 17  1  0
M  END
