piperidine-amides-3163-covalent
     RDKit          3D

 22 24  0  0  0  0  0  0  0  0999 V2000
    7.0770   -3.3310   19.3180 C   0  0  0  0  0  0  0  0  0  0  0  0
    6.3780   -4.1640   20.2910 C   0  0  0  0  0  0  0  0  0  0  0  0
    5.3680   -4.7870   19.9650 O   0  0  0  0  0  0  0  0  0  0  0  0
    6.9030   -4.2920   21.6210 N   0  0  0  0  0  0  0  0  0  0  0  0
    7.7080   -3.2340   22.1720 C   0  0  0  0  0  0  0  0  0  0  0  0
    7.0500   -2.6670   23.3870 C   0  0  0  0  0  0  0  0  0  0  0  0
    6.5280   -3.8310   24.2070 C   0  0  0  0  0  0  0  0  0  0  0  0
    5.7660   -3.2670   25.3520 C   0  0  0  0  0  0  0  0  0  0  0  0
    4.5580   -2.9690   25.2730 O   0  0  0  0  0  0  0  0  0  0  0  0
    6.4430   -3.0790   26.5760 N   0  0  0  0  0  0  0  0  0  0  0  0
    6.4250   -1.7820   27.2200 C   0  0  0  0  0  0  0  0  0  0  0  0
    7.0230   -1.5630   28.5830 C   0  0  0  0  0  0  0  0  0  0  0  0
    7.0010   -0.3300   29.2100 C   0  0  0  0  0  0  0  0  0  0  0  0
    6.4070    0.7840   28.5830 C   0  0  0  0  0  0  0  0  0  0  0  0
    5.8400    0.6510   27.3220 C   0  0  0  0  0  0  0  0  0  0  0  0
    5.7990   -0.5830   26.5610 C   0  0  0  0  0  0  0  0  0  0  0  0
    5.2420    1.6410   26.6150 C   0  0  0  0  0  0  0  0  0  0  0  0
    5.1440    2.6450   27.4190 O   0  0  0  0  0  0  0  0  0  0  0  0
    5.5240    3.0370   28.7240 C   0  0  0  0  0  0  0  0  0  0  0  0
    6.3790    2.0300   29.2120 C   0  0  0  0  0  0  0  0  0  0  0  0
    5.7630   -4.8460   23.4970 C   0  0  0  0  0  0  0  0  0  0  0  0
    6.5400   -5.3840   22.4850 C   0  0  0  0  0  0  0  0  0  0  0  0
  1  2  1  0
  2  3  2  0
  2  4  1  0
  4  5  1  0
  5  6  1  0
  6  7  1  0
  7  8  1  0
  8  9  2  0
  8 10  1  0
 10 11  1  0
 11 12  2  0
 12 13  1  0
 13 14  2  0
 14 15  1  0
 11 16  1  0
 15 16  2  0
 15 17  1  0
 17 18  1  0
 18 19  1  0
 14 20  1  0
 19 20  1  0
  7 21  1  0
  4 22  1  0
 21 22  1  0
M  END
