piperidine-amides-19097-covalent
     RDKit          3D

 20 21  0  0  0  0  0  0  0  0999 V2000
    7.0990   -3.4020   19.5150 C   0  0  0  0  0  0  0  0  0  0  0  0
    6.3860   -4.2450   20.4430 C   0  0  0  0  0  0  0  0  0  0  0  0
    5.4200   -4.9460   20.0020 O   0  0  0  0  0  0  0  0  0  0  0  0
    6.7560   -4.3250   21.8000 N   0  0  0  0  0  0  0  0  0  0  0  0
    6.5330   -5.5690   22.5590 C   0  0  0  0  0  0  0  0  0  0  0  0
    5.5050   -5.0150   23.6200 C   0  0  0  0  0  0  0  0  0  0  0  0
    6.3100   -4.1740   24.5890 C   0  0  0  0  0  0  0  0  0  0  0  0
    5.4020   -3.1110   25.3740 C   0  0  0  0  0  0  0  0  0  0  0  0
    4.8880   -2.4040   24.5240 O   0  0  0  0  0  0  0  0  0  0  0  0
    5.3560   -3.1870   26.6880 N   0  0  0  0  0  0  0  0  0  0  0  0
    4.9320   -2.9180   27.9730 C   0  0  0  0  0  0  0  0  0  0  0  0
    4.1460   -3.5950   28.8580 C   0  0  0  0  0  0  0  0  0  0  0  0
    4.3760   -5.2270   28.7490 S   0  0  0  0  0  0  0  0  0  0  0  0
    4.4970   -5.8200   30.0910 O   0  0  0  0  0  0  0  0  0  0  0  0
    5.8440   -5.2730   27.8930 C   0  0  0  0  0  0  0  0  0  0  0  0
    6.9720   -5.7090   28.7230 C   0  0  0  0  0  0  0  0  0  0  0  0
    5.5990   -6.1080   26.6900 C   0  0  0  0  0  0  0  0  0  0  0  0
    6.3180   -3.8610   27.6090 C   0  0  0  0  0  0  0  0  0  0  0  0
    7.5530   -3.5490   23.9380 C   0  0  0  0  0  0  0  0  0  0  0  0
    7.2780   -3.1490   22.4790 C   0  0  0  0  0  0  0  0  0  0  0  0
  1  2  1  0
  2  3  2  0
  2  4  1  0
  4  5  1  0
  5  6  1  0
  6  7  1  0
  7  8  1  0
  8  9  2  0
  8 10  1  0
 10 11  1  0
 11 12  1  0
 13 12  1  1
 13 14  2  0
 13 15  1  0
 15 16  1  0
 15 17  1  0
 10 18  1  0
 15 18  1  0
  7 19  1  0
  4 20  1  0
 19 20  1  0
M  END
