piperidine-amides-25738-covalent
     RDKit          3D

 25 27  0  0  0  0  0  0  0  0999 V2000
    7.0180   -3.3640   19.3810 C   0  0  0  0  0  0  0  0  0  0  0  0
    6.3720   -4.2470   20.3890 C   0  0  0  0  0  0  0  0  0  0  0  0
    5.4040   -4.8990   19.9970 O   0  0  0  0  0  0  0  0  0  0  0  0
    6.8860   -4.3470   21.6960 N   0  0  0  0  0  0  0  0  0  0  0  0
    6.7330   -5.5610   22.4740 C   0  0  0  0  0  0  0  0  0  0  0  0
    6.1260   -5.2180   23.8090 C   0  0  0  0  0  0  0  0  0  0  0  0
    6.0560   -3.7010   23.8950 C   0  0  0  0  0  0  0  0  0  0  0  0
    5.5260   -3.2020   25.1930 C   0  0  0  0  0  0  0  0  0  0  0  0
    4.7870   -2.2150   25.1720 O   0  0  0  0  0  0  0  0  0  0  0  0
    5.7810   -3.7820   26.4470 N   0  0  0  0  0  0  0  0  0  0  0  0
    6.4220   -2.9300   27.4260 C   0  0  0  0  0  0  0  0  0  0  0  0
    6.6380   -3.9730   28.4850 C   0  0  1  0  0  0  0  0  0  0  0  0
    5.7370   -4.4390   29.3870 C   0  0  0  0  0  0  0  0  0  0  0  0
    5.7680   -5.0200   28.2150 C   0  0  0  0  0  0  0  0  0  0  0  0
    4.9490   -4.6850   27.1760 C   0  0  2  0  0  0  0  0  0  0  0  0
    4.1140   -5.6590   26.3620 C   0  0  0  0  0  0  0  0  0  0  0  0
    3.4700   -4.9740   25.2100 C   0  0  0  0  0  0  0  0  0  0  0  0
    2.5930   -5.8580   24.3340 C   0  0  0  0  0  0  0  0  0  0  0  0
    2.4350   -7.3270   24.6820 C   0  0  0  0  0  0  0  0  0  0  0  0
    1.6020   -8.0520   23.8190 O   0  0  0  0  0  0  0  0  0  0  0  0
    1.8720   -7.8900   22.4900 C   0  0  0  0  0  0  0  0  0  0  0  0
    3.1390   -7.9140   25.8780 C   0  0  0  0  0  0  0  0  0  0  0  0
    4.0060   -7.1120   26.7660 C   0  0  0  0  0  0  0  0  0  0  0  0
    7.4150   -3.0940   23.6000 C   0  0  0  0  0  0  0  0  0  0  0  0
    7.7040   -3.2690   22.2620 C   0  0  0  0  0  0  0  0  0  0  0  0
  1  2  1  0
  2  3  2  0
  2  4  1  0
  4  5  1  0
  5  6  1  0
  6  7  1  0
  7  8  1  0
  8  9  2  0
  8 10  1  0
 10 11  1  0
 11 12  1  0
 12 13  1  1
 12 14  1  0
 10 15  1  0
 14 15  1  0
 15 16  1  6
 16 17  2  0
 17 18  1  0
 18 19  2  0
 19 20  1  0
 20 21  1  0
 19 22  1  0
 16 23  1  0
 22 23  2  0
  7 24  1  0
  4 25  1  0
 24 25  1  0
M  END
