piperidine-amides-24499-covalent
     RDKit          3D

 24 25  0  0  0  0  0  0  0  0999 V2000
    7.0980   -3.2830   19.3100 C   0  0  0  0  0  0  0  0  0  0  0  0
    6.3880   -4.1020   20.3040 C   0  0  0  0  0  0  0  0  0  0  0  0
    5.3780   -4.7630   19.9660 O   0  0  0  0  0  0  0  0  0  0  0  0
    6.8650   -4.1840   21.6250 N   0  0  0  0  0  0  0  0  0  0  0  0
    7.6880   -3.1000   22.1400 C   0  0  0  0  0  0  0  0  0  0  0  0
    7.4780   -3.0220   23.6620 C   0  0  0  0  0  0  0  0  0  0  0  0
    6.0950   -3.5830   23.9030 C   0  0  0  0  0  0  0  0  0  0  0  0
    5.5820   -3.2850   25.2620 C   0  0  0  0  0  0  0  0  0  0  0  0
    4.3440   -3.3330   25.4240 O   0  0  0  0  0  0  0  0  0  0  0  0
    6.4330   -2.9430   26.3370 N   0  0  0  0  0  0  0  0  0  0  0  0
    6.9230   -1.5950   26.3830 C   0  0  0  0  0  0  0  0  0  0  0  0
    6.1730   -3.5800   27.6160 C   0  0  0  0  0  0  0  0  0  0  0  0
    5.8440   -4.8790   27.3600 C   0  0  0  0  0  0  0  0  0  0  0  0
    4.5460   -5.2790   27.5600 C   0  0  0  0  0  0  0  0  0  0  0  0
    3.9270   -4.9980   28.7680 O   0  0  0  0  0  0  0  0  0  0  0  0
    4.3050   -5.7290   29.9140 C   0  0  0  0  0  0  0  0  0  0  0  0
    5.2200   -6.6380   29.6320 C   0  0  0  0  0  0  0  0  0  0  0  0
    5.9180   -7.6290   30.4860 C   0  0  0  0  0  0  0  0  0  0  0  0
    5.2170   -7.2420   31.8250 C   0  0  0  0  0  0  0  0  0  0  0  0
    5.6980   -8.0320   32.8120 F   0  0  0  0  0  0  0  0  0  0  0  0
    4.1570   -6.2480   32.3580 C   0  0  0  0  0  0  0  0  0  0  0  0
    3.8010   -5.5270   31.1380 C   0  0  0  0  0  0  0  0  0  0  0  0
    6.1490   -5.0590   23.6720 C   0  0  0  0  0  0  0  0  0  0  0  0
    6.5520   -5.3430   22.3980 C   0  0  0  0  0  0  0  0  0  0  0  0
  1  2  1  0
  2  3  2  0
  2  4  1  0
  4  5  1  0
  5  6  1  0
  6  7  1  0
  7  8  1  0
  8  9  2  0
  8 10  1  0
 10 11  1  0
 10 12  1  0
 12 13  1  0
 13 14  1  0
 14 15  1  0
 15 16  1  0
 16 17  2  0
 17 18  1  0
 18 19  2  0
 19 20  1  0
 19 21  1  0
 16 22  1  0
 21 22  2  0
  7 23  1  0
  4 24  1  0
 23 24  1  0
M  END
