piperidine-amides-30784-covalent
     RDKit          3D

 27 29  0  0  0  0  0  0  0  0999 V2000
    7.0670   -3.3960   19.3850 C   0  0  0  0  0  0  0  0  0  0  0  0
    6.3760   -4.2180   20.3720 C   0  0  0  0  0  0  0  0  0  0  0  0
    5.3980   -4.8960   20.0020 O   0  0  0  0  0  0  0  0  0  0  0  0
    6.8370   -4.2840   21.7020 N   0  0  0  0  0  0  0  0  0  0  0  0
    7.6810   -3.2250   22.2380 C   0  0  0  0  0  0  0  0  0  0  0  0
    7.3970   -3.1410   23.7140 C   0  0  0  0  0  0  0  0  0  0  0  0
    6.0440   -3.7030   24.0280 C   0  0  0  0  0  0  0  0  0  0  0  0
    5.4300   -3.1900   25.2920 C   0  0  0  0  0  0  0  0  0  0  0  0
    4.8930   -2.0510   25.2800 O   0  0  0  0  0  0  0  0  0  0  0  0
    5.3540   -3.8570   26.5370 N   0  0  0  0  0  0  0  0  0  0  0  0
    4.0490   -4.1250   27.1460 C   0  0  0  0  0  0  0  0  0  0  0  0
    4.0840   -5.4440   27.8470 C   0  0  0  0  0  0  0  0  0  0  0  0
    5.1510   -5.5120   28.6330 N   0  0  0  0  0  0  0  0  0  0  0  0
    5.1160   -5.2690   29.9930 C   0  0  1  0  0  0  0  0  0  0  0  0
    4.0990   -4.1730   30.2010 C   0  0  0  0  0  0  0  0  0  0  0  0
    4.8780   -6.3780   30.9850 C   0  0  0  0  0  0  0  0  0  0  0  0
    5.8960   -6.9590   31.7960 O   0  0  0  0  0  0  0  0  0  0  0  0
    3.5800   -6.7200   31.0290 N   0  0  0  0  0  0  0  0  0  0  0  0
    2.9030   -6.4300   32.1540 C   0  0  0  0  0  0  0  0  0  0  0  0
    1.5670   -6.3970   31.8270 C   0  0  0  0  0  0  0  0  0  0  0  0
    0.9850   -7.4370   31.4880 O   0  0  0  0  0  0  0  0  0  0  0  0
    1.7750   -8.2780   30.7380 C   0  0  0  0  0  0  0  0  0  0  0  0
    3.0480   -7.7080   30.1540 C   0  0  0  0  0  0  0  0  0  0  0  0
    6.3730   -4.8770   28.2350 C   0  0  0  0  0  0  0  0  0  0  0  0
    6.3550   -3.5740   27.4820 C   0  0  0  0  0  0  0  0  0  0  0  0
    6.1080   -5.1800   23.8250 C   0  0  0  0  0  0  0  0  0  0  0  0
    6.5510   -5.4870   22.4370 C   0  0  0  0  0  0  0  0  0  0  0  0
  1  2  1  0
  2  3  2  0
  2  4  1  0
  4  5  1  0
  5  6  1  0
  6  7  1  0
  7  8  1  0
  8  9  2  0
  8 10  1  0
 10 11  1  0
 11 12  1  0
 12 13  1  0
 13 14  1  0
 14 15  1  6
 14 16  1  0
 16 17  2  0
 16 18  1  0
 18 19  1  0
 19 20  1  0
 20 21  1  0
 21 22  1  0
 18 23  1  0
 22 23  1  0
 13 24  1  0
 10 25  1  0
 24 25  1  0
  7 26  1  0
  4 27  1  0
 26 27  1  0
M  END
