piperidine-amides-33376-covalent
     RDKit          3D

 25 27  0  0  0  0  0  0  0  0999 V2000
    7.1060   -3.3630   19.3610 C   0  0  0  0  0  0  0  0  0  0  0  0
    6.4750   -4.2250   20.3700 C   0  0  0  0  0  0  0  0  0  0  0  0
    5.4430   -4.8500   20.0000 O   0  0  0  0  0  0  0  0  0  0  0  0
    7.0520   -4.3730   21.6630 N   0  0  0  0  0  0  0  0  0  0  0  0
    6.6510   -5.4840   22.4740 C   0  0  0  0  0  0  0  0  0  0  0  0
    6.0280   -5.0370   23.7030 C   0  0  0  0  0  0  0  0  0  0  0  0
    6.0720   -3.5740   23.7410 C   0  0  0  0  0  0  0  0  0  0  0  0
    5.3200   -2.9230   24.8530 C   0  0  0  0  0  0  0  0  0  0  0  0
    4.3460   -2.2220   24.5450 O   0  0  0  0  0  0  0  0  0  0  0  0
    5.5820   -3.0350   26.2180 N   0  0  0  0  0  0  0  0  0  0  0  0
    5.9310   -1.8640   26.9660 C   0  0  0  0  0  0  0  0  0  0  0  0
    5.8070   -0.5150   26.5120 C   0  0  0  0  0  0  0  0  0  0  0  0
    6.1910    0.6890   27.3880 C   0  0  0  0  0  0  0  0  0  0  0  0
    6.6900    0.4330   28.6840 C   0  0  0  0  0  0  0  0  0  0  0  0
    6.8510   -1.0290   29.2200 C   0  0  0  0  0  0  0  0  0  0  0  0
    6.4380   -2.1210   28.2860 C   0  0  0  0  0  0  0  0  0  0  0  0
    6.5280   -3.9580   28.7680 Br  0  0  0  0  0  0  0  0  0  0  0  0
    4.5960   -3.9230   26.8190 C   0  0  0  0  0  0  0  0  0  0  0  0
    3.9980   -3.2450   28.0340 C   0  0  0  0  0  0  0  0  0  0  0  0
    2.7990   -4.1090   28.3020 C   0  0  0  0  0  0  0  0  0  0  0  0
    2.9130   -5.2930   27.9430 O   0  0  0  0  0  0  0  0  0  0  0  0
    4.2220   -5.8240   28.0410 C   0  0  0  0  0  0  0  0  0  0  0  0
    5.0830   -5.3620   26.8940 C   0  0  0  0  0  0  0  0  0  0  0  0
    7.4450   -3.0480   23.5490 C   0  0  0  0  0  0  0  0  0  0  0  0
    7.8110   -3.2610   22.2330 C   0  0  0  0  0  0  0  0  0  0  0  0
  1  2  1  0
  2  3  2  0
  2  4  1  0
  4  5  1  0
  5  6  1  0
  6  7  1  0
  7  8  1  0
  8  9  2  0
  8 10  1  0
 10 11  1  0
 11 12  2  0
 12 13  1  0
 13 14  2  0
 14 15  1  0
 11 16  1  0
 15 16  2  0
 16 17  1  0
 10 18  1  0
 18 19  1  0
 19 20  1  0
 20 21  1  0
 21 22  1  0
 18 23  1  0
 22 23  1  0
  7 24  1  0
  4 25  1  0
 24 25  1  0
M  END
