piperidine-amides-5102-covalent
     RDKit          3D

 22 24  0  0  0  0  0  0  0  0999 V2000
    7.0470   -3.3790   19.3320 C   0  0  0  0  0  0  0  0  0  0  0  0
    6.3690   -4.1960   20.3630 C   0  0  0  0  0  0  0  0  0  0  0  0
    5.3610   -4.8220   19.9790 O   0  0  0  0  0  0  0  0  0  0  0  0
    6.8670   -4.2970   21.6790 N   0  0  0  0  0  0  0  0  0  0  0  0
    7.6470   -3.2480   22.2650 C   0  0  0  0  0  0  0  0  0  0  0  0
    7.2660   -2.9420   23.6470 C   0  0  0  0  0  0  0  0  0  0  0  0
    6.0240   -3.6320   24.0490 C   0  0  0  0  0  0  0  0  0  0  0  0
    5.5400   -3.2490   25.4100 C   0  0  0  0  0  0  0  0  0  0  0  0
    4.3080   -3.2210   25.5690 O   0  0  0  0  0  0  0  0  0  0  0  0
    6.3800   -2.9290   26.4950 N   0  0  0  0  0  0  0  0  0  0  0  0
    6.7570   -1.5330   26.8500 C   0  0  1  0  0  0  0  0  0  0  0  0
    5.8450   -0.4860   26.5220 C   0  0  0  0  0  0  0  0  0  0  0  0
    5.8610    0.2950   27.7290 C   0  0  0  0  0  0  0  0  0  0  0  0
    5.2050    1.5420   27.9360 C   0  0  0  0  0  0  0  0  0  0  0  0
    5.3300    2.1950   29.2160 C   0  0  0  0  0  0  0  0  0  0  0  0
    6.1060    1.4480   30.0440 C   0  0  0  0  0  0  0  0  0  0  0  0
    5.8550    1.0490   28.8200 C   0  0  0  0  0  0  0  0  0  0  0  0
    5.3210    2.1410   29.0880 O   0  0  0  0  0  0  0  0  0  0  0  0
    6.5470   -0.0720   28.9040 C   0  0  0  0  0  0  0  0  0  0  0  0
    7.0180   -1.2880   28.2880 C   0  0  0  0  0  0  0  0  0  0  0  0
    6.0190   -5.0990   23.8350 C   0  0  0  0  0  0  0  0  0  0  0  0
    6.6500   -5.4830   22.5090 C   0  0  0  0  0  0  0  0  0  0  0  0
  1  2  1  0
  2  3  2  0
  2  4  1  0
  4  5  1  0
  5  6  1  0
  6  7  1  0
  7  8  1  0
  8  9  2  0
  8 10  1  0
 11 10  1  1
 11 12  1  0
 12 13  1  0
 13 14  1  0
 14 15  2  0
 15 16  1  0
 16 17  2  0
 17 18  1  0
 13 19  2  0
 17 19  1  0
 11 20  1  0
 19 20  1  0
  7 21  1  0
  4 22  1  0
 21 22  1  0
M  END
