piperidine-amides-10853-covalent
     RDKit          3D

 22 23  0  0  0  0  0  0  0  0999 V2000
    7.0900   -3.3360   19.2900 C   0  0  0  0  0  0  0  0  0  0  0  0
    6.4020   -4.1570   20.2840 C   0  0  0  0  0  0  0  0  0  0  0  0
    5.3710   -4.7710   19.9640 O   0  0  0  0  0  0  0  0  0  0  0  0
    6.9280   -4.3010   21.5720 N   0  0  0  0  0  0  0  0  0  0  0  0
    7.7800   -3.3100   22.1850 C   0  0  0  0  0  0  0  0  0  0  0  0
    6.9610   -2.7480   23.2950 C   0  0  0  0  0  0  0  0  0  0  0  0
    6.5330   -3.8340   24.2230 C   0  0  0  0  0  0  0  0  0  0  0  0
    5.7620   -3.3000   25.3660 C   0  0  0  0  0  0  0  0  0  0  0  0
    4.5190   -3.0780   25.2570 O   0  0  0  0  0  0  0  0  0  0  0  0
    6.3620   -3.0370   26.6090 N   0  0  0  0  0  0  0  0  0  0  0  0
    6.3660   -1.7010   27.2570 C   0  0  0  0  0  0  0  0  0  0  0  0
    7.0020   -1.6190   28.5670 C   0  0  0  0  0  0  0  0  0  0  0  0
    7.0500   -0.3540   29.2920 C   0  0  0  0  0  0  0  0  0  0  0  0
    6.4520    0.9130   28.7240 C   0  0  0  0  0  0  0  0  0  0  0  0
    6.5360    2.5490   29.7200 Br  0  0  0  0  0  0  0  0  0  0  0  0
    5.7820    0.8650   27.3540 C   0  0  0  0  0  0  0  0  0  0  0  0
    5.7730   -0.4630   26.6790 C   0  0  0  0  0  0  0  0  0  0  0  0
    5.1910   -0.6010   25.4500 C   0  0  0  0  0  0  0  0  0  0  0  0
    3.7410   -0.3840   25.3410 N   0  0  0  0  0  0  0  0  0  0  0  0
    5.9310   -0.8900   24.4580 O   0  0  0  0  0  0  0  0  0  0  0  0
    5.7320   -4.9040   23.5170 C   0  0  0  0  0  0  0  0  0  0  0  0
    6.5690   -5.4480   22.3780 C   0  0  0  0  0  0  0  0  0  0  0  0
  1  2  1  0
  2  3  2  0
  2  4  1  0
  4  5  1  0
  5  6  1  0
  6  7  1  0
  7  8  1  0
  8  9  2  0
  8 10  1  0
 10 11  1  0
 11 12  2  0
 12 13  1  0
 13 14  2  0
 14 15  1  0
 14 16  1  0
 11 17  1  0
 16 17  2  0
 17 18  1  0
 18 19  1  0
 18 20  2  0
  7 21  1  0
  4 22  1  0
 21 22  1  0
M  END
