piperidine-amides-12134-covalent
     RDKit          3D

 25 27  0  0  0  0  0  0  0  0999 V2000
    7.1150   -3.2610   19.2580 C   0  0  0  0  0  0  0  0  0  0  0  0
    6.3610   -4.0370   20.2410 C   0  0  0  0  0  0  0  0  0  0  0  0
    5.3130   -4.5890   19.9060 O   0  0  0  0  0  0  0  0  0  0  0  0
    6.8610   -4.2120   21.5760 N   0  0  0  0  0  0  0  0  0  0  0  0
    6.5920   -5.4400   22.2910 C   0  0  0  0  0  0  0  0  0  0  0  0
    6.1670   -5.1490   23.7090 C   0  0  0  0  0  0  0  0  0  0  0  0
    6.0460   -3.6460   23.8800 C   0  0  0  0  0  0  0  0  0  0  0  0
    5.5940   -3.2780   25.2440 C   0  0  0  0  0  0  0  0  0  0  0  0
    4.3870   -3.1770   25.5340 O   0  0  0  0  0  0  0  0  0  0  0  0
    6.5600   -3.0300   26.2360 N   0  0  0  0  0  0  0  0  0  0  0  0
    6.2370   -3.3010   27.6150 C   0  0  0  0  0  0  0  0  0  0  0  0
    5.7350   -4.7180   27.7650 C   0  0  0  0  0  0  0  0  0  0  0  0
    4.9760   -4.9390   28.8890 C   0  0  0  0  0  0  0  0  0  0  0  0
    3.8340   -4.1770   29.2490 C   0  0  0  0  0  0  0  0  0  0  0  0
    3.2230   -4.5780   30.4530 N   0  0  0  0  0  0  0  0  0  0  0  0
    2.1080   -4.1090   31.1560 C   0  0  0  0  0  0  0  0  0  0  0  0
    4.1140   -5.6240   30.7370 C   0  0  0  0  0  0  0  0  0  0  0  0
    3.8890   -6.3440   31.9040 C   0  0  0  0  0  0  0  0  0  0  0  0
    4.7320   -7.3870   32.2420 C   0  0  0  0  0  0  0  0  0  0  0  0
    4.4330   -8.0340   33.4020 F   0  0  0  0  0  0  0  0  0  0  0  0
    5.7900   -7.6960   31.4040 C   0  0  0  0  0  0  0  0  0  0  0  0
    5.9940   -6.9250   30.1900 C   0  0  0  0  0  0  0  0  0  0  0  0
    5.1490   -5.8940   29.8780 C   0  0  0  0  0  0  0  0  0  0  0  0
    7.3590   -2.9890   23.5830 C   0  0  0  0  0  0  0  0  0  0  0  0
    7.6570   -3.1740   22.1430 C   0  0  0  0  0  0  0  0  0  0  0  0
  1  2  1  0
  2  3  2  0
  2  4  1  0
  4  5  1  0
  5  6  1  0
  6  7  1  0
  7  8  1  0
  8  9  2  0
  8 10  1  0
 10 11  1  0
 11 12  1  0
 12 13  1  0
 13 14  2  0
 14 15  1  0
 15 16  1  0
 15 17  1  0
 17 18  1  0
 18 19  2  0
 19 20  1  0
 19 21  1  0
 21 22  2  0
 13 23  1  0
 17 23  2  0
 22 23  1  0
  7 24  1  0
  4 25  1  0
 24 25  1  0
M  END
