piperidine-amides-32768-covalent
     RDKit          3D

 29 32  0  0  0  0  0  0  0  0999 V2000
    7.1700   -3.2960   19.2130 C   0  0  0  0  0  0  0  0  0  0  0  0
    6.4280   -4.1220   20.2010 C   0  0  0  0  0  0  0  0  0  0  0  0
    5.3170   -4.5860   19.8990 O   0  0  0  0  0  0  0  0  0  0  0  0
    7.0440   -4.4200   21.4290 N   0  0  0  0  0  0  0  0  0  0  0  0
    6.7080   -5.6270   22.1210 C   0  0  0  0  0  0  0  0  0  0  0  0
    5.7570   -5.1830   23.2120 C   0  0  0  0  0  0  0  0  0  0  0  0
    6.4620   -4.1180   23.9780 C   0  0  0  0  0  0  0  0  0  0  0  0
    5.5330   -3.4240   24.8430 C   0  0  0  0  0  0  0  0  0  0  0  0
    4.6530   -2.7350   24.3310 O   0  0  0  0  0  0  0  0  0  0  0  0
    5.6630   -3.5720   26.1770 N   0  0  0  0  0  0  0  0  0  0  0  0
    4.5980   -3.6990   27.0710 C   0  0  0  0  0  0  0  0  0  0  0  0
    4.7330   -4.3110   28.2660 C   0  0  0  0  0  0  0  0  0  0  0  0
    5.7090   -3.8190   29.0850 C   0  0  0  0  0  0  0  0  0  0  0  0
    5.6380   -2.5160   29.5820 C   0  0  0  0  0  0  0  0  0  0  0  0
    6.5300   -1.5150   29.3120 N   0  0  0  0  0  0  0  0  0  0  0  0
    6.4880   -0.2590   29.7750 C   0  0  0  0  0  0  0  0  0  0  0  0
    5.3990    0.2500   30.6990 C   0  0  0  0  0  0  0  0  0  0  0  0
    4.4390   -0.8940   30.9680 C   0  0  0  0  0  0  0  0  0  0  0  0
    3.3780   -0.5880   31.8020 C   0  0  0  0  0  0  0  0  0  0  0  0
    3.5800    0.2300   33.0270 C   0  0  0  0  0  0  0  0  0  0  0  0
    2.7400   -0.7220   33.8630 C   0  0  0  0  0  0  0  0  0  0  0  0
    1.4780   -0.8420   33.2840 O   0  0  0  0  0  0  0  0  0  0  0  0
    1.1400   -0.0500   32.1640 C   0  0  0  0  0  0  0  0  0  0  0  0
    2.2730    0.1810   31.1370 C   0  0  0  0  0  0  0  0  0  0  0  0
    4.5600   -2.1410   30.4620 N   0  0  0  0  0  0  0  0  0  0  0  0
    6.6850   -3.9340   28.2330 C   0  0  0  0  0  0  0  0  0  0  0  0
    6.3830   -2.8950   27.1650 C   0  0  0  0  0  0  0  0  0  0  0  0
    7.0610   -2.9680   23.2080 C   0  0  0  0  0  0  0  0  0  0  0  0
    7.7300   -3.3550   22.0830 C   0  0  0  0  0  0  0  0  0  0  0  0
  1  2  1  0
  2  3  2  0
  2  4  1  0
  4  5  1  0
  5  6  1  0
  6  7  1  0
  7  8  1  0
  8  9  2  0
  8 10  1  0
 10 11  1  0
 11 12  1  0
 12 13  1  0
 13 14  1  0
 14 15  2  0
 15 16  1  0
 16 17  2  0
 17 18  1  0
 18 19  1  0
 19 20  1  0
 20 21  1  0
 21 22  1  0
 22 23  1  0
 19 24  1  0
 23 24  1  0
 14 25  1  0
 18 25  2  0
 13 26  1  0
 10 27  1  0
 26 27  1  0
  7 28  1  0
  4 29  1  0
 28 29  1  0
M  END
