piperidine-amides-30092-covalent
     RDKit          3D

 27 28  0  0  0  0  0  0  0  0999 V2000
    7.0360   -3.3520   19.2810 C   0  0  0  0  0  0  0  0  0  0  0  0
    6.3340   -4.1680   20.2630 C   0  0  0  0  0  0  0  0  0  0  0  0
    5.3180   -4.7790   19.9510 O   0  0  0  0  0  0  0  0  0  0  0  0
    6.8660   -4.2940   21.5800 N   0  0  0  0  0  0  0  0  0  0  0  0
    7.5860   -3.1970   22.1450 C   0  0  0  0  0  0  0  0  0  0  0  0
    7.2450   -3.0840   23.5880 C   0  0  0  0  0  0  0  0  0  0  0  0
    5.8140   -3.5110   23.8050 C   0  0  0  0  0  0  0  0  0  0  0  0
    5.3550   -3.1770   25.1910 C   0  0  0  0  0  0  0  0  0  0  0  0
    4.1430   -3.0440   25.4490 O   0  0  0  0  0  0  0  0  0  0  0  0
    6.2830   -3.0170   26.2540 N   0  0  0  0  0  0  0  0  0  0  0  0
    6.3150   -4.1380   27.1670 C   0  0  0  0  0  0  0  0  0  0  0  0
    7.1720   -5.2300   26.5890 C   0  0  0  0  0  0  0  0  0  0  0  0
    7.3930   -5.1670   25.2340 O   0  0  0  0  0  0  0  0  0  0  0  0
    7.7510   -6.2410   27.2230 N   0  0  0  0  0  0  0  0  0  0  0  0
    7.9420   -5.8890   28.4790 C   0  0  0  0  0  0  0  0  0  0  0  0
    6.3140   -1.6800   26.9780 C   0  0  0  0  0  0  0  0  0  0  0  0
    6.9000   -1.7190   28.2420 C   0  0  0  0  0  0  0  0  0  0  0  0
    6.9760   -0.4960   29.0120 C   0  0  0  0  0  0  0  0  0  0  0  0
    6.4930    0.6840   28.5430 C   0  0  0  0  0  0  0  0  0  0  0  0
    5.9230    0.6780   27.2960 C   0  0  0  0  0  0  0  0  0  0  0  0
    5.8120   -0.4630   26.4880 C   0  0  0  0  0  0  0  0  0  0  0  0
    5.1610   -0.2900   25.1750 C   0  0  0  0  0  0  0  0  0  0  0  0
    3.8190    0.0330   25.3150 O   0  0  0  0  0  0  0  0  0  0  0  0
    5.7490   -0.4030   23.9380 N   0  0  0  0  0  0  0  0  0  0  0  0
    5.0970   -0.5290   22.7620 C   0  0  0  0  0  0  0  0  0  0  0  0
    5.6010   -4.9820   23.5120 C   0  0  0  0  0  0  0  0  0  0  0  0
    6.4690   -5.4070   22.3690 C   0  0  0  0  0  0  0  0  0  0  0  0
  1  2  1  0
  2  3  2  0
  2  4  1  0
  4  5  1  0
  5  6  1  0
  6  7  1  0
  7  8  1  0
  8  9  2  0
  8 10  1  0
 10 11  1  0
 11 12  1  0
 12 13  2  0
 12 14  1  0
 14 15  1  0
 10 16  1  0
 16 17  2  0
 17 18  1  0
 18 19  2  0
 19 20  1  0
 16 21  1  0
 20 21  2  0
 21 22  1  0
 22 23  2  0
 22 24  1  0
 24 25  1  0
  7 26  1  0
  4 27  1  0
 26 27  1  0
M  END
