piperidine-amides-27036-covalent
     RDKit          3D

 21 23  0  0  0  0  0  0  0  0999 V2000
    7.1250   -3.3590   19.3200 C   0  0  0  0  0  0  0  0  0  0  0  0
    6.3830   -4.1280   20.3240 C   0  0  0  0  0  0  0  0  0  0  0  0
    5.3250   -4.6920   19.9360 O   0  0  0  0  0  0  0  0  0  0  0  0
    6.8860   -4.2460   21.6210 N   0  0  0  0  0  0  0  0  0  0  0  0
    6.5520   -5.3650   22.4680 C   0  0  0  0  0  0  0  0  0  0  0  0
    5.8420   -4.8310   23.6900 C   0  0  0  0  0  0  0  0  0  0  0  0
    6.5600   -3.6590   24.3300 C   0  0  0  0  0  0  0  0  0  0  0  0
    5.7320   -3.0300   25.3920 C   0  0  0  0  0  0  0  0  0  0  0  0
    4.5960   -2.6120   25.0970 O   0  0  0  0  0  0  0  0  0  0  0  0
    6.1890   -2.9290   26.7170 N   0  0  0  0  0  0  0  0  0  0  0  0
    5.2350   -2.4830   27.6950 C   0  0  0  0  0  0  0  0  0  0  0  0
    5.2160   -3.6800   28.5300 C   0  0  0  0  0  0  0  0  0  0  0  0
    6.2510   -4.4560   28.2150 C   0  0  0  0  0  0  0  0  0  0  0  0
    6.5590   -5.6390   29.0370 C   0  0  0  0  0  0  0  0  0  0  0  0
    7.6180   -6.4750   28.7590 N   0  0  0  0  0  0  0  0  0  0  0  0
    8.0610   -5.8850   27.7730 C   0  0  0  0  0  0  0  0  0  0  0  0
    9.4510   -6.0580   26.5430 Br  0  0  0  0  0  0  0  0  0  0  0  0
    7.1880   -4.9910   27.7910 C   0  0  0  0  0  0  0  0  0  0  0  0
    7.0350   -4.0500   27.0190 C   0  0  0  0  0  0  0  0  0  0  0  0
    6.8610   -2.5640   23.3110 C   0  0  0  0  0  0  0  0  0  0  0  0
    7.6610   -3.1640   22.1740 C   0  0  0  0  0  0  0  0  0  0  0  0
  1  2  1  0
  2  3  2  0
  2  4  1  0
  4  5  1  0
  5  6  1  0
  6  7  1  0
  7  8  1  0
  8  9  2  0
  8 10  1  0
 10 11  1  0
 11 12  1  0
 12 13  1  0
 13 14  1  0
 14 15  2  0
 15 16  1  0
 16 17  1  0
 16 18  2  0
 10 19  1  0
 13 19  2  0
 18 19  1  0
  7 20  1  0
  4 21  1  0
 20 21  1  0
M  END
