piperidine-amides-14373-covalent
     RDKit          3D

 24 26  0  0  0  0  0  0  0  0999 V2000
    7.0750   -3.3590   19.3510 C   0  0  0  0  0  0  0  0  0  0  0  0
    6.3690   -4.1740   20.3310 C   0  0  0  0  0  0  0  0  0  0  0  0
    5.3500   -4.7900   19.9660 O   0  0  0  0  0  0  0  0  0  0  0  0
    6.8800   -4.2840   21.6460 N   0  0  0  0  0  0  0  0  0  0  0  0
    7.6620   -3.1980   22.1730 C   0  0  0  0  0  0  0  0  0  0  0  0
    7.4610   -3.1090   23.6520 C   0  0  0  0  0  0  0  0  0  0  0  0
    6.0520   -3.5850   23.9230 C   0  0  0  0  0  0  0  0  0  0  0  0
    5.6280   -3.1930   25.3020 C   0  0  0  0  0  0  0  0  0  0  0  0
    4.4240   -3.2180   25.5420 O   0  0  0  0  0  0  0  0  0  0  0  0
    6.6290   -2.8350   26.1890 N   0  0  0  0  0  0  0  0  0  0  0  0
    6.5490   -1.6950   27.0380 C   0  0  0  0  0  0  0  0  0  0  0  0
    7.0350   -1.5230   28.3520 C   0  0  0  0  0  0  0  0  0  0  0  0
    6.9580   -0.4160   29.1670 C   0  0  0  0  0  0  0  0  0  0  0  0
    6.3650    0.7960   28.8560 C   0  0  0  0  0  0  0  0  0  0  0  0
    5.7780    0.8250   27.4920 C   0  0  0  0  0  0  0  0  0  0  0  0
    5.1730    1.9690   27.0980 N   0  0  0  0  0  0  0  0  0  0  0  0
    4.2200    2.4350   27.9090 C   0  0  0  0  0  0  0  0  0  0  0  0
    4.1560    1.9390   29.0620 O   0  0  0  0  0  0  0  0  0  0  0  0
    3.2540    3.4890   27.5170 C   0  0  0  0  0  0  0  0  0  0  0  0
    2.0550    2.8660   27.3710 C   0  0  0  0  0  0  0  0  0  0  0  0
    2.8370    3.5640   26.1470 C   0  0  0  0  0  0  0  0  0  0  0  0
    5.8840   -0.4040   26.6290 C   0  0  0  0  0  0  0  0  0  0  0  0
    6.0720   -5.0790   23.7860 C   0  0  0  0  0  0  0  0  0  0  0  0
    6.5260   -5.4610   22.4050 C   0  0  0  0  0  0  0  0  0  0  0  0
  1  2  1  0
  2  3  2  0
  2  4  1  0
  4  5  1  0
  5  6  1  0
  6  7  1  0
  7  8  1  0
  8  9  2  0
  8 10  1  0
 10 11  1  0
 11 12  2  0
 12 13  1  0
 13 14  2  0
 14 15  1  0
 15 16  1  0
 16 17  1  0
 17 18  2  0
 17 19  1  0
 19 20  1  0
 19 21  1  0
 20 21  1  0
 11 22  1  0
 15 22  2  0
  7 23  1  0
  4 24  1  0
 23 24  1  0
M  END
