piperidine-amides-29664-covalent
     RDKit          3D

 24 26  0  0  0  0  0  0  0  0999 V2000
    7.0250   -3.3380   19.3160 C   0  0  0  0  0  0  0  0  0  0  0  0
    6.3390   -4.1580   20.3120 C   0  0  0  0  0  0  0  0  0  0  0  0
    5.3490   -4.8040   19.9710 O   0  0  0  0  0  0  0  0  0  0  0  0
    6.8280   -4.2560   21.6680 N   0  0  0  0  0  0  0  0  0  0  0  0
    6.6350   -5.4890   22.4020 C   0  0  0  0  0  0  0  0  0  0  0  0
    6.0560   -5.2080   23.7660 C   0  0  0  0  0  0  0  0  0  0  0  0
    6.0280   -3.7040   23.9040 C   0  0  0  0  0  0  0  0  0  0  0  0
    5.4530   -3.2650   25.2120 C   0  0  0  0  0  0  0  0  0  0  0  0
    5.0620   -2.0970   25.3690 O   0  0  0  0  0  0  0  0  0  0  0  0
    5.2950   -4.1530   26.3090 N   0  0  0  0  0  0  0  0  0  0  0  0
    6.1150   -3.8930   27.4430 C   0  0  0  0  0  0  0  0  0  0  0  0
    4.8000   -3.7780   28.0740 C   0  0  0  0  0  0  0  0  0  0  0  0
    4.5570   -2.4860   28.5320 O   0  0  0  0  0  0  0  0  0  0  0  0
    5.3420   -1.7130   29.3520 C   0  0  0  0  0  0  0  0  0  0  0  0
    6.7330   -1.7950   29.1140 C   0  0  0  0  0  0  0  0  0  0  0  0
    7.5950   -1.0560   29.8840 C   0  0  0  0  0  0  0  0  0  0  0  0
    7.0660   -0.2060   30.9210 C   0  0  0  0  0  0  0  0  0  0  0  0
    5.7240   -0.1330   31.1430 C   0  0  0  0  0  0  0  0  0  0  0  0
    5.1560    0.9300   32.4340 Cl  0  0  0  0  0  0  0  0  0  0  0  0
    4.8580   -0.8800   30.3660 C   0  0  0  0  0  0  0  0  0  0  0  0
    3.1540   -0.7460   30.6950 Cl  0  0  0  0  0  0  0  0  0  0  0  0
    3.9860   -4.1600   27.0010 C   0  0  0  0  0  0  0  0  0  0  0  0
    7.2770   -3.0470   23.5860 C   0  0  0  0  0  0  0  0  0  0  0  0
    7.6420   -3.2120   22.2590 C   0  0  0  0  0  0  0  0  0  0  0  0
  1  2  1  0
  2  3  2  0
  2  4  1  0
  4  5  1  0
  5  6  1  0
  6  7  1  0
  7  8  1  0
  8  9  2  0
  8 10  1  0
 10 11  1  0
 11 12  1  0
 12 13  1  0
 13 14  1  0
 14 15  2  0
 15 16  1  0
 16 17  2  0
 17 18  1  0
 18 19  1  0
 14 20  1  0
 18 20  2  0
 20 21  1  0
 10 22  1  0
 12 22  1  0
  7 23  1  0
  4 24  1  0
 23 24  1  0
M  END
