piperidine-amides-21639-covalent
     RDKit          3D

 23 25  0  0  0  0  0  0  0  0999 V2000
    7.1170   -3.3270   19.2830 C   0  0  0  0  0  0  0  0  0  0  0  0
    6.4290   -4.1700   20.2630 C   0  0  0  0  0  0  0  0  0  0  0  0
    5.3170   -4.6430   19.9220 O   0  0  0  0  0  0  0  0  0  0  0  0
    7.0420   -4.4770   21.4810 N   0  0  0  0  0  0  0  0  0  0  0  0
    6.7140   -5.6790   22.1910 C   0  0  0  0  0  0  0  0  0  0  0  0
    5.8640   -5.2610   23.3450 C   0  0  0  0  0  0  0  0  0  0  0  0
    6.4670   -4.1060   24.0930 C   0  0  0  0  0  0  0  0  0  0  0  0
    5.5370   -3.7220   25.1540 C   0  0  0  0  0  0  0  0  0  0  0  0
    4.3740   -3.3960   24.8480 O   0  0  0  0  0  0  0  0  0  0  0  0
    5.8910   -3.6870   26.4850 N   0  0  0  0  0  0  0  0  0  0  0  0
    5.0400   -4.3330   27.4620 C   0  0  0  0  0  0  0  0  0  0  0  0
    5.3400   -3.9140   28.8970 C   0  0  0  0  0  0  0  0  0  0  0  0
    5.9140   -2.7140   29.2000 C   0  0  0  0  0  0  0  0  0  0  0  0
    5.2080   -1.5380   29.3630 C   0  0  0  0  0  0  0  0  0  0  0  0
    5.8450   -0.6750   30.2500 C   0  0  0  0  0  0  0  0  0  0  0  0
    7.1750   -0.5670   30.5020 C   0  0  0  0  0  0  0  0  0  0  0  0
    7.2610    0.3980   31.4280 N   0  0  0  0  0  0  0  0  0  0  0  0
    6.0170    0.8820   31.7500 C   0  0  0  0  0  0  0  0  0  0  0  0
    5.0630    0.2280   31.0200 N   0  0  0  0  0  0  0  0  0  0  0  0
    6.9160   -2.6610   28.3620 C   0  0  0  0  0  0  0  0  0  0  0  0
    6.5080   -2.5320   26.9320 C   0  0  0  0  0  0  0  0  0  0  0  0
    6.7830   -2.8950   23.2090 C   0  0  0  0  0  0  0  0  0  0  0  0
    7.7690   -3.4500   22.2150 C   0  0  0  0  0  0  0  0  0  0  0  0
  1  2  1  0
  2  3  2  0
  2  4  1  0
  4  5  1  0
  5  6  1  0
  6  7  1  0
  7  8  1  0
  8  9  2  0
  8 10  1  0
 10 11  1  0
 11 12  1  0
 12 13  1  0
 13 14  1  0
 14 15  1  0
 15 16  2  0
 16 17  1  0
 17 18  1  0
 15 19  1  0
 18 19  2  0
 13 20  1  0
 10 21  1  0
 20 21  1  0
  7 22  1  0
  4 23  1  0
 22 23  1  0
M  END
