piperidine-amides-31366-covalent
     RDKit          3D

 23 24  0  0  0  0  0  0  0  0999 V2000
    7.0530   -3.3390   19.2460 C   0  0  0  0  0  0  0  0  0  0  0  0
    6.3510   -4.0430   20.2940 C   0  0  0  0  0  0  0  0  0  0  0  0
    5.3100   -4.6820   19.9440 O   0  0  0  0  0  0  0  0  0  0  0  0
    6.7860   -4.1080   21.6410 N   0  0  0  0  0  0  0  0  0  0  0  0
    6.4220   -5.2910   22.4420 C   0  0  0  0  0  0  0  0  0  0  0  0
    5.3240   -4.6310   23.3610 C   0  0  0  0  0  0  0  0  0  0  0  0
    6.0320   -3.5640   24.1840 C   0  0  0  0  0  0  0  0  0  0  0  0
    5.0220   -2.9440   25.2870 C   0  0  0  0  0  0  0  0  0  0  0  0
    3.9100   -3.4140   25.1100 O   0  0  0  0  0  0  0  0  0  0  0  0
    5.6170   -2.1050   26.0850 N   0  0  0  0  0  0  0  0  0  0  0  0
    6.3920   -1.0390   26.4450 C   0  0  0  0  0  0  0  0  0  0  0  0
    5.2930   -2.5280   27.4110 C   0  0  1  0  0  0  0  0  0  0  0  0
    4.1420   -3.3210   27.5950 C   0  0  0  0  0  0  0  0  0  0  0  0
    4.3390   -4.6220   27.0900 F   0  0  0  0  0  0  0  0  0  0  0  0
    6.2370   -3.5970   27.6110 C   0  0  0  0  0  0  0  0  0  0  0  0
    6.9180   -3.1510   26.4030 C   0  0  0  0  0  0  0  0  0  0  0  0
    7.9320   -4.0240   26.2050 C   0  0  0  0  0  0  0  0  0  0  0  0
    8.4470   -5.1730   26.8410 C   0  0  0  0  0  0  0  0  0  0  0  0
    9.8190   -6.0520   26.1840 Br  0  0  0  0  0  0  0  0  0  0  0  0
    7.5870   -5.4340   28.0990 C   0  0  0  0  0  0  0  0  0  0  0  0
    6.4140   -4.6230   28.5360 C   0  0  0  0  0  0  0  0  0  0  0  0
    6.6590   -2.4960   23.2580 C   0  0  0  0  0  0  0  0  0  0  0  0
    7.5090   -3.0360   22.3140 C   0  0  0  0  0  0  0  0  0  0  0  0
  1  2  1  0
  2  3  2  0
  2  4  1  0
  4  5  1  0
  5  6  1  0
  6  7  1  0
  7  8  1  0
  8  9  2  0
  8 10  1  0
 10 11  1  0
 10 12  1  0
 12 13  1  6
 13 14  1  0
 12 15  1  0
 15 16  2  0
 16 17  1  0
 17 18  2  0
 18 19  1  0
 18 20  1  0
 15 21  1  0
 20 21  2  0
  7 22  1  0
  4 23  1  0
 22 23  1  0
M  END
