piperidine-amides-19856-covalent
     RDKit          3D

 22 24  0  0  0  0  0  0  0  0999 V2000
    7.1170   -3.2880   19.2120 C   0  0  0  0  0  0  0  0  0  0  0  0
    6.3370   -4.0390   20.2280 C   0  0  0  0  0  0  0  0  0  0  0  0
    5.2620   -4.5100   19.8660 O   0  0  0  0  0  0  0  0  0  0  0  0
    6.8450   -4.2380   21.5110 N   0  0  0  0  0  0  0  0  0  0  0  0
    6.4450   -5.3760   22.2870 C   0  0  0  0  0  0  0  0  0  0  0  0
    5.6670   -4.8840   23.4760 C   0  0  0  0  0  0  0  0  0  0  0  0
    6.5010   -3.8320   24.2120 C   0  0  0  0  0  0  0  0  0  0  0  0
    5.7010   -3.3540   25.3640 C   0  0  0  0  0  0  0  0  0  0  0  0
    4.4860   -3.1750   25.2270 O   0  0  0  0  0  0  0  0  0  0  0  0
    6.3060   -3.1050   26.6130 N   0  0  0  0  0  0  0  0  0  0  0  0
    5.9300   -3.8680   27.7660 C   0  0  0  0  0  0  0  0  0  0  0  0
    6.1420   -2.5470   28.3800 C   0  0  0  0  0  0  0  0  0  0  0  0
    5.2470   -1.9180   29.1950 C   0  0  0  0  0  0  0  0  0  0  0  0
    3.9680   -1.9740   29.3770 O   0  0  0  0  0  0  0  0  0  0  0  0
    3.5710   -1.0660   30.3850 C   0  0  0  0  0  0  0  0  0  0  0  0
    4.6720   -0.3310   30.9360 N   0  0  0  0  0  0  0  0  0  0  0  0
    5.7340   -0.8680   30.1840 C   0  0  0  0  0  0  0  0  0  0  0  0
    7.1960   -0.4830   30.3050 C   0  0  0  0  0  0  0  0  0  0  0  0
    7.5370    0.7190   29.7240 O   0  0  0  0  0  0  0  0  0  0  0  0
    6.4070   -1.7530   27.1540 C   0  0  0  0  0  0  0  0  0  0  0  0
    6.9310   -2.6900   23.3890 C   0  0  0  0  0  0  0  0  0  0  0  0
    7.5550   -3.1460   22.1190 C   0  0  0  0  0  0  0  0  0  0  0  0
  1  2  1  0
  2  3  2  0
  2  4  1  0
  4  5  1  0
  5  6  1  0
  6  7  1  0
  7  8  1  0
  8  9  2  0
  8 10  1  0
 10 11  1  0
 11 12  1  0
 12 13  1  0
 13 14  1  0
 14 15  1  0
 15 16  2  0
 13 17  2  0
 16 17  1  0
 17 18  1  0
 18 19  1  0
 10 20  1  0
 12 20  1  0
  7 21  1  0
  4 22  1  0
 21 22  1  0
M  END
