piperidine-amides-3420-covalent
     RDKit          3D

 21 22  0  0  0  0  0  0  0  0999 V2000
    7.0930   -3.3220   19.2780 C   0  0  0  0  0  0  0  0  0  0  0  0
    6.3800   -4.1210   20.2650 C   0  0  0  0  0  0  0  0  0  0  0  0
    5.3290   -4.6730   19.9390 O   0  0  0  0  0  0  0  0  0  0  0  0
    6.9170   -4.3360   21.5880 N   0  0  0  0  0  0  0  0  0  0  0  0
    6.5260   -5.5040   22.3150 C   0  0  0  0  0  0  0  0  0  0  0  0
    5.8340   -5.0820   23.5830 C   0  0  0  0  0  0  0  0  0  0  0  0
    6.6550   -4.0070   24.2930 C   0  0  0  0  0  0  0  0  0  0  0  0
    5.9090   -3.5610   25.5080 C   0  0  0  0  0  0  0  0  0  0  0  0
    4.7280   -3.1570   25.4390 O   0  0  0  0  0  0  0  0  0  0  0  0
    6.5430   -3.5840   26.7790 N   0  0  0  0  0  0  0  0  0  0  0  0
    6.8970   -4.8490   27.4090 C   0  0  0  0  0  0  0  0  0  0  0  0
    5.7180   -5.7700   27.3190 C   0  0  0  0  0  0  0  0  0  0  0  0
    5.1790   -6.4180   28.4230 C   0  0  0  0  0  0  0  0  0  0  0  0
    3.9410   -7.0890   28.3970 C   0  0  0  0  0  0  0  0  0  0  0  0
    3.4010   -7.7270   29.4770 C   0  0  0  0  0  0  0  0  0  0  0  0
    4.0630   -7.7560   30.7120 N   0  0  0  0  0  0  0  0  0  0  0  0
    5.3200   -7.1110   30.8360 C   0  0  0  0  0  0  0  0  0  0  0  0
    6.0230   -7.0740   31.9170 O   0  0  0  0  0  0  0  0  0  0  0  0
    5.8050   -6.4800   29.6840 C   0  0  0  0  0  0  0  0  0  0  0  0
    6.8140   -2.8170   23.3450 C   0  0  0  0  0  0  0  0  0  0  0  0
    7.5730   -3.2210   22.2450 C   0  0  0  0  0  0  0  0  0  0  0  0
  1  2  1  0
  2  3  2  0
  2  4  1  0
  4  5  1  0
  5  6  1  0
  6  7  1  0
  7  8  1  0
  8  9  2  0
  8 10  1  0
 10 11  1  0
 11 12  1  0
 12 13  1  0
 13 14  2  0
 14 15  1  0
 15 16  2  0
 16 17  1  0
 17 18  1  0
 13 19  1  0
 17 19  2  0
  7 20  1  0
  4 21  1  0
 20 21  1  0
M  END
