piperidine-amides-19551-covalent
     RDKit          3D

 22 23  0  0  0  0  0  0  0  0999 V2000
    7.0980   -3.3390   19.2270 C   0  0  0  0  0  0  0  0  0  0  0  0
    6.3810   -4.0560   20.2560 C   0  0  0  0  0  0  0  0  0  0  0  0
    5.2920   -4.6140   19.9170 O   0  0  0  0  0  0  0  0  0  0  0  0
    6.8650   -4.2160   21.5740 N   0  0  0  0  0  0  0  0  0  0  0  0
    6.5100   -5.4550   22.2900 C   0  0  0  0  0  0  0  0  0  0  0  0
    5.6490   -4.8290   23.4480 C   0  0  0  0  0  0  0  0  0  0  0  0
    6.5500   -3.8230   24.1330 C   0  0  0  0  0  0  0  0  0  0  0  0
    5.9640   -3.4340   25.5580 C   0  0  0  0  0  0  0  0  0  0  0  0
    4.7750   -3.1360   25.4740 O   0  0  0  0  0  0  0  0  0  0  0  0
    6.9110   -3.5460   26.4080 N   0  0  0  0  0  0  0  0  0  0  0  0
    7.7850   -4.1640   27.2550 C   0  0  0  0  0  0  0  0  0  0  0  0
    7.3290   -2.2200   26.6410 C   0  0  0  0  0  0  0  0  0  0  0  0
    6.8830   -1.5830   27.8230 C   0  0  0  0  0  0  0  0  0  0  0  0
    7.8740   -1.5400   28.9470 C   0  0  0  0  0  0  0  0  0  0  0  0
    7.3770   -0.8280   30.2490 C   0  0  0  0  0  0  0  0  0  0  0  0
    6.0700   -0.3410   30.1580 C   0  0  0  0  0  0  0  0  0  0  0  0
    5.2820   -0.4680   29.0380 C   0  0  0  0  0  0  0  0  0  0  0  0
    4.0460    0.0780   29.1730 O   0  0  0  0  0  0  0  0  0  0  0  0
    3.1820   -0.1160   28.1200 C   0  0  0  0  0  0  0  0  0  0  0  0
    5.6790   -1.0530   27.9490 N   0  0  0  0  0  0  0  0  0  0  0  0
    6.9440   -2.6940   23.2310 C   0  0  0  0  0  0  0  0  0  0  0  0
    7.6870   -3.2300   22.2200 C   0  0  0  0  0  0  0  0  0  0  0  0
  1  2  1  0
  2  3  2  0
  2  4  1  0
  4  5  1  0
  5  6  1  0
  6  7  1  0
  7  8  1  0
  8  9  2  0
  8 10  1  0
 10 11  1  0
 10 12  1  0
 12 13  1  0
 13 14  2  0
 14 15  1  0
 15 16  2  0
 16 17  1  0
 17 18  1  0
 18 19  1  0
 13 20  1  0
 17 20  2  0
  7 21  1  0
  4 22  1  0
 21 22  1  0
M  END
