piperidine-amides-13592-covalent
     RDKit          3D

 29 31  0  0  0  0  0  0  0  0999 V2000
    7.1600   -3.2760   19.1900 C   0  0  0  0  0  0  0  0  0  0  0  0
    6.4070   -4.0660   20.2030 C   0  0  0  0  0  0  0  0  0  0  0  0
    5.3090   -4.5520   19.8900 O   0  0  0  0  0  0  0  0  0  0  0  0
    6.9940   -4.2940   21.4640 N   0  0  0  0  0  0  0  0  0  0  0  0
    7.7600   -3.2880   22.1410 C   0  0  0  0  0  0  0  0  0  0  0  0
    6.7790   -2.5960   23.0810 C   0  0  0  0  0  0  0  0  0  0  0  0
    6.2240   -3.6170   24.0260 C   0  0  0  0  0  0  0  0  0  0  0  0
    5.1890   -3.0180   24.9000 C   0  0  0  0  0  0  0  0  0  0  0  0
    4.2970   -3.7660   25.3110 O   0  0  0  0  0  0  0  0  0  0  0  0
    5.2500   -1.6580   25.2230 N   0  0  0  0  0  0  0  0  0  0  0  0
    5.7830   -1.1180   26.4060 C   0  0  0  0  0  0  0  0  0  0  0  0
    6.6420   -1.8630   27.1230 C   0  0  0  0  0  0  0  0  0  0  0  0
    6.7300   -3.2300   26.7500 C   0  0  0  0  0  0  0  0  0  0  0  0
    7.5500   -4.1360   27.3520 C   0  0  0  0  0  0  0  0  0  0  0  0
    7.5090   -5.4160   26.8720 F   0  0  0  0  0  0  0  0  0  0  0  0
    8.4020   -3.7210   28.4400 C   0  0  0  0  0  0  0  0  0  0  0  0
    8.3760   -2.2740   28.9060 C   0  0  0  0  0  0  0  0  0  0  0  0
    7.4160   -1.4330   28.1440 C   0  0  0  0  0  0  0  0  0  0  0  0
    7.3840   -0.1190   28.5950 O   0  0  0  0  0  0  0  0  0  0  0  0
    6.7420   -0.1180   29.8200 C   0  0  0  0  0  0  0  0  0  0  0  0
    5.3930   -0.6500   29.7950 C   0  0  0  0  0  0  0  0  0  0  0  0
    4.7440   -0.6140   31.1890 C   0  0  0  0  0  0  0  0  0  0  0  0
    5.0600   -0.2160   32.5090 C   0  0  0  0  0  0  0  0  0  0  0  0
    4.3340   -0.2690   33.6310 F   0  0  0  0  0  0  0  0  0  0  0  0
    6.5180    0.2930   32.2360 C   0  0  0  0  0  0  0  0  0  0  0  0
    7.3550    0.9090   33.6600 Cl  0  0  0  0  0  0  0  0  0  0  0  0
    7.2930    0.3300   30.9510 C   0  0  0  0  0  0  0  0  0  0  0  0
    5.5730   -4.8070   23.3370 C   0  0  0  0  0  0  0  0  0  0  0  0
    6.4500   -5.3680   22.2750 C   0  0  0  0  0  0  0  0  0  0  0  0
  1  2  1  0
  2  3  2  0
  2  4  1  0
  4  5  1  0
  5  6  1  0
  6  7  1  0
  7  8  1  0
  8  9  2  0
  8 10  1  0
 10 11  1  0
 11 12  1  0
 12 13  2  0
 13 14  1  0
 14 15  1  0
 14 16  2  0
 16 17  1  0
 12 18  1  0
 17 18  2  0
 18 19  1  0
 19 20  1  0
 20 21  2  0
 21 22  1  0
 22 23  2  0
 23 24  1  0
 23 25  1  0
 25 26  1  0
 20 27  1  0
 25 27  2  0
  7 28  1  0
  4 29  1  0
 28 29  1  0
M  END
