piperidine-amides-35276-covalent
     RDKit          3D

 32 34  0  0  0  0  0  0  0  0999 V2000
    7.0890   -3.3220   19.2490 C   0  0  0  0  0  0  0  0  0  0  0  0
    6.3990   -4.1390   20.2810 C   0  0  0  0  0  0  0  0  0  0  0  0
    5.3630   -4.7150   19.9470 O   0  0  0  0  0  0  0  0  0  0  0  0
    6.9600   -4.2610   21.5500 N   0  0  0  0  0  0  0  0  0  0  0  0
    7.8160   -3.2370   22.0890 C   0  0  0  0  0  0  0  0  0  0  0  0
    7.1950   -2.6780   23.3180 C   0  0  0  0  0  0  0  0  0  0  0  0
    6.7330   -3.8170   24.2160 C   0  0  0  0  0  0  0  0  0  0  0  0
    5.9590   -3.1740   25.2770 C   0  0  0  0  0  0  0  0  0  0  0  0
    4.7630   -2.8920   25.0970 O   0  0  0  0  0  0  0  0  0  0  0  0
    6.5830   -2.8890   26.4920 N   0  0  0  0  0  0  0  0  0  0  0  0
    6.4440   -3.9540   27.4600 C   0  0  0  0  0  0  0  0  0  0  0  0
    5.2580   -4.3540   28.0090 N   0  0  0  0  0  0  0  0  0  0  0  0
    5.3070   -5.3710   28.8610 C   0  0  0  0  0  0  0  0  0  0  0  0
    4.2570   -5.9450   29.5250 C   0  0  0  0  0  0  0  0  0  0  0  0
    3.3340   -4.9940   29.8220 C   0  0  0  0  0  0  0  0  0  0  0  0
    6.6480   -5.9620   29.1270 C   0  0  0  0  0  0  0  0  0  0  0  0
    7.6920   -5.0250   28.1570 S   0  0  0  0  0  0  0  0  0  0  0  0
    6.5160   -1.7790   27.4270 C   0  0  0  0  0  0  0  0  0  0  0  0
    7.8100   -1.6570   28.1460 C   0  0  0  0  0  0  0  0  0  0  0  0
    7.4350   -0.6740   29.2170 C   0  0  0  0  0  0  0  0  0  0  0  0
    7.2180    0.4760   28.5440 N   0  0  0  0  0  0  0  0  0  0  0  0
    7.6740    1.7150   29.1280 C   0  0  0  0  0  0  0  0  0  0  0  0
    7.3010    2.1410   30.4110 O   0  0  0  0  0  0  0  0  0  0  0  0
    8.4450    2.4600   28.4770 O   0  0  0  0  0  0  0  0  0  0  0  0
    7.9730    3.6650   27.9430 C   0  0  0  0  0  0  0  0  0  0  0  0
    7.3720    3.4420   26.5670 C   0  0  0  0  0  0  0  0  0  0  0  0
    9.0600    4.7240   27.7750 C   0  0  0  0  0  0  0  0  0  0  0  0
    6.8990    4.2750   28.8420 C   0  0  0  0  0  0  0  0  0  0  0  0
    6.0170    0.5580   27.6730 C   0  0  0  0  0  0  0  0  0  0  0  0
    6.0150   -0.6510   26.7510 C   0  0  0  0  0  0  0  0  0  0  0  0
    5.8210   -4.8640   23.5430 C   0  0  0  0  0  0  0  0  0  0  0  0
    6.5940   -5.4040   22.3530 C   0  0  0  0  0  0  0  0  0  0  0  0
  1  2  1  0
  2  3  2  0
  2  4  1  0
  4  5  1  0
  5  6  1  0
  6  7  1  0
  7  8  1  0
  8  9  2  0
  8 10  1  0
 10 11  1  0
 11 12  2  0
 12 13  1  0
 13 14  1  0
 14 15  1  0
 13 16  2  0
 11 17  1  0
 16 17  1  0
 10 18  1  0
 18 19  1  0
 19 20  1  0
 20 21  1  0
 21 22  1  0
 22 23  2  0
 22 24  1  0
 25 24  1  0
 25 26  1  0
 25 27  1  0
 25 28  1  0
 21 29  1  0
 18 30  1  0
 29 30  1  0
  7 31  1  0
  4 32  1  0
 31 32  1  0
M  END
