piperidine-amides-9312-covalent
     RDKit          3D

 19 20  0  0  0  0  0  0  0  0999 V2000
    7.1440   -3.2830   19.2010 C   0  0  0  0  0  0  0  0  0  0  0  0
    6.3320   -3.9690   20.2060 C   0  0  0  0  0  0  0  0  0  0  0  0
    5.2740   -4.5280   19.8740 O   0  0  0  0  0  0  0  0  0  0  0  0
    6.7660   -4.0430   21.5310 N   0  0  0  0  0  0  0  0  0  0  0  0
    7.7350   -3.1050   22.0480 C   0  0  0  0  0  0  0  0  0  0  0  0
    7.3220   -2.8260   23.4570 C   0  0  0  0  0  0  0  0  0  0  0  0
    5.9970   -3.4450   23.7750 C   0  0  0  0  0  0  0  0  0  0  0  0
    5.5280   -3.1450   25.1430 C   0  0  0  0  0  0  0  0  0  0  0  0
    4.2910   -3.1460   25.4080 O   0  0  0  0  0  0  0  0  0  0  0  0
    6.3980   -2.8460   26.2070 N   0  0  0  0  0  0  0  0  0  0  0  0
    6.0430   -3.3370   27.5430 C   0  0  0  0  0  0  0  0  0  0  0  0
    6.9610   -4.4170   27.9020 C   0  0  0  0  0  0  0  0  0  0  0  0
    7.6000   -5.2240   26.8670 C   0  0  1  0  0  0  0  0  0  0  0  0
    8.3710   -4.3730   25.8700 C   0  0  0  0  0  0  0  0  0  0  0  0
    9.8520   -4.3200   26.1880 C   0  0  0  0  0  0  0  0  0  0  0  0
    9.8950   -5.0690   27.8250 S   0  0  0  0  0  0  0  0  0  0  0  0
    8.6350   -6.2280   27.3230 C   0  0  0  0  0  0  0  0  0  0  0  0
    6.0280   -4.9430   23.5220 C   0  0  0  0  0  0  0  0  0  0  0  0
    6.5320   -5.2690   22.2560 C   0  0  0  0  0  0  0  0  0  0  0  0
  1  2  1  0
  2  3  2  0
  2  4  1  0
  4  5  1  0
  5  6  1  0
  6  7  1  0
  7  8  1  0
  8  9  2  0
  8 10  1  0
 10 11  1  0
 11 12  1  0
 13 12  1  1
 13 14  1  0
 14 15  1  0
 15 16  1  0
 13 17  1  0
 16 17  1  0
  7 18  1  0
  4 19  1  0
 18 19  1  0
M  END
