piperidine-amides-11997-covalent
     RDKit          3D

 26 27  0  0  0  0  0  0  0  0999 V2000
    7.0760   -3.3000   19.3220 C   0  0  0  0  0  0  0  0  0  0  0  0
    6.3480   -4.1000   20.3030 C   0  0  0  0  0  0  0  0  0  0  0  0
    5.3510   -4.7330   19.9550 O   0  0  0  0  0  0  0  0  0  0  0  0
    6.8130   -4.1940   21.6650 N   0  0  0  0  0  0  0  0  0  0  0  0
    7.7040   -3.1750   22.1880 C   0  0  0  0  0  0  0  0  0  0  0  0
    7.4180   -2.9180   23.6410 C   0  0  0  0  0  0  0  0  0  0  0  0
    6.1070   -3.6150   23.9460 C   0  0  0  0  0  0  0  0  0  0  0  0
    5.5860   -3.2110   25.2880 C   0  0  0  0  0  0  0  0  0  0  0  0
    4.4950   -2.6260   25.4060 O   0  0  0  0  0  0  0  0  0  0  0  0
    6.3150   -3.4910   26.4680 N   0  0  0  0  0  0  0  0  0  0  0  0
    5.8850   -4.6090   27.2830 C   0  0  0  0  0  0  0  0  0  0  0  0
    6.4630   -4.4830   28.6740 C   0  0  0  0  0  0  0  0  0  0  0  0
    6.5080   -5.7330   29.2690 O   0  0  0  0  0  0  0  0  0  0  0  0
    5.4250   -6.4530   29.6970 C   0  0  0  0  0  0  0  0  0  0  0  0
    5.2780   -6.7130   31.0550 C   0  0  0  0  0  0  0  0  0  0  0  0
    4.1700   -7.4290   31.4360 C   0  0  0  0  0  0  0  0  0  0  0  0
    3.2250   -7.8720   30.4160 C   0  0  0  0  0  0  0  0  0  0  0  0
    2.2010   -8.5540   30.9560 N   0  0  0  0  0  0  0  0  0  0  0  0
    0.7640   -8.5590   30.0410 S   0  0  0  0  0  0  0  0  0  0  0  0
    0.8370   -9.7460   28.8230 C   0  0  0  0  0  0  0  0  0  0  0  0
   -0.3930   -8.8850   30.9200 O   0  0  0  0  0  0  0  0  0  0  0  0
    0.5370   -7.1960   29.4150 O   0  0  0  0  0  0  0  0  0  0  0  0
    3.4110   -7.5980   29.0930 C   0  0  0  0  0  0  0  0  0  0  0  0
    4.5490   -6.8670   28.7490 C   0  0  0  0  0  0  0  0  0  0  0  0
    6.1110   -5.0530   23.7320 C   0  0  0  0  0  0  0  0  0  0  0  0
    6.5880   -5.3730   22.4650 C   0  0  0  0  0  0  0  0  0  0  0  0
  1  2  1  0
  2  3  2  0
  2  4  1  0
  4  5  1  0
  5  6  1  0
  6  7  1  0
  7  8  1  0
  8  9  2  0
  8 10  1  0
 10 11  1  0
 11 12  1  0
 12 13  1  0
 13 14  1  0
 14 15  2  0
 15 16  1  0
 16 17  2  0
 17 18  1  0
 19 18  1  0
 19 20  1  0
 19 21  2  0
 19 22  2  0
 17 23  1  0
 14 24  1  0
 23 24  2  0
  7 25  1  0
  4 26  1  0
 25 26  1  0
M  END
