piperidine-amides-31489-covalent
     RDKit          3D

 27 28  0  0  0  0  0  0  0  0999 V2000
    7.0540   -3.3810   19.2390 C   0  0  0  0  0  0  0  0  0  0  0  0
    6.3720   -4.1210   20.2790 C   0  0  0  0  0  0  0  0  0  0  0  0
    5.3120   -4.7350   19.9510 O   0  0  0  0  0  0  0  0  0  0  0  0
    6.8660   -4.2310   21.5960 N   0  0  0  0  0  0  0  0  0  0  0  0
    7.4680   -3.0200   22.1810 C   0  0  0  0  0  0  0  0  0  0  0  0
    6.1520   -2.3900   22.7680 C   0  0  0  0  0  0  0  0  0  0  0  0
    5.6850   -3.3690   23.8200 C   0  0  0  0  0  0  0  0  0  0  0  0
    6.6150   -3.2230   25.0800 C   0  0  0  0  0  0  0  0  0  0  0  0
    7.7370   -3.3220   24.6980 O   0  0  0  0  0  0  0  0  0  0  0  0
    5.9360   -3.0080   26.1300 N   0  0  0  0  0  0  0  0  0  0  0  0
    5.2070   -2.2820   27.0110 C   0  0  0  0  0  0  0  0  0  0  0  0
    3.9960   -1.6390   26.9530 C   0  0  0  0  0  0  0  0  0  0  0  0
    2.9840   -2.3810   26.3230 C   0  0  0  0  0  0  0  0  0  0  0  0
    1.5720   -1.9590   26.1070 C   0  0  0  0  0  0  0  0  0  0  0  0
    1.3390   -0.5260   26.6920 C   0  0  0  0  0  0  0  0  0  0  0  0
    2.4650    0.0770   27.2910 C   0  0  0  0  0  0  0  0  0  0  0  0
    3.7440   -0.4450   27.4220 C   0  0  0  0  0  0  0  0  0  0  0  0
    5.6680   -4.2330   26.8780 C   0  0  1  0  0  0  0  0  0  0  0  0
    5.9190   -5.5840   26.1470 C   0  0  0  0  0  0  0  0  0  0  0  0
    6.1920   -4.3790   28.2700 C   0  0  1  0  0  0  0  0  0  0  0  0
    6.5260   -3.2920   28.8160 O   0  0  0  0  0  0  0  0  0  0  0  0
    5.3410   -5.2160   28.9700 C   0  0  0  0  0  0  0  0  0  0  0  0
    4.2760   -4.6900   29.6220 F   0  0  0  0  0  0  0  0  0  0  0  0
    5.9980   -6.0300   29.8760 F   0  0  0  0  0  0  0  0  0  0  0  0
    4.8620   -6.1420   28.0480 F   0  0  0  0  0  0  0  0  0  0  0  0
    5.3590   -4.7650   23.2710 C   0  0  0  0  0  0  0  0  0  0  0  0
    6.3970   -5.2550   22.4980 C   0  0  0  0  0  0  0  0  0  0  0  0
  1  2  1  0
  2  3  2  0
  2  4  1  0
  4  5  1  0
  5  6  1  0
  6  7  1  0
  7  8  1  0
  8  9  2  0
  8 10  1  0
 10 11  1  0
 11 12  1  0
 12 13  2  0
 13 14  1  0
 14 15  2  0
 15 16  1  0
 12 17  1  0
 16 17  2  0
 10 18  1  0
 18 19  1  6
 18 20  1  0
 20 21  1  1
 20 22  1  0
 22 23  1  0
 22 24  1  0
 22 25  1  0
  7 26  1  0
  4 27  1  0
 26 27  1  0
M  END
