piperidine-amides-31691-covalent
     RDKit          3D

 28 30  0  0  0  0  0  0  0  0999 V2000
    7.0410   -3.3570   19.5050 C   0  0  0  0  0  0  0  0  0  0  0  0
    6.3580   -4.2140   20.4580 C   0  0  0  0  0  0  0  0  0  0  0  0
    5.4380   -4.9730   20.0120 O   0  0  0  0  0  0  0  0  0  0  0  0
    6.6950   -4.2500   21.8370 N   0  0  0  0  0  0  0  0  0  0  0  0
    6.6830   -5.6000   22.4720 C   0  0  0  0  0  0  0  0  0  0  0  0
    6.0510   -5.3320   23.9030 C   0  0  0  0  0  0  0  0  0  0  0  0
    6.1400   -3.8450   24.1250 C   0  0  0  0  0  0  0  0  0  0  0  0
    5.3680   -3.3180   25.4500 C   0  0  0  0  0  0  0  0  0  0  0  0
    4.5700   -2.4600   25.1100 O   0  0  0  0  0  0  0  0  0  0  0  0
    5.7550   -3.9100   26.5330 N   0  0  0  0  0  0  0  0  0  0  0  0
    6.3450   -4.7820   27.3560 C   0  0  0  0  0  0  0  0  0  0  0  0
    6.1780   -5.4960   28.4690 C   0  0  0  0  0  0  0  0  0  0  0  0
    5.6650   -4.5730   29.3490 C   0  0  0  0  0  0  0  0  0  0  0  0
    4.6580   -3.7710   28.6410 C   0  0  2  0  0  0  0  0  0  0  0  0
    3.6770   -4.6770   28.2170 O   0  0  0  0  0  0  0  0  0  0  0  0
    3.0510   -5.2310   29.3240 C   0  0  0  0  0  0  0  0  0  0  0  0
    3.2480   -6.6250   29.3710 C   0  0  0  0  0  0  0  0  0  0  0  0
    2.6990   -7.3990   30.4120 C   0  0  0  0  0  0  0  0  0  0  0  0
    1.9750   -6.8410   31.3890 N   0  0  0  0  0  0  0  0  0  0  0  0
    1.7610   -5.4210   31.3620 C   0  0  0  0  0  0  0  0  0  0  0  0
    0.9050   -4.8380   32.5330 C   0  0  0  0  0  0  0  0  0  0  0  0
    1.0030   -3.6220   32.8440 O   0  0  0  0  0  0  0  0  0  0  0  0
    0.0790   -5.6370   33.1890 N   0  0  0  0  0  0  0  0  0  0  0  0
   -1.3170   -5.3240   33.0200 C   0  0  0  0  0  0  0  0  0  0  0  0
    2.3160   -4.5910   30.2990 C   0  0  0  0  0  0  0  0  0  0  0  0
    5.3090   -2.9380   27.5600 C   0  0  0  0  0  0  0  0  0  0  0  0
    7.4390   -3.1980   23.7760 C   0  0  0  0  0  0  0  0  0  0  0  0
    7.5870   -3.2510   22.3850 C   0  0  0  0  0  0  0  0  0  0  0  0
  1  2  1  0
  2  3  2  0
  2  4  1  0
  4  5  1  0
  5  6  1  0
  6  7  1  0
  7  8  1  0
  8  9  2  0
  8 10  1  0
 10 11  1  0
 11 12  1  0
 12 13  1  0
 13 14  1  0
 14 15  1  6
 15 16  1  0
 16 17  2  0
 17 18  1  0
 18 19  2  0
 19 20  1  0
 20 21  1  0
 21 22  2  0
 21 23  1  0
 23 24  1  0
 16 25  1  0
 20 25  2  0
 10 26  1  0
 14 26  1  0
  7 27  1  0
  4 28  1  0
 27 28  1  0
M  END
