piperidine-amides-1535-covalent
     RDKit          3D

 21 22  0  0  0  0  0  0  0  0999 V2000
    7.0750   -3.3190   19.3580 C   0  0  0  0  0  0  0  0  0  0  0  0
    6.3600   -4.1870   20.3340 C   0  0  0  0  0  0  0  0  0  0  0  0
    5.3390   -4.7860   19.9640 O   0  0  0  0  0  0  0  0  0  0  0  0
    6.8740   -4.3630   21.6400 N   0  0  0  0  0  0  0  0  0  0  0  0
    6.5780   -5.5460   22.4050 C   0  0  0  0  0  0  0  0  0  0  0  0
    5.7690   -5.0790   23.6170 C   0  0  0  0  0  0  0  0  0  0  0  0
    6.4740   -3.8850   24.1760 C   0  0  0  0  0  0  0  0  0  0  0  0
    5.8010   -3.2960   25.3650 C   0  0  0  0  0  0  0  0  0  0  0  0
    4.5590   -3.2800   25.3930 O   0  0  0  0  0  0  0  0  0  0  0  0
    6.5850   -2.7950   26.4060 N   0  0  0  0  0  0  0  0  0  0  0  0
    6.4840   -1.5650   27.1180 C   0  0  0  0  0  0  0  0  0  0  0  0
    6.9520   -1.4320   28.4150 C   0  0  0  0  0  0  0  0  0  0  0  0
    6.8740   -0.2440   29.1620 C   0  0  0  0  0  0  0  0  0  0  0  0
    7.5100   -0.2310   30.8060 Cl  0  0  0  0  0  0  0  0  0  0  0  0
    6.3170    0.8920   28.6490 C   0  0  0  0  0  0  0  0  0  0  0  0
    5.7910    0.8540   27.2760 C   0  0  0  0  0  0  0  0  0  0  0  0
    5.2220    1.9880   26.7260 F   0  0  0  0  0  0  0  0  0  0  0  0
    5.8890   -0.4480   26.4860 C   0  0  0  0  0  0  0  0  0  0  0  0
    5.3930   -0.4850   25.1930 O   0  0  0  0  0  0  0  0  0  0  0  0
    6.7460   -2.7810   23.1970 C   0  0  0  0  0  0  0  0  0  0  0  0
    7.6260   -3.3180   22.2810 C   0  0  0  0  0  0  0  0  0  0  0  0
  1  2  1  0
  2  3  2  0
  2  4  1  0
  4  5  1  0
  5  6  1  0
  6  7  1  0
  7  8  1  0
  8  9  2  0
  8 10  1  0
 10 11  1  0
 11 12  2  0
 12 13  1  0
 13 14  1  0
 13 15  2  0
 15 16  1  0
 16 17  1  0
 11 18  1  0
 16 18  2  0
 18 19  1  0
  7 20  1  0
  4 21  1  0
 20 21  1  0
M  END
