piperidine-amides-184-covalent
     RDKit          3D

 20 21  0  0  0  0  0  0  0  0999 V2000
    7.1380   -3.3260   19.3970 C   0  0  0  0  0  0  0  0  0  0  0  0
    6.4420   -4.1610   20.3480 C   0  0  0  0  0  0  0  0  0  0  0  0
    5.3920   -4.7730   19.9660 O   0  0  0  0  0  0  0  0  0  0  0  0
    6.9180   -4.3580   21.6630 N   0  0  0  0  0  0  0  0  0  0  0  0
    7.6860   -3.2640   22.2970 C   0  0  0  0  0  0  0  0  0  0  0  0
    6.6080   -2.7250   23.3130 C   0  0  0  0  0  0  0  0  0  0  0  0
    6.2690   -3.9030   24.1990 C   0  0  0  0  0  0  0  0  0  0  0  0
    5.4600   -3.4010   25.4780 C   0  0  0  0  0  0  0  0  0  0  0  0
    4.3980   -4.0020   25.5320 O   0  0  0  0  0  0  0  0  0  0  0  0
    6.0760   -2.5010   26.1340 N   0  0  0  0  0  0  0  0  0  0  0  0
    6.6110   -1.5160   26.9070 C   0  0  2  0  0  0  0  0  0  0  0  0
    7.1160   -1.3970   28.2010 C   0  0  0  0  0  0  0  0  0  0  0  0
    6.5840   -0.4130   29.0820 C   0  0  0  0  0  0  0  0  0  0  0  0
    5.3530    0.2920   28.6930 C   0  0  0  0  0  0  0  0  0  0  0  0
    6.0460    0.8590   27.4600 C   0  0  0  0  0  0  0  0  0  0  0  0
    5.6880   -0.3020   26.7790 C   0  0  1  0  0  0  0  0  0  0  0  0
    5.4470   -0.1210   25.5630 O   0  0  0  0  0  0  0  0  0  0  0  0
    4.3390   -0.5840   24.9040 C   0  0  0  0  0  0  0  0  0  0  0  0
    5.7620   -5.1050   23.5820 C   0  0  0  0  0  0  0  0  0  0  0  0
    6.7230   -5.5150   22.4270 C   0  0  0  0  0  0  0  0  0  0  0  0
  1  2  1  0
  2  3  2  0
  2  4  1  0
  4  5  1  0
  5  6  1  0
  6  7  1  0
  7  8  1  0
  8  9  2  0
  8 10  1  0
 11 10  1  1
 11 12  1  0
 12 13  1  0
 13 14  1  0
 14 15  1  0
 11 16  1  0
 15 16  1  0
 16 17  1  6
 17 18  1  0
  7 19  1  0
  4 20  1  0
 19 20  1  0
M  END
