piperidine-amides-8822-covalent
     RDKit          3D

 22 22  0  0  0  0  0  0  0  0999 V2000
    7.0780   -3.3150   19.3380 C   0  0  0  0  0  0  0  0  0  0  0  0
    6.3360   -4.0900   20.3330 C   0  0  0  0  0  0  0  0  0  0  0  0
    5.3220   -4.6940   19.9400 O   0  0  0  0  0  0  0  0  0  0  0  0
    6.7880   -4.1800   21.6800 N   0  0  0  0  0  0  0  0  0  0  0  0
    7.6770   -3.1670   22.2090 C   0  0  0  0  0  0  0  0  0  0  0  0
    7.3470   -2.8860   23.6480 C   0  0  0  0  0  0  0  0  0  0  0  0
    6.0490   -3.6080   23.8950 C   0  0  0  0  0  0  0  0  0  0  0  0
    5.4910   -3.3310   25.2680 C   0  0  0  0  0  0  0  0  0  0  0  0
    4.3030   -3.0230   25.2940 O   0  0  0  0  0  0  0  0  0  0  0  0
    6.3100   -3.4150   26.3950 N   0  0  0  0  0  0  0  0  0  0  0  0
    6.1070   -4.3670   27.4560 C   0  0  1  0  0  0  0  0  0  0  0  0
    6.5540   -3.9700   28.7140 C   0  0  0  0  0  0  0  0  0  0  0  0
    6.5510   -2.6210   28.9700 C   0  0  0  0  0  0  0  0  0  0  0  0
    4.6520   -4.5860   27.5960 C   0  0  0  0  0  0  0  0  0  0  0  0
    4.1250   -3.8430   28.6450 O   0  0  0  0  0  0  0  0  0  0  0  0
    3.9530   -5.3390   26.8870 O   0  0  0  0  0  0  0  0  0  0  0  0
    3.9690   -6.7230   27.1760 C   0  0  0  0  0  0  0  0  0  0  0  0
    3.6080   -7.4790   25.8730 C   0  0  0  0  0  0  0  0  0  0  0  0
    5.1060   -7.0540   27.8830 C   0  0  0  0  0  0  0  0  0  0  0  0
    2.8040   -6.9880   28.0430 C   0  0  0  0  0  0  0  0  0  0  0  0
    6.0790   -5.0570   23.6700 C   0  0  0  0  0  0  0  0  0  0  0  0
    6.6280   -5.4020   22.4510 C   0  0  0  0  0  0  0  0  0  0  0  0
  1  2  1  0
  2  3  2  0
  2  4  1  0
  4  5  1  0
  5  6  1  0
  6  7  1  0
  7  8  1  0
  8  9  2  0
  8 10  1  0
 10 11  1  0
 11 12  1  1
 12 13  1  0
 11 14  1  0
 14 15  2  0
 14 16  1  0
 17 16  1  0
 17 18  1  0
 17 19  1  0
 17 20  1  0
  7 21  1  0
  4 22  1  0
 21 22  1  0
M  END
