piperidine-amides-21767-covalent
     RDKit          3D

 23 25  0  0  0  0  0  0  0  0999 V2000
    7.1780   -3.9980   19.6350 C   0  0  0  0  0  0  0  0  0  0  0  0
    6.0070   -3.9960   20.3690 C   0  0  0  0  0  0  0  0  0  0  0  0
    4.9820   -4.1030   19.6710 O   0  0  0  0  0  0  0  0  0  0  0  0
    6.1300   -4.0100   21.7280 N   0  0  0  0  0  0  0  0  0  0  0  0
    5.9440   -5.2720   22.3960 C   0  0  0  0  0  0  0  0  0  0  0  0
    5.6550   -4.9430   23.8170 C   0  0  0  0  0  0  0  0  0  0  0  0
    5.7530   -3.4440   24.0210 C   0  0  0  0  0  0  0  0  0  0  0  0
    5.4370   -3.0690   25.4100 C   0  0  0  0  0  0  0  0  0  0  0  0
    4.5330   -2.2280   25.5620 O   0  0  0  0  0  0  0  0  0  0  0  0
    6.0340   -3.5780   26.5630 N   0  0  0  0  0  0  0  0  0  0  0  0
    5.4650   -3.0920   27.7870 C   0  0  0  0  0  0  0  0  0  0  0  0
    5.9140   -3.9390   28.9340 C   0  0  0  0  0  0  0  0  0  0  0  0
    6.8570   -4.9030   28.7920 C   0  0  0  0  0  0  0  0  0  0  0  0
    6.9460   -5.5680   27.5990 C   0  0  0  0  0  0  0  0  0  0  0  0
    6.6170   -4.8810   26.4260 C   0  0  2  0  0  0  0  0  0  0  0  0
    7.5830   -4.8440   25.4450 C   0  0  0  0  0  0  0  0  0  0  0  0
    8.7410   -4.8050   26.0200 N   0  0  0  0  0  0  0  0  0  0  0  0
    9.8540   -4.3920   25.3830 C   0  0  0  0  0  0  0  0  0  0  0  0
   10.7960   -4.5050   26.3070 N   0  0  0  0  0  0  0  0  0  0  0  0
   10.1740   -4.9840   27.4870 C   0  0  0  0  0  0  0  0  0  0  0  0
    8.8620   -5.1740   27.2770 N   0  0  0  0  0  0  0  0  0  0  0  0
    7.0610   -2.8630   23.6000 C   0  0  0  0  0  0  0  0  0  0  0  0
    7.2740   -3.1980   22.1590 C   0  0  0  0  0  0  0  0  0  0  0  0
  1  2  1  0
  2  3  2  0
  2  4  1  0
  4  5  1  0
  5  6  1  0
  6  7  1  0
  7  8  1  0
  8  9  2  0
  8 10  1  0
 10 11  1  0
 11 12  1  0
 12 13  1  0
 13 14  1  0
 10 15  1  0
 14 15  1  0
 15 16  1  6
 16 17  1  0
 17 18  1  0
 18 19  2  0
 19 20  1  0
 17 21  1  0
 20 21  2  0
  7 22  1  0
  4 23  1  0
 22 23  1  0
M  END
