piperidine-amides-24976-covalent
     RDKit          3D

 25 28  0  0  0  0  0  0  0  0999 V2000
    7.0440   -3.3560   19.3340 C   0  0  0  0  0  0  0  0  0  0  0  0
    6.2920   -4.1800   20.2940 C   0  0  0  0  0  0  0  0  0  0  0  0
    5.2720   -4.7930   19.9460 O   0  0  0  0  0  0  0  0  0  0  0  0
    6.7400   -4.3260   21.6050 N   0  0  0  0  0  0  0  0  0  0  0  0
    6.5290   -5.5860   22.2930 C   0  0  0  0  0  0  0  0  0  0  0  0
    5.9310   -5.3200   23.6960 C   0  0  0  0  0  0  0  0  0  0  0  0
    5.9890   -3.8320   23.9690 C   0  0  0  0  0  0  0  0  0  0  0  0
    5.5970   -3.4680   25.3570 C   0  0  0  0  0  0  0  0  0  0  0  0
    4.5230   -2.8460   25.4880 O   0  0  0  0  0  0  0  0  0  0  0  0
    6.3810   -3.7980   26.5010 N   0  0  0  0  0  0  0  0  0  0  0  0
    7.1610   -5.0370   26.4370 C   0  0  0  0  0  0  0  0  0  0  0  0
    7.4200   -5.6650   27.8020 C   0  0  0  0  0  0  0  0  0  0  0  0
    6.4360   -5.4540   28.6590 C   0  0  0  0  0  0  0  0  0  0  0  0
    5.9890   -6.3400   29.6680 N   0  0  0  0  0  0  0  0  0  0  0  0
    4.9380   -5.6740   30.2810 C   0  0  0  0  0  0  0  0  0  0  0  0
    4.1860   -6.1840   31.3530 C   0  0  0  0  0  0  0  0  0  0  0  0
    3.1620   -5.4710   31.9190 C   0  0  0  0  0  0  0  0  0  0  0  0
    2.9450   -4.1330   31.2800 C   0  0  0  0  0  0  0  0  0  0  0  0
    1.8340   -3.9690   32.2890 C   0  0  0  0  0  0  0  0  0  0  0  0
    3.6460   -3.5060   30.1750 C   0  0  0  0  0  0  0  0  0  0  0  0
    4.6950   -4.4310   29.7250 C   0  0  0  0  0  0  0  0  0  0  0  0
    5.6090   -4.2310   28.6870 C   0  0  0  0  0  0  0  0  0  0  0  0
    5.8770   -3.2540   27.7780 C   0  0  0  0  0  0  0  0  0  0  0  0
    7.3540   -3.3230   23.6630 C   0  0  0  0  0  0  0  0  0  0  0  0
    7.5260   -3.2800   22.1860 C   0  0  0  0  0  0  0  0  0  0  0  0
  1  2  1  0
  2  3  2  0
  2  4  1  0
  4  5  1  0
  5  6  1  0
  6  7  1  0
  7  8  1  0
  8  9  2  0
  8 10  1  0
 10 11  1  0
 11 12  1  0
 12 13  1  0
 13 14  1  0
 14 15  1  0
 15 16  2  0
 16 17  1  0
 17 18  2  0
 18 19  1  0
 18 20  1  0
 15 21  1  0
 20 21  2  0
 13 22  2  0
 21 22  1  0
 10 23  1  0
 22 23  1  0
  7 24  1  0
  4 25  1  0
 24 25  1  0
M  END
