piperidine-amides-19519-covalent
     RDKit          3D

 22 25  0  0  0  0  0  0  0  0999 V2000
    7.1990   -5.1170   20.1040 C   0  0  0  0  0  0  0  0  0  0  0  0
    6.0980   -4.4280   20.5640 C   0  0  0  0  0  0  0  0  0  0  0  0
    5.1460   -4.2070   19.7630 O   0  0  0  0  0  0  0  0  0  0  0  0
    6.1260   -4.0630   21.8830 N   0  0  0  0  0  0  0  0  0  0  0  0
    6.2000   -5.2770   22.7110 C   0  0  0  0  0  0  0  0  0  0  0  0
    5.4910   -4.7030   23.9740 C   0  0  0  0  0  0  0  0  0  0  0  0
    6.4480   -3.6390   24.4580 C   0  0  0  0  0  0  0  0  0  0  0  0
    6.0670   -3.1470   25.9330 C   0  0  0  0  0  0  0  0  0  0  0  0
    5.8450   -1.9540   25.9870 O   0  0  0  0  0  0  0  0  0  0  0  0
    6.0930   -4.2060   26.6300 N   0  0  0  0  0  0  0  0  0  0  0  0
    6.1200   -5.4780   26.9800 C   0  0  0  0  0  0  0  0  0  0  0  0
    5.1170   -6.1170   27.5500 C   0  0  1  0  0  0  0  0  0  0  0  0
    5.5600   -6.7650   28.6970 C   0  0  0  0  0  0  0  0  0  0  0  0
    5.6620   -5.8610   29.8140 C   0  0  2  0  0  0  0  0  0  0  0  0
    4.1400   -5.9060   30.1670 C   0  0  0  0  0  0  0  0  0  0  0  0
    3.5920   -5.1650   29.0880 C   0  0  2  0  0  0  0  0  0  0  0  0
    4.1330   -5.2270   27.7980 C   0  0  0  0  0  0  0  0  0  0  0  0
    4.2260   -3.8470   28.6400 C   0  0  0  0  0  0  0  0  0  0  0  0
    5.4400   -4.3700   27.9000 C   0  0  2  0  0  0  0  0  0  0  0  0
    6.2920   -4.8140   28.8490 C   0  0  0  0  0  0  0  0  0  0  0  0
    6.7560   -2.5330   23.4680 C   0  0  0  0  0  0  0  0  0  0  0  0
    7.0590   -3.0140   22.2410 C   0  0  0  0  0  0  0  0  0  0  0  0
  1  2  1  0
  2  3  2  0
  2  4  1  0
  4  5  1  0
  5  6  1  0
  6  7  1  0
  7  8  1  0
  8  9  2  0
  8 10  1  0
 10 11  1  0
 12 11  1  1
 12 13  1  0
 14 13  1  6
 14 15  1  0
 16 15  1  1
 12 17  1  0
 16 17  1  0
 16 18  1  0
 10 19  1  0
 19 18  1  1
 14 20  1  0
 19 20  1  0
  7 21  1  0
  4 22  1  0
 21 22  1  0
M  END
