piperidine-amides-2780-covalent
     RDKit          3D

 24 25  0  0  0  0  0  0  0  0999 V2000
    7.0550   -3.3400   19.2940 C   0  0  0  0  0  0  0  0  0  0  0  0
    6.3690   -4.1560   20.2910 C   0  0  0  0  0  0  0  0  0  0  0  0
    5.3620   -4.7860   19.9700 O   0  0  0  0  0  0  0  0  0  0  0  0
    6.8900   -4.2680   21.6240 N   0  0  0  0  0  0  0  0  0  0  0  0
    7.7070   -3.2100   22.1690 C   0  0  0  0  0  0  0  0  0  0  0  0
    7.0680   -2.6420   23.3950 C   0  0  0  0  0  0  0  0  0  0  0  0
    6.5330   -3.7930   24.2180 C   0  0  0  0  0  0  0  0  0  0  0  0
    5.7660   -3.2100   25.3520 C   0  0  0  0  0  0  0  0  0  0  0  0
    4.5790   -2.8500   25.2450 O   0  0  0  0  0  0  0  0  0  0  0  0
    6.4180   -3.0750   26.5970 N   0  0  0  0  0  0  0  0  0  0  0  0
    6.4390   -1.8090   27.3000 C   0  0  0  0  0  0  0  0  0  0  0  0
    5.8250   -0.6520   26.5710 C   0  0  0  0  0  0  0  0  0  0  0  0
    5.7960    0.5930   27.1730 C   0  0  0  0  0  0  0  0  0  0  0  0
    6.3430    0.7530   28.4590 C   0  0  0  0  0  0  0  0  0  0  0  0
    6.3320    1.9800   29.0970 C   0  0  0  0  0  0  0  0  0  0  0  0
    5.3730    2.0960   30.1870 C   0  0  0  0  0  0  0  0  0  0  0  0
    5.6250    1.5170   31.2950 O   0  0  0  0  0  0  0  0  0  0  0  0
    4.2090    2.8200   30.0390 O   0  0  0  0  0  0  0  0  0  0  0  0
    2.9680    2.5050   30.5950 C   0  0  0  0  0  0  0  0  0  0  0  0
    6.9080   -0.3250   29.1160 C   0  0  0  0  0  0  0  0  0  0  0  0
    7.4300   -0.1470   30.3580 F   0  0  0  0  0  0  0  0  0  0  0  0
    6.9480   -1.5840   28.5280 C   0  0  0  0  0  0  0  0  0  0  0  0
    5.7710   -4.8170   23.5150 C   0  0  0  0  0  0  0  0  0  0  0  0
    6.5390   -5.3570   22.4940 C   0  0  0  0  0  0  0  0  0  0  0  0
  1  2  1  0
  2  3  2  0
  2  4  1  0
  4  5  1  0
  5  6  1  0
  6  7  1  0
  7  8  1  0
  8  9  2  0
  8 10  1  0
 10 11  1  0
 11 12  2  0
 12 13  1  0
 13 14  2  0
 14 15  1  0
 15 16  1  0
 16 17  2  0
 16 18  1  0
 18 19  1  0
 14 20  1  0
 20 21  1  0
 11 22  1  0
 20 22  2  0
  7 23  1  0
  4 24  1  0
 23 24  1  0
M  END
