piperidine-amides-24985-covalent
     RDKit          3D

 24 25  0  0  0  0  0  0  0  0999 V2000
    7.1040   -3.2800   19.2930 C   0  0  0  0  0  0  0  0  0  0  0  0
    6.3860   -4.1000   20.2780 C   0  0  0  0  0  0  0  0  0  0  0  0
    5.3500   -4.7200   19.9500 O   0  0  0  0  0  0  0  0  0  0  0  0
    6.8910   -4.2400   21.5790 N   0  0  0  0  0  0  0  0  0  0  0  0
    6.5920   -5.4220   22.3410 C   0  0  0  0  0  0  0  0  0  0  0  0
    5.7750   -4.9440   23.5440 C   0  0  0  0  0  0  0  0  0  0  0  0
    6.5410   -3.8120   24.2070 C   0  0  0  0  0  0  0  0  0  0  0  0
    5.7370   -3.2950   25.3340 C   0  0  0  0  0  0  0  0  0  0  0  0
    4.4990   -3.2490   25.1750 O   0  0  0  0  0  0  0  0  0  0  0  0
    6.3230   -2.8690   26.5520 N   0  0  0  0  0  0  0  0  0  0  0  0
    6.2230   -1.4720   26.8880 C   0  0  0  0  0  0  0  0  0  0  0  0
    5.8810   -1.8370   28.2350 C   0  0  0  0  0  0  0  0  0  0  0  0
    6.5320   -1.2390   29.2820 C   0  0  0  0  0  0  0  0  0  0  0  0
    5.7180   -1.3410   30.4300 N   0  0  0  0  0  0  0  0  0  0  0  0
    5.6210   -0.2070   31.2660 C   0  0  0  0  0  0  0  0  0  0  0  0
    5.2200    1.0270   30.7780 O   0  0  0  0  0  0  0  0  0  0  0  0
    5.9120   -0.2840   32.6000 O   0  0  0  0  0  0  0  0  0  0  0  0
    7.0300    0.3770   33.0720 C   0  0  0  0  0  0  0  0  0  0  0  0
    6.5810    1.6520   33.3070 C   0  0  0  0  0  0  0  0  0  0  0  0
    8.3140    0.5310   32.2480 C   0  0  0  0  0  0  0  0  0  0  0  0
    7.3930   -0.3070   34.3600 C   0  0  0  0  0  0  0  0  0  0  0  0
    6.1080   -3.1630   28.0300 C   0  0  0  0  0  0  0  0  0  0  0  0
    6.8230   -2.6890   23.2360 C   0  0  0  0  0  0  0  0  0  0  0  0
    7.6450   -3.1910   22.2230 C   0  0  0  0  0  0  0  0  0  0  0  0
  1  2  1  0
  2  3  2  0
  2  4  1  0
  4  5  1  0
  5  6  1  0
  6  7  1  0
  7  8  1  0
  8  9  2  0
  8 10  1  0
 10 11  1  0
 11 12  1  0
 12 13  1  0
 13 14  1  0
 14 15  1  0
 15 16  2  0
 15 17  1  0
 18 17  1  0
 18 19  1  0
 18 20  1  0
 18 21  1  0
 10 22  1  0
 12 22  1  0
  7 23  1  0
  4 24  1  0
 23 24  1  0
M  END
