piperidine-amides-4821-covalent
     RDKit          3D

 23 25  0  0  0  0  0  0  0  0999 V2000
    7.1570   -3.2530   19.1300 C   0  0  0  0  0  0  0  0  0  0  0  0
    6.3170   -3.9530   20.1240 C   0  0  0  0  0  0  0  0  0  0  0  0
    5.1930   -4.3430   19.7690 O   0  0  0  0  0  0  0  0  0  0  0  0
    6.8050   -4.2200   21.3960 N   0  0  0  0  0  0  0  0  0  0  0  0
    7.6170   -3.2630   22.0690 C   0  0  0  0  0  0  0  0  0  0  0  0
    7.5620   -3.2740   23.5290 C   0  0  0  0  0  0  0  0  0  0  0  0
    6.6560   -4.2540   24.1890 C   0  0  0  0  0  0  0  0  0  0  0  0
    5.8150   -3.5020   25.1220 C   0  0  0  0  0  0  0  0  0  0  0  0
    4.5710   -3.5130   24.9980 O   0  0  0  0  0  0  0  0  0  0  0  0
    6.4360   -2.7750   26.1220 N   0  0  0  0  0  0  0  0  0  0  0  0
    6.5520   -3.2580   27.4950 C   0  0  0  0  0  0  0  0  0  0  0  0
    7.6970   -4.2180   27.6170 C   0  0  0  0  0  0  0  0  0  0  0  0
    7.9780   -4.7140   28.7380 O   0  0  0  0  0  0  0  0  0  0  0  0
    8.4910   -4.6330   26.5780 O   0  0  0  0  0  0  0  0  0  0  0  0
    9.2510   -5.8100   26.7100 C   0  0  0  0  0  0  0  0  0  0  0  0
    6.7470   -1.9870   28.1380 C   0  0  0  0  0  0  0  0  0  0  0  0
    6.7930   -1.8440   29.3690 C   0  0  0  0  0  0  0  0  0  0  0  0
    8.1020   -1.9980   28.8430 C   0  0  0  0  0  0  0  0  0  0  0  0
    5.3330   -3.9490   27.9880 C   0  0  0  0  0  0  0  0  0  0  0  0
    5.1670   -5.1640   27.7720 C   0  0  0  0  0  0  0  0  0  0  0  0
    5.2950   -4.8440   29.1550 C   0  0  0  0  0  0  0  0  0  0  0  0
    5.8340   -5.1480   23.3410 C   0  0  0  0  0  0  0  0  0  0  0  0
    6.5510   -5.4730   22.0730 C   0  0  0  0  0  0  0  0  0  0  0  0
  1  2  1  0
  2  3  2  0
  2  4  1  0
  4  5  1  0
  5  6  1  0
  6  7  1  0
  7  8  1  0
  8  9  2  0
  8 10  1  0
 10 11  1  0
 11 12  1  0
 12 13  2  0
 12 14  1  0
 14 15  1  0
 11 16  1  0
 16 17  1  0
 16 18  1  0
 17 18  1  0
 11 19  1  0
 19 20  1  0
 19 21  1  0
 20 21  1  0
  7 22  1  0
  4 23  1  0
 22 23  1  0
M  END
