piperidine-amides-34080-covalent
     RDKit          3D

 29 31  0  0  0  0  0  0  0  0999 V2000
    7.0460   -3.3290   19.3690 C   0  0  0  0  0  0  0  0  0  0  0  0
    6.3770   -4.1980   20.3510 C   0  0  0  0  0  0  0  0  0  0  0  0
    5.4020   -4.8990   19.9960 O   0  0  0  0  0  0  0  0  0  0  0  0
    6.8430   -4.2870   21.6780 N   0  0  0  0  0  0  0  0  0  0  0  0
    6.7170   -5.5600   22.3640 C   0  0  0  0  0  0  0  0  0  0  0  0
    6.2090   -5.2970   23.7920 C   0  0  0  0  0  0  0  0  0  0  0  0
    6.1510   -3.7980   23.9460 C   0  0  0  0  0  0  0  0  0  0  0  0
    5.5870   -3.3610   25.2440 C   0  0  0  0  0  0  0  0  0  0  0  0
    4.6520   -2.5400   25.2000 O   0  0  0  0  0  0  0  0  0  0  0  0
    6.0470   -3.8350   26.4940 N   0  0  0  0  0  0  0  0  0  0  0  0
    6.3990   -2.8370   27.4450 C   0  0  0  0  0  0  0  0  0  0  0  0
    6.7270   -3.5000   28.7670 C   0  0  0  0  0  0  0  0  0  0  0  0
    5.8420   -4.3580   29.2790 C   0  0  0  0  0  0  0  0  0  0  0  0
    4.9000   -4.7890   28.4190 C   0  0  2  0  0  0  0  0  0  0  0  0
    4.0160   -5.7550   28.9030 C   0  0  0  0  0  0  0  0  0  0  0  0
    3.2650   -5.0780   29.7930 N   0  0  0  0  0  0  0  0  0  0  0  0
    2.1400   -5.9340   30.6870 S   0  0  0  0  0  0  0  0  0  0  0  0
    2.8690   -6.7900   31.6910 O   0  0  0  0  0  0  0  0  0  0  0  0
    1.2300   -4.9630   31.3850 O   0  0  0  0  0  0  0  0  0  0  0  0
    1.1960   -6.9910   29.6220 C   0  0  0  0  0  0  0  0  0  0  0  0
    2.0730   -8.2210   29.1800 C   0  0  0  0  0  0  0  0  0  0  0  0
    1.0350   -8.9450   28.2870 C   0  0  0  0  0  0  0  0  0  0  0  0
   -0.3290   -8.4420   28.0580 C   0  0  0  0  0  0  0  0  0  0  0  0
   -0.5470   -9.6110   27.2060 C   0  0  0  0  0  0  0  0  0  0  0  0
   -0.9240   -7.3390   28.5360 C   0  0  0  0  0  0  0  0  0  0  0  0
   -0.1260   -6.6300   29.3200 C   0  0  0  0  0  0  0  0  0  0  0  0
    5.5130   -5.0150   27.0690 C   0  0  0  0  0  0  0  0  0  0  0  0
    7.4890   -3.1540   23.7100 C   0  0  0  0  0  0  0  0  0  0  0  0
    7.7010   -3.2330   22.1960 C   0  0  0  0  0  0  0  0  0  0  0  0
  1  2  1  0
  2  3  2  0
  2  4  1  0
  4  5  1  0
  5  6  1  0
  6  7  1  0
  7  8  1  0
  8  9  2  0
  8 10  1  0
 10 11  1  0
 11 12  1  0
 12 13  1  0
 13 14  1  0
 14 15  1  1
 15 16  1  0
 17 16  1  0
 17 18  2  0
 17 19  2  0
 17 20  1  0
 20 21  2  0
 21 22  1  0
 22 23  2  0
 23 24  1  0
 23 25  1  0
 20 26  1  0
 25 26  2  0
 10 27  1  0
 14 27  1  0
  7 28  1  0
  4 29  1  0
 28 29  1  0
M  END
