piperidine-amides-9265-covalent
     RDKit          3D

 20 21  0  0  0  0  0  0  0  0999 V2000
    7.0530   -3.3620   19.3400 C   0  0  0  0  0  0  0  0  0  0  0  0
    6.3450   -4.1530   20.3480 C   0  0  0  0  0  0  0  0  0  0  0  0
    5.3760   -4.8440   19.9830 O   0  0  0  0  0  0  0  0  0  0  0  0
    6.7640   -4.1810   21.6900 N   0  0  0  0  0  0  0  0  0  0  0  0
    7.7130   -3.2090   22.2200 C   0  0  0  0  0  0  0  0  0  0  0  0
    7.3570   -2.9800   23.6630 C   0  0  0  0  0  0  0  0  0  0  0  0
    6.0470   -3.6160   23.9930 C   0  0  0  0  0  0  0  0  0  0  0  0
    5.5160   -3.2800   25.3440 C   0  0  0  0  0  0  0  0  0  0  0  0
    4.2640   -3.2750   25.5230 O   0  0  0  0  0  0  0  0  0  0  0  0
    6.3020   -2.9610   26.4780 N   0  0  0  0  0  0  0  0  0  0  0  0
    6.7690   -1.5700   26.7280 C   0  0  1  0  0  0  0  0  0  0  0  0
    5.7440   -0.5410   26.4110 C   0  0  0  0  0  0  0  0  0  0  0  0
    5.5890    0.3660   27.5700 C   0  0  0  0  0  0  0  0  0  0  0  0
    6.3600   -0.1910   28.6760 N   0  0  0  0  0  0  0  0  0  0  0  0
    5.3180   -0.5330   29.6910 C   0  0  0  0  0  0  0  0  0  0  0  0
    5.7500   -0.3170   31.1280 C   0  0  0  0  0  0  0  0  0  0  0  0
    5.8260    1.1490   31.3290 C   0  0  0  0  0  0  0  0  0  0  0  0
    6.9930   -1.2950   28.2380 C   0  0  0  0  0  0  0  0  0  0  0  0
    6.0960   -5.1110   23.8020 C   0  0  0  0  0  0  0  0  0  0  0  0
    6.6520   -5.4310   22.4260 C   0  0  0  0  0  0  0  0  0  0  0  0
  1  2  1  0
  2  3  2  0
  2  4  1  0
  4  5  1  0
  5  6  1  0
  6  7  1  0
  7  8  1  0
  8  9  2  0
  8 10  1  0
 11 10  1  1
 11 12  1  0
 12 13  1  0
 13 14  1  0
 14 15  1  0
 15 16  1  0
 16 17  1  0
 11 18  1  0
 14 18  1  0
  7 19  1  0
  4 20  1  0
 19 20  1  0
M  END
