piperidine-amides-6342-covalent
     RDKit          3D

 25 27  0  0  0  0  0  0  0  0999 V2000
    7.0700   -3.3020   19.2510 C   0  0  0  0  0  0  0  0  0  0  0  0
    6.3650   -4.1040   20.2670 C   0  0  0  0  0  0  0  0  0  0  0  0
    5.3470   -4.7590   19.9520 O   0  0  0  0  0  0  0  0  0  0  0  0
    6.8410   -4.1770   21.5790 N   0  0  0  0  0  0  0  0  0  0  0  0
    7.6910   -3.1050   22.0630 C   0  0  0  0  0  0  0  0  0  0  0  0
    7.6130   -3.1420   23.5840 C   0  0  0  0  0  0  0  0  0  0  0  0
    6.2120   -3.5990   23.8950 C   0  0  0  0  0  0  0  0  0  0  0  0
    5.9060   -3.3370   25.3100 C   0  0  0  0  0  0  0  0  0  0  0  0
    4.9090   -3.8790   25.8310 O   0  0  0  0  0  0  0  0  0  0  0  0
    6.7580   -2.4740   26.0320 N   0  0  0  0  0  0  0  0  0  0  0  0
    6.2220   -1.3530   26.7420 C   0  0  0  0  0  0  0  0  0  0  0  0
    5.1300   -0.7420   25.8820 C   0  0  0  0  0  0  0  0  0  0  0  0
    5.3270    0.0470   24.7090 N   0  0  0  0  0  0  0  0  0  0  0  0
    4.0460    0.4360   24.1720 C   0  0  0  0  0  0  0  0  0  0  0  0
    3.1610   -0.1520   25.0730 C   0  0  0  0  0  0  0  0  0  0  0  0
    1.7880   -0.0070   24.8990 C   0  0  0  0  0  0  0  0  0  0  0  0
    1.2490    0.8380   24.0420 C   0  0  0  0  0  0  0  0  0  0  0  0
   -0.1830    1.1190   23.7290 C   0  0  0  0  0  0  0  0  0  0  0  0
   -0.8370    0.1100   24.7250 C   0  0  0  0  0  0  0  0  0  0  0  0
   -0.3960   -0.9360   25.7850 C   0  0  0  0  0  0  0  0  0  0  0  0
   -1.4230   -2.0870   26.9200 Br  0  0  0  0  0  0  0  0  0  0  0  0
    1.0550   -0.8020   25.6810 C   0  0  0  0  0  0  0  0  0  0  0  0
    3.7540   -0.8750   26.1300 O   0  0  0  0  0  0  0  0  0  0  0  0
    6.1110   -5.0700   23.6130 C   0  0  0  0  0  0  0  0  0  0  0  0
    6.5550   -5.3460   22.3470 C   0  0  0  0  0  0  0  0  0  0  0  0
  1  2  1  0
  2  3  2  0
  2  4  1  0
  4  5  1  0
  5  6  1  0
  6  7  1  0
  7  8  1  0
  8  9  2  0
  8 10  1  0
 10 11  1  0
 11 12  1  0
 12 13  2  0
 13 14  1  0
 14 15  2  0
 15 16  1  0
 16 17  2  0
 17 18  1  0
 18 19  2  0
 19 20  1  0
 20 21  1  0
 16 22  1  0
 20 22  2  0
 12 23  1  0
 15 23  1  0
  7 24  1  0
  4 25  1  0
 24 25  1  0
M  END
