piperidine-amides-4503-covalent
     RDKit          3D

 25 26  0  0  0  0  0  0  0  0999 V2000
    7.0870   -3.3180   19.2440 C   0  0  0  0  0  0  0  0  0  0  0  0
    6.3450   -4.0620   20.2870 C   0  0  0  0  0  0  0  0  0  0  0  0
    5.2900   -4.6090   19.9110 O   0  0  0  0  0  0  0  0  0  0  0  0
    6.8370   -4.1830   21.6020 N   0  0  0  0  0  0  0  0  0  0  0  0
    6.5790   -5.3640   22.3600 C   0  0  0  0  0  0  0  0  0  0  0  0
    6.0520   -5.0520   23.6880 C   0  0  0  0  0  0  0  0  0  0  0  0
    6.0220   -3.6010   23.9520 C   0  0  0  0  0  0  0  0  0  0  0  0
    5.5660   -3.3010   25.3380 C   0  0  0  0  0  0  0  0  0  0  0  0
    4.3570   -3.0530   25.4940 O   0  0  0  0  0  0  0  0  0  0  0  0
    6.4320   -3.2820   26.4500 N   0  0  0  0  0  0  0  0  0  0  0  0
    6.1650   -4.0350   27.7060 C   0  0  0  0  0  0  0  0  0  0  0  0
    6.0090   -5.5170   27.5000 C   0  0  0  0  0  0  0  0  0  0  0  0
    4.9170   -6.0990   27.7610 O   0  0  0  0  0  0  0  0  0  0  0  0
    4.5590   -6.1470   29.0170 C   0  0  0  0  0  0  0  0  0  0  0  0
    3.3460   -5.8160   29.5450 C   0  0  0  0  0  0  0  0  0  0  0  0
    2.9330   -5.8490   30.8590 C   0  0  0  0  0  0  0  0  0  0  0  0
    1.6530   -5.4840   31.3000 O   0  0  0  0  0  0  0  0  0  0  0  0
    1.3450   -5.7770   32.6500 C   0  0  0  0  0  0  0  0  0  0  0  0
    3.9840   -6.3200   31.8330 C   0  0  0  0  0  0  0  0  0  0  0  0
    5.1940   -6.6460   31.2640 C   0  0  0  0  0  0  0  0  0  0  0  0
    6.1330   -7.0710   32.1930 O   0  0  0  0  0  0  0  0  0  0  0  0
    5.6420   -8.0970   32.9700 C   0  0  0  0  0  0  0  0  0  0  0  0
    5.4650   -6.5630   29.9170 C   0  0  0  0  0  0  0  0  0  0  0  0
    7.3050   -2.9120   23.6380 C   0  0  0  0  0  0  0  0  0  0  0  0
    7.6890   -3.1590   22.1940 C   0  0  0  0  0  0  0  0  0  0  0  0
  1  2  1  0
  2  3  2  0
  2  4  1  0
  4  5  1  0
  5  6  1  0
  6  7  1  0
  7  8  1  0
  8  9  2  0
  8 10  1  0
 10 11  1  0
 11 12  1  0
 12 13  1  0
 13 14  1  0
 14 15  2  0
 15 16  1  0
 16 17  1  0
 17 18  1  0
 16 19  2  0
 19 20  1  0
 20 21  1  0
 21 22  1  0
 14 23  1  0
 20 23  2  0
  7 24  1  0
  4 25  1  0
 24 25  1  0
M  END
