piperidine-amides-24363-covalent
     RDKit          3D

 24 27  0  0  0  0  0  0  0  0999 V2000
    7.1210   -3.3220   19.3050 C   0  0  0  0  0  0  0  0  0  0  0  0
    6.4210   -4.1800   20.2640 C   0  0  0  0  0  0  0  0  0  0  0  0
    5.3540   -4.7500   19.9550 O   0  0  0  0  0  0  0  0  0  0  0  0
    6.9880   -4.4260   21.5180 N   0  0  0  0  0  0  0  0  0  0  0  0
    6.5340   -5.5790   22.2370 C   0  0  0  0  0  0  0  0  0  0  0  0
    5.6550   -4.9920   23.3350 C   0  0  0  0  0  0  0  0  0  0  0  0
    6.5670   -4.1270   24.1720 C   0  0  0  0  0  0  0  0  0  0  0  0
    5.7600   -3.4990   25.2260 C   0  0  0  0  0  0  0  0  0  0  0  0
    4.9360   -2.6320   24.8700 O   0  0  0  0  0  0  0  0  0  0  0  0
    5.8680   -3.8470   26.5800 N   0  0  0  0  0  0  0  0  0  0  0  0
    6.4080   -2.8140   27.4040 C   0  0  0  0  0  0  0  0  0  0  0  0
    6.8400   -3.3630   28.7420 C   0  0  0  0  0  0  0  0  0  0  0  0
    5.6560   -3.8200   29.4160 N   0  0  0  0  0  0  0  0  0  0  0  0
    4.5060   -2.9550   29.6870 C   0  0  0  0  0  0  0  0  0  0  0  0
    3.4970   -3.6360   30.3480 C   0  0  2  0  0  0  0  0  0  0  0  0
    3.6430   -5.0110   30.6410 C   0  0  0  0  0  0  0  0  0  0  0  0
    2.8960   -4.6320   31.6470 C   0  0  2  0  0  0  0  0  0  0  0  0
    1.8360   -3.6850   31.1200 C   0  0  0  0  0  0  0  0  0  0  0  0
    2.2100   -3.2560   30.0180 O   0  0  0  0  0  0  0  0  0  0  0  0
    3.2430   -3.1840   31.6570 C   0  0  0  0  0  0  0  0  0  0  0  0
    5.2650   -4.9400   28.5950 C   0  0  0  0  0  0  0  0  0  0  0  0
    4.7800   -4.4490   27.3210 C   0  0  0  0  0  0  0  0  0  0  0  0
    7.1650   -3.0040   23.3750 C   0  0  0  0  0  0  0  0  0  0  0  0
    7.6760   -3.3670   22.1710 C   0  0  0  0  0  0  0  0  0  0  0  0
  1  2  1  0
  2  3  2  0
  2  4  1  0
  4  5  1  0
  5  6  1  0
  6  7  1  0
  7  8  1  0
  8  9  2  0
  8 10  1  0
 10 11  1  0
 11 12  1  0
 12 13  1  0
 13 14  1  0
 15 14  1  6
 15 16  1  0
 17 16  1  6
 17 18  1  0
 15 19  1  0
 18 19  1  0
 15 20  1  0
 17 20  1  0
 13 21  1  0
 10 22  1  0
 21 22  1  0
  7 23  1  0
  4 24  1  0
 23 24  1  0
M  END
