piperidine-amides-361-covalent
     RDKit          3D

 28 29  0  0  0  0  0  0  0  0999 V2000
    7.0660   -3.3210   19.1520 C   0  0  0  0  0  0  0  0  0  0  0  0
    6.2820   -3.9720   20.1860 C   0  0  0  0  0  0  0  0  0  0  0  0
    5.1990   -4.5260   19.8550 O   0  0  0  0  0  0  0  0  0  0  0  0
    6.6940   -4.0580   21.5200 N   0  0  0  0  0  0  0  0  0  0  0  0
    6.5970   -5.4010   22.1470 C   0  0  0  0  0  0  0  0  0  0  0  0
    5.8910   -5.0690   23.5190 C   0  0  0  0  0  0  0  0  0  0  0  0
    6.1450   -3.6000   23.7530 C   0  0  0  0  0  0  0  0  0  0  0  0
    5.6860   -3.1180   25.1840 C   0  0  0  0  0  0  0  0  0  0  0  0
    4.9420   -2.1510   25.1020 O   0  0  0  0  0  0  0  0  0  0  0  0
    6.2060   -3.8790   26.0530 N   0  0  0  0  0  0  0  0  0  0  0  0
    6.6280   -4.6800   27.0660 C   0  0  2  0  0  0  0  0  0  0  0  0
    7.5260   -5.6640   27.3510 C   0  0  0  0  0  0  0  0  0  0  0  0
    8.4870   -6.0690   26.4210 O   0  0  0  0  0  0  0  0  0  0  0  0
    7.3070   -6.1970   28.7000 N   0  0  0  0  0  0  0  0  0  0  0  0
    6.1960   -6.8910   29.0830 C   0  0  0  0  0  0  0  0  0  0  0  0
    5.6030   -5.9910   30.1020 C   0  0  0  0  0  0  0  0  0  0  0  0
    4.2830   -6.2110   30.0630 N   0  0  0  0  0  0  0  0  0  0  0  0
    3.8270   -7.4220   29.9630 C   0  0  0  0  0  0  0  0  0  0  0  0
    2.7910   -7.7580   30.8400 C   0  0  0  0  0  0  0  0  0  0  0  0
    2.0700   -6.6760   31.3900 O   0  0  0  0  0  0  0  0  0  0  0  0
    2.5740   -5.4120   31.6250 C   0  0  0  0  0  0  0  0  0  0  0  0
    3.4890   -5.0730   30.4490 C   0  0  0  0  0  0  0  0  0  0  0  0
    5.2930   -5.3470   27.4320 C   0  0  1  0  0  0  0  0  0  0  0  0
    5.4210   -4.0660   27.9250 C   0  0  0  0  0  0  0  0  0  0  0  0
    4.5170   -5.6840   26.2160 C   0  0  0  0  0  0  0  0  0  0  0  0
    3.1720   -5.5180   26.2270 C   0  0  0  0  0  0  0  0  0  0  0  0
    7.4760   -3.0900   23.3910 C   0  0  0  0  0  0  0  0  0  0  0  0
    7.6420   -3.1170   22.0340 C   0  0  0  0  0  0  0  0  0  0  0  0
  1  2  1  0
  2  3  2  0
  2  4  1  0
  4  5  1  0
  5  6  1  0
  6  7  1  0
  7  8  1  0
  8  9  2  0
  8 10  1  0
 11 10  1  6
 11 12  1  0
 12 13  2  0
 12 14  1  0
 14 15  1  0
 15 16  1  0
 16 17  1  0
 17 18  1  0
 18 19  1  0
 19 20  1  0
 20 21  1  0
 17 22  1  0
 21 22  1  0
 11 23  1  0
 23 24  1  1
 23 25  1  0
 25 26  1  0
  7 27  1  0
  4 28  1  0
 27 28  1  0
M  END
