piperidine-amides-31840-covalent
     RDKit          3D

 28 30  0  0  0  0  0  0  0  0999 V2000
    6.9830   -3.4230   19.3350 C   0  0  0  0  0  0  0  0  0  0  0  0
    6.3190   -4.2190   20.3450 C   0  0  0  0  0  0  0  0  0  0  0  0
    5.3400   -4.9260   19.9840 O   0  0  0  0  0  0  0  0  0  0  0  0
    6.7340   -4.2730   21.6880 N   0  0  0  0  0  0  0  0  0  0  0  0
    6.6580   -5.6100   22.3480 C   0  0  0  0  0  0  0  0  0  0  0  0
    5.8400   -5.3080   23.6750 C   0  0  0  0  0  0  0  0  0  0  0  0
    6.0690   -3.8560   23.9860 C   0  0  0  0  0  0  0  0  0  0  0  0
    5.4700   -3.3480   25.3820 C   0  0  0  0  0  0  0  0  0  0  0  0
    4.6160   -2.5040   25.1720 O   0  0  0  0  0  0  0  0  0  0  0  0
    6.0190   -3.9210   26.3800 N   0  0  0  0  0  0  0  0  0  0  0  0
    6.8700   -4.5470   27.1890 C   0  0  0  0  0  0  0  0  0  0  0  0
    6.6960   -5.4290   28.1490 C   0  0  0  0  0  0  0  0  0  0  0  0
    5.5060   -4.8770   28.5820 C   0  0  0  0  0  0  0  0  0  0  0  0
    5.1980   -3.7290   27.6560 C   0  0  2  0  0  0  0  0  0  0  0  0
    3.7630   -4.2470   27.4360 C   0  0  0  0  0  0  0  0  0  0  0  0
    2.9620   -3.3770   28.1920 C   0  0  0  0  0  0  0  0  0  0  0  0
    3.4640   -2.4410   28.8480 O   0  0  0  0  0  0  0  0  0  0  0  0
    3.3110   -1.1160   28.5420 C   0  0  0  0  0  0  0  0  0  0  0  0
    1.4950   -3.6690   28.1400 C   0  0  0  0  0  0  0  0  0  0  0  0
    1.0230   -4.8770   27.2750 C   0  0  0  0  0  0  0  0  0  0  0  0
   -0.1970   -5.1560   27.1990 O   0  0  0  0  0  0  0  0  0  0  0  0
   -0.9010   -5.1600   25.9630 C   0  0  0  0  0  0  0  0  0  0  0  0
    2.0080   -5.6870   26.5460 C   0  0  0  0  0  0  0  0  0  0  0  0
    3.3460   -5.4500   26.5710 C   0  0  0  0  0  0  0  0  0  0  0  0
    4.1350   -6.1620   25.9350 O   0  0  0  0  0  0  0  0  0  0  0  0
    3.7150   -7.1790   25.0310 C   0  0  0  0  0  0  0  0  0  0  0  0
    7.3820   -3.2820   23.6650 C   0  0  0  0  0  0  0  0  0  0  0  0
    7.6010   -3.2480   22.2020 C   0  0  0  0  0  0  0  0  0  0  0  0
  1  2  1  0
  2  3  2  0
  2  4  1  0
  4  5  1  0
  5  6  1  0
  6  7  1  0
  7  8  1  0
  8  9  2  0
  8 10  1  0
 10 11  1  0
 11 12  1  0
 12 13  1  0
 10 14  1  0
 13 14  1  0
 14 15  1  6
 15 16  2  0
 16 17  1  0
 17 18  1  0
 16 19  1  0
 19 20  2  0
 20 21  1  0
 21 22  1  0
 20 23  1  0
 15 24  1  0
 23 24  2  0
 24 25  1  0
 25 26  1  0
  7 27  1  0
  4 28  1  0
 27 28  1  0
M  END
