piperidine-amides-13678-covalent
     RDKit          3D

 27 29  0  0  0  0  0  0  0  0999 V2000
    7.0750   -3.3370   19.3310 C   0  0  0  0  0  0  0  0  0  0  0  0
    6.3250   -4.1470   20.3270 C   0  0  0  0  0  0  0  0  0  0  0  0
    5.3110   -4.7590   19.9580 O   0  0  0  0  0  0  0  0  0  0  0  0
    6.8240   -4.2370   21.6470 N   0  0  0  0  0  0  0  0  0  0  0  0
    7.6550   -3.1730   22.1880 C   0  0  0  0  0  0  0  0  0  0  0  0
    7.5320   -3.1550   23.7160 C   0  0  0  0  0  0  0  0  0  0  0  0
    6.1930   -3.7050   24.0400 C   0  0  0  0  0  0  0  0  0  0  0  0
    5.7020   -3.3360   25.3850 C   0  0  0  0  0  0  0  0  0  0  0  0
    4.4950   -3.5180   25.5820 O   0  0  0  0  0  0  0  0  0  0  0  0
    6.5530   -2.7950   26.3520 N   0  0  0  0  0  0  0  0  0  0  0  0
    6.4250   -1.4890   26.8830 C   0  0  0  0  0  0  0  0  0  0  0  0
    6.1130   -0.3100   26.2370 C   0  0  0  0  0  0  0  0  0  0  0  0
    6.0020    0.9380   26.8790 C   0  0  0  0  0  0  0  0  0  0  0  0
    6.1940    1.0940   28.2260 C   0  0  0  0  0  0  0  0  0  0  0  0
    6.0800    2.4040   28.9220 C   0  0  0  0  0  0  0  0  0  0  0  0
    6.5100    0.0440   29.0570 C   0  0  0  0  0  0  0  0  0  0  0  0
    6.7520    0.1650   30.7980 S   0  0  0  0  0  0  0  0  0  0  0  0
    7.8820   -0.7560   31.1460 O   0  0  0  0  0  0  0  0  0  0  0  0
    7.1370    1.5720   31.1340 O   0  0  0  0  0  0  0  0  0  0  0  0
    5.2680   -0.3370   31.6960 C   0  0  0  0  0  0  0  0  0  0  0  0
    5.2410   -0.0740   33.0260 C   0  0  0  0  0  0  0  0  0  0  0  0
    4.1260    0.7760   33.4760 C   0  0  0  0  0  0  0  0  0  0  0  0
    3.6730    1.0000   32.0220 C   0  0  0  0  0  0  0  0  0  0  0  0
    4.2420    0.2470   31.0030 C   0  0  0  0  0  0  0  0  0  0  0  0
    6.6280   -1.2540   28.3550 C   0  0  0  0  0  0  0  0  0  0  0  0
    6.0920   -5.1690   23.7890 C   0  0  0  0  0  0  0  0  0  0  0  0
    6.6730   -5.4680   22.4070 C   0  0  0  0  0  0  0  0  0  0  0  0
  1  2  1  0
  2  3  2  0
  2  4  1  0
  4  5  1  0
  5  6  1  0
  6  7  1  0
  7  8  1  0
  8  9  2  0
  8 10  1  0
 10 11  1  0
 11 12  2  0
 12 13  1  0
 13 14  2  0
 14 15  1  0
 14 16  1  0
 17 16  1  0
 17 18  2  0
 17 19  2  0
 17 20  1  0
 20 21  1  0
 21 22  1  0
 22 23  1  0
 20 24  1  0
 23 24  1  0
 11 25  1  0
 16 25  2  0
  7 26  1  0
  4 27  1  0
 26 27  1  0
M  END
