piperidine-amides-5175-covalent
     RDKit          3D

 22 23  0  0  0  0  0  0  0  0999 V2000
    7.0870   -3.2700   19.1500 C   0  0  0  0  0  0  0  0  0  0  0  0
    6.3190   -4.0010   20.1830 C   0  0  0  0  0  0  0  0  0  0  0  0
    5.2190   -4.4580   19.8340 O   0  0  0  0  0  0  0  0  0  0  0  0
    6.8280   -4.2290   21.4660 N   0  0  0  0  0  0  0  0  0  0  0  0
    7.5660   -3.1980   22.1230 C   0  0  0  0  0  0  0  0  0  0  0  0
    7.1630   -2.9180   23.5080 C   0  0  0  0  0  0  0  0  0  0  0  0
    6.4360   -4.0090   24.2010 C   0  0  0  0  0  0  0  0  0  0  0  0
    5.7350   -3.5080   25.4120 C   0  0  0  0  0  0  0  0  0  0  0  0
    4.5200   -3.2420   25.3170 O   0  0  0  0  0  0  0  0  0  0  0  0
    6.4110   -3.3250   26.6320 N   0  0  0  0  0  0  0  0  0  0  0  0
    6.1380   -4.0980   27.8740 C   0  0  0  0  0  0  0  0  0  0  0  0
    6.1600   -5.5920   27.7330 C   0  0  1  0  0  0  0  0  0  0  0  0
    7.0740   -6.2580   28.2850 O   0  0  0  0  0  0  0  0  0  0  0  0
    4.9560   -6.3170   28.1120 C   0  0  0  0  0  0  0  0  0  0  0  0
    3.8980   -6.5050   27.2620 C   0  0  0  0  0  0  0  0  0  0  0  0
    2.7370   -7.1740   27.5670 C   0  0  0  0  0  0  0  0  0  0  0  0
    2.6400   -7.6910   28.8180 C   0  0  0  0  0  0  0  0  0  0  0  0
    1.1710   -8.5660   29.2950 Cl  0  0  0  0  0  0  0  0  0  0  0  0
    3.6750   -7.5280   29.6930 C   0  0  0  0  0  0  0  0  0  0  0  0
    4.8320   -6.8560   29.3760 C   0  0  0  0  0  0  0  0  0  0  0  0
    5.5150   -4.7400   23.2770 C   0  0  0  0  0  0  0  0  0  0  0  0
    6.3860   -5.3510   22.2570 C   0  0  0  0  0  0  0  0  0  0  0  0
  1  2  1  0
  2  3  2  0
  2  4  1  0
  4  5  1  0
  5  6  1  0
  6  7  1  0
  7  8  1  0
  8  9  2  0
  8 10  1  0
 10 11  1  0
 11 12  1  0
 12 13  1  1
 12 14  1  0
 14 15  2  0
 15 16  1  0
 16 17  2  0
 17 18  1  0
 17 19  1  0
 14 20  1  0
 19 20  2  0
  7 21  1  0
  4 22  1  0
 21 22  1  0
M  END
