piperidine-amides-3815-covalent
     RDKit          3D

 20 21  0  0  0  0  0  0  0  0999 V2000
    7.1430   -3.2550   19.1700 C   0  0  0  0  0  0  0  0  0  0  0  0
    6.3510   -3.9920   20.1690 C   0  0  0  0  0  0  0  0  0  0  0  0
    5.2330   -4.4290   19.8190 O   0  0  0  0  0  0  0  0  0  0  0  0
    6.8540   -4.2530   21.4600 N   0  0  0  0  0  0  0  0  0  0  0  0
    6.1160   -5.2040   22.2090 C   0  0  0  0  0  0  0  0  0  0  0  0
    5.4150   -4.6230   23.3570 C   0  0  0  0  0  0  0  0  0  0  0  0
    6.2170   -3.6440   24.1230 C   0  0  0  0  0  0  0  0  0  0  0  0
    5.5220   -3.0540   25.3030 C   0  0  0  0  0  0  0  0  0  0  0  0
    4.2810   -2.9400   25.3350 O   0  0  0  0  0  0  0  0  0  0  0  0
    6.3170   -2.6390   26.3770 N   0  0  0  0  0  0  0  0  0  0  0  0
    7.6310   -3.0960   26.5660 C   0  0  0  0  0  0  0  0  0  0  0  0
    8.0020   -4.4230   26.1060 C   0  0  0  0  0  0  0  0  0  0  0  0
    8.2680   -5.5830   27.4120 S   0  0  0  0  0  0  0  0  0  0  0  0
    8.4040   -4.7210   28.6670 N   0  0  0  0  0  0  0  0  0  0  0  0
    9.5400   -6.2960   27.1080 O   0  0  0  0  0  0  0  0  0  0  0  0
    7.1180   -6.5150   27.4830 O   0  0  0  0  0  0  0  0  0  0  0  0
    9.1750   -4.3280   25.1860 C   0  0  0  0  0  0  0  0  0  0  0  0
    8.0580   -4.9920   24.7270 C   0  0  0  0  0  0  0  0  0  0  0  0
    6.7470   -2.5900   23.1950 C   0  0  0  0  0  0  0  0  0  0  0  0
    7.5620   -3.1900   22.1090 C   0  0  0  0  0  0  0  0  0  0  0  0
  1  2  1  0
  2  3  2  0
  2  4  1  0
  4  5  1  0
  5  6  1  0
  6  7  1  0
  7  8  1  0
  8  9  2  0
  8 10  1  0
 10 11  1  0
 12 11  1  0
 12 13  1  0
 13 14  1  0
 13 15  2  0
 13 16  2  0
 12 17  1  0
 12 18  1  0
 17 18  1  0
  7 19  1  0
  4 20  1  0
 19 20  1  0
M  END
