piperidine-amides-15054-covalent
     RDKit          3D

 20 21  0  0  0  0  0  0  0  0999 V2000
    7.0620   -3.3060   19.3180 C   0  0  0  0  0  0  0  0  0  0  0  0
    6.2980   -4.0780   20.2960 C   0  0  0  0  0  0  0  0  0  0  0  0
    5.2610   -4.6380   19.9080 O   0  0  0  0  0  0  0  0  0  0  0  0
    6.7590   -4.2170   21.6280 N   0  0  0  0  0  0  0  0  0  0  0  0
    7.4470   -3.1180   22.2550 C   0  0  0  0  0  0  0  0  0  0  0  0
    7.1200   -3.0790   23.7260 C   0  0  0  0  0  0  0  0  0  0  0  0
    5.6950   -3.5200   23.8750 C   0  0  0  0  0  0  0  0  0  0  0  0
    5.1180   -3.3360   25.2760 C   0  0  0  0  0  0  0  0  0  0  0  0
    3.8950   -3.3950   25.3160 O   0  0  0  0  0  0  0  0  0  0  0  0
    5.9040   -3.1100   26.4150 N   0  0  0  0  0  0  0  0  0  0  0  0
    5.9790   -4.0540   27.5040 C   0  0  0  0  0  0  0  0  0  0  0  0
    4.9320   -4.8860   27.8690 C   0  0  0  0  0  0  0  0  0  0  0  0
    6.5780   -3.4290   28.6830 C   0  0  0  0  0  0  0  0  0  0  0  0
    7.0020   -4.9040   27.0250 C   0  0  0  0  0  0  0  0  0  0  0  0
    7.2360   -4.9550   25.6630 N   0  0  0  0  0  0  0  0  0  0  0  0
    8.2990   -5.7930   25.3580 C   0  0  0  0  0  0  0  0  0  0  0  0
    8.9210   -6.4250   26.5860 C   0  0  0  0  0  0  0  0  0  0  0  0
    8.0930   -5.9480   28.0220 S   0  0  0  0  0  0  0  0  0  0  0  0
    5.4910   -4.9460   23.4980 C   0  0  0  0  0  0  0  0  0  0  0  0
    6.3280   -5.3820   22.3250 C   0  0  0  0  0  0  0  0  0  0  0  0
  1  2  1  0
  2  3  2  0
  2  4  1  0
  4  5  1  0
  5  6  1  0
  6  7  1  0
  7  8  1  0
  8  9  2  0
  8 10  1  0
 11 10  1  0
 11 12  1  0
 11 13  1  0
 11 14  1  0
 14 15  2  0
 15 16  1  0
 16 17  2  0
 14 18  1  0
 17 18  1  0
  7 19  1  0
  4 20  1  0
 19 20  1  0
M  END
