piperidine-amides-9156-covalent
     RDKit          3D

 20 21  0  0  0  0  0  0  0  0999 V2000
    7.0690   -3.3310   19.2970 C   0  0  0  0  0  0  0  0  0  0  0  0
    6.3820   -4.1440   20.3010 C   0  0  0  0  0  0  0  0  0  0  0  0
    5.3800   -4.8000   19.9710 O   0  0  0  0  0  0  0  0  0  0  0  0
    6.8710   -4.2310   21.6120 N   0  0  0  0  0  0  0  0  0  0  0  0
    7.7280   -3.2270   22.1970 C   0  0  0  0  0  0  0  0  0  0  0  0
    6.9740   -2.6810   23.3720 C   0  0  0  0  0  0  0  0  0  0  0  0
    6.4790   -3.7800   24.2650 C   0  0  0  0  0  0  0  0  0  0  0  0
    5.6950   -3.2730   25.4220 C   0  0  0  0  0  0  0  0  0  0  0  0
    4.4390   -3.1430   25.3150 O   0  0  0  0  0  0  0  0  0  0  0  0
    6.2610   -2.9210   26.6740 N   0  0  0  0  0  0  0  0  0  0  0  0
    6.6680   -1.5140   26.9520 C   0  0  1  0  0  0  0  0  0  0  0  0
    5.5100   -0.6180   26.7620 C   0  0  0  0  0  0  0  0  0  0  0  0
    5.6680    0.7430   27.3020 C   0  0  0  0  0  0  0  0  0  0  0  0
    6.1320    0.7230   28.7290 C   0  0  0  0  0  0  0  0  0  0  0  0
    6.4650   -0.6800   29.1820 C   0  0  1  0  0  0  0  0  0  0  0  0
    5.1860   -1.2550   29.6710 C   0  0  0  0  0  0  0  0  0  0  0  0
    5.0840   -2.6120   29.4850 C   0  0  0  0  0  0  0  0  0  0  0  0
    7.2300   -1.4690   28.3580 C   0  0  0  0  0  0  0  0  0  0  0  0
    5.6240   -4.8220   23.5220 C   0  0  0  0  0  0  0  0  0  0  0  0
    6.5130   -5.3810   22.4050 C   0  0  0  0  0  0  0  0  0  0  0  0
  1  2  1  0
  2  3  2  0
  2  4  1  0
  4  5  1  0
  5  6  1  0
  6  7  1  0
  7  8  1  0
  8  9  2  0
  8 10  1  0
 11 10  1  1
 11 12  1  0
 12 13  1  0
 13 14  1  0
 14 15  1  0
 15 16  1  6
 16 17  1  0
 11 18  1  0
 15 18  1  0
  7 19  1  0
  4 20  1  0
 19 20  1  0
M  END
