piperidine-amides-23820-covalent
     RDKit          3D

 22 23  0  0  0  0  0  0  0  0999 V2000
    7.1430   -3.3650   19.3270 C   0  0  0  0  0  0  0  0  0  0  0  0
    6.4250   -4.1670   20.3240 C   0  0  0  0  0  0  0  0  0  0  0  0
    5.3550   -4.7120   19.9520 O   0  0  0  0  0  0  0  0  0  0  0  0
    6.9740   -4.3560   21.6160 N   0  0  0  0  0  0  0  0  0  0  0  0
    6.4850   -5.4160   22.4150 C   0  0  0  0  0  0  0  0  0  0  0  0
    6.1430   -5.0170   23.7860 C   0  0  0  0  0  0  0  0  0  0  0  0
    6.6470   -3.6940   24.2520 C   0  0  0  0  0  0  0  0  0  0  0  0
    5.7600   -3.1210   25.3200 C   0  0  0  0  0  0  0  0  0  0  0  0
    5.0290   -2.1600   25.0340 O   0  0  0  0  0  0  0  0  0  0  0  0
    5.6820   -3.6400   26.6240 N   0  0  0  0  0  0  0  0  0  0  0  0
    6.4080   -3.3940   27.7740 C   0  0  0  0  0  0  0  0  0  0  0  0
    6.8250   -4.5690   28.5260 C   0  0  0  0  0  0  0  0  0  0  0  0
    5.7580   -4.8260   29.5820 C   0  0  0  0  0  0  0  0  0  0  0  0
    4.6620   -5.5540   28.9500 N   0  0  0  0  0  0  0  0  0  0  0  0
    3.1610   -5.0760   29.5160 S   0  0  0  0  0  0  0  0  0  0  0  0
    2.8180   -5.9240   30.9590 N   0  0  0  0  0  0  0  0  0  0  0  0
    2.1000   -5.4800   28.5250 O   0  0  0  0  0  0  0  0  0  0  0  0
    3.0700   -3.6070   29.7490 O   0  0  0  0  0  0  0  0  0  0  0  0
    4.8410   -5.6230   27.5480 C   0  0  0  0  0  0  0  0  0  0  0  0
    4.4420   -4.2500   27.0190 C   0  0  0  0  0  0  0  0  0  0  0  0
    6.8450   -2.6590   23.2120 C   0  0  0  0  0  0  0  0  0  0  0  0
    7.7610   -3.2800   22.1690 C   0  0  0  0  0  0  0  0  0  0  0  0
  1  2  1  0
  2  3  2  0
  2  4  1  0
  4  5  1  0
  5  6  1  0
  6  7  1  0
  7  8  1  0
  8  9  2  0
  8 10  1  0
 10 11  1  0
 11 12  1  0
 12 13  1  0
 13 14  1  0
 14 15  1  0
 15 16  1  0
 15 17  2  0
 15 18  2  0
 14 19  1  0
 10 20  1  0
 19 20  1  0
  7 21  1  0
  4 22  1  0
 21 22  1  0
M  END
