piperidine-amides-1687-covalent
     RDKit          3D

 20 21  0  0  0  0  0  0  0  0999 V2000
    7.0770   -3.3350   19.3140 C   0  0  0  0  0  0  0  0  0  0  0  0
    6.4070   -4.1980   20.3270 C   0  0  0  0  0  0  0  0  0  0  0  0
    5.3980   -4.8440   19.9850 O   0  0  0  0  0  0  0  0  0  0  0  0
    6.9610   -4.2940   21.6290 N   0  0  0  0  0  0  0  0  0  0  0  0
    7.7250   -3.2220   22.2030 C   0  0  0  0  0  0  0  0  0  0  0  0
    6.8560   -2.6460   23.3140 C   0  0  0  0  0  0  0  0  0  0  0  0
    6.4710   -3.7700   24.2170 C   0  0  0  0  0  0  0  0  0  0  0  0
    5.6980   -3.2750   25.3840 C   0  0  0  0  0  0  0  0  0  0  0  0
    4.4720   -3.2260   25.2310 O   0  0  0  0  0  0  0  0  0  0  0  0
    6.3320   -2.8860   26.5730 N   0  0  0  0  0  0  0  0  0  0  0  0
    6.6070   -1.5630   27.0360 C   0  0  2  0  0  0  0  0  0  0  0  0
    7.1220   -1.4010   28.3130 C   0  0  0  0  0  0  0  0  0  0  0  0
    6.6110   -0.4800   29.2280 C   0  0  0  0  0  0  0  0  0  0  0  0
    6.1880    0.7230   28.7250 C   0  0  0  0  0  0  0  0  0  0  0  0
    5.7100    0.7510   27.3320 C   0  0  0  0  0  0  0  0  0  0  0  0
    5.6290   -0.6140   26.6440 C   0  0  2  0  0  0  0  0  0  0  0  0
    4.1290   -0.9160   26.7310 C   0  0  0  0  0  0  0  0  0  0  0  0
    3.3750   -0.7010   27.8270 N   0  0  0  0  0  0  0  0  0  0  0  0
    5.6300   -4.8250   23.4740 C   0  0  0  0  0  0  0  0  0  0  0  0
    6.5170   -5.4000   22.4320 C   0  0  0  0  0  0  0  0  0  0  0  0
  1  2  1  0
  2  3  2  0
  2  4  1  0
  4  5  1  0
  5  6  1  0
  6  7  1  0
  7  8  1  0
  8  9  2  0
  8 10  1  0
 11 10  1  1
 11 12  1  0
 12 13  1  0
 13 14  1  0
 14 15  1  0
 11 16  1  0
 15 16  1  0
 16 17  1  1
 17 18  3  0
  7 19  1  0
  4 20  1  0
 19 20  1  0
M  END
