piperidine-amides-11158-covalent
     RDKit          3D

 20 20  0  0  0  0  0  0  0  0999 V2000
    7.1220   -3.2990   19.2650 C   0  0  0  0  0  0  0  0  0  0  0  0
    6.3250   -4.0320   20.2470 C   0  0  0  0  0  0  0  0  0  0  0  0
    5.2600   -4.5510   19.8840 O   0  0  0  0  0  0  0  0  0  0  0  0
    6.7650   -4.2200   21.5670 N   0  0  0  0  0  0  0  0  0  0  0  0
    6.5130   -5.4700   22.2460 C   0  0  0  0  0  0  0  0  0  0  0  0
    5.8970   -5.0870   23.5680 C   0  0  0  0  0  0  0  0  0  0  0  0
    5.8530   -3.5950   23.7520 C   0  0  0  0  0  0  0  0  0  0  0  0
    5.3130   -3.1520   25.0670 C   0  0  0  0  0  0  0  0  0  0  0  0
    4.1310   -2.7130   25.1370 O   0  0  0  0  0  0  0  0  0  0  0  0
    6.0180   -3.1880   26.2890 N   0  0  0  0  0  0  0  0  0  0  0  0
    6.7100   -4.4120   26.7080 C   0  0  2  0  0  0  0  0  0  0  0  0
    5.9230   -5.1480   27.7250 C   0  0  0  0  0  0  0  0  0  0  0  0
    5.0250   -6.1960   27.1980 C   0  0  0  0  0  0  0  0  0  0  0  0
    8.0550   -4.0920   27.2280 C   0  0  0  0  0  0  0  0  0  0  0  0
    8.7130   -5.4220   27.0710 C   0  0  0  0  0  0  0  0  0  0  0  0
    7.7060   -6.3690   26.7720 F   0  0  0  0  0  0  0  0  0  0  0  0
    9.4260   -5.7730   28.1320 F   0  0  0  0  0  0  0  0  0  0  0  0
    9.4730   -5.4390   25.8960 F   0  0  0  0  0  0  0  0  0  0  0  0
    7.2010   -3.0100   23.4810 C   0  0  0  0  0  0  0  0  0  0  0  0
    7.5280   -3.1530   22.1570 C   0  0  0  0  0  0  0  0  0  0  0  0
  1  2  1  0
  2  3  2  0
  2  4  1  0
  4  5  1  0
  5  6  1  0
  6  7  1  0
  7  8  1  0
  8  9  2  0
  8 10  1  0
 10 11  1  0
 11 12  1  1
 12 13  1  0
 11 14  1  0
 14 15  1  0
 15 16  1  0
 15 17  1  0
 15 18  1  0
  7 19  1  0
  4 20  1  0
 19 20  1  0
M  END
