piperidine-amides-17037-covalent
     RDKit          3D

 20 21  0  0  0  0  0  0  0  0999 V2000
    7.0590   -3.3900   19.3610 C   0  0  0  0  0  0  0  0  0  0  0  0
    6.4360   -4.2730   20.3600 C   0  0  0  0  0  0  0  0  0  0  0  0
    5.3920   -4.8700   19.9940 O   0  0  0  0  0  0  0  0  0  0  0  0
    7.0250   -4.4870   21.6410 N   0  0  0  0  0  0  0  0  0  0  0  0
    6.5850   -5.5800   22.4230 C   0  0  0  0  0  0  0  0  0  0  0  0
    6.2340   -5.1730   23.7820 C   0  0  0  0  0  0  0  0  0  0  0  0
    5.8330   -3.7560   23.9030 C   0  0  0  0  0  0  0  0  0  0  0  0
    5.3610   -3.3930   25.2830 C   0  0  0  0  0  0  0  0  0  0  0  0
    4.6830   -2.3650   25.4240 O   0  0  0  0  0  0  0  0  0  0  0  0
    5.6430   -4.1590   26.4250 N   0  0  0  0  0  0  0  0  0  0  0  0
    6.8790   -4.4350   26.9040 C   0  0  0  0  0  0  0  0  0  0  0  0
    6.9900   -5.4670   27.8990 C   0  0  0  0  0  0  0  0  0  0  0  0
    5.8830   -6.0020   28.4490 N   0  0  0  0  0  0  0  0  0  0  0  0
    5.8270   -6.8800   29.5920 C   0  0  0  0  0  0  0  0  0  0  0  0
    5.4550   -4.6680   28.8250 C   0  0  0  0  0  0  0  0  0  0  0  0
    4.8210   -3.9560   27.6110 C   0  0  0  0  0  0  0  0  0  0  0  0
    3.6570   -4.8940   27.6060 C   0  0  0  0  0  0  0  0  0  0  0  0
    4.3500   -2.5280   27.9740 C   0  0  0  0  0  0  0  0  0  0  0  0
    6.8190   -2.7400   23.3640 C   0  0  0  0  0  0  0  0  0  0  0  0
    7.7120   -3.4170   22.3380 C   0  0  0  0  0  0  0  0  0  0  0  0
  1  2  1  0
  2  3  2  0
  2  4  1  0
  4  5  1  0
  5  6  1  0
  6  7  1  0
  7  8  1  0
  8  9  2  0
  8 10  1  0
 10 11  1  0
 11 12  1  0
 12 13  1  0
 13 14  1  0
 13 15  1  0
 10 16  1  0
 15 16  1  0
 16 17  1  0
 16 18  1  0
  7 19  1  0
  4 20  1  0
 19 20  1  0
M  END
