piperidine-amides-29763-covalent
     RDKit          3D

 26 28  0  0  0  0  0  0  0  0999 V2000
    7.1260   -3.3540   19.2660 C   0  0  0  0  0  0  0  0  0  0  0  0
    6.3600   -4.1210   20.2340 C   0  0  0  0  0  0  0  0  0  0  0  0
    5.2820   -4.6140   19.9110 O   0  0  0  0  0  0  0  0  0  0  0  0
    6.9120   -4.3580   21.5320 N   0  0  0  0  0  0  0  0  0  0  0  0
    7.6970   -3.3430   22.1800 C   0  0  0  0  0  0  0  0  0  0  0  0
    6.9270   -2.7840   23.3300 C   0  0  0  0  0  0  0  0  0  0  0  0
    6.5260   -3.9500   24.2090 C   0  0  0  0  0  0  0  0  0  0  0  0
    5.6230   -3.4470   25.2610 C   0  0  0  0  0  0  0  0  0  0  0  0
    4.3910   -3.6090   25.2230 O   0  0  0  0  0  0  0  0  0  0  0  0
    6.1660   -2.7450   26.3410 N   0  0  0  0  0  0  0  0  0  0  0  0
    5.9650   -3.3710   27.6170 C   0  0  0  0  0  0  0  0  0  0  0  0
    6.8600   -2.6610   28.5720 C   0  0  0  0  0  0  0  0  0  0  0  0
    6.3810   -1.7900   29.5260 C   0  0  0  0  0  0  0  0  0  0  0  0
    4.9800   -1.7200   29.8230 C   0  0  0  0  0  0  0  0  0  0  0  0
    4.5030   -0.8400   30.7840 C   0  0  0  0  0  0  0  0  0  0  0  0
    5.4530   -0.0160   31.4550 C   0  0  0  0  0  0  0  0  0  0  0  0
    6.7650   -0.0710   31.1870 C   0  0  0  0  0  0  0  0  0  0  0  0
    7.2440   -0.9380   30.2400 C   0  0  0  0  0  0  0  0  0  0  0  0
    6.1400   -1.3020   26.2650 C   0  0  0  0  0  0  0  0  0  0  0  0
    6.2680   -0.4760   25.1990 N   0  0  0  0  0  0  0  0  0  0  0  0
    6.1990    0.8780   25.3850 C   0  0  0  0  0  0  0  0  0  0  0  0
    6.2910    1.9670   24.5410 C   0  0  0  0  0  0  0  0  0  0  0  0
    5.9820    1.2660   26.7930 C   0  0  0  0  0  0  0  0  0  0  0  0
    5.8980   -0.1770   27.6620 S   0  0  0  0  0  0  0  0  0  0  0  0
    5.7660   -5.0230   23.4650 C   0  0  0  0  0  0  0  0  0  0  0  0
    6.5850   -5.5310   22.2810 C   0  0  0  0  0  0  0  0  0  0  0  0
  1  2  1  0
  2  3  2  0
  2  4  1  0
  4  5  1  0
  5  6  1  0
  6  7  1  0
  7  8  1  0
  8  9  2  0
  8 10  1  0
 10 11  1  0
 11 12  1  0
 12 13  1  0
 13 14  2  0
 14 15  1  0
 15 16  2  0
 16 17  1  0
 13 18  1  0
 17 18  2  0
 10 19  1  0
 19 20  2  0
 20 21  1  0
 21 22  1  0
 21 23  2  0
 19 24  1  0
 23 24  1  0
  7 25  1  0
  4 26  1  0
 25 26  1  0
M  END
