piperidine-amides-17014-covalent
     RDKit          3D

 20 21  0  0  0  0  0  0  0  0999 V2000
    7.1960   -3.3060   19.2060 C   0  0  0  0  0  0  0  0  0  0  0  0
    6.4150   -4.0340   20.2080 C   0  0  0  0  0  0  0  0  0  0  0  0
    5.3000   -4.4930   19.8700 O   0  0  0  0  0  0  0  0  0  0  0  0
    6.9740   -4.2550   21.4820 N   0  0  0  0  0  0  0  0  0  0  0  0
    6.5730   -5.3950   22.2270 C   0  0  0  0  0  0  0  0  0  0  0  0
    6.0000   -5.0150   23.5020 C   0  0  0  0  0  0  0  0  0  0  0  0
    6.0240   -3.5560   23.6810 C   0  0  0  0  0  0  0  0  0  0  0  0
    5.3950   -3.1580   24.9500 C   0  0  0  0  0  0  0  0  0  0  0  0
    4.1570   -3.1470   25.0550 O   0  0  0  0  0  0  0  0  0  0  0  0
    6.1670   -2.8010   26.0380 N   0  0  0  0  0  0  0  0  0  0  0  0
    6.8890   -1.5960   26.2280 C   0  0  0  0  0  0  0  0  0  0  0  0
    5.7210   -3.4580   27.2180 C   0  0  0  0  0  0  0  0  0  0  0  0
    5.0500   -2.5870   28.2860 C   0  0  2  0  0  0  0  0  0  0  0  0
    4.7910   -1.2530   28.0090 C   0  0  0  0  0  0  0  0  0  0  0  0
    5.9900   -0.5410   28.7940 C   0  0  0  0  0  0  0  0  0  0  0  0
    6.6740   -1.7130   29.4670 C   0  0  0  0  0  0  0  0  0  0  0  0
    6.0480   -2.8090   29.1960 N   0  0  0  0  0  0  0  0  0  0  0  0
    6.6570   -3.9670   28.8770 C   0  0  0  0  0  0  0  0  0  0  0  0
    7.3930   -2.9550   23.5320 C   0  0  0  0  0  0  0  0  0  0  0  0
    7.7790   -3.2110   22.0970 C   0  0  0  0  0  0  0  0  0  0  0  0
  1  2  1  0
  2  3  2  0
  2  4  1  0
  4  5  1  0
  5  6  1  0
  6  7  1  0
  7  8  1  0
  8  9  2  0
  8 10  1  0
 10 11  1  0
 10 12  1  0
 13 12  1  6
 13 14  1  0
 14 15  1  0
 15 16  1  0
 13 17  1  0
 16 17  1  0
 17 18  1  0
  7 19  1  0
  4 20  1  0
 19 20  1  0
M  END
