piperidine-amides-11988-covalent
     RDKit          3D

 26 28  0  0  0  0  0  0  0  0999 V2000
    7.1280   -3.3500   19.3290 C   0  0  0  0  0  0  0  0  0  0  0  0
    6.3820   -4.1510   20.2860 C   0  0  0  0  0  0  0  0  0  0  0  0
    5.3380   -4.7110   19.9510 O   0  0  0  0  0  0  0  0  0  0  0  0
    6.9190   -4.3310   21.6020 N   0  0  0  0  0  0  0  0  0  0  0  0
    7.6770   -3.2660   22.2030 C   0  0  0  0  0  0  0  0  0  0  0  0
    6.9090   -2.7010   23.3540 C   0  0  0  0  0  0  0  0  0  0  0  0
    6.5400   -3.8410   24.2820 C   0  0  0  0  0  0  0  0  0  0  0  0
    5.7600   -3.3120   25.4330 C   0  0  0  0  0  0  0  0  0  0  0  0
    4.5160   -3.2270   25.4040 O   0  0  0  0  0  0  0  0  0  0  0  0
    6.4480   -2.8760   26.5940 N   0  0  0  0  0  0  0  0  0  0  0  0
    6.3910   -1.4750   26.9460 C   0  0  0  0  0  0  0  0  0  0  0  0
    6.0870   -0.3470   26.0060 C   0  0  0  0  0  0  0  0  0  0  0  0
    6.0480    0.9810   26.4440 C   0  0  0  0  0  0  0  0  0  0  0  0
    6.2930    1.3290   27.7860 C   0  0  0  0  0  0  0  0  0  0  0  0
    6.5760    0.3710   28.7060 C   0  0  0  0  0  0  0  0  0  0  0  0
    6.6300   -1.0120   28.3440 C   0  0  0  0  0  0  0  0  0  0  0  0
    6.8920   -1.7180   29.4040 N   0  0  0  0  0  0  0  0  0  0  0  0
    6.4800   -1.1430   30.6500 C   0  0  0  0  0  0  0  0  0  0  0  0
    5.3260   -1.3160   31.2510 O   0  0  0  0  0  0  0  0  0  0  0  0
    7.3200   -0.2840   31.3280 C   0  0  0  0  0  0  0  0  0  0  0  0
    8.6460   -0.0040   31.0860 C   0  0  0  0  0  0  0  0  0  0  0  0
    9.2410    0.9490   31.9920 C   0  0  0  0  0  0  0  0  0  0  0  0
    8.4600    1.4790   32.9870 C   0  0  0  0  0  0  0  0  0  0  0  0
    6.9330    0.7160   32.7260 S   0  0  0  0  0  0  0  0  0  0  0  0
    5.7300   -4.9120   23.5900 C   0  0  0  0  0  0  0  0  0  0  0  0
    6.4480   -5.4120   22.3810 C   0  0  0  0  0  0  0  0  0  0  0  0
  1  2  1  0
  2  3  2  0
  2  4  1  0
  4  5  1  0
  5  6  1  0
  6  7  1  0
  7  8  1  0
  8  9  2  0
  8 10  1  0
 10 11  1  0
 11 12  2  0
 12 13  1  0
 13 14  2  0
 14 15  1  0
 11 16  1  0
 15 16  2  0
 16 17  1  0
 17 18  1  0
 18 19  2  0
 18 20  1  0
 20 21  2  0
 21 22  1  0
 22 23  2  0
 20 24  1  0
 23 24  1  0
  7 25  1  0
  4 26  1  0
 25 26  1  0
M  END
