piperidine-amides-14817-covalent
     RDKit          3D

 22 23  0  0  0  0  0  0  0  0999 V2000
    7.0560   -3.2920   19.2870 C   0  0  0  0  0  0  0  0  0  0  0  0
    6.3520   -4.0900   20.2910 C   0  0  0  0  0  0  0  0  0  0  0  0
    5.3270   -4.6940   19.9370 O   0  0  0  0  0  0  0  0  0  0  0  0
    6.8550   -4.1970   21.6160 N   0  0  0  0  0  0  0  0  0  0  0  0
    6.6420   -5.4170   22.3520 C   0  0  0  0  0  0  0  0  0  0  0  0
    6.0400   -5.1100   23.6960 C   0  0  0  0  0  0  0  0  0  0  0  0
    6.0490   -3.6080   23.8450 C   0  0  0  0  0  0  0  0  0  0  0  0
    5.6530   -3.2150   25.2360 C   0  0  0  0  0  0  0  0  0  0  0  0
    4.4460   -3.1590   25.4530 O   0  0  0  0  0  0  0  0  0  0  0  0
    6.6420   -2.9400   26.1720 N   0  0  0  0  0  0  0  0  0  0  0  0
    6.3310   -2.7510   27.5510 C   0  0  0  0  0  0  0  0  0  0  0  0
    5.6320   -3.7950   28.1610 C   0  0  0  0  0  0  0  0  0  0  0  0
    4.2760   -3.9790   28.2040 C   0  0  0  0  0  0  0  0  0  0  0  0
    4.0230   -5.1870   28.9450 N   0  0  0  0  0  0  0  0  0  0  0  0
    5.1620   -5.7530   29.3570 N   0  0  0  0  0  0  0  0  0  0  0  0
    5.3100   -6.8620   30.0580 C   0  0  0  0  0  0  0  0  0  0  0  0
    4.5730   -7.1440   31.3290 C   0  0  0  0  0  0  0  0  0  0  0  0
    5.5460   -7.7290   32.3730 C   0  0  0  0  0  0  0  0  0  0  0  0
    3.3860   -7.8200   31.1410 C   0  0  0  0  0  0  0  0  0  0  0  0
    6.1640   -4.8520   28.8460 C   0  0  0  0  0  0  0  0  0  0  0  0
    7.3050   -2.9350   23.5080 C   0  0  0  0  0  0  0  0  0  0  0  0
    7.7010   -3.1850   22.2210 C   0  0  0  0  0  0  0  0  0  0  0  0
  1  2  1  0
  2  3  2  0
  2  4  1  0
  4  5  1  0
  5  6  1  0
  6  7  1  0
  7  8  1  0
  8  9  2  0
  8 10  1  0
 10 11  1  0
 11 12  1  0
 12 13  1  0
 13 14  2  0
 14 15  1  0
 15 16  1  0
 16 17  1  0
 17 18  1  0
 17 19  1  0
 12 20  2  0
 15 20  1  0
  7 21  1  0
  4 22  1  0
 21 22  1  0
M  END
