piperidine-amides-17259-covalent
     RDKit          3D

 19 21  0  0  0  0  0  0  0  0999 V2000
    7.0230   -3.3790   19.3650 C   0  0  0  0  0  0  0  0  0  0  0  0
    6.3970   -4.2530   20.3720 C   0  0  0  0  0  0  0  0  0  0  0  0
    5.3790   -4.8790   19.9910 O   0  0  0  0  0  0  0  0  0  0  0  0
    6.9430   -4.4320   21.6780 N   0  0  0  0  0  0  0  0  0  0  0  0
    6.4510   -5.5010   22.4610 C   0  0  0  0  0  0  0  0  0  0  0  0
    5.7130   -5.0930   23.6680 C   0  0  0  0  0  0  0  0  0  0  0  0
    6.1520   -3.8620   24.3840 C   0  0  0  0  0  0  0  0  0  0  0  0
    5.0750   -3.3420   25.3450 C   0  0  0  0  0  0  0  0  0  0  0  0
    3.9540   -3.0870   24.8900 O   0  0  0  0  0  0  0  0  0  0  0  0
    5.2990   -3.1310   26.7400 N   0  0  0  0  0  0  0  0  0  0  0  0
    4.5140   -3.4800   27.8970 C   0  0  0  0  0  0  0  0  0  0  0  0
    5.2990   -3.9160   29.0740 C   0  0  1  0  0  0  0  0  0  0  0  0
    4.9010   -5.2700   29.6930 C   0  0  0  0  0  0  0  0  0  0  0  0
    4.9030   -6.2950   28.3660 S   0  0  0  0  0  0  0  0  0  0  0  0
    6.0880   -5.4720   27.3780 C   0  0  0  0  0  0  0  0  0  0  0  0
    6.5590   -4.2500   28.2380 C   0  0  1  0  0  0  0  0  0  0  0  0
    6.5980   -3.1660   27.1930 C   0  0  0  0  0  0  0  0  0  0  0  0
    6.5930   -2.7710   23.3880 C   0  0  0  0  0  0  0  0  0  0  0  0
    7.5880   -3.3800   22.4190 C   0  0  0  0  0  0  0  0  0  0  0  0
  1  2  1  0
  2  3  2  0
  2  4  1  0
  4  5  1  0
  5  6  1  0
  6  7  1  0
  7  8  1  0
  8  9  2  0
  8 10  1  0
 10 11  1  0
 12 11  1  6
 12 13  1  0
 13 14  1  0
 14 15  1  0
 12 16  1  0
 16 15  1  6
 10 17  1  0
 16 17  1  0
  7 18  1  0
  4 19  1  0
 18 19  1  0
M  END
