piperidine-amides-19140-covalent
     RDKit          3D

 22 24  0  0  0  0  0  0  0  0999 V2000
    7.0490   -3.4600   19.4040 C   0  0  0  0  0  0  0  0  0  0  0  0
    6.3990   -4.2740   20.4030 C   0  0  0  0  0  0  0  0  0  0  0  0
    5.3890   -4.9370   20.0110 O   0  0  0  0  0  0  0  0  0  0  0  0
    6.8580   -4.4170   21.7400 N   0  0  0  0  0  0  0  0  0  0  0  0
    6.5060   -5.6350   22.4800 C   0  0  0  0  0  0  0  0  0  0  0  0
    5.4620   -5.0080   23.4780 C   0  0  0  0  0  0  0  0  0  0  0  0
    6.1700   -3.9200   24.2740 C   0  0  0  0  0  0  0  0  0  0  0  0
    5.1170   -3.1280   25.1910 C   0  0  0  0  0  0  0  0  0  0  0  0
    4.4860   -2.3680   24.4860 O   0  0  0  0  0  0  0  0  0  0  0  0
    5.1440   -3.4380   26.4360 N   0  0  0  0  0  0  0  0  0  0  0  0
    4.7110   -3.8180   27.6720 C   0  0  0  0  0  0  0  0  0  0  0  0
    5.3500   -4.0130   28.8180 C   0  0  0  0  0  0  0  0  0  0  0  0
    6.6050   -3.8160   28.3360 C   0  0  0  0  0  0  0  0  0  0  0  0
    6.4550   -3.0680   27.0320 C   0  0  2  0  0  0  0  0  0  0  0  0
    6.4200   -1.6920   27.7360 C   0  0  0  0  0  0  0  0  0  0  0  0
    5.3170   -1.0080   27.2350 C   0  0  0  0  0  0  0  0  0  0  0  0
    4.9380    0.3140   27.6240 C   0  0  0  0  0  0  0  0  0  0  0  0
    6.1700    0.3390   28.5810 C   0  0  0  0  0  0  0  0  0  0  0  0
    7.1460    0.0840   29.1990 N   0  0  0  0  0  0  0  0  0  0  0  0
    7.3480   -1.1300   28.7430 C   0  0  0  0  0  0  0  0  0  0  0  0
    6.9080   -2.8760   23.3840 C   0  0  0  0  0  0  0  0  0  0  0  0
    7.7040   -3.4700   22.4380 C   0  0  0  0  0  0  0  0  0  0  0  0
  1  2  1  0
  2  3  2  0
  2  4  1  0
  4  5  1  0
  5  6  1  0
  6  7  1  0
  7  8  1  0
  8  9  2  0
  8 10  1  0
 10 11  1  0
 11 12  1  0
 12 13  1  0
 10 14  1  0
 13 14  1  0
 14 15  1  1
 15 16  2  0
 16 17  1  0
 17 18  2  0
 18 19  1  0
 15 20  1  0
 19 20  2  0
  7 21  1  0
  4 22  1  0
 21 22  1  0
M  END
