piperidine-amides-6778-covalent
     RDKit          3D

 23 24  0  0  0  0  0  0  0  0999 V2000
    7.1630   -3.2680   19.1890 C   0  0  0  0  0  0  0  0  0  0  0  0
    6.4300   -4.0420   20.2050 C   0  0  0  0  0  0  0  0  0  0  0  0
    5.3690   -4.6430   19.9230 O   0  0  0  0  0  0  0  0  0  0  0  0
    6.9550   -4.1470   21.4960 N   0  0  0  0  0  0  0  0  0  0  0  0
    7.8410   -3.0910   21.9430 C   0  0  0  0  0  0  0  0  0  0  0  0
    7.5010   -2.8330   23.3960 C   0  0  0  0  0  0  0  0  0  0  0  0
    6.0230   -3.0870   23.4940 C   0  0  0  0  0  0  0  0  0  0  0  0
    5.6160   -2.5220   24.7770 C   0  0  0  0  0  0  0  0  0  0  0  0
    6.3790   -2.7490   25.7280 O   0  0  0  0  0  0  0  0  0  0  0  0
    4.4260   -1.7450   24.9220 N   0  0  0  0  0  0  0  0  0  0  0  0
    3.8310   -1.7280   26.2270 C   0  0  0  0  0  0  0  0  0  0  0  0
    4.7650   -2.6630   26.8020 C   0  0  0  0  0  0  0  0  0  0  0  0
    4.6880   -3.9480   26.4060 C   0  0  0  0  0  0  0  0  0  0  0  0
    5.5760   -4.8370   26.8590 C   0  0  0  0  0  0  0  0  0  0  0  0
    6.5970   -4.5130   27.7380 C   0  0  0  0  0  0  0  0  0  0  0  0
    7.4390   -5.4360   28.0890 C   0  0  0  0  0  0  0  0  0  0  0  0
    8.4950   -5.9230   27.1080 C   0  0  0  0  0  0  0  0  0  0  0  0
    8.8650   -5.1590   28.2100 C   0  0  0  0  0  0  0  0  0  0  0  0
    6.9700   -6.4170   28.8530 C   0  0  0  0  0  0  0  0  0  0  0  0
    6.6550   -3.2450   28.1580 N   0  0  0  0  0  0  0  0  0  0  0  0
    5.7230   -2.3050   27.6810 C   0  0  0  0  0  0  0  0  0  0  0  0
    5.7990   -4.5730   23.4490 C   0  0  0  0  0  0  0  0  0  0  0  0
    6.4320   -5.1410   22.3740 C   0  0  0  0  0  0  0  0  0  0  0  0
  1  2  1  0
  2  3  2  0
  2  4  1  0
  4  5  1  0
  5  6  1  0
  6  7  1  0
  7  8  1  0
  8  9  2  0
  8 10  1  0
 10 11  1  0
 11 12  1  0
 12 13  2  0
 13 14  1  0
 14 15  2  0
 15 16  1  0
 16 17  1  0
 16 18  1  0
 16 19  1  0
 15 20  1  0
 12 21  1  0
 20 21  2  0
  7 22  1  0
  4 23  1  0
 22 23  1  0
M  END
