piperidine-amides-25743-covalent
     RDKit          3D

 25 27  0  0  0  0  0  0  0  0999 V2000
    7.0420   -3.3970   19.4600 C   0  0  0  0  0  0  0  0  0  0  0  0
    6.3650   -4.2900   20.4350 C   0  0  0  0  0  0  0  0  0  0  0  0
    5.4070   -4.9390   20.0060 O   0  0  0  0  0  0  0  0  0  0  0  0
    6.8450   -4.3950   21.7520 N   0  0  0  0  0  0  0  0  0  0  0  0
    6.6970   -5.6170   22.5240 C   0  0  0  0  0  0  0  0  0  0  0  0
    6.1270   -5.2900   23.8830 C   0  0  0  0  0  0  0  0  0  0  0  0
    6.0470   -3.7750   23.9720 C   0  0  0  0  0  0  0  0  0  0  0  0
    5.4960   -3.2390   25.2530 C   0  0  0  0  0  0  0  0  0  0  0  0
    4.9110   -2.1610   25.1800 O   0  0  0  0  0  0  0  0  0  0  0  0
    5.5390   -3.8320   26.5380 N   0  0  0  0  0  0  0  0  0  0  0  0
    6.4390   -3.2050   27.4350 C   0  0  0  0  0  0  0  0  0  0  0  0
    6.7810   -4.2840   28.4300 C   0  0  0  0  0  0  0  0  0  0  0  0
    5.8630   -4.6110   29.3080 C   0  0  0  0  0  0  0  0  0  0  0  0
    4.7300   -4.9030   28.6730 C   0  0  1  0  0  0  0  0  0  0  0  0
    3.6530   -4.9270   29.5200 C   0  0  0  0  0  0  0  0  0  0  0  0
    2.8000   -3.8680   29.4460 O   0  0  0  0  0  0  0  0  0  0  0  0
    2.8240   -2.9170   30.4170 C   0  0  0  0  0  0  0  0  0  0  0  0
    2.3010   -1.5870   29.9050 C   0  0  0  0  0  0  0  0  0  0  0  0
    2.2280   -0.3570   30.8080 C   0  0  0  0  0  0  0  0  0  0  0  0
    2.6930   -0.5140   32.2090 C   0  0  0  0  0  0  0  0  0  0  0  0
    3.1970   -1.8010   32.7030 C   0  0  0  0  0  0  0  0  0  0  0  0
    3.2840   -3.0370   31.8510 C   0  0  0  0  0  0  0  0  0  0  0  0
    4.4380   -4.0660   27.4470 C   0  0  0  0  0  0  0  0  0  0  0  0
    7.4010   -3.1590   23.6640 C   0  0  0  0  0  0  0  0  0  0  0  0
    7.6780   -3.3270   22.3230 C   0  0  0  0  0  0  0  0  0  0  0  0
  1  2  1  0
  2  3  2  0
  2  4  1  0
  4  5  1  0
  5  6  1  0
  6  7  1  0
  7  8  1  0
  8  9  2  0
  8 10  1  0
 10 11  1  0
 11 12  1  0
 12 13  1  0
 13 14  1  0
 14 15  1  1
 15 16  1  0
 16 17  1  0
 17 18  2  0
 18 19  1  0
 19 20  2  0
 20 21  1  0
 17 22  1  0
 21 22  2  0
 10 23  1  0
 14 23  1  0
  7 24  1  0
  4 25  1  0
 24 25  1  0
M  END
