piperidine-amides-24965-covalent
     RDKit          3D

 25 28  0  0  0  0  0  0  0  0999 V2000
    7.1020   -3.3750   19.3720 C   0  0  0  0  0  0  0  0  0  0  0  0
    6.4050   -4.2260   20.3380 C   0  0  0  0  0  0  0  0  0  0  0  0
    5.3710   -4.8420   19.9890 O   0  0  0  0  0  0  0  0  0  0  0  0
    6.9320   -4.3970   21.6240 N   0  0  0  0  0  0  0  0  0  0  0  0
    6.5800   -5.5710   22.3780 C   0  0  0  0  0  0  0  0  0  0  0  0
    5.6440   -5.0880   23.4930 C   0  0  0  0  0  0  0  0  0  0  0  0
    6.3780   -4.0440   24.3210 C   0  0  0  0  0  0  0  0  0  0  0  0
    5.4770   -3.5860   25.4070 C   0  0  0  0  0  0  0  0  0  0  0  0
    4.6370   -2.6970   25.1600 O   0  0  0  0  0  0  0  0  0  0  0  0
    5.6030   -4.1730   26.6880 N   0  0  0  0  0  0  0  0  0  0  0  0
    6.9200   -4.4340   27.0450 C   0  0  0  0  0  0  0  0  0  0  0  0
    7.0500   -5.5870   28.0000 C   0  0  0  0  0  0  0  0  0  0  0  0
    6.0650   -5.5360   28.8970 C   0  0  0  0  0  0  0  0  0  0  0  0
    5.9180   -6.3630   30.0330 N   0  0  0  0  0  0  0  0  0  0  0  0
    4.7510   -5.9250   30.6440 C   0  0  0  0  0  0  0  0  0  0  0  0
    4.2270   -6.4760   31.8250 C   0  0  0  0  0  0  0  0  0  0  0  0
    3.0700   -6.0030   32.3900 C   0  0  0  0  0  0  0  0  0  0  0  0
    2.4530   -4.8730   31.6220 C   0  0  0  0  0  0  0  0  0  0  0  0
    1.3900   -4.8930   32.6960 C   0  0  0  0  0  0  0  0  0  0  0  0
    2.8980   -4.2290   30.4000 C   0  0  0  0  0  0  0  0  0  0  0  0
    4.1450   -4.8830   29.9730 C   0  0  0  0  0  0  0  0  0  0  0  0
    4.9140   -4.5740   28.8430 C   0  0  0  0  0  0  0  0  0  0  0  0
    4.8230   -3.6720   27.8110 C   0  0  0  0  0  0  0  0  0  0  0  0
    6.7950   -2.8470   23.4770 C   0  0  0  0  0  0  0  0  0  0  0  0
    7.5900   -3.3010   22.2830 C   0  0  0  0  0  0  0  0  0  0  0  0
  1  2  1  0
  2  3  2  0
  2  4  1  0
  4  5  1  0
  5  6  1  0
  6  7  1  0
  7  8  1  0
  8  9  2  0
  8 10  1  0
 10 11  1  0
 11 12  1  0
 12 13  1  0
 13 14  1  0
 14 15  1  0
 15 16  2  0
 16 17  1  0
 17 18  2  0
 18 19  1  0
 18 20  1  0
 15 21  1  0
 20 21  2  0
 13 22  2  0
 21 22  1  0
 10 23  1  0
 22 23  1  0
  7 24  1  0
  4 25  1  0
 24 25  1  0
M  END
