piperidine-amides-11933-covalent
     RDKit          3D

 26 28  0  0  0  0  0  0  0  0999 V2000
    7.0910   -3.3590   19.3720 C   0  0  0  0  0  0  0  0  0  0  0  0
    6.3700   -4.1780   20.3370 C   0  0  0  0  0  0  0  0  0  0  0  0
    5.3800   -4.8180   19.9800 O   0  0  0  0  0  0  0  0  0  0  0  0
    6.8430   -4.2740   21.6930 N   0  0  0  0  0  0  0  0  0  0  0  0
    7.7400   -3.2560   22.1990 C   0  0  0  0  0  0  0  0  0  0  0  0
    7.5540   -3.0410   23.6740 C   0  0  0  0  0  0  0  0  0  0  0  0
    6.1860   -3.5860   24.0210 C   0  0  0  0  0  0  0  0  0  0  0  0
    5.7890   -3.3240   25.4340 C   0  0  0  0  0  0  0  0  0  0  0  0
    4.7070   -3.7460   25.8850 O   0  0  0  0  0  0  0  0  0  0  0  0
    6.6300   -2.5650   26.2920 N   0  0  0  0  0  0  0  0  0  0  0  0
    5.9740   -1.5810   27.1290 C   0  0  1  0  0  0  0  0  0  0  0  0
    6.7870   -1.3360   28.3660 C   0  0  0  0  0  0  0  0  0  0  0  0
    6.3150   -0.4230   29.2410 N   0  0  0  0  0  0  0  0  0  0  0  0
    7.1540   -0.1420   30.2580 C   0  0  0  0  0  0  0  0  0  0  0  0
    6.7990   -0.0650   31.6050 C   0  0  0  0  0  0  0  0  0  0  0  0
    7.7650    0.1070   32.5970 C   0  0  0  0  0  0  0  0  0  0  0  0
    7.3370    0.1730   33.9860 C   0  0  0  0  0  0  0  0  0  0  0  0
    6.0300    0.0750   34.3640 C   0  0  0  0  0  0  0  0  0  0  0  0
    5.1150   -0.0900   33.3600 C   0  0  0  0  0  0  0  0  0  0  0  0
    5.4790   -0.1590   32.0210 C   0  0  0  0  0  0  0  0  0  0  0  0
    6.0530    0.7160   28.5520 C   0  0  0  0  0  0  0  0  0  0  0  0
    5.8450    0.8200   27.1790 C   0  0  0  0  0  0  0  0  0  0  0  0
    5.6420   -0.3790   26.4800 C   0  0  1  0  0  0  0  0  0  0  0  0
    6.3850   -0.4700   25.1870 C   0  0  0  0  0  0  0  0  0  0  0  0
    6.0570   -5.0570   23.7930 C   0  0  0  0  0  0  0  0  0  0  0  0
    6.6180   -5.4740   22.4490 C   0  0  0  0  0  0  0  0  0  0  0  0
  1  2  1  0
  2  3  2  0
  2  4  1  0
  4  5  1  0
  5  6  1  0
  6  7  1  0
  7  8  1  0
  8  9  2  0
  8 10  1  0
 11 10  1  6
 11 12  1  0
 12 13  1  0
 13 14  1  0
 14 15  1  0
 15 16  2  0
 16 17  1  0
 17 18  2  0
 18 19  1  0
 15 20  1  0
 19 20  2  0
 13 21  1  0
 21 22  1  0
 11 23  1  0
 22 23  1  0
 23 24  1  6
  7 25  1  0
  4 26  1  0
 25 26  1  0
M  END
