piperidine-amides-32401-covalent
     RDKit          3D

 24 26  0  0  0  0  0  0  0  0999 V2000
    7.0390   -3.3640   19.3980 C   0  0  0  0  0  0  0  0  0  0  0  0
    6.3740   -4.2720   20.3740 C   0  0  0  0  0  0  0  0  0  0  0  0
    5.3730   -4.9050   19.9950 O   0  0  0  0  0  0  0  0  0  0  0  0
    6.9090   -4.4410   21.6770 N   0  0  0  0  0  0  0  0  0  0  0  0
    6.5880   -5.5640   22.5110 C   0  0  0  0  0  0  0  0  0  0  0  0
    5.6290   -5.0430   23.5900 C   0  0  0  0  0  0  0  0  0  0  0  0
    6.2760   -3.9040   24.3270 C   0  0  0  0  0  0  0  0  0  0  0  0
    5.3560   -3.2650   25.3300 C   0  0  0  0  0  0  0  0  0  0  0  0
    4.5920   -2.4320   24.8540 O   0  0  0  0  0  0  0  0  0  0  0  0
    5.3260   -3.5730   26.7180 N   0  0  0  0  0  0  0  0  0  0  0  0
    6.4030   -3.5950   27.5570 C   0  0  0  0  0  0  0  0  0  0  0  0
    6.5950   -4.6960   28.3620 C   0  0  0  0  0  0  0  0  0  0  0  0
    5.2940   -4.8390   28.9640 N   0  0  0  0  0  0  0  0  0  0  0  0
    4.9990   -5.6380   30.0650 C   0  0  0  0  0  0  0  0  0  0  0  0
    3.8930   -5.3120   30.8250 N   0  0  0  0  0  0  0  0  0  0  0  0
    3.5260   -6.0250   31.9310 C   0  0  0  0  0  0  0  0  0  0  0  0
    4.4170   -7.1700   32.2370 C   0  0  0  0  0  0  0  0  0  0  0  0
    4.0820   -8.3060   33.7580 Br  0  0  0  0  0  0  0  0  0  0  0  0
    5.5870   -7.4460   31.3530 C   0  0  0  0  0  0  0  0  0  0  0  0
    5.8240   -6.6720   30.3100 N   0  0  0  0  0  0  0  0  0  0  0  0
    4.3440   -3.8230   28.7150 C   0  0  0  0  0  0  0  0  0  0  0  0
    4.0690   -3.6450   27.3570 C   0  0  0  0  0  0  0  0  0  0  0  0
    6.8160   -2.8070   23.4540 C   0  0  0  0  0  0  0  0  0  0  0  0
    7.6460   -3.3720   22.3140 C   0  0  0  0  0  0  0  0  0  0  0  0
  1  2  1  0
  2  3  2  0
  2  4  1  0
  4  5  1  0
  5  6  1  0
  6  7  1  0
  7  8  1  0
  8  9  2  0
  8 10  1  0
 10 11  1  0
 11 12  1  0
 12 13  1  0
 13 14  1  0
 14 15  2  0
 15 16  1  0
 16 17  2  0
 17 18  1  0
 17 19  1  0
 14 20  1  0
 19 20  2  0
 13 21  1  0
 10 22  1  0
 21 22  1  0
  7 23  1  0
  4 24  1  0
 23 24  1  0
M  END
