piperidine-amides-6294-covalent
     RDKit          3D

 26 27  0  0  0  0  0  0  0  0999 V2000
    7.1090   -3.3580   19.3200 C   0  0  0  0  0  0  0  0  0  0  0  0
    6.3900   -4.1730   20.3030 C   0  0  0  0  0  0  0  0  0  0  0  0
    5.3500   -4.7810   19.9690 O   0  0  0  0  0  0  0  0  0  0  0  0
    6.9030   -4.3210   21.5970 N   0  0  0  0  0  0  0  0  0  0  0  0
    7.6940   -3.2500   22.1550 C   0  0  0  0  0  0  0  0  0  0  0  0
    6.8390   -2.6610   23.2670 C   0  0  0  0  0  0  0  0  0  0  0  0
    6.5920   -3.8000   24.2220 C   0  0  0  0  0  0  0  0  0  0  0  0
    5.8210   -3.2910   25.3710 C   0  0  0  0  0  0  0  0  0  0  0  0
    4.5810   -3.1790   25.2640 O   0  0  0  0  0  0  0  0  0  0  0  0
    6.5030   -2.9540   26.5610 N   0  0  0  0  0  0  0  0  0  0  0  0
    6.4100   -1.6410   27.1380 C   0  0  0  0  0  0  0  0  0  0  0  0
    7.0400   -1.5440   28.4910 C   0  0  0  0  0  0  0  0  0  0  0  0
    7.0260   -0.3670   29.1670 C   0  0  0  0  0  0  0  0  0  0  0  0
    6.4240    0.7420   28.5980 C   0  0  0  0  0  0  0  0  0  0  0  0
    6.3970    1.9600   29.2740 C   0  0  0  0  0  0  0  0  0  0  0  0
    5.8280    0.6970   27.3450 C   0  0  0  0  0  0  0  0  0  0  0  0
    5.2560    1.8370   26.8740 N   0  0  0  0  0  0  0  0  0  0  0  0
    5.8770    2.8190   25.6710 S   0  0  0  0  0  0  0  0  0  0  0  0
    5.0680    4.0890   25.6330 O   0  0  0  0  0  0  0  0  0  0  0  0
    7.3250    3.1210   25.9310 O   0  0  0  0  0  0  0  0  0  0  0  0
    5.7620    2.0860   24.0550 C   0  0  0  0  0  0  0  0  0  0  0  0
    6.7050    0.9590   23.7180 C   0  0  0  0  0  0  0  0  0  0  0  0
    6.1120    0.1420   22.6170 C   0  0  0  0  0  0  0  0  0  0  0  0
    5.8300   -0.5050   26.6230 C   0  0  0  0  0  0  0  0  0  0  0  0
    5.8020   -4.8890   23.5410 C   0  0  0  0  0  0  0  0  0  0  0  0
    6.4110   -5.3740   22.4170 C   0  0  0  0  0  0  0  0  0  0  0  0
  1  2  1  0
  2  3  2  0
  2  4  1  0
  4  5  1  0
  5  6  1  0
  6  7  1  0
  7  8  1  0
  8  9  2  0
  8 10  1  0
 10 11  1  0
 11 12  2  0
 12 13  1  0
 13 14  2  0
 14 15  1  0
 14 16  1  0
 16 17  1  0
 18 17  1  0
 18 19  2  0
 18 20  2  0
 18 21  1  0
 21 22  1  0
 22 23  1  0
 11 24  1  0
 16 24  2  0
  7 25  1  0
  4 26  1  0
 25 26  1  0
M  END
