piperidine-amides-15446-covalent
     RDKit          3D

 18 19  0  0  0  0  0  0  0  0999 V2000
    7.1010   -3.3580   19.3850 C   0  0  0  0  0  0  0  0  0  0  0  0
    6.3940   -4.2190   20.3330 C   0  0  0  0  0  0  0  0  0  0  0  0
    5.3680   -4.8400   19.9820 O   0  0  0  0  0  0  0  0  0  0  0  0
    6.9110   -4.3900   21.6220 N   0  0  0  0  0  0  0  0  0  0  0  0
    6.5830   -5.5530   22.3970 C   0  0  0  0  0  0  0  0  0  0  0  0
    5.7000   -5.0540   23.5380 C   0  0  0  0  0  0  0  0  0  0  0  0
    6.4850   -4.0270   24.3470 C   0  0  0  0  0  0  0  0  0  0  0  0
    5.6150   -3.4890   25.4010 C   0  0  0  0  0  0  0  0  0  0  0  0
    4.9340   -2.4780   25.1480 O   0  0  0  0  0  0  0  0  0  0  0  0
    5.5790   -4.1080   26.6670 N   0  0  0  0  0  0  0  0  0  0  0  0
    6.8490   -4.3810   27.2510 C   0  0  0  0  0  0  0  0  0  0  0  0
    6.5280   -5.2100   28.3960 C   0  0  0  0  0  0  0  0  0  0  0  0
    5.3530   -4.8490   28.8050 C   0  0  0  0  0  0  0  0  0  0  0  0
    4.9130   -3.8310   27.9770 C   0  0  0  0  0  0  0  0  0  0  0  0
    3.5920   -3.8970   27.5390 C   0  0  0  0  0  0  0  0  0  0  0  0
    5.3000   -2.5820   28.3850 C   0  0  0  0  0  0  0  0  0  0  0  0
    6.8560   -2.8400   23.4480 C   0  0  0  0  0  0  0  0  0  0  0  0
    7.6630   -3.3740   22.3080 C   0  0  0  0  0  0  0  0  0  0  0  0
  1  2  1  0
  2  3  2  0
  2  4  1  0
  4  5  1  0
  5  6  1  0
  6  7  1  0
  7  8  1  0
  8  9  2  0
  8 10  1  0
 10 11  1  0
 11 12  1  0
 12 13  2  0
 10 14  1  0
 13 14  1  0
 14 15  1  0
 14 16  1  0
  7 17  1  0
  4 18  1  0
 17 18  1  0
M  END
