piperidine-amides-1803-covalent
     RDKit          3D

 19 20  0  0  0  0  0  0  0  0999 V2000
    7.1070   -3.2760   19.1940 C   0  0  0  0  0  0  0  0  0  0  0  0
    6.3660   -4.0460   20.2270 C   0  0  0  0  0  0  0  0  0  0  0  0
    5.2990   -4.5540   19.8880 O   0  0  0  0  0  0  0  0  0  0  0  0
    6.9110   -4.2120   21.5010 N   0  0  0  0  0  0  0  0  0  0  0  0
    7.7140   -3.2000   22.1340 C   0  0  0  0  0  0  0  0  0  0  0  0
    6.9820   -2.6600   23.3230 C   0  0  0  0  0  0  0  0  0  0  0  0
    6.5800   -3.8010   24.2640 C   0  0  0  0  0  0  0  0  0  0  0  0
    5.7550   -3.1730   25.3080 C   0  0  0  0  0  0  0  0  0  0  0  0
    4.5700   -2.9000   25.0710 O   0  0  0  0  0  0  0  0  0  0  0  0
    6.2910   -2.8920   26.5750 N   0  0  0  0  0  0  0  0  0  0  0  0
    5.9100   -3.7740   27.6440 C   0  0  0  0  0  0  0  0  0  0  0  0
    6.5130   -5.1000   27.2940 C   0  0  0  0  0  0  0  0  0  0  0  0
    7.8370   -5.1730   27.2330 C   0  0  0  0  0  0  0  0  0  0  0  0
    8.4260   -5.6470   26.1270 C   0  0  0  0  0  0  0  0  0  0  0  0
    9.7090   -5.5920   26.3540 C   0  0  0  0  0  0  0  0  0  0  0  0
    9.9340   -5.0390   27.7150 C   0  0  0  0  0  0  0  0  0  0  0  0
    8.7370   -4.7740   28.2640 N   0  0  0  0  0  0  0  0  0  0  0  0
    5.8610   -4.9220   23.5640 C   0  0  0  0  0  0  0  0  0  0  0  0
    6.5260   -5.3550   22.2920 C   0  0  0  0  0  0  0  0  0  0  0  0
  1  2  1  0
  2  3  2  0
  2  4  1  0
  4  5  1  0
  5  6  1  0
  6  7  1  0
  7  8  1  0
  8  9  2  0
  8 10  1  0
 10 11  1  0
 11 12  1  0
 12 13  1  0
 13 14  2  0
 14 15  1  0
 15 16  2  0
 13 17  1  0
 16 17  1  0
  7 18  1  0
  4 19  1  0
 18 19  1  0
M  END
