piperidine-amides-2045-covalent
     RDKit          3D

 30 32  0  0  0  0  0  0  0  0999 V2000
    7.1690   -3.2870   19.2760 C   0  0  0  0  0  0  0  0  0  0  0  0
    6.3760   -4.0700   20.2540 C   0  0  0  0  0  0  0  0  0  0  0  0
    5.2950   -4.5110   19.8740 O   0  0  0  0  0  0  0  0  0  0  0  0
    6.8920   -4.3360   21.5240 N   0  0  0  0  0  0  0  0  0  0  0  0
    6.4540   -5.4610   22.2850 C   0  0  0  0  0  0  0  0  0  0  0  0
    5.9730   -4.9240   23.5970 C   0  0  0  0  0  0  0  0  0  0  0  0
    5.7170   -3.4140   23.4540 C   0  0  0  0  0  0  0  0  0  0  0  0
    5.1990   -2.9310   24.7350 C   0  0  0  0  0  0  0  0  0  0  0  0
    3.9980   -2.6830   24.8740 O   0  0  0  0  0  0  0  0  0  0  0  0
    6.0650   -2.7830   25.8010 N   0  0  0  0  0  0  0  0  0  0  0  0
    6.3170   -4.0100   26.4570 C   0  0  2  0  0  0  0  0  0  0  0  0
    5.6390   -3.8880   27.8020 C   0  0  0  0  0  0  0  0  0  0  0  0
    5.2600   -2.6130   28.1250 C   0  0  0  0  0  0  0  0  0  0  0  0
    4.6260   -2.3000   29.2180 C   0  0  0  0  0  0  0  0  0  0  0  0
    4.3530   -3.2890   30.0260 C   0  0  0  0  0  0  0  0  0  0  0  0
    3.4760   -2.9150   31.5050 Cl  0  0  0  0  0  0  0  0  0  0  0  0
    4.6840   -4.7510   29.8730 C   0  0  0  0  0  0  0  0  0  0  0  0
    5.4420   -5.1660   28.5940 C   0  0  0  0  0  0  0  0  0  0  0  0
    7.8070   -4.2060   26.4850 C   0  0  0  0  0  0  0  0  0  0  0  0
    8.3890   -5.1190   27.4770 C   0  0  0  0  0  0  0  0  0  0  0  0
    9.8310   -5.2590   27.4170 C   0  0  0  0  0  0  0  0  0  0  0  0
   10.6300   -4.5040   26.3900 C   0  0  0  0  0  0  0  0  0  0  0  0
    9.9740   -3.5990   25.4390 C   0  0  0  0  0  0  0  0  0  0  0  0
   10.8050   -2.8200   24.4360 C   0  0  0  0  0  0  0  0  0  0  0  0
   12.1860   -2.9030   24.4780 C   0  0  0  0  0  0  0  0  0  0  0  0
   10.5370   -1.4340   24.8310 C   0  0  0  0  0  0  0  0  0  0  0  0
   10.2110   -2.8130   23.0760 C   0  0  0  0  0  0  0  0  0  0  0  0
    8.6080   -3.5010   25.5340 C   0  0  0  0  0  0  0  0  0  0  0  0
    6.8520   -2.5180   23.0120 C   0  0  0  0  0  0  0  0  0  0  0  0
    7.7680   -3.3700   22.1400 C   0  0  0  0  0  0  0  0  0  0  0  0
  1  2  1  0
  2  3  2  0
  2  4  1  0
  4  5  1  0
  5  6  1  0
  6  7  1  0
  7  8  1  0
  8  9  2  0
  8 10  1  0
 11 10  1  6
 11 12  1  0
 12 13  2  0
 13 14  1  0
 14 15  2  0
 15 16  1  0
 15 17  1  0
 12 18  1  0
 17 18  2  0
 11 19  1  0
 19 20  2  0
 20 21  1  0
 21 22  2  0
 22 23  1  0
 23 24  1  0
 24 25  1  0
 24 26  1  0
 24 27  1  0
 19 28  1  0
 23 28  2  0
  7 29  1  0
  4 30  1  0
 29 30  1  0
M  END
