piperidine-amides-28982-covalent
     RDKit          3D

 26 28  0  0  0  0  0  0  0  0999 V2000
    7.0050   -3.3540   19.3740 C   0  0  0  0  0  0  0  0  0  0  0  0
    6.3810   -4.2170   20.3790 C   0  0  0  0  0  0  0  0  0  0  0  0
    5.4200   -4.9150   20.0000 O   0  0  0  0  0  0  0  0  0  0  0  0
    6.8770   -4.2820   21.7200 N   0  0  0  0  0  0  0  0  0  0  0  0
    6.5730   -5.4610   22.4920 C   0  0  0  0  0  0  0  0  0  0  0  0
    5.9810   -5.0890   23.8360 C   0  0  0  0  0  0  0  0  0  0  0  0
    5.7530   -3.5900   23.8310 C   0  0  0  0  0  0  0  0  0  0  0  0
    4.8590   -3.0910   24.9740 C   0  0  0  0  0  0  0  0  0  0  0  0
    3.6770   -3.0130   24.6810 O   0  0  0  0  0  0  0  0  0  0  0  0
    5.3360   -2.7590   26.2420 N   0  0  0  0  0  0  0  0  0  0  0  0
    4.5290   -2.5530   27.3790 C   0  0  0  0  0  0  0  0  0  0  0  0
    4.7960   -3.5610   28.3150 C   0  0  2  0  0  0  0  0  0  0  0  0
    5.4970   -3.4050   29.3850 C   0  0  0  0  0  0  0  0  0  0  0  0
    6.3650   -4.3040   29.0160 C   0  0  0  0  0  0  0  0  0  0  0  0
    5.8640   -4.4340   27.5560 C   0  0  1  0  0  0  0  0  0  0  0  0
    5.5850   -5.6730   27.1100 N   0  0  0  0  0  0  0  0  0  0  0  0
    4.6500   -6.3910   27.7360 C   0  0  0  0  0  0  0  0  0  0  0  0
    4.1160   -7.3570   27.1370 O   0  0  0  0  0  0  0  0  0  0  0  0
    4.4120   -5.9470   28.9520 O   0  0  0  0  0  0  0  0  0  0  0  0
    4.5960   -6.9450   29.8990 C   0  0  0  0  0  0  0  0  0  0  0  0
    5.8560   -7.7190   29.6640 C   0  0  0  0  0  0  0  0  0  0  0  0
    3.4840   -7.7440   29.9440 C   0  0  0  0  0  0  0  0  0  0  0  0
    4.6020   -6.3130   31.1270 C   0  0  0  0  0  0  0  0  0  0  0  0
    6.3800   -3.5060   26.6390 C   0  0  0  0  0  0  0  0  0  0  0  0
    7.0420   -2.8620   23.6710 C   0  0  0  0  0  0  0  0  0  0  0  0
    7.6290   -3.1970   22.3210 C   0  0  0  0  0  0  0  0  0  0  0  0
  1  2  1  0
  2  3  2  0
  2  4  1  0
  4  5  1  0
  5  6  1  0
  6  7  1  0
  7  8  1  0
  8  9  2  0
  8 10  1  0
 10 11  1  0
 12 11  1  6
 12 13  1  0
 13 14  1  0
 12 15  1  0
 14 15  1  0
 15 16  1  6
 16 17  1  0
 17 18  2  0
 17 19  1  0
 20 19  1  0
 20 21  1  0
 20 22  1  0
 20 23  1  0
 10 24  1  0
 15 24  1  0
  7 25  1  0
  4 26  1  0
 25 26  1  0
M  END
