piperidine-amides-6897-covalent
     RDKit          3D

 22 23  0  0  0  0  0  0  0  0999 V2000
    7.0940   -3.2640   19.2770 C   0  0  0  0  0  0  0  0  0  0  0  0
    6.3670   -4.0690   20.2690 C   0  0  0  0  0  0  0  0  0  0  0  0
    5.3350   -4.6950   19.9380 O   0  0  0  0  0  0  0  0  0  0  0  0
    6.8410   -4.1900   21.5850 N   0  0  0  0  0  0  0  0  0  0  0  0
    6.6680   -5.4560   22.2600 C   0  0  0  0  0  0  0  0  0  0  0  0
    6.0160   -5.1190   23.5970 C   0  0  0  0  0  0  0  0  0  0  0  0
    5.8070   -3.6250   23.5530 C   0  0  0  0  0  0  0  0  0  0  0  0
    4.9860   -3.1590   24.6920 C   0  0  0  0  0  0  0  0  0  0  0  0
    3.8510   -3.6400   24.8420 O   0  0  0  0  0  0  0  0  0  0  0  0
    5.4740   -2.2030   25.5930 N   0  0  0  0  0  0  0  0  0  0  0  0
    6.4300   -2.6340   26.5180 C   0  0  0  0  0  0  0  0  0  0  0  0
    5.9840   -3.9450   27.1320 C   0  0  0  0  0  0  0  0  0  0  0  0
    5.4650   -4.9910   26.3850 C   0  0  0  0  0  0  0  0  0  0  0  0
    5.0770   -6.1940   26.9420 C   0  0  0  0  0  0  0  0  0  0  0  0
    5.1800   -6.4470   28.3030 C   0  0  0  0  0  0  0  0  0  0  0  0
    4.8400   -7.5830   28.9820 C   0  0  0  0  0  0  0  0  0  0  0  0
    3.4650   -7.6930   29.5980 C   0  0  0  0  0  0  0  0  0  0  0  0
    5.7240   -5.3510   29.1090 C   0  0  0  0  0  0  0  0  0  0  0  0
    6.1220   -4.0780   28.4690 C   0  0  0  0  0  0  0  0  0  0  0  0
    6.6180   -3.0490   29.1690 F   0  0  0  0  0  0  0  0  0  0  0  0
    7.1440   -2.9340   23.4850 C   0  0  0  0  0  0  0  0  0  0  0  0
    7.6680   -3.1590   22.1960 C   0  0  0  0  0  0  0  0  0  0  0  0
  1  2  1  0
  2  3  2  0
  2  4  1  0
  4  5  1  0
  5  6  1  0
  6  7  1  0
  7  8  1  0
  8  9  2  0
  8 10  1  0
 10 11  1  0
 11 12  1  0
 12 13  2  0
 13 14  1  0
 14 15  2  0
 15 16  1  0
 16 17  1  0
 15 18  1  0
 12 19  1  0
 18 19  2  0
 19 20  1  0
  7 21  1  0
  4 22  1  0
 21 22  1  0
M  END
