piperidine-amides-29752-covalent
     RDKit          3D

 25 27  0  0  0  0  0  0  0  0999 V2000
    7.1390   -3.3480   19.3310 C   0  0  0  0  0  0  0  0  0  0  0  0
    6.3900   -4.1420   20.2840 C   0  0  0  0  0  0  0  0  0  0  0  0
    5.3510   -4.7130   19.9490 O   0  0  0  0  0  0  0  0  0  0  0  0
    6.9180   -4.2980   21.6060 N   0  0  0  0  0  0  0  0  0  0  0  0
    6.7310   -5.5530   22.2990 C   0  0  0  0  0  0  0  0  0  0  0  0
    6.2310   -5.2890   23.6900 C   0  0  0  0  0  0  0  0  0  0  0  0
    6.1830   -3.7880   23.8130 C   0  0  0  0  0  0  0  0  0  0  0  0
    5.5620   -3.3810   25.0800 C   0  0  0  0  0  0  0  0  0  0  0  0
    4.5100   -2.7190   25.1070 O   0  0  0  0  0  0  0  0  0  0  0  0
    6.1420   -3.7440   26.2930 N   0  0  0  0  0  0  0  0  0  0  0  0
    5.8870   -5.1290   26.6660 C   0  0  0  0  0  0  0  0  0  0  0  0
    4.8960   -5.0050   27.7270 C   0  0  1  0  0  0  0  0  0  0  0  0
    4.6770   -5.8780   28.7620 C   0  0  0  0  0  0  0  0  0  0  0  0
    5.8440   -6.5690   29.2030 N   0  0  0  0  0  0  0  0  0  0  0  0
    5.6680   -7.5350   30.5820 S   0  0  0  0  0  0  0  0  0  0  0  0
    3.9680   -7.8870   30.8400 C   0  0  0  0  0  0  0  0  0  0  0  0
    6.1540   -6.8800   31.8320 O   0  0  0  0  0  0  0  0  0  0  0  0
    6.4420   -8.7850   30.4030 O   0  0  0  0  0  0  0  0  0  0  0  0
    5.3620   -3.6470   28.2980 C   0  0  0  0  0  0  0  0  0  0  0  0
    4.1630   -3.0770   28.7340 C   0  0  0  0  0  0  0  0  0  0  0  0
    4.6750   -3.1480   29.9450 C   0  0  0  0  0  0  0  0  0  0  0  0
    5.9350   -3.7270   29.5430 C   0  0  0  0  0  0  0  0  0  0  0  0
    6.0000   -2.7580   27.3270 C   0  0  0  0  0  0  0  0  0  0  0  0
    7.4230   -3.1140   23.5420 C   0  0  0  0  0  0  0  0  0  0  0  0
    7.7220   -3.2460   22.2070 C   0  0  0  0  0  0  0  0  0  0  0  0
  1  2  1  0
  2  3  2  0
  2  4  1  0
  4  5  1  0
  5  6  1  0
  6  7  1  0
  7  8  1  0
  8  9  2  0
  8 10  1  0
 10 11  1  0
 11 12  1  0
 12 13  1  1
 13 14  1  0
 15 14  1  0
 15 16  1  0
 15 17  2  0
 15 18  2  0
 12 19  1  0
 19 20  1  0
 20 21  1  0
 19 22  1  0
 21 22  1  0
 10 23  1  0
 19 23  1  0
  7 24  1  0
  4 25  1  0
 24 25  1  0
M  END
