piperidine-amides-27184-covalent
     RDKit          3D

 24 26  0  0  0  0  0  0  0  0999 V2000
    7.1090   -3.2850   19.1940 C   0  0  0  0  0  0  0  0  0  0  0  0
    6.3760   -4.0420   20.2120 C   0  0  0  0  0  0  0  0  0  0  0  0
    5.2760   -4.5440   19.8730 O   0  0  0  0  0  0  0  0  0  0  0  0
    6.9250   -4.2310   21.4710 N   0  0  0  0  0  0  0  0  0  0  0  0
    6.4920   -5.3570   22.2590 C   0  0  0  0  0  0  0  0  0  0  0  0
    5.5530   -4.8160   23.3150 C   0  0  0  0  0  0  0  0  0  0  0  0
    6.1450   -3.5900   24.0250 C   0  0  0  0  0  0  0  0  0  0  0  0
    5.1550   -3.0000   25.0040 C   0  0  0  0  0  0  0  0  0  0  0  0
    4.3510   -2.1080   24.6910 O   0  0  0  0  0  0  0  0  0  0  0  0
    5.2090   -3.5250   26.2790 N   0  0  0  0  0  0  0  0  0  0  0  0
    5.5080   -2.6980   27.4460 C   0  0  0  0  0  0  0  0  0  0  0  0
    5.5040   -3.4990   28.7410 C   0  0  0  0  0  0  0  0  0  0  0  0
    6.2060   -4.6350   28.7620 C   0  0  0  0  0  0  0  0  0  0  0  0
    6.7800   -4.8960   27.5780 C   0  0  0  0  0  0  0  0  0  0  0  0
    7.8550   -5.6450   27.4140 C   0  0  0  0  0  0  0  0  0  0  0  0
    8.3490   -6.1070   28.4890 C   0  0  0  0  0  0  0  0  0  0  0  0
    8.4770   -5.9290   26.2410 C   0  0  0  0  0  0  0  0  0  0  0  0
    9.5680   -6.6750   26.3310 F   0  0  0  0  0  0  0  0  0  0  0  0
    8.0030   -5.4350   24.9200 C   0  0  0  0  0  0  0  0  0  0  0  0
    6.8080   -4.5860   25.1210 C   0  0  0  0  0  0  0  0  0  0  0  0
    6.0600   -3.8600   23.7290 Cl  0  0  0  0  0  0  0  0  0  0  0  0
    6.2860   -4.3750   26.4880 C   0  0  0  0  0  0  0  0  0  0  0  0
    6.6910   -2.5760   23.0470 C   0  0  0  0  0  0  0  0  0  0  0  0
    7.6170   -3.1420   22.1820 C   0  0  0  0  0  0  0  0  0  0  0  0
  1  2  1  0
  2  3  2  0
  2  4  1  0
  4  5  1  0
  5  6  1  0
  6  7  1  0
  7  8  1  0
  8  9  2  0
  8 10  1  0
 10 11  1  0
 11 12  1  0
 12 13  1  0
 13 14  1  0
 14 15  2  0
 15 16  1  0
 15 17  1  0
 17 18  1  0
 17 19  2  0
 19 20  1  0
 20 21  1  0
 10 22  1  0
 14 22  1  0
 20 22  2  0
  7 23  1  0
  4 24  1  0
 23 24  1  0
M  END
