piperidine-amides-6550-covalent
     RDKit          3D

 24 25  0  0  0  0  0  0  0  0999 V2000
    7.1110   -3.3140   19.2700 C   0  0  0  0  0  0  0  0  0  0  0  0
    6.3400   -4.0830   20.2570 C   0  0  0  0  0  0  0  0  0  0  0  0
    5.2740   -4.6350   19.9150 O   0  0  0  0  0  0  0  0  0  0  0  0
    6.8160   -4.2590   21.5600 N   0  0  0  0  0  0  0  0  0  0  0  0
    7.6530   -3.2550   22.1710 C   0  0  0  0  0  0  0  0  0  0  0  0
    6.8690   -2.7190   23.3660 C   0  0  0  0  0  0  0  0  0  0  0  0
    6.3600   -3.9170   24.1510 C   0  0  0  0  0  0  0  0  0  0  0  0
    5.5310   -3.4630   25.2920 C   0  0  0  0  0  0  0  0  0  0  0  0
    4.3080   -3.3010   25.0970 O   0  0  0  0  0  0  0  0  0  0  0  0
    6.1010   -3.2100   26.5730 N   0  0  0  0  0  0  0  0  0  0  0  0
    5.7150   -2.0050   27.2560 C   0  0  0  0  0  0  0  0  0  0  0  0
    6.1720   -2.0450   28.7120 C   0  0  0  0  0  0  0  0  0  0  0  0
    6.7010   -1.4010   29.8540 O   0  0  0  0  0  0  0  0  0  0  0  0
    6.3710   -0.6970   28.2000 O   0  0  0  0  0  0  0  0  0  0  0  0
    7.6280   -0.4380   27.6500 C   0  0  0  0  0  0  0  0  0  0  0  0
    7.9980   -1.6880   27.3680 C   0  0  0  0  0  0  0  0  0  0  0  0
    7.9280   -2.3350   26.1970 C   0  0  0  0  0  0  0  0  0  0  0  0
    8.2670   -3.6240   25.9610 C   0  0  0  0  0  0  0  0  0  0  0  0
    8.8140   -4.7110   26.8950 C   0  0  0  0  0  0  0  0  0  0  0  0
    9.2620   -6.3230   26.6620 Cl  0  0  0  0  0  0  0  0  0  0  0  0
    8.8570   -3.8490   28.1480 C   0  0  0  0  0  0  0  0  0  0  0  0
    8.4700   -2.4420   28.3360 C   0  0  0  0  0  0  0  0  0  0  0  0
    5.5140   -4.8160   23.2680 C   0  0  0  0  0  0  0  0  0  0  0  0
    6.4200   -5.3870   22.3630 C   0  0  0  0  0  0  0  0  0  0  0  0
  1  2  1  0
  2  3  2  0
  2  4  1  0
  4  5  1  0
  5  6  1  0
  6  7  1  0
  7  8  1  0
  8  9  2  0
  8 10  1  0
 10 11  1  0
 11 12  1  0
 12 13  2  0
 12 14  1  0
 14 15  1  0
 15 16  1  0
 16 17  2  0
 17 18  1  0
 18 19  2  0
 19 20  1  0
 19 21  1  0
 16 22  1  0
 21 22  2  0
  7 23  1  0
  4 24  1  0
 23 24  1  0
M  END
