piperidine-amides-1978-covalent
     RDKit          3D

 17 18  0  0  0  0  0  0  0  0999 V2000
    7.0810   -3.2950   19.2660 C   0  0  0  0  0  0  0  0  0  0  0  0
    6.3500   -4.0860   20.2940 C   0  0  0  0  0  0  0  0  0  0  0  0
    5.3150   -4.6400   19.9200 O   0  0  0  0  0  0  0  0  0  0  0  0
    6.8440   -4.2250   21.6000 N   0  0  0  0  0  0  0  0  0  0  0  0
    6.6330   -5.4460   22.3330 C   0  0  0  0  0  0  0  0  0  0  0  0
    6.1010   -5.1180   23.6990 C   0  0  0  0  0  0  0  0  0  0  0  0
    6.1020   -3.6020   23.9050 C   0  0  0  0  0  0  0  0  0  0  0  0
    5.5610   -3.3180   25.2500 C   0  0  0  0  0  0  0  0  0  0  0  0
    4.3390   -3.4200   25.4300 O   0  0  0  0  0  0  0  0  0  0  0  0
    6.3720   -2.9330   26.3330 N   0  0  0  0  0  0  0  0  0  0  0  0
    5.7330   -2.1860   27.3920 C   0  0  2  0  0  0  0  0  0  0  0  0
    6.4970   -0.9650   27.7330 C   0  0  0  0  0  0  0  0  0  0  0  0
    6.8600   -1.4050   28.9740 C   0  0  1  0  0  0  0  0  0  0  0  0
    6.2380   -0.3200   30.4180 Br  0  0  0  0  0  0  0  0  0  0  0  0
    6.1870   -2.5990   28.7720 C   0  0  0  0  0  0  0  0  0  0  0  0
    7.5120   -3.0740   23.6210 C   0  0  0  0  0  0  0  0  0  0  0  0
    7.6430   -3.1170   22.1130 C   0  0  0  0  0  0  0  0  0  0  0  0
  1  2  1  0
  2  3  2  0
  2  4  1  0
  4  5  1  0
  5  6  1  0
  6  7  1  0
  7  8  1  0
  8  9  2  0
  8 10  1  0
 11 10  1  6
 11 12  1  0
 12 13  1  0
 13 14  1  1
 11 15  1  0
 13 15  1  0
  7 16  1  0
  4 17  1  0
 16 17  1  0
M  END
