piperidine-amides-633-covalent
     RDKit          3D

 26 28  0  0  0  0  0  0  0  0999 V2000
    7.1870   -3.2710   19.0880 C   0  0  0  0  0  0  0  0  0  0  0  0
    6.3980   -3.8470   20.1530 C   0  0  0  0  0  0  0  0  0  0  0  0
    5.2970   -4.4070   19.8400 O   0  0  0  0  0  0  0  0  0  0  0  0
    6.8200   -3.8690   21.4920 N   0  0  0  0  0  0  0  0  0  0  0  0
    6.5750   -5.1210   22.2270 C   0  0  0  0  0  0  0  0  0  0  0  0
    5.6280   -4.5980   23.3760 C   0  0  0  0  0  0  0  0  0  0  0  0
    6.0590   -3.1790   23.6520 C   0  0  0  0  0  0  0  0  0  0  0  0
    5.3040   -2.5310   24.8830 C   0  0  0  0  0  0  0  0  0  0  0  0
    4.2100   -2.1420   24.5100 O   0  0  0  0  0  0  0  0  0  0  0  0
    5.9820   -2.5660   25.9520 N   0  0  0  0  0  0  0  0  0  0  0  0
    6.5120   -2.5660   27.1900 C   0  0  0  0  0  0  0  0  0  0  0  0
    6.3390   -3.1970   28.3740 C   0  0  1  0  0  0  0  0  0  0  0  0
    4.9590   -3.0810   28.6690 C   0  0  0  0  0  0  0  0  0  0  0  0
    4.3910   -4.2620   28.0430 C   0  0  0  0  0  0  0  0  0  0  0  0
    5.4440   -5.0880   27.6520 N   0  0  0  0  0  0  0  0  0  0  0  0
    5.5200   -5.8030   26.3740 C   0  0  0  0  0  0  0  0  0  0  0  0
    6.8460   -5.6830   25.8580 C   0  0  0  0  0  0  0  0  0  0  0  0
    7.5680   -6.1600   24.6940 C   0  0  0  0  0  0  0  0  0  0  0  0
    6.4190   -6.9640   23.9930 C   0  0  0  0  0  0  0  0  0  0  0  0
    6.7620   -7.5620   22.8450 F   0  0  0  0  0  0  0  0  0  0  0  0
    4.9720   -7.0880   24.5460 C   0  0  0  0  0  0  0  0  0  0  0  0
    4.5680   -6.5280   25.6790 C   0  0  0  0  0  0  0  0  0  0  0  0
    3.2600   -6.6670   26.1520 F   0  0  0  0  0  0  0  0  0  0  0  0
    6.5950   -4.6660   28.3980 C   0  0  0  0  0  0  0  0  0  0  0  0
    7.5200   -2.8870   23.4320 C   0  0  0  0  0  0  0  0  0  0  0  0
    7.6680   -2.8400   22.0700 C   0  0  0  0  0  0  0  0  0  0  0  0
  1  2  1  0
  2  3  2  0
  2  4  1  0
  4  5  1  0
  5  6  1  0
  6  7  1  0
  7  8  1  0
  8  9  2  0
  8 10  1  0
 10 11  1  0
 12 11  1  6
 12 13  1  0
 13 14  1  0
 14 15  1  0
 15 16  1  0
 16 17  2  0
 17 18  1  0
 18 19  2  0
 19 20  1  0
 19 21  1  0
 16 22  1  0
 21 22  2  0
 22 23  1  0
 12 24  1  0
 15 24  1  0
  7 25  1  0
  4 26  1  0
 25 26  1  0
M  END
