piperidine-amides-4784-covalent
     RDKit          3D

 23 24  0  0  0  0  0  0  0  0999 V2000
    7.1330   -3.2210   19.0220 C   0  0  0  0  0  0  0  0  0  0  0  0
    6.2910   -3.9240   20.0180 C   0  0  0  0  0  0  0  0  0  0  0  0
    5.1350   -4.2300   19.6980 O   0  0  0  0  0  0  0  0  0  0  0  0
    6.8010   -4.2670   21.2560 N   0  0  0  0  0  0  0  0  0  0  0  0
    7.4390   -3.2560   22.0120 C   0  0  0  0  0  0  0  0  0  0  0  0
    7.5550   -3.5050   23.4260 C   0  0  0  0  0  0  0  0  0  0  0  0
    6.6430   -4.4810   24.0420 C   0  0  0  0  0  0  0  0  0  0  0  0
    5.9660   -3.8130   25.1430 C   0  0  0  0  0  0  0  0  0  0  0  0
    4.8970   -3.1930   24.9540 O   0  0  0  0  0  0  0  0  0  0  0  0
    6.5590   -3.8960   26.3850 N   0  0  0  0  0  0  0  0  0  0  0  0
    6.2120   -2.9780   27.4410 C   0  0  0  0  0  0  0  0  0  0  0  0
    6.2750   -3.6480   28.7450 C   0  0  1  0  0  0  0  0  0  0  0  0
    6.9900   -4.9290   28.8620 C   0  0  0  0  0  0  0  0  0  0  0  0
    6.2910   -2.9240   29.7710 O   0  0  0  0  0  0  0  0  0  0  0  0
    5.4780   -4.8250   29.1350 C   0  0  0  0  0  0  0  0  0  0  0  0
    4.3510   -4.5030   29.8530 C   0  0  0  0  0  0  0  0  0  0  0  0
    3.7160   -5.5290   30.4740 C   0  0  0  0  0  0  0  0  0  0  0  0
    2.9660   -6.3880   29.7270 C   0  0  0  0  0  0  0  0  0  0  0  0
    3.5340   -7.3610   28.9500 C   0  0  0  0  0  0  0  0  0  0  0  0
    4.8060   -7.0870   28.4230 C   0  0  0  0  0  0  0  0  0  0  0  0
    5.1790   -5.6920   28.1010 C   0  0  0  0  0  0  0  0  0  0  0  0
    5.6690   -5.1200   23.1400 C   0  0  0  0  0  0  0  0  0  0  0  0
    6.3820   -5.4900   21.8920 C   0  0  0  0  0  0  0  0  0  0  0  0
  1  2  1  0
  2  3  2  0
  2  4  1  0
  4  5  1  0
  5  6  1  0
  6  7  1  0
  7  8  1  0
  8  9  2  0
  8 10  1  0
 10 11  1  0
 11 12  1  0
 12 13  1  6
 12 14  1  0
 12 15  1  0
 15 16  1  0
 16 17  1  0
 17 18  1  0
 18 19  1  0
 19 20  1  0
 15 21  1  0
 20 21  1  0
  7 22  1  0
  4 23  1  0
 22 23  1  0
M  END
