piperidine-amides-405-covalent
     RDKit          3D

 28 29  0  0  0  0  0  0  0  0999 V2000
    7.0880   -3.3290   19.2300 C   0  0  0  0  0  0  0  0  0  0  0  0
    6.3220   -4.0220   20.2390 C   0  0  0  0  0  0  0  0  0  0  0  0
    5.2300   -4.5510   19.8820 O   0  0  0  0  0  0  0  0  0  0  0  0
    6.7510   -4.1930   21.5660 N   0  0  0  0  0  0  0  0  0  0  0  0
    7.6720   -3.1850   22.1430 C   0  0  0  0  0  0  0  0  0  0  0  0
    6.7380   -2.5880   23.2580 C   0  0  0  0  0  0  0  0  0  0  0  0
    6.4260   -3.7590   24.1560 C   0  0  0  0  0  0  0  0  0  0  0  0
    5.6860   -3.2710   25.4750 C   0  0  0  0  0  0  0  0  0  0  0  0
    4.7930   -2.4710   25.2260 O   0  0  0  0  0  0  0  0  0  0  0  0
    6.2350   -3.8680   26.4470 N   0  0  0  0  0  0  0  0  0  0  0  0
    6.8330   -4.5540   27.4550 C   0  0  0  0  0  0  0  0  0  0  0  0
    7.6080   -5.6470   27.6980 C   0  0  0  0  0  0  0  0  0  0  0  0
    8.7020   -5.7480   26.8290 C   0  0  0  0  0  0  0  0  0  0  0  0
    9.4310   -4.4950   26.8460 C   0  0  0  0  0  0  0  0  0  0  0  0
   10.2970   -4.8870   25.6790 C   0  0  0  0  0  0  0  0  0  0  0  0
   11.4590   -4.0140   25.6430 N   0  0  0  0  0  0  0  0  0  0  0  0
   11.2730   -2.8020   24.9350 C   0  0  0  0  0  0  0  0  0  0  0  0
   10.7660   -1.7400   25.3210 O   0  0  0  0  0  0  0  0  0  0  0  0
   11.7040   -2.7210   23.6030 O   0  0  0  0  0  0  0  0  0  0  0  0
   10.9860   -2.1430   22.5780 C   0  0  0  0  0  0  0  0  0  0  0  0
   11.2230   -0.6390   22.6570 C   0  0  0  0  0  0  0  0  0  0  0  0
   12.6570   -0.0500   22.7630 C   0  0  0  0  0  0  0  0  0  0  0  0
   12.7690    1.3000   22.8220 C   0  0  0  0  0  0  0  0  0  0  0  0
   11.7040    2.1460   22.7950 C   0  0  0  0  0  0  0  0  0  0  0  0
   10.4360    1.6490   22.7060 C   0  0  0  0  0  0  0  0  0  0  0  0
   10.1850    0.2830   22.6370 C   0  0  0  0  0  0  0  0  0  0  0  0
    5.7590   -4.9550   23.5510 C   0  0  0  0  0  0  0  0  0  0  0  0
    6.4220   -5.3970   22.2800 C   0  0  0  0  0  0  0  0  0  0  0  0
  1  2  1  0
  2  3  2  0
  2  4  1  0
  4  5  1  0
  5  6  1  0
  6  7  1  0
  7  8  1  0
  8  9  2  0
  8 10  1  0
 10 11  1  0
 11 12  1  0
 12 13  1  0
 13 14  1  0
 14 15  1  0
 15 16  1  0
 16 17  1  0
 17 18  2  0
 17 19  1  0
 19 20  1  0
 20 21  1  0
 21 22  2  0
 22 23  1  0
 23 24  2  0
 24 25  1  0
 21 26  1  0
 25 26  2  0
  7 27  1  0
  4 28  1  0
 27 28  1  0
M  END
