piperidine-amides-32590-covalent
     RDKit          3D

 26 28  0  0  0  0  0  0  0  0999 V2000
    7.0270   -3.3370   19.3640 C   0  0  0  0  0  0  0  0  0  0  0  0
    6.3400   -4.2060   20.3650 C   0  0  0  0  0  0  0  0  0  0  0  0
    5.3690   -4.8860   19.9870 O   0  0  0  0  0  0  0  0  0  0  0  0
    6.8140   -4.2710   21.6960 N   0  0  0  0  0  0  0  0  0  0  0  0
    6.7340   -5.4990   22.4630 C   0  0  0  0  0  0  0  0  0  0  0  0
    6.1650   -5.2130   23.8680 C   0  0  0  0  0  0  0  0  0  0  0  0
    6.1740   -3.7390   24.0960 C   0  0  0  0  0  0  0  0  0  0  0  0
    5.7750   -3.2970   25.4650 C   0  0  0  0  0  0  0  0  0  0  0  0
    5.0520   -2.3020   25.5020 O   0  0  0  0  0  0  0  0  0  0  0  0
    6.1580   -3.9870   26.6290 N   0  0  0  0  0  0  0  0  0  0  0  0
    5.5790   -5.1600   27.0790 C   0  0  0  0  0  0  0  0  0  0  0  0
    5.8830   -5.6120   28.3290 C   0  0  0  0  0  0  0  0  0  0  0  0
    5.4680   -4.5600   29.2180 N   0  0  0  0  0  0  0  0  0  0  0  0
    4.2270   -4.5580   29.8520 C   0  0  0  0  0  0  0  0  0  0  0  0
    4.2190   -5.5510   30.8060 C   0  0  0  0  0  0  0  0  0  0  0  0
    5.3370   -6.5320   30.9070 C   0  0  0  0  0  0  0  0  0  0  0  0
    5.4190   -7.6590   31.9380 C   0  0  0  0  0  0  0  0  0  0  0  0
    4.2310   -7.7230   32.8940 C   0  0  0  0  0  0  0  0  0  0  0  0
    4.1330   -8.9440   34.1570 Cl  0  0  0  0  0  0  0  0  0  0  0  0
    3.2400   -6.7730   32.7220 C   0  0  0  0  0  0  0  0  0  0  0  0
    3.1910   -5.6890   31.7130 C   0  0  0  0  0  0  0  0  0  0  0  0
    1.7590   -4.6720   31.8130 Cl  0  0  0  0  0  0  0  0  0  0  0  0
    5.6410   -3.2650   28.6480 C   0  0  0  0  0  0  0  0  0  0  0  0
    6.6520   -3.1980   27.7450 C   0  0  0  0  0  0  0  0  0  0  0  0
    7.4460   -3.0630   23.7040 C   0  0  0  0  0  0  0  0  0  0  0  0
    7.6580   -3.1970   22.2190 C   0  0  0  0  0  0  0  0  0  0  0  0
  1  2  1  0
  2  3  2  0
  2  4  1  0
  4  5  1  0
  5  6  1  0
  6  7  1  0
  7  8  1  0
  8  9  2  0
  8 10  1  0
 10 11  1  0
 11 12  1  0
 12 13  1  0
 13 14  1  0
 14 15  1  0
 15 16  2  0
 16 17  1  0
 17 18  2  0
 18 19  1  0
 18 20  1  0
 15 21  1  0
 20 21  2  0
 21 22  1  0
 13 23  1  0
 10 24  1  0
 23 24  1  0
  7 25  1  0
  4 26  1  0
 25 26  1  0
M  END
