piperidine-amides-30954-covalent
     RDKit          3D

 27 28  0  0  0  0  0  0  0  0999 V2000
    7.0910   -3.3170   19.2610 C   0  0  0  0  0  0  0  0  0  0  0  0
    6.3910   -4.1240   20.2590 C   0  0  0  0  0  0  0  0  0  0  0  0
    5.3500   -4.7260   19.9460 O   0  0  0  0  0  0  0  0  0  0  0  0
    6.9080   -4.2710   21.5490 N   0  0  0  0  0  0  0  0  0  0  0  0
    7.7810   -3.2720   22.1320 C   0  0  0  0  0  0  0  0  0  0  0  0
    7.1220   -2.8220   23.3990 C   0  0  0  0  0  0  0  0  0  0  0  0
    6.7020   -3.9830   24.2440 C   0  0  0  0  0  0  0  0  0  0  0  0
    5.7690   -3.5440   25.3000 C   0  0  0  0  0  0  0  0  0  0  0  0
    4.7850   -2.7940   25.0290 O   0  0  0  0  0  0  0  0  0  0  0  0
    5.9240   -3.9440   26.6320 N   0  0  0  0  0  0  0  0  0  0  0  0
    4.9400   -3.4830   27.6380 C   0  0  0  0  0  0  0  0  0  0  0  0
    5.6310   -3.3110   28.9310 C   0  0  0  0  0  0  0  0  0  0  0  0
    6.7120   -2.3240   28.8870 C   0  0  0  0  0  0  0  0  0  0  0  0
    7.9940   -2.8310   28.2620 C   0  0  0  0  0  0  0  0  0  0  0  0
    8.2150   -4.3530   28.2420 C   0  0  0  0  0  0  0  0  0  0  0  0
    6.9500   -5.0230   28.0720 C   0  0  2  0  0  0  0  0  0  0  0  0
    6.9000   -6.2780   28.7460 N   0  0  0  0  0  0  0  0  0  0  0  0
    5.9600   -6.3400   29.7140 C   0  0  0  0  0  0  0  0  0  0  0  0
    6.1730   -6.8780   30.8570 O   0  0  0  0  0  0  0  0  0  0  0  0
    4.8740   -5.8270   29.4030 O   0  0  0  0  0  0  0  0  0  0  0  0
    3.9800   -6.6870   28.8070 C   0  0  0  0  0  0  0  0  0  0  0  0
    4.2110   -7.1040   27.3700 C   0  0  0  0  0  0  0  0  0  0  0  0
    4.0640   -7.9240   29.6280 C   0  0  0  0  0  0  0  0  0  0  0  0
    2.5720   -6.2190   28.9900 C   0  0  0  0  0  0  0  0  0  0  0  0
    6.6030   -5.2020   26.7880 C   0  0  0  0  0  0  0  0  0  0  0  0
    6.0600   -5.1170   23.5450 C   0  0  0  0  0  0  0  0  0  0  0  0
    6.6200   -5.4230   22.3320 C   0  0  0  0  0  0  0  0  0  0  0  0
  1  2  1  0
  2  3  2  0
  2  4  1  0
  4  5  1  0
  5  6  1  0
  6  7  1  0
  7  8  1  0
  8  9  2  0
  8 10  1  0
 10 11  1  0
 11 12  1  0
 12 13  1  0
 13 14  1  0
 14 15  1  0
 15 16  1  0
 16 17  1  6
 17 18  1  0
 18 19  2  0
 18 20  1  0
 21 20  1  0
 21 22  1  0
 21 23  1  0
 21 24  1  0
 10 25  1  0
 16 25  1  0
  7 26  1  0
  4 27  1  0
 26 27  1  0
M  END
