piperidine-amides-10504-covalent
     RDKit          3D

 24 25  0  0  0  0  0  0  0  0999 V2000
    7.0450   -3.2020   19.1940 C   0  0  0  0  0  0  0  0  0  0  0  0
    6.2220   -3.8520   20.2300 C   0  0  0  0  0  0  0  0  0  0  0  0
    5.2240   -4.5030   19.8380 O   0  0  0  0  0  0  0  0  0  0  0  0
    6.5150   -3.7920   21.5870 N   0  0  0  0  0  0  0  0  0  0  0  0
    5.9310   -4.7800   22.4360 C   0  0  0  0  0  0  0  0  0  0  0  0
    5.2230   -4.1000   23.5700 C   0  0  0  0  0  0  0  0  0  0  0  0
    5.7240   -2.6990   23.8520 C   0  0  0  0  0  0  0  0  0  0  0  0
    5.5360   -2.4280   25.3260 C   0  0  0  0  0  0  0  0  0  0  0  0
    4.6250   -3.0820   25.8850 O   0  0  0  0  0  0  0  0  0  0  0  0
    6.2730   -1.5040   26.1460 N   0  0  0  0  0  0  0  0  0  0  0  0
    7.0330   -2.0050   27.2760 C   0  0  0  0  0  0  0  0  0  0  0  0
    7.4620   -3.3370   26.8150 C   0  0  0  0  0  0  0  0  0  0  0  0
    7.2160   -3.6440   25.5180 C   0  0  0  0  0  0  0  0  0  0  0  0
    7.4840   -4.7610   24.8280 C   0  0  0  0  0  0  0  0  0  0  0  0
    8.0820   -5.8250   25.3680 C   0  0  0  0  0  0  0  0  0  0  0  0
    8.3610   -6.9520   24.6800 C   0  0  0  0  0  0  0  0  0  0  0  0
    9.2460   -7.8380   25.2000 O   0  0  0  0  0  0  0  0  0  0  0  0
    7.7990   -7.1450   23.4730 N   0  0  0  0  0  0  0  0  0  0  0  0
    6.8250   -8.0020   23.2210 C   0  0  0  0  0  0  0  0  0  0  0  0
    7.4200   -6.0410   22.8640 C   0  0  0  0  0  0  0  0  0  0  0  0
    8.4120   -5.6090   26.8050 C   0  0  0  0  0  0  0  0  0  0  0  0
    8.0850   -4.3410   27.5060 C   0  0  0  0  0  0  0  0  0  0  0  0
    7.1680   -2.4500   23.4320 C   0  0  0  0  0  0  0  0  0  0  0  0
    7.5320   -2.8960   22.1650 C   0  0  0  0  0  0  0  0  0  0  0  0
  1  2  1  0
  2  3  2  0
  2  4  1  0
  4  5  1  0
  5  6  1  0
  6  7  1  0
  7  8  1  0
  8  9  2  0
  8 10  1  0
 10 11  1  0
 11 12  1  0
 12 13  2  0
 13 14  1  0
 14 15  2  0
 15 16  1  0
 16 17  2  0
 16 18  1  0
 18 19  1  0
 18 20  1  0
 15 21  1  0
 12 22  1  0
 21 22  2  0
  7 23  1  0
  4 24  1  0
 23 24  1  0
M  END
