piperidine-amides-31757-covalent
     RDKit          3D

 28 30  0  0  0  0  0  0  0  0999 V2000
    6.8900   -3.3940   19.3680 C   0  0  0  0  0  0  0  0  0  0  0  0
    6.1810   -4.1610   20.3850 C   0  0  0  0  0  0  0  0  0  0  0  0
    5.3000   -4.9640   19.9750 O   0  0  0  0  0  0  0  0  0  0  0  0
    6.4080   -4.1060   21.7780 N   0  0  0  0  0  0  0  0  0  0  0  0
    6.2620   -5.4400   22.4400 C   0  0  0  0  0  0  0  0  0  0  0  0
    5.8280   -5.1380   23.9400 C   0  0  0  0  0  0  0  0  0  0  0  0
    5.8150   -3.6290   24.1330 C   0  0  0  0  0  0  0  0  0  0  0  0
    5.0730   -3.0440   25.4660 C   0  0  0  0  0  0  0  0  0  0  0  0
    4.4700   -2.0570   25.0930 O   0  0  0  0  0  0  0  0  0  0  0  0
    5.2140   -3.6620   26.6150 N   0  0  0  0  0  0  0  0  0  0  0  0
    4.9360   -3.9700   27.8960 C   0  0  0  0  0  0  0  0  0  0  0  0
    5.6230   -4.3690   28.9970 C   0  0  0  0  0  0  0  0  0  0  0  0
    6.3030   -5.6040   28.8140 C   0  0  1  0  0  0  0  0  0  0  0  0
    5.5030   -6.8440   28.9890 C   0  0  0  0  0  0  0  0  0  0  0  0
    5.1370   -6.5000   30.4510 C   0  0  0  0  0  0  0  0  0  0  0  0
    5.9970   -6.9350   31.4990 O   0  0  0  0  0  0  0  0  0  0  0  0
    5.5130   -7.7700   32.5280 C   0  0  0  0  0  0  0  0  0  0  0  0
    6.8030   -5.2620   27.4160 C   0  0  0  0  0  0  0  0  0  0  0  0
    8.0480   -6.0970   27.2440 C   0  0  0  0  0  0  0  0  0  0  0  0
    8.7170   -5.8630   25.8570 C   0  0  0  0  0  0  0  0  0  0  0  0
    8.1140   -4.9570   25.0040 C   0  0  0  0  0  0  0  0  0  0  0  0
    8.5420   -4.6040   23.8180 N   0  0  0  0  0  0  0  0  0  0  0  0
    8.0220   -5.1710   22.7720 O   0  0  0  0  0  0  0  0  0  0  0  0
    9.3610   -3.6480   23.6530 O   0  0  0  0  0  0  0  0  0  0  0  0
    7.0040   -4.2690   25.2470 C   0  0  0  0  0  0  0  0  0  0  0  0
    6.3930   -4.4300   26.4010 C   0  0  0  0  0  0  0  0  0  0  0  0
    6.9740   -2.7850   23.6490 C   0  0  0  0  0  0  0  0  0  0  0  0
    7.2980   -3.0950   22.3150 C   0  0  0  0  0  0  0  0  0  0  0  0
  1  2  1  0
  2  3  2  0
  2  4  1  0
  4  5  1  0
  5  6  1  0
  6  7  1  0
  7  8  1  0
  8  9  2  0
  8 10  1  0
 10 11  1  0
 11 12  1  0
 12 13  1  0
 13 14  1  6
 14 15  1  0
 15 16  1  0
 16 17  1  0
 13 18  1  0
 18 19  2  0
 19 20  1  0
 20 21  2  0
 21 22  1  0
 22 23  2  0
 22 24  1  0
 21 25  1  0
 10 26  1  0
 18 26  1  0
 25 26  2  0
  7 27  1  0
  4 28  1  0
 27 28  1  0
M  CHG  2  22   1  24  -1
M  END
