piperidine-amides-1462-covalent
     RDKit          3D

 21 22  0  0  0  0  0  0  0  0999 V2000
    7.1840   -3.2860   19.2030 C   0  0  0  0  0  0  0  0  0  0  0  0
    6.3600   -4.0250   20.1910 C   0  0  0  0  0  0  0  0  0  0  0  0
    5.2560   -4.4770   19.8540 O   0  0  0  0  0  0  0  0  0  0  0  0
    6.8980   -4.2510   21.4660 N   0  0  0  0  0  0  0  0  0  0  0  0
    6.5770   -5.4200   22.2380 C   0  0  0  0  0  0  0  0  0  0  0  0
    5.7460   -4.9230   23.4180 C   0  0  0  0  0  0  0  0  0  0  0  0
    6.5450   -3.8630   24.1020 C   0  0  0  0  0  0  0  0  0  0  0  0
    5.8340   -3.2890   25.2490 C   0  0  0  0  0  0  0  0  0  0  0  0
    4.6570   -2.9620   25.0560 O   0  0  0  0  0  0  0  0  0  0  0  0
    6.4810   -3.1420   26.4680 N   0  0  0  0  0  0  0  0  0  0  0  0
    5.9290   -3.4990   27.7060 C   0  0  2  0  0  0  0  0  0  0  0  0
    5.3640   -4.7470   27.8830 C   0  0  0  0  0  0  0  0  0  0  0  0
    6.4220   -5.7130   27.7500 O   0  0  0  0  0  0  0  0  0  0  0  0
    6.6620   -6.3990   28.9190 C   0  0  0  0  0  0  0  0  0  0  0  0
    4.9250   -2.6470   28.2290 C   0  0  0  0  0  0  0  0  0  0  0  0
    4.1690   -1.7070   27.5850 N   0  0  0  0  0  0  0  0  0  0  0  0
    3.3550   -1.1450   28.4640 N   0  0  0  0  0  0  0  0  0  0  0  0
    3.5380   -1.6620   29.6320 N   0  0  0  0  0  0  0  0  0  0  0  0
    4.5250   -2.6120   29.5110 N   0  0  0  0  0  0  0  0  0  0  0  0
    6.8810   -2.6770   23.2280 C   0  0  0  0  0  0  0  0  0  0  0  0
    7.7130   -3.2250   22.0810 C   0  0  0  0  0  0  0  0  0  0  0  0
  1  2  1  0
  2  3  2  0
  2  4  1  0
  4  5  1  0
  5  6  1  0
  6  7  1  0
  7  8  1  0
  8  9  2  0
  8 10  1  0
 10 11  1  0
 11 12  1  6
 12 13  1  0
 13 14  1  0
 11 15  1  0
 15 16  2  0
 16 17  1  0
 17 18  2  0
 15 19  1  0
 18 19  1  0
  7 20  1  0
  4 21  1  0
 20 21  1  0
M  END
