piperidine-amides-11362-covalent
     RDKit          3D

 19 20  0  0  0  0  0  0  0  0999 V2000
    7.1300   -3.2970   19.2100 C   0  0  0  0  0  0  0  0  0  0  0  0
    6.3550   -4.0130   20.2180 C   0  0  0  0  0  0  0  0  0  0  0  0
    5.2860   -4.5580   19.8900 O   0  0  0  0  0  0  0  0  0  0  0  0
    6.8300   -4.1410   21.5320 N   0  0  0  0  0  0  0  0  0  0  0  0
    7.7010   -3.1690   22.1440 C   0  0  0  0  0  0  0  0  0  0  0  0
    6.9560   -2.6800   23.3520 C   0  0  0  0  0  0  0  0  0  0  0  0
    6.5060   -3.8160   24.2190 C   0  0  0  0  0  0  0  0  0  0  0  0
    5.7000   -3.3610   25.3820 C   0  0  0  0  0  0  0  0  0  0  0  0
    4.4480   -3.2270   25.2670 O   0  0  0  0  0  0  0  0  0  0  0  0
    6.2530   -3.0610   26.6460 N   0  0  0  0  0  0  0  0  0  0  0  0
    6.4720   -1.6540   27.0450 C   0  0  1  0  0  0  0  0  0  0  0  0
    5.2010   -0.9220   27.1150 C   0  0  0  0  0  0  0  0  0  0  0  0
    5.4840   -0.7590   28.4840 C   0  0  1  0  0  0  0  0  0  0  0  0
    4.4940   -1.3990   29.4210 C   0  0  0  0  0  0  0  0  0  0  0  0
    4.2310   -0.4030   30.5310 C   0  0  0  0  0  0  0  0  0  0  0  0
    5.4200   -0.3000   31.3880 N   0  0  0  0  0  0  0  0  0  0  0  0
    6.8160   -1.5580   28.5520 C   0  0  0  0  0  0  0  0  0  0  0  0
    5.7140   -4.8190   23.3980 C   0  0  0  0  0  0  0  0  0  0  0  0
    6.4460   -5.2930   22.3030 C   0  0  0  0  0  0  0  0  0  0  0  0
  1  2  1  0
  2  3  2  0
  2  4  1  0
  4  5  1  0
  5  6  1  0
  6  7  1  0
  7  8  1  0
  8  9  2  0
  8 10  1  0
 11 10  1  1
 11 12  1  0
 12 13  1  0
 13 14  1  1
 14 15  1  0
 15 16  3  0
 11 17  1  0
 13 17  1  0
  7 18  1  0
  4 19  1  0
 18 19  1  0
M  END
