piperidine-amides-13937-covalent
     RDKit          3D

 26 28  0  0  0  0  0  0  0  0999 V2000
    7.0380   -3.3370   19.3280 C   0  0  0  0  0  0  0  0  0  0  0  0
    6.3510   -4.1840   20.3420 C   0  0  0  0  0  0  0  0  0  0  0  0
    5.3730   -4.8670   19.9850 O   0  0  0  0  0  0  0  0  0  0  0  0
    6.8500   -4.2210   21.6660 N   0  0  0  0  0  0  0  0  0  0  0  0
    7.7290   -3.1840   22.1910 C   0  0  0  0  0  0  0  0  0  0  0  0
    7.5410   -3.0560   23.7110 C   0  0  0  0  0  0  0  0  0  0  0  0
    6.1840   -3.5700   24.0230 C   0  0  0  0  0  0  0  0  0  0  0  0
    5.6900   -3.2680   25.3910 C   0  0  0  0  0  0  0  0  0  0  0  0
    4.4830   -3.4570   25.5760 O   0  0  0  0  0  0  0  0  0  0  0  0
    6.5460   -2.7910   26.3900 N   0  0  0  0  0  0  0  0  0  0  0  0
    6.4520   -1.5380   27.0630 C   0  0  0  0  0  0  0  0  0  0  0  0
    5.8840   -0.4010   26.5370 C   0  0  0  0  0  0  0  0  0  0  0  0
    5.8220    0.8060   27.2610 C   0  0  0  0  0  0  0  0  0  0  0  0
    6.3370    0.8850   28.5320 C   0  0  0  0  0  0  0  0  0  0  0  0
    6.9520   -0.3240   29.1130 C   0  0  0  0  0  0  0  0  0  0  0  0
    7.5520   -0.3230   30.5260 C   0  0  0  0  0  0  0  0  0  0  0  0
    6.5950   -0.0740   31.5630 N   0  0  0  0  0  0  0  0  0  0  0  0
    5.3010    0.0020   31.4240 N   0  0  0  0  0  0  0  0  0  0  0  0
    4.6290    0.2400   32.5650 C   0  0  0  0  0  0  0  0  0  0  0  0
    3.2590    0.3610   32.6880 C   0  0  0  0  0  0  0  0  0  0  0  0
    5.5940    0.3290   33.5250 N   0  0  0  0  0  0  0  0  0  0  0  0
    6.8040    0.1380   32.9280 C   0  0  0  0  0  0  0  0  0  0  0  0
    8.1040    0.1640   33.7170 C   0  0  0  0  0  0  0  0  0  0  0  0
    6.9780   -1.4660   28.3550 C   0  0  0  0  0  0  0  0  0  0  0  0
    6.0340   -5.0370   23.7900 C   0  0  0  0  0  0  0  0  0  0  0  0
    6.6560   -5.4230   22.4700 C   0  0  0  0  0  0  0  0  0  0  0  0
  1  2  1  0
  2  3  2  0
  2  4  1  0
  4  5  1  0
  5  6  1  0
  6  7  1  0
  7  8  1  0
  8  9  2  0
  8 10  1  0
 10 11  1  0
 11 12  2  0
 12 13  1  0
 13 14  2  0
 14 15  1  0
 15 16  1  0
 16 17  1  0
 17 18  1  0
 18 19  2  0
 19 20  1  0
 19 21  1  0
 17 22  1  0
 21 22  2  0
 22 23  1  0
 11 24  1  0
 15 24  2  0
  7 25  1  0
  4 26  1  0
 25 26  1  0
M  END
