piperidine-amides-31053-covalent
     RDKit          3D

 26 28  0  0  0  0  0  0  0  0999 V2000
    7.1190   -3.3770   19.3820 C   0  0  0  0  0  0  0  0  0  0  0  0
    6.4000   -4.2080   20.3390 C   0  0  0  0  0  0  0  0  0  0  0  0
    5.3570   -4.7730   19.9690 O   0  0  0  0  0  0  0  0  0  0  0  0
    6.8960   -4.4350   21.6400 N   0  0  0  0  0  0  0  0  0  0  0  0
    6.5040   -5.5840   22.3980 C   0  0  0  0  0  0  0  0  0  0  0  0
    5.5980   -5.0170   23.4630 C   0  0  0  0  0  0  0  0  0  0  0  0
    6.2470   -3.9550   24.3160 C   0  0  0  0  0  0  0  0  0  0  0  0
    5.2880   -3.3930   25.3180 C   0  0  0  0  0  0  0  0  0  0  0  0
    4.3980   -2.5940   24.9230 O   0  0  0  0  0  0  0  0  0  0  0  0
    5.2870   -3.6740   26.7090 N   0  0  0  0  0  0  0  0  0  0  0  0
    4.0850   -3.5090   27.5270 C   0  0  0  0  0  0  0  0  0  0  0  0
    4.2860   -4.1540   28.8580 C   0  0  0  0  0  0  0  0  0  0  0  0
    5.6430   -4.2280   29.4280 C   0  0  0  0  0  0  0  0  0  0  0  0
    6.6850   -4.4520   28.4210 C   0  0  1  0  0  0  0  0  0  0  0  0
    6.2910   -6.0980   27.7910 S   0  0  0  0  0  0  0  0  0  0  0  0
    4.9360   -6.8000   28.6840 C   0  0  0  0  0  0  0  0  0  0  0  0
    3.7060   -7.1120   27.8740 C   0  0  0  0  0  0  0  0  0  0  0  0
    2.5810   -7.6550   28.4370 C   0  0  0  0  0  0  0  0  0  0  0  0
    2.3590   -8.0020   29.7590 C   0  0  0  0  0  0  0  0  0  0  0  0
    1.1920   -8.5260   30.1560 F   0  0  0  0  0  0  0  0  0  0  0  0
    3.5160   -7.7390   30.6660 C   0  0  0  0  0  0  0  0  0  0  0  0
    4.8330   -7.1380   30.1810 C   0  0  0  0  0  0  0  0  0  0  0  0
    5.8450   -6.9380   31.1240 F   0  0  0  0  0  0  0  0  0  0  0  0
    6.4670   -3.3910   27.3800 C   0  0  0  0  0  0  0  0  0  0  0  0
    6.8680   -2.8690   23.4780 C   0  0  0  0  0  0  0  0  0  0  0  0
    7.5880   -3.3640   22.2770 C   0  0  0  0  0  0  0  0  0  0  0  0
  1  2  1  0
  2  3  2  0
  2  4  1  0
  4  5  1  0
  5  6  1  0
  6  7  1  0
  7  8  1  0
  8  9  2  0
  8 10  1  0
 10 11  1  0
 11 12  1  0
 12 13  1  0
 13 14  1  0
 14 15  1  6
 15 16  1  0
 16 17  2  0
 17 18  1  0
 18 19  2  0
 19 20  1  0
 19 21  1  0
 16 22  1  0
 21 22  2  0
 22 23  1  0
 10 24  1  0
 14 24  1  0
  7 25  1  0
  4 26  1  0
 25 26  1  0
M  END
