piperidine-amides-10310-covalent
     RDKit          3D

 24 25  0  0  0  0  0  0  0  0999 V2000
    7.0630   -3.3050   19.3070 C   0  0  0  0  0  0  0  0  0  0  0  0
    6.3130   -4.0570   20.3200 C   0  0  0  0  0  0  0  0  0  0  0  0
    5.2830   -4.6540   19.9170 O   0  0  0  0  0  0  0  0  0  0  0  0
    6.7550   -4.1270   21.6510 N   0  0  0  0  0  0  0  0  0  0  0  0
    7.6680   -3.1460   22.2010 C   0  0  0  0  0  0  0  0  0  0  0  0
    7.3680   -2.9920   23.6640 C   0  0  0  0  0  0  0  0  0  0  0  0
    6.0590   -3.6490   24.0090 C   0  0  0  0  0  0  0  0  0  0  0  0
    5.6280   -3.3120   25.3920 C   0  0  0  0  0  0  0  0  0  0  0  0
    4.4490   -2.9340   25.5550 O   0  0  0  0  0  0  0  0  0  0  0  0
    6.4720   -3.3830   26.5230 N   0  0  0  0  0  0  0  0  0  0  0  0
    5.9880   -3.6740   27.8630 C   0  0  2  0  0  0  0  0  0  0  0  0
    6.7540   -4.8150   28.5360 C   0  0  0  0  0  0  0  0  0  0  0  0
    4.5430   -3.9880   27.9410 C   0  0  0  0  0  0  0  0  0  0  0  0
    3.1940   -2.9800   28.4370 S   0  0  0  0  0  0  0  0  0  0  0  0
    1.9550   -4.2530   28.1870 C   0  0  0  0  0  0  0  0  0  0  0  0
    0.5750   -4.2630   28.3600 C   0  0  0  0  0  0  0  0  0  0  0  0
    0.0510   -3.1610   29.0040 O   0  0  0  0  0  0  0  0  0  0  0  0
    0.4470   -2.8170   30.3100 C   0  0  0  0  0  0  0  0  0  0  0  0
    0.2560   -1.5490   30.8130 C   0  0  0  0  0  0  0  0  0  0  0  0
    2.6980   -5.3300   27.7470 N   0  0  0  0  0  0  0  0  0  0  0  0
    4.0440   -5.2190   27.6100 C   0  0  0  0  0  0  0  0  0  0  0  0
    4.8840   -6.4060   27.1240 C   0  0  0  0  0  0  0  0  0  0  0  0
    6.1200   -5.1640   23.7630 C   0  0  0  0  0  0  0  0  0  0  0  0
    6.6380   -5.4090   22.3470 C   0  0  0  0  0  0  0  0  0  0  0  0
  1  2  1  0
  2  3  2  0
  2  4  1  0
  4  5  1  0
  5  6  1  0
  6  7  1  0
  7  8  1  0
  8  9  2  0
  8 10  1  0
 10 11  1  0
 11 12  1  6
 11 13  1  0
 13 14  1  0
 14 15  1  0
 15 16  1  0
 16 17  1  0
 17 18  1  0
 18 19  1  0
 15 20  2  0
 13 21  2  0
 20 21  1  0
 21 22  1  0
  7 23  1  0
  4 24  1  0
 23 24  1  0
M  END
