piperidine-amides-13752-covalent
     RDKit          3D

 27 29  0  0  0  0  0  0  0  0999 V2000
    7.0660   -3.3290   19.2970 C   0  0  0  0  0  0  0  0  0  0  0  0
    6.3690   -4.1720   20.3060 C   0  0  0  0  0  0  0  0  0  0  0  0
    5.3560   -4.8040   19.9690 O   0  0  0  0  0  0  0  0  0  0  0  0
    6.9150   -4.2640   21.6010 N   0  0  0  0  0  0  0  0  0  0  0  0
    7.7160   -3.2210   22.1950 C   0  0  0  0  0  0  0  0  0  0  0  0
    6.8780   -2.6070   23.3110 C   0  0  0  0  0  0  0  0  0  0  0  0
    6.6510   -3.6990   24.2890 C   0  0  0  0  0  0  0  0  0  0  0  0
    5.8760   -3.2630   25.4740 C   0  0  0  0  0  0  0  0  0  0  0  0
    4.6450   -3.2470   25.3350 O   0  0  0  0  0  0  0  0  0  0  0  0
    6.5070   -2.8780   26.6710 N   0  0  0  0  0  0  0  0  0  0  0  0
    6.4210   -1.5640   27.2070 C   0  0  0  0  0  0  0  0  0  0  0  0
    6.0150   -0.4560   26.4940 C   0  0  0  0  0  0  0  0  0  0  0  0
    5.9280    0.8210   27.0760 C   0  0  0  0  0  0  0  0  0  0  0  0
    6.2450    1.0220   28.3980 C   0  0  0  0  0  0  0  0  0  0  0  0
    6.2400    2.1000   29.1870 O   0  0  0  0  0  0  0  0  0  0  0  0
    6.5080    1.6150   30.3610 C   0  0  0  0  0  0  0  0  0  0  0  0
    6.3500    2.4430   31.4590 O   0  0  0  0  0  0  0  0  0  0  0  0
    6.9250    0.2860   30.4350 N   0  0  0  0  0  0  0  0  0  0  0  0
    8.1420   -0.0230   31.1350 C   0  0  0  0  0  0  0  0  0  0  0  0
    8.8780    1.2260   31.6620 C   0  0  0  0  0  0  0  0  0  0  0  0
   10.1430    1.1720   32.1340 N   0  0  0  0  0  0  0  0  0  0  0  0
   10.9490    0.4500   31.3570 C   0  0  0  0  0  0  0  0  0  0  0  0
   10.1150    0.6530   33.4910 C   0  0  0  0  0  0  0  0  0  0  0  0
    6.6550   -0.0990   29.0910 C   0  0  0  0  0  0  0  0  0  0  0  0
    6.7570   -1.3620   28.5520 C   0  0  0  0  0  0  0  0  0  0  0  0
    5.9530   -4.9150   23.7380 C   0  0  0  0  0  0  0  0  0  0  0  0
    6.5920   -5.3960   22.4540 C   0  0  0  0  0  0  0  0  0  0  0  0
  1  2  1  0
  2  3  2  0
  2  4  1  0
  4  5  1  0
  5  6  1  0
  6  7  1  0
  7  8  1  0
  8  9  2  0
  8 10  1  0
 10 11  1  0
 11 12  2  0
 12 13  1  0
 13 14  2  0
 14 15  1  0
 15 16  1  0
 16 17  2  0
 16 18  1  0
 18 19  1  0
 19 20  1  0
 20 21  1  0
 21 22  1  0
 21 23  1  0
 14 24  1  0
 18 24  1  0
 11 25  1  0
 24 25  2  0
  7 26  1  0
  4 27  1  0
 26 27  1  0
M  END
