piperidine-amides-3821-covalent
     RDKit          3D

 24 26  0  0  0  0  0  0  0  0999 V2000
    7.0570   -3.3480   19.3050 C   0  0  0  0  0  0  0  0  0  0  0  0
    6.3780   -4.1700   20.3230 C   0  0  0  0  0  0  0  0  0  0  0  0
    5.3390   -4.7700   19.9620 O   0  0  0  0  0  0  0  0  0  0  0  0
    6.9120   -4.3230   21.6280 N   0  0  0  0  0  0  0  0  0  0  0  0
    7.6150   -3.2380   22.2060 C   0  0  0  0  0  0  0  0  0  0  0  0
    7.5470   -3.1460   23.6610 C   0  0  0  0  0  0  0  0  0  0  0  0
    6.6930   -4.1310   24.3780 C   0  0  0  0  0  0  0  0  0  0  0  0
    5.8430   -3.4070   25.3770 C   0  0  0  0  0  0  0  0  0  0  0  0
    4.6020   -3.4110   25.2330 O   0  0  0  0  0  0  0  0  0  0  0  0
    6.4010   -2.7070   26.4620 N   0  0  0  0  0  0  0  0  0  0  0  0
    5.9930   -1.4170   26.9020 C   0  0  0  0  0  0  0  0  0  0  0  0
    6.1770   -0.0700   26.4700 C   0  0  0  0  0  0  0  0  0  0  0  0
    5.6140    0.9460   27.1590 N   0  0  0  0  0  0  0  0  0  0  0  0
    4.9340    0.2600   28.2200 O   0  0  0  0  0  0  0  0  0  0  0  0
    5.1410   -1.1070   28.0830 C   0  0  0  0  0  0  0  0  0  0  0  0
    4.5260   -1.9200   29.0380 C   0  0  0  0  0  0  0  0  0  0  0  0
    5.6170   -2.9220   28.8030 C   0  0  0  0  0  0  0  0  0  0  0  0
    6.7950   -2.0300   28.7880 C   0  0  0  0  0  0  0  0  0  0  0  0
    8.0270   -2.8910   28.5330 C   0  0  0  0  0  0  0  0  0  0  0  0
    8.0450   -4.4170   28.3330 C   0  0  0  0  0  0  0  0  0  0  0  0
    6.7500   -5.1810   28.3860 C   0  0  0  0  0  0  0  0  0  0  0  0
    5.4830   -4.4020   28.6300 C   0  0  0  0  0  0  0  0  0  0  0  0
    5.8350   -4.9640   23.4660 C   0  0  0  0  0  0  0  0  0  0  0  0
    6.6430   -5.4730   22.4520 C   0  0  0  0  0  0  0  0  0  0  0  0
  1  2  1  0
  2  3  2  0
  2  4  1  0
  4  5  1  0
  5  6  1  0
  6  7  1  0
  7  8  1  0
  8  9  2  0
  8 10  1  0
 10 11  1  0
 11 12  1  0
 12 13  2  0
 13 14  1  0
 11 15  2  0
 14 15  1  0
 15 16  1  0
 16 17  1  0
 17 18  2  0
 18 19  1  0
 19 20  2  0
 20 21  1  0
 17 22  1  0
 21 22  2  0
  7 23  1  0
  4 24  1  0
 23 24  1  0
M  END
