piperidine-amides-16234-covalent
     RDKit          3D

 19 19  0  0  0  0  0  0  0  0999 V2000
    7.1090   -3.2720   19.2550 C   0  0  0  0  0  0  0  0  0  0  0  0
    6.4080   -4.0760   20.2880 C   0  0  0  0  0  0  0  0  0  0  0  0
    5.3750   -4.6510   19.9380 O   0  0  0  0  0  0  0  0  0  0  0  0
    6.9500   -4.1930   21.5780 N   0  0  0  0  0  0  0  0  0  0  0  0
    7.7480   -3.1300   22.1730 C   0  0  0  0  0  0  0  0  0  0  0  0
    7.3480   -2.8990   23.6120 C   0  0  0  0  0  0  0  0  0  0  0  0
    6.0270   -3.6130   23.8700 C   0  0  0  0  0  0  0  0  0  0  0  0
    5.4820   -3.2430   25.2030 C   0  0  0  0  0  0  0  0  0  0  0  0
    4.4310   -2.5920   25.2270 O   0  0  0  0  0  0  0  0  0  0  0  0
    6.0640   -3.5850   26.4440 N   0  0  0  0  0  0  0  0  0  0  0  0
    6.4550   -2.4130   27.2050 C   0  0  0  0  0  0  0  0  0  0  0  0
    5.2130   -1.5860   27.4300 C   0  0  0  0  0  0  0  0  0  0  0  0
    5.5410   -4.7880   26.9380 C   0  0  1  0  0  0  0  0  0  0  0  0
    5.3330   -5.6610   25.9600 C   0  0  0  0  0  0  0  0  0  0  0  0
    6.3160   -5.5940   27.9540 C   0  0  0  0  0  0  0  0  0  0  0  0
    5.5050   -6.0260   29.1530 C   0  0  0  0  0  0  0  0  0  0  0  0
    6.5610   -4.9700   29.1960 C   0  0  0  0  0  0  0  0  0  0  0  0
    6.1190   -5.0680   23.6580 C   0  0  0  0  0  0  0  0  0  0  0  0
    6.6380   -5.3890   22.3050 C   0  0  0  0  0  0  0  0  0  0  0  0
  1  2  1  0
  2  3  2  0
  2  4  1  0
  4  5  1  0
  5  6  1  0
  6  7  1  0
  7  8  1  0
  8  9  2  0
  8 10  1  0
 10 11  1  0
 11 12  1  0
 10 13  1  0
 13 14  1  6
 13 15  1  0
 15 16  1  0
 15 17  1  0
  7 18  1  0
  4 19  1  0
 18 19  1  0
M  END
