piperidine-amides-6713-covalent
     RDKit          3D

 23 24  0  0  0  0  0  0  0  0999 V2000
    7.0860   -3.2860   19.2470 C   0  0  0  0  0  0  0  0  0  0  0  0
    6.2840   -4.0200   20.2430 C   0  0  0  0  0  0  0  0  0  0  0  0
    5.2510   -4.6260   19.8990 O   0  0  0  0  0  0  0  0  0  0  0  0
    6.6880   -4.0840   21.5740 N   0  0  0  0  0  0  0  0  0  0  0  0
    7.5980   -3.0740   22.0600 C   0  0  0  0  0  0  0  0  0  0  0  0
    7.3180   -3.0090   23.5470 C   0  0  0  0  0  0  0  0  0  0  0  0
    5.9050   -3.5030   23.6910 C   0  0  0  0  0  0  0  0  0  0  0  0
    5.3400   -3.1620   25.0160 C   0  0  0  0  0  0  0  0  0  0  0  0
    4.4170   -3.8710   25.4660 O   0  0  0  0  0  0  0  0  0  0  0  0
    5.8290   -2.0430   25.7300 N   0  0  0  0  0  0  0  0  0  0  0  0
    5.4860   -1.8610   27.1130 C   0  0  0  0  0  0  0  0  0  0  0  0
    6.6520   -2.3280   27.9080 C   0  0  0  0  0  0  0  0  0  0  0  0
    6.2830   -2.8550   29.0920 F   0  0  0  0  0  0  0  0  0  0  0  0
    7.4110   -1.1620   28.1580 F   0  0  0  0  0  0  0  0  0  0  0  0
    7.4800   -3.1110   27.2430 C   0  0  0  0  0  0  0  0  0  0  0  0
    8.0320   -2.7020   25.9970 C   0  0  0  0  0  0  0  0  0  0  0  0
    8.9120   -3.5060   25.2290 C   0  0  0  0  0  0  0  0  0  0  0  0
    9.2420   -4.7130   25.7160 C   0  0  0  0  0  0  0  0  0  0  0  0
    8.6420   -5.0450   26.9910 C   0  0  0  0  0  0  0  0  0  0  0  0
    9.3870   -6.2680   26.8540 C   0  0  0  0  0  0  0  0  0  0  0  0
    7.7730   -4.3040   27.7760 C   0  0  0  0  0  0  0  0  0  0  0  0
    5.8240   -5.0010   23.4700 C   0  0  0  0  0  0  0  0  0  0  0  0
    6.5850   -5.3180   22.3230 C   0  0  0  0  0  0  0  0  0  0  0  0
  1  2  1  0
  2  3  2  0
  2  4  1  0
  4  5  1  0
  5  6  1  0
  6  7  1  0
  7  8  1  0
  8  9  2  0
  8 10  1  0
 10 11  1  0
 11 12  1  0
 12 13  1  0
 12 14  1  0
 12 15  1  0
 15 16  2  0
 16 17  1  0
 17 18  2  0
 18 19  1  0
 19 20  1  0
 15 21  1  0
 19 21  2  0
  7 22  1  0
  4 23  1  0
 22 23  1  0
M  END
