piperidine-amides-3016-covalent
     RDKit          3D

 23 25  0  0  0  0  0  0  0  0999 V2000
    7.1750   -3.3010   19.1530 C   0  0  0  0  0  0  0  0  0  0  0  0
    6.3880   -3.9890   20.1610 C   0  0  0  0  0  0  0  0  0  0  0  0
    5.3010   -4.4880   19.8690 O   0  0  0  0  0  0  0  0  0  0  0  0
    6.9250   -4.1410   21.4790 N   0  0  0  0  0  0  0  0  0  0  0  0
    7.7590   -3.1080   22.0290 C   0  0  0  0  0  0  0  0  0  0  0  0
    7.0470   -2.4430   23.1610 C   0  0  0  0  0  0  0  0  0  0  0  0
    6.3910   -3.5280   23.9930 C   0  0  0  0  0  0  0  0  0  0  0  0
    5.4800   -2.8570   24.9550 C   0  0  0  0  0  0  0  0  0  0  0  0
    4.2460   -3.0290   24.9250 O   0  0  0  0  0  0  0  0  0  0  0  0
    6.0040   -2.0020   25.9500 N   0  0  0  0  0  0  0  0  0  0  0  0
    5.1940   -1.9000   27.1330 C   0  0  0  0  0  0  0  0  0  0  0  0
    4.9570   -3.3170   27.5150 C   0  0  0  0  0  0  0  0  0  0  0  0
    6.1020   -3.9630   27.4560 C   0  0  0  0  0  0  0  0  0  0  0  0
    6.8880   -3.9580   28.5670 C   0  0  0  0  0  0  0  0  0  0  0  0
    8.0740   -4.5920   28.4840 C   0  0  0  0  0  0  0  0  0  0  0  0
    8.4540   -5.2210   27.2890 C   0  0  0  0  0  0  0  0  0  0  0  0
    9.5590   -5.8650   27.0680 C   0  0  0  0  0  0  0  0  0  0  0  0
    9.6240   -6.3210   25.8390 N   0  0  0  0  0  0  0  0  0  0  0  0
    8.4720   -5.9250   25.2960 N   0  0  0  0  0  0  0  0  0  0  0  0
    7.6690   -5.1960   26.2430 C   0  0  0  0  0  0  0  0  0  0  0  0
    6.4670   -4.5710   26.3140 C   0  0  0  0  0  0  0  0  0  0  0  0
    5.6730   -4.5870   23.2790 C   0  0  0  0  0  0  0  0  0  0  0  0
    6.5030   -5.1900   22.3550 C   0  0  0  0  0  0  0  0  0  0  0  0
  1  2  1  0
  2  3  2  0
  2  4  1  0
  4  5  1  0
  5  6  1  0
  6  7  1  0
  7  8  1  0
  8  9  2  0
  8 10  1  0
 10 11  1  0
 11 12  1  0
 12 13  1  0
 13 14  1  0
 14 15  2  0
 15 16  1  0
 16 17  2  0
 17 18  1  0
 18 19  1  0
 16 20  1  0
 19 20  2  0
 13 21  2  0
 20 21  1  0
  7 22  1  0
  4 23  1  0
 22 23  1  0
M  END
