piperidine-amides-17242-covalent
     RDKit          3D

 20 21  0  0  0  0  0  0  0  0999 V2000
    7.1030   -3.3920   19.3740 C   0  0  0  0  0  0  0  0  0  0  0  0
    6.4130   -4.2260   20.3680 C   0  0  0  0  0  0  0  0  0  0  0  0
    5.3820   -4.8340   19.9860 O   0  0  0  0  0  0  0  0  0  0  0  0
    6.9500   -4.3640   21.6750 N   0  0  0  0  0  0  0  0  0  0  0  0
    6.6030   -5.5090   22.4600 C   0  0  0  0  0  0  0  0  0  0  0  0
    6.1030   -5.1530   23.7830 C   0  0  0  0  0  0  0  0  0  0  0  0
    6.1170   -3.6950   23.9890 C   0  0  0  0  0  0  0  0  0  0  0  0
    5.4730   -3.2180   25.2570 C   0  0  0  0  0  0  0  0  0  0  0  0
    4.8040   -2.1750   25.2050 O   0  0  0  0  0  0  0  0  0  0  0  0
    5.5460   -3.8590   26.4990 N   0  0  0  0  0  0  0  0  0  0  0  0
    6.3490   -3.4740   27.5570 C   0  0  0  0  0  0  0  0  0  0  0  0
    6.7680   -4.5310   28.4590 C   0  0  0  0  0  0  0  0  0  0  0  0
    5.4960   -4.9250   29.1070 C   0  0  1  0  0  0  0  0  0  0  0  0
    5.0390   -3.7000   29.5280 O   0  0  0  0  0  0  0  0  0  0  0  0
    4.6870   -5.3400   28.1150 C   0  0  0  0  0  0  0  0  0  0  0  0
    3.4160   -5.0280   28.9120 C   0  0  0  0  0  0  0  0  0  0  0  0
    4.7550   -6.8240   27.6990 C   0  0  0  0  0  0  0  0  0  0  0  0
    4.3260   -4.4250   26.9950 C   0  0  0  0  0  0  0  0  0  0  0  0
    7.4650   -3.0860   23.7200 C   0  0  0  0  0  0  0  0  0  0  0  0
    7.7540   -3.2870   22.2440 C   0  0  0  0  0  0  0  0  0  0  0  0
  1  2  1  0
  2  3  2  0
  2  4  1  0
  4  5  1  0
  5  6  1  0
  6  7  1  0
  7  8  1  0
  8  9  2  0
  8 10  1  0
 10 11  1  0
 11 12  1  0
 12 13  1  0
 13 14  1  6
 13 15  1  0
 15 16  1  0
 15 17  1  0
 10 18  1  0
 15 18  1  0
  7 19  1  0
  4 20  1  0
 19 20  1  0
M  END
