piperidine-amides-27857-covalent
     RDKit          3D

 26 28  0  0  0  0  0  0  0  0999 V2000
    7.0530   -3.3950   19.4170 C   0  0  0  0  0  0  0  0  0  0  0  0
    6.3950   -4.2630   20.4180 C   0  0  0  0  0  0  0  0  0  0  0  0
    5.4190   -4.9270   20.0030 O   0  0  0  0  0  0  0  0  0  0  0  0
    6.8900   -4.3530   21.7380 N   0  0  0  0  0  0  0  0  0  0  0  0
    6.5780   -5.4850   22.5620 C   0  0  0  0  0  0  0  0  0  0  0  0
    6.0150   -5.1040   23.8670 C   0  0  0  0  0  0  0  0  0  0  0  0
    5.8870   -3.6390   24.0030 C   0  0  0  0  0  0  0  0  0  0  0  0
    5.1740   -3.1750   25.2480 C   0  0  0  0  0  0  0  0  0  0  0  0
    4.1500   -2.5050   25.0580 O   0  0  0  0  0  0  0  0  0  0  0  0
    5.5360   -3.4340   26.5900 N   0  0  0  0  0  0  0  0  0  0  0  0
    4.5350   -3.9500   27.5530 C   0  0  0  0  0  0  0  0  0  0  0  0
    5.3970   -4.9150   28.1940 C   0  0  0  0  0  0  0  0  0  0  0  0
    5.4590   -4.9100   29.6380 C   0  0  0  0  0  0  0  0  0  0  0  0
    5.0700   -6.1730   28.8780 C   0  0  0  0  0  0  0  0  0  0  0  0
    6.6540   -4.7640   27.7760 C   0  0  0  0  0  0  0  0  0  0  0  0
    7.8060   -5.3240   28.1170 C   0  0  0  0  0  0  0  0  0  0  0  0
    8.8080   -4.7460   27.3380 C   0  0  0  0  0  0  0  0  0  0  0  0
   10.0890   -4.8900   27.2590 C   0  0  0  0  0  0  0  0  0  0  0  0
   10.6660   -4.9910   28.4220 O   0  0  0  0  0  0  0  0  0  0  0  0
   10.7700   -4.8730   26.0650 O   0  0  0  0  0  0  0  0  0  0  0  0
   10.2540   -3.9820   25.1480 C   0  0  0  0  0  0  0  0  0  0  0  0
    8.5990   -3.6590   26.2770 C   0  0  0  0  0  0  0  0  0  0  0  0
    8.0680   -4.5570   27.2850 C   0  0  0  0  0  0  0  0  0  0  0  0
    6.9260   -3.8150   26.7310 C   0  0  0  0  0  0  0  0  0  0  0  0
    7.0870   -2.8680   23.6420 C   0  0  0  0  0  0  0  0  0  0  0  0
    7.7050   -3.2890   22.3220 C   0  0  0  0  0  0  0  0  0  0  0  0
  1  2  1  0
  2  3  2  0
  2  4  1  0
  4  5  1  0
  5  6  1  0
  6  7  1  0
  7  8  1  0
  8  9  2  0
  8 10  1  0
 10 11  1  0
 11 12  1  0
 12 13  1  0
 12 14  1  0
 12 15  1  0
 15 16  1  0
 16 17  2  0
 17 18  1  0
 18 19  2  0
 18 20  1  0
 20 21  1  0
 17 22  1  0
 22 23  2  0
 10 24  1  0
 15 24  2  0
 23 24  1  0
  7 25  1  0
  4 26  1  0
 25 26  1  0
M  END
