piperidine-amides-9337-covalent
     RDKit          3D

 19 19  0  0  0  0  0  0  0  0999 V2000
    7.1170   -3.2790   19.1940 C   0  0  0  0  0  0  0  0  0  0  0  0
    6.3770   -4.0120   20.2270 C   0  0  0  0  0  0  0  0  0  0  0  0
    5.3430   -4.6320   19.9160 O   0  0  0  0  0  0  0  0  0  0  0  0
    6.8450   -4.0570   21.5480 N   0  0  0  0  0  0  0  0  0  0  0  0
    7.7490   -3.0400   22.0350 C   0  0  0  0  0  0  0  0  0  0  0  0
    7.5220   -2.9680   23.5080 C   0  0  0  0  0  0  0  0  0  0  0  0
    6.1510   -3.4450   23.8710 C   0  0  0  0  0  0  0  0  0  0  0  0
    5.8410   -3.2030   25.2920 C   0  0  0  0  0  0  0  0  0  0  0  0
    4.6400   -3.2380   25.7060 O   0  0  0  0  0  0  0  0  0  0  0  0
    6.8530   -2.9050   26.2360 N   0  0  0  0  0  0  0  0  0  0  0  0
    6.6000   -3.0700   27.6790 C   0  0  0  0  0  0  0  0  0  0  0  0
    6.5320   -4.5110   27.9650 C   0  0  0  0  0  0  0  0  0  0  0  0
    7.7910   -5.2190   28.0260 C   0  0  0  0  0  0  0  0  0  0  0  0
    8.5520   -4.6270   28.7850 O   0  0  0  0  0  0  0  0  0  0  0  0
    8.1730   -6.2580   27.3910 O   0  0  0  0  0  0  0  0  0  0  0  0
    9.3380   -6.1540   26.6500 C   0  0  0  0  0  0  0  0  0  0  0  0
    9.0100   -5.1470   25.5780 C   0  0  0  0  0  0  0  0  0  0  0  0
    6.0030   -4.9010   23.5450 C   0  0  0  0  0  0  0  0  0  0  0  0
    6.5080   -5.2220   22.3100 C   0  0  0  0  0  0  0  0  0  0  0  0
  1  2  1  0
  2  3  2  0
  2  4  1  0
  4  5  1  0
  5  6  1  0
  6  7  1  0
  7  8  1  0
  8  9  2  0
  8 10  1  0
 10 11  1  0
 11 12  1  0
 12 13  1  0
 13 14  2  0
 13 15  1  0
 15 16  1  0
 16 17  1  0
  7 18  1  0
  4 19  1  0
 18 19  1  0
M  END
