piperidine-amides-27384-covalent
     RDKit          3D

 25 26  0  0  0  0  0  0  0  0999 V2000
    6.9940   -3.3880   19.4500 C   0  0  0  0  0  0  0  0  0  0  0  0
    6.3880   -4.2880   20.4380 C   0  0  0  0  0  0  0  0  0  0  0  0
    5.4090   -4.9650   20.0120 O   0  0  0  0  0  0  0  0  0  0  0  0
    6.9010   -4.4050   21.7470 N   0  0  0  0  0  0  0  0  0  0  0  0
    6.7300   -5.6390   22.5050 C   0  0  0  0  0  0  0  0  0  0  0  0
    6.1330   -5.2940   23.8460 C   0  0  0  0  0  0  0  0  0  0  0  0
    5.9630   -3.8130   23.9120 C   0  0  0  0  0  0  0  0  0  0  0  0
    5.2470   -3.2900   25.1230 C   0  0  0  0  0  0  0  0  0  0  0  0
    4.4180   -2.3990   24.8800 O   0  0  0  0  0  0  0  0  0  0  0  0
    5.3530   -3.6240   26.4980 N   0  0  0  0  0  0  0  0  0  0  0  0
    6.4820   -3.1300   27.1760 C   0  0  0  0  0  0  0  0  0  0  0  0
    6.7720   -4.0640   28.3410 C   0  0  0  0  0  0  0  0  0  0  0  0
    5.8560   -4.1550   29.2620 C   0  0  0  0  0  0  0  0  0  0  0  0
    4.5970   -3.8670   28.8580 C   0  0  2  0  0  0  0  0  0  0  0  0
    4.2340   -3.1320   29.8830 O   0  0  0  0  0  0  0  0  0  0  0  0
    3.8010   -4.9860   28.8100 C   0  0  0  0  0  0  0  0  0  0  0  0
    3.0260   -5.4130   27.7370 O   0  0  0  0  0  0  0  0  0  0  0  0
    3.8440   -5.7010   30.0250 O   0  0  0  0  0  0  0  0  0  0  0  0
    4.2430   -6.9980   30.0140 C   0  0  0  0  0  0  0  0  0  0  0  0
    5.5780   -7.2800   30.2660 C   0  0  0  0  0  0  0  0  0  0  0  0
    5.1180   -7.5860   28.8880 C   0  0  0  0  0  0  0  0  0  0  0  0
    3.3110   -8.0250   30.5590 C   0  0  0  0  0  0  0  0  0  0  0  0
    4.5830   -3.1550   27.6540 C   0  0  0  0  0  0  0  0  0  0  0  0
    7.2730   -3.1210   23.6900 C   0  0  0  0  0  0  0  0  0  0  0  0
    7.6920   -3.3270   22.3850 C   0  0  0  0  0  0  0  0  0  0  0  0
  1  2  1  0
  2  3  2  0
  2  4  1  0
  4  5  1  0
  5  6  1  0
  6  7  1  0
  7  8  1  0
  8  9  2  0
  8 10  1  0
 10 11  1  0
 11 12  1  0
 12 13  1  0
 13 14  1  0
 14 15  1  1
 14 16  1  0
 16 17  2  0
 16 18  1  0
 19 18  1  0
 19 20  1  0
 19 21  1  0
 19 22  1  0
 10 23  1  0
 14 23  1  0
  7 24  1  0
  4 25  1  0
 24 25  1  0
M  END
