piperidine-amides-8540-covalent
     RDKit          3D

 24 25  0  0  0  0  0  0  0  0999 V2000
    7.1360   -3.2590   19.1710 C   0  0  0  0  0  0  0  0  0  0  0  0
    6.3860   -4.0090   20.1780 C   0  0  0  0  0  0  0  0  0  0  0  0
    5.2860   -4.4940   19.8590 O   0  0  0  0  0  0  0  0  0  0  0  0
    6.9300   -4.2240   21.4620 N   0  0  0  0  0  0  0  0  0  0  0  0
    7.7310   -3.1730   22.0370 C   0  0  0  0  0  0  0  0  0  0  0  0
    6.9380   -2.4870   23.0950 C   0  0  0  0  0  0  0  0  0  0  0  0
    6.5530   -3.5660   24.0680 C   0  0  0  0  0  0  0  0  0  0  0  0
    5.8750   -2.9500   25.2560 C   0  0  0  0  0  0  0  0  0  0  0  0
    4.6440   -3.0150   25.2870 O   0  0  0  0  0  0  0  0  0  0  0  0
    6.6860   -2.3420   26.2210 N   0  0  0  0  0  0  0  0  0  0  0  0
    7.7400   -3.0300   26.8890 C   0  0  0  0  0  0  0  0  0  0  0  0
    8.2340   -4.1300   26.1850 C   0  0  0  0  0  0  0  0  0  0  0  0
    7.4560   -5.2550   26.0660 C   0  0  0  0  0  0  0  0  0  0  0  0
    7.0470   -5.8080   27.3020 N   0  0  0  0  0  0  0  0  0  0  0  0
    8.0350   -5.5880   28.2640 C   0  0  0  0  0  0  0  0  0  0  0  0
    9.4220   -5.4000   27.7220 C   0  0  0  0  0  0  0  0  0  0  0  0
    5.8510   -5.4810   27.8290 C   0  0  0  0  0  0  0  0  0  0  0  0
    5.7660   -5.3030   29.3050 C   0  0  0  0  0  0  0  0  0  0  0  0
    5.6050   -6.6460   29.9610 C   0  0  0  0  0  0  0  0  0  0  0  0
    4.4180   -7.3860   29.3150 C   0  0  0  0  0  0  0  0  0  0  0  0
    3.9660   -6.9320   28.1050 C   0  0  0  0  0  0  0  0  0  0  0  0
    4.8190   -6.2370   27.2770 C   0  0  0  0  0  0  0  0  0  0  0  0
    5.6790   -4.6070   23.4420 C   0  0  0  0  0  0  0  0  0  0  0  0
    6.4010   -5.2590   22.3000 C   0  0  0  0  0  0  0  0  0  0  0  0
  1  2  1  0
  2  3  2  0
  2  4  1  0
  4  5  1  0
  5  6  1  0
  6  7  1  0
  7  8  1  0
  8  9  2  0
  8 10  1  0
 10 11  1  0
 11 12  1  0
 12 13  1  0
 13 14  1  0
 14 15  1  0
 15 16  1  0
 14 17  1  0
 17 18  1  0
 18 19  1  0
 19 20  1  0
 20 21  1  0
 17 22  1  0
 21 22  1  0
  7 23  1  0
  4 24  1  0
 23 24  1  0
M  END
