piperidine-amides-32334-covalent
     RDKit          3D

 28 30  0  0  0  0  0  0  0  0999 V2000
    6.9970   -3.3530   19.4190 C   0  0  0  0  0  0  0  0  0  0  0  0
    6.3360   -4.2450   20.4180 C   0  0  0  0  0  0  0  0  0  0  0  0
    5.4070   -4.9660   20.0080 O   0  0  0  0  0  0  0  0  0  0  0  0
    6.7820   -4.2920   21.7730 N   0  0  0  0  0  0  0  0  0  0  0  0
    6.5900   -5.4870   22.5670 C   0  0  0  0  0  0  0  0  0  0  0  0
    5.9490   -5.1150   23.9290 C   0  0  0  0  0  0  0  0  0  0  0  0
    5.8300   -3.6200   24.0100 C   0  0  0  0  0  0  0  0  0  0  0  0
    4.9810   -3.0700   25.1500 C   0  0  0  0  0  0  0  0  0  0  0  0
    3.9510   -2.5110   24.7860 O   0  0  0  0  0  0  0  0  0  0  0  0
    5.3100   -3.1730   26.5200 N   0  0  0  0  0  0  0  0  0  0  0  0
    6.3380   -3.9420   26.9440 C   0  0  0  0  0  0  0  0  0  0  0  0
    6.3390   -4.3280   28.2300 C   0  0  2  0  0  0  0  0  0  0  0  0
    6.5260   -5.5550   28.8440 C   0  0  0  0  0  0  0  0  0  0  0  0
    5.4360   -5.5890   29.6560 C   0  0  0  0  0  0  0  0  0  0  0  0
    4.5700   -4.5790   29.5870 O   0  0  0  0  0  0  0  0  0  0  0  0
    4.9060   -4.2280   28.3670 C   0  0  2  0  0  0  0  0  0  0  0  0
    4.1230   -5.2870   27.5640 C   0  0  0  0  0  0  0  0  0  0  0  0
    3.2870   -6.0970   28.4110 N   0  0  0  0  0  0  0  0  0  0  0  0
    2.1790   -5.6280   29.1770 C   0  0  0  0  0  0  0  0  0  0  0  0
    1.3740   -4.5480   28.8460 O   0  0  0  0  0  0  0  0  0  0  0  0
    1.8510   -6.2730   30.3280 O   0  0  0  0  0  0  0  0  0  0  0  0
    2.1750   -7.5000   30.7770 C   0  0  0  0  0  0  0  0  0  0  0  0
    2.3360   -8.3880   29.6090 C   0  0  0  0  0  0  0  0  0  0  0  0
    3.0400   -7.7510   31.8500 C   0  0  0  0  0  0  0  0  0  0  0  0
    0.8630   -8.2500   31.0420 C   0  0  0  0  0  0  0  0  0  0  0  0
    4.3870   -3.0360   27.6970 C   0  0  0  0  0  0  0  0  0  0  0  0
    7.1380   -2.9370   23.7860 C   0  0  0  0  0  0  0  0  0  0  0  0
    7.6010   -3.2270   22.3490 C   0  0  0  0  0  0  0  0  0  0  0  0
  1  2  1  0
  2  3  2  0
  2  4  1  0
  4  5  1  0
  5  6  1  0
  6  7  1  0
  7  8  1  0
  8  9  2  0
  8 10  1  0
 10 11  1  0
 12 11  1  6
 12 13  1  0
 13 14  1  0
 14 15  1  0
 12 16  1  0
 15 16  1  0
 16 17  1  6
 17 18  1  0
 18 19  1  0
 19 20  2  0
 19 21  1  0
 22 21  1  0
 22 23  1  0
 22 24  1  0
 22 25  1  0
 10 26  1  0
 16 26  1  0
  7 27  1  0
  4 28  1  0
 27 28  1  0
M  END
