piperidine-amides-30671-covalent
     RDKit          3D

 27 29  0  0  0  0  0  0  0  0999 V2000
    7.0320   -3.3680   19.3720 C   0  0  0  0  0  0  0  0  0  0  0  0
    6.3930   -4.2270   20.3760 C   0  0  0  0  0  0  0  0  0  0  0  0
    5.4310   -4.9300   20.0110 O   0  0  0  0  0  0  0  0  0  0  0  0
    6.8690   -4.2910   21.7080 N   0  0  0  0  0  0  0  0  0  0  0  0
    7.7710   -3.2600   22.2330 C   0  0  0  0  0  0  0  0  0  0  0  0
    7.5090   -3.0570   23.7060 C   0  0  0  0  0  0  0  0  0  0  0  0
    6.2590   -3.7620   24.1130 C   0  0  0  0  0  0  0  0  0  0  0  0
    5.7440   -3.4450   25.4840 C   0  0  0  0  0  0  0  0  0  0  0  0
    4.7430   -2.6730   25.5460 O   0  0  0  0  0  0  0  0  0  0  0  0
    6.1940   -3.8950   26.7690 N   0  0  0  0  0  0  0  0  0  0  0  0
    5.7320   -3.0290   27.8740 C   0  0  0  0  0  0  0  0  0  0  0  0
    5.5020   -3.8630   29.0900 C   0  0  0  0  0  0  0  0  0  0  0  0
    4.1930   -4.2190   29.2560 N   0  0  0  0  0  0  0  0  0  0  0  0
    3.5930   -4.3810   30.5330 C   0  0  0  0  0  0  0  0  0  0  0  0
    3.5260   -3.4840   31.3940 O   0  0  0  0  0  0  0  0  0  0  0  0
    3.0580   -5.5430   30.8490 O   0  0  0  0  0  0  0  0  0  0  0  0
    3.7330   -6.7880   31.0000 C   0  0  0  0  0  0  0  0  0  0  0  0
    3.3220   -7.7970   29.9460 C   0  0  0  0  0  0  0  0  0  0  0  0
    5.2580   -6.7190   31.1580 C   0  0  0  0  0  0  0  0  0  0  0  0
    3.1640   -7.7010   32.0750 C   0  0  0  0  0  0  0  0  0  0  0  0
    3.7600   -5.3610   28.4520 C   0  0  0  0  0  0  0  0  0  0  0  0
    4.4100   -5.3250   27.0980 C   0  0  0  0  0  0  0  0  0  0  0  0
    5.9200   -5.2720   27.1480 C   0  0  0  0  0  0  0  0  0  0  0  0
    6.4820   -5.9760   27.9400 C   0  0  0  0  0  0  0  0  0  0  0  0
    6.6500   -5.2620   28.6860 C   0  0  0  0  0  0  0  0  0  0  0  0
    6.2440   -5.1970   23.7970 C   0  0  0  0  0  0  0  0  0  0  0  0
    6.6710   -5.4730   22.5160 C   0  0  0  0  0  0  0  0  0  0  0  0
  1  2  1  0
  2  3  2  0
  2  4  1  0
  4  5  1  0
  5  6  1  0
  6  7  1  0
  7  8  1  0
  8  9  2  0
  8 10  1  0
 10 11  1  0
 11 12  1  0
 12 13  1  0
 13 14  1  0
 14 15  2  0
 14 16  1  0
 17 16  1  0
 17 18  1  0
 17 19  1  0
 17 20  1  0
 13 21  1  0
 21 22  1  0
 23 10  1  0
 22 23  1  0
 23 24  1  0
 23 25  1  0
 24 25  1  0
  7 26  1  0
  4 27  1  0
 26 27  1  0
M  END
