piperidine-amides-21686-covalent
     RDKit          3D

 21 21  0  0  0  0  0  0  0  0999 V2000
    7.1480   -3.2800   19.2470 C   0  0  0  0  0  0  0  0  0  0  0  0
    6.3570   -3.9980   20.2490 C   0  0  0  0  0  0  0  0  0  0  0  0
    5.2610   -4.4790   19.8610 O   0  0  0  0  0  0  0  0  0  0  0  0
    6.8440   -4.1800   21.5450 N   0  0  0  0  0  0  0  0  0  0  0  0
    6.5940   -5.3990   22.2710 C   0  0  0  0  0  0  0  0  0  0  0  0
    6.0650   -5.0240   23.6220 C   0  0  0  0  0  0  0  0  0  0  0  0
    6.0010   -3.5240   23.8010 C   0  0  0  0  0  0  0  0  0  0  0  0
    5.5290   -3.1150   25.1490 C   0  0  0  0  0  0  0  0  0  0  0  0
    4.3040   -2.9090   25.2920 O   0  0  0  0  0  0  0  0  0  0  0  0
    6.3560   -2.9280   26.2710 N   0  0  0  0  0  0  0  0  0  0  0  0
    6.8970   -1.6070   26.4470 C   0  0  0  0  0  0  0  0  0  0  0  0
    6.1150   -3.7430   27.4490 C   0  0  0  0  0  0  0  0  0  0  0  0
    5.3490   -4.8710   27.2010 C   0  0  0  0  0  0  0  0  0  0  0  0
    4.0840   -4.8870   27.7440 C   0  0  0  0  0  0  0  0  0  0  0  0
    5.3600   -5.3120   25.9140 C   0  0  0  0  0  0  0  0  0  0  0  0
    5.9310   -6.3230   27.9960 S   0  0  0  0  0  0  0  0  0  0  0  0
    6.4550   -5.5740   29.3900 C   0  0  0  0  0  0  0  0  0  0  0  0
    4.8480   -7.3000   28.2740 O   0  0  0  0  0  0  0  0  0  0  0  0
    7.1020   -6.8280   27.2840 O   0  0  0  0  0  0  0  0  0  0  0  0
    7.3510   -2.8720   23.5630 C   0  0  0  0  0  0  0  0  0  0  0  0
    7.6760   -3.1060   22.1110 C   0  0  0  0  0  0  0  0  0  0  0  0
  1  2  1  0
  2  3  2  0
  2  4  1  0
  4  5  1  0
  5  6  1  0
  6  7  1  0
  7  8  1  0
  8  9  2  0
  8 10  1  0
 10 11  1  0
 10 12  1  0
 13 12  1  0
 13 14  1  0
 13 15  1  0
 13 16  1  0
 16 17  1  0
 16 18  2  0
 16 19  2  0
  7 20  1  0
  4 21  1  0
 20 21  1  0
M  END
