piperidine-amides-34076-covalent
     RDKit          3D

 30 33  0  0  0  0  0  0  0  0999 V2000
    7.0420   -3.3280   19.4040 C   0  0  0  0  0  0  0  0  0  0  0  0
    6.3900   -4.2180   20.3760 C   0  0  0  0  0  0  0  0  0  0  0  0
    5.4170   -4.9170   20.0040 O   0  0  0  0  0  0  0  0  0  0  0  0
    6.8670   -4.3300   21.7000 N   0  0  0  0  0  0  0  0  0  0  0  0
    6.6010   -5.5450   22.4530 C   0  0  0  0  0  0  0  0  0  0  0  0
    6.0170   -5.1630   23.8350 C   0  0  0  0  0  0  0  0  0  0  0  0
    5.8270   -3.6660   23.8310 C   0  0  0  0  0  0  0  0  0  0  0  0
    5.0340   -3.1760   25.0030 C   0  0  0  0  0  0  0  0  0  0  0  0
    3.8020   -3.1300   24.8460 O   0  0  0  0  0  0  0  0  0  0  0  0
    5.5770   -2.7730   26.2470 N   0  0  0  0  0  0  0  0  0  0  0  0
    6.8790   -2.4240   26.3590 C   0  0  0  0  0  0  0  0  0  0  0  0
    6.7590   -0.9400   26.7020 C   0  0  0  0  0  0  0  0  0  0  0  0
    6.3370    0.0350   25.8000 C   0  0  0  0  0  0  0  0  0  0  0  0
    6.3270    1.2400   26.4810 N   0  0  0  0  0  0  0  0  0  0  0  0
    6.7510    0.8560   27.7280 C   0  0  0  0  0  0  0  0  0  0  0  0
    6.9000    1.7120   28.7860 C   0  0  0  0  0  0  0  0  0  0  0  0
    7.3450    1.2550   30.0190 C   0  0  0  0  0  0  0  0  0  0  0  0
    7.7700   -0.1380   30.5730 C   0  0  0  0  0  0  0  0  0  0  0  0
    7.5410   -0.9760   29.2930 C   0  0  0  0  0  0  0  0  0  0  0  0
    7.0580   -0.4230   27.9990 C   0  0  0  0  0  0  0  0  0  0  0  0
    5.2810   -1.6840   27.1320 C   0  0  0  0  0  0  0  0  0  0  0  0
    4.7300   -0.4740   26.6630 C   0  0  0  0  0  0  0  0  0  0  0  0
    4.4610    0.5970   27.4620 C   0  0  0  0  0  0  0  0  0  0  0  0
    4.7710    0.4560   28.9090 C   0  0  0  0  0  0  0  0  0  0  0  0
    5.3460   -0.8290   29.4060 C   0  0  0  0  0  0  0  0  0  0  0  0
    5.5730   -0.7180   31.0870 S   0  0  0  0  0  0  0  0  0  0  0  0
    4.3470    0.4060   31.8010 C   0  0  0  0  0  0  0  0  0  0  0  0
    5.5870   -1.8520   28.5070 C   0  0  0  0  0  0  0  0  0  0  0  0
    7.1140   -2.9490   23.6010 C   0  0  0  0  0  0  0  0  0  0  0  0
    7.5860   -3.2650   22.3460 C   0  0  0  0  0  0  0  0  0  0  0  0
  1  2  1  0
  2  3  2  0
  2  4  1  0
  4  5  1  0
  5  6  1  0
  6  7  1  0
  7  8  1  0
  8  9  2  0
  8 10  1  0
 10 11  1  0
 11 12  1  0
 12 13  2  0
 13 14  1  0
 14 15  1  0
 15 16  1  0
 16 17  2  0
 17 18  1  0
 18 19  2  0
 12 20  1  0
 15 20  2  0
 19 20  1  0
 10 21  1  0
 21 22  2  0
 22 23  1  0
 23 24  2  0
 24 25  1  0
 25 26  1  0
 26 27  1  0
 21 28  1  0
 25 28  2  0
  7 29  1  0
  4 30  1  0
 29 30  1  0
M  END
