piperidine-amides-14455-covalent
     RDKit          3D

 25 27  0  0  0  0  0  0  0  0999 V2000
    7.0600   -3.3340   19.3090 C   0  0  0  0  0  0  0  0  0  0  0  0
    6.3970   -4.1770   20.2990 C   0  0  0  0  0  0  0  0  0  0  0  0
    5.3550   -4.7690   19.9620 O   0  0  0  0  0  0  0  0  0  0  0  0
    6.9670   -4.3540   21.5840 N   0  0  0  0  0  0  0  0  0  0  0  0
    6.5440   -5.4720   22.3760 C   0  0  0  0  0  0  0  0  0  0  0  0
    5.7470   -4.9560   23.5350 C   0  0  0  0  0  0  0  0  0  0  0  0
    6.5860   -3.8710   24.1790 C   0  0  0  0  0  0  0  0  0  0  0  0
    5.8490   -3.2260   25.3140 C   0  0  0  0  0  0  0  0  0  0  0  0
    4.6240   -3.3490   25.3020 O   0  0  0  0  0  0  0  0  0  0  0  0
    6.5870   -2.5450   26.2840 N   0  0  0  0  0  0  0  0  0  0  0  0
    6.2500   -1.2170   26.7560 C   0  0  1  0  0  0  0  0  0  0  0  0
    4.8570   -0.9860   26.6660 C   0  0  0  0  0  0  0  0  0  0  0  0
    4.3510    0.2870   26.7410 C   0  0  0  0  0  0  0  0  0  0  0  0
    5.7140    1.2480   26.8330 S   0  0  0  0  0  0  0  0  0  0  0  0
    6.5550    1.2850   25.5850 O   0  0  0  0  0  0  0  0  0  0  0  0
    5.3730    2.6460   27.2570 O   0  0  0  0  0  0  0  0  0  0  0  0
    6.4190    0.3920   28.2160 C   0  0  0  0  0  0  0  0  0  0  0  0
    6.6460    1.3810   29.4730 C   0  0  0  0  0  0  0  0  0  0  0  0
    7.2490    0.7730   30.7270 C   0  0  0  0  0  0  0  0  0  0  0  0
    6.8310    0.4540   29.4080 C   0  0  0  0  0  0  0  0  0  0  0  0
    6.5370   -0.6730   27.9310 Br  0  0  0  0  0  0  0  0  0  0  0  0
    7.2030   -0.8140   29.5820 C   0  0  0  0  0  0  0  0  0  0  0  0
    6.7700   -1.1780   28.1820 C   0  0  0  0  0  0  0  0  0  0  0  0
    6.8410   -2.7800   23.1750 C   0  0  0  0  0  0  0  0  0  0  0  0
    7.6940   -3.2920   22.2380 C   0  0  0  0  0  0  0  0  0  0  0  0
  1  2  1  0
  2  3  2  0
  2  4  1  0
  4  5  1  0
  5  6  1  0
  6  7  1  0
  7  8  1  0
  8  9  2  0
  8 10  1  0
 11 10  1  1
 11 12  1  0
 12 13  1  0
 14 13  1  0
 14 15  2  0
 14 16  2  0
 14 17  1  0
 17 18  2  0
 18 19  1  0
 19 20  2  0
 20 21  1  0
 20 22  1  0
 11 23  1  0
 17 23  1  0
 22 23  2  0
  7 24  1  0
  4 25  1  0
 24 25  1  0
M  END
