piperidine-amides-35655-covalent
     RDKit          3D

 36 39  0  0  0  0  0  0  0  0999 V2000
    7.0940   -3.3530   19.3190 C   0  0  0  0  0  0  0  0  0  0  0  0
    6.3790   -4.1700   20.3200 C   0  0  0  0  0  0  0  0  0  0  0  0
    5.3430   -4.7230   19.9540 O   0  0  0  0  0  0  0  0  0  0  0  0
    6.9270   -4.3310   21.6000 N   0  0  0  0  0  0  0  0  0  0  0  0
    6.6930   -5.5110   22.3660 C   0  0  0  0  0  0  0  0  0  0  0  0
    6.0270   -5.1060   23.6510 C   0  0  0  0  0  0  0  0  0  0  0  0
    6.7130   -3.8900   24.3100 C   0  0  0  0  0  0  0  0  0  0  0  0
    5.7940   -3.5080   25.4210 C   0  0  0  0  0  0  0  0  0  0  0  0
    4.6000   -3.4520   25.1230 O   0  0  0  0  0  0  0  0  0  0  0  0
    6.1610   -3.1900   26.7660 N   0  0  0  0  0  0  0  0  0  0  0  0
    6.1890   -4.2680   27.7240 C   0  0  0  0  0  0  0  0  0  0  0  0
    5.9730   -5.3450   28.8030 C   0  0  0  0  0  0  0  0  0  0  0  0
    6.7200   -6.3430   29.3060 C   0  0  0  0  0  0  0  0  0  0  0  0
    7.5350   -6.9550   28.5930 O   0  0  0  0  0  0  0  0  0  0  0  0
    6.5260   -6.7120   30.6370 O   0  0  0  0  0  0  0  0  0  0  0  0
    5.3280   -7.3230   31.1280 C   0  0  0  0  0  0  0  0  0  0  0  0
    5.6420   -7.8510   32.3470 C   0  0  0  0  0  0  0  0  0  0  0  0
    4.7830   -5.4850   29.5300 C   0  0  0  0  0  0  0  0  0  0  0  0
    4.0620   -4.5910   29.0810 N   0  0  0  0  0  0  0  0  0  0  0  0
    4.7790   -3.9770   28.1640 N   0  0  0  0  0  0  0  0  0  0  0  0
    3.7920   -2.9670   27.7430 C   0  0  2  0  0  0  0  0  0  0  0  0
    2.8270   -3.4420   26.6680 C   0  0  0  0  0  0  0  0  0  0  0  0
    2.7240   -2.5780   25.6130 F   0  0  0  0  0  0  0  0  0  0  0  0
    1.5880   -3.7860   27.0850 F   0  0  0  0  0  0  0  0  0  0  0  0
    3.1780   -4.6770   26.0580 F   0  0  0  0  0  0  0  0  0  0  0  0
    4.5030   -1.8620   27.1000 C   0  0  0  0  0  0  0  0  0  0  0  0
    5.9140   -1.8670   27.3110 C   0  0  1  0  0  0  0  0  0  0  0  0
    6.2620   -1.3550   28.7140 C   0  0  0  0  0  0  0  0  0  0  0  0
    5.1810   -1.0950   29.7250 C   0  0  0  0  0  0  0  0  0  0  0  0
    5.4910   -0.5390   31.1100 C   0  0  0  0  0  0  0  0  0  0  0  0
    6.7900   -0.2550   31.4840 C   0  0  0  0  0  0  0  0  0  0  0  0
    7.1360    0.4540   33.2190 Br  0  0  0  0  0  0  0  0  0  0  0  0
    7.8640   -0.5290   30.4780 C   0  0  0  0  0  0  0  0  0  0  0  0
    7.5410   -1.0820   29.0990 C   0  0  0  0  0  0  0  0  0  0  0  0
    6.8870   -2.7920   23.2750 C   0  0  0  0  0  0  0  0  0  0  0  0
    7.6570   -3.2870   22.2730 C   0  0  0  0  0  0  0  0  0  0  0  0
  1  2  1  0
  2  3  2  0
  2  4  1  0
  4  5  1  0
  5  6  1  0
  6  7  1  0
  7  8  1  0
  8  9  2  0
  8 10  1  0
 10 11  1  0
 11 12  2  0
 12 13  1  0
 13 14  2  0
 13 15  1  0
 15 16  1  0
 16 17  1  0
 12 18  1  0
 18 19  2  0
 11 20  1  0
 19 20  1  0
 20 21  1  0
 21 22  1  6
 22 23  1  0
 22 24  1  0
 22 25  1  0
 21 26  1  0
 10 27  1  0
 26 27  1  0
 27 28  1  1
 28 29  2  0
 29 30  1  0
 30 31  2  0
 31 32  1  0
 31 33  1  0
 28 34  1  0
 33 34  2  0
  7 35  1  0
  4 36  1  0
 35 36  1  0
M  END
