piperidine-amides-3431-covalent
     RDKit          3D

 21 22  0  0  0  0  0  0  0  0999 V2000
    7.1700   -3.2870   19.2320 C   0  0  0  0  0  0  0  0  0  0  0  0
    6.3780   -4.0270   20.2040 C   0  0  0  0  0  0  0  0  0  0  0  0
    5.2960   -4.5140   19.8770 O   0  0  0  0  0  0  0  0  0  0  0  0
    6.8980   -4.2450   21.5200 N   0  0  0  0  0  0  0  0  0  0  0  0
    6.5380   -5.4220   22.2420 C   0  0  0  0  0  0  0  0  0  0  0  0
    5.7690   -5.0270   23.4690 C   0  0  0  0  0  0  0  0  0  0  0  0
    6.3810   -3.7750   24.1050 C   0  0  0  0  0  0  0  0  0  0  0  0
    5.3120   -3.1560   24.9280 C   0  0  0  0  0  0  0  0  0  0  0  0
    4.1980   -2.8560   24.4700 O   0  0  0  0  0  0  0  0  0  0  0  0
    5.5610   -2.9090   26.2770 N   0  0  0  0  0  0  0  0  0  0  0  0
    5.3650   -4.0040   27.1730 C   0  0  1  0  0  0  0  0  0  0  0  0
    4.7330   -5.1820   26.4990 C   0  0  0  0  0  0  0  0  0  0  0  0
    6.6570   -4.4600   27.5110 C   0  0  0  0  0  0  0  0  0  0  0  0
    7.0600   -5.6880   26.9650 C   0  0  0  0  0  0  0  0  0  0  0  0
    8.2850   -6.1810   27.2470 C   0  0  0  0  0  0  0  0  0  0  0  0
    9.0670   -5.4160   28.0870 C   0  0  0  0  0  0  0  0  0  0  0  0
    8.6610   -4.2430   28.5930 C   0  0  0  0  0  0  0  0  0  0  0  0
    7.4580   -3.7360   28.3150 C   0  0  0  0  0  0  0  0  0  0  0  0
    7.0470   -2.5100   28.8300 C   0  0  0  0  0  0  0  0  0  0  0  0
    6.9660   -2.7560   23.2410 C   0  0  0  0  0  0  0  0  0  0  0  0
    7.7110   -3.2820   22.2100 C   0  0  0  0  0  0  0  0  0  0  0  0
  1  2  1  0
  2  3  2  0
  2  4  1  0
  4  5  1  0
  5  6  1  0
  6  7  1  0
  7  8  1  0
  8  9  2  0
  8 10  1  0
 10 11  1  0
 11 12  1  6
 11 13  1  0
 13 14  2  0
 14 15  1  0
 15 16  2  0
 16 17  1  0
 13 18  1  0
 17 18  2  0
 18 19  1  0
  7 20  1  0
  4 21  1  0
 20 21  1  0
M  END
