piperidine-amides-1632-covalent
     RDKit          3D

 21 22  0  0  0  0  0  0  0  0999 V2000
    7.0490   -3.3320   19.3860 C   0  0  0  0  0  0  0  0  0  0  0  0
    6.3540   -4.2040   20.3750 C   0  0  0  0  0  0  0  0  0  0  0  0
    5.3790   -4.8710   19.9870 O   0  0  0  0  0  0  0  0  0  0  0  0
    6.8340   -4.2920   21.7080 N   0  0  0  0  0  0  0  0  0  0  0  0
    6.6590   -5.5130   22.4580 C   0  0  0  0  0  0  0  0  0  0  0  0
    6.1350   -5.1520   23.8590 C   0  0  0  0  0  0  0  0  0  0  0  0
    6.1250   -3.6640   23.9920 C   0  0  0  0  0  0  0  0  0  0  0  0
    5.5870   -3.1900   25.3010 C   0  0  0  0  0  0  0  0  0  0  0  0
    4.3580   -3.1080   25.3600 O   0  0  0  0  0  0  0  0  0  0  0  0
    6.4090   -2.8610   26.3920 N   0  0  0  0  0  0  0  0  0  0  0  0
    6.6630   -1.5690   26.9460 C   0  0  2  0  0  0  0  0  0  0  0  0
    7.1270   -1.4480   28.2500 C   0  0  0  0  0  0  0  0  0  0  0  0
    6.6220   -0.5300   29.1820 C   0  0  0  0  0  0  0  0  0  0  0  0
    5.9170    0.5680   28.7460 C   0  0  1  0  0  0  0  0  0  0  0  0
    6.2160    1.8910   29.3560 C   0  0  0  0  0  0  0  0  0  0  0  0
    5.9690    1.9640   30.7440 N   0  0  0  0  0  0  0  0  0  0  0  0
    6.6700    2.9030   28.6140 O   0  0  0  0  0  0  0  0  0  0  0  0
    5.7970    0.7300   27.3800 C   0  0  0  0  0  0  0  0  0  0  0  0
    5.7850   -0.5500   26.5480 C   0  0  0  0  0  0  0  0  0  0  0  0
    7.5150   -3.1190   23.6810 C   0  0  0  0  0  0  0  0  0  0  0  0
    7.6110   -3.1650   22.1990 C   0  0  0  0  0  0  0  0  0  0  0  0
  1  2  1  0
  2  3  2  0
  2  4  1  0
  4  5  1  0
  5  6  1  0
  6  7  1  0
  7  8  1  0
  8  9  2  0
  8 10  1  0
 11 10  1  1
 11 12  1  0
 12 13  1  0
 13 14  1  0
 14 15  1  6
 15 16  1  0
 15 17  2  0
 14 18  1  0
 11 19  1  0
 18 19  1  0
  7 20  1  0
  4 21  1  0
 20 21  1  0
M  END
