piperidine-amides-4502-covalent
     RDKit          3D

 25 26  0  0  0  0  0  0  0  0999 V2000
    7.1230   -3.2510   19.1740 C   0  0  0  0  0  0  0  0  0  0  0  0
    6.3570   -3.9990   20.1970 C   0  0  0  0  0  0  0  0  0  0  0  0
    5.2600   -4.4740   19.8470 O   0  0  0  0  0  0  0  0  0  0  0  0
    6.8790   -4.2060   21.4770 N   0  0  0  0  0  0  0  0  0  0  0  0
    7.5930   -3.1540   22.1320 C   0  0  0  0  0  0  0  0  0  0  0  0
    7.0660   -2.7750   23.4430 C   0  0  0  0  0  0  0  0  0  0  0  0
    6.4770   -3.8870   24.2190 C   0  0  0  0  0  0  0  0  0  0  0  0
    5.6800   -3.3670   25.3610 C   0  0  0  0  0  0  0  0  0  0  0  0
    4.4610   -3.1830   25.1820 O   0  0  0  0  0  0  0  0  0  0  0  0
    6.2570   -3.0890   26.6200 N   0  0  0  0  0  0  0  0  0  0  0  0
    6.4190   -1.7070   27.1310 C   0  0  0  0  0  0  0  0  0  0  0  0
    5.5910   -1.4150   28.3410 C   0  0  0  0  0  0  0  0  0  0  0  0
    6.0690   -0.2760   29.1180 C   0  0  0  0  0  0  0  0  0  0  0  0
    5.9910   -0.3250   30.4940 C   0  0  0  0  0  0  0  0  0  0  0  0
    4.7250   -0.8750   30.7530 N   0  0  0  0  0  0  0  0  0  0  0  0
    3.5860    0.0150   30.9220 C   0  0  0  0  0  0  0  0  0  0  0  0
    3.3150    0.2970   32.2250 C   0  0  0  0  0  0  0  0  0  0  0  0
    1.9360    0.2350   32.5180 O   0  0  0  0  0  0  0  0  0  0  0  0
    4.2960    0.6240   33.1950 N   0  0  0  0  0  0  0  0  0  0  0  0
    5.1840   -0.4060   33.7380 C   0  0  0  0  0  0  0  0  0  0  0  0
    4.0870    1.5700   34.1260 C   0  0  0  0  0  0  0  0  0  0  0  0
    4.2470   -2.1180   30.2530 C   0  0  0  0  0  0  0  0  0  0  0  0
    5.1290   -2.4550   29.1110 C   0  0  0  0  0  0  0  0  0  0  0  0
    5.6600   -4.8350   23.4180 C   0  0  0  0  0  0  0  0  0  0  0  0
    6.4650   -5.3410   22.2620 C   0  0  0  0  0  0  0  0  0  0  0  0
  1  2  1  0
  2  3  2  0
  2  4  1  0
  4  5  1  0
  5  6  1  0
  6  7  1  0
  7  8  1  0
  8  9  2  0
  8 10  1  0
 10 11  1  0
 11 12  1  0
 12 13  1  0
 13 14  1  0
 14 15  1  0
 15 16  1  0
 16 17  1  0
 17 18  2  0
 17 19  1  0
 19 20  1  0
 19 21  1  0
 15 22  1  0
 12 23  1  0
 22 23  1  0
  7 24  1  0
  4 25  1  0
 24 25  1  0
M  END
