piperidine-amides-8627-covalent
     RDKit          3D

 23 24  0  0  0  0  0  0  0  0999 V2000
    7.1170   -3.2700   19.2090 C   0  0  0  0  0  0  0  0  0  0  0  0
    6.3850   -4.0290   20.2240 C   0  0  0  0  0  0  0  0  0  0  0  0
    5.3100   -4.5590   19.8920 O   0  0  0  0  0  0  0  0  0  0  0  0
    6.9220   -4.1960   21.5240 N   0  0  0  0  0  0  0  0  0  0  0  0
    6.5510   -5.3680   22.2700 C   0  0  0  0  0  0  0  0  0  0  0  0
    6.2430   -4.9930   23.6950 C   0  0  0  0  0  0  0  0  0  0  0  0
    6.0930   -3.4870   23.7520 C   0  0  0  0  0  0  0  0  0  0  0  0
    5.6050   -3.0480   25.0820 C   0  0  0  0  0  0  0  0  0  0  0  0
    4.7070   -2.2140   25.1050 O   0  0  0  0  0  0  0  0  0  0  0  0
    6.1800   -3.6230   26.1870 N   0  0  0  0  0  0  0  0  0  0  0  0
    5.4400   -4.5690   26.9200 C   0  0  1  0  0  0  0  0  0  0  0  0
    5.9570   -5.8590   27.0170 C   0  0  0  0  0  0  0  0  0  0  0  0
    5.4400   -4.0760   28.2750 C   0  0  2  0  0  0  0  0  0  0  0  0
    6.5750   -3.5250   28.8040 C   0  0  0  0  0  0  0  0  0  0  0  0
    5.1150   -5.2380   29.2610 C   0  0  0  0  0  0  0  0  0  0  0  0
    6.1490   -6.3350   29.6050 C   0  0  0  0  0  0  0  0  0  0  0  0
    5.8770   -7.4400   30.5270 C   0  0  0  0  0  0  0  0  0  0  0  0
    4.5420   -7.5190   31.1690 C   0  0  0  0  0  0  0  0  0  0  0  0
    3.5490   -6.3980   30.7860 C   0  0  0  0  0  0  0  0  0  0  0  0
    3.7350   -5.3260   29.9240 C   0  0  0  0  0  0  0  0  0  0  0  0
    2.4040   -4.2120   29.6940 Cl  0  0  0  0  0  0  0  0  0  0  0  0
    7.4470   -2.9130   23.5110 C   0  0  0  0  0  0  0  0  0  0  0  0
    7.7300   -3.1190   22.0610 C   0  0  0  0  0  0  0  0  0  0  0  0
  1  2  1  0
  2  3  2  0
  2  4  1  0
  4  5  1  0
  5  6  1  0
  6  7  1  0
  7  8  1  0
  8  9  2  0
  8 10  1  0
 10 11  1  0
 11 12  1  1
 11 13  1  0
 13 14  1  1
 13 15  1  0
 15 16  2  0
 16 17  1  0
 17 18  2  0
 18 19  1  0
 15 20  1  0
 19 20  2  0
 20 21  1  0
  7 22  1  0
  4 23  1  0
 22 23  1  0
M  END
