piperidine-amides-13977-covalent
     RDKit          3D

 25 27  0  0  0  0  0  0  0  0999 V2000
    7.0380   -3.3300   19.3450 C   0  0  0  0  0  0  0  0  0  0  0  0
    6.3340   -4.1800   20.3440 C   0  0  0  0  0  0  0  0  0  0  0  0
    5.3470   -4.8400   19.9760 O   0  0  0  0  0  0  0  0  0  0  0  0
    6.8180   -4.2570   21.6730 N   0  0  0  0  0  0  0  0  0  0  0  0
    6.6970   -5.4680   22.4570 C   0  0  0  0  0  0  0  0  0  0  0  0
    6.0730   -5.1300   23.8240 C   0  0  0  0  0  0  0  0  0  0  0  0
    6.1230   -3.6530   24.0230 C   0  0  0  0  0  0  0  0  0  0  0  0
    5.7170   -3.2120   25.3830 C   0  0  0  0  0  0  0  0  0  0  0  0
    4.5480   -3.4710   25.6900 O   0  0  0  0  0  0  0  0  0  0  0  0
    6.5930   -2.5360   26.2450 N   0  0  0  0  0  0  0  0  0  0  0  0
    6.2430   -1.4240   27.0720 C   0  0  2  0  0  0  0  0  0  0  0  0
    5.7610   -0.2800   26.5000 C   0  0  0  0  0  0  0  0  0  0  0  0
    5.8090    0.7230   27.4140 C   0  0  1  0  0  0  0  0  0  0  0  0
    4.6660    1.2360   27.9820 C   0  0  0  0  0  0  0  0  0  0  0  0
    6.4170   -0.0880   28.4370 N   0  0  0  0  0  0  0  0  0  0  0  0
    6.2530    0.2900   29.7210 C   0  0  0  0  0  0  0  0  0  0  0  0
    5.5510   -0.5230   30.8040 C   0  0  0  0  0  0  0  0  0  0  0  0
    5.5230    0.1570   32.1480 C   0  0  0  0  0  0  0  0  0  0  0  0
    6.0630    1.3830   32.4140 C   0  0  0  0  0  0  0  0  0  0  0  0
    6.7770    2.3120   31.4910 C   0  0  0  0  0  0  0  0  0  0  0  0
    6.8130    1.6270   30.1110 C   0  0  0  0  0  0  0  0  0  0  0  0
    7.1750   -1.1880   28.1300 C   0  0  0  0  0  0  0  0  0  0  0  0
    7.8720   -0.7640   29.1420 O   0  0  0  0  0  0  0  0  0  0  0  0
    7.4360   -3.0350   23.6720 C   0  0  0  0  0  0  0  0  0  0  0  0
    7.6980   -3.2160   22.1990 C   0  0  0  0  0  0  0  0  0  0  0  0
  1  2  1  0
  2  3  2  0
  2  4  1  0
  4  5  1  0
  5  6  1  0
  6  7  1  0
  7  8  1  0
  8  9  2  0
  8 10  1  0
 11 10  1  6
 11 12  1  0
 12 13  1  0
 13 14  1  1
 13 15  1  0
 15 16  1  0
 16 17  2  0
 17 18  1  0
 18 19  2  0
 19 20  1  0
 16 21  1  0
 20 21  2  0
 11 22  1  0
 15 22  1  0
 22 23  2  0
  7 24  1  0
  4 25  1  0
 24 25  1  0
M  END
