piperidine-amides-12845-covalent
     RDKit          3D

 21 22  0  0  0  0  0  0  0  0999 V2000
    7.1080   -3.2640   19.1440 C   0  0  0  0  0  0  0  0  0  0  0  0
    6.3510   -3.9890   20.1870 C   0  0  0  0  0  0  0  0  0  0  0  0
    5.2570   -4.4740   19.8490 O   0  0  0  0  0  0  0  0  0  0  0  0
    6.8750   -4.1740   21.4670 N   0  0  0  0  0  0  0  0  0  0  0  0
    7.5850   -3.1150   22.1100 C   0  0  0  0  0  0  0  0  0  0  0  0
    7.1410   -2.8060   23.4700 C   0  0  0  0  0  0  0  0  0  0  0  0
    6.4920   -3.9190   24.1950 C   0  0  0  0  0  0  0  0  0  0  0  0
    5.7550   -3.3810   25.3660 C   0  0  0  0  0  0  0  0  0  0  0  0
    4.5110   -3.3440   25.2990 O   0  0  0  0  0  0  0  0  0  0  0  0
    6.4230   -2.9290   26.5230 N   0  0  0  0  0  0  0  0  0  0  0  0
    6.5520   -1.4930   26.8690 C   0  0  0  0  0  0  0  0  0  0  0  0
    5.2840   -0.9540   27.4380 C   0  0  2  0  0  0  0  0  0  0  0  0
    5.0520    0.4820   27.2410 C   0  0  0  0  0  0  0  0  0  0  0  0
    4.1800    1.0000   28.0270 O   0  0  0  0  0  0  0  0  0  0  0  0
    3.0900    0.1680   28.3140 C   0  0  0  0  0  0  0  0  0  0  0  0
    2.0400    0.7340   29.0060 C   0  0  0  0  0  0  0  0  0  0  0  0
    2.3680   -0.3210   27.1060 C   0  0  0  0  0  0  0  0  0  0  0  0
    3.4830   -1.0220   28.8690 C   0  0  0  0  0  0  0  0  0  0  0  0
    4.8860   -1.1760   28.7380 O   0  0  0  0  0  0  0  0  0  0  0  0
    5.6950   -4.8490   23.3610 C   0  0  0  0  0  0  0  0  0  0  0  0
    6.4200   -5.2830   22.2560 C   0  0  0  0  0  0  0  0  0  0  0  0
  1  2  1  0
  2  3  2  0
  2  4  1  0
  4  5  1  0
  5  6  1  0
  6  7  1  0
  7  8  1  0
  8  9  2  0
  8 10  1  0
 10 11  1  0
 12 11  1  1
 12 13  1  0
 13 14  1  0
 14 15  1  0
 15 16  1  0
 15 17  1  0
 15 18  1  0
 12 19  1  0
 18 19  1  0
  7 20  1  0
  4 21  1  0
 20 21  1  0
M  END
