piperidine-amides-24871-covalent
     RDKit          3D

 24 26  0  0  0  0  0  0  0  0999 V2000
    7.0260   -3.3620   19.4060 C   0  0  0  0  0  0  0  0  0  0  0  0
    6.3820   -4.2600   20.3770 C   0  0  0  0  0  0  0  0  0  0  0  0
    5.4020   -4.9440   20.0070 O   0  0  0  0  0  0  0  0  0  0  0  0
    6.8690   -4.4000   21.6960 N   0  0  0  0  0  0  0  0  0  0  0  0
    6.5560   -5.6190   22.4230 C   0  0  0  0  0  0  0  0  0  0  0  0
    6.1370   -5.2440   23.8690 C   0  0  0  0  0  0  0  0  0  0  0  0
    5.9190   -3.7480   23.8780 C   0  0  0  0  0  0  0  0  0  0  0  0
    5.2900   -3.1880   25.1190 C   0  0  0  0  0  0  0  0  0  0  0  0
    4.6830   -2.1170   24.9810 O   0  0  0  0  0  0  0  0  0  0  0  0
    5.3620   -3.7790   26.4130 N   0  0  0  0  0  0  0  0  0  0  0  0
    6.4500   -3.2990   27.1610 C   0  0  0  0  0  0  0  0  0  0  0  0
    6.5800   -4.3210   28.2430 C   0  0  0  0  0  0  0  0  0  0  0  0
    5.3260   -4.4890   28.5930 C   0  0  0  0  0  0  0  0  0  0  0  0
    4.5830   -3.7460   27.6830 C   0  0  2  0  0  0  0  0  0  0  0  0
    3.2590   -4.0870   27.3440 C   0  0  2  0  0  0  0  0  0  0  0  0
    2.7800   -5.2490   27.9270 C   0  0  0  0  0  0  0  0  0  0  0  0
    1.4990   -5.6160   27.7380 O   0  0  0  0  0  0  0  0  0  0  0  0
    0.7010   -5.1490   26.7640 C   0  0  0  0  0  0  0  0  0  0  0  0
    1.5550   -4.2770   25.8820 C   0  0  0  0  0  0  0  0  0  0  0  0
    3.0500   -4.4820   26.0230 C   0  0  1  0  0  0  0  0  0  0  0  0
    2.5670   -3.4950   25.0470 C   0  0  0  0  0  0  0  0  0  0  0  0
    3.5680   -5.7300   25.6950 O   0  0  0  0  0  0  0  0  0  0  0  0
    7.2230   -3.0720   23.5860 C   0  0  0  0  0  0  0  0  0  0  0  0
    7.5990   -3.3250   22.2990 C   0  0  0  0  0  0  0  0  0  0  0  0
  1  2  1  0
  2  3  2  0
  2  4  1  0
  4  5  1  0
  5  6  1  0
  6  7  1  0
  7  8  1  0
  8  9  2  0
  8 10  1  0
 10 11  1  0
 11 12  1  0
 12 13  1  0
 10 14  1  0
 14 13  1  1
 14 15  1  0
 15 16  1  1
 16 17  1  0
 17 18  1  0
 18 19  1  0
 15 20  1  0
 19 20  1  0
 20 21  1  6
 20 22  1  0
  7 23  1  0
  4 24  1  0
 23 24  1  0
M  END
