piperidine-amides-25773-covalent
     RDKit          3D

 25 27  0  0  0  0  0  0  0  0999 V2000
    7.0150   -3.4090   19.4380 C   0  0  0  0  0  0  0  0  0  0  0  0
    6.3500   -4.2930   20.4290 C   0  0  0  0  0  0  0  0  0  0  0  0
    5.3950   -4.9480   20.0080 O   0  0  0  0  0  0  0  0  0  0  0  0
    6.8270   -4.3970   21.7520 N   0  0  0  0  0  0  0  0  0  0  0  0
    6.6900   -5.6200   22.5170 C   0  0  0  0  0  0  0  0  0  0  0  0
    6.1060   -5.3060   23.8740 C   0  0  0  0  0  0  0  0  0  0  0  0
    5.9840   -3.7900   23.9590 C   0  0  0  0  0  0  0  0  0  0  0  0
    5.3980   -3.2690   25.2350 C   0  0  0  0  0  0  0  0  0  0  0  0
    4.7940   -2.2000   25.1560 O   0  0  0  0  0  0  0  0  0  0  0  0
    5.4440   -3.8590   26.5240 N   0  0  0  0  0  0  0  0  0  0  0  0
    6.4340   -3.2910   27.3490 C   0  0  0  0  0  0  0  0  0  0  0  0
    6.8000   -4.3890   28.3210 C   0  0  0  0  0  0  0  0  0  0  0  0
    5.9140   -4.7110   29.2360 C   0  0  0  0  0  0  0  0  0  0  0  0
    4.7140   -4.9050   28.6860 C   0  0  1  0  0  0  0  0  0  0  0  0
    3.7170   -4.8540   29.6230 C   0  0  2  0  0  0  0  0  0  0  0  0
    3.8810   -5.8150   30.5740 O   0  0  0  0  0  0  0  0  0  0  0  0
    2.2610   -4.9390   29.2170 C   0  0  0  0  0  0  0  0  0  0  0  0
    1.6430   -3.6010   29.5210 C   0  0  0  0  0  0  0  0  0  0  0  0
    0.1650   -3.4040   29.2070 C   0  0  0  0  0  0  0  0  0  0  0  0
   -0.5660   -4.5730   28.6150 C   0  0  0  0  0  0  0  0  0  0  0  0
    0.1020   -5.8660   28.3400 C   0  0  0  0  0  0  0  0  0  0  0  0
    1.5540   -6.1230   28.6260 C   0  0  0  0  0  0  0  0  0  0  0  0
    4.3910   -4.0220   27.5010 C   0  0  0  0  0  0  0  0  0  0  0  0
    7.3230   -3.1350   23.6620 C   0  0  0  0  0  0  0  0  0  0  0  0
    7.6520   -3.3300   22.3310 C   0  0  0  0  0  0  0  0  0  0  0  0
  1  2  1  0
  2  3  2  0
  2  4  1  0
  4  5  1  0
  5  6  1  0
  6  7  1  0
  7  8  1  0
  8  9  2  0
  8 10  1  0
 10 11  1  0
 11 12  1  0
 12 13  1  0
 14 13  1  1
 14 15  1  0
 15 16  1  1
 15 17  1  0
 17 18  2  0
 18 19  1  0
 19 20  2  0
 20 21  1  0
 17 22  1  0
 21 22  2  0
 10 23  1  0
 14 23  1  0
  7 24  1  0
  4 25  1  0
 24 25  1  0
M  END
