piperidine-amides-11091-covalent
     RDKit          3D

 20 20  0  0  0  0  0  0  0  0999 V2000
    7.1190   -3.2440   19.1400 C   0  0  0  0  0  0  0  0  0  0  0  0
    6.3230   -3.9590   20.1460 C   0  0  0  0  0  0  0  0  0  0  0  0
    5.2300   -4.4480   19.8310 O   0  0  0  0  0  0  0  0  0  0  0  0
    6.7870   -4.1610   21.4470 N   0  0  0  0  0  0  0  0  0  0  0  0
    7.6600   -3.2100   22.1080 C   0  0  0  0  0  0  0  0  0  0  0  0
    6.8890   -2.6720   23.2800 C   0  0  0  0  0  0  0  0  0  0  0  0
    6.3770   -3.7910   24.1270 C   0  0  0  0  0  0  0  0  0  0  0  0
    5.6710   -3.2980   25.3240 C   0  0  0  0  0  0  0  0  0  0  0  0
    4.4390   -3.0120   25.2860 O   0  0  0  0  0  0  0  0  0  0  0  0
    6.3400   -3.1310   26.5530 N   0  0  0  0  0  0  0  0  0  0  0  0
    7.0840   -4.2620   27.1430 C   0  0  0  0  0  0  0  0  0  0  0  0
    7.8590   -4.9210   26.0560 C   0  0  0  0  0  0  0  0  0  0  0  0
    9.1370   -4.3340   25.6060 C   0  0  0  0  0  0  0  0  0  0  0  0
    9.0320   -3.7840   24.5020 O   0  0  0  0  0  0  0  0  0  0  0  0
   10.2590   -4.4850   26.4920 N   0  0  0  0  0  0  0  0  0  0  0  0
    9.4840   -4.5820   27.7530 C   0  0  0  0  0  0  0  0  0  0  0  0
    9.0690   -5.8590   28.1300 N   0  0  0  0  0  0  0  0  0  0  0  0
    9.1830   -3.4840   28.4960 O   0  0  0  0  0  0  0  0  0  0  0  0
    5.6550   -4.8680   23.4020 C   0  0  0  0  0  0  0  0  0  0  0  0
    6.3950   -5.3120   22.1990 C   0  0  0  0  0  0  0  0  0  0  0  0
  1  2  1  0
  2  3  2  0
  2  4  1  0
  4  5  1  0
  5  6  1  0
  6  7  1  0
  7  8  1  0
  8  9  2  0
  8 10  1  0
 10 11  1  0
 11 12  1  0
 12 13  1  0
 13 14  2  0
 13 15  1  0
 15 16  1  0
 16 17  1  0
 16 18  2  0
  7 19  1  0
  4 20  1  0
 19 20  1  0
M  END
