piperidine-amides-27306-covalent
     RDKit          3D

 24 25  0  0  0  0  0  0  0  0999 V2000
    7.1120   -3.2670   19.2330 C   0  0  0  0  0  0  0  0  0  0  0  0
    6.3810   -4.0320   20.2480 C   0  0  0  0  0  0  0  0  0  0  0  0
    5.2960   -4.5590   19.8900 O   0  0  0  0  0  0  0  0  0  0  0  0
    6.9110   -4.1980   21.5270 N   0  0  0  0  0  0  0  0  0  0  0  0
    7.7240   -3.1930   22.1690 C   0  0  0  0  0  0  0  0  0  0  0  0
    7.0060   -2.7200   23.3950 C   0  0  0  0  0  0  0  0  0  0  0  0
    6.5090   -3.8660   24.2340 C   0  0  0  0  0  0  0  0  0  0  0  0
    5.7700   -3.3480   25.4060 C   0  0  0  0  0  0  0  0  0  0  0  0
    4.5260   -3.3190   25.3380 O   0  0  0  0  0  0  0  0  0  0  0  0
    6.3880   -2.8810   26.5860 N   0  0  0  0  0  0  0  0  0  0  0  0
    6.8180   -1.5090   26.6570 C   0  0  0  0  0  0  0  0  0  0  0  0
    6.2160   -3.6620   27.7950 C   0  0  0  0  0  0  0  0  0  0  0  0
    5.2650   -3.0620   28.5790 C   0  0  0  0  0  0  0  0  0  0  0  0
    4.1670   -3.7050   29.1310 C   0  0  0  0  0  0  0  0  0  0  0  0
    3.1930   -2.7000   30.0480 S   0  0  0  0  0  0  0  0  0  0  0  0
    4.2740   -1.3390   29.6990 C   0  0  0  0  0  0  0  0  0  0  0  0
    4.0940   -0.0480   30.1640 C   0  0  2  0  0  0  0  0  0  0  0  0
    3.1630    0.6680   29.4500 C   0  0  0  0  0  0  0  0  0  0  0  0
    5.2550    0.7380   30.2350 O   0  0  0  0  0  0  0  0  0  0  0  0
    6.3250    0.3050   30.9110 C   0  0  0  0  0  0  0  0  0  0  0  0
    7.2910   -0.6620   30.2210 C   0  0  0  0  0  0  0  0  0  0  0  0
    5.3180   -1.7030   28.9090 N   0  0  0  0  0  0  0  0  0  0  0  0
    5.6500   -4.8550   23.4230 C   0  0  0  0  0  0  0  0  0  0  0  0
    6.5420   -5.3660   22.3060 C   0  0  0  0  0  0  0  0  0  0  0  0
  1  2  1  0
  2  3  2  0
  2  4  1  0
  4  5  1  0
  5  6  1  0
  6  7  1  0
  7  8  1  0
  8  9  2  0
  8 10  1  0
 10 11  1  0
 10 12  1  0
 12 13  1  0
 13 14  2  0
 14 15  1  0
 15 16  1  0
 16 17  1  0
 17 18  1  6
 17 19  1  0
 19 20  1  0
 20 21  1  0
 13 22  1  0
 16 22  2  0
  7 23  1  0
  4 24  1  0
 23 24  1  0
M  END
