piperidine-amides-19193-covalent
     RDKit          3D

 22 24  0  0  0  0  0  0  0  0999 V2000
    7.1510   -3.3040   19.3840 C   0  0  0  0  0  0  0  0  0  0  0  0
    6.4420   -4.1100   20.3440 C   0  0  0  0  0  0  0  0  0  0  0  0
    5.4060   -4.7450   19.9620 O   0  0  0  0  0  0  0  0  0  0  0  0
    6.8940   -4.2440   21.6720 N   0  0  0  0  0  0  0  0  0  0  0  0
    6.5350   -5.4520   22.4200 C   0  0  0  0  0  0  0  0  0  0  0  0
    5.4650   -4.8150   23.3800 C   0  0  0  0  0  0  0  0  0  0  0  0
    6.1740   -3.7440   24.1970 C   0  0  0  0  0  0  0  0  0  0  0  0
    5.1360   -3.1020   25.2300 C   0  0  0  0  0  0  0  0  0  0  0  0
    4.0050   -3.2210   24.7930 O   0  0  0  0  0  0  0  0  0  0  0  0
    5.7120   -2.6150   26.2560 N   0  0  0  0  0  0  0  0  0  0  0  0
    6.5160   -2.2930   27.2510 C   0  0  0  0  0  0  0  0  0  0  0  0
    5.9440   -1.5240   28.0920 C   0  0  0  0  0  0  0  0  0  0  0  0
    6.5190   -0.2530   28.2300 O   0  0  0  0  0  0  0  0  0  0  0  0
    6.4360    0.3630   29.4600 C   0  0  0  0  0  0  0  0  0  0  0  0
    6.6860    1.8090   29.5160 C   0  0  0  0  0  0  0  0  0  0  0  0
    6.5620    2.3570   30.9460 C   0  0  0  0  0  0  0  0  0  0  0  0
    6.2410    1.4860   32.0070 C   0  0  0  0  0  0  0  0  0  0  0  0
    5.9650    0.1160   32.1990 C   0  0  0  0  0  0  0  0  0  0  0  0
    6.1130   -0.3270   30.7460 C   0  0  0  0  0  0  0  0  0  0  0  0
    4.8210   -1.6840   27.0620 C   0  0  0  0  0  0  0  0  0  0  0  0
    6.8400   -2.6730   23.3090 C   0  0  0  0  0  0  0  0  0  0  0  0
    7.6630   -3.2170   22.3530 C   0  0  0  0  0  0  0  0  0  0  0  0
  1  2  1  0
  2  3  2  0
  2  4  1  0
  4  5  1  0
  5  6  1  0
  6  7  1  0
  7  8  1  0
  8  9  2  0
  8 10  1  0
 10 11  1  0
 11 12  1  0
 12 13  1  0
 13 14  1  0
 14 15  2  0
 15 16  1  0
 16 17  2  0
 17 18  1  0
 14 19  1  0
 18 19  2  0
 10 20  1  0
 12 20  1  0
  7 21  1  0
  4 22  1  0
 21 22  1  0
M  END
