piperidine-amides-3217-covalent
     RDKit          3D

 22 23  0  0  0  0  0  0  0  0999 V2000
    7.0720   -3.3350   19.3460 C   0  0  0  0  0  0  0  0  0  0  0  0
    6.3770   -4.1750   20.3140 C   0  0  0  0  0  0  0  0  0  0  0  0
    5.3790   -4.8100   19.9740 O   0  0  0  0  0  0  0  0  0  0  0  0
    6.8940   -4.2970   21.6470 N   0  0  0  0  0  0  0  0  0  0  0  0
    7.6890   -3.2380   22.2100 C   0  0  0  0  0  0  0  0  0  0  0  0
    7.0040   -2.6600   23.4100 C   0  0  0  0  0  0  0  0  0  0  0  0
    6.5080   -3.8070   24.2690 C   0  0  0  0  0  0  0  0  0  0  0  0
    5.7030   -3.2570   25.4030 C   0  0  0  0  0  0  0  0  0  0  0  0
    4.4670   -3.1130   25.3200 O   0  0  0  0  0  0  0  0  0  0  0  0
    6.3470   -2.8870   26.6140 N   0  0  0  0  0  0  0  0  0  0  0  0
    6.6200   -1.4800   26.8780 C   0  0  0  0  0  0  0  0  0  0  0  0
    7.0860   -1.4570   28.3290 C   0  0  0  0  0  0  0  0  0  0  0  0
    6.6050   -0.5770   29.2860 C   0  0  0  0  0  0  0  0  0  0  0  0
    6.0150    0.6450   28.9490 C   0  0  0  0  0  0  0  0  0  0  0  0
    6.5580    1.8520   29.3530 C   0  0  0  0  0  0  0  0  0  0  0  0
    6.6910    2.9610   28.4030 C   0  0  0  0  0  0  0  0  0  0  0  0
    6.5460    2.9520   27.0290 C   0  0  0  0  0  0  0  0  0  0  0  0
    5.9900    1.8950   26.3220 C   0  0  0  0  0  0  0  0  0  0  0  0
    5.5870    0.8100   27.1010 C   0  0  0  0  0  0  0  0  0  0  0  0
    5.6380   -0.5340   26.4950 C   0  0  0  0  0  0  0  0  0  0  0  0
    5.7120   -4.8540   23.4990 C   0  0  0  0  0  0  0  0  0  0  0  0
    6.5160   -5.3880   22.4950 C   0  0  0  0  0  0  0  0  0  0  0  0
  1  2  1  0
  2  3  2  0
  2  4  1  0
  4  5  1  0
  5  6  1  0
  6  7  1  0
  7  8  1  0
  8  9  2  0
  8 10  1  0
 10 11  1  0
 11 12  1  0
 12 13  1  0
 13 14  1  0
 14 15  1  0
 15 16  1  0
 16 17  1  0
 17 18  1  0
 18 19  1  0
 11 20  1  0
 19 20  1  0
  7 21  1  0
  4 22  1  0
 21 22  1  0
M  END
