piperidine-amides-26981-covalent
     RDKit          3D

 25 27  0  0  0  0  0  0  0  0999 V2000
    7.0420   -3.3440   19.3710 C   0  0  0  0  0  0  0  0  0  0  0  0
    6.4040   -4.1910   20.3860 C   0  0  0  0  0  0  0  0  0  0  0  0
    5.4030   -4.8520   19.9920 O   0  0  0  0  0  0  0  0  0  0  0  0
    6.9160   -4.2870   21.6950 N   0  0  0  0  0  0  0  0  0  0  0  0
    6.6730   -5.4640   22.5080 C   0  0  0  0  0  0  0  0  0  0  0  0
    6.1290   -5.0540   23.8600 C   0  0  0  0  0  0  0  0  0  0  0  0
    6.0930   -3.5560   24.0350 C   0  0  0  0  0  0  0  0  0  0  0  0
    5.5560   -3.1490   25.3660 C   0  0  0  0  0  0  0  0  0  0  0  0
    4.3200   -2.9780   25.4130 O   0  0  0  0  0  0  0  0  0  0  0  0
    6.2770   -2.9250   26.5680 N   0  0  0  0  0  0  0  0  0  0  0  0
    6.0150   -3.8400   27.6720 C   0  0  0  0  0  0  0  0  0  0  0  0
    5.5390   -5.2070   27.1560 C   0  0  0  0  0  0  0  0  0  0  0  0
    4.7150   -5.9030   28.1610 N   0  0  0  0  0  0  0  0  0  0  0  0
    4.3590   -5.2980   29.2790 C   0  0  0  0  0  0  0  0  0  0  0  0
    4.0950   -6.0910   30.3800 C   0  0  0  0  0  0  0  0  0  0  0  0
    5.1630   -6.8380   30.5710 O   0  0  0  0  0  0  0  0  0  0  0  0
    5.5220   -7.3970   29.4530 C   0  0  0  0  0  0  0  0  0  0  0  0
    4.7650   -7.2220   28.3200 C   0  0  0  0  0  0  0  0  0  0  0  0
    6.6860   -1.5810   26.9210 C   0  0  0  0  0  0  0  0  0  0  0  0
    5.7570   -0.4800   26.3940 C   0  0  0  0  0  0  0  0  0  0  0  0
    5.7290    0.4450   27.6320 C   0  0  0  0  0  0  0  0  0  0  0  0
    6.3980   -0.2020   28.8120 C   0  0  0  0  0  0  0  0  0  0  0  0
    7.0040   -1.4540   28.2820 C   0  0  0  0  0  0  0  0  0  0  0  0
    7.3900   -2.9380   23.6890 C   0  0  0  0  0  0  0  0  0  0  0  0
    7.7200   -3.2120   22.2410 C   0  0  0  0  0  0  0  0  0  0  0  0
  1  2  1  0
  2  3  2  0
  2  4  1  0
  4  5  1  0
  5  6  1  0
  6  7  1  0
  7  8  1  0
  8  9  2  0
  8 10  1  0
 10 11  1  0
 11 12  1  0
 12 13  1  0
 13 14  1  0
 14 15  1  0
 15 16  1  0
 16 17  1  0
 13 18  1  0
 17 18  1  0
 10 19  1  0
 19 20  1  0
 20 21  1  0
 21 22  1  0
 19 23  1  0
 22 23  1  0
  7 24  1  0
  4 25  1  0
 24 25  1  0
M  END
