piperidine-amides-5059-covalent
     RDKit          3D

 22 24  0  0  0  0  0  0  0  0999 V2000
    7.0830   -3.2930   19.2810 C   0  0  0  0  0  0  0  0  0  0  0  0
    6.3780   -4.0930   20.3090 C   0  0  0  0  0  0  0  0  0  0  0  0
    5.3480   -4.6920   19.9370 O   0  0  0  0  0  0  0  0  0  0  0  0
    6.8790   -4.2010   21.6230 N   0  0  0  0  0  0  0  0  0  0  0  0
    6.6010   -5.3720   22.3850 C   0  0  0  0  0  0  0  0  0  0  0  0
    6.0370   -5.0510   23.6910 C   0  0  0  0  0  0  0  0  0  0  0  0
    6.0600   -3.6010   23.9490 C   0  0  0  0  0  0  0  0  0  0  0  0
    5.5930   -3.2610   25.3210 C   0  0  0  0  0  0  0  0  0  0  0  0
    4.3700   -3.1600   25.4870 O   0  0  0  0  0  0  0  0  0  0  0  0
    6.4700   -3.0410   26.4040 N   0  0  0  0  0  0  0  0  0  0  0  0
    6.2630   -3.5910   27.7760 C   0  0  0  0  0  0  0  0  0  0  0  0
    4.8320   -3.8600   28.1090 C   0  0  0  0  0  0  0  0  0  0  0  0
    3.7820   -2.8610   27.9100 N   0  0  0  0  0  0  0  0  0  0  0  0
    2.6880   -3.4230   28.3030 N   0  0  0  0  0  0  0  0  0  0  0  0
    2.9580   -4.7150   28.7380 C   0  0  0  0  0  0  0  0  0  0  0  0
    4.2310   -4.9890   28.6280 N   0  0  0  0  0  0  0  0  0  0  0  0
    4.5590   -6.2500   29.0450 C   0  0  0  0  0  0  0  0  0  0  0  0
    3.6580   -7.2910   28.8500 C   0  0  0  0  0  0  0  0  0  0  0  0
    2.4690   -6.9450   29.2660 O   0  0  0  0  0  0  0  0  0  0  0  0
    1.9610   -5.6680   29.2580 C   0  0  0  0  0  0  0  0  0  0  0  0
    7.3270   -2.8990   23.5560 C   0  0  0  0  0  0  0  0  0  0  0  0
    7.6850   -3.1720   22.2570 C   0  0  0  0  0  0  0  0  0  0  0  0
  1  2  1  0
  2  3  2  0
  2  4  1  0
  4  5  1  0
  5  6  1  0
  6  7  1  0
  7  8  1  0
  8  9  2  0
  8 10  1  0
 10 11  1  0
 11 12  1  0
 12 13  2  0
 13 14  1  0
 14 15  2  0
 12 16  1  0
 15 16  1  0
 16 17  1  0
 17 18  1  0
 18 19  1  0
 15 20  1  0
 19 20  1  0
  7 21  1  0
  4 22  1  0
 21 22  1  0
M  END
