piperidine-amides-15195-covalent
     RDKit          3D

 18 19  0  0  0  0  0  0  0  0999 V2000
    7.1140   -3.2980   19.2710 C   0  0  0  0  0  0  0  0  0  0  0  0
    6.3990   -4.1060   20.2670 C   0  0  0  0  0  0  0  0  0  0  0  0
    5.3490   -4.7130   19.9500 O   0  0  0  0  0  0  0  0  0  0  0  0
    6.9140   -4.2510   21.5630 N   0  0  0  0  0  0  0  0  0  0  0  0
    7.7150   -3.1700   22.1300 C   0  0  0  0  0  0  0  0  0  0  0  0
    7.4090   -3.0140   23.6320 C   0  0  0  0  0  0  0  0  0  0  0  0
    6.0450   -3.6160   23.8570 C   0  0  0  0  0  0  0  0  0  0  0  0
    5.4760   -3.2190   25.1530 C   0  0  0  0  0  0  0  0  0  0  0  0
    4.3230   -2.7410   25.1510 O   0  0  0  0  0  0  0  0  0  0  0  0
    6.1820   -3.3720   26.3600 N   0  0  0  0  0  0  0  0  0  0  0  0
    5.3930   -3.3640   27.5560 C   0  0  1  0  0  0  0  0  0  0  0  0
    6.2220   -3.3280   28.7330 C   0  0  0  0  0  0  0  0  0  0  0  0
    5.7890   -2.0870   28.9870 C   0  0  1  0  0  0  0  0  0  0  0  0
    6.7640   -1.1390   29.1840 C   0  0  0  0  0  0  0  0  0  0  0  0
    6.3270    0.1550   29.4380 O   0  0  0  0  0  0  0  0  0  0  0  0
    4.8900   -1.9510   27.8940 C   0  0  0  0  0  0  0  0  0  0  0  0
    6.0500   -5.0820   23.6690 C   0  0  0  0  0  0  0  0  0  0  0  0
    6.6450   -5.4340   22.3420 C   0  0  0  0  0  0  0  0  0  0  0  0
  1  2  1  0
  2  3  2  0
  2  4  1  0
  4  5  1  0
  5  6  1  0
  6  7  1  0
  7  8  1  0
  8  9  2  0
  8 10  1  0
 11 10  1  6
 11 12  1  0
 12 13  1  0
 13 14  1  6
 14 15  1  0
 11 16  1  0
 13 16  1  0
  7 17  1  0
  4 18  1  0
 17 18  1  0
M  END
