piperidine-amides-2808-covalent
     RDKit          3D

 24 25  0  0  0  0  0  0  0  0999 V2000
    7.0850   -3.3280   19.2900 C   0  0  0  0  0  0  0  0  0  0  0  0
    6.3790   -4.1600   20.2570 C   0  0  0  0  0  0  0  0  0  0  0  0
    5.3390   -4.7370   19.9450 O   0  0  0  0  0  0  0  0  0  0  0  0
    6.9280   -4.3600   21.5630 N   0  0  0  0  0  0  0  0  0  0  0  0
    7.7390   -3.3200   22.1560 C   0  0  0  0  0  0  0  0  0  0  0  0
    7.0700   -2.7500   23.3670 C   0  0  0  0  0  0  0  0  0  0  0  0
    6.6680   -3.8940   24.2770 C   0  0  0  0  0  0  0  0  0  0  0  0
    5.9940   -3.3250   25.4650 C   0  0  0  0  0  0  0  0  0  0  0  0
    4.7580   -3.1760   25.5560 O   0  0  0  0  0  0  0  0  0  0  0  0
    6.8510   -2.9590   26.5230 N   0  0  0  0  0  0  0  0  0  0  0  0
    6.6970   -1.7110   27.2480 C   0  0  0  0  0  0  0  0  0  0  0  0
    7.3230   -1.5970   28.6000 C   0  0  0  0  0  0  0  0  0  0  0  0
    7.2250   -0.4560   29.3670 C   0  0  0  0  0  0  0  0  0  0  0  0
    6.5240    0.6610   28.8900 C   0  0  0  0  0  0  0  0  0  0  0  0
    5.9160    0.6550   27.6520 C   0  0  0  0  0  0  0  0  0  0  0  0
    5.9390   -0.4830   26.7440 C   0  0  0  0  0  0  0  0  0  0  0  0
    5.3290   -0.4890   25.5150 C   0  0  2  0  0  0  0  0  0  0  0  0
    5.8010    0.3260   24.6010 O   0  0  0  0  0  0  0  0  0  0  0  0
    3.9980   -0.1030   25.5140 C   0  0  0  0  0  0  0  0  0  0  0  0
    3.1900   -1.1620   25.2530 F   0  0  0  0  0  0  0  0  0  0  0  0
    3.8250    0.8680   24.5520 F   0  0  0  0  0  0  0  0  0  0  0  0
    3.6590    0.4940   26.7290 F   0  0  0  0  0  0  0  0  0  0  0  0
    5.9180   -5.0090   23.6420 C   0  0  0  0  0  0  0  0  0  0  0  0
    6.4280   -5.4330   22.3420 C   0  0  0  0  0  0  0  0  0  0  0  0
  1  2  1  0
  2  3  2  0
  2  4  1  0
  4  5  1  0
  5  6  1  0
  6  7  1  0
  7  8  1  0
  8  9  2  0
  8 10  1  0
 10 11  1  0
 11 12  2  0
 12 13  1  0
 13 14  2  0
 14 15  1  0
 11 16  1  0
 15 16  2  0
 16 17  1  0
 17 18  1  6
 17 19  1  0
 19 20  1  0
 19 21  1  0
 19 22  1  0
  7 23  1  0
  4 24  1  0
 23 24  1  0
M  END
