piperidine-amides-4045-covalent
     RDKit          3D

 28 30  0  0  0  0  0  0  0  0999 V2000
    7.0500   -3.3160   19.2430 C   0  0  0  0  0  0  0  0  0  0  0  0
    6.3270   -4.1150   20.2540 C   0  0  0  0  0  0  0  0  0  0  0  0
    5.2420   -4.6170   19.8930 O   0  0  0  0  0  0  0  0  0  0  0  0
    6.8470   -4.3680   21.5440 N   0  0  0  0  0  0  0  0  0  0  0  0
    7.5900   -3.3280   22.1740 C   0  0  0  0  0  0  0  0  0  0  0  0
    7.5870   -3.3640   23.6220 C   0  0  0  0  0  0  0  0  0  0  0  0
    6.5050   -4.1590   24.2440 C   0  0  0  0  0  0  0  0  0  0  0  0
    5.8850   -3.3370   25.3280 C   0  0  0  0  0  0  0  0  0  0  0  0
    4.6540   -3.3370   25.5370 O   0  0  0  0  0  0  0  0  0  0  0  0
    6.7620   -2.5530   26.0950 N   0  0  0  0  0  0  0  0  0  0  0  0
    6.5520   -1.5840   27.0930 C   0  0  0  0  0  0  0  0  0  0  0  0
    6.9870   -1.5620   28.4360 C   0  0  0  0  0  0  0  0  0  0  0  0
    6.6200   -0.3450   29.2830 C   0  0  0  0  0  0  0  0  0  0  0  0
    5.8780    0.8280   28.9690 C   0  0  0  0  0  0  0  0  0  0  0  0
    5.1270    1.9220   28.5020 N   0  0  0  0  0  0  0  0  0  0  0  0
    5.7180    3.1930   28.6870 C   0  0  0  0  0  0  0  0  0  0  0  0
    4.8880    3.9620   29.6740 C   0  0  0  0  0  0  0  0  0  0  0  0
    3.6720    4.1130   29.1060 N   0  0  0  0  0  0  0  0  0  0  0  0
    3.0400    5.2000   29.8470 C   0  0  0  0  0  0  0  0  0  0  0  0
    3.1190    6.5530   29.5170 O   0  0  0  0  0  0  0  0  0  0  0  0
    2.3530    4.9960   30.8700 O   0  0  0  0  0  0  0  0  0  0  0  0
    1.0170    4.4680   30.7920 C   0  0  0  0  0  0  0  0  0  0  0  0
    2.9200    2.9020   28.6630 C   0  0  0  0  0  0  0  0  0  0  0  0
    3.7610    1.6910   28.2490 C   0  0  0  0  0  0  0  0  0  0  0  0
    5.5110    0.6690   27.6280 N   0  0  0  0  0  0  0  0  0  0  0  0
    5.7920   -0.4010   26.7380 C   0  0  0  0  0  0  0  0  0  0  0  0
    5.5250   -4.7180   23.2750 C   0  0  0  0  0  0  0  0  0  0  0  0
    6.2710   -5.4130   22.3430 C   0  0  0  0  0  0  0  0  0  0  0  0
  1  2  1  0
  2  3  2  0
  2  4  1  0
  4  5  1  0
  5  6  1  0
  6  7  1  0
  7  8  1  0
  8  9  2  0
  8 10  1  0
 10 11  1  0
 11 12  2  0
 12 13  1  0
 13 14  2  0
 14 15  1  0
 15 16  1  0
 16 17  1  0
 17 18  1  0
 18 19  1  0
 19 20  2  0
 19 21  1  0
 21 22  1  0
 18 23  1  0
 15 24  1  0
 23 24  1  0
 14 25  1  0
 11 26  1  0
 25 26  2  0
  7 27  1  0
  4 28  1  0
 27 28  1  0
M  END
