piperidine-amides-30948-covalent
     RDKit          3D

 27 28  0  0  0  0  0  0  0  0999 V2000
    7.0580   -3.3980   19.4240 C   0  0  0  0  0  0  0  0  0  0  0  0
    6.3990   -4.2430   20.4190 C   0  0  0  0  0  0  0  0  0  0  0  0
    5.4540   -4.9580   20.0260 O   0  0  0  0  0  0  0  0  0  0  0  0
    6.8420   -4.2940   21.7730 N   0  0  0  0  0  0  0  0  0  0  0  0
    7.7320   -3.2680   22.3270 C   0  0  0  0  0  0  0  0  0  0  0  0
    7.2220   -2.8780   23.7060 C   0  0  0  0  0  0  0  0  0  0  0  0
    5.9460   -3.5920   24.0050 C   0  0  0  0  0  0  0  0  0  0  0  0
    5.1340   -3.1080   25.1950 C   0  0  0  0  0  0  0  0  0  0  0  0
    4.0950   -2.4500   24.9350 O   0  0  0  0  0  0  0  0  0  0  0  0
    5.3320   -3.2620   26.6070 N   0  0  0  0  0  0  0  0  0  0  0  0
    6.6000   -3.4690   27.1460 C   0  0  0  0  0  0  0  0  0  0  0  0
    6.3930   -4.8450   27.6780 C   0  0  1  0  0  0  0  0  0  0  0  0
    6.9850   -5.1680   28.9690 C   0  0  0  0  0  0  0  0  0  0  0  0
    4.9150   -5.0330   27.9400 C   0  0  2  0  0  0  0  0  0  0  0  0
    4.5190   -6.4020   27.3950 C   0  0  0  0  0  0  0  0  0  0  0  0
    3.0510   -6.6080   27.5200 C   0  0  0  0  0  0  0  0  0  0  0  0
    2.3700   -6.3980   26.2790 N   0  0  0  0  0  0  0  0  0  0  0  0
    2.5020   -7.3950   25.3680 C   0  0  0  0  0  0  0  0  0  0  0  0
    3.5760   -8.0930   25.2540 O   0  0  0  0  0  0  0  0  0  0  0  0
    1.4970   -7.5550   24.6510 O   0  0  0  0  0  0  0  0  0  0  0  0
    1.6010   -7.0900   23.3520 C   0  0  0  0  0  0  0  0  0  0  0  0
    1.2930   -8.0460   22.2130 C   0  0  0  0  0  0  0  0  0  0  0  0
    0.6130   -5.9730   23.2460 C   0  0  0  0  0  0  0  0  0  0  0  0
    2.9250   -6.4090   23.1490 C   0  0  0  0  0  0  0  0  0  0  0  0
    4.3090   -3.9110   27.3660 C   0  0  0  0  0  0  0  0  0  0  0  0
    6.0330   -5.0570   23.8610 C   0  0  0  0  0  0  0  0  0  0  0  0
    6.5580   -5.4160   22.6240 C   0  0  0  0  0  0  0  0  0  0  0  0
  1  2  1  0
  2  3  2  0
  2  4  1  0
  4  5  1  0
  5  6  1  0
  6  7  1  0
  7  8  1  0
  8  9  2  0
  8 10  1  0
 10 11  1  0
 11 12  1  0
 12 13  1  1
 12 14  1  0
 14 15  1  6
 15 16  1  0
 16 17  1  0
 17 18  1  0
 18 19  2  0
 18 20  1  0
 21 20  1  0
 21 22  1  0
 21 23  1  0
 21 24  1  0
 10 25  1  0
 14 25  1  0
  7 26  1  0
  4 27  1  0
 26 27  1  0
M  END
