piperidine-amides-26138-covalent
     RDKit          3D

 25 27  0  0  0  0  0  0  0  0999 V2000
    7.0260   -3.3920   19.4520 C   0  0  0  0  0  0  0  0  0  0  0  0
    6.3910   -4.2850   20.4240 C   0  0  0  0  0  0  0  0  0  0  0  0
    5.4350   -4.9770   20.0200 O   0  0  0  0  0  0  0  0  0  0  0  0
    6.8560   -4.4060   21.7600 N   0  0  0  0  0  0  0  0  0  0  0  0
    6.6200   -5.6170   22.5560 C   0  0  0  0  0  0  0  0  0  0  0  0
    6.0650   -5.2130   23.9220 C   0  0  0  0  0  0  0  0  0  0  0  0
    5.9580   -3.7280   24.0190 C   0  0  0  0  0  0  0  0  0  0  0  0
    5.3170   -3.0980   25.2260 C   0  0  0  0  0  0  0  0  0  0  0  0
    4.7110   -2.0150   25.0330 O   0  0  0  0  0  0  0  0  0  0  0  0
    5.2470   -3.5290   26.5830 N   0  0  0  0  0  0  0  0  0  0  0  0
    4.1160   -2.9560   27.3760 C   0  0  0  0  0  0  0  0  0  0  0  0
    4.3850   -3.0690   28.8490 C   0  0  0  0  0  0  0  0  0  0  0  0
    4.9620   -4.3440   29.1350 C   0  0  0  0  0  0  0  0  0  0  0  0
    4.3050   -5.1580   30.2080 C   0  0  0  0  0  0  0  0  0  0  0  0
    4.8770   -6.5120   30.4750 C   0  0  0  0  0  0  0  0  0  0  0  0
    6.0210   -6.8820   29.6310 C   0  0  0  0  0  0  0  0  0  0  0  0
    6.4820   -8.1530   29.9160 F   0  0  0  0  0  0  0  0  0  0  0  0
    6.5170   -6.0050   28.6780 C   0  0  0  0  0  0  0  0  0  0  0  0
    6.0040   -4.7070   28.4130 C   0  0  0  0  0  0  0  0  0  0  0  0
    6.3090   -3.5180   27.4440 C   0  0  2  0  0  0  0  0  0  0  0  0
    6.3410   -2.0900   28.0410 C   0  0  0  0  0  0  0  0  0  0  0  0
    7.0920   -1.7660   29.3020 C   0  0  0  0  0  0  0  0  0  0  0  0
    6.7510   -1.1060   27.1970 C   0  0  0  0  0  0  0  0  0  0  0  0
    7.1870   -3.0240   23.6370 C   0  0  0  0  0  0  0  0  0  0  0  0
    7.6330   -3.3620   22.3880 C   0  0  0  0  0  0  0  0  0  0  0  0
  1  2  1  0
  2  3  2  0
  2  4  1  0
  4  5  1  0
  5  6  1  0
  6  7  1  0
  7  8  1  0
  8  9  2  0
  8 10  1  0
 10 11  1  0
 11 12  1  0
 12 13  1  0
 13 14  2  0
 14 15  1  0
 15 16  2  0
 16 17  1  0
 16 18  1  0
 13 19  1  0
 18 19  2  0
 10 20  1  0
 19 20  1  0
 20 21  1  1
 21 22  1  0
 21 23  1  0
  7 24  1  0
  4 25  1  0
 24 25  1  0
M  END
