piperidine-amides-15097-covalent
     RDKit          3D

 20 21  0  0  0  0  0  0  0  0999 V2000
    7.0730   -3.3820   19.3450 C   0  0  0  0  0  0  0  0  0  0  0  0
    6.3740   -4.2090   20.3200 C   0  0  0  0  0  0  0  0  0  0  0  0
    5.3400   -4.7970   19.9670 O   0  0  0  0  0  0  0  0  0  0  0  0
    6.9240   -4.3590   21.6130 N   0  0  0  0  0  0  0  0  0  0  0  0
    7.6260   -3.2290   22.1680 C   0  0  0  0  0  0  0  0  0  0  0  0
    7.4640   -3.1500   23.6630 C   0  0  0  0  0  0  0  0  0  0  0  0
    6.0630   -3.6040   24.0200 C   0  0  0  0  0  0  0  0  0  0  0  0
    5.7370   -3.1780   25.4120 C   0  0  0  0  0  0  0  0  0  0  0  0
    4.5930   -3.3730   25.8130 O   0  0  0  0  0  0  0  0  0  0  0  0
    6.7740   -2.5890   26.1090 N   0  0  0  0  0  0  0  0  0  0  0  0
    6.5820   -1.4550   26.9400 C   0  0  0  0  0  0  0  0  0  0  0  0
    5.9490   -0.2760   26.5500 C   0  0  0  0  0  0  0  0  0  0  0  0
    5.7930    0.8110   27.3770 C   0  0  0  0  0  0  0  0  0  0  0  0
    6.2440    0.8770   28.6930 C   0  0  0  0  0  0  0  0  0  0  0  0
    6.1300    1.9490   29.5980 N   0  0  0  0  0  0  0  0  0  0  0  0
    6.9200   -0.3940   29.1070 C   0  0  0  0  0  0  0  0  0  0  0  0
    7.4540   -0.4090   30.5510 C   0  0  0  0  0  0  0  0  0  0  0  0
    7.0600   -1.4660   28.2710 C   0  0  0  0  0  0  0  0  0  0  0  0
    5.9490   -5.0550   23.7660 C   0  0  0  0  0  0  0  0  0  0  0  0
    6.5080   -5.4900   22.4030 C   0  0  0  0  0  0  0  0  0  0  0  0
  1  2  1  0
  2  3  2  0
  2  4  1  0
  4  5  1  0
  5  6  1  0
  6  7  1  0
  7  8  1  0
  8  9  2  0
  8 10  1  0
 10 11  1  0
 11 12  2  0
 12 13  1  0
 13 14  2  0
 14 15  1  0
 14 16  1  0
 16 17  1  0
 11 18  1  0
 16 18  2  0
  7 19  1  0
  4 20  1  0
 19 20  1  0
M  END
