piperidine-amides-17112-covalent
     RDKit          3D

 20 21  0  0  0  0  0  0  0  0999 V2000
    7.1020   -3.3700   19.3010 C   0  0  0  0  0  0  0  0  0  0  0  0
    6.3980   -4.1740   20.3080 C   0  0  0  0  0  0  0  0  0  0  0  0
    5.3290   -4.7160   19.9500 O   0  0  0  0  0  0  0  0  0  0  0  0
    6.9500   -4.3720   21.5980 N   0  0  0  0  0  0  0  0  0  0  0  0
    6.5090   -5.4850   22.3620 C   0  0  0  0  0  0  0  0  0  0  0  0
    6.0290   -5.1390   23.7020 C   0  0  0  0  0  0  0  0  0  0  0  0
    6.7070   -4.0020   24.3720 C   0  0  0  0  0  0  0  0  0  0  0  0
    5.9340   -3.5830   25.5870 C   0  0  0  0  0  0  0  0  0  0  0  0
    4.8450   -2.9990   25.4330 O   0  0  0  0  0  0  0  0  0  0  0  0
    6.3920   -3.8430   26.8980 N   0  0  0  0  0  0  0  0  0  0  0  0
    6.1640   -3.0310   28.0410 C   0  0  0  0  0  0  0  0  0  0  0  0
    5.0260   -3.2500   28.9230 C   0  0  0  0  0  0  0  0  0  0  0  0
    4.9760   -4.7190   29.3420 C   0  0  0  0  0  0  0  0  0  0  0  0
    6.1770   -5.3530   29.1760 C   0  0  1  0  0  0  0  0  0  0  0  0
    6.4070   -6.3070   30.1500 O   0  0  0  0  0  0  0  0  0  0  0  0
    5.7380   -7.5050   29.9440 C   0  0  0  0  0  0  0  0  0  0  0  0
    6.1180   -5.9360   27.7620 C   0  0  0  0  0  0  0  0  0  0  0  0
    7.1470   -5.0470   27.1210 C   0  0  0  0  0  0  0  0  0  0  0  0
    6.9470   -2.8290   23.4520 C   0  0  0  0  0  0  0  0  0  0  0  0
    7.7150   -3.3310   22.2520 C   0  0  0  0  0  0  0  0  0  0  0  0
  1  2  1  0
  2  3  2  0
  2  4  1  0
  4  5  1  0
  5  6  1  0
  6  7  1  0
  7  8  1  0
  8  9  2  0
  8 10  1  0
 10 11  1  0
 11 12  1  0
 12 13  1  0
 13 14  1  0
 14 15  1  1
 15 16  1  0
 14 17  1  0
 10 18  1  0
 17 18  1  0
  7 19  1  0
  4 20  1  0
 19 20  1  0
M  END
