piperidine-amides-5599-covalent
     RDKit          3D

 17 17  0  0  0  0  0  0  0  0999 V2000
    7.1120   -3.3160   19.3050 C   0  0  0  0  0  0  0  0  0  0  0  0
    6.3230   -4.0480   20.2960 C   0  0  0  0  0  0  0  0  0  0  0  0
    5.2870   -4.6270   19.9190 O   0  0  0  0  0  0  0  0  0  0  0  0
    6.7380   -4.1570   21.6370 N   0  0  0  0  0  0  0  0  0  0  0  0
    7.6660   -3.1890   22.2170 C   0  0  0  0  0  0  0  0  0  0  0  0
    7.2290   -2.8730   23.6280 C   0  0  0  0  0  0  0  0  0  0  0  0
    6.0260   -3.6700   24.0220 C   0  0  0  0  0  0  0  0  0  0  0  0
    5.5140   -3.3470   25.3800 C   0  0  0  0  0  0  0  0  0  0  0  0
    4.3370   -2.8990   25.4910 O   0  0  0  0  0  0  0  0  0  0  0  0
    6.2330   -3.4910   26.5890 N   0  0  0  0  0  0  0  0  0  0  0  0
    6.5090   -2.2530   27.3700 C   0  0  0  0  0  0  0  0  0  0  0  0
    6.1470   -4.7890   27.3340 C   0  0  1  0  0  0  0  0  0  0  0  0
    6.7710   -4.7150   28.6640 C   0  0  0  0  0  0  0  0  0  0  0  0
    4.7600   -5.2770   27.5740 C   0  0  0  0  0  0  0  0  0  0  0  0
    3.9630   -4.8240   28.6720 N   0  0  0  0  0  0  0  0  0  0  0  0
    6.1040   -5.1220   23.7350 C   0  0  0  0  0  0  0  0  0  0  0  0
    6.5780   -5.3910   22.3600 C   0  0  0  0  0  0  0  0  0  0  0  0
  1  2  1  0
  2  3  2  0
  2  4  1  0
  4  5  1  0
  5  6  1  0
  6  7  1  0
  7  8  1  0
  8  9  2  0
  8 10  1  0
 10 11  1  0
 10 12  1  0
 12 13  1  1
 12 14  1  0
 14 15  1  0
  7 16  1  0
  4 17  1  0
 16 17  1  0
M  END
