piperidine-amides-29173-covalent
     RDKit          3D

 22 23  0  0  0  0  0  0  0  0999 V2000
    7.0720   -3.3160   19.2970 C   0  0  0  0  0  0  0  0  0  0  0  0
    6.3990   -4.1400   20.3020 C   0  0  0  0  0  0  0  0  0  0  0  0
    5.3720   -4.7570   19.9590 O   0  0  0  0  0  0  0  0  0  0  0  0
    6.9380   -4.2620   21.6100 N   0  0  0  0  0  0  0  0  0  0  0  0
    7.6690   -3.1670   22.1790 C   0  0  0  0  0  0  0  0  0  0  0  0
    6.9150   -2.6680   23.3650 C   0  0  0  0  0  0  0  0  0  0  0  0
    6.6370   -3.8850   24.2190 C   0  0  0  0  0  0  0  0  0  0  0  0
    5.8130   -3.4770   25.4040 C   0  0  0  0  0  0  0  0  0  0  0  0
    4.6350   -3.2050   25.1770 O   0  0  0  0  0  0  0  0  0  0  0  0
    6.4160   -3.4250   26.6570 N   0  0  0  0  0  0  0  0  0  0  0  0
    6.5410   -2.1640   27.3230 C   0  0  0  0  0  0  0  0  0  0  0  0
    6.6990   -4.6340   27.3890 C   0  0  0  0  0  0  0  0  0  0  0  0
    5.8540   -5.6850   27.1840 C   0  0  0  0  0  0  0  0  0  0  0  0
    5.2050   -6.3060   28.2340 C   0  0  0  0  0  0  0  0  0  0  0  0
    3.9000   -6.8050   27.7840 C   0  0  0  0  0  0  0  0  0  0  0  0
    2.9370   -7.5470   28.7210 C   0  0  0  0  0  0  0  0  0  0  0  0
    3.3840   -7.7470   30.1410 C   0  0  0  0  0  0  0  0  0  0  0  0
    4.7440   -7.2180   30.5840 C   0  0  0  0  0  0  0  0  0  0  0  0
    5.2610   -7.5030   32.4180 Br  0  0  0  0  0  0  0  0  0  0  0  0
    5.6280   -6.4820   29.5340 C   0  0  0  0  0  0  0  0  0  0  0  0
    5.7840   -4.8580   23.4220 C   0  0  0  0  0  0  0  0  0  0  0  0
    6.6150   -5.3880   22.4520 C   0  0  0  0  0  0  0  0  0  0  0  0
  1  2  1  0
  2  3  2  0
  2  4  1  0
  4  5  1  0
  5  6  1  0
  6  7  1  0
  7  8  1  0
  8  9  2  0
  8 10  1  0
 10 11  1  0
 10 12  1  0
 12 13  1  0
 13 14  1  0
 14 15  2  0
 15 16  1  0
 16 17  2  0
 17 18  1  0
 18 19  1  0
 14 20  1  0
 18 20  2  0
  7 21  1  0
  4 22  1  0
 21 22  1  0
M  END
