piperidine-amides-27667-covalent
     RDKit          3D

 21 22  0  0  0  0  0  0  0  0999 V2000
    7.0550   -3.3470   19.3170 C   0  0  0  0  0  0  0  0  0  0  0  0
    6.3930   -4.1810   20.3220 C   0  0  0  0  0  0  0  0  0  0  0  0
    5.3390   -4.7680   19.9580 O   0  0  0  0  0  0  0  0  0  0  0  0
    6.9490   -4.3440   21.5970 N   0  0  0  0  0  0  0  0  0  0  0  0
    6.6310   -5.4900   22.4170 C   0  0  0  0  0  0  0  0  0  0  0  0
    5.9390   -5.0020   23.6640 C   0  0  0  0  0  0  0  0  0  0  0  0
    6.6790   -3.8690   24.3310 C   0  0  0  0  0  0  0  0  0  0  0  0
    5.8930   -3.3080   25.4490 C   0  0  0  0  0  0  0  0  0  0  0  0
    4.6910   -3.0230   25.2410 O   0  0  0  0  0  0  0  0  0  0  0  0
    6.4280   -3.0860   26.7310 N   0  0  0  0  0  0  0  0  0  0  0  0
    6.6230   -4.2350   27.5950 C   0  0  0  0  0  0  0  0  0  0  0  0
    6.3950   -1.7320   27.2730 C   0  0  0  0  0  0  0  0  0  0  0  0
    6.9830   -1.6190   28.5120 C   0  0  0  0  0  0  0  0  0  0  0  0
    7.0390   -0.4240   29.1900 C   0  0  0  0  0  0  0  0  0  0  0  0
    6.4870    0.7160   28.6170 C   0  0  0  0  0  0  0  0  0  0  0  0
    6.5290    2.3940   29.5140 Br  0  0  0  0  0  0  0  0  0  0  0  0
    5.9030    0.5970   27.3670 C   0  0  0  0  0  0  0  0  0  0  0  0
    5.8500   -0.6040   26.6930 C   0  0  0  0  0  0  0  0  0  0  0  0
    5.2890   -0.7600   25.4890 F   0  0  0  0  0  0  0  0  0  0  0  0
    6.9150   -2.7310   23.3380 C   0  0  0  0  0  0  0  0  0  0  0  0
    7.7230   -3.2750   22.1760 C   0  0  0  0  0  0  0  0  0  0  0  0
  1  2  1  0
  2  3  2  0
  2  4  1  0
  4  5  1  0
  5  6  1  0
  6  7  1  0
  7  8  1  0
  8  9  2  0
  8 10  1  0
 10 11  1  0
 10 12  1  0
 12 13  2  0
 13 14  1  0
 14 15  2  0
 15 16  1  0
 15 17  1  0
 12 18  1  0
 17 18  2  0
 18 19  1  0
  7 20  1  0
  4 21  1  0
 20 21  1  0
M  END
