piperidine-amides-6673-covalent
     RDKit          3D

 24 25  0  0  0  0  0  0  0  0999 V2000
    7.1300   -3.3050   19.2990 C   0  0  0  0  0  0  0  0  0  0  0  0
    6.3660   -4.0820   20.2800 C   0  0  0  0  0  0  0  0  0  0  0  0
    5.3330   -4.6950   19.9410 O   0  0  0  0  0  0  0  0  0  0  0  0
    6.8260   -4.1740   21.5980 N   0  0  0  0  0  0  0  0  0  0  0  0
    7.6520   -3.1020   22.1150 C   0  0  0  0  0  0  0  0  0  0  0  0
    7.4540   -3.0620   23.6350 C   0  0  0  0  0  0  0  0  0  0  0  0
    6.0620   -3.5940   23.8820 C   0  0  0  0  0  0  0  0  0  0  0  0
    5.6200   -3.3280   25.2690 C   0  0  0  0  0  0  0  0  0  0  0  0
    4.3960   -3.2250   25.4790 O   0  0  0  0  0  0  0  0  0  0  0  0
    6.5710   -3.1910   26.3030 N   0  0  0  0  0  0  0  0  0  0  0  0
    6.1690   -3.2350   27.6860 C   0  0  0  0  0  0  0  0  0  0  0  0
    6.4340   -4.6060   28.2870 C   0  0  0  0  0  0  0  0  0  0  0  0
    5.3620   -4.9700   29.2110 N   0  0  0  0  0  0  0  0  0  0  0  0
    4.1650   -4.1760   29.4720 C   0  0  0  0  0  0  0  0  0  0  0  0
    3.0760   -4.7990   29.2940 O   0  0  0  0  0  0  0  0  0  0  0  0
    4.3910   -2.8830   29.8770 C   0  0  0  0  0  0  0  0  0  0  0  0
    3.8430   -2.3640   31.0500 C   0  0  0  0  0  0  0  0  0  0  0  0
    3.8670   -1.0700   31.3300 C   0  0  0  0  0  0  0  0  0  0  0  0
    3.3570   -0.2890   32.4980 C   0  0  0  0  0  0  0  0  0  0  0  0
    2.7850   -1.5100   33.2810 C   0  0  0  0  0  0  0  0  0  0  0  0
    2.6490   -3.0460   33.1550 C   0  0  0  0  0  0  0  0  0  0  0  0
    3.2950   -3.2820   31.8640 C   0  0  0  0  0  0  0  0  0  0  0  0
    6.0680   -5.0680   23.6180 C   0  0  0  0  0  0  0  0  0  0  0  0
    6.5130   -5.3410   22.3560 C   0  0  0  0  0  0  0  0  0  0  0  0
  1  2  1  0
  2  3  2  0
  2  4  1  0
  4  5  1  0
  5  6  1  0
  6  7  1  0
  7  8  1  0
  8  9  2  0
  8 10  1  0
 10 11  1  0
 11 12  1  0
 12 13  1  0
 13 14  1  0
 14 15  2  0
 14 16  1  0
 16 17  1  0
 17 18  2  0
 18 19  1  0
 19 20  2  0
 20 21  1  0
 17 22  1  0
 21 22  2  0
  7 23  1  0
  4 24  1  0
 23 24  1  0
M  END
