piperidine-amides-5236-covalent
     RDKit          3D

 21 22  0  0  0  0  0  0  0  0999 V2000
    7.0890   -3.3510   19.2450 C   0  0  0  0  0  0  0  0  0  0  0  0
    6.3680   -4.1250   20.2750 C   0  0  0  0  0  0  0  0  0  0  0  0
    5.2950   -4.6480   19.9200 O   0  0  0  0  0  0  0  0  0  0  0  0
    6.9120   -4.3060   21.5490 N   0  0  0  0  0  0  0  0  0  0  0  0
    6.4850   -5.3910   22.3610 C   0  0  0  0  0  0  0  0  0  0  0  0
    5.9700   -4.9880   23.6750 C   0  0  0  0  0  0  0  0  0  0  0  0
    6.5450   -3.7400   24.2450 C   0  0  0  0  0  0  0  0  0  0  0  0
    5.6820   -3.2450   25.3460 C   0  0  0  0  0  0  0  0  0  0  0  0
    4.4620   -3.1350   25.1260 O   0  0  0  0  0  0  0  0  0  0  0  0
    6.2000   -2.9060   26.6120 N   0  0  0  0  0  0  0  0  0  0  0  0
    6.7320   -1.5530   26.9130 C   0  0  1  0  0  0  0  0  0  0  0  0
    5.8440   -0.4320   26.5290 C   0  0  0  0  0  0  0  0  0  0  0  0
    5.6970    0.5610   27.5920 C   0  0  0  0  0  0  0  0  0  0  0  0
    6.2740   -0.0880   28.7620 N   0  0  0  0  0  0  0  0  0  0  0  0
    5.7060   -0.1270   30.0590 C   0  0  0  0  0  0  0  0  0  0  0  0
    5.8450   -1.1860   30.6900 O   0  0  0  0  0  0  0  0  0  0  0  0
    5.0400    0.9880   30.5270 C   0  0  0  0  0  0  0  0  0  0  0  0
    5.8740    2.0610   30.5870 C   0  0  0  0  0  0  0  0  0  0  0  0
    6.9640   -1.2700   28.3390 C   0  0  0  0  0  0  0  0  0  0  0  0
    6.9020   -2.6950   23.2610 C   0  0  0  0  0  0  0  0  0  0  0  0
    7.6100   -3.2220   22.1910 C   0  0  0  0  0  0  0  0  0  0  0  0
  1  2  1  0
  2  3  2  0
  2  4  1  0
  4  5  1  0
  5  6  1  0
  6  7  1  0
  7  8  1  0
  8  9  2  0
  8 10  1  0
 11 10  1  1
 11 12  1  0
 12 13  1  0
 13 14  1  0
 14 15  1  0
 15 16  2  0
 15 17  1  0
 17 18  1  0
 11 19  1  0
 14 19  1  0
  7 20  1  0
  4 21  1  0
 20 21  1  0
M  END
