piperidine-amides-15229-covalent
     RDKit          3D

 20 21  0  0  0  0  0  0  0  0999 V2000
    7.1170   -3.2350   19.1820 C   0  0  0  0  0  0  0  0  0  0  0  0
    6.3440   -4.0030   20.1720 C   0  0  0  0  0  0  0  0  0  0  0  0
    5.2570   -4.5320   19.8660 O   0  0  0  0  0  0  0  0  0  0  0  0
    6.8440   -4.1990   21.4600 N   0  0  0  0  0  0  0  0  0  0  0  0
    7.6840   -3.1870   22.0620 C   0  0  0  0  0  0  0  0  0  0  0  0
    6.9250   -2.6450   23.2680 C   0  0  0  0  0  0  0  0  0  0  0  0
    6.6920   -3.8450   24.1450 C   0  0  0  0  0  0  0  0  0  0  0  0
    6.0690   -3.3690   25.3880 C   0  0  0  0  0  0  0  0  0  0  0  0
    4.8150   -3.2010   25.4650 O   0  0  0  0  0  0  0  0  0  0  0  0
    6.9500   -3.1070   26.4710 N   0  0  0  0  0  0  0  0  0  0  0  0
    7.1920   -4.1050   27.4710 C   0  0  2  0  0  0  0  0  0  0  0  0
    8.2380   -5.0870   26.9560 C   0  0  0  0  0  0  0  0  0  0  0  0
    5.8700   -4.7200   27.8060 C   0  0  0  0  0  0  0  0  0  0  0  0
    5.6110   -5.0430   29.0820 C   0  0  0  0  0  0  0  0  0  0  0  0
    5.1760   -6.3270   29.2870 C   0  0  0  0  0  0  0  0  0  0  0  0
    5.0960   -7.0390   28.1240 C   0  0  0  0  0  0  0  0  0  0  0  0
    4.3150   -6.4890   26.9360 C   0  0  0  0  0  0  0  0  0  0  0  0
    5.6910   -5.8270   27.0180 C   0  0  0  0  0  0  0  0  0  0  0  0
    5.8690   -4.8940   23.5180 C   0  0  0  0  0  0  0  0  0  0  0  0
    6.3950   -5.3110   22.2220 C   0  0  0  0  0  0  0  0  0  0  0  0
  1  2  1  0
  2  3  2  0
  2  4  1  0
  4  5  1  0
  5  6  1  0
  6  7  1  0
  7  8  1  0
  8  9  2  0
  8 10  1  0
 10 11  1  0
 11 12  1  6
 11 13  1  0
 13 14  1  0
 14 15  1  0
 15 16  1  0
 16 17  1  0
 13 18  1  0
 17 18  1  0
  7 19  1  0
  4 20  1  0
 19 20  1  0
M  END
