piperidine-amides-31605-covalent
     RDKit          3D

 28 31  0  0  0  0  0  0  0  0999 V2000
    7.1060   -3.3760   19.4700 C   0  0  0  0  0  0  0  0  0  0  0  0
    6.4520   -4.2510   20.4150 C   0  0  0  0  0  0  0  0  0  0  0  0
    5.4530   -4.9340   20.0080 O   0  0  0  0  0  0  0  0  0  0  0  0
    6.9220   -4.3830   21.7410 N   0  0  0  0  0  0  0  0  0  0  0  0
    6.7280   -5.6600   22.4570 C   0  0  0  0  0  0  0  0  0  0  0  0
    5.7740   -5.2230   23.6450 C   0  0  0  0  0  0  0  0  0  0  0  0
    6.3460   -3.9890   24.3380 C   0  0  0  0  0  0  0  0  0  0  0  0
    5.2160   -3.3880   25.2990 C   0  0  0  0  0  0  0  0  0  0  0  0
    4.3560   -2.9030   24.5840 O   0  0  0  0  0  0  0  0  0  0  0  0
    5.3900   -3.5100   26.5700 N   0  0  0  0  0  0  0  0  0  0  0  0
    5.0750   -3.3690   27.8740 C   0  0  0  0  0  0  0  0  0  0  0  0
    5.3460   -4.0890   28.9840 C   0  0  0  0  0  0  0  0  0  0  0  0
    5.7110   -5.3830   28.4440 N   0  0  0  0  0  0  0  0  0  0  0  0
    6.1930   -6.3600   29.2100 C   0  0  0  0  0  0  0  0  0  0  0  0
    4.9650   -6.9130   29.8190 C   0  0  0  0  0  0  0  0  0  0  0  0
    5.1440   -7.1490   31.2700 C   0  0  0  0  0  0  0  0  0  0  0  0
    3.8810   -7.6850   31.7250 C   0  0  0  0  0  0  0  0  0  0  0  0
    2.5620   -8.0260   31.1320 C   0  0  0  0  0  0  0  0  0  0  0  0
    2.7160   -7.6600   29.6160 C   0  0  0  0  0  0  0  0  0  0  0  0
    3.9310   -7.0850   28.8900 C   0  0  0  0  0  0  0  0  0  0  0  0
    1.7160   -7.8650   28.9040 O   0  0  0  0  0  0  0  0  0  0  0  0
    0.7750   -8.8070   29.3630 C   0  0  0  0  0  0  0  0  0  0  0  0
    0.5760   -9.0230   30.7060 C   0  0  0  0  0  0  0  0  0  0  0  0
    1.3550   -8.5410   31.5610 O   0  0  0  0  0  0  0  0  0  0  0  0
    6.6230   -5.2950   27.3530 C   0  0  0  0  0  0  0  0  0  0  0  0
    6.7040   -4.0010   26.8430 C   0  0  0  0  0  0  0  0  0  0  0  0
    6.8620   -2.8720   23.4830 C   0  0  0  0  0  0  0  0  0  0  0  0
    7.7010   -3.3380   22.3470 C   0  0  0  0  0  0  0  0  0  0  0  0
  1  2  1  0
  2  3  2  0
  2  4  1  0
  4  5  1  0
  5  6  1  0
  6  7  1  0
  7  8  1  0
  8  9  2  0
  8 10  1  0
 10 11  1  0
 11 12  1  0
 12 13  1  0
 13 14  1  0
 14 15  1  0
 15 16  2  0
 16 17  1  0
 17 18  2  0
 18 19  1  0
 15 20  1  0
 19 20  2  0
 19 21  1  0
 21 22  1  0
 22 23  1  0
 18 24  1  0
 23 24  1  0
 13 25  1  0
 10 26  1  0
 25 26  1  0
  7 27  1  0
  4 28  1  0
 27 28  1  0
M  END
