piperidine-amides-4559-covalent
     RDKit          3D

 25 27  0  0  0  0  0  0  0  0999 V2000
    7.0830   -3.3160   19.2250 C   0  0  0  0  0  0  0  0  0  0  0  0
    6.3820   -4.1050   20.2620 C   0  0  0  0  0  0  0  0  0  0  0  0
    5.3180   -4.6570   19.9210 O   0  0  0  0  0  0  0  0  0  0  0  0
    6.9340   -4.2580   21.5350 N   0  0  0  0  0  0  0  0  0  0  0  0
    6.5410   -5.3650   22.3410 C   0  0  0  0  0  0  0  0  0  0  0  0
    5.9940   -4.9870   23.6500 C   0  0  0  0  0  0  0  0  0  0  0  0
    6.5760   -3.7550   24.2290 C   0  0  0  0  0  0  0  0  0  0  0  0
    5.7580   -3.2570   25.3560 C   0  0  0  0  0  0  0  0  0  0  0  0
    4.5450   -3.0430   25.1620 O   0  0  0  0  0  0  0  0  0  0  0  0
    6.3330   -3.0340   26.6170 N   0  0  0  0  0  0  0  0  0  0  0  0
    6.3770   -1.7090   27.2720 C   0  0  0  0  0  0  0  0  0  0  0  0
    7.0100   -1.5570   28.5900 C   0  0  0  0  0  0  0  0  0  0  0  0
    7.0760   -0.2920   29.2810 C   0  0  0  0  0  0  0  0  0  0  0  0
    6.5280    0.8360   28.6950 C   0  0  0  0  0  0  0  0  0  0  0  0
    6.5740    2.0610   29.3260 C   0  0  0  0  0  0  0  0  0  0  0  0
    6.5750    3.2030   28.5720 C   0  0  0  0  0  0  0  0  0  0  0  0
    6.6210    4.4400   29.1590 C   0  0  0  0  0  0  0  0  0  0  0  0
    6.6690    4.6340   30.5120 C   0  0  0  0  0  0  0  0  0  0  0  0
    6.6700    3.5090   31.3270 C   0  0  0  0  0  0  0  0  0  0  0  0
    6.6210    2.1850   30.6880 C   0  0  0  0  0  0  0  0  0  0  0  0
    5.9260    0.7250   27.4500 C   0  0  0  0  0  0  0  0  0  0  0  0
    5.7720   -0.5100   26.5990 C   0  0  0  0  0  0  0  0  0  0  0  0
    5.1750   -0.5770   25.3920 F   0  0  0  0  0  0  0  0  0  0  0  0
    6.8990   -2.6880   23.2890 C   0  0  0  0  0  0  0  0  0  0  0  0
    7.7190   -3.2030   22.1470 C   0  0  0  0  0  0  0  0  0  0  0  0
  1  2  1  0
  2  3  2  0
  2  4  1  0
  4  5  1  0
  5  6  1  0
  6  7  1  0
  7  8  1  0
  8  9  2  0
  8 10  1  0
 10 11  1  0
 11 12  2  0
 12 13  1  0
 13 14  2  0
 14 15  1  0
 15 16  2  0
 16 17  1  0
 17 18  2  0
 18 19  1  0
 15 20  1  0
 19 20  2  0
 14 21  1  0
 11 22  1  0
 21 22  2  0
 22 23  1  0
  7 24  1  0
  4 25  1  0
 24 25  1  0
M  END
