piperidine-amides-30214-covalent
     RDKit          3D

 27 28  0  0  0  0  0  0  0  0999 V2000
    7.1350   -3.2720   19.2160 C   0  0  0  0  0  0  0  0  0  0  0  0
    6.3740   -4.0330   20.2020 C   0  0  0  0  0  0  0  0  0  0  0  0
    5.3090   -4.5640   19.8930 O   0  0  0  0  0  0  0  0  0  0  0  0
    6.9090   -4.2060   21.5190 N   0  0  0  0  0  0  0  0  0  0  0  0
    6.5710   -5.3640   22.2980 C   0  0  0  0  0  0  0  0  0  0  0  0
    5.8560   -4.9480   23.5550 C   0  0  0  0  0  0  0  0  0  0  0  0
    6.6490   -3.8360   24.2330 C   0  0  0  0  0  0  0  0  0  0  0  0
    5.8670   -3.2880   25.3660 C   0  0  0  0  0  0  0  0  0  0  0  0
    4.7160   -2.8330   25.2220 O   0  0  0  0  0  0  0  0  0  0  0  0
    6.4560   -3.2950   26.6410 N   0  0  0  0  0  0  0  0  0  0  0  0
    6.5600   -2.0350   27.3450 C   0  0  0  0  0  0  0  0  0  0  0  0
    6.6780   -4.5790   27.2660 C   0  0  0  0  0  0  0  0  0  0  0  0
    5.6930   -5.5300   27.1310 C   0  0  0  0  0  0  0  0  0  0  0  0
    5.4530   -6.2690   28.3320 N   0  0  0  0  0  0  0  0  0  0  0  0
    6.6060   -6.3870   29.1550 C   0  0  0  0  0  0  0  0  0  0  0  0
    4.1600   -6.0290   28.8200 C   0  0  0  0  0  0  0  0  0  0  0  0
    3.9180   -6.0170   30.0400 O   0  0  0  0  0  0  0  0  0  0  0  0
    3.1060   -5.7950   27.9660 O   0  0  0  0  0  0  0  0  0  0  0  0
    1.8320   -5.9210   28.3960 C   0  0  0  0  0  0  0  0  0  0  0  0
    1.0180   -5.0510   27.7080 C   0  0  0  0  0  0  0  0  0  0  0  0
   -0.2940   -4.7410   28.0650 C   0  0  0  0  0  0  0  0  0  0  0  0
   -1.0680   -3.8420   27.3160 C   0  0  0  0  0  0  0  0  0  0  0  0
   -0.4450   -3.2380   26.1410 C   0  0  0  0  0  0  0  0  0  0  0  0
    0.8400   -3.5370   25.7860 C   0  0  0  0  0  0  0  0  0  0  0  0
    1.5420   -4.4310   26.5700 C   0  0  0  0  0  0  0  0  0  0  0  0
    6.8930   -2.6770   23.2970 C   0  0  0  0  0  0  0  0  0  0  0  0
    7.7170   -3.1850   22.1230 C   0  0  0  0  0  0  0  0  0  0  0  0
  1  2  1  0
  2  3  2  0
  2  4  1  0
  4  5  1  0
  5  6  1  0
  6  7  1  0
  7  8  1  0
  8  9  2  0
  8 10  1  0
 10 11  1  0
 10 12  1  0
 12 13  1  0
 13 14  1  0
 14 15  1  0
 14 16  1  0
 16 17  2  0
 16 18  1  0
 18 19  1  0
 19 20  1  0
 20 21  2  0
 21 22  1  0
 22 23  2  0
 23 24  1  0
 20 25  1  0
 24 25  2  0
  7 26  1  0
  4 27  1  0
 26 27  1  0
M  END
