piperidine-amides-29791-covalent
     RDKit          3D

 27 29  0  0  0  0  0  0  0  0999 V2000
    7.0580   -3.2940   19.2250 C   0  0  0  0  0  0  0  0  0  0  0  0
    6.3000   -4.0670   20.2100 C   0  0  0  0  0  0  0  0  0  0  0  0
    5.2450   -4.5980   19.8870 O   0  0  0  0  0  0  0  0  0  0  0  0
    6.7960   -4.2650   21.5390 N   0  0  0  0  0  0  0  0  0  0  0  0
    7.5690   -3.2430   22.1890 C   0  0  0  0  0  0  0  0  0  0  0  0
    7.2790   -3.2480   23.6590 C   0  0  0  0  0  0  0  0  0  0  0  0
    5.8760   -3.7460   23.8750 C   0  0  0  0  0  0  0  0  0  0  0  0
    5.4120   -3.4740   25.2640 C   0  0  0  0  0  0  0  0  0  0  0  0
    4.2010   -3.3660   25.5300 O   0  0  0  0  0  0  0  0  0  0  0  0
    6.3450   -3.3300   26.3180 N   0  0  0  0  0  0  0  0  0  0  0  0
    6.8300   -4.5350   26.9820 C   0  0  0  0  0  0  0  0  0  0  0  0
    5.7250   -5.5390   27.0970 C   0  0  0  0  0  0  0  0  0  0  0  0
    6.3080   -2.1050   27.0900 C   0  0  0  0  0  0  0  0  0  0  0  0
    6.2640   -2.0530   28.4980 C   0  0  2  0  0  0  0  0  0  0  0  0
    5.0030   -2.0810   29.0630 C   0  0  0  0  0  0  0  0  0  0  0  0
    4.8230   -1.0090   30.0170 C   0  0  0  0  0  0  0  0  0  0  0  0
    6.0190   -0.4440   29.8840 N   0  0  0  0  0  0  0  0  0  0  0  0
    6.6710    0.5750   30.6800 C   0  0  0  0  0  0  0  0  0  0  0  0
    6.7440    0.2810   32.0300 C   0  0  0  0  0  0  0  0  0  0  0  0
    5.6080    0.0550   32.8210 C   0  0  0  0  0  0  0  0  0  0  0  0
    5.7080   -0.2610   34.2540 C   0  0  0  0  0  0  0  0  0  0  0  0
    6.9070   -0.3590   34.9270 C   0  0  0  0  0  0  0  0  0  0  0  0
    8.0210   -0.1340   34.1490 C   0  0  0  0  0  0  0  0  0  0  0  0
    7.9320    0.1890   32.6930 C   0  0  0  0  0  0  0  0  0  0  0  0
    6.9420   -0.9580   29.0480 C   0  0  0  0  0  0  0  0  0  0  0  0
    5.7830   -5.1820   23.4820 C   0  0  0  0  0  0  0  0  0  0  0  0
    6.5260   -5.5060   22.2270 C   0  0  0  0  0  0  0  0  0  0  0  0
  1  2  1  0
  2  3  2  0
  2  4  1  0
  4  5  1  0
  5  6  1  0
  6  7  1  0
  7  8  1  0
  8  9  2  0
  8 10  1  0
 10 11  1  0
 11 12  1  0
 10 13  1  0
 14 13  1  6
 14 15  1  0
 15 16  1  0
 16 17  1  0
 17 18  1  0
 18 19  1  0
 19 20  2  0
 20 21  1  0
 21 22  2  0
 22 23  1  0
 19 24  1  0
 23 24  2  0
 14 25  1  0
 17 25  1  0
  7 26  1  0
  4 27  1  0
 26 27  1  0
M  END
