piperidine-amides-19841-covalent
     RDKit          3D

 22 24  0  0  0  0  0  0  0  0999 V2000
    7.0700   -3.2810   19.2510 C   0  0  0  0  0  0  0  0  0  0  0  0
    6.3450   -4.0680   20.2830 C   0  0  0  0  0  0  0  0  0  0  0  0
    5.3100   -4.6240   19.9170 O   0  0  0  0  0  0  0  0  0  0  0  0
    6.8500   -4.2030   21.5860 N   0  0  0  0  0  0  0  0  0  0  0  0
    6.6600   -5.4110   22.3480 C   0  0  0  0  0  0  0  0  0  0  0  0
    6.0980   -5.0970   23.7140 C   0  0  0  0  0  0  0  0  0  0  0  0
    6.0870   -3.5830   23.9520 C   0  0  0  0  0  0  0  0  0  0  0  0
    5.5660   -3.3530   25.3190 C   0  0  0  0  0  0  0  0  0  0  0  0
    4.3830   -3.6320   25.5430 O   0  0  0  0  0  0  0  0  0  0  0  0
    6.3270   -2.8130   26.3800 N   0  0  0  0  0  0  0  0  0  0  0  0
    5.9690   -3.3050   27.7160 C   0  0  0  0  0  0  0  0  0  0  0  0
    5.8080   -1.9480   28.2130 C   0  0  0  0  0  0  0  0  0  0  0  0
    6.4850   -1.3630   29.2510 C   0  0  0  0  0  0  0  0  0  0  0  0
    7.8680   -1.1900   29.4480 N   0  0  0  0  0  0  0  0  0  0  0  0
    8.0770   -0.5680   30.5910 N   0  0  0  0  0  0  0  0  0  0  0  0
    6.8880   -0.1610   31.0640 C   0  0  0  0  0  0  0  0  0  0  0  0
    6.6460    0.7330   32.0880 O   0  0  0  0  0  0  0  0  0  0  0  0
    5.9340   -0.7990   30.3530 N   0  0  0  0  0  0  0  0  0  0  0  0
    4.7700   -1.1580   30.9220 C   0  0  0  0  0  0  0  0  0  0  0  0
    6.3800   -1.4280   26.9550 C   0  0  0  0  0  0  0  0  0  0  0  0
    7.3940   -2.9610   23.6100 C   0  0  0  0  0  0  0  0  0  0  0  0
    7.7010   -3.1640   22.1570 C   0  0  0  0  0  0  0  0  0  0  0  0
  1  2  1  0
  2  3  2  0
  2  4  1  0
  4  5  1  0
  5  6  1  0
  6  7  1  0
  7  8  1  0
  8  9  2  0
  8 10  1  0
 10 11  1  0
 11 12  1  0
 12 13  1  0
 13 14  2  0
 14 15  1  0
 15 16  1  0
 16 17  2  0
 13 18  1  0
 16 18  1  0
 18 19  1  0
 10 20  1  0
 12 20  1  0
  7 21  1  0
  4 22  1  0
 21 22  1  0
M  END
