piperidine-amides-27006-covalent
     RDKit          3D

 25 27  0  0  0  0  0  0  0  0999 V2000
    7.1260   -3.3040   19.2360 C   0  0  0  0  0  0  0  0  0  0  0  0
    6.3710   -4.0810   20.2140 C   0  0  0  0  0  0  0  0  0  0  0  0
    5.2470   -4.5070   19.8580 O   0  0  0  0  0  0  0  0  0  0  0  0
    6.9300   -4.3870   21.4490 N   0  0  0  0  0  0  0  0  0  0  0  0
    6.5770   -5.6080   22.1120 C   0  0  0  0  0  0  0  0  0  0  0  0
    5.7060   -5.2100   23.2510 C   0  0  0  0  0  0  0  0  0  0  0  0
    6.4870   -4.3630   24.2000 C   0  0  0  0  0  0  0  0  0  0  0  0
    5.5680   -3.9220   25.2630 C   0  0  0  0  0  0  0  0  0  0  0  0
    4.3720   -3.7750   24.9450 O   0  0  0  0  0  0  0  0  0  0  0  0
    5.9030   -3.6250   26.5860 N   0  0  0  0  0  0  0  0  0  0  0  0
    4.7450   -3.3530   27.4340 C   0  0  0  0  0  0  0  0  0  0  0  0
    4.8910   -3.6890   28.9140 C   0  0  0  0  0  0  0  0  0  0  0  0
    5.8610   -2.7250   29.3990 N   0  0  0  0  0  0  0  0  0  0  0  0
    5.5420   -1.4280   29.6140 C   0  0  2  0  0  0  0  0  0  0  0  0
    4.7820   -0.7490   28.6770 C   0  0  0  0  0  0  0  0  0  0  0  0
    4.7090    0.6210   28.9110 C   0  0  0  0  0  0  0  0  0  0  0  0
    5.7260    1.4590   28.4770 C   0  0  0  0  0  0  0  0  0  0  0  0
    7.0110    1.2510   28.9320 C   0  0  0  0  0  0  0  0  0  0  0  0
    7.5470   -0.1620   28.9500 C   0  0  0  0  0  0  0  0  0  0  0  0
    6.6700   -0.7760   30.0500 C   0  0  1  0  0  0  0  0  0  0  0  0
    6.3140   -0.0590   31.0140 O   0  0  0  0  0  0  0  0  0  0  0  0
    6.9630   -2.8210   28.5230 C   0  0  0  0  0  0  0  0  0  0  0  0
    6.5230   -2.4460   27.1250 C   0  0  0  0  0  0  0  0  0  0  0  0
    7.1380   -3.1670   23.5840 C   0  0  0  0  0  0  0  0  0  0  0  0
    7.6430   -3.3690   22.1730 C   0  0  0  0  0  0  0  0  0  0  0  0
  1  2  1  0
  2  3  2  0
  2  4  1  0
  4  5  1  0
  5  6  1  0
  6  7  1  0
  7  8  1  0
  8  9  2  0
  8 10  1  0
 10 11  1  0
 11 12  1  0
 12 13  1  0
 14 13  1  6
 14 15  1  0
 15 16  1  0
 16 17  1  0
 17 18  1  0
 18 19  1  0
 14 20  1  0
 19 20  1  0
 20 21  1  1
 13 22  1  0
 10 23  1  0
 22 23  1  0
  7 24  1  0
  4 25  1  0
 24 25  1  0
M  END
