piperidine-amides-33696-covalent
     RDKit          3D

 24 25  0  0  0  0  0  0  0  0999 V2000
    7.1260   -3.2710   19.1900 C   0  0  0  0  0  0  0  0  0  0  0  0
    6.3900   -4.0350   20.2110 C   0  0  0  0  0  0  0  0  0  0  0  0
    5.2950   -4.5420   19.8770 O   0  0  0  0  0  0  0  0  0  0  0  0
    6.9380   -4.2320   21.4970 N   0  0  0  0  0  0  0  0  0  0  0  0
    6.4750   -5.3250   22.2770 C   0  0  0  0  0  0  0  0  0  0  0  0
    6.0890   -4.9590   23.6350 C   0  0  0  0  0  0  0  0  0  0  0  0
    6.6260   -3.6730   24.1410 C   0  0  0  0  0  0  0  0  0  0  0  0
    5.7920   -3.1700   25.2780 C   0  0  0  0  0  0  0  0  0  0  0  0
    4.5580   -3.0640   25.1410 O   0  0  0  0  0  0  0  0  0  0  0  0
    6.3610   -2.8220   26.5100 N   0  0  0  0  0  0  0  0  0  0  0  0
    6.2500   -3.5990   27.6750 C   0  0  0  0  0  0  0  0  0  0  0  0
    5.8910   -5.0020   27.5540 C   0  0  0  0  0  0  0  0  0  0  0  0
    6.3370   -4.7930   28.9980 C   0  0  0  0  0  0  0  0  0  0  0  0
    5.4290   -6.6960   28.2080 Br  0  0  0  0  0  0  0  0  0  0  0  0
    6.8510   -1.4860   26.6390 C   0  0  0  0  0  0  0  0  0  0  0  0
    5.7410   -0.4530   26.4360 C   0  0  0  0  0  0  0  0  0  0  0  0
    5.7960    0.4080   27.6560 C   0  0  0  0  0  0  0  0  0  0  0  0
    4.6780    1.4800   27.4850 C   0  0  0  0  0  0  0  0  0  0  0  0
    3.6640    1.7070   26.3590 C   0  0  0  0  0  0  0  0  0  0  0  0
    2.4880    3.0010   26.4080 Cl  0  0  0  0  0  0  0  0  0  0  0  0
    3.7820    0.7160   25.2190 C   0  0  0  0  0  0  0  0  0  0  0  0
    4.8330   -0.3760   25.2510 C   0  0  0  0  0  0  0  0  0  0  0  0
    6.7900   -2.6630   23.0590 C   0  0  0  0  0  0  0  0  0  0  0  0
    7.6950   -3.1820   22.1430 C   0  0  0  0  0  0  0  0  0  0  0  0
  1  2  1  0
  2  3  2  0
  2  4  1  0
  4  5  1  0
  5  6  1  0
  6  7  1  0
  7  8  1  0
  8  9  2  0
  8 10  1  0
 10 11  1  0
 11 12  1  0
 12 13  2  3
 12 14  1  0
 10 15  1  0
 15 16  1  0
 16 17  2  0
 17 18  1  0
 18 19  2  0
 19 20  1  0
 19 21  1  0
 16 22  1  0
 21 22  2  0
  7 23  1  0
  4 24  1  0
 23 24  1  0
M  END
