piperidine-amides-29344-covalent
     RDKit          3D

 26 28  0  0  0  0  0  0  0  0999 V2000
    7.0510   -3.3620   19.3700 C   0  0  0  0  0  0  0  0  0  0  0  0
    6.4130   -4.2230   20.3660 C   0  0  0  0  0  0  0  0  0  0  0  0
    5.4090   -4.8690   19.9960 O   0  0  0  0  0  0  0  0  0  0  0  0
    6.9540   -4.3530   21.6800 N   0  0  0  0  0  0  0  0  0  0  0  0
    7.7040   -3.2590   22.2540 C   0  0  0  0  0  0  0  0  0  0  0  0
    6.8890   -2.5790   23.3170 C   0  0  0  0  0  0  0  0  0  0  0  0
    5.9630   -3.6050   23.9260 C   0  0  0  0  0  0  0  0  0  0  0  0
    5.4650   -3.1730   25.2780 C   0  0  0  0  0  0  0  0  0  0  0  0
    4.3000   -2.7840   25.2760 O   0  0  0  0  0  0  0  0  0  0  0  0
    6.2560   -3.1940   26.4330 N   0  0  0  0  0  0  0  0  0  0  0  0
    6.3570   -1.9200   27.1140 C   0  0  0  0  0  0  0  0  0  0  0  0
    5.9260   -0.6900   26.5970 C   0  0  0  0  0  0  0  0  0  0  0  0
    6.0370    0.5080   27.3070 C   0  0  0  0  0  0  0  0  0  0  0  0
    6.5820    0.6440   28.5990 C   0  0  0  0  0  0  0  0  0  0  0  0
    7.0670   -0.6450   29.2030 C   0  0  0  0  0  0  0  0  0  0  0  0
    6.9370   -1.9460   28.4190 C   0  0  0  0  0  0  0  0  0  0  0  0
    6.2840   -4.4080   27.2610 C   0  0  0  0  0  0  0  0  0  0  0  0
    7.2780   -5.2410   28.3740 S   0  0  0  0  0  0  0  0  0  0  0  0
    6.2980   -6.5900   28.7320 N   0  0  0  0  0  0  0  0  0  0  0  0
    5.1140   -6.3890   27.9360 C   0  0  0  0  0  0  0  0  0  0  0  0
    3.8400   -7.2600   27.8080 C   0  0  0  0  0  0  0  0  0  0  0  0
    5.1200   -5.2110   27.1530 C   0  0  0  0  0  0  0  0  0  0  0  0
    4.0470   -4.8870   26.3470 C   0  0  0  0  0  0  0  0  0  0  0  0
    3.6820   -5.9950   25.6330 N   0  0  0  0  0  0  0  0  0  0  0  0
    6.5080   -4.9920   23.9210 C   0  0  0  0  0  0  0  0  0  0  0  0
    6.6730   -5.4900   22.5130 C   0  0  0  0  0  0  0  0  0  0  0  0
  1  2  1  0
  2  3  2  0
  2  4  1  0
  4  5  1  0
  5  6  1  0
  6  7  1  0
  7  8  1  0
  8  9  2  0
  8 10  1  0
 10 11  1  0
 11 12  2  0
 12 13  1  0
 13 14  2  0
 14 15  1  0
 11 16  1  0
 15 16  2  0
 10 17  1  0
 17 18  1  0
 18 19  1  0
 19 20  2  0
 20 21  1  0
 17 22  2  0
 20 22  1  0
 22 23  1  0
 23 24  3  0
  7 25  1  0
  4 26  1  0
 25 26  1  0
M  END
