piperidine-amides-7163-covalent
     RDKit          3D

 21 21  0  0  0  0  0  0  0  0999 V2000
    7.1220   -3.2880   19.2080 C   0  0  0  0  0  0  0  0  0  0  0  0
    6.3570   -3.9980   20.2310 C   0  0  0  0  0  0  0  0  0  0  0  0
    5.2660   -4.5140   19.8700 O   0  0  0  0  0  0  0  0  0  0  0  0
    6.8680   -4.1240   21.5220 N   0  0  0  0  0  0  0  0  0  0  0  0
    7.6670   -3.0830   22.1250 C   0  0  0  0  0  0  0  0  0  0  0  0
    6.9810   -2.6340   23.3830 C   0  0  0  0  0  0  0  0  0  0  0  0
    6.6320   -3.8020   24.2600 C   0  0  0  0  0  0  0  0  0  0  0  0
    5.9090   -3.3680   25.4890 C   0  0  0  0  0  0  0  0  0  0  0  0
    5.0110   -2.5050   25.3550 O   0  0  0  0  0  0  0  0  0  0  0  0
    6.1590   -3.8860   26.7890 N   0  0  0  0  0  0  0  0  0  0  0  0
    5.8030   -5.2610   27.0830 C   0  0  1  0  0  0  0  0  0  0  0  0
    6.5080   -5.8700   28.2910 C   0  0  0  0  0  0  0  0  0  0  0  0
    5.9430   -6.8730   29.0540 C   0  0  0  0  0  0  0  0  0  0  0  0
    5.2160   -6.6570   30.2010 C   0  0  0  0  0  0  0  0  0  0  0  0
    4.3420   -5.3550   27.1710 C   0  0  0  0  0  0  0  0  0  0  0  0
    3.7710   -6.2430   26.2660 C   0  0  0  0  0  0  0  0  0  0  0  0
    2.3740   -6.3390   26.1230 O   0  0  0  0  0  0  0  0  0  0  0  0
    4.4430   -7.0040   25.5230 O   0  0  0  0  0  0  0  0  0  0  0  0
    4.0420   -7.1800   24.1750 C   0  0  0  0  0  0  0  0  0  0  0  0
    5.7470   -4.7910   23.4920 C   0  0  0  0  0  0  0  0  0  0  0  0
    6.5450   -5.2880   22.2910 C   0  0  0  0  0  0  0  0  0  0  0  0
  1  2  1  0
  2  3  2  0
  2  4  1  0
  4  5  1  0
  5  6  1  0
  6  7  1  0
  7  8  1  0
  8  9  2  0
  8 10  1  0
 10 11  1  0
 11 12  1  1
 12 13  1  0
 13 14  1  0
 11 15  1  0
 15 16  1  0
 16 17  2  0
 16 18  1  0
 18 19  1  0
  7 20  1  0
  4 21  1  0
 20 21  1  0
M  END
