piperidine-amides-3128-covalent
     RDKit          3D

 23 25  0  0  0  0  0  0  0  0999 V2000
    6.9680   -3.3870   19.3320 C   0  0  0  0  0  0  0  0  0  0  0  0
    6.2750   -4.2540   20.2890 C   0  0  0  0  0  0  0  0  0  0  0  0
    5.2680   -4.8580   19.9520 O   0  0  0  0  0  0  0  0  0  0  0  0
    6.7890   -4.4450   21.6080 N   0  0  0  0  0  0  0  0  0  0  0  0
    7.4630   -3.3530   22.2200 C   0  0  0  0  0  0  0  0  0  0  0  0
    6.5810   -2.8170   23.2940 C   0  0  0  0  0  0  0  0  0  0  0  0
    6.2410   -3.9750   24.2070 C   0  0  0  0  0  0  0  0  0  0  0  0
    5.4100   -3.4780   25.3500 C   0  0  0  0  0  0  0  0  0  0  0  0
    4.1730   -3.3440   25.2540 O   0  0  0  0  0  0  0  0  0  0  0  0
    6.0300   -3.1410   26.5870 N   0  0  0  0  0  0  0  0  0  0  0  0
    6.7820   -1.9110   26.6660 C   0  0  0  0  0  0  0  0  0  0  0  0
    7.6960   -2.1690   25.4880 C   0  0  0  0  0  0  0  0  0  0  0  0
    7.8800   -1.2360   24.4720 C   0  0  0  0  0  0  0  0  0  0  0  0
    8.7230   -1.5250   23.4030 C   0  0  0  0  0  0  0  0  0  0  0  0
    9.3680   -2.7160   23.3250 C   0  0  0  0  0  0  0  0  0  0  0  0
    9.1910   -3.6880   24.3490 N   0  0  0  0  0  0  0  0  0  0  0  0
    8.3400   -3.4200   25.4700 C   0  0  0  0  0  0  0  0  0  0  0  0
    7.3870   -1.7100   27.9380 C   0  0  0  0  0  0  0  0  0  0  0  0
    6.7900   -0.6960   28.6520 C   0  0  0  0  0  0  0  0  0  0  0  0
    6.0200    0.0470   27.7990 C   0  0  0  0  0  0  0  0  0  0  0  0
    6.0080   -0.6980   26.5400 C   0  0  0  0  0  0  0  0  0  0  0  0
    5.5500   -5.0870   23.4310 C   0  0  0  0  0  0  0  0  0  0  0  0
    6.4050   -5.5680   22.4260 C   0  0  0  0  0  0  0  0  0  0  0  0
  1  2  1  0
  2  3  2  0
  2  4  1  0
  4  5  1  0
  5  6  1  0
  6  7  1  0
  7  8  1  0
  8  9  2  0
  8 10  1  0
 11 10  1  0
 11 12  1  0
 12 13  2  0
 13 14  1  0
 14 15  2  0
 15 16  1  0
 12 17  1  0
 16 17  2  0
 11 18  1  0
 18 19  1  0
 19 20  1  0
 11 21  1  0
 20 21  1  0
  7 22  1  0
  4 23  1  0
 22 23  1  0
M  END
