piperidine-amides-21692-covalent
     RDKit          3D

 22 24  0  0  0  0  0  0  0  0999 V2000
    7.1070   -3.3240   19.2920 C   0  0  0  0  0  0  0  0  0  0  0  0
    6.4240   -4.1590   20.2880 C   0  0  0  0  0  0  0  0  0  0  0  0
    5.3320   -4.6660   19.9300 O   0  0  0  0  0  0  0  0  0  0  0  0
    7.0010   -4.4240   21.5330 N   0  0  0  0  0  0  0  0  0  0  0  0
    6.6500   -5.5860   22.2930 C   0  0  0  0  0  0  0  0  0  0  0  0
    6.5510   -5.1270   23.7130 C   0  0  0  0  0  0  0  0  0  0  0  0
    6.0100   -3.7250   23.8060 C   0  0  0  0  0  0  0  0  0  0  0  0
    5.6810   -3.3520   25.1980 C   0  0  0  0  0  0  0  0  0  0  0  0
    4.6100   -2.7340   25.3720 O   0  0  0  0  0  0  0  0  0  0  0  0
    6.4720   -3.6810   26.3150 N   0  0  0  0  0  0  0  0  0  0  0  0
    7.1590   -4.9470   26.2070 C   0  0  0  0  0  0  0  0  0  0  0  0
    7.3350   -5.7880   27.4930 C   0  0  0  0  0  0  0  0  0  0  0  0
    6.9800   -5.5310   28.8050 C   0  0  0  0  0  0  0  0  0  0  0  0
    5.2710   -5.2460   29.2370 S   0  0  0  0  0  0  0  0  0  0  0  0
    5.2110   -3.5630   28.7570 C   0  0  0  0  0  0  0  0  0  0  0  0
    4.6600   -2.5210   29.4880 C   0  0  0  0  0  0  0  0  0  0  0  0
    4.6710   -1.2500   29.0590 C   0  0  0  0  0  0  0  0  0  0  0  0
    5.2500   -1.0370   27.8760 C   0  0  0  0  0  0  0  0  0  0  0  0
    5.8420   -2.1770   27.0880 C   0  0  0  0  0  0  0  0  0  0  0  0
    5.8450   -3.6820   27.5490 C   0  0  0  0  0  0  0  0  0  0  0  0
    6.8990   -2.6640   23.1400 C   0  0  0  0  0  0  0  0  0  0  0  0
    7.8250   -3.4290   22.2200 C   0  0  0  0  0  0  0  0  0  0  0  0
  1  2  1  0
  2  3  2  0
  2  4  1  0
  4  5  1  0
  5  6  1  0
  6  7  1  0
  7  8  1  0
  8  9  2  0
  8 10  1  0
 10 11  1  0
 11 12  1  0
 12 13  1  0
 13 14  1  0
 14 15  1  0
 15 16  1  0
 16 17  2  0
 17 18  1  0
 18 19  2  0
 10 20  1  0
 15 20  2  0
 19 20  1  0
  7 21  1  0
  4 22  1  0
 21 22  1  0
M  END
