piperidine-amides-29266-covalent
     RDKit          3D

 26 27  0  0  0  0  0  0  0  0999 V2000
    6.9920   -3.3680   19.3880 C   0  0  0  0  0  0  0  0  0  0  0  0
    6.3670   -4.2460   20.3820 C   0  0  0  0  0  0  0  0  0  0  0  0
    5.4150   -4.9500   20.0040 O   0  0  0  0  0  0  0  0  0  0  0  0
    6.8690   -4.3010   21.7200 N   0  0  0  0  0  0  0  0  0  0  0  0
    6.6570   -5.5130   22.4890 C   0  0  0  0  0  0  0  0  0  0  0  0
    6.2040   -5.2140   23.9080 C   0  0  0  0  0  0  0  0  0  0  0  0
    6.2200   -3.7160   24.0670 C   0  0  0  0  0  0  0  0  0  0  0  0
    5.7810   -3.1670   25.4060 C   0  0  0  0  0  0  0  0  0  0  0  0
    5.5200   -1.9770   25.3790 O   0  0  0  0  0  0  0  0  0  0  0  0
    5.6200   -3.9230   26.5710 N   0  0  0  0  0  0  0  0  0  0  0  0
    6.3660   -3.6340   27.7490 C   0  0  0  0  0  0  0  0  0  0  0  0
    6.7850   -4.7470   28.4970 C   0  0  0  0  0  0  0  0  0  0  0  0
    5.5970   -5.0340   29.2610 N   0  0  0  0  0  0  0  0  0  0  0  0
    5.3300   -6.0390   30.2060 C   0  0  0  0  0  0  0  0  0  0  0  0
    6.3360   -6.9620   30.2340 O   0  0  0  0  0  0  0  0  0  0  0  0
    4.1880   -6.1000   31.0210 O   0  0  0  0  0  0  0  0  0  0  0  0
    4.1530   -6.9940   32.1480 C   0  0  0  0  0  0  0  0  0  0  0  0
    3.7630   -6.3950   33.4630 C   0  0  0  0  0  0  0  0  0  0  0  0
    5.3410   -7.6800   32.1670 C   0  0  0  0  0  0  0  0  0  0  0  0
    3.2730   -7.9920   31.7140 C   0  0  0  0  0  0  0  0  0  0  0  0
    4.5270   -5.1710   28.3540 C   0  0  2  0  0  0  0  0  0  0  0  0
    4.4690   -6.4090   27.4160 C   0  0  0  0  0  0  0  0  0  0  0  0
    4.5250   -4.0630   27.5190 C   0  0  1  0  0  0  0  0  0  0  0  0
    4.3200   -2.8360   28.1200 C   0  0  0  0  0  0  0  0  0  0  0  0
    7.5360   -3.1410   23.7000 C   0  0  0  0  0  0  0  0  0  0  0  0
    7.7270   -3.2510   22.2240 C   0  0  0  0  0  0  0  0  0  0  0  0
  1  2  1  0
  2  3  2  0
  2  4  1  0
  4  5  1  0
  5  6  1  0
  6  7  1  0
  7  8  1  0
  8  9  2  0
  8 10  1  0
 10 11  1  0
 11 12  1  0
 12 13  1  0
 13 14  1  0
 14 15  2  0
 14 16  1  0
 17 16  1  0
 17 18  1  0
 17 19  1  0
 17 20  1  0
 13 21  1  0
 21 22  1  6
 10 23  1  0
 21 23  1  0
 23 24  1  1
  7 25  1  0
  4 26  1  0
 25 26  1  0
M  END
