piperidine-amides-1022-covalent
     RDKit          3D

 24 25  0  0  0  0  0  0  0  0999 V2000
    7.1500   -3.2050   19.1400 C   0  0  0  0  0  0  0  0  0  0  0  0
    6.3420   -3.9170   20.1670 C   0  0  0  0  0  0  0  0  0  0  0  0
    5.2660   -4.4410   19.8380 O   0  0  0  0  0  0  0  0  0  0  0  0
    6.8200   -4.0390   21.4830 N   0  0  0  0  0  0  0  0  0  0  0  0
    6.1410   -4.8950   22.3940 C   0  0  0  0  0  0  0  0  0  0  0  0
    5.1620   -3.9940   23.1650 C   0  0  0  0  0  0  0  0  0  0  0  0
    5.9650   -2.9980   23.9420 C   0  0  0  0  0  0  0  0  0  0  0  0
    5.7900   -3.0860   25.4260 C   0  0  0  0  0  0  0  0  0  0  0  0
    4.6190   -3.0390   25.8230 O   0  0  0  0  0  0  0  0  0  0  0  0
    6.8960   -3.1990   26.2900 N   0  0  0  0  0  0  0  0  0  0  0  0
    6.9340   -3.4650   27.7020 C   0  0  2  0  0  0  0  0  0  0  0  0
    7.9970   -4.0660   28.2740 C   0  0  0  0  0  0  0  0  0  0  0  0
    5.8390   -4.4170   28.1580 C   0  0  0  0  0  0  0  0  0  0  0  0
    5.7000   -5.6930   27.6840 O   0  0  0  0  0  0  0  0  0  0  0  0
    6.2800   -5.7750   26.4660 C   0  0  0  0  0  0  0  0  0  0  0  0
    7.7620   -5.7270   26.4200 C   0  0  0  0  0  0  0  0  0  0  0  0
    8.6870   -5.6570   27.6460 C   0  0  0  0  0  0  0  0  0  0  0  0
    8.3460   -5.7460   25.2380 C   0  0  0  0  0  0  0  0  0  0  0  0
    7.5650   -5.8340   24.1000 C   0  0  0  0  0  0  0  0  0  0  0  0
    6.0890   -5.9200   23.9580 C   0  0  0  0  0  0  0  0  0  0  0  0
    5.4910   -5.8720   25.3470 C   0  0  0  0  0  0  0  0  0  0  0  0
    4.1330   -5.9230   25.4930 C   0  0  0  0  0  0  0  0  0  0  0  0
    7.4250   -2.9600   23.5960 C   0  0  0  0  0  0  0  0  0  0  0  0
    7.6460   -3.0030   22.0910 C   0  0  0  0  0  0  0  0  0  0  0  0
  1  2  1  0
  2  3  2  0
  2  4  1  0
  4  5  1  0
  5  6  1  0
  6  7  1  0
  7  8  1  0
  8  9  2  0
  8 10  1  0
 10 11  1  0
 11 12  1  6
 11 13  1  0
 13 14  1  0
 14 15  1  0
 15 16  2  0
 16 17  1  0
 16 18  1  0
 18 19  2  0
 19 20  1  0
 15 21  1  0
 20 21  2  0
 21 22  1  0
  7 23  1  0
  4 24  1  0
 23 24  1  0
M  END
