piperidine-amides-29520-covalent
     RDKit          3D

 26 27  0  0  0  0  0  0  0  0999 V2000
    7.0130   -3.4140   19.4420 C   0  0  0  0  0  0  0  0  0  0  0  0
    6.3330   -4.2700   20.4060 C   0  0  0  0  0  0  0  0  0  0  0  0
    5.3940   -4.9620   20.0130 O   0  0  0  0  0  0  0  0  0  0  0  0
    6.7810   -4.3490   21.7820 N   0  0  0  0  0  0  0  0  0  0  0  0
    6.6110   -5.5860   22.5210 C   0  0  0  0  0  0  0  0  0  0  0  0
    6.0760   -5.3090   23.9080 C   0  0  0  0  0  0  0  0  0  0  0  0
    6.0300   -3.8060   24.0490 C   0  0  0  0  0  0  0  0  0  0  0  0
    5.3800   -3.2780   25.3120 C   0  0  0  0  0  0  0  0  0  0  0  0
    4.8260   -2.1710   25.2860 O   0  0  0  0  0  0  0  0  0  0  0  0
    5.3210   -3.9730   26.5660 N   0  0  0  0  0  0  0  0  0  0  0  0
    4.1100   -3.7900   27.3580 C   0  0  0  0  0  0  0  0  0  0  0  0
    4.6270   -3.6760   28.7500 C   0  0  1  0  0  0  0  0  0  0  0  0
    4.3080   -4.7750   29.5270 O   0  0  0  0  0  0  0  0  0  0  0  0
    5.9590   -3.6090   28.7240 C   0  0  2  0  0  0  0  0  0  0  0  0
    6.5600   -2.3420   28.8540 C   0  0  0  0  0  0  0  0  0  0  0  0
    5.7870   -1.3190   29.4420 N   0  0  0  0  0  0  0  0  0  0  0  0
    6.3090   -0.3660   30.3300 C   0  0  0  0  0  0  0  0  0  0  0  0
    7.3670    0.4450   29.9410 O   0  0  0  0  0  0  0  0  0  0  0  0
    5.8440   -0.1760   31.5970 O   0  0  0  0  0  0  0  0  0  0  0  0
    6.5650    0.5670   32.4950 C   0  0  0  0  0  0  0  0  0  0  0  0
    5.9690    0.5200   33.7320 C   0  0  0  0  0  0  0  0  0  0  0  0
    7.8600    0.2140   32.2980 C   0  0  0  0  0  0  0  0  0  0  0  0
    6.4810    1.9080   32.1810 C   0  0  0  0  0  0  0  0  0  0  0  0
    6.3890   -3.9860   27.5320 C   0  0  0  0  0  0  0  0  0  0  0  0
    7.3780   -3.1790   23.7350 C   0  0  0  0  0  0  0  0  0  0  0  0
    7.5910   -3.2940   22.3570 C   0  0  0  0  0  0  0  0  0  0  0  0
  1  2  1  0
  2  3  2  0
  2  4  1  0
  4  5  1  0
  5  6  1  0
  6  7  1  0
  7  8  1  0
  8  9  2  0
  8 10  1  0
 10 11  1  0
 11 12  1  0
 12 13  1  1
 12 14  1  0
 14 15  1  6
 15 16  1  0
 16 17  1  0
 17 18  2  0
 17 19  1  0
 20 19  1  0
 20 21  1  0
 20 22  1  0
 20 23  1  0
 10 24  1  0
 14 24  1  0
  7 25  1  0
  4 26  1  0
 25 26  1  0
M  END
