piperidine-amides-1886-covalent
     RDKit          3D

 17 17  0  0  0  0  0  0  0  0999 V2000
    7.0910   -3.2700   19.1970 C   0  0  0  0  0  0  0  0  0  0  0  0
    6.3450   -4.0420   20.2270 C   0  0  0  0  0  0  0  0  0  0  0  0
    5.2800   -4.5460   19.8820 O   0  0  0  0  0  0  0  0  0  0  0  0
    6.8740   -4.2250   21.5080 N   0  0  0  0  0  0  0  0  0  0  0  0
    6.4720   -5.3500   22.2920 C   0  0  0  0  0  0  0  0  0  0  0  0
    5.7680   -4.8320   23.5180 C   0  0  0  0  0  0  0  0  0  0  0  0
    6.6340   -3.7640   24.2020 C   0  0  0  0  0  0  0  0  0  0  0  0
    5.8860   -3.2380   25.3670 C   0  0  0  0  0  0  0  0  0  0  0  0
    4.6590   -3.0830   25.2860 O   0  0  0  0  0  0  0  0  0  0  0  0
    6.5590   -2.9030   26.5600 N   0  0  0  0  0  0  0  0  0  0  0  0
    6.2380   -3.5910   27.7960 C   0  0  0  0  0  0  0  0  0  0  0  0
    5.3580   -4.7780   27.4790 C   0  0  0  0  0  0  0  0  0  0  0  0
    5.7990   -6.4070   27.4170 S   0  0  0  0  0  0  0  0  0  0  0  0
    6.4430   -6.5420   29.1280 C   0  0  0  0  0  0  0  0  0  0  0  0
    4.6370   -7.2370   26.9870 O   0  0  0  0  0  0  0  0  0  0  0  0
    6.8690   -2.6430   23.2000 C   0  0  0  0  0  0  0  0  0  0  0  0
    7.5670   -3.1410   22.1400 C   0  0  0  0  0  0  0  0  0  0  0  0
  1  2  1  0
  2  3  2  0
  2  4  1  0
  4  5  1  0
  5  6  1  0
  6  7  1  0
  7  8  1  0
  8  9  2  0
  8 10  1  0
 10 11  1  0
 11 12  1  0
 13 12  1  0
 13 14  1  1
 13 15  2  0
  7 16  1  0
  4 17  1  0
 16 17  1  0
M  END
