piperidine-amides-8576-covalent
     RDKit          3D

 24 25  0  0  0  0  0  0  0  0999 V2000
    7.0720   -3.2910   19.3100 C   0  0  0  0  0  0  0  0  0  0  0  0
    6.3650   -4.0910   20.3070 C   0  0  0  0  0  0  0  0  0  0  0  0
    5.3410   -4.6980   19.9400 O   0  0  0  0  0  0  0  0  0  0  0  0
    6.8580   -4.2050   21.6370 N   0  0  0  0  0  0  0  0  0  0  0  0
    7.6390   -3.1270   22.1950 C   0  0  0  0  0  0  0  0  0  0  0  0
    7.4410   -3.0780   23.6850 C   0  0  0  0  0  0  0  0  0  0  0  0
    6.0550   -3.6260   23.9420 C   0  0  0  0  0  0  0  0  0  0  0  0
    5.5550   -3.3060   25.3240 C   0  0  0  0  0  0  0  0  0  0  0  0
    4.3530   -3.0700   25.4130 O   0  0  0  0  0  0  0  0  0  0  0  0
    6.4420   -3.2850   26.3950 N   0  0  0  0  0  0  0  0  0  0  0  0
    6.1400   -3.8800   27.6630 C   0  0  0  0  0  0  0  0  0  0  0  0
    6.1380   -5.2890   27.7000 C   0  0  0  0  0  0  0  0  0  0  0  0
    5.1620   -5.9630   28.3820 C   0  0  0  0  0  0  0  0  0  0  0  0
    3.8760   -6.3830   28.0940 C   0  0  0  0  0  0  0  0  0  0  0  0
    3.2050   -7.1040   29.2260 C   0  0  0  0  0  0  0  0  0  0  0  0
    3.9320   -7.3300   30.5730 C   0  0  0  0  0  0  0  0  0  0  0  0
    3.3290   -7.9320   31.4910 O   0  0  0  0  0  0  0  0  0  0  0  0
    2.1240   -8.4520   31.1020 C   0  0  0  0  0  0  0  0  0  0  0  0
    5.3400   -6.8210   30.7510 C   0  0  0  0  0  0  0  0  0  0  0  0
    5.9990   -6.9660   31.8230 O   0  0  0  0  0  0  0  0  0  0  0  0
    5.6180   -7.8290   32.8860 C   0  0  0  0  0  0  0  0  0  0  0  0
    5.8980   -6.1720   29.6790 C   0  0  0  0  0  0  0  0  0  0  0  0
    6.1470   -5.1110   23.7540 C   0  0  0  0  0  0  0  0  0  0  0  0
    6.5550   -5.4310   22.3370 C   0  0  0  0  0  0  0  0  0  0  0  0
  1  2  1  0
  2  3  2  0
  2  4  1  0
  4  5  1  0
  5  6  1  0
  6  7  1  0
  7  8  1  0
  8  9  2  0
  8 10  1  0
 10 11  1  0
 11 12  1  0
 12 13  1  0
 13 14  2  0
 14 15  1  0
 15 16  2  0
 16 17  1  0
 17 18  1  0
 16 19  1  0
 19 20  1  0
 20 21  1  0
 13 22  1  0
 19 22  2  0
  7 23  1  0
  4 24  1  0
 23 24  1  0
M  END
