piperidine-amides-31413-covalent
     RDKit          3D

 28 30  0  0  0  0  0  0  0  0999 V2000
    7.1060   -3.3660   19.4380 C   0  0  0  0  0  0  0  0  0  0  0  0
    6.4330   -4.2170   20.3900 C   0  0  0  0  0  0  0  0  0  0  0  0
    5.4410   -4.9160   20.0000 O   0  0  0  0  0  0  0  0  0  0  0  0
    6.8880   -4.3020   21.7200 N   0  0  0  0  0  0  0  0  0  0  0  0
    6.8180   -5.5920   22.4430 C   0  0  0  0  0  0  0  0  0  0  0  0
    5.9510   -5.2370   23.7270 C   0  0  0  0  0  0  0  0  0  0  0  0
    6.5250   -4.0110   24.4330 C   0  0  0  0  0  0  0  0  0  0  0  0
    5.4430   -3.4980   25.4790 C   0  0  0  0  0  0  0  0  0  0  0  0
    4.5450   -2.9940   24.8230 O   0  0  0  0  0  0  0  0  0  0  0  0
    5.6620   -3.6790   26.7400 N   0  0  0  0  0  0  0  0  0  0  0  0
    5.3940   -3.5560   28.0400 C   0  0  0  0  0  0  0  0  0  0  0  0
    4.8310   -4.3830   28.9400 C   0  0  0  0  0  0  0  0  0  0  0  0
    5.8130   -5.0340   29.6730 C   0  0  0  0  0  0  0  0  0  0  0  0
    6.5430   -5.9450   29.0930 N   0  0  0  0  0  0  0  0  0  0  0  0
    6.4350   -7.1870   29.7880 C   0  0  0  0  0  0  0  0  0  0  0  0
    5.9650   -7.3050   31.0970 O   0  0  0  0  0  0  0  0  0  0  0  0
    6.8980   -8.3610   28.9200 C   0  0  0  0  0  0  0  0  0  0  0  0
    7.1920   -9.5380   29.7370 C   0  0  0  0  0  0  0  0  0  0  0  0
    8.2270  -10.5460   29.7190 C   0  0  0  0  0  0  0  0  0  0  0  0
    7.5610  -11.0640   30.9960 C   0  0  0  0  0  0  0  0  0  0  0  0
    8.3480  -12.2630   31.6650 C   0  0  0  0  0  0  0  0  0  0  0  0
    9.5230  -12.6910   31.0050 C   0  0  0  0  0  0  0  0  0  0  0  0
    9.9690  -12.1410   29.7900 C   0  0  0  0  0  0  0  0  0  0  0  0
    9.3380  -11.1050   29.1520 C   0  0  0  0  0  0  0  0  0  0  0  0
    6.8410   -5.8250   27.6490 C   0  0  0  0  0  0  0  0  0  0  0  0
    6.7950   -4.5040   27.1370 C   0  0  0  0  0  0  0  0  0  0  0  0
    6.9510   -2.8750   23.5630 C   0  0  0  0  0  0  0  0  0  0  0  0
    7.6790   -3.2940   22.3450 C   0  0  0  0  0  0  0  0  0  0  0  0
  1  2  1  0
  2  3  2  0
  2  4  1  0
  4  5  1  0
  5  6  1  0
  6  7  1  0
  7  8  1  0
  8  9  2  0
  8 10  1  0
 10 11  1  0
 11 12  1  0
 12 13  1  0
 13 14  1  0
 14 15  1  0
 15 16  2  0
 15 17  1  0
 17 18  1  0
 18 19  1  0
 19 20  2  0
 20 21  1  0
 21 22  2  0
 22 23  1  0
 19 24  1  0
 23 24  2  0
 14 25  1  0
 10 26  1  0
 25 26  1  0
  7 27  1  0
  4 28  1  0
 27 28  1  0
M  END
