piperidine-amides-25696-covalent
     RDKit          3D

 25 28  0  0  0  0  0  0  0  0999 V2000
    6.9960   -3.3750   19.3730 C   0  0  0  0  0  0  0  0  0  0  0  0
    6.3680   -4.2690   20.3840 C   0  0  0  0  0  0  0  0  0  0  0  0
    5.3960   -4.9190   19.9980 O   0  0  0  0  0  0  0  0  0  0  0  0
    6.8920   -4.3830   21.6850 N   0  0  0  0  0  0  0  0  0  0  0  0
    6.6990   -5.5770   22.4860 C   0  0  0  0  0  0  0  0  0  0  0  0
    6.1230   -5.2230   23.8390 C   0  0  0  0  0  0  0  0  0  0  0  0
    6.0010   -3.7040   23.9460 C   0  0  0  0  0  0  0  0  0  0  0  0
    5.3450   -3.2270   25.1970 C   0  0  0  0  0  0  0  0  0  0  0  0
    4.6170   -2.2400   25.0920 O   0  0  0  0  0  0  0  0  0  0  0  0
    5.4720   -3.7820   26.4930 N   0  0  0  0  0  0  0  0  0  0  0  0
    6.5070   -3.2080   27.2420 C   0  0  0  0  0  0  0  0  0  0  0  0
    6.7630   -4.2120   28.3420 C   0  0  0  0  0  0  0  0  0  0  0  0
    5.8210   -4.3760   29.2430 C   0  0  0  0  0  0  0  0  0  0  0  0
    4.5890   -4.3860   28.6990 C   0  0  2  0  0  0  0  0  0  0  0  0
    4.0260   -5.6260   28.6640 C   0  0  0  0  0  0  0  0  0  0  0  0
    4.2910   -6.5330   29.5770 N   0  0  0  0  0  0  0  0  0  0  0  0
    3.4760   -7.7130   29.1600 C   0  0  0  0  0  0  0  0  0  0  0  0
    2.7630   -7.3800   27.9740 N   0  0  0  0  0  0  0  0  0  0  0  0
    1.8670   -8.2280   27.2390 C   0  0  0  0  0  0  0  0  0  0  0  0
    3.0910   -6.0650   27.6370 C   0  0  0  0  0  0  0  0  0  0  0  0
    2.6420   -5.2230   26.5140 C   0  0  0  0  0  0  0  0  0  0  0  0
    3.0760   -3.8220   26.7960 C   0  0  0  0  0  0  0  0  0  0  0  0
    4.4210   -3.6380   27.5260 C   0  0  2  0  0  0  0  0  0  0  0  0
    7.3550   -3.0910   23.7010 C   0  0  0  0  0  0  0  0  0  0  0  0
    7.7080   -3.3160   22.2610 C   0  0  0  0  0  0  0  0  0  0  0  0
  1  2  1  0
  2  3  2  0
  2  4  1  0
  4  5  1  0
  5  6  1  0
  6  7  1  0
  7  8  1  0
  8  9  2  0
  8 10  1  0
 10 11  1  0
 11 12  1  0
 12 13  1  0
 14 13  1  6
 14 15  1  0
 15 16  1  0
 16 17  2  0
 17 18  1  0
 18 19  1  0
 15 20  2  0
 18 20  1  0
 20 21  1  0
 21 22  1  0
 10 23  1  0
 14 23  1  0
 23 22  1  6
  7 24  1  0
  4 25  1  0
 24 25  1  0
M  END
