piperidine-amides-6392-covalent
     RDKit          3D

 25 27  0  0  0  0  0  0  0  0999 V2000
    7.0360   -3.3190   19.3540 C   0  0  0  0  0  0  0  0  0  0  0  0
    6.3720   -4.1760   20.3530 C   0  0  0  0  0  0  0  0  0  0  0  0
    5.4290   -4.9200   20.0020 O   0  0  0  0  0  0  0  0  0  0  0  0
    6.8010   -4.1920   21.6930 N   0  0  0  0  0  0  0  0  0  0  0  0
    6.6490   -5.4270   22.4370 C   0  0  0  0  0  0  0  0  0  0  0  0
    6.0180   -5.0830   23.7960 C   0  0  0  0  0  0  0  0  0  0  0  0
    6.1380   -3.5840   23.9660 C   0  0  0  0  0  0  0  0  0  0  0  0
    5.6980   -3.1520   25.3170 C   0  0  0  0  0  0  0  0  0  0  0  0
    4.4720   -3.1820   25.5500 O   0  0  0  0  0  0  0  0  0  0  0  0
    6.6380   -2.7110   26.2910 N   0  0  0  0  0  0  0  0  0  0  0  0
    6.2340   -1.8260   27.3620 C   0  0  0  0  0  0  0  0  0  0  0  0
    5.2140   -2.6390   28.1580 C   0  0  0  0  0  0  0  0  0  0  0  0
    4.7760   -3.9340   27.8870 C   0  0  0  0  0  0  0  0  0  0  0  0
    3.8460   -4.6570   28.6500 C   0  0  0  0  0  0  0  0  0  0  0  0
    3.2490   -4.1210   29.8000 C   0  0  0  0  0  0  0  0  0  0  0  0
    3.5460   -2.8770   30.2280 C   0  0  0  0  0  0  0  0  0  0  0  0
    4.5320   -2.1230   29.4110 C   0  0  0  0  0  0  0  0  0  0  0  0
    4.3570   -0.9920   30.4020 C   0  0  0  0  0  0  0  0  0  0  0  0
    5.5180   -0.5890   26.8180 C   0  0  0  0  0  0  0  0  0  0  0  0
    5.1030    0.4190   27.7970 C   0  0  0  0  0  0  0  0  0  0  0  0
    6.1380    0.7500   28.6680 C   0  0  0  0  0  0  0  0  0  0  0  0
    6.7530   -0.3520   29.1490 C   0  0  0  0  0  0  0  0  0  0  0  0
    7.2790   -1.3240   28.1530 C   0  0  0  0  0  0  0  0  0  0  0  0
    7.5350   -3.0910   23.6930 C   0  0  0  0  0  0  0  0  0  0  0  0
    7.6960   -3.1540   22.1710 C   0  0  0  0  0  0  0  0  0  0  0  0
  1  2  1  0
  2  3  2  0
  2  4  1  0
  4  5  1  0
  5  6  1  0
  6  7  1  0
  7  8  1  0
  8  9  2  0
  8 10  1  0
 11 10  1  0
 11 12  1  0
 12 13  2  0
 13 14  1  0
 14 15  2  0
 15 16  1  0
 12 17  1  0
 16 17  2  0
 17 18  1  0
 11 19  1  0
 19 20  1  0
 20 21  1  0
 21 22  1  0
 11 23  1  0
 22 23  1  0
  7 24  1  0
  4 25  1  0
 24 25  1  0
M  END
