piperidine-amides-30341-covalent
     RDKit          3D

 27 28  0  0  0  0  0  0  0  0999 V2000
    7.1310   -3.3090   19.2270 C   0  0  0  0  0  0  0  0  0  0  0  0
    6.3390   -4.0270   20.2100 C   0  0  0  0  0  0  0  0  0  0  0  0
    5.2630   -4.5270   19.8830 O   0  0  0  0  0  0  0  0  0  0  0  0
    6.8460   -4.2130   21.5360 N   0  0  0  0  0  0  0  0  0  0  0  0
    7.6330   -3.1770   22.1570 C   0  0  0  0  0  0  0  0  0  0  0  0
    6.9370   -2.6720   23.3850 C   0  0  0  0  0  0  0  0  0  0  0  0
    6.5440   -3.8680   24.2390 C   0  0  0  0  0  0  0  0  0  0  0  0
    5.5930   -3.4570   25.3080 C   0  0  0  0  0  0  0  0  0  0  0  0
    4.3660   -3.4660   25.1000 O   0  0  0  0  0  0  0  0  0  0  0  0
    6.0440   -3.0230   26.5840 N   0  0  0  0  0  0  0  0  0  0  0  0
    6.2510   -4.0340   27.6070 C   0  0  0  0  0  0  0  0  0  0  0  0
    5.0000   -4.4390   28.3050 C   0  0  0  0  0  0  0  0  0  0  0  0
    3.9590   -4.4360   27.3950 O   0  0  0  0  0  0  0  0  0  0  0  0
    2.9390   -3.5310   27.3390 C   0  0  0  0  0  0  0  0  0  0  0  0
    4.9820   -5.5370   29.1260 O   0  0  0  0  0  0  0  0  0  0  0  0
    6.1990   -6.2240   29.1040 C   0  0  0  0  0  0  0  0  0  0  0  0
    5.6620   -1.6800   26.9480 C   0  0  2  0  0  0  0  0  0  0  0  0
    5.9420   -0.6310   25.9880 C   0  0  0  0  0  0  0  0  0  0  0  0
    5.9540    0.7250   26.2120 C   0  0  0  0  0  0  0  0  0  0  0  0
    5.9970   -1.3520   28.2450 C   0  0  0  0  0  0  0  0  0  0  0  0
    7.3110   -1.1050   28.6270 C   0  0  0  0  0  0  0  0  0  0  0  0
    7.6270   -0.7390   30.0170 C   0  0  0  0  0  0  0  0  0  0  0  0
    6.6620   -0.6180   30.9970 C   0  0  0  0  0  0  0  0  0  0  0  0
    5.3610   -0.8700   30.6030 C   0  0  0  0  0  0  0  0  0  0  0  0
    5.0510   -1.2410   29.2020 C   0  0  0  0  0  0  0  0  0  0  0  0
    5.8250   -4.9760   23.5210 C   0  0  0  0  0  0  0  0  0  0  0  0
    6.5510   -5.3980   22.2690 C   0  0  0  0  0  0  0  0  0  0  0  0
  1  2  1  0
  2  3  2  0
  2  4  1  0
  4  5  1  0
  5  6  1  0
  6  7  1  0
  7  8  1  0
  8  9  2  0
  8 10  1  0
 10 11  1  0
 11 12  1  0
 12 13  1  0
 13 14  1  0
 12 15  1  0
 15 16  1  0
 10 17  1  0
 17 18  1  6
 18 19  1  0
 17 20  1  0
 20 21  2  0
 21 22  1  0
 22 23  2  0
 23 24  1  0
 20 25  1  0
 24 25  2  0
  7 26  1  0
  4 27  1  0
 26 27  1  0
M  END
