piperidine-amides-26172-covalent
     RDKit          3D

 25 26  0  0  0  0  0  0  0  0999 V2000
    7.0750   -3.2980   19.2970 C   0  0  0  0  0  0  0  0  0  0  0  0
    6.3650   -4.1010   20.2920 C   0  0  0  0  0  0  0  0  0  0  0  0
    5.3290   -4.6930   19.9400 O   0  0  0  0  0  0  0  0  0  0  0  0
    6.8430   -4.2710   21.6100 N   0  0  0  0  0  0  0  0  0  0  0  0
    6.6730   -5.5340   22.3040 C   0  0  0  0  0  0  0  0  0  0  0  0
    6.1080   -5.2410   23.6770 C   0  0  0  0  0  0  0  0  0  0  0  0
    5.9620   -3.7750   23.9250 C   0  0  0  0  0  0  0  0  0  0  0  0
    5.4770   -3.4640   25.2970 C   0  0  0  0  0  0  0  0  0  0  0  0
    4.2350   -3.5010   25.5260 O   0  0  0  0  0  0  0  0  0  0  0  0
    6.2800   -3.0980   26.3950 N   0  0  0  0  0  0  0  0  0  0  0  0
    6.7540   -1.6930   26.3430 C   0  0  0  0  0  0  0  0  0  0  0  0
    6.6970   -0.9910   27.6440 C   0  0  0  0  0  0  0  0  0  0  0  0
    7.0940   -1.5450   28.9370 C   0  0  0  0  0  0  0  0  0  0  0  0
    6.9940   -0.7210   30.1750 C   0  0  0  0  0  0  0  0  0  0  0  0
    6.4850    0.7030   30.1560 C   0  0  0  0  0  0  0  0  0  0  0  0
    6.0850    1.2500   28.8240 C   0  0  0  0  0  0  0  0  0  0  0  0
    5.6170    2.5200   28.6440 O   0  0  0  0  0  0  0  0  0  0  0  0
    6.4030    3.2900   27.7950 C   0  0  0  0  0  0  0  0  0  0  0  0
    6.1860    0.4100   27.5590 C   0  0  0  0  0  0  0  0  0  0  0  0
    6.1950   -3.6920   27.6930 C   0  0  0  0  0  0  0  0  0  0  0  0
    5.9870   -5.2170   27.8420 C   0  0  0  0  0  0  0  0  0  0  0  0
    5.0990   -5.6360   28.9790 C   0  0  0  0  0  0  0  0  0  0  0  0
    5.4160   -5.8650   26.7780 C   0  0  0  0  0  0  0  0  0  0  0  0
    7.1490   -2.9790   23.5650 C   0  0  0  0  0  0  0  0  0  0  0  0
    7.5910   -3.2470   22.2900 C   0  0  0  0  0  0  0  0  0  0  0  0
  1  2  1  0
  2  3  2  0
  2  4  1  0
  4  5  1  0
  5  6  1  0
  6  7  1  0
  7  8  1  0
  8  9  2  0
  8 10  1  0
 10 11  1  0
 11 12  1  0
 12 13  2  0
 13 14  1  0
 14 15  2  0
 15 16  1  0
 16 17  1  0
 17 18  1  0
 12 19  1  0
 16 19  2  0
 10 20  1  0
 20 21  1  0
 21 22  1  0
 21 23  1  0
  7 24  1  0
  4 25  1  0
 24 25  1  0
M  END
