piperidine-amides-6796-covalent
     RDKit          3D

 23 24  0  0  0  0  0  0  0  0999 V2000
    7.1360   -3.2550   19.1600 C   0  0  0  0  0  0  0  0  0  0  0  0
    6.3480   -3.9960   20.1550 C   0  0  0  0  0  0  0  0  0  0  0  0
    5.2450   -4.5000   19.8540 O   0  0  0  0  0  0  0  0  0  0  0  0
    6.8490   -4.1990   21.4330 N   0  0  0  0  0  0  0  0  0  0  0  0
    7.7070   -3.1900   22.0250 C   0  0  0  0  0  0  0  0  0  0  0  0
    6.9590   -2.6780   23.2390 C   0  0  0  0  0  0  0  0  0  0  0  0
    6.8090   -3.8960   24.1070 C   0  0  0  0  0  0  0  0  0  0  0  0
    6.2850   -3.5010   25.4010 C   0  0  0  0  0  0  0  0  0  0  0  0
    5.0510   -3.3030   25.5490 O   0  0  0  0  0  0  0  0  0  0  0  0
    7.2360   -3.3600   26.4230 N   0  0  0  0  0  0  0  0  0  0  0  0
    6.9660   -3.8940   27.7040 C   0  0  1  0  0  0  0  0  0  0  0  0
    8.0890   -4.8580   28.0620 C   0  0  0  0  0  0  0  0  0  0  0  0
    8.7720   -5.5260   27.0810 C   0  0  0  0  0  0  0  0  0  0  0  0
    6.7010   -2.8380   28.6750 C   0  0  0  0  0  0  0  0  0  0  0  0
    7.7490   -1.9200   28.9630 C   0  0  0  0  0  0  0  0  0  0  0  0
    7.5040   -0.9250   29.8810 C   0  0  0  0  0  0  0  0  0  0  0  0
    8.0420    0.2730   30.6340 C   0  0  0  0  0  0  0  0  0  0  0  0
    6.2880   -0.6380   30.6380 C   0  0  0  0  0  0  0  0  0  0  0  0
    5.3060   -1.6560   30.2360 C   0  0  0  0  0  0  0  0  0  0  0  0
    4.3560   -1.0310   31.1540 C   0  0  0  0  0  0  0  0  0  0  0  0
    5.4710   -2.7000   29.3200 C   0  0  0  0  0  0  0  0  0  0  0  0
    5.8270   -4.8550   23.4470 C   0  0  0  0  0  0  0  0  0  0  0  0
    6.4660   -5.3660   22.1880 C   0  0  0  0  0  0  0  0  0  0  0  0
  1  2  1  0
  2  3  2  0
  2  4  1  0
  4  5  1  0
  5  6  1  0
  6  7  1  0
  7  8  1  0
  8  9  2  0
  8 10  1  0
 10 11  1  0
 11 12  1  1
 12 13  1  0
 11 14  1  0
 14 15  2  0
 15 16  1  0
 16 17  1  0
 16 18  2  0
 18 19  1  0
 19 20  1  0
 14 21  1  0
 19 21  2  0
  7 22  1  0
  4 23  1  0
 22 23  1  0
M  END
