piperidine-amides-6321-covalent
     RDKit          3D

 25 27  0  0  0  0  0  0  0  0999 V2000
    7.1170   -3.2710   19.2270 C   0  0  0  0  0  0  0  0  0  0  0  0
    6.3950   -4.0740   20.2230 C   0  0  0  0  0  0  0  0  0  0  0  0
    5.3410   -4.6740   19.9280 O   0  0  0  0  0  0  0  0  0  0  0  0
    6.9200   -4.2120   21.5070 N   0  0  0  0  0  0  0  0  0  0  0  0
    7.5820   -3.0760   22.0950 C   0  0  0  0  0  0  0  0  0  0  0  0
    6.6680   -2.6450   23.2330 C   0  0  0  0  0  0  0  0  0  0  0  0
    6.5990   -3.8560   24.1220 C   0  0  0  0  0  0  0  0  0  0  0  0
    5.8870   -3.5080   25.3680 C   0  0  0  0  0  0  0  0  0  0  0  0
    4.6520   -3.6950   25.4170 O   0  0  0  0  0  0  0  0  0  0  0  0
    6.6030   -2.9790   26.4680 N   0  0  0  0  0  0  0  0  0  0  0  0
    6.7410   -1.5640   26.6390 C   0  0  0  0  0  0  0  0  0  0  0  0
    5.3900   -1.0180   27.0350 C   0  0  0  0  0  0  0  0  0  0  0  0
    4.4250   -0.7910   25.9980 N   0  0  0  0  0  0  0  0  0  0  0  0
    3.3820   -0.3300   26.6410 N   0  0  0  0  0  0  0  0  0  0  0  0
    2.3170   -0.0370   25.8500 C   0  0  0  0  0  0  0  0  0  0  0  0
    2.3410    0.7030   24.7120 C   0  0  0  0  0  0  0  0  0  0  0  0
    1.1880    0.9050   24.0300 C   0  0  0  0  0  0  0  0  0  0  0  0
    0.0110    0.3860   24.4570 C   0  0  0  0  0  0  0  0  0  0  0  0
   -0.3260   -0.4660   25.6680 C   0  0  0  0  0  0  0  0  0  0  0  0
    1.0960   -0.5580   26.2660 C   0  0  0  0  0  0  0  0  0  0  0  0
    3.6220   -0.2550   27.9760 N   0  0  0  0  0  0  0  0  0  0  0  0
    4.8830   -0.6820   28.2570 C   0  0  0  0  0  0  0  0  0  0  0  0
    5.6130   -0.7950   29.5240 C   0  0  0  0  0  0  0  0  0  0  0  0
    5.8580   -4.9680   23.4250 C   0  0  0  0  0  0  0  0  0  0  0  0
    6.5270   -5.3340   22.2910 C   0  0  0  0  0  0  0  0  0  0  0  0
  1  2  1  0
  2  3  2  0
  2  4  1  0
  4  5  1  0
  5  6  1  0
  6  7  1  0
  7  8  1  0
  8  9  2  0
  8 10  1  0
 10 11  1  0
 11 12  1  0
 12 13  2  0
 13 14  1  0
 14 15  1  0
 15 16  2  0
 16 17  1  0
 17 18  2  0
 18 19  1  0
 15 20  1  0
 19 20  2  0
 14 21  1  0
 12 22  1  0
 21 22  2  0
 22 23  1  0
  7 24  1  0
  4 25  1  0
 24 25  1  0
M  END
