piperidine-amides-25852-covalent
     RDKit          3D

 25 27  0  0  0  0  0  0  0  0999 V2000
    7.0670   -3.3580   19.3800 C   0  0  0  0  0  0  0  0  0  0  0  0
    6.3960   -4.2700   20.3420 C   0  0  0  0  0  0  0  0  0  0  0  0
    5.3550   -4.8040   19.9670 O   0  0  0  0  0  0  0  0  0  0  0  0
    6.9750   -4.5350   21.5850 N   0  0  0  0  0  0  0  0  0  0  0  0
    6.5380   -5.6300   22.4120 C   0  0  0  0  0  0  0  0  0  0  0  0
    6.1240   -5.1390   23.7830 C   0  0  0  0  0  0  0  0  0  0  0  0
    5.7930   -3.6410   23.7880 C   0  0  0  0  0  0  0  0  0  0  0  0
    5.7350   -3.1940   25.1840 C   0  0  0  0  0  0  0  0  0  0  0  0
    4.7060   -3.3610   25.8520 O   0  0  0  0  0  0  0  0  0  0  0  0
    6.8610   -2.5670   25.7350 N   0  0  0  0  0  0  0  0  0  0  0  0
    8.1220   -3.2380   25.7610 C   0  0  0  0  0  0  0  0  0  0  0  0
    9.1090   -2.6070   24.7920 C   0  0  0  0  0  0  0  0  0  0  0  0
    8.7450   -1.4120   24.2190 C   0  0  0  0  0  0  0  0  0  0  0  0
    9.5130   -0.7530   23.3930 C   0  0  0  0  0  0  0  0  0  0  0  0
   10.6580   -1.3230   23.1570 C   0  0  0  0  0  0  0  0  0  0  0  0
   11.3690   -0.5950   22.3460 N   0  0  0  0  0  0  0  0  0  0  0  0
   10.8980    0.6640   22.4070 O   0  0  0  0  0  0  0  0  0  0  0  0
   12.6810   -0.7970   22.1850 O   0  0  0  0  0  0  0  0  0  0  0  0
   11.2700   -2.5860   23.6250 C   0  0  0  0  0  0  0  0  0  0  0  0
   10.3960   -3.3890   24.5890 C   0  0  0  0  0  0  0  0  0  0  0  0
    6.7690   -1.3480   26.4970 C   0  0  0  0  0  0  0  0  0  0  0  0
    5.6660   -1.0420   27.2200 C   0  0  0  0  0  0  0  0  0  0  0  0
    6.9400   -1.2380   28.0660 C   0  0  0  0  0  0  0  0  0  0  0  0
    6.6730   -2.7570   22.9960 C   0  0  0  0  0  0  0  0  0  0  0  0
    7.7070   -3.5020   22.2640 C   0  0  0  0  0  0  0  0  0  0  0  0
  1  2  1  0
  2  3  2  0
  2  4  1  0
  4  5  1  0
  5  6  1  0
  6  7  1  0
  7  8  1  0
  8  9  2  0
  8 10  1  0
 10 11  1  0
 11 12  1  0
 12 13  2  0
 13 14  1  0
 14 15  2  0
 15 16  1  0
 16 17  2  0
 16 18  1  0
 15 19  1  0
 12 20  1  0
 19 20  2  0
 10 21  1  0
 21 22  1  0
 21 23  1  0
 22 23  1  0
  7 24  1  0
  4 25  1  0
 24 25  1  0
M  CHG  2  16   1  18  -1
M  END
