piperidine-amides-34962-covalent
     RDKit          3D

 28 31  0  0  0  0  0  0  0  0999 V2000
    7.0380   -3.3300   19.3390 C   0  0  0  0  0  0  0  0  0  0  0  0
    6.3700   -4.2060   20.3330 C   0  0  0  0  0  0  0  0  0  0  0  0
    5.3640   -4.8080   19.9650 O   0  0  0  0  0  0  0  0  0  0  0  0
    6.9090   -4.3640   21.6180 N   0  0  0  0  0  0  0  0  0  0  0  0
    6.6190   -5.5200   22.4180 C   0  0  0  0  0  0  0  0  0  0  0  0
    5.8220   -5.0890   23.6210 C   0  0  0  0  0  0  0  0  0  0  0  0
    6.4920   -3.8810   24.2850 C   0  0  0  0  0  0  0  0  0  0  0  0
    5.5900   -3.3280   25.3380 C   0  0  0  0  0  0  0  0  0  0  0  0
    4.7980   -2.4320   25.0310 O   0  0  0  0  0  0  0  0  0  0  0  0
    5.5930   -3.7960   26.6810 N   0  0  0  0  0  0  0  0  0  0  0  0
    4.4030   -3.7660   27.4640 C   0  0  0  0  0  0  0  0  0  0  0  0
    4.8850   -3.7110   28.9300 C   0  0  0  0  0  0  0  0  0  0  0  0
    5.4510   -5.0110   29.3740 N   0  0  0  0  0  0  0  0  0  0  0  0
    4.4160   -5.9900   29.0200 C   0  0  0  0  0  0  0  0  0  0  0  0
    4.4370   -6.0490   30.3470 N   0  0  0  0  0  0  0  0  0  0  0  0
    3.5190   -6.9500   30.8230 C   0  0  0  0  0  0  0  0  0  0  0  0
    2.7330   -7.6370   29.9140 N   0  0  0  0  0  0  0  0  0  0  0  0
    2.7500   -7.5380   28.5570 C   0  0  0  0  0  0  0  0  0  0  0  0
    1.7870   -8.3930   27.7500 C   0  0  0  0  0  0  0  0  0  0  0  0
    1.8470   -8.2490   26.2610 C   0  0  0  0  0  0  0  0  0  0  0  0
    2.8150   -7.3030   25.6120 C   0  0  0  0  0  0  0  0  0  0  0  0
    2.8900   -7.1060   23.7000 Br  0  0  0  0  0  0  0  0  0  0  0  0
    3.7010   -6.5270   26.5260 C   0  0  0  0  0  0  0  0  0  0  0  0
    3.7330   -6.5820   28.0170 C   0  0  0  0  0  0  0  0  0  0  0  0
    6.5960   -4.8290   28.5530 C   0  0  0  0  0  0  0  0  0  0  0  0
    6.3660   -3.5740   27.7970 C   0  0  0  0  0  0  0  0  0  0  0  0
    6.7920   -2.7910   23.2630 C   0  0  0  0  0  0  0  0  0  0  0  0
    7.6200   -3.2790   22.2760 C   0  0  0  0  0  0  0  0  0  0  0  0
  1  2  1  0
  2  3  2  0
  2  4  1  0
  4  5  1  0
  5  6  1  0
  6  7  1  0
  7  8  1  0
  8  9  2  0
  8 10  1  0
 10 11  1  0
 11 12  1  0
 12 13  1  0
 13 14  1  0
 14 15  2  0
 15 16  1  0
 16 17  2  0
 17 18  1  0
 18 19  1  0
 19 20  2  0
 20 21  1  0
 21 22  1  0
 21 23  2  0
 14 24  1  0
 18 24  2  0
 23 24  1  0
 13 25  1  0
 10 26  1  0
 25 26  1  0
  7 27  1  0
  4 28  1  0
 27 28  1  0
M  END
