piperidine-amides-256-covalent
     RDKit          3D

 28 31  0  0  0  0  0  0  0  0999 V2000
    7.0480   -3.3050   19.1690 C   0  0  0  0  0  0  0  0  0  0  0  0
    6.2740   -3.9710   20.1970 C   0  0  0  0  0  0  0  0  0  0  0  0
    5.1880   -4.5110   19.8500 O   0  0  0  0  0  0  0  0  0  0  0  0
    6.6810   -4.1030   21.5340 N   0  0  0  0  0  0  0  0  0  0  0  0
    6.5900   -5.4710   22.0950 C   0  0  0  0  0  0  0  0  0  0  0  0
    6.2320   -5.1670   23.5990 C   0  0  0  0  0  0  0  0  0  0  0  0
    5.8580   -3.7050   23.6480 C   0  0  0  0  0  0  0  0  0  0  0  0
    4.9900   -3.4180   24.9520 C   0  0  0  0  0  0  0  0  0  0  0  0
    4.0980   -4.2410   25.0620 O   0  0  0  0  0  0  0  0  0  0  0  0
    5.4230   -2.4020   25.5640 N   0  0  0  0  0  0  0  0  0  0  0  0
    5.8040   -1.3310   26.2950 C   0  0  0  0  0  0  0  0  0  0  0  0
    6.4080   -0.9870   27.4490 C   0  0  0  0  0  0  0  0  0  0  0  0
    6.8650    0.3390   27.6430 C   0  0  0  0  0  0  0  0  0  0  0  0
    7.7510    0.0970   28.7540 C   0  0  0  0  0  0  0  0  0  0  0  0
    7.6580   -1.2810   28.9680 N   0  0  0  0  0  0  0  0  0  0  0  0
    8.0280   -2.1240   27.8150 C   0  0  0  0  0  0  0  0  0  0  0  0
    8.5490   -1.3650   26.8140 N   0  0  0  0  0  0  0  0  0  0  0  0
    8.9060   -2.0230   25.6860 C   0  0  0  0  0  0  0  0  0  0  0  0
    8.7640   -3.4800   25.5240 N   0  0  0  0  0  0  0  0  0  0  0  0
    8.2660   -4.2950   26.4640 C   0  0  0  0  0  0  0  0  0  0  0  0
    8.0330   -5.6710   26.5590 N   0  0  0  0  0  0  0  0  0  0  0  0
    7.5090   -5.8910   27.7460 C   0  0  0  0  0  0  0  0  0  0  0  0
    7.4120   -4.5430   28.4360 C   0  0  0  0  0  0  0  0  0  0  0  0
    7.8790   -3.5200   27.6770 C   0  0  0  0  0  0  0  0  0  0  0  0
    6.3920   -1.5110   29.5840 C   0  0  0  0  0  0  0  0  0  0  0  0
    5.4730   -1.2000   28.6060 C   0  0  0  0  0  0  0  0  0  0  0  0
    6.9280   -2.7140   23.3240 C   0  0  0  0  0  0  0  0  0  0  0  0
    7.5540   -3.1450   22.1580 C   0  0  0  0  0  0  0  0  0  0  0  0
  1  2  1  0
  2  3  2  0
  2  4  1  0
  4  5  1  0
  5  6  1  0
  6  7  1  0
  7  8  1  0
  8  9  2  0
  8 10  1  0
 10 11  1  0
 11 12  1  0
 12 13  1  0
 13 14  1  0
 14 15  1  0
 15 16  1  0
 16 17  2  0
 17 18  1  0
 18 19  2  0
 19 20  1  0
 20 21  1  0
 21 22  1  0
 22 23  2  0
 16 24  1  0
 20 24  2  0
 23 24  1  0
 15 25  1  0
 12 26  1  0
 25 26  1  0
  7 27  1  0
  4 28  1  0
 27 28  1  0
M  END
