piperidine-amides-17916-covalent
     RDKit          3D

 21 22  0  0  0  0  0  0  0  0999 V2000
    7.1370   -3.2580   19.3320 C   0  0  0  0  0  0  0  0  0  0  0  0
    6.3700   -4.0120   20.3070 C   0  0  0  0  0  0  0  0  0  0  0  0
    5.3310   -4.6250   19.9140 O   0  0  0  0  0  0  0  0  0  0  0  0
    6.7540   -4.1180   21.6650 N   0  0  0  0  0  0  0  0  0  0  0  0
    6.6890   -5.4780   22.2440 C   0  0  0  0  0  0  0  0  0  0  0  0
    6.0370   -5.2010   23.6540 C   0  0  0  0  0  0  0  0  0  0  0  0
    6.3080   -3.7570   23.9980 C   0  0  0  0  0  0  0  0  0  0  0  0
    5.7020   -3.3810   25.4200 C   0  0  0  0  0  0  0  0  0  0  0  0
    4.4770   -3.4490   25.3810 O   0  0  0  0  0  0  0  0  0  0  0  0
    6.6330   -3.0970   26.2510 N   0  0  0  0  0  0  0  0  0  0  0  0
    7.3900   -2.4180   27.1520 C   0  0  0  0  0  0  0  0  0  0  0  0
    7.0920   -1.6900   28.2710 C   0  0  0  0  0  0  0  0  0  0  0  0
    7.9820   -1.4030   29.3270 C   0  0  0  0  0  0  0  0  0  0  0  0
    7.4360   -0.5990   30.4350 C   0  0  0  0  0  0  0  0  0  0  0  0
    6.0590   -0.4980   29.7800 C   0  0  0  0  0  0  0  0  0  0  0  0
    5.8350   -1.1180   28.5320 O   0  0  0  0  0  0  0  0  0  0  0  0
    7.6160   -4.1190   26.7060 C   0  0  0  0  0  0  0  0  0  0  0  0
    7.1260   -5.3440   27.2110 C   0  0  0  0  0  0  0  0  0  0  0  0
    7.9130   -4.3370   28.1680 C   0  0  0  0  0  0  0  0  0  0  0  0
    7.6710   -3.3140   23.5960 C   0  0  0  0  0  0  0  0  0  0  0  0
    7.6530   -3.1410   22.2360 C   0  0  0  0  0  0  0  0  0  0  0  0
  1  2  1  0
  2  3  2  0
  2  4  1  0
  4  5  1  0
  5  6  1  0
  6  7  1  0
  7  8  1  0
  8  9  2  0
  8 10  1  0
 10 11  1  0
 11 12  1  0
 12 13  2  0
 13 14  1  0
 14 15  2  0
 12 16  1  0
 15 16  1  0
 10 17  1  0
 17 18  1  0
 17 19  1  0
  7 20  1  0
  4 21  1  0
 20 21  1  0
M  END
