piperidine-amides-12804-covalent
     RDKit          3D

 22 23  0  0  0  0  0  0  0  0999 V2000
    7.1150   -3.2600   19.1450 C   0  0  0  0  0  0  0  0  0  0  0  0
    6.3520   -3.9840   20.1860 C   0  0  0  0  0  0  0  0  0  0  0  0
    5.2500   -4.4490   19.8420 O   0  0  0  0  0  0  0  0  0  0  0  0
    6.8740   -4.1900   21.4650 N   0  0  0  0  0  0  0  0  0  0  0  0
    7.5960   -3.1300   22.1030 C   0  0  0  0  0  0  0  0  0  0  0  0
    7.0660   -2.7220   23.4040 C   0  0  0  0  0  0  0  0  0  0  0  0
    6.5000   -3.8210   24.2120 C   0  0  0  0  0  0  0  0  0  0  0  0
    5.7710   -3.2990   25.3920 C   0  0  0  0  0  0  0  0  0  0  0  0
    4.5530   -3.0570   25.2710 O   0  0  0  0  0  0  0  0  0  0  0  0
    6.4280   -3.0660   26.6190 N   0  0  0  0  0  0  0  0  0  0  0  0
    6.2300   -3.9020   27.8350 C   0  0  0  0  0  0  0  0  0  0  0  0
    5.9390   -5.3420   27.5360 C   0  0  0  0  0  0  0  0  0  0  0  0
    4.6010   -5.8120   27.6830 N   0  0  0  0  0  0  0  0  0  0  0  0
    3.7490   -5.2890   28.7240 C   0  0  0  0  0  0  0  0  0  0  0  0
    2.5940   -4.7820   28.5090 O   0  0  0  0  0  0  0  0  0  0  0  0
    4.4200   -5.4520   29.9170 C   0  0  0  0  0  0  0  0  0  0  0  0
    5.1700   -6.6170   30.0860 C   0  0  0  0  0  0  0  0  0  0  0  0
    4.8690   -7.1410   31.3100 C   0  0  0  0  0  0  0  0  0  0  0  0
    3.9480   -6.3440   31.9090 C   0  0  0  0  0  0  0  0  0  0  0  0
    3.6370   -5.3150   31.0750 C   0  0  0  0  0  0  0  0  0  0  0  0
    5.6540   -4.7480   23.3810 C   0  0  0  0  0  0  0  0  0  0  0  0
    6.4590   -5.3080   22.2780 C   0  0  0  0  0  0  0  0  0  0  0  0
  1  2  1  0
  2  3  2  0
  2  4  1  0
  4  5  1  0
  5  6  1  0
  6  7  1  0
  7  8  1  0
  8  9  2  0
  8 10  1  0
 10 11  1  0
 11 12  1  0
 12 13  1  0
 13 14  1  0
 14 15  2  0
 14 16  1  0
 16 17  1  0
 17 18  1  0
 18 19  1  0
 16 20  1  0
 19 20  1  0
  7 21  1  0
  4 22  1  0
 21 22  1  0
M  END
