piperidine-amides-2464-covalent
     RDKit          3D

 26 29  0  0  0  0  0  0  0  0999 V2000
    7.1110   -3.3290   19.2750 C   0  0  0  0  0  0  0  0  0  0  0  0
    6.3700   -4.1370   20.2750 C   0  0  0  0  0  0  0  0  0  0  0  0
    5.3150   -4.6560   19.9190 O   0  0  0  0  0  0  0  0  0  0  0  0
    6.9170   -4.3130   21.5400 N   0  0  0  0  0  0  0  0  0  0  0  0
    7.6750   -3.2550   22.1490 C   0  0  0  0  0  0  0  0  0  0  0  0
    6.8680   -2.7100   23.2770 C   0  0  0  0  0  0  0  0  0  0  0  0
    6.5810   -3.8460   24.2490 C   0  0  0  0  0  0  0  0  0  0  0  0
    5.8840   -3.2440   25.4000 C   0  0  0  0  0  0  0  0  0  0  0  0
    4.6490   -3.3080   25.4930 O   0  0  0  0  0  0  0  0  0  0  0  0
    6.6450   -2.5840   26.3790 N   0  0  0  0  0  0  0  0  0  0  0  0
    6.0010   -1.6170   27.2320 C   0  0  2  0  0  0  0  0  0  0  0  0
    5.8450   -0.2870   26.4840 C   0  0  0  0  0  0  0  0  0  0  0  0
    5.6320    0.9520   27.0760 C   0  0  0  0  0  0  0  0  0  0  0  0
    6.0560    1.1110   28.3500 C   0  0  0  0  0  0  0  0  0  0  0  0
    5.9880    2.3120   29.1860 N   0  0  0  0  0  0  0  0  0  0  0  0
    6.5690    1.9740   30.4750 C   0  0  0  0  0  0  0  0  0  0  0  0
    6.6970    2.9410   31.6510 C   0  0  0  0  0  0  0  0  0  0  0  0
    7.3440    2.2920   32.8580 C   0  0  0  0  0  0  0  0  0  0  0  0
    7.7700    0.8450   32.7820 C   0  0  0  0  0  0  0  0  0  0  0  0
    8.3990    0.3150   34.0330 C   0  0  0  0  0  0  0  0  0  0  0  0
    7.6200   -0.0600   31.5960 C   0  0  0  0  0  0  0  0  0  0  0  0
    6.9880    0.5600   30.4050 C   0  0  0  0  0  0  0  0  0  0  0  0
    6.6780    0.0070   29.0890 C   0  0  0  0  0  0  0  0  0  0  0  0
    6.8810   -1.3360   28.5030 C   0  0  0  0  0  0  0  0  0  0  0  0
    5.7330   -4.8960   23.5690 C   0  0  0  0  0  0  0  0  0  0  0  0
    6.4170   -5.4030   22.3250 C   0  0  0  0  0  0  0  0  0  0  0  0
  1  2  1  0
  2  3  2  0
  2  4  1  0
  4  5  1  0
  5  6  1  0
  6  7  1  0
  7  8  1  0
  8  9  2  0
  8 10  1  0
 11 10  1  6
 11 12  1  0
 12 13  1  0
 13 14  1  0
 14 15  1  0
 15 16  1  0
 16 17  2  0
 17 18  1  0
 18 19  2  0
 19 20  1  0
 19 21  1  0
 16 22  1  0
 21 22  2  0
 14 23  2  0
 22 23  1  0
 11 24  1  0
 23 24  1  0
  7 25  1  0
  4 26  1  0
 25 26  1  0
M  END
