piperidine-amides-31109-covalent
     RDKit          3D

 23 25  0  0  0  0  0  0  0  0999 V2000
    7.0630   -3.3680   19.3780 C   0  0  0  0  0  0  0  0  0  0  0  0
    6.3640   -4.1970   20.3680 C   0  0  0  0  0  0  0  0  0  0  0  0
    5.3900   -4.8720   19.9920 O   0  0  0  0  0  0  0  0  0  0  0  0
    6.7930   -4.2820   21.7120 N   0  0  0  0  0  0  0  0  0  0  0  0
    6.6940   -5.5260   22.4660 C   0  0  0  0  0  0  0  0  0  0  0  0
    6.0970   -5.1980   23.8170 C   0  0  0  0  0  0  0  0  0  0  0  0
    6.1450   -3.7330   24.0760 C   0  0  0  0  0  0  0  0  0  0  0  0
    5.7090   -3.3250   25.4440 C   0  0  0  0  0  0  0  0  0  0  0  0
    4.8180   -2.4340   25.5440 O   0  0  0  0  0  0  0  0  0  0  0  0
    6.1770   -3.8700   26.6660 N   0  0  0  0  0  0  0  0  0  0  0  0
    5.6930   -5.2270   27.0260 C   0  0  0  0  0  0  0  0  0  0  0  0
    5.4100   -5.3230   28.4700 C   0  0  0  0  0  0  0  0  0  0  0  0
    4.9310   -4.0790   29.0150 C   0  0  0  0  0  0  0  0  0  0  0  0
    3.7410   -4.0980   29.9250 C   0  0  0  0  0  0  0  0  0  0  0  0
    3.2800   -2.7610   30.4690 C   0  0  0  0  0  0  0  0  0  0  0  0
    4.0480   -1.5510   30.0510 C   0  0  0  0  0  0  0  0  0  0  0  0
    3.5210    0.1630   30.7050 Br  0  0  0  0  0  0  0  0  0  0  0  0
    5.1260   -1.6860   29.1960 C   0  0  0  0  0  0  0  0  0  0  0  0
    5.8440   -0.6000   28.7920 F   0  0  0  0  0  0  0  0  0  0  0  0
    5.5340   -2.9350   28.7020 C   0  0  0  0  0  0  0  0  0  0  0  0
    6.6490   -3.1410   27.7880 C   0  0  0  0  0  0  0  0  0  0  0  0
    7.4570   -3.1080   23.7310 C   0  0  0  0  0  0  0  0  0  0  0  0
    7.6430   -3.2130   22.2370 C   0  0  0  0  0  0  0  0  0  0  0  0
  1  2  1  0
  2  3  2  0
  2  4  1  0
  4  5  1  0
  5  6  1  0
  6  7  1  0
  7  8  1  0
  8  9  2  0
  8 10  1  0
 10 11  1  0
 11 12  1  0
 12 13  1  0
 13 14  2  0
 14 15  1  0
 15 16  2  0
 16 17  1  0
 16 18  1  0
 18 19  1  0
 13 20  1  0
 18 20  2  0
 10 21  1  0
 20 21  1  0
  7 22  1  0
  4 23  1  0
 22 23  1  0
M  END
