piperidine-amides-14090-covalent
     RDKit          3D

 25 27  0  0  0  0  0  0  0  0999 V2000
    7.1350   -3.2970   19.2310 C   0  0  0  0  0  0  0  0  0  0  0  0
    6.3250   -4.0380   20.2370 C   0  0  0  0  0  0  0  0  0  0  0  0
    5.2660   -4.5790   19.8910 O   0  0  0  0  0  0  0  0  0  0  0  0
    6.8270   -4.1410   21.5480 N   0  0  0  0  0  0  0  0  0  0  0  0
    7.7450   -3.1540   22.0850 C   0  0  0  0  0  0  0  0  0  0  0  0
    7.4730   -2.9870   23.5770 C   0  0  0  0  0  0  0  0  0  0  0  0
    6.0820   -3.4440   23.8100 C   0  0  0  0  0  0  0  0  0  0  0  0
    5.5800   -3.0270   25.1290 C   0  0  0  0  0  0  0  0  0  0  0  0
    4.5520   -3.5640   25.5520 O   0  0  0  0  0  0  0  0  0  0  0  0
    6.3050   -2.0520   25.8080 N   0  0  0  0  0  0  0  0  0  0  0  0
    5.8440   -0.8760   26.4600 C   0  0  0  0  0  0  0  0  0  0  0  0
    4.7190   -0.7810   27.2560 C   0  0  2  0  0  0  0  0  0  0  0  0
    4.1870    0.4910   27.5230 C   0  0  0  0  0  0  0  0  0  0  0  0
    4.2310    0.7240   28.8700 C   0  0  0  0  0  0  0  0  0  0  0  0
    4.7360   -0.3330   29.5260 N   0  0  0  0  0  0  0  0  0  0  0  0
    5.5230   -0.1550   30.6080 C   0  0  0  0  0  0  0  0  0  0  0  0
    7.0370   -0.0690   30.5340 C   0  0  0  0  0  0  0  0  0  0  0  0
    7.7020    0.1340   31.8600 C   0  0  0  0  0  0  0  0  0  0  0  0
    7.0310    0.2350   33.0370 C   0  0  0  0  0  0  0  0  0  0  0  0
    5.5650    0.1720   33.2930 C   0  0  0  0  0  0  0  0  0  0  0  0
    4.8260   -0.0370   31.9420 C   0  0  0  0  0  0  0  0  0  0  0  0
    3.4630   -0.1140   32.0200 F   0  0  0  0  0  0  0  0  0  0  0  0
    4.9790   -1.3510   28.6910 C   0  0  0  0  0  0  0  0  0  0  0  0
    5.9010   -4.9140   23.6460 C   0  0  0  0  0  0  0  0  0  0  0  0
    6.5470   -5.3300   22.3450 C   0  0  0  0  0  0  0  0  0  0  0  0
  1  2  1  0
  2  3  2  0
  2  4  1  0
  4  5  1  0
  5  6  1  0
  6  7  1  0
  7  8  1  0
  8  9  2  0
  8 10  1  0
 10 11  1  0
 12 11  1  6
 12 13  1  0
 13 14  1  0
 14 15  1  0
 15 16  1  0
 16 17  2  0
 17 18  1  0
 18 19  2  0
 19 20  1  0
 16 21  1  0
 20 21  2  0
 21 22  1  0
 12 23  1  0
 15 23  1  0
  7 24  1  0
  4 25  1  0
 24 25  1  0
M  END
