piperidine-amides-12226-covalent
     RDKit          3D

 24 26  0  0  0  0  0  0  0  0999 V2000
    7.1050   -3.2810   19.2560 C   0  0  0  0  0  0  0  0  0  0  0  0
    6.3590   -4.0620   20.2360 C   0  0  0  0  0  0  0  0  0  0  0  0
    5.3110   -4.6180   19.9110 O   0  0  0  0  0  0  0  0  0  0  0  0
    6.8740   -4.2340   21.5660 N   0  0  0  0  0  0  0  0  0  0  0  0
    6.5150   -5.3920   22.3300 C   0  0  0  0  0  0  0  0  0  0  0  0
    5.8180   -4.9720   23.5930 C   0  0  0  0  0  0  0  0  0  0  0  0
    6.5520   -3.7780   24.1950 C   0  0  0  0  0  0  0  0  0  0  0  0
    5.7840   -3.2760   25.3720 C   0  0  0  0  0  0  0  0  0  0  0  0
    4.5660   -3.0240   25.3010 O   0  0  0  0  0  0  0  0  0  0  0  0
    6.4430   -3.0820   26.6140 N   0  0  0  0  0  0  0  0  0  0  0  0
    6.1680   -4.0110   27.6900 C   0  0  0  0  0  0  0  0  0  0  0  0
    5.5100   -3.2570   28.8150 C   0  0  0  0  0  0  0  0  0  0  0  0
    5.9540   -1.9940   29.2260 O   0  0  0  0  0  0  0  0  0  0  0  0
    5.1520   -1.6030   30.2580 C   0  0  0  0  0  0  0  0  0  0  0  0
    5.2560   -0.3950   30.9650 C   0  0  0  0  0  0  0  0  0  0  0  0
    4.3370   -0.1950   31.9840 C   0  0  0  0  0  0  0  0  0  0  0  0
    3.3370   -1.2180   32.2620 C   0  0  0  0  0  0  0  0  0  0  0  0
    2.0420   -1.0140   33.6450 Br  0  0  0  0  0  0  0  0  0  0  0  0
    3.2920   -2.3750   31.5320 C   0  0  0  0  0  0  0  0  0  0  0  0
    4.2150   -2.5410   30.5340 C   0  0  0  0  0  0  0  0  0  0  0  0
    4.4390   -3.5650   29.6390 C   0  0  0  0  0  0  0  0  0  0  0  0
    3.7470   -4.8450   29.4590 C   0  0  0  0  0  0  0  0  0  0  0  0
    6.8120   -2.6610   23.2030 C   0  0  0  0  0  0  0  0  0  0  0  0
    7.6260   -3.1920   22.2140 C   0  0  0  0  0  0  0  0  0  0  0  0
  1  2  1  0
  2  3  2  0
  2  4  1  0
  4  5  1  0
  5  6  1  0
  6  7  1  0
  7  8  1  0
  8  9  2  0
  8 10  1  0
 10 11  1  0
 11 12  1  0
 12 13  1  0
 13 14  1  0
 14 15  2  0
 15 16  1  0
 16 17  2  0
 17 18  1  0
 17 19  1  0
 14 20  1  0
 19 20  2  0
 12 21  2  0
 20 21  1  0
 21 22  1  0
  7 23  1  0
  4 24  1  0
 23 24  1  0
M  END
