piperidine-amides-28791-covalent
     RDKit          3D

 27 30  0  0  0  0  0  0  0  0999 V2000
    7.0360   -3.3430   19.3750 C   0  0  0  0  0  0  0  0  0  0  0  0
    6.3830   -4.2150   20.3480 C   0  0  0  0  0  0  0  0  0  0  0  0
    5.3700   -4.8360   19.9790 O   0  0  0  0  0  0  0  0  0  0  0  0
    6.9150   -4.3860   21.6550 N   0  0  0  0  0  0  0  0  0  0  0  0
    7.6300   -3.3140   22.2970 C   0  0  0  0  0  0  0  0  0  0  0  0
    6.8570   -2.8020   23.4840 C   0  0  0  0  0  0  0  0  0  0  0  0
    6.4470   -4.0030   24.3140 C   0  0  0  0  0  0  0  0  0  0  0  0
    5.5180   -3.6030   25.4500 C   0  0  0  0  0  0  0  0  0  0  0  0
    4.3900   -3.3320   25.0550 O   0  0  0  0  0  0  0  0  0  0  0  0
    5.8550   -3.5320   26.8300 N   0  0  0  0  0  0  0  0  0  0  0  0
    6.4350   -4.5900   27.5720 C   0  0  0  0  0  0  0  0  0  0  0  0
    5.5950   -4.9140   28.5680 C   0  0  0  0  0  0  0  0  0  0  0  0
    4.7440   -3.8600   28.6890 C   0  0  0  0  0  0  0  0  0  0  0  0
    4.7670   -2.9610   27.6160 C   0  0  1  0  0  0  0  0  0  0  0  0
    5.0370   -1.6230   28.2200 C   0  0  0  0  0  0  0  0  0  0  0  0
    4.7470   -0.4310   27.2810 C   0  0  0  0  0  0  0  0  0  0  0  0
    5.9440    0.1580   26.6380 C   0  0  0  0  0  0  0  0  0  0  0  0
    5.6630    1.3150   25.7260 C   0  0  0  0  0  0  0  0  0  0  0  0
    4.1880    1.7330   25.5800 C   0  0  0  0  0  0  0  0  0  0  0  0
    3.1520    1.1120   26.2260 C   0  0  0  0  0  0  0  0  0  0  0  0
    1.8370    1.5610   26.0310 C   0  0  0  0  0  0  0  0  0  0  0  0
    0.6640    0.9100   26.7180 C   0  0  0  0  0  0  0  0  0  0  0  0
    0.8870   -0.2320   27.6220 C   0  0  0  0  0  0  0  0  0  0  0  0
    2.2870   -0.6990   27.8220 C   0  0  0  0  0  0  0  0  0  0  0  0
    3.4250    0.0240   27.0820 C   0  0  0  0  0  0  0  0  0  0  0  0
    5.7780   -5.1090   23.5550 C   0  0  0  0  0  0  0  0  0  0  0  0
    6.6000   -5.5810   22.3810 C   0  0  0  0  0  0  0  0  0  0  0  0
  1  2  1  0
  2  3  2  0
  2  4  1  0
  4  5  1  0
  5  6  1  0
  6  7  1  0
  7  8  1  0
  8  9  2  0
  8 10  1  0
 10 11  1  0
 11 12  1  0
 12 13  1  0
 10 14  1  0
 13 14  1  0
 14 15  1  1
 15 16  1  0
 16 17  2  0
 17 18  1  0
 18 19  2  0
 19 20  1  0
 20 21  1  0
 21 22  2  0
 22 23  1  0
 23 24  2  0
 16 25  1  0
 20 25  2  0
 24 25  1  0
  7 26  1  0
  4 27  1  0
 26 27  1  0
M  END
