piperidine-amides-29662-covalent
     RDKit          3D

 22 23  0  0  0  0  0  0  0  0999 V2000
    7.0560   -3.3320   19.2840 C   0  0  0  0  0  0  0  0  0  0  0  0
    6.3580   -4.1420   20.2750 C   0  0  0  0  0  0  0  0  0  0  0  0
    5.3260   -4.7270   19.9490 O   0  0  0  0  0  0  0  0  0  0  0  0
    6.8840   -4.3120   21.6060 N   0  0  0  0  0  0  0  0  0  0  0  0
    6.5520   -5.5110   22.3430 C   0  0  0  0  0  0  0  0  0  0  0  0
    6.0690   -5.2130   23.7500 C   0  0  0  0  0  0  0  0  0  0  0  0
    6.0500   -3.7120   23.9850 C   0  0  0  0  0  0  0  0  0  0  0  0
    5.5360   -3.3970   25.3510 C   0  0  0  0  0  0  0  0  0  0  0  0
    4.3280   -3.5270   25.6260 O   0  0  0  0  0  0  0  0  0  0  0  0
    6.3960   -2.9390   26.3750 N   0  0  0  0  0  0  0  0  0  0  0  0
    6.3660   -3.7180   27.6010 C   0  0  0  0  0  0  0  0  0  0  0  0
    6.5480   -1.5090   26.4560 C   0  0  0  0  0  0  0  0  0  0  0  0
    6.2770   -0.7250   25.3450 C   0  0  0  0  0  0  0  0  0  0  0  0
    5.0050   -0.0970   25.2390 C   0  0  0  0  0  0  0  0  0  0  0  0
    4.7000    0.7010   24.1460 C   0  0  0  0  0  0  0  0  0  0  0  0
    5.7170    0.8590   23.1430 C   0  0  0  0  0  0  0  0  0  0  0  0
    5.3480    1.6600   22.0990 F   0  0  0  0  0  0  0  0  0  0  0  0
    6.9340    0.2760   23.2130 C   0  0  0  0  0  0  0  0  0  0  0  0
    8.2860    0.4870   21.8880 Br  0  0  0  0  0  0  0  0  0  0  0  0
    7.1910   -0.5100   24.3150 C   0  0  0  0  0  0  0  0  0  0  0  0
    7.2800   -3.0050   23.5840 C   0  0  0  0  0  0  0  0  0  0  0  0
    7.6490   -3.2690   22.2020 C   0  0  0  0  0  0  0  0  0  0  0  0
  1  2  1  0
  2  3  2  0
  2  4  1  0
  4  5  1  0
  5  6  1  0
  6  7  1  0
  7  8  1  0
  8  9  2  0
  8 10  1  0
 10 11  1  0
 10 12  1  0
 12 13  1  0
 13 14  2  0
 14 15  1  0
 15 16  2  0
 16 17  1  0
 16 18  1  0
 18 19  1  0
 13 20  1  0
 18 20  2  0
  7 21  1  0
  4 22  1  0
 21 22  1  0
M  END
