piperidine-amides-6975-covalent
     RDKit          3D

 22 23  0  0  0  0  0  0  0  0999 V2000
    7.1690   -3.2800   19.2490 C   0  0  0  0  0  0  0  0  0  0  0  0
    6.3730   -4.0280   20.2290 C   0  0  0  0  0  0  0  0  0  0  0  0
    5.2980   -4.5720   19.8960 O   0  0  0  0  0  0  0  0  0  0  0  0
    6.8540   -4.1780   21.5330 N   0  0  0  0  0  0  0  0  0  0  0  0
    7.6930   -3.1510   22.1070 C   0  0  0  0  0  0  0  0  0  0  0  0
    6.8880   -2.5430   23.2500 C   0  0  0  0  0  0  0  0  0  0  0  0
    6.6030   -3.6970   24.1750 C   0  0  0  0  0  0  0  0  0  0  0  0
    5.8230   -3.1900   25.3210 C   0  0  0  0  0  0  0  0  0  0  0  0
    4.7760   -2.5540   25.0800 O   0  0  0  0  0  0  0  0  0  0  0  0
    6.2630   -3.4150   26.6510 N   0  0  0  0  0  0  0  0  0  0  0  0
    6.1440   -4.7200   27.2480 C   0  0  0  0  0  0  0  0  0  0  0  0
    4.7050   -4.9820   27.5650 C   0  0  2  0  0  0  0  0  0  0  0  0
    4.3630   -5.6830   28.6940 C   0  0  0  0  0  0  0  0  0  0  0  0
    3.8720   -5.0500   29.6800 O   0  0  0  0  0  0  0  0  0  0  0  0
    4.1600   -5.7380   26.3570 C   0  0  0  0  0  0  0  0  0  0  0  0
    3.5350   -4.9930   25.3400 C   0  0  0  0  0  0  0  0  0  0  0  0
    3.0460   -5.6520   24.2420 C   0  0  0  0  0  0  0  0  0  0  0  0
    3.1620   -7.1410   24.0990 C   0  0  0  0  0  0  0  0  0  0  0  0
    3.7610   -7.7850   25.0970 N   0  0  0  0  0  0  0  0  0  0  0  0
    4.2780   -7.1030   26.2630 C   0  0  0  0  0  0  0  0  0  0  0  0
    5.8550   -4.8150   23.5550 C   0  0  0  0  0  0  0  0  0  0  0  0
    6.4780   -5.2950   22.3220 C   0  0  0  0  0  0  0  0  0  0  0  0
  1  2  1  0
  2  3  2  0
  2  4  1  0
  4  5  1  0
  5  6  1  0
  6  7  1  0
  7  8  1  0
  8  9  2  0
  8 10  1  0
 10 11  1  0
 12 11  1  6
 12 13  1  0
 13 14  1  0
 12 15  1  0
 15 16  2  0
 16 17  1  0
 17 18  2  0
 18 19  1  0
 15 20  1  0
 19 20  2  0
  7 21  1  0
  4 22  1  0
 21 22  1  0
M  END
