piperidine-amides-644-covalent
     RDKit          3D

 26 27  0  0  0  0  0  0  0  0999 V2000
    7.2170   -3.3070   19.3280 C   0  0  0  0  0  0  0  0  0  0  0  0
    6.4650   -4.1180   20.2520 C   0  0  0  0  0  0  0  0  0  0  0  0
    5.3300   -4.5610   19.8930 O   0  0  0  0  0  0  0  0  0  0  0  0
    6.9950   -4.4890   21.4980 N   0  0  0  0  0  0  0  0  0  0  0  0
    7.7830   -3.4640   22.2140 C   0  0  0  0  0  0  0  0  0  0  0  0
    6.6110   -2.8320   23.0300 C   0  0  0  0  0  0  0  0  0  0  0  0
    6.0530   -3.9840   23.8350 C   0  0  0  0  0  0  0  0  0  0  0  0
    5.1820   -3.4230   25.0170 C   0  0  0  0  0  0  0  0  0  0  0  0
    3.9980   -3.7030   24.9320 O   0  0  0  0  0  0  0  0  0  0  0  0
    5.9970   -2.8180   25.7300 N   0  0  0  0  0  0  0  0  0  0  0  0
    6.8940   -2.1860   26.4670 C   0  0  0  0  0  0  0  0  0  0  0  0
    7.3470   -2.0660   27.7040 C   0  0  1  0  0  0  0  0  0  0  0  0
    7.9480   -3.2480   28.1410 C   0  0  0  0  0  0  0  0  0  0  0  0
    6.8990   -4.1250   28.7020 C   0  0  0  0  0  0  0  0  0  0  0  0
    7.5110   -5.5230   28.6050 C   0  0  0  0  0  0  0  0  0  0  0  0
    6.5340   -6.4180   29.1410 C   0  0  0  0  0  0  0  0  0  0  0  0
    5.2480   -6.0890   29.6560 C   0  0  0  0  0  0  0  0  0  0  0  0
    4.7560   -4.8490   29.7150 N   0  0  0  0  0  0  0  0  0  0  0  0
    5.6010   -3.8260   29.2260 C   0  0  0  0  0  0  0  0  0  0  0  0
    8.5690   -1.1940   27.6590 C   0  0  0  0  0  0  0  0  0  0  0  0
    9.3150   -1.2560   26.6540 O   0  0  0  0  0  0  0  0  0  0  0  0
    8.8450   -0.3620   28.5630 O   0  0  0  0  0  0  0  0  0  0  0  0
    8.7090   -0.5780   29.9550 C   0  0  0  0  0  0  0  0  0  0  0  0
    7.4280   -0.4830   30.4280 C   0  0  0  0  0  0  0  0  0  0  0  0
    5.4140   -5.1030   23.0310 C   0  0  0  0  0  0  0  0  0  0  0  0
    6.4270   -5.5800   22.2400 C   0  0  0  0  0  0  0  0  0  0  0  0
  1  2  1  0
  2  3  2  0
  2  4  1  0
  4  5  1  0
  5  6  1  0
  6  7  1  0
  7  8  1  0
  8  9  2  0
  8 10  1  0
 10 11  1  0
 12 11  1  6
 12 13  1  0
 13 14  1  0
 14 15  2  0
 15 16  1  0
 16 17  2  0
 17 18  1  0
 14 19  1  0
 18 19  2  0
 12 20  1  0
 20 21  2  0
 20 22  1  0
 22 23  1  0
 23 24  1  0
  7 25  1  0
  4 26  1  0
 25 26  1  0
M  END
