piperidine-amides-30729-covalent
     RDKit          3D

 27 29  0  0  0  0  0  0  0  0999 V2000
    7.0630   -3.3920   19.4130 C   0  0  0  0  0  0  0  0  0  0  0  0
    6.3820   -4.2310   20.4000 C   0  0  0  0  0  0  0  0  0  0  0  0
    5.4170   -4.9170   20.0110 O   0  0  0  0  0  0  0  0  0  0  0  0
    6.8320   -4.3100   21.7390 N   0  0  0  0  0  0  0  0  0  0  0  0
    7.7480   -3.3130   22.2940 C   0  0  0  0  0  0  0  0  0  0  0  0
    7.2450   -2.9140   23.6610 C   0  0  0  0  0  0  0  0  0  0  0  0
    5.9510   -3.5930   23.9780 C   0  0  0  0  0  0  0  0  0  0  0  0
    5.3000   -3.1170   25.2570 C   0  0  0  0  0  0  0  0  0  0  0  0
    4.6810   -2.0210   25.2160 O   0  0  0  0  0  0  0  0  0  0  0  0
    5.2760   -3.7320   26.5420 N   0  0  0  0  0  0  0  0  0  0  0  0
    5.0790   -2.8480   27.7180 C   0  0  0  0  0  0  0  0  0  0  0  0
    5.5650   -3.4820   28.9870 C   0  0  0  0  0  0  0  0  0  0  0  0
    6.4100   -4.6990   28.9350 C   0  0  0  0  0  0  0  0  0  0  0  0
    6.0800   -5.4820   27.7390 C   0  0  1  0  0  0  0  0  0  0  0  0
    4.6820   -6.0430   27.9390 C   0  0  0  0  0  0  0  0  0  0  0  0
    4.4920   -7.2990   28.5590 O   0  0  0  0  0  0  0  0  0  0  0  0
    3.4950   -5.2810   27.5190 N   0  0  0  0  0  0  0  0  0  0  0  0
    2.6980   -6.1510   26.6770 C   0  0  1  0  0  0  0  0  0  0  0  0
    2.0080   -5.3140   25.8180 C   0  0  0  0  0  0  0  0  0  0  0  0
    1.1130   -5.9290   24.9420 C   0  0  0  0  0  0  0  0  0  0  0  0
    1.1640   -7.4310   24.8830 C   0  0  0  0  0  0  0  0  0  0  0  0
    2.2610   -8.0560   25.7520 C   0  0  1  0  0  0  0  0  0  0  0  0
    2.7720   -9.2870   25.4100 O   0  0  0  0  0  0  0  0  0  0  0  0
    3.4840   -7.1860   25.9370 C   0  0  0  0  0  0  0  0  0  0  0  0
    6.2680   -4.6700   26.6870 C   0  0  0  0  0  0  0  0  0  0  0  0
    5.9890   -5.0600   23.7990 C   0  0  0  0  0  0  0  0  0  0  0  0
    6.5250   -5.4330   22.5800 C   0  0  0  0  0  0  0  0  0  0  0  0
  1  2  1  0
  2  3  2  0
  2  4  1  0
  4  5  1  0
  5  6  1  0
  6  7  1  0
  7  8  1  0
  8  9  2  0
  8 10  1  0
 10 11  1  0
 11 12  1  0
 12 13  1  0
 13 14  1  0
 14 15  1  1
 15 16  2  0
 15 17  1  0
 18 17  1  6
 18 19  1  0
 19 20  1  0
 20 21  1  0
 21 22  1  0
 22 23  1  6
 18 24  1  0
 22 24  1  0
 10 25  1  0
 14 25  1  0
  7 26  1  0
  4 27  1  0
 26 27  1  0
M  END
