piperidine-amides-13726-covalent
     RDKit          3D

 27 29  0  0  0  0  0  0  0  0999 V2000
    7.1230   -3.3460   19.3140 C   0  0  0  0  0  0  0  0  0  0  0  0
    6.3710   -4.1630   20.3000 C   0  0  0  0  0  0  0  0  0  0  0  0
    5.3170   -4.7150   19.9460 O   0  0  0  0  0  0  0  0  0  0  0  0
    6.9180   -4.3370   21.5860 N   0  0  0  0  0  0  0  0  0  0  0  0
    7.7350   -3.3170   22.2000 C   0  0  0  0  0  0  0  0  0  0  0  0
    6.8800   -2.6990   23.2980 C   0  0  0  0  0  0  0  0  0  0  0  0
    6.4540   -3.8120   24.1900 C   0  0  0  0  0  0  0  0  0  0  0  0
    5.7080   -3.2920   25.3500 C   0  0  0  0  0  0  0  0  0  0  0  0
    4.4890   -3.1620   25.2100 O   0  0  0  0  0  0  0  0  0  0  0  0
    6.3800   -2.9750   26.5220 N   0  0  0  0  0  0  0  0  0  0  0  0
    6.3920   -1.7230   27.1890 C   0  0  0  0  0  0  0  0  0  0  0  0
    5.9330   -0.4850   26.7690 C   0  0  0  0  0  0  0  0  0  0  0  0
    5.9870    0.7070   27.5180 C   0  0  0  0  0  0  0  0  0  0  0  0
    6.5190    0.7650   28.7790 C   0  0  0  0  0  0  0  0  0  0  0  0
    6.7110    1.6960   29.7070 O   0  0  0  0  0  0  0  0  0  0  0  0
    6.5950    1.1990   30.9220 C   0  0  0  0  0  0  0  0  0  0  0  0
    7.8750    1.0370   31.7450 C   0  0  0  0  0  0  0  0  0  0  0  0
    7.6190    0.4500   33.1370 C   0  0  0  0  0  0  0  0  0  0  0  0
    6.4300    0.0820   33.6760 N   0  0  0  0  0  0  0  0  0  0  0  0
    5.3510    0.2560   32.8850 C   0  0  0  0  0  0  0  0  0  0  0  0
    4.1370   -0.1900   33.6160 C   0  0  0  0  0  0  0  0  0  0  0  0
    3.1800   -0.5490   32.7490 N   0  0  0  0  0  0  0  0  0  0  0  0
    5.3380    0.7710   31.5850 C   0  0  0  0  0  0  0  0  0  0  0  0
    7.0520   -0.4980   29.3480 C   0  0  0  0  0  0  0  0  0  0  0  0
    7.0060   -1.8030   28.5630 C   0  0  0  0  0  0  0  0  0  0  0  0
    5.6830   -4.9060   23.5140 C   0  0  0  0  0  0  0  0  0  0  0  0
    6.5620   -5.4740   22.3980 C   0  0  0  0  0  0  0  0  0  0  0  0
  1  2  1  0
  2  3  2  0
  2  4  1  0
  4  5  1  0
  5  6  1  0
  6  7  1  0
  7  8  1  0
  8  9  2  0
  8 10  1  0
 10 11  1  0
 11 12  2  0
 12 13  1  0
 13 14  2  0
 14 15  1  0
 15 16  1  0
 16 17  2  0
 17 18  1  0
 18 19  2  0
 19 20  1  0
 20 21  1  0
 21 22  3  0
 16 23  1  0
 20 23  2  0
 14 24  1  0
 11 25  1  0
 24 25  2  0
  7 26  1  0
  4 27  1  0
 26 27  1  0
M  END
