piperidine-amides-8084-covalent
     RDKit          3D

 26 28  0  0  0  0  0  0  0  0999 V2000
    7.0920   -3.2880   19.2330 C   0  0  0  0  0  0  0  0  0  0  0  0
    6.3900   -4.0780   20.2420 C   0  0  0  0  0  0  0  0  0  0  0  0
    5.3240   -4.6300   19.9190 O   0  0  0  0  0  0  0  0  0  0  0  0
    6.9470   -4.2530   21.5340 N   0  0  0  0  0  0  0  0  0  0  0  0
    6.5060   -5.3710   22.3010 C   0  0  0  0  0  0  0  0  0  0  0  0
    5.6000   -4.8790   23.3900 C   0  0  0  0  0  0  0  0  0  0  0  0
    6.3870   -3.8670   24.2030 C   0  0  0  0  0  0  0  0  0  0  0  0
    5.5060   -3.2880   25.2640 C   0  0  0  0  0  0  0  0  0  0  0  0
    5.1220   -2.1380   25.0920 O   0  0  0  0  0  0  0  0  0  0  0  0
    5.1600   -4.0800   26.3510 N   0  0  0  0  0  0  0  0  0  0  0  0
    5.9200   -4.1040   27.5440 C   0  0  1  0  0  0  0  0  0  0  0  0
    5.4370   -3.3200   28.6010 C   0  0  0  0  0  0  0  0  0  0  0  0
    6.2250   -2.2550   29.0450 C   0  0  0  0  0  0  0  0  0  0  0  0
    5.9210   -1.3580   30.0770 C   0  0  0  0  0  0  0  0  0  0  0  0
    4.6010   -1.6640   30.6950 C   0  0  0  0  0  0  0  0  0  0  0  0
    3.9920   -1.0280   31.6990 N   0  0  0  0  0  0  0  0  0  0  0  0
    2.8310   -1.6300   31.9530 C   0  0  0  0  0  0  0  0  0  0  0  0
    2.0790   -1.2240   32.8730 O   0  0  0  0  0  0  0  0  0  0  0  0
    2.6790   -2.6410   31.1070 O   0  0  0  0  0  0  0  0  0  0  0  0
    3.8190   -2.6780   30.2950 C   0  0  0  0  0  0  0  0  0  0  0  0
    4.1970   -3.6000   29.1870 C   0  0  0  0  0  0  0  0  0  0  0  0
    6.0720   -5.5380   27.9320 C   0  0  0  0  0  0  0  0  0  0  0  0
    6.6310   -5.8530   29.1380 C   0  0  0  0  0  0  0  0  0  0  0  0
    4.8890   -6.2200   27.8410 C   0  0  0  0  0  0  0  0  0  0  0  0
    6.9470   -2.7400   23.3980 C   0  0  0  0  0  0  0  0  0  0  0  0
    7.6850   -3.2010   22.1800 C   0  0  0  0  0  0  0  0  0  0  0  0
  1  2  1  0
  2  3  2  0
  2  4  1  0
  4  5  1  0
  5  6  1  0
  6  7  1  0
  7  8  1  0
  8  9  2  0
  8 10  1  0
 11 10  1  6
 11 12  1  0
 12 13  2  0
 13 14  1  0
 14 15  2  0
 15 16  1  0
 16 17  1  0
 17 18  2  0
 17 19  1  0
 15 20  1  0
 19 20  1  0
 12 21  1  0
 20 21  2  0
 11 22  1  0
 22 23  1  0
 22 24  1  0
  7 25  1  0
  4 26  1  0
 25 26  1  0
M  END
