piperidine-amides-30236-covalent
     RDKit          3D

 27 29  0  0  0  0  0  0  0  0999 V2000
    7.0210   -3.3720   19.3450 C   0  0  0  0  0  0  0  0  0  0  0  0
    6.3760   -4.2300   20.3360 C   0  0  0  0  0  0  0  0  0  0  0  0
    5.3930   -4.8920   19.9960 O   0  0  0  0  0  0  0  0  0  0  0  0
    6.9040   -4.3470   21.6760 N   0  0  0  0  0  0  0  0  0  0  0  0
    7.7320   -3.2930   22.2320 C   0  0  0  0  0  0  0  0  0  0  0  0
    7.5180   -3.1470   23.7170 C   0  0  0  0  0  0  0  0  0  0  0  0
    6.1880   -3.8110   24.0180 C   0  0  0  0  0  0  0  0  0  0  0  0
    5.5810   -3.4300   25.3380 C   0  0  0  0  0  0  0  0  0  0  0  0
    4.5420   -2.7500   25.3530 O   0  0  0  0  0  0  0  0  0  0  0  0
    6.1090   -3.8000   26.6080 N   0  0  0  0  0  0  0  0  0  0  0  0
    5.9300   -5.1900   26.9860 C   0  0  0  0  0  0  0  0  0  0  0  0
    6.3330   -5.3430   28.4370 C   0  0  0  0  0  0  0  0  0  0  0  0
    5.5300   -4.4670   29.1080 O   0  0  0  0  0  0  0  0  0  0  0  0
    5.0620   -3.3880   28.4530 C   0  0  1  0  0  0  0  0  0  0  0  0
    4.6590   -2.3820   29.3450 C   0  0  0  0  0  0  0  0  0  0  0  0
    3.2580   -2.2730   29.5410 N   0  0  0  0  0  0  0  0  0  0  0  0
    2.3280   -1.8970   28.5600 C   0  0  0  0  0  0  0  0  0  0  0  0
    1.8800   -3.0010   27.7240 C   0  0  0  0  0  0  0  0  0  0  0  0
    2.8810   -3.1950   30.5900 C   0  0  0  0  0  0  0  0  0  0  0  0
    2.7600   -4.5330   30.3070 C   0  0  0  0  0  0  0  0  0  0  0  0
    2.4000   -5.3760   31.3280 C   0  0  0  0  0  0  0  0  0  0  0  0
    2.1870   -4.7300   32.6140 C   0  0  0  0  0  0  0  0  0  0  0  0
    2.3120   -3.3850   32.8930 N   0  0  0  0  0  0  0  0  0  0  0  0
    2.6630   -2.5630   31.8890 N   0  0  0  0  0  0  0  0  0  0  0  0
    6.0010   -2.8080   27.6300 C   0  0  0  0  0  0  0  0  0  0  0  0
    6.2930   -5.2910   23.8150 C   0  0  0  0  0  0  0  0  0  0  0  0
    6.6490   -5.5620   22.3880 C   0  0  0  0  0  0  0  0  0  0  0  0
  1  2  1  0
  2  3  2  0
  2  4  1  0
  4  5  1  0
  5  6  1  0
  6  7  1  0
  7  8  1  0
  8  9  2  0
  8 10  1  0
 10 11  1  0
 11 12  1  0
 12 13  1  0
 13 14  1  0
 14 15  1  1
 15 16  1  0
 16 17  1  0
 17 18  1  0
 16 19  1  0
 19 20  2  0
 20 21  1  0
 21 22  2  0
 22 23  1  0
 19 24  1  0
 23 24  2  0
 10 25  1  0
 14 25  1  0
  7 26  1  0
  4 27  1  0
 26 27  1  0
M  END
