piperidine-amides-27717-covalent
     RDKit          3D

 26 28  0  0  0  0  0  0  0  0999 V2000
    7.0430   -3.3820   19.3570 C   0  0  0  0  0  0  0  0  0  0  0  0
    6.4180   -4.2530   20.3780 C   0  0  0  0  0  0  0  0  0  0  0  0
    5.4100   -4.8870   19.9990 O   0  0  0  0  0  0  0  0  0  0  0  0
    6.9670   -4.3900   21.6710 N   0  0  0  0  0  0  0  0  0  0  0  0
    6.5020   -5.4150   22.5420 C   0  0  0  0  0  0  0  0  0  0  0  0
    5.9010   -4.8840   23.7760 C   0  0  0  0  0  0  0  0  0  0  0  0
    5.6680   -3.4110   23.7540 C   0  0  0  0  0  0  0  0  0  0  0  0
    5.0860   -2.8830   25.0400 C   0  0  0  0  0  0  0  0  0  0  0  0
    3.8540   -2.9380   25.1740 O   0  0  0  0  0  0  0  0  0  0  0  0
    5.8710   -2.3640   26.0830 N   0  0  0  0  0  0  0  0  0  0  0  0
    5.2510   -1.8190   27.3310 C   0  0  0  0  0  0  0  0  0  0  0  0
    5.0630   -2.8400   28.4050 C   0  0  0  0  0  0  0  0  0  0  0  0
    5.6010   -4.1320   28.1460 C   0  0  0  0  0  0  0  0  0  0  0  0
    6.6270   -4.1680   27.2600 C   0  0  0  0  0  0  0  0  0  0  0  0
    7.4900   -5.0820   27.3990 C   0  0  0  0  0  0  0  0  0  0  0  0
    8.5390   -5.2950   26.6790 C   0  0  0  0  0  0  0  0  0  0  0  0
    9.1010   -6.2460   27.1570 C   0  0  0  0  0  0  0  0  0  0  0  0
    9.8820   -6.9710   26.5870 O   0  0  0  0  0  0  0  0  0  0  0  0
    8.4960   -6.0640   28.3590 N   0  0  0  0  0  0  0  0  0  0  0  0
    8.4440   -4.5870   28.5320 C   0  0  0  0  0  0  0  0  0  0  0  0
    7.1840   -6.6000   28.5850 C   0  0  0  0  0  0  0  0  0  0  0  0
    8.9310   -4.4910   25.5360 C   0  0  0  0  0  0  0  0  0  0  0  0
    8.0620   -3.3720   25.1990 C   0  0  0  0  0  0  0  0  0  0  0  0
    6.8980   -3.2910   26.1430 C   0  0  0  0  0  0  0  0  0  0  0  0
    6.7650   -2.5820   23.2030 C   0  0  0  0  0  0  0  0  0  0  0  0
    7.7320   -3.3270   22.3030 C   0  0  0  0  0  0  0  0  0  0  0  0
  1  2  1  0
  2  3  2  0
  2  4  1  0
  4  5  1  0
  5  6  1  0
  6  7  1  0
  7  8  1  0
  8  9  2  0
  8 10  1  0
 10 11  1  0
 11 12  1  0
 12 13  1  0
 13 14  1  0
 14 15  2  0
 15 16  1  0
 16 17  1  0
 17 18  2  0
 17 19  1  0
 19 20  1  0
 19 21  1  0
 16 22  2  0
 22 23  1  0
 10 24  1  0
 14 24  1  0
 23 24  2  0
  7 25  1  0
  4 26  1  0
 25 26  1  0
M  END
