piperidine-amides-24236-covalent
     RDKit          3D

 23 25  0  0  0  0  0  0  0  0999 V2000
    6.9930   -3.3600   19.3920 C   0  0  0  0  0  0  0  0  0  0  0  0
    6.3710   -4.2630   20.3810 C   0  0  0  0  0  0  0  0  0  0  0  0
    5.4120   -4.9770   20.0110 O   0  0  0  0  0  0  0  0  0  0  0  0
    6.8500   -4.3720   21.7080 N   0  0  0  0  0  0  0  0  0  0  0  0
    6.6150   -5.6150   22.4260 C   0  0  0  0  0  0  0  0  0  0  0  0
    6.2420   -5.2850   23.8890 C   0  0  0  0  0  0  0  0  0  0  0  0
    6.1250   -3.7790   23.9640 C   0  0  0  0  0  0  0  0  0  0  0  0
    5.5780   -3.2380   25.2460 C   0  0  0  0  0  0  0  0  0  0  0  0
    4.8800   -2.2160   25.1320 O   0  0  0  0  0  0  0  0  0  0  0  0
    5.7630   -3.7810   26.5510 N   0  0  0  0  0  0  0  0  0  0  0  0
    6.4600   -2.9870   27.4730 C   0  0  0  0  0  0  0  0  0  0  0  0
    6.7920   -3.8640   28.6910 C   0  0  0  0  0  0  0  0  0  0  0  0
    6.0760   -4.9830   28.9700 C   0  0  0  0  0  0  0  0  0  0  0  0
    6.4870   -6.2240   29.2430 C   0  0  0  0  0  0  0  0  0  0  0  0
    5.4810   -7.1120   29.5120 C   0  0  0  0  0  0  0  0  0  0  0  0
    4.1280   -6.8450   29.5200 C   0  0  0  0  0  0  0  0  0  0  0  0
    2.9810   -8.1040   29.9010 Cl  0  0  0  0  0  0  0  0  0  0  0  0
    3.5010   -5.4860   29.2120 C   0  0  0  0  0  0  0  0  0  0  0  0
    4.7840   -4.6970   28.9550 C   0  0  0  0  0  0  0  0  0  0  0  0
    4.6490   -3.2800   28.5950 C   0  0  0  0  0  0  0  0  0  0  0  0
    4.7310   -4.2330   27.4510 C   0  0  0  0  0  0  0  0  0  0  0  0
    7.4550   -3.1820   23.6280 C   0  0  0  0  0  0  0  0  0  0  0  0
    7.6220   -3.2990   22.2780 C   0  0  0  0  0  0  0  0  0  0  0  0
  1  2  1  0
  2  3  2  0
  2  4  1  0
  4  5  1  0
  5  6  1  0
  6  7  1  0
  7  8  1  0
  8  9  2  0
  8 10  1  0
 10 11  1  0
 11 12  1  0
 12 13  1  0
 13 14  1  0
 14 15  2  0
 15 16  1  0
 16 17  1  0
 16 18  2  0
 13 19  2  0
 18 19  1  0
 19 20  1  0
 10 21  1  0
 20 21  1  0
  7 22  1  0
  4 23  1  0
 22 23  1  0
M  END
