piperidine-amides-23338-covalent
     RDKit          3D

 24 26  0  0  0  0  0  0  0  0999 V2000
    7.0830   -3.3700   19.3060 C   0  0  0  0  0  0  0  0  0  0  0  0
    6.4470   -4.2190   20.3250 C   0  0  0  0  0  0  0  0  0  0  0  0
    5.3920   -4.8110   19.9810 O   0  0  0  0  0  0  0  0  0  0  0  0
    7.0380   -4.4090   21.6040 N   0  0  0  0  0  0  0  0  0  0  0  0
    6.5270   -5.4350   22.4280 C   0  0  0  0  0  0  0  0  0  0  0  0
    6.0680   -4.9790   23.7490 C   0  0  0  0  0  0  0  0  0  0  0  0
    6.6180   -3.6990   24.2880 C   0  0  0  0  0  0  0  0  0  0  0  0
    5.7440   -3.1480   25.3830 C   0  0  0  0  0  0  0  0  0  0  0  0
    4.9500   -2.2420   25.0930 O   0  0  0  0  0  0  0  0  0  0  0  0
    5.7230   -3.6120   26.7130 N   0  0  0  0  0  0  0  0  0  0  0  0
    4.6000   -4.1950   27.2770 C   0  0  0  0  0  0  0  0  0  0  0  0
    4.7670   -5.2610   28.2420 C   0  0  0  0  0  0  0  0  0  0  0  0
    5.5890   -4.7580   29.4270 C   0  0  0  0  0  0  0  0  0  0  0  0
    5.3700   -5.9110   30.2990 N   0  0  0  0  0  0  0  0  0  0  0  0
    6.1290   -7.1040   29.9620 C   0  0  0  0  0  0  0  0  0  0  0  0
    5.7600   -7.9790   30.8880 N   0  0  0  0  0  0  0  0  0  0  0  0
    4.8170   -7.3550   31.7400 C   0  0  0  0  0  0  0  0  0  0  0  0
    4.3060   -8.2350   32.8370 C   0  0  0  0  0  0  0  0  0  0  0  0
    4.6030   -8.3560   34.1250 N   0  0  0  0  0  0  0  0  0  0  0  0
    4.5780   -6.0990   31.3830 N   0  0  0  0  0  0  0  0  0  0  0  0
    6.7270   -4.4850   28.5460 C   0  0  0  0  0  0  0  0  0  0  0  0
    6.4000   -3.1700   27.8590 C   0  0  0  0  0  0  0  0  0  0  0  0
    6.8530   -2.6680   23.2180 C   0  0  0  0  0  0  0  0  0  0  0  0
    7.7620   -3.3160   22.1820 C   0  0  0  0  0  0  0  0  0  0  0  0
  1  2  1  0
  2  3  2  0
  2  4  1  0
  4  5  1  0
  5  6  1  0
  6  7  1  0
  7  8  1  0
  8  9  2  0
  8 10  1  0
 10 11  1  0
 11 12  1  0
 12 13  1  0
 13 14  1  0
 14 15  1  0
 15 16  2  0
 16 17  1  0
 17 18  1  0
 18 19  3  0
 14 20  1  0
 17 20  2  0
 13 21  1  0
 10 22  1  0
 21 22  1  0
  7 23  1  0
  4 24  1  0
 23 24  1  0
M  END
