piperidine-amides-19486-covalent
     RDKit          3D

 22 23  0  0  0  0  0  0  0  0999 V2000
    7.0570   -3.4200   19.3430 C   0  0  0  0  0  0  0  0  0  0  0  0
    6.4220   -4.2190   20.3690 C   0  0  0  0  0  0  0  0  0  0  0  0
    5.4080   -4.8940   20.0090 O   0  0  0  0  0  0  0  0  0  0  0  0
    6.9100   -4.3250   21.6980 N   0  0  0  0  0  0  0  0  0  0  0  0
    7.8610   -3.3190   22.2110 C   0  0  0  0  0  0  0  0  0  0  0  0
    6.9150   -2.6220   23.2360 C   0  0  0  0  0  0  0  0  0  0  0  0
    6.5780   -3.6930   24.2490 C   0  0  0  0  0  0  0  0  0  0  0  0
    5.7200   -3.0230   25.4100 C   0  0  0  0  0  0  0  0  0  0  0  0
    4.8370   -2.3370   24.9210 O   0  0  0  0  0  0  0  0  0  0  0  0
    6.1560   -3.3780   26.5480 N   0  0  0  0  0  0  0  0  0  0  0  0
    6.4630   -4.2550   27.5570 C   0  0  0  0  0  0  0  0  0  0  0  0
    7.1150   -5.4560   27.6630 C   0  0  0  0  0  0  0  0  0  0  0  0
    6.2870   -2.0370   27.1950 C   0  0  0  0  0  0  0  0  0  0  0  0
    6.9270   -1.9680   28.5240 C   0  0  0  0  0  0  0  0  0  0  0  0
    7.0300   -0.5540   29.1570 C   0  0  0  0  0  0  0  0  0  0  0  0
    6.5070    0.5320   28.4220 C   0  0  0  0  0  0  0  0  0  0  0  0
    5.8820    0.6060   27.1690 C   0  0  0  0  0  0  0  0  0  0  0  0
    5.4460    1.7840   26.6450 O   0  0  0  0  0  0  0  0  0  0  0  0
    4.2640    2.2710   27.1500 C   0  0  0  0  0  0  0  0  0  0  0  0
    5.7900   -0.7830   26.5500 C   0  0  0  0  0  0  0  0  0  0  0  0
    5.8090   -4.8690   23.5860 C   0  0  0  0  0  0  0  0  0  0  0  0
    6.5750   -5.4270   22.5820 C   0  0  0  0  0  0  0  0  0  0  0  0
  1  2  1  0
  2  3  2  0
  2  4  1  0
  4  5  1  0
  5  6  1  0
  6  7  1  0
  7  8  1  0
  8  9  2  0
  8 10  1  0
 10 11  1  0
 11 12  1  0
 10 13  1  0
 13 14  2  0
 14 15  1  0
 15 16  2  0
 16 17  1  0
 17 18  1  0
 18 19  1  0
 13 20  1  0
 17 20  2  0
  7 21  1  0
  4 22  1  0
 21 22  1  0
M  END
