piperidine-amides-33055-covalent
     RDKit          3D

 29 31  0  0  0  0  0  0  0  0999 V2000
    7.0020   -3.3580   19.3530 C   0  0  0  0  0  0  0  0  0  0  0  0
    6.3920   -4.2360   20.3710 C   0  0  0  0  0  0  0  0  0  0  0  0
    5.3890   -4.8890   19.9930 O   0  0  0  0  0  0  0  0  0  0  0  0
    6.9260   -4.3830   21.6850 N   0  0  0  0  0  0  0  0  0  0  0  0
    6.4090   -5.4270   22.4830 C   0  0  0  0  0  0  0  0  0  0  0  0
    5.7030   -4.9680   23.6930 C   0  0  0  0  0  0  0  0  0  0  0  0
    6.2140   -3.7600   24.4120 C   0  0  0  0  0  0  0  0  0  0  0  0
    5.1980   -3.2600   25.4410 C   0  0  0  0  0  0  0  0  0  0  0  0
    4.3730   -2.4060   25.0930 O   0  0  0  0  0  0  0  0  0  0  0  0
    5.1630   -3.7440   26.7860 N   0  0  0  0  0  0  0  0  0  0  0  0
    4.9410   -3.0040   27.9620 C   0  0  0  0  0  0  0  0  0  0  0  0
    5.6180   -3.4270   29.1930 C   0  0  0  0  0  0  0  0  0  0  0  0
    5.6340   -4.9690   29.2880 C   0  0  0  0  0  0  0  0  0  0  0  0
    4.3740   -5.4660   29.5960 C   0  0  0  0  0  0  0  0  0  0  0  0
    4.6580   -6.3590   30.8250 C   0  0  0  0  0  0  0  0  0  0  0  0
    5.9040   -6.5620   31.4290 O   0  0  0  0  0  0  0  0  0  0  0  0
    5.8080   -7.7500   32.1480 C   0  0  0  0  0  0  0  0  0  0  0  0
    3.4050   -7.0640   31.3900 C   0  0  0  0  0  0  0  0  0  0  0  0
    1.9980   -6.9630   30.8710 C   0  0  0  0  0  0  0  0  0  0  0  0
    0.9670   -7.6330   31.4400 O   0  0  0  0  0  0  0  0  0  0  0  0
    1.1430   -8.9650   31.9000 C   0  0  0  0  0  0  0  0  0  0  0  0
    1.8330   -6.0620   29.6720 C   0  0  0  0  0  0  0  0  0  0  0  0
    2.9860   -5.3430   29.0630 C   0  0  0  0  0  0  0  0  0  0  0  0
    2.6520   -4.5560   27.9520 O   0  0  0  0  0  0  0  0  0  0  0  0
    1.2910   -4.2700   27.9150 C   0  0  0  0  0  0  0  0  0  0  0  0
    6.0660   -5.6040   28.1720 C   0  0  0  0  0  0  0  0  0  0  0  0
    6.1820   -4.6360   27.0290 C   0  0  0  0  0  0  0  0  0  0  0  0
    6.7050   -2.6870   23.4660 C   0  0  0  0  0  0  0  0  0  0  0  0
    7.5360   -3.2640   22.3280 C   0  0  0  0  0  0  0  0  0  0  0  0
  1  2  1  0
  2  3  2  0
  2  4  1  0
  4  5  1  0
  5  6  1  0
  6  7  1  0
  7  8  1  0
  8  9  2  0
  8 10  1  0
 10 11  1  0
 11 12  1  0
 12 13  1  0
 13 14  1  0
 14 15  2  0
 15 16  1  0
 16 17  1  0
 15 18  1  0
 18 19  2  0
 19 20  1  0
 20 21  1  0
 19 22  1  0
 14 23  1  0
 22 23  2  0
 23 24  1  0
 24 25  1  0
 13 26  1  0
 10 27  1  0
 26 27  1  0
  7 28  1  0
  4 29  1  0
 28 29  1  0
M  END
