piperidine-amides-35218-covalent
     RDKit          3D

 33 35  0  0  0  0  0  0  0  0999 V2000
    7.0240   -3.3430   19.4010 C   0  0  0  0  0  0  0  0  0  0  0  0
    6.3940   -4.2280   20.4200 C   0  0  0  0  0  0  0  0  0  0  0  0
    5.4570   -4.9230   20.0100 O   0  0  0  0  0  0  0  0  0  0  0  0
    6.8700   -4.2840   21.7520 N   0  0  0  0  0  0  0  0  0  0  0  0
    6.6200   -5.4450   22.5870 C   0  0  0  0  0  0  0  0  0  0  0  0
    5.9630   -5.0020   23.8740 C   0  0  0  0  0  0  0  0  0  0  0  0
    5.8980   -3.4790   23.8480 C   0  0  0  0  0  0  0  0  0  0  0  0
    5.1210   -2.8880   24.9890 C   0  0  0  0  0  0  0  0  0  0  0  0
    4.0500   -2.3500   24.7070 O   0  0  0  0  0  0  0  0  0  0  0  0
    5.4760   -2.8940   26.3600 N   0  0  0  0  0  0  0  0  0  0  0  0
    5.6690   -1.5880   27.0450 C   0  0  0  0  0  0  0  0  0  0  0  0
    5.8900   -0.3770   26.1600 C   0  0  0  0  0  0  0  0  0  0  0  0
    6.1120    0.9070   26.6480 C   0  0  0  0  0  0  0  0  0  0  0  0
    6.1470    1.1250   27.9990 C   0  0  0  0  0  0  0  0  0  0  0  0
    5.9570    0.1040   28.8530 C   0  0  0  0  0  0  0  0  0  0  0  0
    5.7050   -1.2820   28.3880 C   0  0  0  0  0  0  0  0  0  0  0  0
    5.5240   -2.1850   29.3550 N   0  0  0  0  0  0  0  0  0  0  0  0
    6.2880   -1.7950   30.3800 O   0  0  0  0  0  0  0  0  0  0  0  0
    4.2080   -2.2800   29.5790 O   0  0  0  0  0  0  0  0  0  0  0  0
    5.1560   -4.0600   27.1250 C   0  0  2  0  0  0  0  0  0  0  0  0
    6.0000   -5.2720   27.3370 C   0  0  0  0  0  0  0  0  0  0  0  0
    4.8650   -6.2240   27.2940 C   0  0  0  0  0  0  0  0  0  0  0  0
    3.5610   -5.8330   27.4070 N   0  0  0  0  0  0  0  0  0  0  0  0
    2.6970   -6.3260   28.4540 C   0  0  0  0  0  0  0  0  0  0  0  0
    3.1190   -7.1360   29.5020 O   0  0  0  0  0  0  0  0  0  0  0  0
    1.3580   -6.0160   28.4760 O   0  0  0  0  0  0  0  0  0  0  0  0
    0.6540   -5.5360   29.5910 C   0  0  0  0  0  0  0  0  0  0  0  0
    0.1630   -4.1590   29.2910 C   0  0  0  0  0  0  0  0  0  0  0  0
   -0.3050   -6.4550   30.0190 C   0  0  0  0  0  0  0  0  0  0  0  0
    1.5900   -5.4030   30.7600 C   0  0  0  0  0  0  0  0  0  0  0  0
    3.8700   -4.6610   26.5840 C   0  0  0  0  0  0  0  0  0  0  0  0
    7.2750   -2.8430   23.6870 C   0  0  0  0  0  0  0  0  0  0  0  0
    7.6990   -3.1860   22.2560 C   0  0  0  0  0  0  0  0  0  0  0  0
  1  2  1  0
  2  3  2  0
  2  4  1  0
  4  5  1  0
  5  6  1  0
  6  7  1  0
  7  8  1  0
  8  9  2  0
  8 10  1  0
 10 11  1  0
 11 12  2  0
 12 13  1  0
 13 14  2  0
 14 15  1  0
 11 16  1  0
 15 16  2  0
 16 17  1  0
 17 18  2  0
 17 19  1  0
 20 10  1  6
 20 21  1  0
 21 22  1  0
 22 23  1  0
 23 24  1  0
 24 25  2  0
 24 26  1  0
 27 26  1  0
 27 28  1  0
 27 29  1  0
 27 30  1  0
 20 31  1  0
 23 31  1  0
  7 32  1  0
  4 33  1  0
 32 33  1  0
M  CHG  2  17   1  19  -1
M  END
