piperidine-amides-746-covalent
     RDKit          3D

 25 27  0  0  0  0  0  0  0  0999 V2000
    7.1700   -3.3120   19.3580 C   0  0  0  0  0  0  0  0  0  0  0  0
    6.4010   -4.0730   20.3110 C   0  0  0  0  0  0  0  0  0  0  0  0
    5.3350   -4.6460   19.9240 O   0  0  0  0  0  0  0  0  0  0  0  0
    6.8500   -4.2230   21.6340 N   0  0  0  0  0  0  0  0  0  0  0  0
    6.4620   -5.4360   22.3770 C   0  0  0  0  0  0  0  0  0  0  0  0
    5.5690   -4.7690   23.4900 C   0  0  0  0  0  0  0  0  0  0  0  0
    6.4230   -3.7050   24.1640 C   0  0  0  0  0  0  0  0  0  0  0  0
    5.6770   -3.1260   25.4300 C   0  0  0  0  0  0  0  0  0  0  0  0
    4.8770   -2.2580   25.1100 O   0  0  0  0  0  0  0  0  0  0  0  0
    6.1050   -3.7290   26.4530 N   0  0  0  0  0  0  0  0  0  0  0  0
    6.5030   -4.3870   27.5660 C   0  0  0  0  0  0  0  0  0  0  0  0
    6.7600   -5.6260   28.0620 C   0  0  0  0  0  0  0  0  0  0  0  0
    5.7230   -6.2340   28.8320 C   0  0  0  0  0  0  0  0  0  0  0  0
    5.9030   -7.4970   29.5830 C   0  0  0  0  0  0  0  0  0  0  0  0
    4.7440   -7.8500   30.2310 N   0  0  0  0  0  0  0  0  0  0  0  0
    3.8160   -6.8120   29.8960 C   0  0  0  0  0  0  0  0  0  0  0  0
    2.5330   -6.9250   30.4350 C   0  0  0  0  0  0  0  0  0  0  0  0
    2.2000   -7.8790   31.1690 O   0  0  0  0  0  0  0  0  0  0  0  0
    2.8940   -8.2950   32.2750 C   0  0  0  0  0  0  0  0  0  0  0  0
    1.6430   -5.7830   30.0230 C   0  0  0  0  0  0  0  0  0  0  0  0
    2.2560   -4.6770   29.0880 C   0  0  0  0  0  0  0  0  0  0  0  0
    3.5620   -4.7650   28.6690 C   0  0  0  0  0  0  0  0  0  0  0  0
    4.3130   -5.8280   29.0810 C   0  0  0  0  0  0  0  0  0  0  0  0
    6.9510   -2.6290   23.2280 C   0  0  0  0  0  0  0  0  0  0  0  0
    7.6900   -3.2410   22.2630 C   0  0  0  0  0  0  0  0  0  0  0  0
  1  2  1  0
  2  3  2  0
  2  4  1  0
  4  5  1  0
  5  6  1  0
  6  7  1  0
  7  8  1  0
  8  9  2  0
  8 10  1  0
 10 11  1  0
 11 12  1  0
 12 13  1  0
 13 14  2  0
 14 15  1  0
 15 16  1  0
 16 17  1  0
 17 18  1  0
 18 19  1  0
 17 20  2  0
 20 21  1  0
 21 22  2  0
 13 23  1  0
 16 23  2  0
 22 23  1  0
  7 24  1  0
  4 25  1  0
 24 25  1  0
M  END
