piperidine-amides-142-covalent
     RDKit          3D

 24 26  0  0  0  0  0  0  0  0999 V2000
    7.0880   -3.3040   19.4290 C   0  0  0  0  0  0  0  0  0  0  0  0
    6.3610   -4.1110   20.3930 C   0  0  0  0  0  0  0  0  0  0  0  0
    5.4010   -4.8300   19.9710 O   0  0  0  0  0  0  0  0  0  0  0  0
    6.6790   -4.1610   21.7680 N   0  0  0  0  0  0  0  0  0  0  0  0
    7.7700   -3.2560   22.2430 C   0  0  0  0  0  0  0  0  0  0  0  0
    7.2420   -2.7260   23.6350 C   0  0  0  0  0  0  0  0  0  0  0  0
    6.2650   -3.7690   24.1060 C   0  0  0  0  0  0  0  0  0  0  0  0
    5.7860   -3.6070   25.6260 C   0  0  0  0  0  0  0  0  0  0  0  0
    5.1660   -4.6000   25.9600 O   0  0  0  0  0  0  0  0  0  0  0  0
    6.1430   -2.4790   26.1110 N   0  0  0  0  0  0  0  0  0  0  0  0
    6.4440   -1.2460   26.6430 C   0  0  2  0  0  0  0  0  0  0  0  0
    6.6140   -0.6020   27.8280 C   0  0  0  0  0  0  0  0  0  0  0  0
    7.1730   -1.1790   28.9500 C   0  0  0  0  0  0  0  0  0  0  0  0
    7.4900   -0.7640   30.3450 C   0  0  0  0  0  0  0  0  0  0  0  0
    6.9020    0.6540   30.0120 C   0  0  0  0  0  0  0  0  0  0  0  0
    6.3670    1.0690   28.7920 C   0  0  0  0  0  0  0  0  0  0  0  0
    6.1720    0.4780   27.5760 C   0  0  0  0  0  0  0  0  0  0  0  0
    5.7300    1.6380   27.4060 O   0  0  0  0  0  0  0  0  0  0  0  0
    5.6040    1.2850   26.0970 C   0  0  0  0  0  0  0  0  0  0  0  0
    5.3370   -0.3260   25.8730 C   0  0  2  0  0  0  0  0  0  0  0  0
    4.7310   -1.1470   26.8080 C   0  0  0  0  0  0  0  0  0  0  0  0
    3.6150   -1.8770   26.4890 O   0  0  0  0  0  0  0  0  0  0  0  0
    6.6460   -5.1970   23.7550 C   0  0  0  0  0  0  0  0  0  0  0  0
    6.4870   -5.4300   22.4280 C   0  0  0  0  0  0  0  0  0  0  0  0
  1  2  1  0
  2  3  2  0
  2  4  1  0
  4  5  1  0
  5  6  1  0
  6  7  1  0
  7  8  1  0
  8  9  2  0
  8 10  1  0
 11 10  1  1
 11 12  1  0
 12 13  2  0
 13 14  1  0
 14 15  2  0
 15 16  1  0
 12 17  1  0
 16 17  2  0
 17 18  1  0
 18 19  1  0
 11 20  1  0
 19 20  1  0
 20 21  1  1
 21 22  1  0
  7 23  1  0
  4 24  1  0
 23 24  1  0
M  END
