piperidine-amides-23615-covalent
     RDKit          3D

 24 26  0  0  0  0  0  0  0  0999 V2000
    6.9920   -3.3720   19.4270 C   0  0  0  0  0  0  0  0  0  0  0  0
    6.3840   -4.2620   20.4350 C   0  0  0  0  0  0  0  0  0  0  0  0
    5.4390   -4.9800   20.0160 O   0  0  0  0  0  0  0  0  0  0  0  0
    6.8650   -4.3300   21.7830 N   0  0  0  0  0  0  0  0  0  0  0  0
    6.4950   -5.4470   22.5930 C   0  0  0  0  0  0  0  0  0  0  0  0
    5.8590   -5.0480   23.8480 C   0  0  0  0  0  0  0  0  0  0  0  0
    5.8760   -3.5820   24.0100 C   0  0  0  0  0  0  0  0  0  0  0  0
    5.1150   -3.0250   25.2260 C   0  0  0  0  0  0  0  0  0  0  0  0
    4.3340   -2.0880   25.0290 O   0  0  0  0  0  0  0  0  0  0  0  0
    5.2120   -3.4990   26.5600 N   0  0  0  0  0  0  0  0  0  0  0  0
    6.2680   -4.0510   26.9840 C   0  0  0  0  0  0  0  0  0  0  0  0
    6.4610   -3.7900   28.3730 C   0  0  0  0  0  0  0  0  0  0  0  0
    5.0550   -3.4390   28.9880 C   0  0  2  0  0  0  0  0  0  0  0  0
    4.3860   -4.6270   29.1270 O   0  0  0  0  0  0  0  0  0  0  0  0
    3.1470   -4.3650   29.7060 C   0  0  0  0  0  0  0  0  0  0  0  0
    2.3730   -5.6740   29.6670 C   0  0  0  0  0  0  0  0  0  0  0  0
    3.4820   -6.6570   29.7280 C   0  0  0  0  0  0  0  0  0  0  0  0
    2.7700   -8.0030   29.6910 C   0  0  0  0  0  0  0  0  0  0  0  0
    1.2930   -8.3210   29.6110 C   0  0  0  0  0  0  0  0  0  0  0  0
    0.3940   -7.0920   29.5600 C   0  0  0  0  0  0  0  0  0  0  0  0
    0.9610   -5.8740   29.5910 N   0  0  0  0  0  0  0  0  0  0  0  0
    4.9310   -2.6250   27.6620 C   0  0  0  0  0  0  0  0  0  0  0  0
    7.2800   -3.1030   23.7900 C   0  0  0  0  0  0  0  0  0  0  0  0
    7.5560   -3.1930   22.3990 C   0  0  0  0  0  0  0  0  0  0  0  0
  1  2  1  0
  2  3  2  0
  2  4  1  0
  4  5  1  0
  5  6  1  0
  6  7  1  0
  7  8  1  0
  8  9  2  0
  8 10  1  0
 10 11  1  0
 11 12  1  0
 12 13  1  0
 13 14  1  6
 14 15  1  0
 15 16  1  0
 16 17  2  0
 17 18  1  0
 18 19  2  0
 19 20  1  0
 16 21  1  0
 20 21  2  0
 10 22  1  0
 13 22  1  0
  7 23  1  0
  4 24  1  0
 23 24  1  0
M  END
