piperidine-amides-6889-covalent
     RDKit          3D

 22 23  0  0  0  0  0  0  0  0999 V2000
    7.1210   -3.2590   19.2150 C   0  0  0  0  0  0  0  0  0  0  0  0
    6.3780   -4.0400   20.2170 C   0  0  0  0  0  0  0  0  0  0  0  0
    5.3150   -4.6210   19.9140 O   0  0  0  0  0  0  0  0  0  0  0  0
    6.8860   -4.1720   21.5110 N   0  0  0  0  0  0  0  0  0  0  0  0
    6.5100   -5.3110   22.3100 C   0  0  0  0  0  0  0  0  0  0  0  0
    5.6220   -4.7580   23.4270 C   0  0  0  0  0  0  0  0  0  0  0  0
    6.4920   -3.8080   24.2260 C   0  0  0  0  0  0  0  0  0  0  0  0
    5.6970   -3.2710   25.3490 C   0  0  0  0  0  0  0  0  0  0  0  0
    4.4730   -3.1050   25.1740 O   0  0  0  0  0  0  0  0  0  0  0  0
    6.3240   -2.9570   26.5820 N   0  0  0  0  0  0  0  0  0  0  0  0
    6.2440   -3.8780   27.6840 C   0  0  0  0  0  0  0  0  0  0  0  0
    4.9390   -3.6720   28.4360 C   0  0  0  0  0  0  0  0  0  0  0  0
    4.2400   -2.4280   28.6360 N   0  0  0  0  0  0  0  0  0  0  0  0
    3.1290   -2.7150   29.3600 N   0  0  0  0  0  0  0  0  0  0  0  0
    3.0930   -4.0670   29.6270 N   0  0  0  0  0  0  0  0  0  0  0  0
    2.0540   -4.5180   30.3410 C   0  0  0  0  0  0  0  0  0  0  0  0
    4.1570   -4.7310   29.1010 C   0  0  0  0  0  0  0  0  0  0  0  0
    4.4950   -6.0840   29.1380 C   0  0  0  0  0  0  0  0  0  0  0  0
    5.8640   -6.2570   29.2140 F   0  0  0  0  0  0  0  0  0  0  0  0
    4.0790   -6.6530   27.9630 F   0  0  0  0  0  0  0  0  0  0  0  0
    7.0720   -2.6950   23.4320 C   0  0  0  0  0  0  0  0  0  0  0  0
    7.6810   -3.1320   22.1230 C   0  0  0  0  0  0  0  0  0  0  0  0
  1  2  1  0
  2  3  2  0
  2  4  1  0
  4  5  1  0
  5  6  1  0
  6  7  1  0
  7  8  1  0
  8  9  2  0
  8 10  1  0
 10 11  1  0
 11 12  1  0
 12 13  1  0
 13 14  2  0
 14 15  1  0
 15 16  1  0
 12 17  2  0
 15 17  1  0
 17 18  1  0
 18 19  1  0
 18 20  1  0
  7 21  1  0
  4 22  1  0
 21 22  1  0
M  END
