piperidine-amides-2502-covalent
     RDKit          3D

 26 28  0  0  0  0  0  0  0  0999 V2000
    7.0030   -3.3530   19.2860 C   0  0  0  0  0  0  0  0  0  0  0  0
    6.2600   -4.1840   20.2850 C   0  0  0  0  0  0  0  0  0  0  0  0
    5.2330   -4.7220   19.9070 O   0  0  0  0  0  0  0  0  0  0  0  0
    6.7270   -4.3630   21.5800 N   0  0  0  0  0  0  0  0  0  0  0  0
    7.5260   -3.3790   22.2330 C   0  0  0  0  0  0  0  0  0  0  0  0
    6.9570   -3.0460   23.5770 C   0  0  0  0  0  0  0  0  0  0  0  0
    5.7010   -3.8620   23.8510 C   0  0  0  0  0  0  0  0  0  0  0  0
    5.1650   -3.4500   25.1710 C   0  0  0  0  0  0  0  0  0  0  0  0
    4.0090   -3.0170   25.2260 O   0  0  0  0  0  0  0  0  0  0  0  0
    5.9110   -3.5410   26.3650 N   0  0  0  0  0  0  0  0  0  0  0  0
    6.7210   -2.4160   26.7630 C   0  0  0  0  0  0  0  0  0  0  0  0
    7.8970   -2.8560   25.8570 C   0  0  0  0  0  0  0  0  0  0  0  0
    8.7920   -1.9430   25.4550 C   0  0  0  0  0  0  0  0  0  0  0  0
    9.5070   -1.9460   24.2840 C   0  0  0  0  0  0  0  0  0  0  0  0
    9.1510   -2.5090   23.1550 C   0  0  0  0  0  0  0  0  0  0  0  0
    9.8660   -2.5460   21.8370 C   0  0  0  0  0  0  0  0  0  0  0  0
   11.1860   -1.8340   21.8230 C   0  0  0  0  0  0  0  0  0  0  0  0
   11.6480   -1.1660   23.0770 C   0  0  0  0  0  0  0  0  0  0  0  0
   10.7020   -1.3090   24.2170 C   0  0  0  0  0  0  0  0  0  0  0  0
    6.8850   -2.6030   28.2830 C   0  0  0  0  0  0  0  0  0  0  0  0
    7.4720   -1.2080   28.2440 C   0  0  0  0  0  0  0  0  0  0  0  0
    6.5160   -0.0950   28.4140 C   0  0  0  0  0  0  0  0  0  0  0  0
    5.6390   -0.2100   27.2450 C   0  0  0  0  0  0  0  0  0  0  0  0
    6.1270   -1.1510   26.3440 C   0  0  0  0  0  0  0  0  0  0  0  0
    6.0180   -5.3160   23.6890 C   0  0  0  0  0  0  0  0  0  0  0  0
    6.5390   -5.6430   22.2810 C   0  0  0  0  0  0  0  0  0  0  0  0
  1  2  1  0
  2  3  2  0
  2  4  1  0
  4  5  1  0
  5  6  1  0
  6  7  1  0
  7  8  1  0
  8  9  2  0
  8 10  1  0
 11 10  1  0
 11 12  1  0
 12 13  1  0
 13 14  1  0
 14 15  2  0
 15 16  1  0
 16 17  2  0
 17 18  1  0
 14 19  1  0
 18 19  2  0
 11 20  1  0
 20 21  1  0
 21 22  1  0
 22 23  1  0
 11 24  1  0
 23 24  1  0
  7 25  1  0
  4 26  1  0
 25 26  1  0
M  END
