piperidine-amides-27688-covalent
     RDKit          3D

 26 29  0  0  0  0  0  0  0  0999 V2000
    7.0900   -3.3520   19.2880 C   0  0  0  0  0  0  0  0  0  0  0  0
    6.4220   -4.1860   20.2930 C   0  0  0  0  0  0  0  0  0  0  0  0
    5.3480   -4.7390   19.9490 O   0  0  0  0  0  0  0  0  0  0  0  0
    7.0130   -4.3880   21.5410 N   0  0  0  0  0  0  0  0  0  0  0  0
    6.6540   -5.5210   22.3550 C   0  0  0  0  0  0  0  0  0  0  0  0
    5.8360   -5.0170   23.5150 C   0  0  0  0  0  0  0  0  0  0  0  0
    6.4650   -3.8320   24.1990 C   0  0  0  0  0  0  0  0  0  0  0  0
    5.5410   -3.2910   25.2150 C   0  0  0  0  0  0  0  0  0  0  0  0
    4.5800   -2.6170   24.8070 O   0  0  0  0  0  0  0  0  0  0  0  0
    5.6660   -3.4720   26.6040 N   0  0  0  0  0  0  0  0  0  0  0  0
    5.5560   -4.7490   27.2470 C   0  0  0  0  0  0  0  0  0  0  0  0
    5.6970   -4.4240   28.6890 C   0  0  0  0  0  0  0  0  0  0  0  0
    5.8650   -3.1100   28.9340 C   0  0  2  0  0  0  0  0  0  0  0  0
    4.7970   -2.2720   29.1060 N   0  0  0  0  0  0  0  0  0  0  0  0
    3.5130   -2.6530   28.9340 C   0  0  0  0  0  0  0  0  0  0  0  0
    2.9590   -3.6870   29.5180 O   0  0  0  0  0  0  0  0  0  0  0  0
    2.8170   -1.8310   28.0720 O   0  0  0  0  0  0  0  0  0  0  0  0
    3.7450   -0.8660   27.6520 C   0  0  0  0  0  0  0  0  0  0  0  0
    3.5420    0.1790   26.7770 C   0  0  0  0  0  0  0  0  0  0  0  0
    4.5980    1.0440   26.4790 C   0  0  0  0  0  0  0  0  0  0  0  0
    6.0180    0.9370   27.0590 C   0  0  0  0  0  0  0  0  0  0  0  0
    6.1350   -0.2530   28.0140 C   0  0  0  0  0  0  0  0  0  0  0  0
    4.9380   -1.1090   28.2560 C   0  0  0  0  0  0  0  0  0  0  0  0
    6.6240   -3.1100   27.6320 C   0  0  0  0  0  0  0  0  0  0  0  0
    6.8930   -2.7470   23.2900 C   0  0  0  0  0  0  0  0  0  0  0  0
    7.7110   -3.2980   22.1560 C   0  0  0  0  0  0  0  0  0  0  0  0
  1  2  1  0
  2  3  2  0
  2  4  1  0
  4  5  1  0
  5  6  1  0
  6  7  1  0
  7  8  1  0
  8  9  2  0
  8 10  1  0
 10 11  1  0
 11 12  1  0
 12 13  1  0
 13 14  1  6
 14 15  1  0
 15 16  2  0
 15 17  1  0
 17 18  1  0
 18 19  1  0
 19 20  2  0
 20 21  1  0
 21 22  2  0
 14 23  1  0
 18 23  2  0
 22 23  1  0
 10 24  1  0
 13 24  1  0
  7 25  1  0
  4 26  1  0
 25 26  1  0
M  END
