piperidine-amides-29006-covalent
     RDKit          3D

 26 28  0  0  0  0  0  0  0  0999 V2000
    7.0210   -3.3480   19.3550 C   0  0  0  0  0  0  0  0  0  0  0  0
    6.3740   -4.1990   20.3540 C   0  0  0  0  0  0  0  0  0  0  0  0
    5.3930   -4.8700   19.9880 O   0  0  0  0  0  0  0  0  0  0  0  0
    6.8840   -4.2790   21.6800 N   0  0  0  0  0  0  0  0  0  0  0  0
    6.6900   -5.5150   22.4050 C   0  0  0  0  0  0  0  0  0  0  0  0
    6.2400   -5.2530   23.8210 C   0  0  0  0  0  0  0  0  0  0  0  0
    6.1460   -3.7570   24.0060 C   0  0  0  0  0  0  0  0  0  0  0  0
    5.6180   -3.3450   25.3570 C   0  0  0  0  0  0  0  0  0  0  0  0
    4.6470   -2.5990   25.3240 O   0  0  0  0  0  0  0  0  0  0  0  0
    6.1890   -3.8060   26.5430 N   0  0  0  0  0  0  0  0  0  0  0  0
    6.2260   -2.9630   27.6840 C   0  0  0  0  0  0  0  0  0  0  0  0
    6.1430   -3.8170   28.7590 C   0  0  0  0  0  0  0  0  0  0  0  0
    5.6590   -4.9980   28.3010 C   0  0  2  0  0  0  0  0  0  0  0  0
    5.8460   -6.1190   29.0810 C   0  0  0  0  0  0  0  0  0  0  0  0
    7.1650   -6.5040   29.1080 O   0  0  0  0  0  0  0  0  0  0  0  0
    4.7920   -6.7740   29.7690 N   0  0  0  0  0  0  0  0  0  0  0  0
    4.7040   -6.6710   31.2280 C   0  0  1  0  0  0  0  0  0  0  0  0
    3.3850   -5.9410   31.5890 C   0  0  0  0  0  0  0  0  0  0  0  0
    3.5390   -5.4220   32.9820 C   0  0  0  0  0  0  0  0  0  0  0  0
    3.7660   -6.5880   33.9060 C   0  0  0  0  0  0  0  0  0  0  0  0
    4.9600   -7.4490   33.4020 C   0  0  2  0  0  0  0  0  0  0  0  0
    6.1850   -6.8430   33.6030 O   0  0  0  0  0  0  0  0  0  0  0  0
    4.8330   -7.8760   32.1080 C   0  0  0  0  0  0  0  0  0  0  0  0
    5.8530   -5.1560   26.9430 C   0  0  0  0  0  0  0  0  0  0  0  0
    7.4280   -3.0790   23.6900 C   0  0  0  0  0  0  0  0  0  0  0  0
    7.7110   -3.2290   22.2310 C   0  0  0  0  0  0  0  0  0  0  0  0
  1  2  1  0
  2  3  2  0
  2  4  1  0
  4  5  1  0
  5  6  1  0
  6  7  1  0
  7  8  1  0
  8  9  2  0
  8 10  1  0
 10 11  1  0
 11 12  1  0
 12 13  1  0
 13 14  1  1
 14 15  2  0
 14 16  1  0
 17 16  1  6
 17 18  1  0
 18 19  1  0
 19 20  1  0
 20 21  1  0
 21 22  1  6
 17 23  1  0
 21 23  1  0
 10 24  1  0
 13 24  1  0
  7 25  1  0
  4 26  1  0
 25 26  1  0
M  END
