piperidine-amides-31920-covalent
     RDKit          3D

 29 32  0  0  0  0  0  0  0  0999 V2000
    7.1440   -3.2600   19.3240 C   0  0  0  0  0  0  0  0  0  0  0  0
    6.3950   -4.0010   20.3160 C   0  0  0  0  0  0  0  0  0  0  0  0
    5.3810   -4.6750   19.9360 O   0  0  0  0  0  0  0  0  0  0  0  0
    6.7850   -4.0210   21.6720 N   0  0  0  0  0  0  0  0  0  0  0  0
    6.7920   -5.3560   22.3170 C   0  0  0  0  0  0  0  0  0  0  0  0
    5.9190   -5.1000   23.6050 C   0  0  0  0  0  0  0  0  0  0  0  0
    6.1380   -3.6610   24.0110 C   0  0  0  0  0  0  0  0  0  0  0  0
    5.4190   -3.3460   25.4010 C   0  0  0  0  0  0  0  0  0  0  0  0
    4.2760   -3.7680   25.3720 O   0  0  0  0  0  0  0  0  0  0  0  0
    6.1870   -2.7120   26.1930 N   0  0  0  0  0  0  0  0  0  0  0  0
    6.9510   -1.6680   26.6170 C   0  0  0  0  0  0  0  0  0  0  0  0
    6.1270   -3.4160   27.4320 C   0  0  0  0  0  0  0  0  0  0  0  0
    5.8400   -4.8190   27.4710 C   0  0  0  0  0  0  0  0  0  0  0  0
    4.6880   -5.1250   28.3420 C   0  0  0  0  0  0  0  0  0  0  0  0
    3.8250   -6.2170   28.1040 N   0  0  0  0  0  0  0  0  0  0  0  0
    3.4540   -6.9110   26.8840 C   0  0  0  0  0  0  0  0  0  0  0  0
    3.9710   -6.5510   25.6330 C   0  0  0  0  0  0  0  0  0  0  0  0
    3.7500   -7.0870   24.3050 C   0  0  0  0  0  0  0  0  0  0  0  0
    2.7310   -8.2170   24.6870 C   0  0  0  0  0  0  0  0  0  0  0  0
    2.1600   -8.6180   26.0770 C   0  0  0  0  0  0  0  0  0  0  0  0
    2.5870   -7.9040   27.0990 C   0  0  0  0  0  0  0  0  0  0  0  0
    2.3330   -7.9440   28.4340 C   0  0  0  0  0  0  0  0  0  0  0  0
    1.5640   -8.7100   29.2320 C   0  0  0  0  0  0  0  0  0  0  0  0
    1.4870   -8.5360   30.6080 C   0  0  0  0  0  0  0  0  0  0  0  0
    2.1680   -7.5670   31.3970 C   0  0  0  0  0  0  0  0  0  0  0  0
    3.0150   -6.7320   30.4590 C   0  0  0  0  0  0  0  0  0  0  0  0
    3.0790   -6.9410   28.9880 C   0  0  0  0  0  0  0  0  0  0  0  0
    7.5080   -3.0880   23.7480 C   0  0  0  0  0  0  0  0  0  0  0  0
    7.7090   -3.0690   22.2320 C   0  0  0  0  0  0  0  0  0  0  0  0
  1  2  1  0
  2  3  2  0
  2  4  1  0
  4  5  1  0
  5  6  1  0
  6  7  1  0
  7  8  1  0
  8  9  2  0
  8 10  1  0
 10 11  1  0
 10 12  1  0
 12 13  1  0
 13 14  1  0
 14 15  1  0
 15 16  1  0
 16 17  2  0
 17 18  1  0
 18 19  2  0
 19 20  1  0
 16 21  1  0
 20 21  2  0
 21 22  1  0
 22 23  1  0
 23 24  2  0
 24 25  1  0
 25 26  2  0
 15 27  1  0
 22 27  2  0
 26 27  1  0
  7 28  1  0
  4 29  1  0
 28 29  1  0
M  END
