piperidine-amides-25349-covalent
     RDKit          3D

 25 27  0  0  0  0  0  0  0  0999 V2000
    6.9900   -3.3480   19.3440 C   0  0  0  0  0  0  0  0  0  0  0  0
    6.3170   -4.2260   20.3340 C   0  0  0  0  0  0  0  0  0  0  0  0
    5.3190   -4.8300   19.9600 O   0  0  0  0  0  0  0  0  0  0  0  0
    6.8370   -4.3790   21.6150 N   0  0  0  0  0  0  0  0  0  0  0  0
    6.6020   -5.5730   22.3880 C   0  0  0  0  0  0  0  0  0  0  0  0
    5.8430   -5.2380   23.6500 C   0  0  0  0  0  0  0  0  0  0  0  0
    5.8890   -3.7340   23.8930 C   0  0  0  0  0  0  0  0  0  0  0  0
    5.3760   -3.4040   25.2460 C   0  0  0  0  0  0  0  0  0  0  0  0
    4.1800   -3.1020   25.3490 O   0  0  0  0  0  0  0  0  0  0  0  0
    6.1740   -3.3950   26.4160 N   0  0  0  0  0  0  0  0  0  0  0  0
    6.7300   -4.6530   26.9180 C   0  0  0  0  0  0  0  0  0  0  0  0
    5.6680   -5.6920   27.2140 C   0  0  0  0  0  0  0  0  0  0  0  0
    4.3810   -5.6760   26.7420 C   0  0  0  0  0  0  0  0  0  0  0  0
    4.0430   -6.6470   25.8540 C   0  0  0  0  0  0  0  0  0  0  0  0
    6.3370   -2.3040   27.3150 C   0  0  0  0  0  0  0  0  0  0  0  0
    5.9000   -1.0970   26.8790 N   0  0  0  0  0  0  0  0  0  0  0  0
    6.1970   -0.2090   27.9960 C   0  0  0  0  0  0  0  0  0  0  0  0
    5.9370    1.2720   28.1020 C   0  0  0  0  0  0  0  0  0  0  0  0
    6.3460    1.9800   29.4040 C   0  0  0  0  0  0  0  0  0  0  0  0
    6.9850    1.1490   30.4950 C   0  0  0  0  0  0  0  0  0  0  0  0
    7.2140   -0.3040   30.3240 C   0  0  0  0  0  0  0  0  0  0  0  0
    6.8050   -0.9620   29.0530 C   0  0  0  0  0  0  0  0  0  0  0  0
    6.8580   -2.1810   28.5890 N   0  0  0  0  0  0  0  0  0  0  0  0
    7.3010   -3.2990   23.7130 C   0  0  0  0  0  0  0  0  0  0  0  0
    7.5880   -3.3120   22.2450 C   0  0  0  0  0  0  0  0  0  0  0  0
  1  2  1  0
  2  3  2  0
  2  4  1  0
  4  5  1  0
  5  6  1  0
  6  7  1  0
  7  8  1  0
  8  9  2  0
  8 10  1  0
 10 11  1  0
 11 12  1  0
 12 13  1  0
 13 14  1  0
 10 15  1  0
 15 16  2  0
 16 17  1  0
 17 18  2  0
 18 19  1  0
 19 20  2  0
 20 21  1  0
 17 22  1  0
 21 22  2  0
 15 23  1  0
 22 23  1  0
  7 24  1  0
  4 25  1  0
 24 25  1  0
M  END
