piperidine-amides-1588-covalent
     RDKit          3D

 21 21  0  0  0  0  0  0  0  0999 V2000
    7.1520   -3.2870   19.2230 C   0  0  0  0  0  0  0  0  0  0  0  0
    6.3350   -4.0270   20.2190 C   0  0  0  0  0  0  0  0  0  0  0  0
    5.2540   -4.5210   19.8720 O   0  0  0  0  0  0  0  0  0  0  0  0
    6.8450   -4.1970   21.5230 N   0  0  0  0  0  0  0  0  0  0  0  0
    7.6590   -3.1910   22.1460 C   0  0  0  0  0  0  0  0  0  0  0  0
    6.8400   -2.6310   23.3130 C   0  0  0  0  0  0  0  0  0  0  0  0
    6.3380   -3.7880   24.1240 C   0  0  0  0  0  0  0  0  0  0  0  0
    5.5970   -3.3340   25.3260 C   0  0  0  0  0  0  0  0  0  0  0  0
    4.3850   -3.1520   25.1840 O   0  0  0  0  0  0  0  0  0  0  0  0
    6.2550   -3.1310   26.5450 N   0  0  0  0  0  0  0  0  0  0  0  0
    7.3460   -3.8640   27.0520 C   0  0  1  0  0  0  0  0  0  0  0  0
    7.9150   -3.4950   28.2280 C   0  0  0  0  0  0  0  0  0  0  0  0
    6.7840   -5.2090   27.4750 C   0  0  0  0  0  0  0  0  0  0  0  0
    5.7380   -5.2530   28.3690 C   0  0  0  0  0  0  0  0  0  0  0  0
    5.6770   -6.3310   29.3930 C   0  0  0  0  0  0  0  0  0  0  0  0
    8.2480   -4.1160   26.0220 C   0  0  0  0  0  0  0  0  0  0  0  0
    8.8860   -3.0770   25.3640 O   0  0  0  0  0  0  0  0  0  0  0  0
    8.5140   -5.3990   25.6220 O   0  0  0  0  0  0  0  0  0  0  0  0
    9.6290   -6.0970   26.1490 C   0  0  0  0  0  0  0  0  0  0  0  0
    5.4240   -4.6850   23.2770 C   0  0  0  0  0  0  0  0  0  0  0  0
    6.3060   -5.3060   22.2590 C   0  0  0  0  0  0  0  0  0  0  0  0
  1  2  1  0
  2  3  2  0
  2  4  1  0
  4  5  1  0
  5  6  1  0
  6  7  1  0
  7  8  1  0
  8  9  2  0
  8 10  1  0
 10 11  1  0
 11 12  1  1
 11 13  1  0
 13 14  1  0
 14 15  1  0
 11 16  1  0
 16 17  2  0
 16 18  1  0
 18 19  1  0
  7 20  1  0
  4 21  1  0
 20 21  1  0
M  END
