piperidine-amides-29450-covalent
     RDKit          3D

 24 26  0  0  0  0  0  0  0  0999 V2000
    7.0560   -3.3710   19.3700 C   0  0  0  0  0  0  0  0  0  0  0  0
    6.4430   -4.2600   20.3560 C   0  0  0  0  0  0  0  0  0  0  0  0
    5.4230   -4.8850   19.9990 O   0  0  0  0  0  0  0  0  0  0  0  0
    7.0420   -4.4370   21.6390 N   0  0  0  0  0  0  0  0  0  0  0  0
    6.6400   -5.5460   22.4480 C   0  0  0  0  0  0  0  0  0  0  0  0
    5.8880   -5.0540   23.6660 C   0  0  0  0  0  0  0  0  0  0  0  0
    6.6920   -3.9730   24.3920 C   0  0  0  0  0  0  0  0  0  0  0  0
    5.8680   -3.3790   25.5030 C   0  0  0  0  0  0  0  0  0  0  0  0
    5.1010   -2.4940   25.1260 O   0  0  0  0  0  0  0  0  0  0  0  0
    5.9670   -3.7960   26.8410 N   0  0  0  0  0  0  0  0  0  0  0  0
    6.9360   -4.6940   27.3400 C   0  0  0  0  0  0  0  0  0  0  0  0
    6.2860   -5.5190   28.2060 C   0  0  0  0  0  0  0  0  0  0  0  0
    5.0800   -4.9110   28.4710 C   0  0  0  0  0  0  0  0  0  0  0  0
    4.7000   -3.9350   27.5380 C   0  0  1  0  0  0  0  0  0  0  0  0
    4.1740   -2.7680   28.3290 C   0  0  0  0  0  0  0  0  0  0  0  0
    2.6210   -2.6930   28.4520 C   0  0  0  0  0  0  0  0  0  0  0  0
    1.9430   -1.5960   29.1990 C   0  0  0  0  0  0  0  0  0  0  0  0
    0.2030   -1.4970   29.3500 Cl  0  0  0  0  0  0  0  0  0  0  0  0
    2.8840   -0.6080   29.7990 C   0  0  0  0  0  0  0  0  0  0  0  0
    4.4050   -0.7310   29.6470 C   0  0  0  0  0  0  0  0  0  0  0  0
    5.0800   -1.7170   28.9710 C   0  0  0  0  0  0  0  0  0  0  0  0
    6.8320   -1.7240   28.8770 Cl  0  0  0  0  0  0  0  0  0  0  0  0
    6.8950   -2.8560   23.4120 C   0  0  0  0  0  0  0  0  0  0  0  0
    7.6860   -3.2900   22.2240 C   0  0  0  0  0  0  0  0  0  0  0  0
  1  2  1  0
  2  3  2  0
  2  4  1  0
  4  5  1  0
  5  6  1  0
  6  7  1  0
  7  8  1  0
  8  9  2  0
  8 10  1  0
 10 11  1  0
 11 12  1  0
 12 13  1  0
 10 14  1  0
 13 14  1  0
 14 15  1  1
 15 16  2  0
 16 17  1  0
 17 18  1  0
 17 19  2  0
 19 20  1  0
 15 21  1  0
 20 21  2  0
 21 22  1  0
  7 23  1  0
  4 24  1  0
 23 24  1  0
M  END
