piperidine-amides-9859-covalent
     RDKit          3D

 27 28  0  0  0  0  0  0  0  0999 V2000
    7.1360   -3.2390   19.1550 C   0  0  0  0  0  0  0  0  0  0  0  0
    6.3570   -3.9450   20.1750 C   0  0  0  0  0  0  0  0  0  0  0  0
    5.2550   -4.4440   19.8280 O   0  0  0  0  0  0  0  0  0  0  0  0
    6.8680   -4.0790   21.4520 N   0  0  0  0  0  0  0  0  0  0  0  0
    6.6730   -5.2980   22.1970 C   0  0  0  0  0  0  0  0  0  0  0  0
    5.8560   -4.9520   23.4010 C   0  0  0  0  0  0  0  0  0  0  0  0
    6.1910   -3.5830   23.9320 C   0  0  0  0  0  0  0  0  0  0  0  0
    6.1650   -3.5990   25.3890 C   0  0  0  0  0  0  0  0  0  0  0  0
    5.1020   -3.2600   25.9610 O   0  0  0  0  0  0  0  0  0  0  0  0
    7.3150   -3.9970   26.1070 N   0  0  0  0  0  0  0  0  0  0  0  0
    7.3820   -3.9370   27.5330 C   0  0  1  0  0  0  0  0  0  0  0  0
    6.4410   -2.8560   28.0050 C   0  0  0  0  0  0  0  0  0  0  0  0
    6.6670   -1.9560   29.0140 C   0  0  0  0  0  0  0  0  0  0  0  0
    5.7000   -1.3830   29.8350 C   0  0  0  0  0  0  0  0  0  0  0  0
    6.0560   -0.4700   30.8300 C   0  0  0  0  0  0  0  0  0  0  0  0
    7.3730   -0.1000   31.0450 C   0  0  0  0  0  0  0  0  0  0  0  0
    8.3610   -0.6340   30.2690 C   0  0  0  0  0  0  0  0  0  0  0  0
    7.9840   -1.6070   29.2000 C   0  0  0  0  0  0  0  0  0  0  0  0
    6.9640   -5.1520   28.2440 C   0  0  0  0  0  0  0  0  0  0  0  0
    7.8900   -5.9070   28.5880 O   0  0  0  0  0  0  0  0  0  0  0  0
    5.6240   -5.4600   28.5410 N   0  0  0  0  0  0  0  0  0  0  0  0
    5.4020   -6.5870   29.4240 C   0  0  0  0  0  0  0  0  0  0  0  0
    4.2140   -7.4660   29.0720 C   0  0  0  0  0  0  0  0  0  0  0  0
    3.0690   -7.1740   29.7690 O   0  0  0  0  0  0  0  0  0  0  0  0
    2.1380   -8.1480   30.1950 C   0  0  0  0  0  0  0  0  0  0  0  0
    7.6060   -3.2060   23.5390 C   0  0  0  0  0  0  0  0  0  0  0  0
    7.7010   -3.0540   22.0450 C   0  0  0  0  0  0  0  0  0  0  0  0
  1  2  1  0
  2  3  2  0
  2  4  1  0
  4  5  1  0
  5  6  1  0
  6  7  1  0
  7  8  1  0
  8  9  2  0
  8 10  1  0
 10 11  1  0
 11 12  1  1
 12 13  1  0
 13 14  2  0
 14 15  1  0
 15 16  2  0
 16 17  1  0
 13 18  1  0
 17 18  2  0
 11 19  1  0
 19 20  2  0
 19 21  1  0
 21 22  1  0
 22 23  1  0
 23 24  1  0
 24 25  1  0
  7 26  1  0
  4 27  1  0
 26 27  1  0
M  END
