piperidine-amides-26092-covalent
     RDKit          3D

 25 28  0  0  0  0  0  0  0  0999 V2000
    7.0300   -3.3340   19.4190 C   0  0  0  0  0  0  0  0  0  0  0  0
    6.3590   -4.1990   20.3920 C   0  0  0  0  0  0  0  0  0  0  0  0
    5.3770   -4.8490   19.9920 O   0  0  0  0  0  0  0  0  0  0  0  0
    6.7990   -4.3860   21.7340 N   0  0  0  0  0  0  0  0  0  0  0  0
    6.7870   -5.7110   22.2980 C   0  0  0  0  0  0  0  0  0  0  0  0
    6.4110   -5.5390   23.7290 C   0  0  0  0  0  0  0  0  0  0  0  0
    6.1940   -4.1100   24.0700 C   0  0  0  0  0  0  0  0  0  0  0  0
    5.6000   -4.0100   25.4530 C   0  0  0  0  0  0  0  0  0  0  0  0
    4.5650   -4.7020   25.6340 O   0  0  0  0  0  0  0  0  0  0  0  0
    5.9250   -3.2040   26.5890 N   0  0  0  0  0  0  0  0  0  0  0  0
    4.7620   -2.3070   26.9840 C   0  0  0  0  0  0  0  0  0  0  0  0
    4.1310   -3.0550   28.1200 C   0  0  0  0  0  0  0  0  0  0  0  0
    4.9680   -4.1760   28.0740 C   0  0  2  0  0  0  0  0  0  0  0  0
    5.4280   -5.0710   29.1670 C   0  0  0  0  0  0  0  0  0  0  0  0
    6.7680   -5.0250   28.4860 C   0  0  0  0  0  0  0  0  0  0  0  0
    6.3840   -3.7180   27.8640 C   0  0  1  0  0  0  0  0  0  0  0  0
    6.6580   -2.5340   28.5080 C   0  0  0  0  0  0  0  0  0  0  0  0
    7.0670   -1.3450   27.7860 N   0  0  0  0  0  0  0  0  0  0  0  0
    7.1990   -0.4450   28.7530 N   0  0  0  0  0  0  0  0  0  0  0  0
    6.9020   -1.0200   29.9500 C   0  0  0  0  0  0  0  0  0  0  0  0
    6.9920   -0.1520   31.1880 C   0  0  0  0  0  0  0  0  0  0  0  0
    5.7150    0.0010   32.0210 C   0  0  0  0  0  0  0  0  0  0  0  0
    6.5600   -2.3580   29.7400 O   0  0  0  0  0  0  0  0  0  0  0  0
    7.4790   -3.3660   23.6570 C   0  0  0  0  0  0  0  0  0  0  0  0
    7.4830   -3.2540   22.4230 C   0  0  0  0  0  0  0  0  0  0  0  0
  1  2  1  0
  2  3  2  0
  2  4  1  0
  4  5  1  0
  5  6  1  0
  6  7  1  0
  7  8  1  0
  8  9  2  0
  8 10  1  0
 10 11  1  0
 11 12  1  0
 13 12  1  1
 13 14  1  0
 14 15  1  0
 10 16  1  0
 13 16  1  0
 15 16  1  0
 16 17  1  1
 17 18  2  0
 18 19  1  0
 19 20  2  0
 20 21  1  0
 21 22  1  0
 17 23  1  0
 20 23  1  0
  7 24  1  0
  4 25  1  0
 24 25  1  0
M  END
