piperidine-amides-31093-covalent
     RDKit          3D

 26 28  0  0  0  0  0  0  0  0999 V2000
    7.1050   -3.3490   19.3300 C   0  0  0  0  0  0  0  0  0  0  0  0
    6.4210   -4.2040   20.2980 C   0  0  0  0  0  0  0  0  0  0  0  0
    5.3580   -4.7570   19.9600 O   0  0  0  0  0  0  0  0  0  0  0  0
    6.9650   -4.4750   21.5630 N   0  0  0  0  0  0  0  0  0  0  0  0
    6.6590   -5.6690   22.2960 C   0  0  0  0  0  0  0  0  0  0  0  0
    5.9750   -5.1690   23.5340 C   0  0  0  0  0  0  0  0  0  0  0  0
    6.6300   -3.9450   24.1170 C   0  0  0  0  0  0  0  0  0  0  0  0
    5.7930   -3.3620   25.1850 C   0  0  0  0  0  0  0  0  0  0  0  0
    4.8110   -2.6290   24.8690 O   0  0  0  0  0  0  0  0  0  0  0  0
    5.9760   -3.5710   26.5570 N   0  0  0  0  0  0  0  0  0  0  0  0
    4.9090   -4.3230   27.2280 C   0  0  0  0  0  0  0  0  0  0  0  0
    5.4960   -5.3260   28.1320 C   0  0  0  0  0  0  0  0  0  0  0  0
    5.6870   -4.8570   29.4890 C   0  0  0  0  0  0  0  0  0  0  0  0
    5.9910   -3.4430   29.5680 N   0  0  0  0  0  0  0  0  0  0  0  0
    4.7200   -2.7280   29.9040 C   0  0  0  0  0  0  0  0  0  0  0  0
    3.4660   -3.3840   29.7630 N   0  0  0  0  0  0  0  0  0  0  0  0
    2.3660   -2.7370   30.0650 C   0  0  0  0  0  0  0  0  0  0  0  0
    2.2550   -1.3790   30.5480 C   0  0  0  0  0  0  0  0  0  0  0  0
    0.7300   -0.5800   30.9300 Cl  0  0  0  0  0  0  0  0  0  0  0  0
    3.4290   -0.7140   30.7020 C   0  0  0  0  0  0  0  0  0  0  0  0
    4.7080   -1.2710   30.4180 C   0  0  0  0  0  0  0  0  0  0  0  0
    5.8430   -0.5810   30.5840 F   0  0  0  0  0  0  0  0  0  0  0  0
    6.9020   -3.0770   28.6760 C   0  0  0  0  0  0  0  0  0  0  0  0
    6.4770   -2.4670   27.3500 C   0  0  0  0  0  0  0  0  0  0  0  0
    6.9000   -2.9140   23.0170 C   0  0  0  0  0  0  0  0  0  0  0  0
    7.6790   -3.3940   22.2470 C   0  0  0  0  0  0  0  0  0  0  0  0
  1  2  1  0
  2  3  2  0
  2  4  1  0
  4  5  1  0
  5  6  1  0
  6  7  1  0
  7  8  1  0
  8  9  2  0
  8 10  1  0
 10 11  1  0
 11 12  1  0
 12 13  1  0
 13 14  1  0
 14 15  1  0
 15 16  2  0
 16 17  1  0
 17 18  2  0
 18 19  1  0
 18 20  1  0
 15 21  1  0
 20 21  2  0
 21 22  1  0
 14 23  1  0
 10 24  1  0
 23 24  1  0
  7 25  1  0
  4 26  1  0
 25 26  1  0
M  END
