piperidine-amides-7038-covalent
     RDKit          3D

 22 24  0  0  0  0  0  0  0  0999 V2000
    7.0570   -3.3330   19.2980 C   0  0  0  0  0  0  0  0  0  0  0  0
    6.3930   -4.1800   20.2990 C   0  0  0  0  0  0  0  0  0  0  0  0
    5.3740   -4.8310   19.9800 O   0  0  0  0  0  0  0  0  0  0  0  0
    6.9180   -4.3090   21.5940 N   0  0  0  0  0  0  0  0  0  0  0  0
    7.6880   -3.2340   22.1830 C   0  0  0  0  0  0  0  0  0  0  0  0
    6.8140   -2.6270   23.2800 C   0  0  0  0  0  0  0  0  0  0  0  0
    6.6000   -3.7270   24.2900 C   0  0  0  0  0  0  0  0  0  0  0  0
    5.6850   -3.2370   25.3440 C   0  0  0  0  0  0  0  0  0  0  0  0
    4.4680   -3.1630   25.0780 O   0  0  0  0  0  0  0  0  0  0  0  0
    6.1840   -2.8700   26.6200 N   0  0  0  0  0  0  0  0  0  0  0  0
    6.7530   -1.5640   26.8240 C   0  0  1  0  0  0  0  0  0  0  0  0
    5.7910   -0.4290   26.5010 C   0  0  0  0  0  0  0  0  0  0  0  0
    5.6270    0.4170   27.5700 C   0  0  0  0  0  0  0  0  0  0  0  0
    4.9760    1.5040   27.5860 O   0  0  0  0  0  0  0  0  0  0  0  0
    6.3120   -0.1440   28.6630 N   0  0  0  0  0  0  0  0  0  0  0  0
    6.6310    0.6760   29.7590 C   0  0  0  0  0  0  0  0  0  0  0  0
    5.4660    0.6770   30.5300 C   0  0  0  0  0  0  0  0  0  0  0  0
    5.3580    1.4250   31.5380 C   0  0  0  0  0  0  0  0  0  0  0  0
    5.8890    0.0690   31.9720 C   0  0  0  0  0  0  0  0  0  0  0  0
    6.9930   -1.3290   28.2800 C   0  0  0  0  0  0  0  0  0  0  0  0
    6.0250   -4.9760   23.7350 C   0  0  0  0  0  0  0  0  0  0  0  0
    6.5230   -5.3900   22.4230 C   0  0  0  0  0  0  0  0  0  0  0  0
  1  2  1  0
  2  3  2  0
  2  4  1  0
  4  5  1  0
  5  6  1  0
  6  7  1  0
  7  8  1  0
  8  9  2  0
  8 10  1  0
 11 10  1  1
 11 12  1  0
 12 13  1  0
 13 14  2  0
 13 15  1  0
 15 16  1  0
 16 17  1  0
 17 18  1  0
 17 19  1  0
 18 19  1  0
 11 20  1  0
 15 20  1  0
  7 21  1  0
  4 22  1  0
 21 22  1  0
M  END
