piperidine-amides-4286-covalent
     RDKit          3D

 26 28  0  0  0  0  0  0  0  0999 V2000
    7.0630   -3.3340   19.3040 C   0  0  0  0  0  0  0  0  0  0  0  0
    6.3790   -4.1490   20.3200 C   0  0  0  0  0  0  0  0  0  0  0  0
    5.3400   -4.7530   19.9560 O   0  0  0  0  0  0  0  0  0  0  0  0
    6.8990   -4.2980   21.6270 N   0  0  0  0  0  0  0  0  0  0  0  0
    7.6220   -3.2030   22.1900 C   0  0  0  0  0  0  0  0  0  0  0  0
    7.3170   -2.8900   23.5790 C   0  0  0  0  0  0  0  0  0  0  0  0
    6.4310   -3.8340   24.2850 C   0  0  0  0  0  0  0  0  0  0  0  0
    5.6430   -3.1380   25.3630 C   0  0  0  0  0  0  0  0  0  0  0  0
    4.4280   -2.9430   25.1860 O   0  0  0  0  0  0  0  0  0  0  0  0
    6.2320   -2.6980   26.5830 N   0  0  0  0  0  0  0  0  0  0  0  0
    6.7950   -1.4340   26.9330 C   0  0  2  0  0  0  0  0  0  0  0  0
    7.3970   -1.3040   28.2670 C   0  0  0  0  0  0  0  0  0  0  0  0
    6.5340   -0.4300   29.1670 C   0  0  0  0  0  0  0  0  0  0  0  0
    6.3150    0.8210   28.6550 C   0  0  0  0  0  0  0  0  0  0  0  0
    5.8520    0.8310   27.3330 N   0  0  0  0  0  0  0  0  0  0  0  0
    5.5920    2.0960   26.7340 C   0  0  0  0  0  0  0  0  0  0  0  0
    6.8740    2.8170   26.4480 C   0  0  0  0  0  0  0  0  0  0  0  0
    6.9750    3.7790   27.3890 N   0  0  0  0  0  0  0  0  0  0  0  0
    8.4110    4.0240   27.4930 C   0  0  0  0  0  0  0  0  0  0  0  0
    8.5740    5.0700   28.5650 C   0  0  0  0  0  0  0  0  0  0  0  0
    7.5270    5.9850   28.7650 O   0  0  0  0  0  0  0  0  0  0  0  0
    6.5840    6.1740   27.7210 C   0  0  0  0  0  0  0  0  0  0  0  0
    6.1570    4.9080   26.9520 C   0  0  0  0  0  0  0  0  0  0  0  0
    5.7370   -0.3790   26.7600 C   0  0  0  0  0  0  0  0  0  0  0  0
    5.5390   -4.6450   23.3880 C   0  0  0  0  0  0  0  0  0  0  0  0
    6.3610   -5.2990   22.4910 C   0  0  0  0  0  0  0  0  0  0  0  0
  1  2  1  0
  2  3  2  0
  2  4  1  0
  4  5  1  0
  5  6  1  0
  6  7  1  0
  7  8  1  0
  8  9  2  0
  8 10  1  0
 11 10  1  1
 11 12  1  0
 12 13  1  0
 13 14  1  0
 14 15  1  0
 15 16  1  0
 16 17  1  0
 17 18  1  0
 18 19  1  0
 19 20  1  0
 20 21  1  0
 21 22  1  0
 18 23  1  0
 22 23  1  0
 11 24  1  0
 15 24  1  0
  7 25  1  0
  4 26  1  0
 25 26  1  0
M  END
