piperidine-amides-23510-covalent
     RDKit          3D

 22 23  0  0  0  0  0  0  0  0999 V2000
    7.0100   -3.3840   19.4240 C   0  0  0  0  0  0  0  0  0  0  0  0
    6.3760   -4.2680   20.4240 C   0  0  0  0  0  0  0  0  0  0  0  0
    5.4190   -4.9680   20.0100 O   0  0  0  0  0  0  0  0  0  0  0  0
    6.8570   -4.3400   21.7650 N   0  0  0  0  0  0  0  0  0  0  0  0
    6.5170   -5.4710   22.5830 C   0  0  0  0  0  0  0  0  0  0  0  0
    6.1150   -5.1260   23.9570 C   0  0  0  0  0  0  0  0  0  0  0  0
    6.1860   -3.6750   24.2190 C   0  0  0  0  0  0  0  0  0  0  0  0
    5.6470   -3.1330   25.5480 C   0  0  0  0  0  0  0  0  0  0  0  0
    5.2810   -1.9510   25.5180 O   0  0  0  0  0  0  0  0  0  0  0  0
    5.4460   -3.7850   26.8100 N   0  0  0  0  0  0  0  0  0  0  0  0
    6.3530   -4.0010   27.8460 C   0  0  0  0  0  0  0  0  0  0  0  0
    6.5020   -5.3640   28.3210 C   0  0  2  0  0  0  0  0  0  0  0  0
    6.4070   -6.3130   27.1490 C   0  0  0  0  0  0  0  0  0  0  0  0
    5.0070   -5.7440   29.1900 S   0  0  0  0  0  0  0  0  0  0  0  0
    4.3670   -6.9910   28.6520 O   0  0  0  0  0  0  0  0  0  0  0  0
    5.2320   -5.9070   30.6470 O   0  0  0  0  0  0  0  0  0  0  0  0
    4.0780   -4.2960   28.7280 C   0  0  2  0  0  0  0  0  0  0  0  0
    2.6280   -4.6310   28.3390 C   0  0  0  0  0  0  0  0  0  0  0  0
    3.0490   -5.6580   27.3310 C   0  0  0  0  0  0  0  0  0  0  0  0
    4.1770   -3.5260   27.4320 C   0  0  0  0  0  0  0  0  0  0  0  0
    7.5130   -3.0910   23.8110 C   0  0  0  0  0  0  0  0  0  0  0  0
    7.6740   -3.2580   22.3060 C   0  0  0  0  0  0  0  0  0  0  0  0
  1  2  1  0
  2  3  2  0
  2  4  1  0
  4  5  1  0
  5  6  1  0
  6  7  1  0
  7  8  1  0
  8  9  2  0
  8 10  1  0
 10 11  1  0
 11 12  1  0
 12 13  1  6
 14 12  1  0
 14 15  2  0
 14 16  2  0
 14 17  1  0
 17 18  1  6
 18 19  1  0
 10 20  1  0
 17 20  1  0
  7 21  1  0
  4 22  1  0
 21 22  1  0
M  END
