piperidine-amides-6836-covalent
     RDKit          3D

 23 25  0  0  0  0  0  0  0  0999 V2000
    7.0050   -3.3280   19.3510 C   0  0  0  0  0  0  0  0  0  0  0  0
    6.3190   -4.2120   20.3080 C   0  0  0  0  0  0  0  0  0  0  0  0
    5.3140   -4.8600   19.9630 O   0  0  0  0  0  0  0  0  0  0  0  0
    6.8030   -4.3750   21.6040 N   0  0  0  0  0  0  0  0  0  0  0  0
    7.5760   -3.3160   22.2040 C   0  0  0  0  0  0  0  0  0  0  0  0
    7.3520   -3.4270   23.7040 C   0  0  0  0  0  0  0  0  0  0  0  0
    5.9000   -3.7630   23.8710 C   0  0  0  0  0  0  0  0  0  0  0  0
    5.3920   -3.5070   25.2390 C   0  0  0  0  0  0  0  0  0  0  0  0
    4.1620   -3.5990   25.4220 O   0  0  0  0  0  0  0  0  0  0  0  0
    6.2620   -3.1550   26.3000 N   0  0  0  0  0  0  0  0  0  0  0  0
    6.7310   -1.8030   26.3770 C   0  0  0  0  0  0  0  0  0  0  0  0
    7.7590   -1.7720   25.2400 C   0  0  0  0  0  0  0  0  0  0  0  0
    7.8160   -0.9070   24.1370 C   0  0  0  0  0  0  0  0  0  0  0  0
    8.7860   -0.9440   23.1410 C   0  0  0  0  0  0  0  0  0  0  0  0
    9.7980   -1.8840   23.1850 C   0  0  0  0  0  0  0  0  0  0  0  0
    9.8770   -2.7890   24.1810 C   0  0  0  0  0  0  0  0  0  0  0  0
    8.8670   -2.8190   25.2950 C   0  0  0  0  0  0  0  0  0  0  0  0
    7.3750   -1.6880   27.7020 C   0  0  0  0  0  0  0  0  0  0  0  0
    6.7340   -0.8330   28.7980 C   0  0  0  0  0  0  0  0  0  0  0  0
    6.2580   -0.0040   27.6240 C   0  0  0  0  0  0  0  0  0  0  0  0
    5.9440   -0.7330   26.4640 C   0  0  0  0  0  0  0  0  0  0  0  0
    5.7680   -5.2510   23.5750 C   0  0  0  0  0  0  0  0  0  0  0  0
    6.5630   -5.6010   22.3390 C   0  0  0  0  0  0  0  0  0  0  0  0
  1  2  1  0
  2  3  2  0
  2  4  1  0
  4  5  1  0
  5  6  1  0
  6  7  1  0
  7  8  1  0
  8  9  2  0
  8 10  1  0
 11 10  1  0
 11 12  1  0
 12 13  2  0
 13 14  1  0
 14 15  2  0
 15 16  1  0
 12 17  1  0
 16 17  2  0
 11 18  1  0
 18 19  1  0
 19 20  1  0
 11 21  1  0
 20 21  1  0
  7 22  1  0
  4 23  1  0
 22 23  1  0
M  END
