piperidine-amides-19586-covalent
     RDKit          3D

 22 24  0  0  0  0  0  0  0  0999 V2000
    7.2960   -3.3990   19.2480 C   0  0  0  0  0  0  0  0  0  0  0  0
    6.5200   -4.0820   20.2670 C   0  0  0  0  0  0  0  0  0  0  0  0
    5.4000   -4.5880   19.9320 O   0  0  0  0  0  0  0  0  0  0  0  0
    6.9950   -4.2520   21.5790 N   0  0  0  0  0  0  0  0  0  0  0  0
    6.6250   -5.4970   22.2770 C   0  0  0  0  0  0  0  0  0  0  0  0
    5.7360   -4.8680   23.4160 C   0  0  0  0  0  0  0  0  0  0  0  0
    6.5970   -3.8310   24.1190 C   0  0  0  0  0  0  0  0  0  0  0  0
    5.8590   -3.4310   25.4580 C   0  0  0  0  0  0  0  0  0  0  0  0
    4.7550   -2.9440   25.2390 O   0  0  0  0  0  0  0  0  0  0  0  0
    6.6380   -3.7400   26.4030 N   0  0  0  0  0  0  0  0  0  0  0  0
    7.6750   -4.3130   27.0610 C   0  0  0  0  0  0  0  0  0  0  0  0
    7.7440   -5.3370   27.9510 C   0  0  0  0  0  0  0  0  0  0  0  0
    6.6720   -5.1690   28.8460 C   0  0  0  0  0  0  0  0  0  0  0  0
    5.7890   -6.2690   29.2940 C   0  0  0  0  0  0  0  0  0  0  0  0
    5.7730   -6.8760   30.5350 N   0  0  0  0  0  0  0  0  0  0  0  0
    4.8400   -7.8140   30.5800 N   0  0  0  0  0  0  0  0  0  0  0  0
    4.2740   -7.8000   29.3840 C   0  0  0  0  0  0  0  0  0  0  0  0
    4.8350   -6.8640   28.5750 N   0  0  0  0  0  0  0  0  0  0  0  0
    5.5590   -4.3180   28.3990 C   0  0  0  0  0  0  0  0  0  0  0  0
    6.1260   -3.2640   27.6690 C   0  0  0  0  0  0  0  0  0  0  0  0
    7.1830   -2.7650   23.3550 C   0  0  0  0  0  0  0  0  0  0  0  0
    7.9610   -3.4510   22.2070 C   0  0  0  0  0  0  0  0  0  0  0  0
  1  2  1  0
  2  3  2  0
  2  4  1  0
  4  5  1  0
  5  6  1  0
  6  7  1  0
  7  8  1  0
  8  9  2  0
  8 10  1  0
 10 11  1  0
 11 12  1  0
 12 13  1  0
 13 14  1  0
 14 15  2  0
 15 16  1  0
 16 17  2  0
 14 18  1  0
 17 18  1  0
 13 19  1  0
 10 20  1  0
 19 20  1  0
  7 21  1  0
  4 22  1  0
 21 22  1  0
M  END
