piperidine-amides-27914-covalent
     RDKit          3D

 24 26  0  0  0  0  0  0  0  0999 V2000
    6.9870   -3.3910   19.3510 C   0  0  0  0  0  0  0  0  0  0  0  0
    6.3590   -4.2730   20.3640 C   0  0  0  0  0  0  0  0  0  0  0  0
    5.3510   -4.8970   19.9840 O   0  0  0  0  0  0  0  0  0  0  0  0
    6.9000   -4.4310   21.6520 N   0  0  0  0  0  0  0  0  0  0  0  0
    6.5680   -5.5980   22.4160 C   0  0  0  0  0  0  0  0  0  0  0  0
    5.8640   -5.3030   23.6750 C   0  0  0  0  0  0  0  0  0  0  0  0
    5.8280   -3.8650   23.9870 C   0  0  0  0  0  0  0  0  0  0  0  0
    5.2420   -3.5130   25.3250 C   0  0  0  0  0  0  0  0  0  0  0  0
    4.4600   -2.5510   25.3390 O   0  0  0  0  0  0  0  0  0  0  0  0
    5.5050   -4.1760   26.5510 N   0  0  0  0  0  0  0  0  0  0  0  0
    6.8300   -4.0770   27.0740 C   0  0  0  0  0  0  0  0  0  0  0  0
    6.9230   -4.0430   28.5730 C   0  0  0  0  0  0  0  0  0  0  0  0
    5.9050   -4.0040   29.3010 O   0  0  0  0  0  0  0  0  0  0  0  0
    4.9730   -4.6970   28.7840 C   0  0  0  0  0  0  0  0  0  0  0  0
    3.7950   -4.8570   29.5290 C   0  0  0  0  0  0  0  0  0  0  0  0
    3.7870   -5.5240   30.7490 C   0  0  0  0  0  0  0  0  0  0  0  0
    4.8630   -6.8670   30.6630 S   0  0  0  0  0  0  0  0  0  0  0  0
    4.0460   -8.0870   30.8100 O   0  0  0  0  0  0  0  0  0  0  0  0
    5.9390   -6.7790   31.6800 O   0  0  0  0  0  0  0  0  0  0  0  0
    5.6640   -6.9550   29.1130 C   0  0  0  0  0  0  0  0  0  0  0  0
    5.3190   -5.9260   28.2810 C   0  0  0  0  0  0  0  0  0  0  0  0
    4.5090   -4.0290   27.6450 C   0  0  0  0  0  0  0  0  0  0  0  0
    7.1980   -3.3080   23.7580 C   0  0  0  0  0  0  0  0  0  0  0  0
    7.6030   -3.3570   22.3340 C   0  0  0  0  0  0  0  0  0  0  0  0
  1  2  1  0
  2  3  2  0
  2  4  1  0
  4  5  1  0
  5  6  1  0
  6  7  1  0
  7  8  1  0
  8  9  2  0
  8 10  1  0
 10 11  1  0
 11 12  1  0
 12 13  1  0
 14 13  1  0
 14 15  1  0
 15 16  1  0
 17 16  1  0
 17 18  2  0
 17 19  2  0
 17 20  1  0
 14 21  1  0
 20 21  1  0
 10 22  1  0
 14 22  1  0
  7 23  1  0
  4 24  1  0
 23 24  1  0
M  END
