piperidine-amides-3027-covalent
     RDKit          3D

 23 25  0  0  0  0  0  0  0  0999 V2000
    7.0840   -3.2900   19.3120 C   0  0  0  0  0  0  0  0  0  0  0  0
    6.3410   -4.0800   20.2910 C   0  0  0  0  0  0  0  0  0  0  0  0
    5.3390   -4.7030   19.9420 O   0  0  0  0  0  0  0  0  0  0  0  0
    6.7930   -4.1740   21.6580 N   0  0  0  0  0  0  0  0  0  0  0  0
    7.7090   -3.1790   22.1690 C   0  0  0  0  0  0  0  0  0  0  0  0
    7.4290   -2.9300   23.6180 C   0  0  0  0  0  0  0  0  0  0  0  0
    6.1090   -3.6100   23.9030 C   0  0  0  0  0  0  0  0  0  0  0  0
    5.5920   -3.2750   25.2590 C   0  0  0  0  0  0  0  0  0  0  0  0
    4.3760   -3.1420   25.4800 O   0  0  0  0  0  0  0  0  0  0  0  0
    6.4990   -3.0940   26.3270 N   0  0  0  0  0  0  0  0  0  0  0  0
    5.9880   -3.1780   27.6810 C   0  0  0  0  0  0  0  0  0  0  0  0
    6.4480   -4.4720   28.2900 C   0  0  0  0  0  0  0  0  0  0  0  0
    5.7120   -5.1460   29.2230 C   0  0  0  0  0  0  0  0  0  0  0  0
    6.1660   -6.4400   29.5840 C   0  0  0  0  0  0  0  0  0  0  0  0
    5.5440   -7.2490   30.5150 C   0  0  0  0  0  0  0  0  0  0  0  0
    4.3590   -6.7670   31.1660 C   0  0  0  0  0  0  0  0  0  0  0  0
    3.8550   -5.5500   30.8820 C   0  0  0  0  0  0  0  0  0  0  0  0
    2.8150   -4.8050   31.2770 C   0  0  0  0  0  0  0  0  0  0  0  0
    2.7650   -3.6000   30.6490 C   0  0  0  0  0  0  0  0  0  0  0  0
    3.8110   -3.5350   29.8010 N   0  0  0  0  0  0  0  0  0  0  0  0
    4.5660   -4.7120   29.8680 C   0  0  0  0  0  0  0  0  0  0  0  0
    6.1570   -5.1110   23.6800 C   0  0  0  0  0  0  0  0  0  0  0  0
    6.6130   -5.4050   22.3870 C   0  0  0  0  0  0  0  0  0  0  0  0
  1  2  1  0
  2  3  2  0
  2  4  1  0
  4  5  1  0
  5  6  1  0
  6  7  1  0
  7  8  1  0
  8  9  2  0
  8 10  1  0
 10 11  1  0
 11 12  1  0
 12 13  1  0
 13 14  2  0
 14 15  1  0
 15 16  2  0
 16 17  1  0
 17 18  1  0
 18 19  2  0
 19 20  1  0
 13 21  1  0
 17 21  2  0
 20 21  1  0
  7 22  1  0
  4 23  1  0
 22 23  1  0
M  END
