piperidine-amides-8155-covalent
     RDKit          3D

 26 27  0  0  0  0  0  0  0  0999 V2000
    7.1420   -3.2710   19.2210 C   0  0  0  0  0  0  0  0  0  0  0  0
    6.4370   -4.0580   20.2300 C   0  0  0  0  0  0  0  0  0  0  0  0
    5.3540   -4.5810   19.9080 O   0  0  0  0  0  0  0  0  0  0  0  0
    7.0100   -4.2610   21.5100 N   0  0  0  0  0  0  0  0  0  0  0  0
    6.4800   -5.3220   22.2990 C   0  0  0  0  0  0  0  0  0  0  0  0
    5.6310   -4.6990   23.3620 C   0  0  0  0  0  0  0  0  0  0  0  0
    6.5400   -3.8310   24.2160 C   0  0  0  0  0  0  0  0  0  0  0  0
    5.7490   -3.2480   25.3450 C   0  0  0  0  0  0  0  0  0  0  0  0
    4.6240   -2.8370   25.0640 O   0  0  0  0  0  0  0  0  0  0  0  0
    6.3210   -3.2130   26.6070 N   0  0  0  0  0  0  0  0  0  0  0  0
    5.8280   -3.9920   27.7020 C   0  0  0  0  0  0  0  0  0  0  0  0
    5.0360   -5.1120   27.3440 C   0  0  0  0  0  0  0  0  0  0  0  0
    5.1760   -5.7070   26.1070 C   0  0  0  0  0  0  0  0  0  0  0  0
    4.4480   -6.8030   25.6470 C   0  0  0  0  0  0  0  0  0  0  0  0
    3.4340   -7.3840   26.5750 C   0  0  0  0  0  0  0  0  0  0  0  0
    3.2510   -6.7530   27.9620 C   0  0  0  0  0  0  0  0  0  0  0  0
    4.1150   -5.5910   28.2650 C   0  0  0  0  0  0  0  0  0  0  0  0
    3.9600   -4.8300   29.8000 S   0  0  0  0  0  0  0  0  0  0  0  0
    5.0250   -3.7720   29.9250 O   0  0  0  0  0  0  0  0  0  0  0  0
    2.6370   -4.1460   29.9440 O   0  0  0  0  0  0  0  0  0  0  0  0
    4.1820   -5.9190   31.1380 N   0  0  0  0  0  0  0  0  0  0  0  0
    4.8790   -7.1510   30.8630 C   0  0  0  0  0  0  0  0  0  0  0  0
    5.9320   -7.3250   29.7320 C   0  0  0  0  0  0  0  0  0  0  0  0
    5.4770   -7.6040   32.0140 C   0  0  0  0  0  0  0  0  0  0  0  0
    7.0290   -2.6920   23.3720 C   0  0  0  0  0  0  0  0  0  0  0  0
    7.6980   -3.1360   22.1020 C   0  0  0  0  0  0  0  0  0  0  0  0
  1  2  1  0
  2  3  2  0
  2  4  1  0
  4  5  1  0
  5  6  1  0
  6  7  1  0
  7  8  1  0
  8  9  2  0
  8 10  1  0
 10 11  1  0
 11 12  1  0
 12 13  2  0
 13 14  1  0
 14 15  2  0
 15 16  1  0
 12 17  1  0
 16 17  2  0
 17 18  1  0
 18 19  2  0
 18 20  2  0
 18 21  1  0
 21 22  1  0
 22 23  1  0
 22 24  1  0
  7 25  1  0
  4 26  1  0
 25 26  1  0
M  END
