piperidine-amides-5039-covalent
     RDKit          3D

 22 23  0  0  0  0  0  0  0  0999 V2000
    7.0980   -3.2890   19.2140 C   0  0  0  0  0  0  0  0  0  0  0  0
    6.3590   -4.0780   20.2270 C   0  0  0  0  0  0  0  0  0  0  0  0
    5.2700   -4.5710   19.8800 O   0  0  0  0  0  0  0  0  0  0  0  0
    6.8940   -4.2990   21.4940 N   0  0  0  0  0  0  0  0  0  0  0  0
    7.6520   -3.2490   22.0990 C   0  0  0  0  0  0  0  0  0  0  0  0
    7.1590   -2.8180   23.3950 C   0  0  0  0  0  0  0  0  0  0  0  0
    6.5610   -3.8800   24.2200 C   0  0  0  0  0  0  0  0  0  0  0  0
    5.9150   -3.2730   25.3970 C   0  0  0  0  0  0  0  0  0  0  0  0
    4.6980   -3.4630   25.5980 O   0  0  0  0  0  0  0  0  0  0  0  0
    6.6920   -2.4750   26.2560 N   0  0  0  0  0  0  0  0  0  0  0  0
    6.1230   -1.6130   27.3030 C   0  0  2  0  0  0  0  0  0  0  0  0
    5.6690   -0.2910   26.7810 C   0  0  0  0  0  0  0  0  0  0  0  0
    5.8610    0.7850   27.7680 C   0  0  0  0  0  0  0  0  0  0  0  0
    6.6030    0.0900   28.8090 N   0  0  0  0  0  0  0  0  0  0  0  0
    6.7390    0.3050   30.2060 C   0  0  0  0  0  0  0  0  0  0  0  0
    5.6130    0.2200   31.0060 C   0  0  0  0  0  0  0  0  0  0  0  0
    4.9140   -0.8790   30.6200 C   0  0  0  0  0  0  0  0  0  0  0  0
    6.2990    0.2980   32.3380 C   0  0  0  0  0  0  0  0  0  0  0  0
    5.0520    1.3970   30.9710 O   0  0  0  0  0  0  0  0  0  0  0  0
    6.8340   -1.3400   28.4750 C   0  0  0  0  0  0  0  0  0  0  0  0
    5.6510   -4.7790   23.4280 C   0  0  0  0  0  0  0  0  0  0  0  0
    6.4430   -5.3820   22.3370 C   0  0  0  0  0  0  0  0  0  0  0  0
  1  2  1  0
  2  3  2  0
  2  4  1  0
  4  5  1  0
  5  6  1  0
  6  7  1  0
  7  8  1  0
  8  9  2  0
  8 10  1  0
 11 10  1  6
 11 12  1  0
 12 13  1  0
 13 14  1  0
 14 15  1  0
 15 16  1  0
 16 17  1  0
 16 18  1  0
 16 19  1  0
 11 20  1  0
 14 20  1  0
  7 21  1  0
  4 22  1  0
 21 22  1  0
M  END
