piperidine-amides-28860-covalent
     RDKit          3D

 25 27  0  0  0  0  0  0  0  0999 V2000
    7.0050   -3.3450   19.3230 C   0  0  0  0  0  0  0  0  0  0  0  0
    6.3370   -4.2000   20.3070 C   0  0  0  0  0  0  0  0  0  0  0  0
    5.3260   -4.8270   19.9570 O   0  0  0  0  0  0  0  0  0  0  0  0
    6.8510   -4.3450   21.6140 N   0  0  0  0  0  0  0  0  0  0  0  0
    6.6090   -5.5870   22.3060 C   0  0  0  0  0  0  0  0  0  0  0  0
    6.1020   -5.3690   23.7160 C   0  0  0  0  0  0  0  0  0  0  0  0
    6.0400   -3.8830   23.9560 C   0  0  0  0  0  0  0  0  0  0  0  0
    5.5780   -3.5110   25.3440 C   0  0  0  0  0  0  0  0  0  0  0  0
    4.5200   -2.8920   25.3720 O   0  0  0  0  0  0  0  0  0  0  0  0
    6.3040   -3.8520   26.4890 N   0  0  0  0  0  0  0  0  0  0  0  0
    6.9280   -5.1140   26.6140 C   0  0  0  0  0  0  0  0  0  0  0  0
    7.0140   -5.3340   27.9820 C   0  0  0  0  0  0  0  0  0  0  0  0
    6.2690   -4.3480   28.6020 C   0  0  0  0  0  0  0  0  0  0  0  0
    5.6990   -3.4040   27.7490 C   0  0  1  0  0  0  0  0  0  0  0  0
    6.1690   -2.0810   28.2830 C   0  0  0  0  0  0  0  0  0  0  0  0
    5.9330   -1.9880   29.6350 O   0  0  0  0  0  0  0  0  0  0  0  0
    4.5900   -1.6670   29.8790 C   0  0  0  0  0  0  0  0  0  0  0  0
    4.1150   -1.4090   31.2670 C   0  0  0  0  0  0  0  0  0  0  0  0
    2.6480   -1.0750   31.3830 C   0  0  0  0  0  0  0  0  0  0  0  0
    1.8110   -1.0350   30.0820 C   0  0  0  0  0  0  0  0  0  0  0  0
    0.0900   -0.6570   30.0920 Cl  0  0  0  0  0  0  0  0  0  0  0  0
    2.4280   -1.3010   28.8900 C   0  0  0  0  0  0  0  0  0  0  0  0
    3.7570   -1.6060   28.7660 C   0  0  0  0  0  0  0  0  0  0  0  0
    7.3390   -3.2670   23.6680 C   0  0  0  0  0  0  0  0  0  0  0  0
    7.6330   -3.2980   22.2130 C   0  0  0  0  0  0  0  0  0  0  0  0
  1  2  1  0
  2  3  2  0
  2  4  1  0
  4  5  1  0
  5  6  1  0
  6  7  1  0
  7  8  1  0
  8  9  2  0
  8 10  1  0
 10 11  1  0
 11 12  1  0
 12 13  1  0
 10 14  1  0
 13 14  1  0
 14 15  1  1
 15 16  1  0
 16 17  1  0
 17 18  2  0
 18 19  1  0
 19 20  2  0
 20 21  1  0
 20 22  1  0
 17 23  1  0
 22 23  2  0
  7 24  1  0
  4 25  1  0
 24 25  1  0
M  END
