piperidine-amides-8683-covalent
     RDKit          3D

 23 24  0  0  0  0  0  0  0  0999 V2000
    7.0440   -3.2990   19.2970 C   0  0  0  0  0  0  0  0  0  0  0  0
    6.3560   -4.0980   20.3210 C   0  0  0  0  0  0  0  0  0  0  0  0
    5.3730   -4.7730   19.9590 O   0  0  0  0  0  0  0  0  0  0  0  0
    6.8020   -4.1310   21.6720 N   0  0  0  0  0  0  0  0  0  0  0  0
    7.7200   -3.1260   22.1400 C   0  0  0  0  0  0  0  0  0  0  0  0
    7.5490   -3.0220   23.6140 C   0  0  0  0  0  0  0  0  0  0  0  0
    6.1480   -3.5150   23.8280 C   0  0  0  0  0  0  0  0  0  0  0  0
    5.6620   -3.1960   25.2100 C   0  0  0  0  0  0  0  0  0  0  0  0
    4.4440   -3.2040   25.3640 O   0  0  0  0  0  0  0  0  0  0  0  0
    6.5930   -2.9080   26.2030 N   0  0  0  0  0  0  0  0  0  0  0  0
    6.2560   -2.9040   27.5910 C   0  0  0  0  0  0  0  0  0  0  0  0
    5.6240   -4.0620   28.0510 C   0  0  0  0  0  0  0  0  0  0  0  0
    4.2900   -4.3280   27.7460 C   0  0  0  0  0  0  0  0  0  0  0  0
    3.5670   -5.4620   28.1610 C   0  0  0  0  0  0  0  0  0  0  0  0
    4.3300   -6.4450   28.9950 C   0  0  0  0  0  0  0  0  0  0  0  0
    3.7650   -7.7600   29.5670 C   0  0  0  0  0  0  0  0  0  0  0  0
    2.3890   -7.9490   29.0450 C   0  0  0  0  0  0  0  0  0  0  0  0
    1.4360   -8.6910   29.8120 N   0  0  0  0  0  0  0  0  0  0  0  0
    2.0740   -7.4570   27.9300 O   0  0  0  0  0  0  0  0  0  0  0  0
    5.7190   -6.1870   29.3240 C   0  0  0  0  0  0  0  0  0  0  0  0
    6.3820   -4.9210   28.8160 C   0  0  0  0  0  0  0  0  0  0  0  0
    6.0950   -5.0230   23.6620 C   0  0  0  0  0  0  0  0  0  0  0  0
    6.6870   -5.3530   22.4420 C   0  0  0  0  0  0  0  0  0  0  0  0
  1  2  1  0
  2  3  2  0
  2  4  1  0
  4  5  1  0
  5  6  1  0
  6  7  1  0
  7  8  1  0
  8  9  2  0
  8 10  1  0
 10 11  1  0
 11 12  1  0
 12 13  2  0
 13 14  1  0
 14 15  2  0
 15 16  1  0
 16 17  1  0
 17 18  1  0
 17 19  2  0
 15 20  1  0
 12 21  1  0
 20 21  2  0
  7 22  1  0
  4 23  1  0
 22 23  1  0
M  END
