piperidine-amides-5214-covalent
     RDKit          3D

 21 22  0  0  0  0  0  0  0  0999 V2000
    7.1230   -3.2930   19.1830 C   0  0  0  0  0  0  0  0  0  0  0  0
    6.3280   -3.9980   20.2110 C   0  0  0  0  0  0  0  0  0  0  0  0
    5.2340   -4.4650   19.8480 O   0  0  0  0  0  0  0  0  0  0  0  0
    6.8270   -4.1820   21.5070 N   0  0  0  0  0  0  0  0  0  0  0  0
    7.5660   -3.1350   22.1360 C   0  0  0  0  0  0  0  0  0  0  0  0
    7.1710   -2.8440   23.5160 C   0  0  0  0  0  0  0  0  0  0  0  0
    6.4380   -3.9220   24.2220 C   0  0  0  0  0  0  0  0  0  0  0  0
    5.6910   -3.3630   25.3820 C   0  0  0  0  0  0  0  0  0  0  0  0
    4.4650   -3.1910   25.2490 O   0  0  0  0  0  0  0  0  0  0  0  0
    6.3240   -3.0300   26.6010 N   0  0  0  0  0  0  0  0  0  0  0  0
    6.4770   -1.6310   27.0660 C   0  0  0  0  0  0  0  0  0  0  0  0
    5.8050   -1.3750   28.3830 C   0  0  0  0  0  0  0  0  0  0  0  0
    5.0680   -0.2210   28.7070 N   0  0  0  0  0  0  0  0  0  0  0  0
    4.6440   -0.4380   30.0300 C   0  0  0  0  0  0  0  0  0  0  0  0
    3.9070    0.5100   30.6280 N   0  0  0  0  0  0  0  0  0  0  0  0
    2.6710    0.5410   30.0820 C   0  0  0  0  0  0  0  0  0  0  0  0
    4.1690    0.5220   31.9540 C   0  0  0  0  0  0  0  0  0  0  0  0
    5.1020   -1.6170   30.4190 N   0  0  0  0  0  0  0  0  0  0  0  0
    5.7790   -2.1380   29.4350 O   0  0  0  0  0  0  0  0  0  0  0  0
    5.6220   -4.8190   23.3470 C   0  0  0  0  0  0  0  0  0  0  0  0
    6.3500   -5.2650   22.2900 C   0  0  0  0  0  0  0  0  0  0  0  0
  1  2  1  0
  2  3  2  0
  2  4  1  0
  4  5  1  0
  5  6  1  0
  6  7  1  0
  7  8  1  0
  8  9  2  0
  8 10  1  0
 10 11  1  0
 11 12  1  0
 12 13  2  0
 13 14  1  0
 14 15  1  0
 15 16  1  0
 15 17  1  0
 14 18  2  0
 12 19  1  0
 18 19  1  0
  7 20  1  0
  4 21  1  0
 20 21  1  0
M  END
