piperidine-amides-28954-covalent
     RDKit          3D

 26 28  0  0  0  0  0  0  0  0999 V2000
    7.0640   -3.2830   19.2520 C   0  0  0  0  0  0  0  0  0  0  0  0
    6.3260   -4.0690   20.2450 C   0  0  0  0  0  0  0  0  0  0  0  0
    5.2710   -4.6220   19.8960 O   0  0  0  0  0  0  0  0  0  0  0  0
    6.8380   -4.2200   21.5530 N   0  0  0  0  0  0  0  0  0  0  0  0
    6.5000   -5.4030   22.3000 C   0  0  0  0  0  0  0  0  0  0  0  0
    5.7160   -5.0590   23.5490 C   0  0  0  0  0  0  0  0  0  0  0  0
    5.8330   -3.5650   23.7730 C   0  0  0  0  0  0  0  0  0  0  0  0
    5.3320   -3.1470   25.1290 C   0  0  0  0  0  0  0  0  0  0  0  0
    4.1410   -2.8590   25.1800 O   0  0  0  0  0  0  0  0  0  0  0  0
    6.2040   -3.1120   26.2150 N   0  0  0  0  0  0  0  0  0  0  0  0
    6.6740   -4.3910   26.6830 C   0  0  0  0  0  0  0  0  0  0  0  0
    6.5900   -4.6740   28.0500 C   0  0  0  0  0  0  0  0  0  0  0  0
    7.0650   -4.0380   28.9860 O   0  0  0  0  0  0  0  0  0  0  0  0
    5.7920   -5.8960   28.2590 N   0  0  0  0  0  0  0  0  0  0  0  0
    5.8060   -6.7730   29.3820 C   0  0  0  0  0  0  0  0  0  0  0  0
    4.5950   -7.4670   29.4870 C   0  0  0  0  0  0  0  0  0  0  0  0
    3.8480   -7.0000   28.2880 C   0  0  0  0  0  0  0  0  0  0  0  0
    4.7380   -6.0720   27.4730 C   0  0  0  0  0  0  0  0  0  0  0  0
    6.5310   -1.8090   26.8400 C   0  0  0  0  0  0  0  0  0  0  0  0
    6.7150   -1.6590   28.3410 C   0  0  2  0  0  0  0  0  0  0  0  0
    5.3700   -1.9360   28.9930 C   0  0  0  0  0  0  0  0  0  0  0  0
    5.2850   -1.0350   29.9710 C   0  0  0  0  0  0  0  0  0  0  0  0
    6.4370   -0.2780   30.0050 C   0  0  0  0  0  0  0  0  0  0  0  0
    7.1140   -0.5060   28.7830 O   0  0  0  0  0  0  0  0  0  0  0  0
    7.2200   -3.1150   23.5910 C   0  0  0  0  0  0  0  0  0  0  0  0
    7.6110   -3.1750   22.1600 C   0  0  0  0  0  0  0  0  0  0  0  0
  1  2  1  0
  2  3  2  0
  2  4  1  0
  4  5  1  0
  5  6  1  0
  6  7  1  0
  7  8  1  0
  8  9  2  0
  8 10  1  0
 10 11  1  0
 11 12  1  0
 12 13  2  0
 12 14  1  0
 14 15  1  0
 15 16  1  0
 16 17  1  0
 14 18  1  0
 17 18  1  0
 10 19  1  0
 20 19  1  6
 20 21  1  0
 21 22  1  0
 22 23  1  0
 20 24  1  0
 23 24  1  0
  7 25  1  0
  4 26  1  0
 25 26  1  0
M  END
