piperidine-amides-34974-covalent
     RDKit          3D

 28 31  0  0  0  0  0  0  0  0999 V2000
    7.0140   -3.3440   19.3440 C   0  0  0  0  0  0  0  0  0  0  0  0
    6.3560   -4.2150   20.3520 C   0  0  0  0  0  0  0  0  0  0  0  0
    5.3640   -4.8410   19.9770 O   0  0  0  0  0  0  0  0  0  0  0  0
    6.8790   -4.3430   21.6420 N   0  0  0  0  0  0  0  0  0  0  0  0
    6.6730   -5.5300   22.4280 C   0  0  0  0  0  0  0  0  0  0  0  0
    5.9680   -5.1620   23.7040 C   0  0  0  0  0  0  0  0  0  0  0  0
    6.5950   -3.9060   24.3210 C   0  0  0  0  0  0  0  0  0  0  0  0
    5.7390   -3.4820   25.4770 C   0  0  0  0  0  0  0  0  0  0  0  0
    4.6450   -2.9840   25.1830 O   0  0  0  0  0  0  0  0  0  0  0  0
    6.0430   -3.6080   26.8840 N   0  0  0  0  0  0  0  0  0  0  0  0
    6.3390   -4.9240   27.4280 C   0  0  0  0  0  0  0  0  0  0  0  0
    5.3210   -5.0580   28.4400 C   0  0  0  0  0  0  0  0  0  0  0  0
    4.6300   -3.9240   28.5810 C   0  0  0  0  0  0  0  0  0  0  0  0
    5.1440   -2.9310   27.7960 C   0  0  1  0  0  0  0  0  0  0  0  0
    5.6020   -1.8730   28.5300 C   0  0  0  0  0  0  0  0  0  0  0  0
    5.6320   -0.7450   27.8850 N   0  0  0  0  0  0  0  0  0  0  0  0
    6.1290    0.0120   29.0040 C   0  0  0  0  0  0  0  0  0  0  0  0
    6.4020    1.4840   28.9480 C   0  0  0  0  0  0  0  0  0  0  0  0
    6.4920    1.8290   27.4770 C   0  0  0  0  0  0  0  0  0  0  0  0
    6.7710    3.2780   27.2120 C   0  0  0  0  0  0  0  0  0  0  0  0
    6.9360    4.2580   28.3210 C   0  0  0  0  0  0  0  0  0  0  0  0
    7.2940    6.1010   27.9510 Br  0  0  0  0  0  0  0  0  0  0  0  0
    6.8150    3.7610   29.7410 C   0  0  0  0  0  0  0  0  0  0  0  0
    6.5400    2.3330   30.0310 C   0  0  0  0  0  0  0  0  0  0  0  0
    6.3590   -0.6840   30.2010 N   0  0  0  0  0  0  0  0  0  0  0  0
    6.0030   -1.9140   29.8580 O   0  0  0  0  0  0  0  0  0  0  0  0
    6.6750   -2.7830   23.2960 C   0  0  0  0  0  0  0  0  0  0  0  0
    7.5370   -3.2310   22.3160 C   0  0  0  0  0  0  0  0  0  0  0  0
  1  2  1  0
  2  3  2  0
  2  4  1  0
  4  5  1  0
  5  6  1  0
  6  7  1  0
  7  8  1  0
  8  9  2  0
  8 10  1  0
 10 11  1  0
 11 12  1  0
 12 13  1  0
 10 14  1  0
 13 14  1  0
 14 15  1  1
 15 16  2  0
 16 17  1  0
 17 18  1  0
 18 19  2  0
 19 20  1  0
 20 21  2  0
 21 22  1  0
 21 23  1  0
 18 24  1  0
 23 24  2  0
 17 25  2  0
 15 26  1  0
 25 26  1  0
  7 27  1  0
  4 28  1  0
 27 28  1  0
M  END
