piperidine-amides-12979-covalent
     RDKit          3D

 21 22  0  0  0  0  0  0  0  0999 V2000
    7.1290   -3.3060   19.2870 C   0  0  0  0  0  0  0  0  0  0  0  0
    6.3700   -4.0680   20.2980 C   0  0  0  0  0  0  0  0  0  0  0  0
    5.3050   -4.5900   19.9090 O   0  0  0  0  0  0  0  0  0  0  0  0
    6.8680   -4.2300   21.6060 N   0  0  0  0  0  0  0  0  0  0  0  0
    6.5300   -5.3810   22.3750 C   0  0  0  0  0  0  0  0  0  0  0  0
    6.0190   -5.0300   23.7030 C   0  0  0  0  0  0  0  0  0  0  0  0
    6.0690   -3.5790   23.9750 C   0  0  0  0  0  0  0  0  0  0  0  0
    5.6070   -3.2720   25.3570 C   0  0  0  0  0  0  0  0  0  0  0  0
    4.3890   -3.0760   25.5200 O   0  0  0  0  0  0  0  0  0  0  0  0
    6.4780   -3.1930   26.4580 N   0  0  0  0  0  0  0  0  0  0  0  0
    6.1970   -3.8500   27.7630 C   0  0  0  0  0  0  0  0  0  0  0  0
    5.9800   -5.3320   27.6550 C   0  0  0  0  0  0  0  0  0  0  0  0
    4.8860   -5.8460   28.0300 O   0  0  0  0  0  0  0  0  0  0  0  0
    4.7250   -6.0070   29.3140 C   0  0  0  0  0  0  0  0  0  0  0  0
    3.9820   -5.0370   29.9650 C   0  0  0  0  0  0  0  0  0  0  0  0
    3.2250   -5.3500   31.0710 C   0  0  0  0  0  0  0  0  0  0  0  0
    2.5900   -6.5850   31.0960 O   0  0  0  0  0  0  0  0  0  0  0  0
    3.1590   -7.5200   30.2080 C   0  0  0  0  0  0  0  0  0  0  0  0
    4.4610   -7.2210   29.9020 C   0  0  0  0  0  0  0  0  0  0  0  0
    7.3310   -2.9210   23.5620 C   0  0  0  0  0  0  0  0  0  0  0  0
    7.6650   -3.1880   22.2240 C   0  0  0  0  0  0  0  0  0  0  0  0
  1  2  1  0
  2  3  2  0
  2  4  1  0
  4  5  1  0
  5  6  1  0
  6  7  1  0
  7  8  1  0
  8  9  2  0
  8 10  1  0
 10 11  1  0
 11 12  1  0
 12 13  1  0
 13 14  1  0
 14 15  1  0
 15 16  1  0
 16 17  1  0
 17 18  1  0
 14 19  1  0
 18 19  1  0
  7 20  1  0
  4 21  1  0
 20 21  1  0
M  END
