piperidine-amides-33918-covalent
     RDKit          3D

 29 32  0  0  0  0  0  0  0  0999 V2000
    7.0770   -3.3440   19.3250 C   0  0  0  0  0  0  0  0  0  0  0  0
    6.4040   -4.1830   20.3280 C   0  0  0  0  0  0  0  0  0  0  0  0
    5.3650   -4.7890   19.9680 O   0  0  0  0  0  0  0  0  0  0  0  0
    6.9510   -4.3370   21.6280 N   0  0  0  0  0  0  0  0  0  0  0  0
    6.5280   -5.4370   22.4220 C   0  0  0  0  0  0  0  0  0  0  0  0
    5.9870   -5.0840   23.7450 C   0  0  0  0  0  0  0  0  0  0  0  0
    6.4660   -3.8180   24.3580 C   0  0  0  0  0  0  0  0  0  0  0  0
    5.5920   -3.4220   25.5290 C   0  0  0  0  0  0  0  0  0  0  0  0
    4.5310   -2.8310   25.2670 O   0  0  0  0  0  0  0  0  0  0  0  0
    5.8800   -3.6790   26.9100 N   0  0  0  0  0  0  0  0  0  0  0  0
    5.3910   -2.9590   28.0240 C   0  0  0  0  0  0  0  0  0  0  0  0
    4.8660   -3.7040   29.1720 C   0  0  0  0  0  0  0  0  0  0  0  0
    4.8690   -5.0450   29.2440 N   0  0  0  0  0  0  0  0  0  0  0  0
    4.0110   -5.9090   30.0250 C   0  0  2  0  0  0  0  0  0  0  0  0
    3.6470   -5.3800   31.2480 C   0  0  0  0  0  0  0  0  0  0  0  0
    4.5890   -6.6300   31.2620 C   0  0  0  0  0  0  0  0  0  0  0  0
    3.7960   -7.5210   31.9730 N   0  0  0  0  0  0  0  0  0  0  0  0
    4.6390   -7.9160   32.9320 C   0  0  0  0  0  0  0  0  0  0  0  0
    4.0060   -8.9340   33.8840 C   0  0  0  0  0  0  0  0  0  0  0  0
    4.6410   -9.7280   34.9830 C   0  0  0  0  0  0  0  0  0  0  0  0
    3.5000  -10.5340   35.5350 C   0  0  0  0  0  0  0  0  0  0  0  0
    2.1600  -10.2820   34.8260 C   0  0  0  0  0  0  0  0  0  0  0  0
    2.3350   -9.1180   33.5620 S   0  0  0  0  0  0  0  0  0  0  0  0
    5.8660   -7.3380   32.8620 N   0  0  0  0  0  0  0  0  0  0  0  0
    5.8710   -6.5220   31.8060 O   0  0  0  0  0  0  0  0  0  0  0  0
    5.5210   -5.6390   28.2740 C   0  0  0  0  0  0  0  0  0  0  0  0
    6.3530   -4.9140   27.4910 C   0  0  0  0  0  0  0  0  0  0  0  0
    6.7030   -2.7210   23.3900 C   0  0  0  0  0  0  0  0  0  0  0  0
    7.5570   -3.1930   22.2450 C   0  0  0  0  0  0  0  0  0  0  0  0
  1  2  1  0
  2  3  2  0
  2  4  1  0
  4  5  1  0
  5  6  1  0
  6  7  1  0
  7  8  1  0
  8  9  2  0
  8 10  1  0
 10 11  1  0
 11 12  1  0
 12 13  1  0
 13 14  1  0
 14 15  1  1
 14 16  1  0
 16 17  2  0
 17 18  1  0
 18 19  1  0
 19 20  2  0
 20 21  1  0
 21 22  2  0
 19 23  1  0
 22 23  1  0
 18 24  2  0
 16 25  1  0
 24 25  1  0
 13 26  1  0
 10 27  1  0
 26 27  1  0
  7 28  1  0
  4 29  1  0
 28 29  1  0
M  END
