piperidine-amides-29931-covalent
     RDKit          3D

 27 29  0  0  0  0  0  0  0  0999 V2000
    7.0930   -3.3800   19.3880 C   0  0  0  0  0  0  0  0  0  0  0  0
    6.3750   -4.2080   20.3480 C   0  0  0  0  0  0  0  0  0  0  0  0
    5.3860   -4.8470   19.9890 O   0  0  0  0  0  0  0  0  0  0  0  0
    6.8640   -4.3050   21.6990 N   0  0  0  0  0  0  0  0  0  0  0  0
    7.7660   -3.2790   22.1820 C   0  0  0  0  0  0  0  0  0  0  0  0
    7.5420   -2.9990   23.6350 C   0  0  0  0  0  0  0  0  0  0  0  0
    6.2000   -3.6070   23.9720 C   0  0  0  0  0  0  0  0  0  0  0  0
    5.6930   -3.1410   25.2990 C   0  0  0  0  0  0  0  0  0  0  0  0
    5.1120   -2.0530   25.4030 O   0  0  0  0  0  0  0  0  0  0  0  0
    5.7990   -3.9090   26.4770 N   0  0  0  0  0  0  0  0  0  0  0  0
    6.4480   -3.2720   27.5750 C   0  0  0  0  0  0  0  0  0  0  0  0
    6.9190   -4.3900   28.4690 C   0  0  0  0  0  0  0  0  0  0  0  0
    6.0630   -4.7830   29.4360 C   0  0  0  0  0  0  0  0  0  0  0  0
    4.7230   -4.8830   29.1530 C   0  0  2  0  0  0  0  0  0  0  0  0
    3.8460   -5.4900   30.0830 N   0  0  0  0  0  0  0  0  0  0  0  0
    3.2930   -4.8190   31.1810 C   0  0  0  0  0  0  0  0  0  0  0  0
    4.2730   -6.8540   30.1830 C   0  0  0  0  0  0  0  0  0  0  0  0
    3.1970   -7.6500   30.5150 C   0  0  0  0  0  0  0  0  0  0  0  0
    2.2720   -8.1960   29.6440 C   0  0  0  0  0  0  0  0  0  0  0  0
    1.2320   -8.9800   30.1350 C   0  0  0  0  0  0  0  0  0  0  0  0
    1.2050   -9.1690   31.5800 C   0  0  0  0  0  0  0  0  0  0  0  0
    2.1440   -8.6100   32.4120 C   0  0  0  0  0  0  0  0  0  0  0  0
    3.2110   -7.8000   31.8910 N   0  0  0  0  0  0  0  0  0  0  0  0
    4.7180   -5.5450   27.8240 C   0  0  0  0  0  0  0  0  0  0  0  0
    4.5710   -4.5880   26.6950 C   0  0  0  0  0  0  0  0  0  0  0  0
    6.1610   -5.0960   23.8560 C   0  0  0  0  0  0  0  0  0  0  0  0
    6.6510   -5.5020   22.4740 C   0  0  0  0  0  0  0  0  0  0  0  0
  1  2  1  0
  2  3  2  0
  2  4  1  0
  4  5  1  0
  5  6  1  0
  6  7  1  0
  7  8  1  0
  8  9  2  0
  8 10  1  0
 10 11  1  0
 11 12  1  0
 12 13  1  0
 13 14  1  0
 14 15  1  1
 15 16  1  0
 15 17  1  0
 17 18  1  0
 18 19  2  0
 19 20  1  0
 20 21  2  0
 21 22  1  0
 18 23  1  0
 22 23  2  0
 14 24  1  0
 10 25  1  0
 24 25  1  0
  7 26  1  0
  4 27  1  0
 26 27  1  0
M  END
