piperidine-amides-12816-covalent
     RDKit          3D

 22 23  0  0  0  0  0  0  0  0999 V2000
    7.0300   -3.3490   19.3040 C   0  0  0  0  0  0  0  0  0  0  0  0
    6.3740   -4.1800   20.3440 C   0  0  0  0  0  0  0  0  0  0  0  0
    5.3650   -4.8140   19.9710 O   0  0  0  0  0  0  0  0  0  0  0  0
    6.8800   -4.2870   21.6550 N   0  0  0  0  0  0  0  0  0  0  0  0
    7.6750   -3.2430   22.2070 C   0  0  0  0  0  0  0  0  0  0  0  0
    7.3470   -3.0000   23.5960 C   0  0  0  0  0  0  0  0  0  0  0  0
    6.0580   -3.6130   23.9640 C   0  0  0  0  0  0  0  0  0  0  0  0
    5.6470   -3.2610   25.3460 C   0  0  0  0  0  0  0  0  0  0  0  0
    4.4330   -3.3250   25.6170 O   0  0  0  0  0  0  0  0  0  0  0  0
    6.5670   -2.8640   26.3310 N   0  0  0  0  0  0  0  0  0  0  0  0
    6.4620   -1.5780   27.0600 C   0  0  0  0  0  0  0  0  0  0  0  0
    7.0410   -1.5710   28.4180 C   0  0  0  0  0  0  0  0  0  0  0  0
    7.0000   -0.3770   29.2330 C   0  0  0  0  0  0  0  0  0  0  0  0
    6.4000    0.7400   28.6850 C   0  0  0  0  0  0  0  0  0  0  0  0
    5.8510    0.7420   27.4050 C   0  0  0  0  0  0  0  0  0  0  0  0
    5.3050    1.8500   26.9830 O   0  0  0  0  0  0  0  0  0  0  0  0
    4.1080    2.0030   26.3030 C   0  0  0  0  0  0  0  0  0  0  0  0
    3.1320    2.6390   27.0120 C   0  0  0  0  0  0  0  0  0  0  0  0
    3.2050    4.0620   26.9470 O   0  0  0  0  0  0  0  0  0  0  0  0
    5.8770   -0.3840   26.6010 C   0  0  0  0  0  0  0  0  0  0  0  0
    6.0380   -5.1100   23.7270 C   0  0  0  0  0  0  0  0  0  0  0  0
    6.7400   -5.4890   22.4610 C   0  0  0  0  0  0  0  0  0  0  0  0
  1  2  1  0
  2  3  2  0
  2  4  1  0
  4  5  1  0
  5  6  1  0
  6  7  1  0
  7  8  1  0
  8  9  2  0
  8 10  1  0
 10 11  1  0
 11 12  2  0
 12 13  1  0
 13 14  2  0
 14 15  1  0
 15 16  1  0
 16 17  1  0
 17 18  1  0
 18 19  1  0
 11 20  1  0
 15 20  2  0
  7 21  1  0
  4 22  1  0
 21 22  1  0
M  END
