piperidine-amides-19484-covalent
     RDKit          3D

 22 24  0  0  0  0  0  0  0  0999 V2000
    7.1300   -3.3750   19.4960 C   0  0  0  0  0  0  0  0  0  0  0  0
    6.4660   -4.2580   20.4180 C   0  0  0  0  0  0  0  0  0  0  0  0
    5.4350   -4.8880   20.0060 O   0  0  0  0  0  0  0  0  0  0  0  0
    6.9620   -4.4820   21.7280 N   0  0  0  0  0  0  0  0  0  0  0  0
    6.5110   -5.6760   22.4420 C   0  0  0  0  0  0  0  0  0  0  0  0
    5.4150   -4.9910   23.3380 C   0  0  0  0  0  0  0  0  0  0  0  0
    6.1060   -3.9280   24.1780 C   0  0  0  0  0  0  0  0  0  0  0  0
    5.0640   -3.3810   25.2700 C   0  0  0  0  0  0  0  0  0  0  0  0
    4.0200   -3.0650   24.7290 O   0  0  0  0  0  0  0  0  0  0  0  0
    5.5810   -3.4040   26.4260 N   0  0  0  0  0  0  0  0  0  0  0  0
    6.4670   -3.3810   27.3790 C   0  0  0  0  0  0  0  0  0  0  0  0
    6.7980   -4.2630   28.3640 C   0  0  0  0  0  0  0  0  0  0  0  0
    5.7100   -4.3040   29.2110 C   0  0  0  0  0  0  0  0  0  0  0  0
    5.2880   -2.9980   29.7650 C   0  0  0  0  0  0  0  0  0  0  0  0
    4.0490   -2.4310   30.4590 C   0  0  0  0  0  0  0  0  0  0  0  0
    4.2000   -1.0010   30.8110 N   0  0  0  0  0  0  0  0  0  0  0  0
    5.4210   -0.6180   30.4000 N   0  0  0  0  0  0  0  0  0  0  0  0
    5.9960   -1.6610   29.8510 C   0  0  0  0  0  0  0  0  0  0  0  0
    4.9020   -4.8810   28.0870 C   0  0  0  0  0  0  0  0  0  0  0  0
    4.5980   -3.4920   27.4770 C   0  0  0  0  0  0  0  0  0  0  0  0
    6.8680   -2.9030   23.3750 C   0  0  0  0  0  0  0  0  0  0  0  0
    7.7010   -3.4860   22.4460 C   0  0  0  0  0  0  0  0  0  0  0  0
  1  2  1  0
  2  3  2  0
  2  4  1  0
  4  5  1  0
  5  6  1  0
  6  7  1  0
  7  8  1  0
  8  9  2  0
  8 10  1  0
 10 11  1  0
 11 12  1  0
 12 13  1  0
 13 14  1  0
 14 15  1  0
 15 16  2  0
 16 17  1  0
 14 18  2  0
 17 18  1  0
 13 19  1  0
 10 20  1  0
 19 20  1  0
  7 21  1  0
  4 22  1  0
 21 22  1  0
M  END
