piperidine-amides-19509-covalent
     RDKit          3D

 20 20  0  0  0  0  0  0  0  0999 V2000
    7.1680   -3.2810   19.3510 C   0  0  0  0  0  0  0  0  0  0  0  0
    6.3350   -3.9930   20.2980 C   0  0  0  0  0  0  0  0  0  0  0  0
    5.2810   -4.5670   19.8820 O   0  0  0  0  0  0  0  0  0  0  0  0
    6.6730   -4.1010   21.6580 N   0  0  0  0  0  0  0  0  0  0  0  0
    7.7350   -3.1580   22.1090 C   0  0  0  0  0  0  0  0  0  0  0  0
    7.2700   -2.7590   23.5560 C   0  0  0  0  0  0  0  0  0  0  0  0
    6.1130   -3.6590   23.8950 C   0  0  0  0  0  0  0  0  0  0  0  0
    5.5150   -3.2970   25.3190 C   0  0  0  0  0  0  0  0  0  0  0  0
    4.3210   -3.5600   25.3880 O   0  0  0  0  0  0  0  0  0  0  0  0
    6.4650   -2.8140   26.0090 N   0  0  0  0  0  0  0  0  0  0  0  0
    7.5160   -2.0070   26.2840 C   0  0  0  0  0  0  0  0  0  0  0  0
    6.3480   -3.4320   27.2660 C   0  0  0  0  0  0  0  0  0  0  0  0
    6.0340   -4.8160   27.2940 C   0  0  0  0  0  0  0  0  0  0  0  0
    7.0910   -5.6440   27.8640 C   0  0  0  0  0  0  0  0  0  0  0  0
    8.6810   -4.9850   27.6060 S   0  0  0  0  0  0  0  0  0  0  0  0
    9.2030   -5.0780   25.9010 C   0  0  0  0  0  0  0  0  0  0  0  0
    8.7270   -3.5980   28.0980 O   0  0  0  0  0  0  0  0  0  0  0  0
    9.6190   -5.8390   28.3290 O   0  0  0  0  0  0  0  0  0  0  0  0
    6.2560   -5.1490   23.6440 C   0  0  0  0  0  0  0  0  0  0  0  0
    6.5550   -5.3830   22.3000 C   0  0  0  0  0  0  0  0  0  0  0  0
  1  2  1  0
  2  3  2  0
  2  4  1  0
  4  5  1  0
  5  6  1  0
  6  7  1  0
  7  8  1  0
  8  9  2  0
  8 10  1  0
 10 11  1  0
 10 12  1  0
 12 13  1  0
 13 14  1  0
 15 14  1  0
 15 16  1  0
 15 17  2  0
 15 18  2  0
  7 19  1  0
  4 20  1  0
 19 20  1  0
M  END
