piperidine-amides-7269-covalent
     RDKit          3D

 21 22  0  0  0  0  0  0  0  0999 V2000
    7.0310   -3.3510   19.3420 C   0  0  0  0  0  0  0  0  0  0  0  0
    6.3820   -4.1980   20.3510 C   0  0  0  0  0  0  0  0  0  0  0  0
    5.3570   -4.8220   19.9730 O   0  0  0  0  0  0  0  0  0  0  0  0
    6.9100   -4.3380   21.6450 N   0  0  0  0  0  0  0  0  0  0  0  0
    6.6550   -5.5120   22.4490 C   0  0  0  0  0  0  0  0  0  0  0  0
    6.0610   -5.0870   23.7720 C   0  0  0  0  0  0  0  0  0  0  0  0
    6.0330   -3.5870   23.9420 C   0  0  0  0  0  0  0  0  0  0  0  0
    5.6520   -3.2390   25.3290 C   0  0  0  0  0  0  0  0  0  0  0  0
    4.4440   -3.3310   25.6390 O   0  0  0  0  0  0  0  0  0  0  0  0
    6.5630   -2.8040   26.3060 N   0  0  0  0  0  0  0  0  0  0  0  0
    6.4290   -1.5350   26.9740 C   0  0  0  0  0  0  0  0  0  0  0  0
    7.0100   -1.5680   28.3780 C   0  0  0  0  0  0  0  0  0  0  0  0
    6.9940   -0.4840   29.1940 C   0  0  0  0  0  0  0  0  0  0  0  0
    6.4310    0.6810   28.7350 C   0  0  0  0  0  0  0  0  0  0  0  0
    6.3450    1.8600   29.4590 C   0  0  0  0  0  0  0  0  0  0  0  0
    5.8390    0.7610   27.3440 C   0  0  0  0  0  0  0  0  0  0  0  0
    5.2990    2.0150   27.0130 O   0  0  0  0  0  0  0  0  0  0  0  0
    5.8670   -0.3610   26.5230 C   0  0  0  0  0  0  0  0  0  0  0  0
    5.2910   -0.3280   25.1280 C   0  0  0  0  0  0  0  0  0  0  0  0
    7.3530   -2.9860   23.6130 C   0  0  0  0  0  0  0  0  0  0  0  0
    7.6940   -3.2110   22.1640 C   0  0  0  0  0  0  0  0  0  0  0  0
  1  2  1  0
  2  3  2  0
  2  4  1  0
  4  5  1  0
  5  6  1  0
  6  7  1  0
  7  8  1  0
  8  9  2  0
  8 10  1  0
 10 11  1  0
 11 12  2  0
 12 13  1  0
 13 14  2  0
 14 15  1  0
 14 16  1  0
 16 17  1  0
 11 18  1  0
 16 18  2  0
 18 19  1  0
  7 20  1  0
  4 21  1  0
 20 21  1  0
M  END
