piperidine-amides-32238-covalent
     RDKit          3D

 27 29  0  0  0  0  0  0  0  0999 V2000
    6.9950   -3.3610   19.4300 C   0  0  0  0  0  0  0  0  0  0  0  0
    6.3350   -4.2640   20.4170 C   0  0  0  0  0  0  0  0  0  0  0  0
    5.4090   -4.9880   20.0080 O   0  0  0  0  0  0  0  0  0  0  0  0
    6.7840   -4.3080   21.7650 N   0  0  0  0  0  0  0  0  0  0  0  0
    7.5540   -3.2180   22.3360 C   0  0  0  0  0  0  0  0  0  0  0  0
    7.2920   -3.1600   23.8540 C   0  0  0  0  0  0  0  0  0  0  0  0
    5.9150   -3.6920   24.1040 C   0  0  0  0  0  0  0  0  0  0  0  0
    5.1700   -3.0280   25.2540 C   0  0  0  0  0  0  0  0  0  0  0  0
    4.6170   -1.9820   24.9380 O   0  0  0  0  0  0  0  0  0  0  0  0
    5.0630   -3.5160   26.5890 N   0  0  0  0  0  0  0  0  0  0  0  0
    4.4900   -2.8850   27.6950 C   0  0  0  0  0  0  0  0  0  0  0  0
    4.9840   -3.1530   28.9600 C   0  0  0  0  0  0  0  0  0  0  0  0
    5.1630   -4.5950   29.0830 N   0  0  0  0  0  0  0  0  0  0  0  0
    4.1250   -5.5240   29.1110 C   0  0  0  0  0  0  0  0  0  0  0  0
    4.1910   -6.4150   28.0610 C   0  0  0  0  0  0  0  0  0  0  0  0
    3.1670   -7.4840   27.9120 C   0  0  0  0  0  0  0  0  0  0  0  0
    2.0060   -7.6480   28.9050 C   0  0  0  0  0  0  0  0  0  0  0  0
    2.1120   -6.5750   29.9850 C   0  0  0  0  0  0  0  0  0  0  0  0
    3.1020   -5.6250   30.0330 C   0  0  0  0  0  0  0  0  0  0  0  0
    2.8350   -4.6280   31.4000 S   0  0  0  0  0  0  0  0  0  0  0  0
    3.2420   -5.5540   32.7960 N   0  0  0  0  0  0  0  0  0  0  0  0
    1.3990   -4.1480   31.5130 O   0  0  0  0  0  0  0  0  0  0  0  0
    3.7230   -3.4320   31.3330 O   0  0  0  0  0  0  0  0  0  0  0  0
    6.3920   -4.4830   28.3780 C   0  0  0  0  0  0  0  0  0  0  0  0
    6.1930   -4.2200   26.8850 C   0  0  0  0  0  0  0  0  0  0  0  0
    6.0300   -5.1540   24.0050 C   0  0  0  0  0  0  0  0  0  0  0  0
    6.5310   -5.4820   22.5690 C   0  0  0  0  0  0  0  0  0  0  0  0
  1  2  1  0
  2  3  2  0
  2  4  1  0
  4  5  1  0
  5  6  1  0
  6  7  1  0
  7  8  1  0
  8  9  2  0
  8 10  1  0
 10 11  1  0
 11 12  1  0
 12 13  1  0
 13 14  1  0
 14 15  2  0
 15 16  1  0
 16 17  2  0
 17 18  1  0
 14 19  1  0
 18 19  2  0
 19 20  1  0
 20 21  1  0
 20 22  2  0
 20 23  2  0
 13 24  1  0
 10 25  1  0
 24 25  1  0
  7 26  1  0
  4 27  1  0
 26 27  1  0
M  END
