piperidine-amides-14941-covalent
     RDKit          3D

 21 23  0  0  0  0  0  0  0  0999 V2000
    7.1100   -3.2870   19.2700 C   0  0  0  0  0  0  0  0  0  0  0  0
    6.3990   -4.0940   20.2580 C   0  0  0  0  0  0  0  0  0  0  0  0
    5.3220   -4.6140   19.9130 O   0  0  0  0  0  0  0  0  0  0  0  0
    6.9590   -4.3150   21.5430 N   0  0  0  0  0  0  0  0  0  0  0  0
    7.6230   -3.2270   22.2010 C   0  0  0  0  0  0  0  0  0  0  0  0
    6.7310   -2.7040   23.2900 C   0  0  0  0  0  0  0  0  0  0  0  0
    6.4880   -3.8400   24.2630 C   0  0  0  0  0  0  0  0  0  0  0  0
    5.6950   -3.3380   25.4300 C   0  0  0  0  0  0  0  0  0  0  0  0
    4.4790   -3.2830   25.2710 O   0  0  0  0  0  0  0  0  0  0  0  0
    6.3590   -2.9720   26.5960 N   0  0  0  0  0  0  0  0  0  0  0  0
    6.5740   -1.6030   26.9050 C   0  0  0  0  0  0  0  0  0  0  0  0
    6.3190   -1.2250   28.2290 C   0  0  0  0  0  0  0  0  0  0  0  0
    5.0700   -1.1020   28.7880 C   0  0  0  0  0  0  0  0  0  0  0  0
    5.0410   -0.7040   30.0940 C   0  0  0  0  0  0  0  0  0  0  0  0
    3.6980   -0.4010   31.2450 S   0  0  0  0  0  0  0  0  0  0  0  0
    4.6710    0.0780   32.6670 C   0  0  0  0  0  0  0  0  0  0  0  0
    6.1280   -0.0080   32.2110 C   0  0  0  0  0  0  0  0  0  0  0  0
    6.2280   -0.4470   30.7920 C   0  0  0  0  0  0  0  0  0  0  0  0
    7.3870   -0.8070   29.5170 S   0  0  0  0  0  0  0  0  0  0  0  0
    5.8240   -4.9980   23.5990 C   0  0  0  0  0  0  0  0  0  0  0  0
    6.4840   -5.4470   22.2820 C   0  0  0  0  0  0  0  0  0  0  0  0
  1  2  1  0
  2  3  2  0
  2  4  1  0
  4  5  1  0
  5  6  1  0
  6  7  1  0
  7  8  1  0
  8  9  2  0
  8 10  1  0
 10 11  1  0
 11 12  1  0
 12 13  2  0
 13 14  1  0
 14 15  1  0
 15 16  1  0
 16 17  2  0
 14 18  2  0
 17 18  1  0
 12 19  1  0
 18 19  1  0
  7 20  1  0
  4 21  1  0
 20 21  1  0
M  END
