piperidine-amides-32270-covalent
     RDKit          3D

 29 32  0  0  0  0  0  0  0  0999 V2000
    6.9810   -3.3600   19.3960 C   0  0  0  0  0  0  0  0  0  0  0  0
    6.2990   -4.2690   20.3700 C   0  0  0  0  0  0  0  0  0  0  0  0
    5.3270   -4.9260   19.9780 O   0  0  0  0  0  0  0  0  0  0  0  0
    6.7640   -4.4090   21.6960 N   0  0  0  0  0  0  0  0  0  0  0  0
    6.3030   -5.4850   22.5440 C   0  0  0  0  0  0  0  0  0  0  0  0
    6.1880   -4.9780   24.0060 C   0  0  0  0  0  0  0  0  0  0  0  0
    5.7530   -3.5380   24.0170 C   0  0  0  0  0  0  0  0  0  0  0  0
    5.1040   -3.0510   25.2940 C   0  0  0  0  0  0  0  0  0  0  0  0
    3.8870   -2.8820   25.2090 O   0  0  0  0  0  0  0  0  0  0  0  0
    5.8050   -2.8050   26.5160 N   0  0  0  0  0  0  0  0  0  0  0  0
    6.3340   -3.7980   27.3350 C   0  0  0  0  0  0  0  0  0  0  0  0
    7.4340   -4.3890   26.9230 C   0  0  0  0  0  0  0  0  0  0  0  0
    8.0280   -5.5730   27.3640 C   0  0  0  0  0  0  0  0  0  0  0  0
    7.4360   -6.2940   28.3800 O   0  0  0  0  0  0  0  0  0  0  0  0
    9.2070   -6.0430   26.7910 C   0  0  0  0  0  0  0  0  0  0  0  0
    9.8900   -5.3400   25.6900 C   0  0  0  0  0  0  0  0  0  0  0  0
    9.3170   -4.0680   25.1300 C   0  0  0  0  0  0  0  0  0  0  0  0
    9.8240   -3.2110   24.0160 C   0  0  0  0  0  0  0  0  0  0  0  0
    9.0990   -2.0580   23.7310 C   0  0  0  0  0  0  0  0  0  0  0  0
    7.8390   -1.6480   24.4880 C   0  0  0  0  0  0  0  0  0  0  0  0
    7.4620   -2.6670   25.5880 C   0  0  0  0  0  0  0  0  0  0  0  0
    8.2140   -3.7530   25.7960 C   0  0  0  0  0  0  0  0  0  0  0  0
    5.7410   -1.5510   27.2750 C   0  0  0  0  0  0  0  0  0  0  0  0
    5.7330   -0.2770   26.4610 C   0  0  0  0  0  0  0  0  0  0  0  0
    5.9870    0.7990   27.4900 C   0  0  0  0  0  0  0  0  0  0  0  0
    6.4370    0.0110   28.6620 C   0  0  0  0  0  0  0  0  0  0  0  0
    6.8450   -1.2670   28.2790 C   0  0  0  0  0  0  0  0  0  0  0  0
    6.7420   -2.6190   23.3710 C   0  0  0  0  0  0  0  0  0  0  0  0
    7.4670   -3.3210   22.2630 C   0  0  0  0  0  0  0  0  0  0  0  0
  1  2  1  0
  2  3  2  0
  2  4  1  0
  4  5  1  0
  5  6  1  0
  6  7  1  0
  7  8  1  0
  8  9  2  0
  8 10  1  0
 10 11  1  0
 11 12  1  0
 12 13  2  0
 13 14  1  0
 13 15  1  0
 15 16  2  0
 16 17  1  0
 17 18  1  0
 18 19  2  0
 19 20  1  0
 20 21  2  0
 12 22  1  0
 17 22  2  0
 21 22  1  0
 10 23  1  0
 23 24  1  0
 24 25  1  0
 25 26  1  0
 23 27  1  0
 26 27  1  0
  7 28  1  0
  4 29  1  0
 28 29  1  0
M  END
