piperidine-amides-19541-covalent
     RDKit          3D

 22 24  0  0  0  0  0  0  0  0999 V2000
    7.0630   -3.4350   19.3520 C   0  0  0  0  0  0  0  0  0  0  0  0
    6.4150   -4.2680   20.3300 C   0  0  0  0  0  0  0  0  0  0  0  0
    5.3460   -4.8560   19.9850 O   0  0  0  0  0  0  0  0  0  0  0  0
    6.9710   -4.5030   21.6010 N   0  0  0  0  0  0  0  0  0  0  0  0
    6.5790   -5.7270   22.3100 C   0  0  0  0  0  0  0  0  0  0  0  0
    5.3700   -5.1550   23.1370 C   0  0  0  0  0  0  0  0  0  0  0  0
    5.8670   -3.9540   23.9180 C   0  0  0  0  0  0  0  0  0  0  0  0
    4.6870   -3.4550   24.8660 C   0  0  0  0  0  0  0  0  0  0  0  0
    3.8400   -2.8980   24.2080 O   0  0  0  0  0  0  0  0  0  0  0  0
    4.9050   -3.7350   26.0710 N   0  0  0  0  0  0  0  0  0  0  0  0
    4.8100   -4.2950   27.3060 C   0  0  0  0  0  0  0  0  0  0  0  0
    5.3040   -3.9450   28.4720 C   0  0  0  0  0  0  0  0  0  0  0  0
    6.1520   -2.9880   27.9950 C   0  0  0  0  0  0  0  0  0  0  0  0
    5.8900   -2.7270   26.5270 C   0  0  1  0  0  0  0  0  0  0  0  0
    7.0810   -3.1970   25.6490 C   0  0  0  0  0  0  0  0  0  0  0  0
    7.9880   -2.2600   25.2710 C   0  0  0  0  0  0  0  0  0  0  0  0
    8.8580   -3.0080   24.5270 C   0  0  0  0  0  0  0  0  0  0  0  0
    9.7900   -1.8400   24.2120 C   0  0  0  0  0  0  0  0  0  0  0  0
    8.5860   -4.3320   24.3830 O   0  0  0  0  0  0  0  0  0  0  0  0
    7.4460   -4.5150   25.0710 N   0  0  0  0  0  0  0  0  0  0  0  0
    6.5190   -2.8880   23.0670 C   0  0  0  0  0  0  0  0  0  0  0  0
    7.5450   -3.4370   22.3440 C   0  0  0  0  0  0  0  0  0  0  0  0
  1  2  1  0
  2  3  2  0
  2  4  1  0
  4  5  1  0
  5  6  1  0
  6  7  1  0
  7  8  1  0
  8  9  2  0
  8 10  1  0
 10 11  1  0
 11 12  1  0
 12 13  1  0
 10 14  1  0
 13 14  1  0
 14 15  1  6
 15 16  1  0
 16 17  2  0
 17 18  1  0
 17 19  1  0
 15 20  2  0
 19 20  1  0
  7 21  1  0
  4 22  1  0
 21 22  1  0
M  END
