piperidine-amides-33541-covalent
     RDKit          3D

 29 30  0  0  0  0  0  0  0  0999 V2000
    7.0840   -3.3900   19.3490 C   0  0  0  0  0  0  0  0  0  0  0  0
    6.4060   -4.2210   20.3510 C   0  0  0  0  0  0  0  0  0  0  0  0
    5.3580   -4.8020   19.9790 O   0  0  0  0  0  0  0  0  0  0  0  0
    6.9520   -4.4090   21.6520 N   0  0  0  0  0  0  0  0  0  0  0  0
    6.4480   -5.4680   22.4440 C   0  0  0  0  0  0  0  0  0  0  0  0
    5.7840   -5.0480   23.6840 C   0  0  0  0  0  0  0  0  0  0  0  0
    6.2230   -3.7670   24.3090 C   0  0  0  0  0  0  0  0  0  0  0  0
    5.1550   -3.2290   25.2420 C   0  0  0  0  0  0  0  0  0  0  0  0
    4.0830   -2.8370   24.7630 O   0  0  0  0  0  0  0  0  0  0  0  0
    5.3520   -3.1780   26.6440 N   0  0  0  0  0  0  0  0  0  0  0  0
    6.4120   -3.7580   27.2280 C   0  0  0  0  0  0  0  0  0  0  0  0
    6.2800   -5.1660   27.6440 C   0  0  0  0  0  0  0  0  0  0  0  0
    6.0670   -5.0360   29.1200 C   0  0  0  0  0  0  0  0  0  0  0  0
    4.6890   -4.5620   29.0910 N   0  0  0  0  0  0  0  0  0  0  0  0
    3.8510   -5.3420   29.9470 C   0  0  0  0  0  0  0  0  0  0  0  0
    2.4940   -5.4780   29.7340 O   0  0  0  0  0  0  0  0  0  0  0  0
    4.2970   -5.9410   30.9260 O   0  0  0  0  0  0  0  0  0  0  0  0
    4.6290   -7.3060   30.8240 C   0  0  0  0  0  0  0  0  0  0  0  0
    3.3370   -8.0430   30.7760 C   0  0  0  0  0  0  0  0  0  0  0  0
    5.4420   -7.7810   29.5950 C   0  0  0  0  0  0  0  0  0  0  0  0
    5.4020   -7.6420   32.0600 C   0  0  0  0  0  0  0  0  0  0  0  0
    4.4390   -3.2650   28.9560 C   0  0  0  0  0  0  0  0  0  0  0  0
    4.3160   -2.7280   27.5150 C   0  0  1  0  0  0  0  0  0  0  0  0
    4.1230   -1.2560   27.6610 C   0  0  0  0  0  0  0  0  0  0  0  0
    2.8970   -0.7350   28.0950 O   0  0  0  0  0  0  0  0  0  0  0  0
    5.0010   -0.2080   27.4360 O   0  0  0  0  0  0  0  0  0  0  0  0
    6.1100   -0.3820   26.5890 C   0  0  0  0  0  0  0  0  0  0  0  0
    6.7630   -2.7310   23.3740 C   0  0  0  0  0  0  0  0  0  0  0  0
    7.6350   -3.3230   22.2950 C   0  0  0  0  0  0  0  0  0  0  0  0
  1  2  1  0
  2  3  2  0
  2  4  1  0
  4  5  1  0
  5  6  1  0
  6  7  1  0
  7  8  1  0
  8  9  2  0
  8 10  1  0
 10 11  1  0
 11 12  1  0
 12 13  1  0
 13 14  1  0
 14 15  1  0
 15 16  2  0
 15 17  1  0
 18 17  1  0
 18 19  1  0
 18 20  1  0
 18 21  1  0
 14 22  1  0
 10 23  1  0
 22 23  1  0
 23 24  1  1
 24 25  2  0
 24 26  1  0
 26 27  1  0
  7 28  1  0
  4 29  1  0
 28 29  1  0
M  END
