piperidine-amides-27359-covalent
     RDKit          3D

 26 28  0  0  0  0  0  0  0  0999 V2000
    7.0470   -3.3380   19.3530 C   0  0  0  0  0  0  0  0  0  0  0  0
    6.3960   -4.1750   20.3670 C   0  0  0  0  0  0  0  0  0  0  0  0
    5.3860   -4.8280   19.9790 O   0  0  0  0  0  0  0  0  0  0  0  0
    6.9040   -4.2700   21.6720 N   0  0  0  0  0  0  0  0  0  0  0  0
    6.5330   -5.3680   22.5260 C   0  0  0  0  0  0  0  0  0  0  0  0
    5.6430   -4.8300   23.6190 C   0  0  0  0  0  0  0  0  0  0  0  0
    5.8890   -3.3560   23.8950 C   0  0  0  0  0  0  0  0  0  0  0  0
    5.3200   -2.9460   25.2190 C   0  0  0  0  0  0  0  0  0  0  0  0
    4.0900   -2.7300   25.2350 O   0  0  0  0  0  0  0  0  0  0  0  0
    5.9990   -2.7920   26.4570 N   0  0  0  0  0  0  0  0  0  0  0  0
    5.9120   -3.8930   27.3620 C   0  0  0  0  0  0  0  0  0  0  0  0
    7.1250   -4.6600   27.0690 C   0  0  0  0  0  0  0  0  0  0  0  0
    7.3540   -5.0480   25.8000 C   0  0  0  0  0  0  0  0  0  0  0  0
    8.4480   -5.7290   25.4950 C   0  0  0  0  0  0  0  0  0  0  0  0
    9.3880   -6.0790   26.4050 C   0  0  0  0  0  0  0  0  0  0  0  0
    9.1520   -5.6880   27.6920 C   0  0  0  0  0  0  0  0  0  0  0  0
    8.0380   -4.9900   28.0240 C   0  0  0  0  0  0  0  0  0  0  0  0
    6.1390   -1.5240   27.0570 C   0  0  0  0  0  0  0  0  0  0  0  0
    5.5800   -0.2450   26.4860 C   0  0  0  0  0  0  0  0  0  0  0  0
    5.8200    0.9770   27.3030 C   0  0  0  0  0  0  0  0  0  0  0  0
    6.5680    0.9690   28.6180 C   0  0  0  0  0  0  0  0  0  0  0  0
    7.0770   -0.2290   29.1150 C   0  0  0  0  0  0  0  0  0  0  0  0
    6.8370   -1.4860   28.2780 C   0  0  0  0  0  0  0  0  0  0  0  0
    7.3460   -2.6240   28.7920 F   0  0  0  0  0  0  0  0  0  0  0  0
    7.3330   -3.0000   23.7080 C   0  0  0  0  0  0  0  0  0  0  0  0
    7.7040   -3.1780   22.2270 C   0  0  0  0  0  0  0  0  0  0  0  0
  1  2  1  0
  2  3  2  0
  2  4  1  0
  4  5  1  0
  5  6  1  0
  6  7  1  0
  7  8  1  0
  8  9  2  0
  8 10  1  0
 10 11  1  0
 11 12  1  0
 12 13  2  0
 13 14  1  0
 14 15  2  0
 15 16  1  0
 12 17  1  0
 16 17  2  0
 10 18  1  0
 18 19  2  0
 19 20  1  0
 20 21  2  0
 21 22  1  0
 18 23  1  0
 22 23  2  0
 23 24  1  0
  7 25  1  0
  4 26  1  0
 25 26  1  0
M  END
