piperidine-amides-2454-covalent
     RDKit          3D

 26 28  0  0  0  0  0  0  0  0999 V2000
    7.0290   -3.3330   19.3230 C   0  0  0  0  0  0  0  0  0  0  0  0
    6.3660   -4.1920   20.3400 C   0  0  0  0  0  0  0  0  0  0  0  0
    5.3780   -4.8320   19.9750 O   0  0  0  0  0  0  0  0  0  0  0  0
    6.8910   -4.2730   21.6330 N   0  0  0  0  0  0  0  0  0  0  0  0
    7.7000   -3.2020   22.1580 C   0  0  0  0  0  0  0  0  0  0  0  0
    7.4100   -3.0310   23.6100 C   0  0  0  0  0  0  0  0  0  0  0  0
    6.0100   -3.5570   23.9260 C   0  0  0  0  0  0  0  0  0  0  0  0
    5.7560   -3.1560   25.3160 C   0  0  0  0  0  0  0  0  0  0  0  0
    4.6430   -3.3080   25.8400 O   0  0  0  0  0  0  0  0  0  0  0  0
    6.8310   -2.5880   26.0090 N   0  0  0  0  0  0  0  0  0  0  0  0
    6.6160   -1.4980   26.9230 C   0  0  0  0  0  0  0  0  0  0  0  0
    5.8960   -0.2400   26.5790 C   0  0  0  0  0  0  0  0  0  0  0  0
    5.6790    0.8270   27.3950 C   0  0  0  0  0  0  0  0  0  0  0  0
    6.1740    0.7420   28.6700 C   0  0  0  0  0  0  0  0  0  0  0  0
    5.9610    1.8090   29.4910 C   0  0  0  0  0  0  0  0  0  0  0  0
    5.1510    1.9440   30.7610 C   0  0  0  0  0  0  0  0  0  0  0  0
    5.2430    3.3440   31.2920 C   0  0  0  0  0  0  0  0  0  0  0  0
    6.0620    4.3930   30.5740 C   0  0  0  0  0  0  0  0  0  0  0  0
    6.1610    6.1840   31.2760 Br  0  0  0  0  0  0  0  0  0  0  0  0
    6.7880    4.0310   29.3200 C   0  0  0  0  0  0  0  0  0  0  0  0
    6.8130    2.7070   28.6520 C   0  0  0  0  0  0  0  0  0  0  0  0
    6.8660   -0.3410   29.1710 C   0  0  0  0  0  0  0  0  0  0  0  0
    7.3780   -0.3580   30.5640 C   0  0  0  0  0  0  0  0  0  0  0  0
    7.1190   -1.4680   28.3930 C   0  0  0  0  0  0  0  0  0  0  0  0
    6.0340   -5.0600   23.7740 C   0  0  0  0  0  0  0  0  0  0  0  0
    6.5740   -5.4400   22.4140 C   0  0  0  0  0  0  0  0  0  0  0  0
  1  2  1  0
  2  3  2  0
  2  4  1  0
  4  5  1  0
  5  6  1  0
  6  7  1  0
  7  8  1  0
  8  9  2  0
  8 10  1  0
 10 11  1  0
 11 12  2  0
 12 13  1  0
 13 14  2  0
 14 15  1  0
 15 16  2  0
 16 17  1  0
 17 18  2  0
 18 19  1  0
 18 20  1  0
 15 21  1  0
 20 21  2  0
 14 22  1  0
 22 23  1  0
 11 24  1  0
 22 24  2  0
  7 25  1  0
  4 26  1  0
 25 26  1  0
M  END
