piperidine-amides-10627-covalent
     RDKit          3D

 23 24  0  0  0  0  0  0  0  0999 V2000
    7.0370   -3.3300   19.3150 C   0  0  0  0  0  0  0  0  0  0  0  0
    6.3610   -4.1430   20.3340 C   0  0  0  0  0  0  0  0  0  0  0  0
    5.3560   -4.8000   19.9620 O   0  0  0  0  0  0  0  0  0  0  0  0
    6.8500   -4.1950   21.6390 N   0  0  0  0  0  0  0  0  0  0  0  0
    7.7400   -3.1750   22.1520 C   0  0  0  0  0  0  0  0  0  0  0  0
    7.4710   -3.0480   23.6070 C   0  0  0  0  0  0  0  0  0  0  0  0
    6.1250   -3.6280   23.9320 C   0  0  0  0  0  0  0  0  0  0  0  0
    5.7230   -3.2170   25.2860 C   0  0  0  0  0  0  0  0  0  0  0  0
    4.5300   -3.3900   25.6270 O   0  0  0  0  0  0  0  0  0  0  0  0
    6.6200   -2.6350   26.1940 N   0  0  0  0  0  0  0  0  0  0  0  0
    6.1420   -1.7870   27.2520 C   0  0  2  0  0  0  0  0  0  0  0  0
    5.8120   -0.3800   26.7810 C   0  0  0  0  0  0  0  0  0  0  0  0
    5.8860    0.7140   27.6180 C   0  0  0  0  0  0  0  0  0  0  0  0
    5.9870    0.5990   29.0000 C   0  0  1  0  0  0  0  0  0  0  0  0
    4.8550    0.2420   29.7310 C   0  0  0  0  0  0  0  0  0  0  0  0
    4.6110   -1.0800   30.0350 O   0  0  0  0  0  0  0  0  0  0  0  0
    4.0130    1.2060   30.1360 N   0  0  0  0  0  0  0  0  0  0  0  0
    3.2330    1.0220   31.2110 C   0  0  0  0  0  0  0  0  0  0  0  0
    3.9010    2.3400   29.4050 C   0  0  0  0  0  0  0  0  0  0  0  0
    6.8980   -0.4980   29.4550 C   0  0  0  0  0  0  0  0  0  0  0  0
    7.0700   -1.5050   28.3340 C   0  0  0  0  0  0  0  0  0  0  0  0
    6.0980   -5.1510   23.7390 C   0  0  0  0  0  0  0  0  0  0  0  0
    6.7440   -5.4460   22.3890 C   0  0  0  0  0  0  0  0  0  0  0  0
  1  2  1  0
  2  3  2  0
  2  4  1  0
  4  5  1  0
  5  6  1  0
  6  7  1  0
  7  8  1  0
  8  9  2  0
  8 10  1  0
 11 10  1  6
 11 12  1  0
 12 13  1  0
 13 14  1  0
 14 15  1  1
 15 16  2  0
 15 17  1  0
 17 18  1  0
 17 19  1  0
 14 20  1  0
 11 21  1  0
 20 21  1  0
  7 22  1  0
  4 23  1  0
 22 23  1  0
M  END
