piperidine-amides-30596-covalent
     RDKit          3D

 23 25  0  0  0  0  0  0  0  0999 V2000
    7.0660   -3.3370   19.3350 C   0  0  0  0  0  0  0  0  0  0  0  0
    6.3980   -4.1500   20.3540 C   0  0  0  0  0  0  0  0  0  0  0  0
    5.4320   -4.8570   19.9970 O   0  0  0  0  0  0  0  0  0  0  0  0
    6.8470   -4.1800   21.6950 N   0  0  0  0  0  0  0  0  0  0  0  0
    7.7840   -3.1980   22.2270 C   0  0  0  0  0  0  0  0  0  0  0  0
    7.2980   -2.9110   23.6140 C   0  0  0  0  0  0  0  0  0  0  0  0
    6.0320   -3.6600   23.8240 C   0  0  0  0  0  0  0  0  0  0  0  0
    5.2670   -3.3390   25.0580 C   0  0  0  0  0  0  0  0  0  0  0  0
    4.0610   -3.7000   25.1340 O   0  0  0  0  0  0  0  0  0  0  0  0
    5.7350   -2.6330   26.1860 N   0  0  0  0  0  0  0  0  0  0  0  0
    5.1010   -3.0240   27.4620 C   0  0  0  0  0  0  0  0  0  0  0  0
    5.5260   -4.3290   28.0030 C   0  0  0  0  0  0  0  0  0  0  0  0
    6.7790   -4.9530   27.5820 C   0  0  0  0  0  0  0  0  0  0  0  0
    7.1760   -6.2530   28.1810 C   0  0  0  0  0  0  0  0  0  0  0  0
    6.2800   -6.9200   29.2030 C   0  0  0  0  0  0  0  0  0  0  0  0
    5.0530   -6.1450   29.4900 C   0  0  0  0  0  0  0  0  0  0  0  0
    4.7180   -4.9450   28.9250 C   0  0  0  0  0  0  0  0  0  0  0  0
    3.1000   -4.0890   29.4140 Br  0  0  0  0  0  0  0  0  0  0  0  0
    6.0470   -1.2190   26.1210 C   0  0  0  0  0  0  0  0  0  0  0  0
    6.1100   -0.4350   27.2690 C   0  0  0  0  0  0  0  0  0  0  0  0
    4.9740   -0.0890   26.2350 C   0  0  0  0  0  0  0  0  0  0  0  0
    6.3560   -5.1540   23.6490 C   0  0  0  0  0  0  0  0  0  0  0  0
    6.5210   -5.3920   22.4640 C   0  0  0  0  0  0  0  0  0  0  0  0
  1  2  1  0
  2  3  2  0
  2  4  1  0
  4  5  1  0
  5  6  1  0
  6  7  1  0
  7  8  1  0
  8  9  2  0
  8 10  1  0
 10 11  1  0
 11 12  1  0
 12 13  2  0
 13 14  1  0
 14 15  2  0
 15 16  1  0
 12 17  1  0
 16 17  2  0
 17 18  1  0
 10 19  1  0
 19 20  1  0
 19 21  1  0
 20 21  1  0
  7 22  1  0
  4 23  1  0
 22 23  1  0
M  END
