piperidine-amides-1461-covalent
     RDKit          3D

 22 23  0  0  0  0  0  0  0  0999 V2000
    7.0860   -3.2850   19.2540 C   0  0  0  0  0  0  0  0  0  0  0  0
    6.3540   -4.0980   20.2640 C   0  0  0  0  0  0  0  0  0  0  0  0
    5.3040   -4.6720   19.9270 O   0  0  0  0  0  0  0  0  0  0  0  0
    6.8920   -4.2390   21.5630 N   0  0  0  0  0  0  0  0  0  0  0  0
    7.7020   -3.2350   22.2130 C   0  0  0  0  0  0  0  0  0  0  0  0
    6.8180   -2.5670   23.2700 C   0  0  0  0  0  0  0  0  0  0  0  0
    5.9840   -3.6320   23.9150 C   0  0  0  0  0  0  0  0  0  0  0  0
    5.6610   -3.3500   25.3330 C   0  0  0  0  0  0  0  0  0  0  0  0
    4.5360   -2.8850   25.5470 O   0  0  0  0  0  0  0  0  0  0  0  0
    6.5900   -3.5930   26.3560 N   0  0  0  0  0  0  0  0  0  0  0  0
    6.8710   -4.8160   27.0310 C   0  0  0  0  0  0  0  0  0  0  0  0
    5.9470   -5.7570   27.3930 C   0  0  0  0  0  0  0  0  0  0  0  0
    5.1890   -6.0680   26.1950 O   0  0  0  0  0  0  0  0  0  0  0  0
    3.8970   -6.4970   26.4480 C   0  0  0  0  0  0  0  0  0  0  0  0
    2.8920   -6.0040   25.6540 C   0  0  0  0  0  0  0  0  0  0  0  0
    1.4690   -6.3710   25.8070 C   0  0  0  0  0  0  0  0  0  0  0  0
    0.9970   -7.3440   26.8800 C   0  0  0  0  0  0  0  0  0  0  0  0
   -1.0150   -7.9340   27.1820 I   0  0  0  0  0  0  0  0  0  0  0  0
    2.2310   -7.7950   27.6680 C   0  0  0  0  0  0  0  0  0  0  0  0
    3.5400   -7.3840   27.4390 C   0  0  0  0  0  0  0  0  0  0  0  0
    6.5110   -5.0160   23.7780 C   0  0  0  0  0  0  0  0  0  0  0  0
    6.5770   -5.4270   22.3180 C   0  0  0  0  0  0  0  0  0  0  0  0
  1  2  1  0
  2  3  2  0
  2  4  1  0
  4  5  1  0
  5  6  1  0
  6  7  1  0
  7  8  1  0
  8  9  2  0
  8 10  1  0
 10 11  1  0
 11 12  1  0
 12 13  1  0
 13 14  1  0
 14 15  2  0
 15 16  1  0
 16 17  2  0
 17 18  1  0
 17 19  1  0
 14 20  1  0
 19 20  2  0
  7 21  1  0
  4 22  1  0
 21 22  1  0
M  END
