piperidine-amides-218-covalent
     RDKit          3D

 24 26  0  0  0  0  0  0  0  0999 V2000
    7.0710   -3.3220   19.1860 C   0  0  0  0  0  0  0  0  0  0  0  0
    6.3300   -4.0000   20.2320 C   0  0  0  0  0  0  0  0  0  0  0  0
    5.2620   -4.5960   19.8970 O   0  0  0  0  0  0  0  0  0  0  0  0
    6.7530   -4.0830   21.5700 N   0  0  0  0  0  0  0  0  0  0  0  0
    7.6730   -3.0250   22.0700 C   0  0  0  0  0  0  0  0  0  0  0  0
    7.4310   -3.1240   23.6180 C   0  0  0  0  0  0  0  0  0  0  0  0
    6.0070   -3.6010   23.7270 C   0  0  0  0  0  0  0  0  0  0  0  0
    5.3120   -3.2160   25.0930 C   0  0  0  0  0  0  0  0  0  0  0  0
    4.1200   -2.9790   24.9440 O   0  0  0  0  0  0  0  0  0  0  0  0
    6.1840   -3.2530   25.9940 N   0  0  0  0  0  0  0  0  0  0  0  0
    7.0830   -3.2890   26.9900 C   0  0  0  0  0  0  0  0  0  0  0  0
    7.3750   -3.8730   28.1760 C   0  0  0  0  0  0  0  0  0  0  0  0
    8.4820   -4.7430   28.1810 C   0  0  2  0  0  0  0  0  0  0  0  0
    8.9280   -5.0970   26.8220 C   0  0  0  0  0  0  0  0  0  0  0  0
    7.4910   -5.4870   25.9000 S   0  0  0  0  0  0  0  0  0  0  0  0
    6.3930   -6.1520   27.1380 C   0  0  0  0  0  0  0  0  0  0  0  0
    5.1230   -6.5270   26.6600 C   0  0  0  0  0  0  0  0  0  0  0  0
    3.9560   -7.1020   27.2740 C   0  0  0  0  0  0  0  0  0  0  0  0
    4.5210   -7.2050   28.7240 C   0  0  0  0  0  0  0  0  0  0  0  0
    5.9100   -6.8030   29.3090 C   0  0  0  0  0  0  0  0  0  0  0  0
    6.7840   -6.2850   28.4490 C   0  0  0  0  0  0  0  0  0  0  0  0
    7.9510   -5.9080   28.7670 O   0  0  0  0  0  0  0  0  0  0  0  0
    5.7950   -5.0520   23.3240 C   0  0  0  0  0  0  0  0  0  0  0  0
    6.6080   -5.3350   22.2790 C   0  0  0  0  0  0  0  0  0  0  0  0
  1  2  1  0
  2  3  2  0
  2  4  1  0
  4  5  1  0
  5  6  1  0
  6  7  1  0
  7  8  1  0
  8  9  2  0
  8 10  1  0
 10 11  1  0
 11 12  1  0
 13 12  1  6
 13 14  1  0
 14 15  1  0
 15 16  1  0
 16 17  2  0
 17 18  1  0
 18 19  2  0
 19 20  1  0
 16 21  1  0
 20 21  2  0
 13 22  1  0
 21 22  1  0
  7 23  1  0
  4 24  1  0
 23 24  1  0
M  END
