piperidine-amides-24080-covalent
     RDKit          3D

 23 24  0  0  0  0  0  0  0  0999 V2000
    7.1020   -3.4090   19.3530 C   0  0  0  0  0  0  0  0  0  0  0  0
    6.4270   -4.2390   20.3580 C   0  0  0  0  0  0  0  0  0  0  0  0
    5.3830   -4.8330   19.9910 O   0  0  0  0  0  0  0  0  0  0  0  0
    6.9900   -4.3940   21.6500 N   0  0  0  0  0  0  0  0  0  0  0  0
    6.5890   -5.5180   22.4410 C   0  0  0  0  0  0  0  0  0  0  0  0
    6.1520   -5.1300   23.7820 C   0  0  0  0  0  0  0  0  0  0  0  0
    6.2470   -3.6720   23.9500 C   0  0  0  0  0  0  0  0  0  0  0  0
    5.5650   -3.0640   25.1320 C   0  0  0  0  0  0  0  0  0  0  0  0
    5.0430   -1.9550   24.9670 O   0  0  0  0  0  0  0  0  0  0  0  0
    5.4220   -3.6290   26.4000 N   0  0  0  0  0  0  0  0  0  0  0  0
    4.1130   -3.8650   26.8830 C   0  0  0  0  0  0  0  0  0  0  0  0
    3.7950   -4.8130   27.9540 C   0  0  0  0  0  0  0  0  0  0  0  0
    4.5600   -4.3740   29.1880 C   0  0  2  0  0  0  0  0  0  0  0  0
    4.9560   -3.0340   29.2610 C   0  0  0  0  0  0  0  0  0  0  0  0
    4.4420   -2.3710   28.1730 F   0  0  0  0  0  0  0  0  0  0  0  0
    4.2950   -2.4750   30.3420 F   0  0  0  0  0  0  0  0  0  0  0  0
    6.3230   -2.8170   29.3130 F   0  0  0  0  0  0  0  0  0  0  0  0
    5.9590   -4.2430   28.6740 C   0  0  0  0  0  0  0  0  0  0  0  0
    4.9870   -5.2890   28.2510 C   0  0  0  0  0  0  0  0  0  0  0  0
    7.0200   -5.2550   29.0370 C   0  0  0  0  0  0  0  0  0  0  0  0
    6.2320   -3.3550   27.5130 C   0  0  0  0  0  0  0  0  0  0  0  0
    7.6500   -3.2230   23.6910 C   0  0  0  0  0  0  0  0  0  0  0  0
    7.7660   -3.2810   22.1700 C   0  0  0  0  0  0  0  0  0  0  0  0
  1  2  1  0
  2  3  2  0
  2  4  1  0
  4  5  1  0
  5  6  1  0
  6  7  1  0
  7  8  1  0
  8  9  2  0
  8 10  1  0
 10 11  1  0
 11 12  1  0
 12 13  1  0
 13 14  1  6
 14 15  1  0
 14 16  1  0
 14 17  1  0
 13 18  1  0
 18 19  1  0
 18 20  1  0
 10 21  1  0
 18 21  1  0
  7 22  1  0
  4 23  1  0
 22 23  1  0
M  END
