piperidine-amides-14792-covalent
     RDKit          3D

 22 24  0  0  0  0  0  0  0  0999 V2000
    7.0420   -3.2730   19.2050 C   0  0  0  0  0  0  0  0  0  0  0  0
    6.2840   -4.0290   20.2120 C   0  0  0  0  0  0  0  0  0  0  0  0
    5.2390   -4.5980   19.8740 O   0  0  0  0  0  0  0  0  0  0  0  0
    6.7500   -4.1300   21.5390 N   0  0  0  0  0  0  0  0  0  0  0  0
    7.6090   -3.1110   22.0360 C   0  0  0  0  0  0  0  0  0  0  0  0
    7.3860   -3.0590   23.4920 C   0  0  0  0  0  0  0  0  0  0  0  0
    5.9980   -3.5540   23.7290 C   0  0  0  0  0  0  0  0  0  0  0  0
    5.6770   -3.3420   25.1750 C   0  0  0  0  0  0  0  0  0  0  0  0
    4.5990   -2.8130   25.4240 O   0  0  0  0  0  0  0  0  0  0  0  0
    6.6270   -3.7470   26.1110 N   0  0  0  0  0  0  0  0  0  0  0  0
    6.2720   -4.1380   27.4380 C   0  0  0  0  0  0  0  0  0  0  0  0
    5.9140   -5.4840   27.5790 C   0  0  0  0  0  0  0  0  0  0  0  0
    4.5820   -5.8230   27.7760 C   0  0  0  0  0  0  0  0  0  0  0  0
    4.4060   -7.2240   27.8470 C   0  0  0  0  0  0  0  0  0  0  0  0
    3.9970   -7.5140   29.2610 C   0  0  0  0  0  0  0  0  0  0  0  0
    3.8440   -6.1840   29.9550 C   0  0  0  0  0  0  0  0  0  0  0  0
    4.1550   -5.2060   29.0270 N   0  0  0  0  0  0  0  0  0  0  0  0
    3.0100   -4.3720   28.7140 C   0  0  0  0  0  0  0  0  0  0  0  0
    2.6730   -4.4550   27.2500 C   0  0  0  0  0  0  0  0  0  0  0  0
    3.7760   -5.3880   26.7550 C   0  0  0  0  0  0  0  0  0  0  0  0
    5.9130   -5.0470   23.4610 C   0  0  0  0  0  0  0  0  0  0  0  0
    6.6060   -5.3520   22.2940 C   0  0  0  0  0  0  0  0  0  0  0  0
  1  2  1  0
  2  3  2  0
  2  4  1  0
  4  5  1  0
  5  6  1  0
  6  7  1  0
  7  8  1  0
  8  9  2  0
  8 10  1  0
 10 11  1  0
 11 12  1  0
 13 12  1  0
 13 14  1  0
 14 15  1  0
 15 16  1  0
 13 17  1  0
 16 17  1  0
 17 18  1  0
 18 19  1  0
 13 20  1  0
 19 20  1  0
  7 21  1  0
  4 22  1  0
 21 22  1  0
M  END
