piperidine-amides-8112-covalent
     RDKit          3D

 26 28  0  0  0  0  0  0  0  0999 V2000
    7.0620   -3.3570   19.3350 C   0  0  0  0  0  0  0  0  0  0  0  0
    6.4190   -4.2170   20.3240 C   0  0  0  0  0  0  0  0  0  0  0  0
    5.3860   -4.8180   19.9810 O   0  0  0  0  0  0  0  0  0  0  0  0
    7.0000   -4.3980   21.6100 N   0  0  0  0  0  0  0  0  0  0  0  0
    7.6920   -3.2980   22.2080 C   0  0  0  0  0  0  0  0  0  0  0  0
    6.8200   -2.7290   23.2750 C   0  0  0  0  0  0  0  0  0  0  0  0
    6.4670   -3.8650   24.2080 C   0  0  0  0  0  0  0  0  0  0  0  0
    5.7720   -3.2880   25.4040 C   0  0  0  0  0  0  0  0  0  0  0  0
    4.5520   -3.4770   25.5100 O   0  0  0  0  0  0  0  0  0  0  0  0
    6.5530   -2.5580   26.2930 N   0  0  0  0  0  0  0  0  0  0  0  0
    6.0060   -1.6850   27.2800 C   0  0  0  0  0  0  0  0  0  0  0  0
    5.7200   -0.3680   26.8610 C   0  0  0  0  0  0  0  0  0  0  0  0
    5.6820    0.6270   27.8300 C   0  0  0  0  0  0  0  0  0  0  0  0
    5.6430    0.1530   29.1830 N   0  0  0  0  0  0  0  0  0  0  0  0
    5.4470    1.1490   30.1610 C   0  0  0  0  0  0  0  0  0  0  0  0
    5.8500    0.7230   31.5470 C   0  0  0  0  0  0  0  0  0  0  0  0
    7.3650    0.7280   31.9000 C   0  0  0  0  0  0  0  0  0  0  0  0
    7.7780    0.3020   33.2770 C   0  0  0  0  0  0  0  0  0  0  0  0
    6.6850   -0.1060   34.2300 C   0  0  0  0  0  0  0  0  0  0  0  0
    5.2210   -0.0620   33.7420 C   0  0  0  0  0  0  0  0  0  0  0  0
    4.1450   -0.4120   34.5210 C   0  0  0  0  0  0  0  0  0  0  0  0
    4.9260    0.3380   32.4750 C   0  0  0  0  0  0  0  0  0  0  0  0
    6.7860   -0.6360   29.5200 C   0  0  0  0  0  0  0  0  0  0  0  0
    6.9670   -1.6130   28.4190 C   0  0  0  0  0  0  0  0  0  0  0  0
    5.6010   -4.8760   23.4630 C   0  0  0  0  0  0  0  0  0  0  0  0
    6.5230   -5.5050   22.4100 C   0  0  0  0  0  0  0  0  0  0  0  0
  1  2  1  0
  2  3  2  0
  2  4  1  0
  4  5  1  0
  5  6  1  0
  6  7  1  0
  7  8  1  0
  8  9  2  0
  8 10  1  0
 10 11  1  0
 11 12  1  0
 12 13  1  0
 13 14  1  0
 14 15  1  0
 15 16  1  0
 16 17  2  0
 17 18  1  0
 18 19  2  0
 19 20  1  0
 20 21  1  0
 16 22  1  0
 20 22  2  0
 14 23  1  0
 11 24  1  0
 23 24  1  0
  7 25  1  0
  4 26  1  0
 25 26  1  0
M  END
