piperidine-amides-5582-covalent
     RDKit          3D

 19 20  0  0  0  0  0  0  0  0999 V2000
    7.1380   -3.2780   19.2000 C   0  0  0  0  0  0  0  0  0  0  0  0
    6.3840   -4.0210   20.2120 C   0  0  0  0  0  0  0  0  0  0  0  0
    5.3150   -4.5710   19.8950 O   0  0  0  0  0  0  0  0  0  0  0  0
    6.8800   -4.1670   21.5150 N   0  0  0  0  0  0  0  0  0  0  0  0
    7.7900   -3.2130   22.0970 C   0  0  0  0  0  0  0  0  0  0  0  0
    7.0570   -2.6440   23.2660 C   0  0  0  0  0  0  0  0  0  0  0  0
    6.5320   -3.7080   24.1820 C   0  0  0  0  0  0  0  0  0  0  0  0
    5.7530   -3.0970   25.2780 C   0  0  0  0  0  0  0  0  0  0  0  0
    4.4950   -3.2780   25.3730 O   0  0  0  0  0  0  0  0  0  0  0  0
    6.3620   -2.2700   26.2460 N   0  0  0  0  0  0  0  0  0  0  0  0
    6.2150   -2.5530   27.6840 C   0  0  0  0  0  0  0  0  0  0  0  0
    7.4650   -3.1640   28.1320 C   0  0  0  0  0  0  0  0  0  0  0  0
    8.0380   -3.7310   27.0890 N   0  0  0  0  0  0  0  0  0  0  0  0
    8.7360   -4.9260   27.1960 C   0  0  0  0  0  0  0  0  0  0  0  0
    7.7510   -5.9960   27.0980 C   0  0  0  0  0  0  0  0  0  0  0  0
    6.3730   -5.7970   27.0950 C   0  0  0  0  0  0  0  0  0  0  0  0
    6.9960   -6.0210   28.4930 C   0  0  0  0  0  0  0  0  0  0  0  0
    5.7080   -4.7190   23.3950 C   0  0  0  0  0  0  0  0  0  0  0  0
    6.4190   -5.2680   22.3160 C   0  0  0  0  0  0  0  0  0  0  0  0
  1  2  1  0
  2  3  2  0
  2  4  1  0
  4  5  1  0
  5  6  1  0
  6  7  1  0
  7  8  1  0
  8  9  2  0
  8 10  1  0
 10 11  1  0
 11 12  1  0
 12 13  1  0
 13 14  1  0
 14 15  1  0
 15 16  1  0
 15 17  1  0
 16 17  1  0
  7 18  1  0
  4 19  1  0
 18 19  1  0
M  END
