piperidine-amides-8585-covalent
     RDKit          3D

 23 24  0  0  0  0  0  0  0  0999 V2000
    7.0960   -3.2900   19.2420 C   0  0  0  0  0  0  0  0  0  0  0  0
    6.3850   -4.0750   20.2500 C   0  0  0  0  0  0  0  0  0  0  0  0
    5.3250   -4.6340   19.9180 O   0  0  0  0  0  0  0  0  0  0  0  0
    6.9290   -4.2280   21.5490 N   0  0  0  0  0  0  0  0  0  0  0  0
    7.6990   -3.1620   22.1210 C   0  0  0  0  0  0  0  0  0  0  0  0
    6.9460   -2.6210   23.2850 C   0  0  0  0  0  0  0  0  0  0  0  0
    6.6420   -3.8190   24.1530 C   0  0  0  0  0  0  0  0  0  0  0  0
    5.8680   -3.3740   25.3530 C   0  0  0  0  0  0  0  0  0  0  0  0
    4.6420   -3.3290   25.2470 O   0  0  0  0  0  0  0  0  0  0  0  0
    6.6020   -3.0370   26.4870 N   0  0  0  0  0  0  0  0  0  0  0  0
    6.3680   -3.6010   27.7740 C   0  0  0  0  0  0  0  0  0  0  0  0
    6.2540   -4.9950   27.8260 C   0  0  0  0  0  0  0  0  0  0  0  0
    5.4200   -5.4060   26.7880 F   0  0  0  0  0  0  0  0  0  0  0  0
    7.4920   -5.5070   27.5190 F   0  0  0  0  0  0  0  0  0  0  0  0
    5.7530   -5.5980   28.9600 C   0  0  0  0  0  0  0  0  0  0  0  0
    6.4270   -6.7280   29.4270 C   0  0  0  0  0  0  0  0  0  0  0  0
    5.9060   -7.4160   30.6700 C   0  0  0  0  0  0  0  0  0  0  0  0
    4.6670   -6.8820   31.3960 C   0  0  0  0  0  0  0  0  0  0  0  0
    4.0160   -5.6990   30.8490 C   0  0  0  0  0  0  0  0  0  0  0  0
    4.6250   -5.1130   29.6230 C   0  0  0  0  0  0  0  0  0  0  0  0
    3.8380   -3.8660   29.1540 C   0  0  0  0  0  0  0  0  0  0  0  0
    5.7620   -4.7810   23.3740 C   0  0  0  0  0  0  0  0  0  0  0  0
    6.5530   -5.3410   22.3870 C   0  0  0  0  0  0  0  0  0  0  0  0
  1  2  1  0
  2  3  2  0
  2  4  1  0
  4  5  1  0
  5  6  1  0
  6  7  1  0
  7  8  1  0
  8  9  2  0
  8 10  1  0
 10 11  1  0
 11 12  1  0
 12 13  1  0
 12 14  1  0
 12 15  1  0
 15 16  2  0
 16 17  1  0
 17 18  2  0
 18 19  1  0
 15 20  1  0
 19 20  2  0
 20 21  1  0
  7 22  1  0
  4 23  1  0
 22 23  1  0
M  END
