piperidine-amides-34072-covalent
     RDKit          3D

 31 34  0  0  0  0  0  0  0  0999 V2000
    7.0840   -3.3100   19.2570 C   0  0  0  0  0  0  0  0  0  0  0  0
    6.3030   -4.0830   20.2290 C   0  0  0  0  0  0  0  0  0  0  0  0
    5.2340   -4.6280   19.8970 O   0  0  0  0  0  0  0  0  0  0  0  0
    6.7760   -4.2670   21.5200 N   0  0  0  0  0  0  0  0  0  0  0  0
    6.5540   -5.5360   22.1630 C   0  0  0  0  0  0  0  0  0  0  0  0
    5.8640   -5.1950   23.4770 C   0  0  0  0  0  0  0  0  0  0  0  0
    6.8530   -4.3260   24.2150 C   0  0  0  0  0  0  0  0  0  0  0  0
    6.2840   -3.9470   25.5050 C   0  0  0  0  0  0  0  0  0  0  0  0
    5.0350   -3.9750   25.6410 O   0  0  0  0  0  0  0  0  0  0  0  0
    7.1470   -3.5210   26.5410 N   0  0  0  0  0  0  0  0  0  0  0  0
    6.8590   -2.1830   26.9080 C   0  0  0  0  0  0  0  0  0  0  0  0
    6.2570   -1.4680   25.8310 N   0  0  0  0  0  0  0  0  0  0  0  0
    5.9870   -0.1900   26.3800 C   0  0  0  0  0  0  0  0  0  0  0  0
    5.4200    0.7970   25.6780 C   0  0  0  0  0  0  0  0  0  0  0  0
    5.2930    1.8710   26.4510 C   0  0  0  0  0  0  0  0  0  0  0  0
    4.7740    3.1440   26.2110 C   0  0  0  0  0  0  0  0  0  0  0  0
    5.7790    1.6100   27.6910 N   0  0  0  0  0  0  0  0  0  0  0  0
    6.2430    0.2770   27.6910 N   0  0  0  0  0  0  0  0  0  0  0  0
    6.8410   -0.3650   28.8250 C   0  0  0  0  0  0  0  0  0  0  0  0
    6.5230    0.9840   29.3560 C   0  0  0  0  0  0  0  0  0  0  0  0
    5.9280    1.3630   28.0540 C   0  0  0  0  0  0  0  0  0  0  0  0
    5.7280    0.6620   26.7360 C   0  0  0  0  0  0  0  0  0  0  0  0
    6.3230   -0.6730   27.0040 C   0  0  0  0  0  0  0  0  0  0  0  0
    6.9580   -1.4450   27.9990 C   0  0  0  0  0  0  0  0  0  0  0  0
    7.4490   -4.4420   27.6160 C   0  0  0  0  0  0  0  0  0  0  0  0
    8.5160   -5.4750   27.3260 C   0  0  0  0  0  0  0  0  0  0  0  0
    9.1680   -5.4180   25.9670 C   0  0  0  0  0  0  0  0  0  0  0  0
    6.3200   -4.9790   28.1930 C   0  0  0  0  0  0  0  0  0  0  0  0
    5.9150   -6.1800   27.6670 C   0  0  0  0  0  0  0  0  0  0  0  0
    7.1910   -3.0620   23.4790 C   0  0  0  0  0  0  0  0  0  0  0  0
    7.5610   -3.2690   22.1740 C   0  0  0  0  0  0  0  0  0  0  0  0
  1  2  1  0
  2  3  2  0
  2  4  1  0
  4  5  1  0
  5  6  1  0
  6  7  1  0
  7  8  1  0
  8  9  2  0
  8 10  1  0
 10 11  1  0
 11 12  2  0
 12 13  1  0
 13 14  2  0
 14 15  1  0
 15 16  1  0
 15 17  2  0
 13 18  1  0
 17 18  1  0
 18 19  1  0
 19 20  1  0
 20 21  2  0
 21 22  1  0
 22 23  2  0
 11 24  1  0
 19 24  2  0
 23 24  1  0
 10 25  1  0
 25 26  1  0
 26 27  1  0
 25 28  1  0
 28 29  1  0
  7 30  1  0
  4 31  1  0
 30 31  1  0
M  END
