piperidine-amides-616-covalent
     RDKit          3D

 26 28  0  0  0  0  0  0  0  0999 V2000
    7.1330   -3.3510   19.1890 C   0  0  0  0  0  0  0  0  0  0  0  0
    6.3600   -3.9890   20.2240 C   0  0  0  0  0  0  0  0  0  0  0  0
    5.2700   -4.5470   19.8900 O   0  0  0  0  0  0  0  0  0  0  0  0
    6.8020   -4.0660   21.5560 N   0  0  0  0  0  0  0  0  0  0  0  0
    6.4960   -5.2980   22.3080 C   0  0  0  0  0  0  0  0  0  0  0  0
    5.6220   -4.6640   23.4540 C   0  0  0  0  0  0  0  0  0  0  0  0
    6.5290   -3.6560   24.1300 C   0  0  0  0  0  0  0  0  0  0  0  0
    5.8220   -2.9900   25.3840 C   0  0  0  0  0  0  0  0  0  0  0  0
    5.4200   -1.8710   25.1130 O   0  0  0  0  0  0  0  0  0  0  0  0
    5.8330   -3.8000   26.3520 N   0  0  0  0  0  0  0  0  0  0  0  0
    5.6950   -4.6340   27.4050 C   0  0  0  0  0  0  0  0  0  0  0  0
    4.7120   -5.3000   28.0710 C   0  0  0  0  0  0  0  0  0  0  0  0
    3.6000   -5.7800   27.3480 C   0  0  0  0  0  0  0  0  0  0  0  0
    2.3150   -5.0550   27.3300 C   0  0  0  0  0  0  0  0  0  0  0  0
    1.2770   -5.8300   26.4460 C   0  0  0  0  0  0  0  0  0  0  0  0
    1.6700   -7.0490   25.8180 C   0  0  0  0  0  0  0  0  0  0  0  0
    2.8730   -7.7740   25.8050 C   0  0  0  0  0  0  0  0  0  0  0  0
    3.0130   -8.9370   25.1360 O   0  0  0  0  0  0  0  0  0  0  0  0
    2.0690   -9.8610   25.5190 C   0  0  0  0  0  0  0  0  0  0  0  0
    3.8620   -7.0290   26.6440 C   0  0  0  0  0  0  0  0  0  0  0  0
    4.8540   -6.5760   28.8570 C   0  0  0  0  0  0  0  0  0  0  0  0
    4.0540   -6.3730   29.9660 C   0  0  0  0  0  0  0  0  0  0  0  0
    3.5170   -5.1160   30.0270 C   0  0  0  0  0  0  0  0  0  0  0  0
    4.1590   -4.3240   29.1040 C   0  0  0  0  0  0  0  0  0  0  0  0
    7.1790   -2.5900   23.3280 C   0  0  0  0  0  0  0  0  0  0  0  0
    7.7550   -3.1040   22.0610 C   0  0  0  0  0  0  0  0  0  0  0  0
  1  2  1  0
  2  3  2  0
  2  4  1  0
  4  5  1  0
  5  6  1  0
  6  7  1  0
  7  8  1  0
  8  9  2  0
  8 10  1  0
 10 11  1  0
 12 11  1  0
 12 13  1  0
 13 14  2  0
 14 15  1  0
 15 16  2  0
 16 17  1  0
 17 18  1  0
 18 19  1  0
 13 20  1  0
 17 20  2  0
 12 21  1  0
 21 22  1  0
 22 23  1  0
 12 24  1  0
 23 24  1  0
  7 25  1  0
  4 26  1  0
 25 26  1  0
M  END
