piperidine-amides-3918-covalent
     RDKit          3D

 30 33  0  0  0  0  0  0  0  0999 V2000
    7.1490   -3.2990   19.1710 C   0  0  0  0  0  0  0  0  0  0  0  0
    6.3550   -3.9990   20.1910 C   0  0  0  0  0  0  0  0  0  0  0  0
    5.2450   -4.4610   19.8480 O   0  0  0  0  0  0  0  0  0  0  0  0
    6.8690   -4.1940   21.4880 N   0  0  0  0  0  0  0  0  0  0  0  0
    6.3000   -5.2270   22.2680 C   0  0  0  0  0  0  0  0  0  0  0  0
    5.9030   -4.7930   23.6080 C   0  0  0  0  0  0  0  0  0  0  0  0
    6.7820   -3.7860   24.2610 C   0  0  0  0  0  0  0  0  0  0  0  0
    6.1820   -3.2660   25.5160 C   0  0  0  0  0  0  0  0  0  0  0  0
    4.9400   -3.2720   25.6520 O   0  0  0  0  0  0  0  0  0  0  0  0
    7.0230   -2.7560   26.5280 N   0  0  0  0  0  0  0  0  0  0  0  0
    7.2000   -3.2120   27.8490 C   0  0  0  0  0  0  0  0  0  0  0  0
    6.0590   -3.6050   28.6700 C   0  0  0  0  0  0  0  0  0  0  0  0
    5.0220   -2.5300   29.0190 C   0  0  0  0  0  0  0  0  0  0  0  0
    5.0350   -1.2030   28.6540 C   0  0  0  0  0  0  0  0  0  0  0  0
    6.1100   -0.7820   29.6770 C   0  0  0  0  0  0  0  0  0  0  0  0
    6.4070    0.7130   29.5690 C   0  0  0  0  0  0  0  0  0  0  0  0
    5.6180    1.5190   28.5050 C   0  0  0  0  0  0  0  0  0  0  0  0
    5.8620    2.8580   28.3840 F   0  0  0  0  0  0  0  0  0  0  0  0
    4.5890    0.9620   27.5690 C   0  0  0  0  0  0  0  0  0  0  0  0
    4.3500   -0.4950   27.7270 C   0  0  0  0  0  0  0  0  0  0  0  0
    4.0650   -3.2790   29.8140 N   0  0  0  0  0  0  0  0  0  0  0  0
    4.5330   -4.6080   29.8910 C   0  0  0  0  0  0  0  0  0  0  0  0
    3.8470   -5.6920   30.6190 C   0  0  0  0  0  0  0  0  0  0  0  0
    4.4120   -6.9600   30.6400 C   0  0  0  0  0  0  0  0  0  0  0  0
    5.6090   -7.1260   29.9550 C   0  0  0  0  0  0  0  0  0  0  0  0
    6.2360   -8.3280   29.9340 F   0  0  0  0  0  0  0  0  0  0  0  0
    6.2550   -5.9770   29.2190 C   0  0  0  0  0  0  0  0  0  0  0  0
    5.6920   -4.7690   29.2220 N   0  0  0  0  0  0  0  0  0  0  0  0
    7.1120   -2.6420   23.3520 C   0  0  0  0  0  0  0  0  0  0  0  0
    7.6770   -3.1650   22.0610 C   0  0  0  0  0  0  0  0  0  0  0  0
  1  2  1  0
  2  3  2  0
  2  4  1  0
  4  5  1  0
  5  6  1  0
  6  7  1  0
  7  8  1  0
  8  9  2  0
  8 10  1  0
 10 11  1  0
 11 12  1  0
 12 13  2  0
 13 14  1  0
 14 15  2  0
 15 16  1  0
 16 17  2  0
 17 18  1  0
 17 19  1  0
 14 20  1  0
 19 20  2  0
 13 21  1  0
 21 22  2  0
 22 23  1  0
 23 24  2  0
 24 25  1  0
 25 26  1  0
 25 27  2  0
 12 28  1  0
 22 28  1  0
 27 28  1  0
  7 29  1  0
  4 30  1  0
 29 30  1  0
M  END
