piperidine-amides-33065-covalent
     RDKit          3D

 29 30  0  0  0  0  0  0  0  0999 V2000
    7.1040   -3.3010   19.2870 C   0  0  0  0  0  0  0  0  0  0  0  0
    6.4060   -4.0990   20.3100 C   0  0  0  0  0  0  0  0  0  0  0  0
    5.3540   -4.6800   19.9440 O   0  0  0  0  0  0  0  0  0  0  0  0
    6.9310   -4.2470   21.6270 N   0  0  0  0  0  0  0  0  0  0  0  0
    6.5650   -5.3910   22.3910 C   0  0  0  0  0  0  0  0  0  0  0  0
    6.0210   -5.0510   23.7000 C   0  0  0  0  0  0  0  0  0  0  0  0
    5.9330   -3.5950   23.9260 C   0  0  0  0  0  0  0  0  0  0  0  0
    5.3060   -3.2320   25.2470 C   0  0  0  0  0  0  0  0  0  0  0  0
    4.0820   -3.0270   25.2710 O   0  0  0  0  0  0  0  0  0  0  0  0
    6.0080   -3.1050   26.4630 N   0  0  0  0  0  0  0  0  0  0  0  0
    6.1510   -4.1630   27.4020 C   0  0  0  0  0  0  0  0  0  0  0  0
    5.1500   -4.5990   28.3290 C   0  0  0  0  0  0  0  0  0  0  0  0
    5.7910   -5.7580   29.1150 C   0  0  0  0  0  0  0  0  0  0  0  0
    6.4070   -1.7660   26.8190 C   0  0  0  0  0  0  0  0  0  0  0  0
    5.8480   -1.2540   28.1440 C   0  0  0  0  0  0  0  0  0  0  0  0
    4.4770   -0.9360   27.6580 C   0  0  0  0  0  0  0  0  0  0  0  0
    3.7660   -0.3900   28.9040 C   0  0  0  0  0  0  0  0  0  0  0  0
    4.2660   -0.1900   30.3200 C   0  0  0  0  0  0  0  0  0  0  0  0
    3.4820    0.3280   31.3680 O   0  0  0  0  0  0  0  0  0  0  0  0
    2.1140   -0.0350   31.4460 C   0  0  0  0  0  0  0  0  0  0  0  0
    1.7930   -1.4600   30.9590 C   0  0  0  0  0  0  0  0  0  0  0  0
    2.9800   -2.3470   31.1210 C   0  0  0  0  0  0  0  0  0  0  0  0
    5.7310   -0.6180   30.4880 C   0  0  0  0  0  0  0  0  0  0  0  0
    6.2050   -0.4840   31.6070 O   0  0  0  0  0  0  0  0  0  0  0  0
    7.4930    0.0070   31.5600 C   0  0  0  0  0  0  0  0  0  0  0  0
    7.3960    1.3070   30.7950 C   0  0  0  0  0  0  0  0  0  0  0  0
    6.4890   -1.1600   29.3270 C   0  0  0  0  0  0  0  0  0  0  0  0
    7.3050   -3.0100   23.7020 C   0  0  0  0  0  0  0  0  0  0  0  0
    7.6820   -3.1600   22.2340 C   0  0  0  0  0  0  0  0  0  0  0  0
  1  2  1  0
  2  3  2  0
  2  4  1  0
  4  5  1  0
  5  6  1  0
  6  7  1  0
  7  8  1  0
  8  9  2  0
  8 10  1  0
 10 11  1  0
 11 12  1  0
 12 13  1  0
 10 14  1  0
 14 15  1  0
 15 16  2  0
 16 17  1  0
 17 18  2  0
 18 19  1  0
 19 20  1  0
 20 21  1  0
 21 22  1  0
 18 23  1  0
 23 24  1  0
 24 25  1  0
 25 26  1  0
 15 27  1  0
 23 27  2  0
  7 28  1  0
  4 29  1  0
 28 29  1  0
M  END
