piperidine-amides-23275-covalent
     RDKit          3D

 24 26  0  0  0  0  0  0  0  0999 V2000
    7.0970   -3.3130   19.3060 C   0  0  0  0  0  0  0  0  0  0  0  0
    6.4150   -4.1410   20.3140 C   0  0  0  0  0  0  0  0  0  0  0  0
    5.3570   -4.7100   19.9480 O   0  0  0  0  0  0  0  0  0  0  0  0
    6.9500   -4.3470   21.6180 N   0  0  0  0  0  0  0  0  0  0  0  0
    6.5220   -5.4880   22.3330 C   0  0  0  0  0  0  0  0  0  0  0  0
    6.0790   -5.1760   23.6830 C   0  0  0  0  0  0  0  0  0  0  0  0
    6.7400   -4.0000   24.2940 C   0  0  0  0  0  0  0  0  0  0  0  0
    5.9340   -3.5190   25.4690 C   0  0  0  0  0  0  0  0  0  0  0  0
    4.8160   -3.0210   25.2450 O   0  0  0  0  0  0  0  0  0  0  0  0
    6.3640   -3.6070   26.8210 N   0  0  0  0  0  0  0  0  0  0  0  0
    5.7250   -2.9480   27.8670 C   0  0  0  0  0  0  0  0  0  0  0  0
    5.2270   -3.7920   28.9410 C   0  0  0  0  0  0  0  0  0  0  0  0
    5.3040   -5.1400   28.9780 N   0  0  0  0  0  0  0  0  0  0  0  0
    4.9960   -5.8620   30.1790 C   0  0  0  0  0  0  0  0  0  0  0  0
    3.8930   -5.3990   30.8890 C   0  0  0  0  0  0  0  0  0  0  0  0
    3.5520   -6.1760   32.2290 C   0  0  0  0  0  0  0  0  0  0  0  0
    4.3860   -7.3670   32.7190 C   0  0  0  0  0  0  0  0  0  0  0  0
    5.5310   -7.6970   31.7900 C   0  0  0  0  0  0  0  0  0  0  0  0
    5.8260   -6.9800   30.5660 C   0  0  0  0  0  0  0  0  0  0  0  0
    6.0760   -5.7640   28.0630 C   0  0  0  0  0  0  0  0  0  0  0  0
    6.9540   -4.8510   27.2330 C   0  0  1  0  0  0  0  0  0  0  0  0
    7.6690   -5.7040   26.2610 C   0  0  0  0  0  0  0  0  0  0  0  0
    6.9490   -2.8850   23.3140 C   0  0  0  0  0  0  0  0  0  0  0  0
    7.7520   -3.3480   22.2850 C   0  0  0  0  0  0  0  0  0  0  0  0
  1  2  1  0
  2  3  2  0
  2  4  1  0
  4  5  1  0
  5  6  1  0
  6  7  1  0
  7  8  1  0
  8  9  2  0
  8 10  1  0
 10 11  1  0
 11 12  1  0
 12 13  1  0
 13 14  1  0
 14 15  2  0
 15 16  1  0
 16 17  2  0
 17 18  1  0
 14 19  1  0
 18 19  2  0
 13 20  1  0
 10 21  1  0
 20 21  1  0
 21 22  1  6
  7 23  1  0
  4 24  1  0
 23 24  1  0
M  END
