piperidine-amides-28964-covalent
     RDKit          3D

 26 28  0  0  0  0  0  0  0  0999 V2000
    7.1040   -3.2670   19.2330 C   0  0  0  0  0  0  0  0  0  0  0  0
    6.3900   -4.0360   20.2480 C   0  0  0  0  0  0  0  0  0  0  0  0
    5.3300   -4.5970   19.9110 O   0  0  0  0  0  0  0  0  0  0  0  0
    6.9240   -4.1820   21.5520 N   0  0  0  0  0  0  0  0  0  0  0  0
    6.2870   -5.1380   22.3850 C   0  0  0  0  0  0  0  0  0  0  0  0
    5.1970   -4.4080   23.1080 C   0  0  0  0  0  0  0  0  0  0  0  0
    5.8470   -3.3830   24.0240 C   0  0  0  0  0  0  0  0  0  0  0  0
    5.6850   -3.9180   25.4110 C   0  0  0  0  0  0  0  0  0  0  0  0
    5.7840   -5.1230   25.4850 O   0  0  0  0  0  0  0  0  0  0  0  0
    5.3950   -3.1060   26.5060 N   0  0  0  0  0  0  0  0  0  0  0  0
    4.3200   -3.4940   27.3150 C   0  0  0  0  0  0  0  0  0  0  0  0
    4.7120   -4.3010   28.3910 C   0  0  0  0  0  0  0  0  0  0  0  0
    5.6100   -3.7590   29.2570 C   0  0  0  0  0  0  0  0  0  0  0  0
    5.3940   -2.5160   29.8380 C   0  0  0  0  0  0  0  0  0  0  0  0
    6.5630   -1.7690   29.8680 O   0  0  0  0  0  0  0  0  0  0  0  0
    4.1630   -2.0530   30.3340 N   0  0  0  0  0  0  0  0  0  0  0  0
    4.1320   -0.7130   30.9170 C   0  0  0  0  0  0  0  0  0  0  0  0
    2.7420   -0.3650   31.5040 C   0  0  2  0  0  0  0  0  0  0  0  0
    2.9940    0.7480   32.4860 C   0  0  0  0  0  0  0  0  0  0  0  0
    1.8700    0.6510   33.4610 C   0  0  0  0  0  0  0  0  0  0  0  0
    1.3870   -0.7630   33.1720 C   0  0  0  0  0  0  0  0  0  0  0  0
    2.2230   -1.3320   32.2610 O   0  0  0  0  0  0  0  0  0  0  0  0
    6.6520   -3.8330   28.1960 C   0  0  0  0  0  0  0  0  0  0  0  0
    6.4850   -2.7600   27.3130 C   0  0  0  0  0  0  0  0  0  0  0  0
    7.2950   -3.1360   23.6970 C   0  0  0  0  0  0  0  0  0  0  0  0
    7.5810   -3.0850   22.2160 C   0  0  0  0  0  0  0  0  0  0  0  0
  1  2  1  0
  2  3  2  0
  2  4  1  0
  4  5  1  0
  5  6  1  0
  6  7  1  0
  7  8  1  0
  8  9  2  0
  8 10  1  0
 10 11  1  0
 11 12  1  0
 12 13  1  0
 13 14  1  0
 14 15  2  0
 14 16  1  0
 16 17  1  0
 18 17  1  1
 18 19  1  0
 19 20  1  0
 20 21  1  0
 18 22  1  0
 21 22  1  0
 13 23  1  0
 10 24  1  0
 23 24  1  0
  7 25  1  0
  4 26  1  0
 25 26  1  0
M  END
