piperidine-amides-24827-covalent
     RDKit          3D

 24 26  0  0  0  0  0  0  0  0999 V2000
    7.0420   -3.3480   19.3430 C   0  0  0  0  0  0  0  0  0  0  0  0
    6.3910   -4.2240   20.3330 C   0  0  0  0  0  0  0  0  0  0  0  0
    5.3890   -4.8940   19.9960 O   0  0  0  0  0  0  0  0  0  0  0  0
    6.9010   -4.3570   21.6410 N   0  0  0  0  0  0  0  0  0  0  0  0
    6.6230   -5.5880   22.3720 C   0  0  0  0  0  0  0  0  0  0  0  0
    6.3080   -5.2400   23.8450 C   0  0  0  0  0  0  0  0  0  0  0  0
    6.1690   -3.7410   23.9110 C   0  0  0  0  0  0  0  0  0  0  0  0
    5.7030   -3.2200   25.2160 C   0  0  0  0  0  0  0  0  0  0  0  0
    5.0910   -2.1380   25.2000 O   0  0  0  0  0  0  0  0  0  0  0  0
    5.8830   -3.8910   26.4440 N   0  0  0  0  0  0  0  0  0  0  0  0
    4.6510   -4.2100   27.1270 C   0  0  0  0  0  0  0  0  0  0  0  0
    4.8590   -5.3150   28.1390 C   0  0  0  0  0  0  0  0  0  0  0  0
    5.6140   -4.9610   29.1750 C   0  0  0  0  0  0  0  0  0  0  0  0
    6.7040   -4.4970   28.5850 C   0  0  0  0  0  0  0  0  0  0  0  0
    6.3720   -3.4460   27.7350 C   0  0  0  0  0  0  0  0  0  0  0  0
    5.1310   -4.0490   29.9170 O   0  0  0  0  0  0  0  0  0  0  0  0
    4.0200   -4.5870   30.5240 C   0  0  0  0  0  0  0  0  0  0  0  0
    4.2700   -6.0690   30.6470 C   0  0  0  0  0  0  0  0  0  0  0  0
    2.8260   -5.8980   30.2130 C   0  0  0  0  0  0  0  0  0  0  0  0
    4.7770   -6.9370   31.7150 C   0  0  0  0  0  0  0  0  0  0  0  0
    5.1070   -7.0670   30.0570 C   0  0  0  0  0  0  0  0  0  0  0  0
    6.0350   -6.0350   29.8590 O   0  0  0  0  0  0  0  0  0  0  0  0
    7.4770   -3.1350   23.5390 C   0  0  0  0  0  0  0  0  0  0  0  0
    7.6660   -3.2800   22.2060 C   0  0  0  0  0  0  0  0  0  0  0  0
  1  2  1  0
  2  3  2  0
  2  4  1  0
  4  5  1  0
  5  6  1  0
  6  7  1  0
  7  8  1  0
  8  9  2  0
  8 10  1  0
 10 11  1  0
 11 12  1  0
 12 13  1  0
 13 14  1  0
 10 15  1  0
 14 15  1  0
 13 16  1  0
 16 17  1  0
 17 18  1  0
 18 19  1  0
 18 20  1  0
 18 21  1  0
 13 22  1  0
 21 22  1  0
  7 23  1  0
  4 24  1  0
 23 24  1  0
M  END
