piperidine-amides-3356-covalent
     RDKit          3D

 21 23  0  0  0  0  0  0  0  0999 V2000
    7.1100   -3.3590   19.3940 C   0  0  0  0  0  0  0  0  0  0  0  0
    6.3790   -4.1780   20.3510 C   0  0  0  0  0  0  0  0  0  0  0  0
    5.3780   -4.7970   19.9820 O   0  0  0  0  0  0  0  0  0  0  0  0
    6.8610   -4.3040   21.7060 N   0  0  0  0  0  0  0  0  0  0  0  0
    6.5540   -5.4930   22.4730 C   0  0  0  0  0  0  0  0  0  0  0  0
    6.0740   -5.1610   23.8750 C   0  0  0  0  0  0  0  0  0  0  0  0
    6.0970   -3.6530   24.0970 C   0  0  0  0  0  0  0  0  0  0  0  0
    5.5980   -3.2940   25.4610 C   0  0  0  0  0  0  0  0  0  0  0  0
    4.3840   -3.3620   25.7280 O   0  0  0  0  0  0  0  0  0  0  0  0
    6.4810   -2.8570   26.4860 N   0  0  0  0  0  0  0  0  0  0  0  0
    6.4090   -1.4750   26.9220 C   0  0  0  0  0  0  0  0  0  0  0  0
    5.9160   -0.3340   26.0860 C   0  0  0  0  0  0  0  0  0  0  0  0
    5.8840    0.9640   26.5900 C   0  0  0  0  0  0  0  0  0  0  0  0
    6.3180    1.2510   27.8980 C   0  0  0  0  0  0  0  0  0  0  0  0
    6.7810    0.2600   28.7180 C   0  0  0  0  0  0  0  0  0  0  0  0
    6.8330   -1.0530   28.2990 C   0  0  0  0  0  0  0  0  0  0  0  0
    7.2890   -1.7780   29.2930 C   0  0  0  0  0  0  0  0  0  0  0  0
    7.3980   -0.8590   30.3610 C   0  0  0  0  0  0  0  0  0  0  0  0
    7.1790    0.4610   29.8660 O   0  0  0  0  0  0  0  0  0  0  0  0
    7.3360   -2.9720   23.6590 C   0  0  0  0  0  0  0  0  0  0  0  0
    7.6490   -3.2570   22.2660 C   0  0  0  0  0  0  0  0  0  0  0  0
  1  2  1  0
  2  3  2  0
  2  4  1  0
  4  5  1  0
  5  6  1  0
  6  7  1  0
  7  8  1  0
  8  9  2  0
  8 10  1  0
 10 11  1  0
 11 12  2  0
 12 13  1  0
 13 14  2  0
 14 15  1  0
 11 16  1  0
 15 16  2  0
 16 17  1  0
 17 18  1  0
 15 19  1  0
 18 19  1  0
  7 20  1  0
  4 21  1  0
 20 21  1  0
M  END
