piperidine-amides-32984-covalent
     RDKit          3D

 28 31  0  0  0  0  0  0  0  0999 V2000
    6.9960   -3.3550   19.4390 C   0  0  0  0  0  0  0  0  0  0  0  0
    6.3400   -4.2750   20.4170 C   0  0  0  0  0  0  0  0  0  0  0  0
    5.3970   -4.9730   20.0070 O   0  0  0  0  0  0  0  0  0  0  0  0
    6.8070   -4.3730   21.7600 N   0  0  0  0  0  0  0  0  0  0  0  0
    6.6590   -5.5930   22.5370 C   0  0  0  0  0  0  0  0  0  0  0  0
    6.0740   -5.2720   23.9380 C   0  0  0  0  0  0  0  0  0  0  0  0
    5.8940   -3.8020   24.0360 C   0  0  0  0  0  0  0  0  0  0  0  0
    5.1780   -3.2590   25.2540 C   0  0  0  0  0  0  0  0  0  0  0  0
    4.4100   -2.3340   24.9970 O   0  0  0  0  0  0  0  0  0  0  0  0
    5.3180   -3.7320   26.5820 N   0  0  0  0  0  0  0  0  0  0  0  0
    4.3430   -4.0110   27.5400 C   0  0  0  0  0  0  0  0  0  0  0  0
    4.6630   -3.8300   28.8550 C   0  0  0  0  0  0  0  0  0  0  0  0
    5.2760   -2.5180   28.8620 N   0  0  0  0  0  0  0  0  0  0  0  0
    5.4930   -1.7320   29.9970 C   0  0  0  0  0  0  0  0  0  0  0  0
    5.2850   -0.3990   29.7220 C   0  0  0  0  0  0  0  0  0  0  0  0
    4.0290    0.1770   30.1390 N   0  0  0  0  0  0  0  0  0  0  0  0
    3.7810    1.5570   29.8890 C   0  0  0  0  0  0  0  0  0  0  0  0
    2.4760    2.3730   29.9200 C   0  0  0  0  0  0  0  0  0  0  0  0
    2.8740    3.7800   29.5670 C   0  0  0  0  0  0  0  0  0  0  0  0
    4.5510    4.1310   29.2370 S   0  0  0  0  0  0  0  0  0  0  0  0
    4.9800    2.3880   29.5330 C   0  0  0  0  0  0  0  0  0  0  0  0
    6.2910    1.7420   29.4620 C   0  0  0  0  0  0  0  0  0  0  0  0
    7.2930    2.4260   29.7500 O   0  0  0  0  0  0  0  0  0  0  0  0
    6.1700    0.4690   29.0840 N   0  0  0  0  0  0  0  0  0  0  0  0
    6.4970   -2.5130   28.1410 C   0  0  0  0  0  0  0  0  0  0  0  0
    6.5690   -3.4740   27.1800 C   0  0  0  0  0  0  0  0  0  0  0  0
    7.1470   -3.0360   23.7710 C   0  0  0  0  0  0  0  0  0  0  0  0
    7.6100   -3.2990   22.3520 C   0  0  0  0  0  0  0  0  0  0  0  0
  1  2  1  0
  2  3  2  0
  2  4  1  0
  4  5  1  0
  5  6  1  0
  6  7  1  0
  7  8  1  0
  8  9  2  0
  8 10  1  0
 10 11  1  0
 11 12  1  0
 12 13  1  0
 13 14  1  0
 14 15  1  0
 15 16  2  0
 16 17  1  0
 17 18  1  0
 18 19  2  0
 19 20  1  0
 17 21  2  0
 20 21  1  0
 21 22  1  0
 22 23  2  0
 15 24  1  0
 22 24  1  0
 13 25  1  0
 10 26  1  0
 25 26  1  0
  7 27  1  0
  4 28  1  0
 27 28  1  0
M  END
