piperidine-amides-31528-covalent
     RDKit          3D

 28 30  0  0  0  0  0  0  0  0999 V2000
    7.0360   -3.4130   19.3140 C   0  0  0  0  0  0  0  0  0  0  0  0
    6.3670   -4.1700   20.3440 C   0  0  0  0  0  0  0  0  0  0  0  0
    5.3680   -4.8610   19.9870 O   0  0  0  0  0  0  0  0  0  0  0  0
    6.8040   -4.2140   21.6880 N   0  0  0  0  0  0  0  0  0  0  0  0
    6.5680   -5.4730   22.4210 C   0  0  0  0  0  0  0  0  0  0  0  0
    5.7620   -4.8940   23.6460 C   0  0  0  0  0  0  0  0  0  0  0  0
    6.6740   -3.8860   24.3160 C   0  0  0  0  0  0  0  0  0  0  0  0
    5.9480   -3.2410   25.5810 C   0  0  0  0  0  0  0  0  0  0  0  0
    4.7910   -2.9370   25.3090 O   0  0  0  0  0  0  0  0  0  0  0  0
    6.7910   -3.2330   26.5420 N   0  0  0  0  0  0  0  0  0  0  0  0
    7.7770   -3.7200   27.3490 C   0  0  0  0  0  0  0  0  0  0  0  0
    6.6120   -2.0030   27.2430 C   0  0  0  0  0  0  0  0  0  0  0  0
    7.4230   -1.7200   28.3480 C   0  0  0  0  0  0  0  0  0  0  0  0
    7.3780   -0.5020   29.2150 C   0  0  0  0  0  0  0  0  0  0  0  0
    6.2890    0.5510   28.7820 C   0  0  0  0  0  0  0  0  0  0  0  0
    5.5410    0.1460   27.6600 C   0  0  0  0  0  0  0  0  0  0  0  0
    5.7480   -1.0520   27.0100 C   0  0  0  0  0  0  0  0  0  0  0  0
    4.5760   -0.5450   26.1490 C   0  0  0  0  0  0  0  0  0  0  0  0
    5.2540    0.2150   25.4290 O   0  0  0  0  0  0  0  0  0  0  0  0
    3.4750   -0.4480   25.7690 N   0  0  0  0  0  0  0  0  0  0  0  0
    3.0620    0.7880   26.1550 C   0  0  0  0  0  0  0  0  0  0  0  0
    2.5600    0.8530   27.4300 C   0  0  0  0  0  0  0  0  0  0  0  0
    1.8900   -0.2990   27.8010 N   0  0  0  0  0  0  0  0  0  0  0  0
    2.4100   -0.8720   28.9100 C   0  0  0  0  0  0  0  0  0  0  0  0
    1.5450   -1.1360   26.8150 C   0  0  0  0  0  0  0  0  0  0  0  0
    2.5770   -1.5860   26.0130 C   0  0  0  0  0  0  0  0  0  0  0  0
    7.3320   -2.8200   23.5010 C   0  0  0  0  0  0  0  0  0  0  0  0
    7.8050   -3.2950   22.1650 C   0  0  0  0  0  0  0  0  0  0  0  0
  1  2  1  0
  2  3  2  0
  2  4  1  0
  4  5  1  0
  5  6  1  0
  6  7  1  0
  7  8  1  0
  8  9  2  0
  8 10  1  0
 10 11  1  0
 10 12  1  0
 12 13  2  0
 13 14  1  0
 14 15  2  0
 15 16  1  0
 12 17  1  0
 16 17  2  0
 17 18  1  0
 18 19  2  0
 18 20  1  0
 20 21  1  0
 21 22  1  0
 22 23  1  0
 23 24  1  0
 23 25  1  0
 20 26  1  0
 25 26  1  0
  7 27  1  0
  4 28  1  0
 27 28  1  0
M  END
