piperidine-amides-3667-covalent
     RDKit          3D

 26 28  0  0  0  0  0  0  0  0999 V2000
    7.0920   -3.2930   19.2540 C   0  0  0  0  0  0  0  0  0  0  0  0
    6.3720   -4.0910   20.2620 C   0  0  0  0  0  0  0  0  0  0  0  0
    5.2920   -4.6130   19.9040 O   0  0  0  0  0  0  0  0  0  0  0  0
    6.9020   -4.3120   21.5600 N   0  0  0  0  0  0  0  0  0  0  0  0
    7.6060   -3.2350   22.1790 C   0  0  0  0  0  0  0  0  0  0  0  0
    7.2140   -2.9350   23.5510 C   0  0  0  0  0  0  0  0  0  0  0  0
    6.4220   -3.9860   24.2120 C   0  0  0  0  0  0  0  0  0  0  0  0
    5.6970   -3.4430   25.4140 C   0  0  0  0  0  0  0  0  0  0  0  0
    4.4490   -3.3610   25.4450 O   0  0  0  0  0  0  0  0  0  0  0  0
    6.4290   -3.0270   26.5440 N   0  0  0  0  0  0  0  0  0  0  0  0
    6.4350   -1.8030   27.2600 C   0  0  0  0  0  0  0  0  0  0  0  0
    7.0230   -1.5970   28.5600 C   0  0  0  0  0  0  0  0  0  0  0  0
    6.9590   -0.2150   29.2350 C   0  0  0  0  0  0  0  0  0  0  0  0
    6.3560    0.9170   28.6830 C   0  0  0  0  0  0  0  0  0  0  0  0
    6.2560    2.1810   29.2270 O   0  0  0  0  0  0  0  0  0  0  0  0
    5.7540    0.6100   27.2970 C   0  0  0  0  0  0  0  0  0  0  0  0
    5.1050    1.7120   26.6530 N   0  0  0  0  0  0  0  0  0  0  0  0
    3.8620    1.1900   26.0820 C   0  0  0  0  0  0  0  0  0  0  0  0
    3.1380    1.9390   27.1980 C   0  0  0  0  0  0  0  0  0  0  0  0
    1.8930    2.7480   26.9230 C   0  0  0  0  0  0  0  0  0  0  0  0
    3.0380    1.1330   28.4830 C   0  0  0  0  0  0  0  0  0  0  0  0
    4.3370    2.7990   27.1460 C   0  0  0  0  0  0  0  0  0  0  0  0
    4.6380    3.9950   27.4050 O   0  0  0  0  0  0  0  0  0  0  0  0
    5.7850   -0.6280   26.6350 C   0  0  0  0  0  0  0  0  0  0  0  0
    5.5480   -4.7630   23.2900 C   0  0  0  0  0  0  0  0  0  0  0  0
    6.3630   -5.3730   22.3570 C   0  0  0  0  0  0  0  0  0  0  0  0
  1  2  1  0
  2  3  2  0
  2  4  1  0
  4  5  1  0
  5  6  1  0
  6  7  1  0
  7  8  1  0
  8  9  2  0
  8 10  1  0
 10 11  1  0
 11 12  2  0
 12 13  1  0
 13 14  2  0
 14 15  1  0
 14 16  1  0
 16 17  1  0
 17 18  1  0
 18 19  1  0
 19 20  1  0
 19 21  1  0
 17 22  1  0
 19 22  1  0
 22 23  2  0
 11 24  1  0
 16 24  2  0
  7 25  1  0
  4 26  1  0
 25 26  1  0
M  END
