piperidine-amides-26808-covalent
     RDKit          3D

 25 27  0  0  0  0  0  0  0  0999 V2000
    7.0220   -3.3870   19.4130 C   0  0  0  0  0  0  0  0  0  0  0  0
    6.3250   -4.2340   20.3840 C   0  0  0  0  0  0  0  0  0  0  0  0
    5.3100   -4.8400   19.9670 O   0  0  0  0  0  0  0  0  0  0  0  0
    6.8160   -4.3790   21.6820 N   0  0  0  0  0  0  0  0  0  0  0  0
    6.6560   -5.6280   22.4060 C   0  0  0  0  0  0  0  0  0  0  0  0
    5.9980   -5.3330   23.7280 C   0  0  0  0  0  0  0  0  0  0  0  0
    5.9350   -3.8550   23.9510 C   0  0  0  0  0  0  0  0  0  0  0  0
    5.5120   -3.4820   25.3320 C   0  0  0  0  0  0  0  0  0  0  0  0
    4.7840   -2.4760   25.4330 O   0  0  0  0  0  0  0  0  0  0  0  0
    5.8380   -4.1500   26.5360 N   0  0  0  0  0  0  0  0  0  0  0  0
    5.6830   -3.4340   27.7900 C   0  0  0  0  0  0  0  0  0  0  0  0
    5.1810   -4.3170   28.9390 C   0  0  0  0  0  0  0  0  0  0  0  0
    5.9050   -5.6030   28.9620 N   0  0  0  0  0  0  0  0  0  0  0  0
    5.6920   -6.5160   29.9070 C   0  0  0  0  0  0  0  0  0  0  0  0
    6.2780   -7.7990   30.0240 O   0  0  0  0  0  0  0  0  0  0  0  0
    4.8470   -6.3320   30.9490 N   0  0  0  0  0  0  0  0  0  0  0  0
    4.9760   -7.0500   32.0940 C   0  0  0  0  0  0  0  0  0  0  0  0
    3.8450   -7.8490   32.1150 C   0  0  0  0  0  0  0  0  0  0  0  0
    2.6610   -7.1660   32.2790 C   0  0  0  0  0  0  0  0  0  0  0  0
    2.6110   -5.8880   31.7800 C   0  0  0  0  0  0  0  0  0  0  0  0
    3.6830   -5.5300   30.7730 C   0  0  0  0  0  0  0  0  0  0  0  0
    6.6830   -5.9870   27.8550 C   0  0  0  0  0  0  0  0  0  0  0  0
    6.9980   -4.7320   27.1210 C   0  0  0  0  0  0  0  0  0  0  0  0
    7.2750   -3.2630   23.6700 C   0  0  0  0  0  0  0  0  0  0  0  0
    7.5930   -3.3160   22.3340 C   0  0  0  0  0  0  0  0  0  0  0  0
  1  2  1  0
  2  3  2  0
  2  4  1  0
  4  5  1  0
  5  6  1  0
  6  7  1  0
  7  8  1  0
  8  9  2  0
  8 10  1  0
 10 11  1  0
 11 12  1  0
 12 13  1  0
 13 14  1  0
 14 15  2  0
 14 16  1  0
 16 17  1  0
 17 18  1  0
 18 19  1  0
 19 20  1  0
 16 21  1  0
 20 21  1  0
 13 22  1  0
 10 23  1  0
 22 23  1  0
  7 24  1  0
  4 25  1  0
 24 25  1  0
M  END
