piperidine-amides-33591-covalent
     RDKit          3D

 27 29  0  0  0  0  0  0  0  0999 V2000
    7.0100   -3.3710   19.3970 C   0  0  0  0  0  0  0  0  0  0  0  0
    6.3770   -4.2430   20.4020 C   0  0  0  0  0  0  0  0  0  0  0  0
    5.3880   -4.9020   20.0000 O   0  0  0  0  0  0  0  0  0  0  0  0
    6.8800   -4.3750   21.7330 N   0  0  0  0  0  0  0  0  0  0  0  0
    7.5130   -3.2610   22.3540 C   0  0  0  0  0  0  0  0  0  0  0  0
    7.1140   -3.0040   23.7500 C   0  0  0  0  0  0  0  0  0  0  0  0
    6.1640   -3.9740   24.3720 C   0  0  0  0  0  0  0  0  0  0  0  0
    5.1730   -3.2810   25.3190 C   0  0  0  0  0  0  0  0  0  0  0  0
    4.3370   -2.5080   24.8380 O   0  0  0  0  0  0  0  0  0  0  0  0
    5.1770   -3.4900   26.7360 N   0  0  0  0  0  0  0  0  0  0  0  0
    4.3240   -3.0310   27.7430 C   0  0  0  0  0  0  0  0  0  0  0  0
    4.4260   -3.7060   29.0320 C   0  0  0  0  0  0  0  0  0  0  0  0
    5.3380   -4.6410   29.2770 N   0  0  0  0  0  0  0  0  0  0  0  0
    5.1250   -6.0720   29.2110 C   0  0  0  0  0  0  0  0  0  0  0  0
    5.3340   -6.6620   27.9850 O   0  0  0  0  0  0  0  0  0  0  0  0
    4.7070   -6.7880   30.3200 C   0  0  0  0  0  0  0  0  0  0  0  0
    3.2280   -6.8740   29.9010 C   0  0  0  0  0  0  0  0  0  0  0  0
    2.3730   -7.6290   30.9210 C   0  0  0  0  0  0  0  0  0  0  0  0
    3.1590   -8.1470   32.1540 C   0  0  0  0  0  0  0  0  0  0  0  0
    2.1600   -9.0000   33.3040 Cl  0  0  0  0  0  0  0  0  0  0  0  0
    4.6200   -8.0010   32.4580 C   0  0  0  0  0  0  0  0  0  0  0  0
    5.2880   -8.6730   33.9240 Cl  0  0  0  0  0  0  0  0  0  0  0  0
    5.3510   -7.2580   31.4020 C   0  0  0  0  0  0  0  0  0  0  0  0
    6.4960   -4.1730   28.6260 C   0  0  0  0  0  0  0  0  0  0  0  0
    6.3450   -4.0710   27.1470 C   0  0  0  0  0  0  0  0  0  0  0  0
    5.4490   -4.8530   23.3810 C   0  0  0  0  0  0  0  0  0  0  0  0
    6.4230   -5.4340   22.5800 C   0  0  0  0  0  0  0  0  0  0  0  0
  1  2  1  0
  2  3  2  0
  2  4  1  0
  4  5  1  0
  5  6  1  0
  6  7  1  0
  7  8  1  0
  8  9  2  0
  8 10  1  0
 10 11  1  0
 11 12  1  0
 12 13  1  0
 13 14  1  0
 14 15  2  0
 14 16  1  0
 16 17  2  0
 17 18  1  0
 18 19  2  0
 19 20  1  0
 19 21  1  0
 21 22  1  0
 16 23  1  0
 21 23  2  0
 13 24  1  0
 10 25  1  0
 24 25  1  0
  7 26  1  0
  4 27  1  0
 26 27  1  0
M  END
