piperidine-amides-1407-covalent
     RDKit          3D

 22 23  0  0  0  0  0  0  0  0999 V2000
    7.0720   -3.3210   19.3480 C   0  0  0  0  0  0  0  0  0  0  0  0
    6.3140   -4.1180   20.3530 C   0  0  0  0  0  0  0  0  0  0  0  0
    5.3360   -4.7800   19.9650 O   0  0  0  0  0  0  0  0  0  0  0  0
    6.7510   -4.1350   21.7010 N   0  0  0  0  0  0  0  0  0  0  0  0
    7.6430   -3.1100   22.2090 C   0  0  0  0  0  0  0  0  0  0  0  0
    7.4670   -3.0680   23.7290 C   0  0  0  0  0  0  0  0  0  0  0  0
    6.1100   -3.6180   23.9790 C   0  0  0  0  0  0  0  0  0  0  0  0
    5.5530   -3.3710   25.3440 C   0  0  0  0  0  0  0  0  0  0  0  0
    4.3260   -3.2600   25.3960 O   0  0  0  0  0  0  0  0  0  0  0  0
    6.3650   -3.2590   26.4860 N   0  0  0  0  0  0  0  0  0  0  0  0
    6.2620   -4.0020   27.7130 C   0  0  2  0  0  0  0  0  0  0  0  0
    6.0040   -5.3560   27.7940 C   0  0  0  0  0  0  0  0  0  0  0  0
    5.2920   -3.3090   28.6590 C   0  0  0  0  0  0  0  0  0  0  0  0
    3.9920   -3.7270   28.7940 C   0  0  0  0  0  0  0  0  0  0  0  0
    3.0620   -3.0630   29.7120 C   0  0  0  0  0  0  0  0  0  0  0  0
    3.5790   -1.8910   30.5160 C   0  0  0  0  0  0  0  0  0  0  0  0
    2.4980   -1.3070   31.4280 C   0  0  0  0  0  0  0  0  0  0  0  0
    4.9060   -1.4730   30.3680 C   0  0  0  0  0  0  0  0  0  0  0  0
    5.4110   -0.4140   31.0770 F   0  0  0  0  0  0  0  0  0  0  0  0
    5.7790   -2.2250   29.3970 C   0  0  0  0  0  0  0  0  0  0  0  0
    5.9400   -5.0680   23.6270 C   0  0  0  0  0  0  0  0  0  0  0  0
    6.6560   -5.3460   22.4760 C   0  0  0  0  0  0  0  0  0  0  0  0
  1  2  1  0
  2  3  2  0
  2  4  1  0
  4  5  1  0
  5  6  1  0
  6  7  1  0
  7  8  1  0
  8  9  2  0
  8 10  1  0
 10 11  1  0
 11 12  1  6
 11 13  1  0
 13 14  2  0
 14 15  1  0
 15 16  2  0
 16 17  1  0
 16 18  1  0
 18 19  1  0
 13 20  1  0
 18 20  2  0
  7 21  1  0
  4 22  1  0
 21 22  1  0
M  END
