piperidine-amides-131-covalent
     RDKit          3D

 20 21  0  0  0  0  0  0  0  0999 V2000
    7.1140   -3.3060   19.3840 C   0  0  0  0  0  0  0  0  0  0  0  0
    6.4070   -4.1080   20.3570 C   0  0  0  0  0  0  0  0  0  0  0  0
    5.4150   -4.8060   19.9710 O   0  0  0  0  0  0  0  0  0  0  0  0
    6.8020   -4.1620   21.7080 N   0  0  0  0  0  0  0  0  0  0  0  0
    7.6080   -3.0240   22.2320 C   0  0  0  0  0  0  0  0  0  0  0  0
    7.5870   -3.2590   23.7970 C   0  0  0  0  0  0  0  0  0  0  0  0
    6.1900   -3.7320   24.1190 C   0  0  0  0  0  0  0  0  0  0  0  0
    5.8160   -3.6920   25.6690 C   0  0  0  0  0  0  0  0  0  0  0  0
    5.4700   -4.8000   26.0160 O   0  0  0  0  0  0  0  0  0  0  0  0
    5.9220   -2.5310   26.1740 N   0  0  0  0  0  0  0  0  0  0  0  0
    5.9380   -1.3100   26.7880 C   0  0  2  0  0  0  0  0  0  0  0  0
    5.9670    0.0250   26.4150 C   0  0  0  0  0  0  0  0  0  0  0  0
    6.1000    0.9630   27.4600 C   0  0  0  0  0  0  0  0  0  0  0  0
    6.9180    0.3330   28.3630 O   0  0  0  0  0  0  0  0  0  0  0  0
    6.8760   -0.9870   27.9850 C   0  0  1  0  0  0  0  0  0  0  0  0
    6.5490   -1.7700   29.2540 C   0  0  0  0  0  0  0  0  0  0  0  0
    6.6330   -0.8880   30.4100 N   0  0  0  0  0  0  0  0  0  0  0  0
    6.2270   -2.9760   29.3510 O   0  0  0  0  0  0  0  0  0  0  0  0
    5.7500   -5.0380   23.4850 C   0  0  0  0  0  0  0  0  0  0  0  0
    6.6460   -5.3710   22.4680 C   0  0  0  0  0  0  0  0  0  0  0  0
  1  2  1  0
  2  3  2  0
  2  4  1  0
  4  5  1  0
  5  6  1  0
  6  7  1  0
  7  8  1  0
  8  9  2  0
  8 10  1  0
 11 10  1  6
 11 12  1  0
 12 13  1  0
 13 14  1  0
 11 15  1  0
 14 15  1  0
 15 16  1  1
 16 17  1  0
 16 18  2  0
  7 19  1  0
  4 20  1  0
 19 20  1  0
M  END
