piperidine-amides-33874-covalent
     RDKit          3D

 30 33  0  0  0  0  0  0  0  0999 V2000
    7.0760   -3.3660   19.3430 C   0  0  0  0  0  0  0  0  0  0  0  0
    6.4300   -4.2230   20.3440 C   0  0  0  0  0  0  0  0  0  0  0  0
    5.3770   -4.8000   19.9790 O   0  0  0  0  0  0  0  0  0  0  0  0
    7.0040   -4.4460   21.6280 N   0  0  0  0  0  0  0  0  0  0  0  0
    6.4990   -5.5220   22.3930 C   0  0  0  0  0  0  0  0  0  0  0  0
    5.7780   -5.1160   23.6030 C   0  0  0  0  0  0  0  0  0  0  0  0
    6.2930   -3.9280   24.3310 C   0  0  0  0  0  0  0  0  0  0  0  0
    5.2940   -3.4300   25.3550 C   0  0  0  0  0  0  0  0  0  0  0  0
    4.3530   -2.7370   24.9510 O   0  0  0  0  0  0  0  0  0  0  0  0
    5.3820   -3.7000   26.7460 N   0  0  0  0  0  0  0  0  0  0  0  0
    6.4280   -3.3900   27.5290 C   0  0  0  0  0  0  0  0  0  0  0  0
    6.7970   -4.4380   28.4440 C   0  0  0  0  0  0  0  0  0  0  0  0
    5.5920   -4.5470   29.3330 C   0  0  0  0  0  0  0  0  0  0  0  0
    4.3800   -4.6280   28.6550 C   0  0  2  0  0  0  0  0  0  0  0  0
    4.7530   -6.0740   28.2620 C   0  0  0  0  0  0  0  0  0  0  0  0
    3.7600   -6.6390   29.2410 C   0  0  0  0  0  0  0  0  0  0  0  0
    3.9980   -7.2760   30.3630 N   0  0  0  0  0  0  0  0  0  0  0  0
    2.7930   -7.5640   30.8430 C   0  0  0  0  0  0  0  0  0  0  0  0
    2.5250   -8.3110   32.1390 C   0  0  0  0  0  0  0  0  0  0  0  0
    1.1790   -8.9720   31.8830 C   0  0  0  0  0  0  0  0  0  0  0  0
    0.3930   -9.1890   33.1920 C   0  0  0  0  0  0  0  0  0  0  0  0
    1.2070  -10.0730   34.0720 C   0  0  0  0  0  0  0  0  0  0  0  0
    2.2680   -9.4550   34.7480 C   0  0  0  0  0  0  0  0  0  0  0  0
    2.2990   -8.0760   34.6780 C   0  0  0  0  0  0  0  0  0  0  0  0
    2.4500   -7.5380   33.2730 C   0  0  0  0  0  0  0  0  0  0  0  0
    1.7810   -7.1010   30.0180 N   0  0  0  0  0  0  0  0  0  0  0  0
    2.3960   -6.4970   28.9730 O   0  0  0  0  0  0  0  0  0  0  0  0
    4.2190   -3.6870   27.6090 C   0  0  0  0  0  0  0  0  0  0  0  0
    6.6410   -2.8310   23.3460 C   0  0  0  0  0  0  0  0  0  0  0  0
    7.6290   -3.3490   22.3220 C   0  0  0  0  0  0  0  0  0  0  0  0
  1  2  1  0
  2  3  2  0
  2  4  1  0
  4  5  1  0
  5  6  1  0
  6  7  1  0
  7  8  1  0
  8  9  2  0
  8 10  1  0
 10 11  1  0
 11 12  1  0
 12 13  1  0
 13 14  1  0
 14 15  1  6
 15 16  1  0
 16 17  2  0
 17 18  1  0
 18 19  1  0
 19 20  1  0
 20 21  1  0
 21 22  1  0
 22 23  1  0
 23 24  1  0
 19 25  1  0
 24 25  1  0
 18 26  2  0
 16 27  1  0
 26 27  1  0
 10 28  1  0
 14 28  1  0
  7 29  1  0
  4 30  1  0
 29 30  1  0
M  END
