piperidine-amides-3777-covalent
     RDKit          3D

 21 23  0  0  0  0  0  0  0  0999 V2000
    7.1580   -3.2730   19.2160 C   0  0  0  0  0  0  0  0  0  0  0  0
    6.4060   -4.0300   20.2270 C   0  0  0  0  0  0  0  0  0  0  0  0
    5.3040   -4.5150   19.8750 O   0  0  0  0  0  0  0  0  0  0  0  0
    6.9360   -4.2580   21.5190 N   0  0  0  0  0  0  0  0  0  0  0  0
    7.6270   -3.1740   22.1250 C   0  0  0  0  0  0  0  0  0  0  0  0
    7.1280   -2.7860   23.4370 C   0  0  0  0  0  0  0  0  0  0  0  0
    6.4390   -3.8320   24.2260 C   0  0  0  0  0  0  0  0  0  0  0  0
    5.7600   -3.2170   25.4160 C   0  0  0  0  0  0  0  0  0  0  0  0
    4.6400   -3.6420   25.7540 O   0  0  0  0  0  0  0  0  0  0  0  0
    6.3490   -2.1570   26.1410 N   0  0  0  0  0  0  0  0  0  0  0  0
    6.5360   -2.0230   27.5410 C   0  0  0  0  0  0  0  0  0  0  0  0
    5.5650   -1.4310   28.4630 C   0  0  2  0  0  0  0  0  0  0  0  0
    4.1740   -1.5280   27.8080 C   0  0  0  0  0  0  0  0  0  0  0  0
    3.1970   -0.5270   27.8660 C   0  0  0  0  0  0  0  0  0  0  0  0
    3.6830    0.7110   28.6660 C   0  0  1  0  0  0  0  0  0  0  0  0
    4.4310   -0.1920   29.6680 C   0  0  0  0  0  0  0  0  0  0  0  0
    5.7680   -0.0830   28.9570 C   0  0  2  0  0  0  0  0  0  0  0  0
    5.8120    0.9870   27.9710 C   0  0  0  0  0  0  0  0  0  0  0  0
    4.5420    1.5180   27.8580 O   0  0  0  0  0  0  0  0  0  0  0  0
    5.5100   -4.6850   23.3930 C   0  0  0  0  0  0  0  0  0  0  0  0
    6.3740   -5.3140   22.2980 C   0  0  0  0  0  0  0  0  0  0  0  0
  1  2  1  0
  2  3  2  0
  2  4  1  0
  4  5  1  0
  5  6  1  0
  6  7  1  0
  7  8  1  0
  8  9  2  0
  8 10  1  0
 10 11  1  0
 12 11  1  6
 12 13  1  0
 13 14  2  0
 15 14  1  6
 15 16  1  0
 12 17  1  0
 16 17  1  0
 17 18  1  6
 15 19  1  0
 18 19  1  0
  7 20  1  0
  4 21  1  0
 20 21  1  0
M  END
