piperidine-amides-10098-covalent
     RDKit          3D

 25 26  0  0  0  0  0  0  0  0999 V2000
    7.1740   -3.2490   19.1600 C   0  0  0  0  0  0  0  0  0  0  0  0
    6.4100   -3.9630   20.1790 C   0  0  0  0  0  0  0  0  0  0  0  0
    5.2900   -4.4280   19.8400 O   0  0  0  0  0  0  0  0  0  0  0  0
    6.9640   -4.1590   21.4400 N   0  0  0  0  0  0  0  0  0  0  0  0
    7.7620   -3.1470   22.0960 C   0  0  0  0  0  0  0  0  0  0  0  0
    7.0450   -2.6880   23.3330 C   0  0  0  0  0  0  0  0  0  0  0  0
    6.4940   -3.8530   24.1050 C   0  0  0  0  0  0  0  0  0  0  0  0
    5.7640   -3.3450   25.2820 C   0  0  0  0  0  0  0  0  0  0  0  0
    4.7120   -2.6970   25.0970 O   0  0  0  0  0  0  0  0  0  0  0  0
    6.2030   -3.5580   26.6000 N   0  0  0  0  0  0  0  0  0  0  0  0
    5.5200   -4.4650   27.4860 C   0  0  1  0  0  0  0  0  0  0  0  0
    4.6010   -5.3820   26.6820 C   0  0  0  0  0  0  0  0  0  0  0  0
    4.9900   -6.0530   25.5540 C   0  0  0  0  0  0  0  0  0  0  0  0
    4.1060   -6.8710   24.8860 C   0  0  0  0  0  0  0  0  0  0  0  0
    2.8060   -7.0770   25.2760 C   0  0  0  0  0  0  0  0  0  0  0  0
    1.9930   -7.8980   24.5670 F   0  0  0  0  0  0  0  0  0  0  0  0
    2.3880   -6.4090   26.4100 C   0  0  0  0  0  0  0  0  0  0  0  0
    0.7510   -6.5830   27.0140 Cl  0  0  0  0  0  0  0  0  0  0  0  0
    3.2870   -5.5880   27.0780 C   0  0  0  0  0  0  0  0  0  0  0  0
    6.3170   -5.1190   28.4150 C   0  0  0  0  0  0  0  0  0  0  0  0
    7.2240   -4.2140   28.8610 F   0  0  0  0  0  0  0  0  0  0  0  0
    6.9080   -6.2550   27.8780 F   0  0  0  0  0  0  0  0  0  0  0  0
    5.5880   -5.5820   29.5000 F   0  0  0  0  0  0  0  0  0  0  0  0
    5.5860   -4.6770   23.2620 C   0  0  0  0  0  0  0  0  0  0  0  0
    6.4030   -5.2880   22.1610 C   0  0  0  0  0  0  0  0  0  0  0  0
  1  2  1  0
  2  3  2  0
  2  4  1  0
  4  5  1  0
  5  6  1  0
  6  7  1  0
  7  8  1  0
  8  9  2  0
  8 10  1  0
 11 10  1  6
 11 12  1  0
 12 13  2  0
 13 14  1  0
 14 15  2  0
 15 16  1  0
 15 17  1  0
 17 18  1  0
 12 19  1  0
 17 19  2  0
 11 20  1  0
 20 21  1  0
 20 22  1  0
 20 23  1  0
  7 24  1  0
  4 25  1  0
 24 25  1  0
M  END
