piperidine-amides-2469-covalent
     RDKit          3D

 26 27  0  0  0  0  0  0  0  0999 V2000
    7.0440   -3.3290   19.2770 C   0  0  0  0  0  0  0  0  0  0  0  0
    6.3660   -4.1620   20.3020 C   0  0  0  0  0  0  0  0  0  0  0  0
    5.3530   -4.7650   19.9540 O   0  0  0  0  0  0  0  0  0  0  0  0
    6.9060   -4.2720   21.5860 N   0  0  0  0  0  0  0  0  0  0  0  0
    7.7210   -3.2350   22.1810 C   0  0  0  0  0  0  0  0  0  0  0  0
    6.9800   -2.6270   23.3300 C   0  0  0  0  0  0  0  0  0  0  0  0
    6.5610   -3.7590   24.2460 C   0  0  0  0  0  0  0  0  0  0  0  0
    5.7960   -3.1690   25.3630 C   0  0  0  0  0  0  0  0  0  0  0  0
    4.6280   -2.8000   25.1780 O   0  0  0  0  0  0  0  0  0  0  0  0
    6.3850   -3.0470   26.6360 N   0  0  0  0  0  0  0  0  0  0  0  0
    6.4300   -1.7680   27.3170 C   0  0  0  0  0  0  0  0  0  0  0  0
    5.8380   -0.6280   26.6380 C   0  0  0  0  0  0  0  0  0  0  0  0
    5.8070    0.5840   27.1530 C   0  0  0  0  0  0  0  0  0  0  0  0
    6.3680    0.7410   28.3880 C   0  0  0  0  0  0  0  0  0  0  0  0
    6.9960   -0.2270   29.2200 C   0  0  0  0  0  0  0  0  0  0  0  0
    7.6060    0.0060   30.5900 C   0  0  0  0  0  0  0  0  0  0  0  0
    8.8900    0.4650   30.7350 O   0  0  0  0  0  0  0  0  0  0  0  0
    6.7310   -0.2990   31.5720 N   0  0  0  0  0  0  0  0  0  0  0  0
    5.5690    0.3670   31.4170 C   0  0  0  0  0  0  0  0  0  0  0  0
    7.5030    0.3800   32.6000 C   0  0  0  0  0  0  0  0  0  0  0  0
    7.5470    1.8720   32.5040 C   0  0  0  0  0  0  0  0  0  0  0  0
    6.5570    2.6970   32.0650 N   0  0  0  0  0  0  0  0  0  0  0  0
    8.6100    2.4370   32.8740 O   0  0  0  0  0  0  0  0  0  0  0  0
    7.0490   -1.6630   28.6400 C   0  0  0  0  0  0  0  0  0  0  0  0
    5.8860   -4.9110   23.5980 C   0  0  0  0  0  0  0  0  0  0  0  0
    6.6040   -5.4250   22.4000 C   0  0  0  0  0  0  0  0  0  0  0  0
  1  2  1  0
  2  3  2  0
  2  4  1  0
  4  5  1  0
  5  6  1  0
  6  7  1  0
  7  8  1  0
  8  9  2  0
  8 10  1  0
 10 11  1  0
 11 12  2  0
 12 13  1  0
 13 14  2  0
 14 15  1  0
 15 16  1  0
 16 17  2  0
 16 18  1  0
 18 19  1  0
 18 20  1  0
 20 21  1  0
 21 22  1  0
 21 23  2  0
 11 24  1  0
 15 24  2  0
  7 25  1  0
  4 26  1  0
 25 26  1  0
M  END
