piperidine-amides-8751-covalent
     RDKit          3D

 23 24  0  0  0  0  0  0  0  0999 V2000
    7.1470   -3.3000   19.2320 C   0  0  0  0  0  0  0  0  0  0  0  0
    6.3730   -4.0390   20.2210 C   0  0  0  0  0  0  0  0  0  0  0  0
    5.2770   -4.5100   19.8750 O   0  0  0  0  0  0  0  0  0  0  0  0
    6.9130   -4.2620   21.5090 N   0  0  0  0  0  0  0  0  0  0  0  0
    7.6210   -3.1960   22.1540 C   0  0  0  0  0  0  0  0  0  0  0  0
    6.7640   -2.6350   23.2490 C   0  0  0  0  0  0  0  0  0  0  0  0
    6.5790   -3.7320   24.2740 C   0  0  0  0  0  0  0  0  0  0  0  0
    5.7850   -3.2170   25.4340 C   0  0  0  0  0  0  0  0  0  0  0  0
    4.6130   -2.9330   25.2000 O   0  0  0  0  0  0  0  0  0  0  0  0
    6.4080   -3.0950   26.6720 N   0  0  0  0  0  0  0  0  0  0  0  0
    6.1640   -4.0160   27.7440 C   0  0  0  0  0  0  0  0  0  0  0  0
    6.0590   -5.3620   27.3540 C   0  0  0  0  0  0  0  0  0  0  0  0
    4.8190   -5.8430   27.9660 N   0  0  0  0  0  0  0  0  0  0  0  0
    3.8680   -6.7640   27.5460 C   0  0  0  0  0  0  0  0  0  0  0  0
    3.3640   -6.8510   26.2710 O   0  0  0  0  0  0  0  0  0  0  0  0
    3.4590   -7.5930   28.5120 N   0  0  0  0  0  0  0  0  0  0  0  0
    3.6820   -6.8570   29.6230 C   0  0  0  0  0  0  0  0  0  0  0  0
    2.7350   -5.7870   30.0680 C   0  0  0  0  0  0  0  0  0  0  0  0
    4.0420   -7.7430   30.5900 C   0  0  0  0  0  0  0  0  0  0  0  0
    4.9510   -6.3420   29.2860 C   0  0  0  0  0  0  0  0  0  0  0  0
    6.1020   -6.3160   30.0410 O   0  0  0  0  0  0  0  0  0  0  0  0
    5.9720   -4.9490   23.6630 C   0  0  0  0  0  0  0  0  0  0  0  0
    6.4130   -5.3810   22.2540 C   0  0  0  0  0  0  0  0  0  0  0  0
  1  2  1  0
  2  3  2  0
  2  4  1  0
  4  5  1  0
  5  6  1  0
  6  7  1  0
  7  8  1  0
  8  9  2  0
  8 10  1  0
 10 11  1  0
 11 12  1  0
 12 13  1  0
 13 14  1  0
 14 15  2  0
 14 16  1  0
 16 17  1  0
 17 18  1  0
 17 19  1  0
 13 20  1  0
 17 20  1  0
 20 21  2  0
  7 22  1  0
  4 23  1  0
 22 23  1  0
M  END
