piperidine-amides-30449-covalent
     RDKit          3D

 27 28  0  0  0  0  0  0  0  0999 V2000
    7.0690   -3.3360   19.3270 C   0  0  0  0  0  0  0  0  0  0  0  0
    6.3980   -4.1530   20.3400 C   0  0  0  0  0  0  0  0  0  0  0  0
    5.4140   -4.8350   19.9920 O   0  0  0  0  0  0  0  0  0  0  0  0
    6.8720   -4.2190   21.6670 N   0  0  0  0  0  0  0  0  0  0  0  0
    7.8010   -3.2290   22.2050 C   0  0  0  0  0  0  0  0  0  0  0  0
    7.3700   -2.9360   23.6130 C   0  0  0  0  0  0  0  0  0  0  0  0
    6.0420   -3.5580   23.8680 C   0  0  0  0  0  0  0  0  0  0  0  0
    5.3740   -3.1600   25.1330 C   0  0  0  0  0  0  0  0  0  0  0  0
    4.1090   -3.1520   25.1640 O   0  0  0  0  0  0  0  0  0  0  0  0
    6.0050   -2.7750   26.3420 N   0  0  0  0  0  0  0  0  0  0  0  0
    6.0570   -3.8460   27.3630 C   0  0  0  0  0  0  0  0  0  0  0  0
    6.7970   -3.4730   28.5900 C   0  0  0  0  0  0  0  0  0  0  0  0
    7.3340   -2.0770   28.7680 C   0  0  0  0  0  0  0  0  0  0  0  0
    6.9510   -1.3370   27.8580 O   0  0  0  0  0  0  0  0  0  0  0  0
    8.1440   -1.5990   29.6820 O   0  0  0  0  0  0  0  0  0  0  0  0
    7.9170   -0.4630   30.4820 C   0  0  0  0  0  0  0  0  0  0  0  0
    5.9270   -1.4120   26.8740 C   0  0  0  0  0  0  0  0  0  0  0  0
    6.3230   -0.3940   25.9540 C   0  0  0  0  0  0  0  0  0  0  0  0
    6.2500    0.8080   26.4480 C   0  0  0  0  0  0  0  0  0  0  0  0
    5.8270    1.0970   27.7870 N   0  0  0  0  0  0  0  0  0  0  0  0
    5.3770    0.2270   28.9000 C   0  0  0  0  0  0  0  0  0  0  0  0
    5.4870   -1.1810   28.1780 C   0  0  0  0  0  0  0  0  0  0  0  0
    5.0650   -2.2230   29.0310 N   0  0  0  0  0  0  0  0  0  0  0  0
    5.3050   -2.1600   30.2230 O   0  0  0  0  0  0  0  0  0  0  0  0
    3.8780   -2.8650   28.7250 O   0  0  0  0  0  0  0  0  0  0  0  0
    6.0330   -5.0600   23.7480 C   0  0  0  0  0  0  0  0  0  0  0  0
    6.6880   -5.4360   22.4400 C   0  0  0  0  0  0  0  0  0  0  0  0
  1  2  1  0
  2  3  2  0
  2  4  1  0
  4  5  1  0
  5  6  1  0
  6  7  1  0
  7  8  1  0
  8  9  2  0
  8 10  1  0
 10 11  1  0
 11 12  1  0
 12 13  1  0
 13 14  2  0
 13 15  1  0
 15 16  1  0
 10 17  1  0
 17 18  2  0
 18 19  1  0
 19 20  2  0
 20 21  1  0
 17 22  1  0
 21 22  2  0
 22 23  1  0
 23 24  2  0
 23 25  1  0
  7 26  1  0
  4 27  1  0
 26 27  1  0
M  CHG  2  23   1  25  -1
M  END
