piperidine-amides-567-covalent
     RDKit          3D

 26 27  0  0  0  0  0  0  0  0999 V2000
    7.1150   -3.3710   19.2290 C   0  0  0  0  0  0  0  0  0  0  0  0
    6.3750   -4.0650   20.2560 C   0  0  0  0  0  0  0  0  0  0  0  0
    5.2760   -4.6000   19.9150 O   0  0  0  0  0  0  0  0  0  0  0  0
    6.8590   -4.2260   21.5680 N   0  0  0  0  0  0  0  0  0  0  0  0
    6.4730   -5.4420   22.3040 C   0  0  0  0  0  0  0  0  0  0  0  0
    5.5610   -4.7760   23.4030 C   0  0  0  0  0  0  0  0  0  0  0  0
    6.4460   -3.7750   24.1170 C   0  0  0  0  0  0  0  0  0  0  0  0
    5.7240   -3.2050   25.4040 C   0  0  0  0  0  0  0  0  0  0  0  0
    5.1310   -2.1730   25.1210 O   0  0  0  0  0  0  0  0  0  0  0  0
    5.9100   -3.9520   26.4130 N   0  0  0  0  0  0  0  0  0  0  0  0
    5.9340   -4.6680   27.5720 C   0  0  0  0  0  0  0  0  0  0  0  0
    4.9900   -5.1610   28.3760 C   0  0  0  0  0  0  0  0  0  0  0  0
    6.7590   -3.9610   28.6030 C   0  0  0  0  0  0  0  0  0  0  0  0
    6.1160   -6.1860   27.7430 C   0  0  0  0  0  0  0  0  0  0  0  0
    5.2460   -6.7860   28.8710 C   0  0  0  0  0  0  0  0  0  0  0  0
    3.9940   -6.9380   28.2540 C   0  0  0  0  0  0  0  0  0  0  0  0
    2.7280   -7.4210   28.7510 C   0  0  0  0  0  0  0  0  0  0  0  0
    3.1460   -7.7440   30.2330 C   0  0  0  0  0  0  0  0  0  0  0  0
    2.0480   -8.2990   31.2090 C   0  0  0  0  0  0  0  0  0  0  0  0
    1.2240   -9.2380   30.5810 F   0  0  0  0  0  0  0  0  0  0  0  0
    2.5050   -8.9100   32.3250 F   0  0  0  0  0  0  0  0  0  0  0  0
    1.1600   -7.2700   31.5780 F   0  0  0  0  0  0  0  0  0  0  0  0
    4.4930   -7.5790   30.8500 C   0  0  0  0  0  0  0  0  0  0  0  0
    5.5020   -7.1040   30.1370 C   0  0  0  0  0  0  0  0  0  0  0  0
    7.0410   -2.6840   23.2410 C   0  0  0  0  0  0  0  0  0  0  0  0
    7.7210   -3.2590   22.2090 C   0  0  0  0  0  0  0  0  0  0  0  0
  1  2  1  0
  2  3  2  0
  2  4  1  0
  4  5  1  0
  5  6  1  0
  6  7  1  0
  7  8  1  0
  8  9  2  0
  8 10  1  0
 11 10  1  0
 11 12  1  0
 11 13  1  0
 11 14  1  0
 14 15  1  0
 15 16  2  0
 16 17  1  0
 17 18  2  0
 18 19  1  0
 19 20  1  0
 19 21  1  0
 19 22  1  0
 18 23  1  0
 15 24  1  0
 23 24  2  0
  7 25  1  0
  4 26  1  0
 25 26  1  0
M  END
