piperidine-amides-5094-covalent
     RDKit          3D

 22 23  0  0  0  0  0  0  0  0999 V2000
    7.1280   -3.2740   19.2250 C   0  0  0  0  0  0  0  0  0  0  0  0
    6.3710   -4.0470   20.2340 C   0  0  0  0  0  0  0  0  0  0  0  0
    5.2800   -4.5310   19.8730 O   0  0  0  0  0  0  0  0  0  0  0  0
    6.8980   -4.2620   21.5110 N   0  0  0  0  0  0  0  0  0  0  0  0
    7.6760   -3.2430   22.1200 C   0  0  0  0  0  0  0  0  0  0  0  0
    7.2530   -3.0480   23.4800 C   0  0  0  0  0  0  0  0  0  0  0  0
    5.8580   -3.4320   23.6830 C   0  0  0  0  0  0  0  0  0  0  0  0
    5.3890   -2.9980   25.0150 C   0  0  0  0  0  0  0  0  0  0  0  0
    4.1630   -3.0080   25.2190 O   0  0  0  0  0  0  0  0  0  0  0  0
    6.2720   -2.5640   26.0190 N   0  0  0  0  0  0  0  0  0  0  0  0
    5.8430   -2.3840   27.4220 C   0  0  0  0  0  0  0  0  0  0  0  0
    4.7820   -3.3640   27.8310 C   0  0  0  0  0  0  0  0  0  0  0  0
    5.2920   -4.5780   28.3320 C   0  0  0  0  0  0  0  0  0  0  0  0
    4.7470   -5.3670   29.2930 C   0  0  0  0  0  0  0  0  0  0  0  0
    5.3200   -6.5250   29.7270 C   0  0  0  0  0  0  0  0  0  0  0  0
    6.5010   -6.8720   29.1450 C   0  0  0  0  0  0  0  0  0  0  0  0
    7.0440   -6.0560   28.1660 C   0  0  0  0  0  0  0  0  0  0  0  0
    8.5410   -6.3100   27.3070 Cl  0  0  0  0  0  0  0  0  0  0  0  0
    6.4410   -4.9560   27.7810 C   0  0  0  0  0  0  0  0  0  0  0  0
    6.9740   -4.1790   26.8100 F   0  0  0  0  0  0  0  0  0  0  0  0
    5.6530   -4.9100   23.4250 C   0  0  0  0  0  0  0  0  0  0  0  0
    6.5470   -5.4050   22.3330 C   0  0  0  0  0  0  0  0  0  0  0  0
  1  2  1  0
  2  3  2  0
  2  4  1  0
  4  5  1  0
  5  6  1  0
  6  7  1  0
  7  8  1  0
  8  9  2  0
  8 10  1  0
 10 11  1  0
 11 12  1  0
 12 13  1  0
 13 14  2  0
 14 15  1  0
 15 16  2  0
 16 17  1  0
 17 18  1  0
 13 19  1  0
 17 19  2  0
 19 20  1  0
  7 21  1  0
  4 22  1  0
 21 22  1  0
M  END
