piperidine-amides-2610-covalent
     RDKit          3D

 26 28  0  0  0  0  0  0  0  0999 V2000
    6.9710   -3.3550   19.3100 C   0  0  0  0  0  0  0  0  0  0  0  0
    6.2780   -4.2390   20.2930 C   0  0  0  0  0  0  0  0  0  0  0  0
    5.2710   -4.8290   19.9380 O   0  0  0  0  0  0  0  0  0  0  0  0
    6.8040   -4.3950   21.5600 N   0  0  0  0  0  0  0  0  0  0  0  0
    7.5250   -3.3000   22.1240 C   0  0  0  0  0  0  0  0  0  0  0  0
    6.7100   -2.8520   23.2670 C   0  0  0  0  0  0  0  0  0  0  0  0
    6.6720   -4.0330   24.2050 C   0  0  0  0  0  0  0  0  0  0  0  0
    6.2140   -3.5220   25.5190 C   0  0  0  0  0  0  0  0  0  0  0  0
    5.0230   -3.6450   25.8550 O   0  0  0  0  0  0  0  0  0  0  0  0
    7.1610   -2.8390   26.3870 N   0  0  0  0  0  0  0  0  0  0  0  0
    6.7610   -1.4960   26.7180 C   0  0  0  0  0  0  0  0  0  0  0  0
    6.7000   -2.5520   27.7110 C   0  0  0  0  0  0  0  0  0  0  0  0
    7.4170   -3.6870   27.4390 C   0  0  0  0  0  0  0  0  0  0  0  0
    8.1160   -3.6690   26.2030 C   0  0  0  0  0  0  0  0  0  0  0  0
    9.0110   -4.6850   25.9060 O   0  0  0  0  0  0  0  0  0  0  0  0
    8.0410   -2.6740   25.0610 N   0  0  0  0  0  0  0  0  0  0  0  0
    9.1080   -2.6420   24.0580 C   0  0  0  0  0  0  0  0  0  0  0  0
    9.3290   -1.2410   23.4490 C   0  0  0  0  0  0  0  0  0  0  0  0
    8.0010   -0.7420   22.9170 C   0  0  0  0  0  0  0  0  0  0  0  0
    8.0280    0.6440   22.2710 C   0  0  0  0  0  0  0  0  0  0  0  0
    9.3120    1.4050   22.2010 C   0  0  0  0  0  0  0  0  0  0  0  0
   10.5630    0.8440   22.7420 C   0  0  0  0  0  0  0  0  0  0  0  0
   10.6410   -0.5000   23.3900 C   0  0  0  0  0  0  0  0  0  0  0  0
    7.3770   -1.4310   25.4200 C   0  0  0  0  0  0  0  0  0  0  0  0
    5.7550   -5.0710   23.5660 C   0  0  0  0  0  0  0  0  0  0  0  0
    6.4330   -5.5240   22.4280 C   0  0  0  0  0  0  0  0  0  0  0  0
  1  2  1  0
  2  3  2  0
  2  4  1  0
  4  5  1  0
  5  6  1  0
  6  7  1  0
  7  8  1  0
  8  9  2  0
  8 10  1  0
 10 11  1  0
 11 12  1  0
 12 13  2  0
 13 14  1  0
 14 15  2  0
 14 16  1  0
 16 17  1  0
 17 18  1  0
 18 19  2  0
 19 20  1  0
 20 21  2  0
 21 22  1  0
 18 23  1  0
 22 23  2  0
 11 24  2  0
 16 24  1  0
  7 25  1  0
  4 26  1  0
 25 26  1  0
M  END
