piperidine-amides-1752-covalent
     RDKit          3D

 20 20  0  0  0  0  0  0  0  0999 V2000
    7.1630   -3.2580   19.1940 C   0  0  0  0  0  0  0  0  0  0  0  0
    6.3840   -4.0340   20.1970 C   0  0  0  0  0  0  0  0  0  0  0  0
    5.2900   -4.5240   19.8770 O   0  0  0  0  0  0  0  0  0  0  0  0
    6.9480   -4.2370   21.4680 N   0  0  0  0  0  0  0  0  0  0  0  0
    7.7610   -3.2450   22.1230 C   0  0  0  0  0  0  0  0  0  0  0  0
    6.9010   -2.6540   23.2280 C   0  0  0  0  0  0  0  0  0  0  0  0
    6.5330   -3.7930   24.1070 C   0  0  0  0  0  0  0  0  0  0  0  0
    5.7090   -3.3680   25.2450 C   0  0  0  0  0  0  0  0  0  0  0  0
    4.5240   -3.1040   25.0140 O   0  0  0  0  0  0  0  0  0  0  0  0
    6.2900   -3.2790   26.4960 N   0  0  0  0  0  0  0  0  0  0  0  0
    5.9970   -4.0860   27.6140 C   0  0  0  0  0  0  0  0  0  0  0  0
    6.4000   -3.7430   28.8610 C   0  0  0  0  0  0  0  0  0  0  0  0
    5.6690   -2.1360   29.2930 S   0  0  0  0  0  0  0  0  0  0  0  0
    5.1210   -2.0580   30.7010 O   0  0  0  0  0  0  0  0  0  0  0  0
    4.5060   -1.9620   28.3750 O   0  0  0  0  0  0  0  0  0  0  0  0
    6.8170   -0.8760   29.1020 N   0  0  0  0  0  0  0  0  0  0  0  0
    7.7840   -0.7700   30.0920 C   0  0  0  0  0  0  0  0  0  0  0  0
    6.4250    0.0450   28.1900 C   0  0  0  0  0  0  0  0  0  0  0  0
    5.7450   -4.8870   23.4080 C   0  0  0  0  0  0  0  0  0  0  0  0
    6.5620   -5.4060   22.2240 C   0  0  0  0  0  0  0  0  0  0  0  0
  1  2  1  0
  2  3  2  0
  2  4  1  0
  4  5  1  0
  5  6  1  0
  6  7  1  0
  7  8  1  0
  8  9  2  0
  8 10  1  0
 10 11  1  0
 11 12  1  0
 12 13  1  0
 13 14  2  0
 13 15  2  0
 13 16  1  0
 16 17  1  0
 16 18  1  0
  7 19  1  0
  4 20  1  0
 19 20  1  0
M  END
