piperidine-amides-23785-covalent
     RDKit          3D

 24 26  0  0  0  0  0  0  0  0999 V2000
    7.0400   -3.3500   19.3200 C   0  0  0  0  0  0  0  0  0  0  0  0
    6.3830   -4.1780   20.3420 C   0  0  0  0  0  0  0  0  0  0  0  0
    5.3650   -4.8100   19.9730 O   0  0  0  0  0  0  0  0  0  0  0  0
    6.9070   -4.3030   21.6530 N   0  0  0  0  0  0  0  0  0  0  0  0
    6.5290   -5.4220   22.4400 C   0  0  0  0  0  0  0  0  0  0  0  0
    6.5110   -5.1950   23.8900 C   0  0  0  0  0  0  0  0  0  0  0  0
    6.7450   -3.8080   24.3770 C   0  0  0  0  0  0  0  0  0  0  0  0
    5.7570   -3.4560   25.4760 C   0  0  0  0  0  0  0  0  0  0  0  0
    4.6370   -3.0570   25.1110 O   0  0  0  0  0  0  0  0  0  0  0  0
    5.9940   -3.5470   26.8920 N   0  0  0  0  0  0  0  0  0  0  0  0
    6.3040   -4.6860   27.6360 C   0  0  0  0  0  0  0  0  0  0  0  0
    5.4020   -4.9720   28.6530 C   0  0  0  0  0  0  0  0  0  0  0  0
    4.6730   -3.6150   28.7100 C   0  0  2  0  0  0  0  0  0  0  0  0
    3.7430   -3.3420   29.7010 C   0  0  0  0  0  0  0  0  0  0  0  0
    3.1810   -3.9040   28.4090 C   0  0  0  0  0  0  0  0  0  0  0  0
    3.0680   -2.4140   28.2950 C   0  0  0  0  0  0  0  0  0  0  0  0
    1.5650   -2.1810   27.9560 C   0  0  0  0  0  0  0  0  0  0  0  0
    0.3940   -3.1510   27.7610 C   0  0  0  0  0  0  0  0  0  0  0  0
    0.7510   -4.6230   27.9290 C   0  0  0  0  0  0  0  0  0  0  0  0
   -0.2040   -5.5890   27.7830 F   0  0  0  0  0  0  0  0  0  0  0  0
    2.1830   -4.9970   28.2570 C   0  0  0  0  0  0  0  0  0  0  0  0
    5.1520   -2.7230   27.7260 C   0  0  0  0  0  0  0  0  0  0  0  0
    6.7390   -2.7810   23.2940 C   0  0  0  0  0  0  0  0  0  0  0  0
    7.5710   -3.1990   22.2800 C   0  0  0  0  0  0  0  0  0  0  0  0
  1  2  1  0
  2  3  2  0
  2  4  1  0
  4  5  1  0
  5  6  1  0
  6  7  1  0
  7  8  1  0
  8  9  2  0
  8 10  1  0
 10 11  1  0
 11 12  1  0
 12 13  1  0
 13 14  1  1
 13 15  1  0
 15 16  2  0
 16 17  1  0
 17 18  2  0
 18 19  1  0
 19 20  1  0
 15 21  1  0
 19 21  2  0
 10 22  1  0
 13 22  1  0
  7 23  1  0
  4 24  1  0
 23 24  1  0
M  END
