piperidine-amides-14554-covalent
     RDKit          3D

 23 25  0  0  0  0  0  0  0  0999 V2000
    7.0630   -3.2820   19.2490 C   0  0  0  0  0  0  0  0  0  0  0  0
    6.3330   -4.0420   20.2670 C   0  0  0  0  0  0  0  0  0  0  0  0
    5.3050   -4.6390   19.9130 O   0  0  0  0  0  0  0  0  0  0  0  0
    6.8080   -4.1220   21.6000 N   0  0  0  0  0  0  0  0  0  0  0  0
    7.7410   -3.1380   22.0770 C   0  0  0  0  0  0  0  0  0  0  0  0
    7.4890   -2.9480   23.5280 C   0  0  0  0  0  0  0  0  0  0  0  0
    6.0750   -3.4290   23.6920 C   0  0  0  0  0  0  0  0  0  0  0  0
    5.5430   -3.0430   25.0370 C   0  0  0  0  0  0  0  0  0  0  0  0
    4.5180   -3.6070   25.4100 O   0  0  0  0  0  0  0  0  0  0  0  0
    6.2370   -2.0690   25.7540 N   0  0  0  0  0  0  0  0  0  0  0  0
    6.9140   -2.3630   26.9620 C   0  0  0  0  0  0  0  0  0  0  0  0
    6.2230   -2.0280   28.1470 C   0  0  1  0  0  0  0  0  0  0  0  0
    4.8260   -2.1560   28.1710 C   0  0  0  0  0  0  0  0  0  0  0  0
    4.3720   -3.8260   28.0810 S   0  0  0  0  0  0  0  0  0  0  0  0
    5.9570   -4.4810   27.9250 C   0  0  0  0  0  0  0  0  0  0  0  0
    6.4000   -5.7030   27.2340 C   0  0  0  0  0  0  0  0  0  0  0  0
    7.8800   -6.1260   27.1850 C   0  0  0  0  0  0  0  0  0  0  0  0
    8.9020   -5.3270   27.8300 C   0  0  0  0  0  0  0  0  0  0  0  0
    8.4030   -4.1010   28.5090 C   0  0  0  0  0  0  0  0  0  0  0  0
    6.9130   -3.7380   28.5210 C   0  0  0  0  0  0  0  0  0  0  0  0
    6.6180   -2.6910   29.1090 O   0  0  0  0  0  0  0  0  0  0  0  0
    6.0230   -4.9430   23.5780 C   0  0  0  0  0  0  0  0  0  0  0  0
    6.6140   -5.3270   22.3780 C   0  0  0  0  0  0  0  0  0  0  0  0
  1  2  1  0
  2  3  2  0
  2  4  1  0
  4  5  1  0
  5  6  1  0
  6  7  1  0
  7  8  1  0
  8  9  2  0
  8 10  1  0
 10 11  1  0
 12 11  1  6
 12 13  1  0
 13 14  1  0
 14 15  1  0
 15 16  2  0
 16 17  1  0
 17 18  2  0
 18 19  1  0
 15 20  1  0
 19 20  2  0
 12 21  1  0
 20 21  1  0
  7 22  1  0
  4 23  1  0
 22 23  1  0
M  END
