piperidine-amides-6630-covalent
     RDKit          3D

 24 24  0  0  0  0  0  0  0  0999 V2000
    7.0990   -3.2840   19.2380 C   0  0  0  0  0  0  0  0  0  0  0  0
    6.3850   -4.0730   20.2520 C   0  0  0  0  0  0  0  0  0  0  0  0
    5.3410   -4.6880   19.9420 O   0  0  0  0  0  0  0  0  0  0  0  0
    6.8910   -4.1930   21.5570 N   0  0  0  0  0  0  0  0  0  0  0  0
    7.6540   -3.1100   22.1300 C   0  0  0  0  0  0  0  0  0  0  0  0
    6.8450   -2.6260   23.3350 C   0  0  0  0  0  0  0  0  0  0  0  0
    6.6640   -3.8180   24.2530 C   0  0  0  0  0  0  0  0  0  0  0  0
    5.8800   -3.3800   25.4390 C   0  0  0  0  0  0  0  0  0  0  0  0
    4.7720   -2.8460   25.2220 O   0  0  0  0  0  0  0  0  0  0  0  0
    6.3830   -3.5530   26.7650 N   0  0  0  0  0  0  0  0  0  0  0  0
    5.5780   -4.1550   27.8030 C   0  0  2  0  0  0  0  0  0  0  0  0
    6.1680   -5.3860   28.4820 C   0  0  0  0  0  0  0  0  0  0  0  0
    6.7960   -6.2860   27.6060 O   0  0  0  0  0  0  0  0  0  0  0  0
    5.9180   -5.5330   29.8920 O   0  0  0  0  0  0  0  0  0  0  0  0
    5.3660   -6.7580   30.3320 C   0  0  0  0  0  0  0  0  0  0  0  0
    5.2190   -6.8400   31.6920 C   0  0  0  0  0  0  0  0  0  0  0  0
    6.0900   -7.7200   29.7360 C   0  0  0  0  0  0  0  0  0  0  0  0
    4.1870   -6.8240   29.5980 C   0  0  0  0  0  0  0  0  0  0  0  0
    4.3720   -4.6800   27.1780 C   0  0  1  0  0  0  0  0  0  0  0  0
    3.3230   -3.6470   26.8360 C   0  0  0  0  0  0  0  0  0  0  0  0
    4.7720   -5.5580   26.0810 C   0  0  0  0  0  0  0  0  0  0  0  0
    4.3600   -6.9280   26.3700 C   0  0  0  0  0  0  0  0  0  0  0  0
    5.8960   -4.9040   23.5320 C   0  0  0  0  0  0  0  0  0  0  0  0
    6.4740   -5.2880   22.3530 C   0  0  0  0  0  0  0  0  0  0  0  0
  1  2  1  0
  2  3  2  0
  2  4  1  0
  4  5  1  0
  5  6  1  0
  6  7  1  0
  7  8  1  0
  8  9  2  0
  8 10  1  0
 11 10  1  6
 11 12  1  0
 12 13  2  0
 12 14  1  0
 15 14  1  0
 15 16  1  0
 15 17  1  0
 15 18  1  0
 11 19  1  0
 19 20  1  6
 19 21  1  0
 21 22  1  0
  7 23  1  0
  4 24  1  0
 23 24  1  0
M  END
