piperidine-amides-8325-covalent
     RDKit          3D

 24 26  0  0  0  0  0  0  0  0999 V2000
    7.0970   -3.2610   19.2320 C   0  0  0  0  0  0  0  0  0  0  0  0
    6.3480   -4.0170   20.2370 C   0  0  0  0  0  0  0  0  0  0  0  0
    5.2870   -4.5620   19.8880 O   0  0  0  0  0  0  0  0  0  0  0  0
    6.8480   -4.1600   21.5560 N   0  0  0  0  0  0  0  0  0  0  0  0
    7.7030   -3.1430   22.1090 C   0  0  0  0  0  0  0  0  0  0  0  0
    7.3690   -2.9780   23.5530 C   0  0  0  0  0  0  0  0  0  0  0  0
    6.0180   -3.6330   23.6980 C   0  0  0  0  0  0  0  0  0  0  0  0
    5.5200   -3.4750   25.0920 C   0  0  0  0  0  0  0  0  0  0  0  0
    4.3210   -3.3300   25.2810 O   0  0  0  0  0  0  0  0  0  0  0  0
    6.4040   -3.5240   26.1190 N   0  0  0  0  0  0  0  0  0  0  0  0
    6.0030   -4.2830   27.2260 C   0  0  0  0  0  0  0  0  0  0  0  0
    6.1850   -3.6710   28.4390 C   0  0  0  0  0  0  0  0  0  0  0  0
    7.2460   -4.3340   29.0060 F   0  0  0  0  0  0  0  0  0  0  0  0
    5.0780   -4.0660   29.1510 F   0  0  0  0  0  0  0  0  0  0  0  0
    6.3670   -2.2980   28.5700 C   0  0  0  0  0  0  0  0  0  0  0  0
    7.0790   -1.5220   29.5400 N   0  0  0  0  0  0  0  0  0  0  0  0
    6.9970   -0.2020   29.3030 N   0  0  0  0  0  0  0  0  0  0  0  0
    6.2630    0.0270   28.2100 C   0  0  0  0  0  0  0  0  0  0  0  0
    5.7930   -1.2080   27.6310 C   0  0  0  0  0  0  0  0  0  0  0  0
    4.9610   -1.0220   26.4020 C   0  0  0  0  0  0  0  0  0  0  0  0
    4.9100    0.4740   26.3010 C   0  0  0  0  0  0  0  0  0  0  0  0
    5.7810    1.1180   27.4120 C   0  0  0  0  0  0  0  0  0  0  0  0
    5.9320   -5.0710   23.3940 C   0  0  0  0  0  0  0  0  0  0  0  0
    6.6960   -5.3920   22.2970 C   0  0  0  0  0  0  0  0  0  0  0  0
  1  2  1  0
  2  3  2  0
  2  4  1  0
  4  5  1  0
  5  6  1  0
  6  7  1  0
  7  8  1  0
  8  9  2  0
  8 10  1  0
 10 11  1  0
 11 12  1  0
 12 13  1  0
 12 14  1  0
 12 15  1  0
 15 16  1  0
 16 17  1  0
 17 18  2  0
 15 19  2  0
 18 19  1  0
 19 20  1  0
 20 21  1  0
 18 22  1  0
 21 22  1  0
  7 23  1  0
  4 24  1  0
 23 24  1  0
M  END
