piperidine-amides-10088-covalent
     RDKit          3D

 25 26  0  0  0  0  0  0  0  0999 V2000
    7.1010   -3.2530   19.1870 C   0  0  0  0  0  0  0  0  0  0  0  0
    6.3320   -4.0040   20.1840 C   0  0  0  0  0  0  0  0  0  0  0  0
    5.2110   -4.4360   19.8240 O   0  0  0  0  0  0  0  0  0  0  0  0
    6.8610   -4.2710   21.4440 N   0  0  0  0  0  0  0  0  0  0  0  0
    6.5380   -5.4800   22.1430 C   0  0  0  0  0  0  0  0  0  0  0  0
    6.0360   -5.1280   23.5210 C   0  0  0  0  0  0  0  0  0  0  0  0
    5.7230   -3.6640   23.7450 C   0  0  0  0  0  0  0  0  0  0  0  0
    5.5200   -3.4920   25.1970 C   0  0  0  0  0  0  0  0  0  0  0  0
    4.6570   -2.6700   25.5900 O   0  0  0  0  0  0  0  0  0  0  0  0
    6.2650   -4.2360   26.1350 N   0  0  0  0  0  0  0  0  0  0  0  0
    5.7870   -4.5500   27.4540 C   0  0  2  0  0  0  0  0  0  0  0  0
    6.9340   -4.3770   28.4020 C   0  0  0  0  0  0  0  0  0  0  0  0
    8.1040   -3.9990   27.8840 C   0  0  0  0  0  0  0  0  0  0  0  0
    8.0770   -2.8110   27.1420 C   0  0  0  0  0  0  0  0  0  0  0  0
    8.3970   -2.8720   25.7760 C   0  0  0  0  0  0  0  0  0  0  0  0
    8.7990   -4.0470   25.1360 C   0  0  0  0  0  0  0  0  0  0  0  0
    9.0480   -5.1760   25.8720 C   0  0  0  0  0  0  0  0  0  0  0  0
    8.6350   -5.1490   27.3140 C   0  0  0  0  0  0  0  0  0  0  0  0
    5.3650   -5.9280   27.7140 C   0  0  0  0  0  0  0  0  0  0  0  0
    5.4240   -6.3190   28.9050 O   0  0  0  0  0  0  0  0  0  0  0  0
    4.9860   -6.6300   26.9220 O   0  0  0  0  0  0  0  0  0  0  0  0
    3.6710   -7.1060   26.8410 C   0  0  0  0  0  0  0  0  0  0  0  0
    3.4000   -7.6440   25.4450 C   0  0  0  0  0  0  0  0  0  0  0  0
    6.7520   -2.6890   23.2590 C   0  0  0  0  0  0  0  0  0  0  0  0
    7.5780   -3.2510   22.1350 C   0  0  0  0  0  0  0  0  0  0  0  0
  1  2  1  0
  2  3  2  0
  2  4  1  0
  4  5  1  0
  5  6  1  0
  6  7  1  0
  7  8  1  0
  8  9  2  0
  8 10  1  0
 10 11  1  0
 11 12  1  1
 12 13  1  0
 13 14  1  0
 14 15  1  0
 15 16  1  0
 16 17  1  0
 13 18  1  0
 17 18  1  0
 11 19  1  0
 19 20  2  0
 19 21  1  0
 21 22  1  0
 22 23  1  0
  7 24  1  0
  4 25  1  0
 24 25  1  0
M  END
