piperidine-amides-23458-covalent
     RDKit          3D

 24 26  0  0  0  0  0  0  0  0999 V2000
    7.1430   -3.3120   19.2420 C   0  0  0  0  0  0  0  0  0  0  0  0
    6.3240   -4.0060   20.2480 C   0  0  0  0  0  0  0  0  0  0  0  0
    5.2380   -4.4930   19.8590 O   0  0  0  0  0  0  0  0  0  0  0  0
    6.7720   -4.1650   21.5780 N   0  0  0  0  0  0  0  0  0  0  0  0
    7.5980   -3.1570   22.1470 C   0  0  0  0  0  0  0  0  0  0  0  0
    7.6730   -3.1700   23.5970 C   0  0  0  0  0  0  0  0  0  0  0  0
    6.6320   -3.9500   24.3060 C   0  0  0  0  0  0  0  0  0  0  0  0
    5.8490   -3.0190   25.1850 C   0  0  0  0  0  0  0  0  0  0  0  0
    4.6020   -3.0850   25.2140 O   0  0  0  0  0  0  0  0  0  0  0  0
    6.5240   -2.0660   25.9840 N   0  0  0  0  0  0  0  0  0  0  0  0
    7.6380   -2.4050   26.7560 C   0  0  0  0  0  0  0  0  0  0  0  0
    7.6320   -3.7420   27.2290 C   0  0  0  0  0  0  0  0  0  0  0  0
    6.5780   -3.8700   28.2890 C   0  0  0  0  0  0  0  0  0  0  0  0
    6.3260   -5.0270   28.9150 C   0  0  0  0  0  0  0  0  0  0  0  0
    7.1770   -6.2230   28.5010 C   0  0  0  0  0  0  0  0  0  0  0  0
    7.0200   -7.4660   29.0630 O   0  0  0  0  0  0  0  0  0  0  0  0
    8.2640   -6.1330   27.4320 C   0  0  0  0  0  0  0  0  0  0  0  0
    8.4960   -4.7930   26.7510 C   0  0  0  0  0  0  0  0  0  0  0  0
    6.1920   -0.7080   26.2230 C   0  0  0  0  0  0  0  0  0  0  0  0
    4.7170   -0.3630   26.3590 C   0  0  0  0  0  0  0  0  0  0  0  0
    3.8720   -0.4820   25.2570 C   0  0  0  0  0  0  0  0  0  0  0  0
    4.1140    0.9650   25.7790 C   0  0  0  0  0  0  0  0  0  0  0  0
    5.7240   -4.7690   23.4290 C   0  0  0  0  0  0  0  0  0  0  0  0
    6.4060   -5.3110   22.3570 C   0  0  0  0  0  0  0  0  0  0  0  0
  1  2  1  0
  2  3  2  0
  2  4  1  0
  4  5  1  0
  5  6  1  0
  6  7  1  0
  7  8  1  0
  8  9  2  0
  8 10  1  0
 10 11  1  0
 11 12  1  0
 12 13  2  0
 13 14  1  0
 14 15  2  0
 15 16  1  0
 15 17  1  0
 12 18  1  0
 17 18  2  0
 10 19  1  0
 19 20  1  0
 20 21  1  0
 20 22  1  0
 21 22  1  0
  7 23  1  0
  4 24  1  0
 23 24  1  0
M  END
