piperidine-amides-34917-covalent
     RDKit          3D

 31 34  0  0  0  0  0  0  0  0999 V2000
    7.1170   -3.3570   19.2750 C   0  0  0  0  0  0  0  0  0  0  0  0
    6.4020   -4.1780   20.2760 C   0  0  0  0  0  0  0  0  0  0  0  0
    5.3340   -4.6820   19.9350 O   0  0  0  0  0  0  0  0  0  0  0  0
    6.9900   -4.3980   21.5180 N   0  0  0  0  0  0  0  0  0  0  0  0
    7.7550   -3.3860   22.1980 C   0  0  0  0  0  0  0  0  0  0  0  0
    6.9360   -2.8580   23.3250 C   0  0  0  0  0  0  0  0  0  0  0  0
    6.4230   -4.0240   24.1700 C   0  0  0  0  0  0  0  0  0  0  0  0
    5.6160   -3.4160   25.2310 C   0  0  0  0  0  0  0  0  0  0  0  0
    4.8030   -2.5330   24.9550 O   0  0  0  0  0  0  0  0  0  0  0  0
    5.7450   -3.8340   26.5540 N   0  0  0  0  0  0  0  0  0  0  0  0
    6.4040   -3.0060   27.4710 C   0  0  0  0  0  0  0  0  0  0  0  0
    6.7620   -4.0440   28.4940 C   0  0  0  0  0  0  0  0  0  0  0  0
    5.9210   -4.2870   29.4830 C   0  0  0  0  0  0  0  0  0  0  0  0
    4.5680   -4.6200   29.3680 N   0  0  0  0  0  0  0  0  0  0  0  0
    4.5020   -6.3190   29.6050 S   0  0  0  0  0  0  0  0  0  0  0  0
    3.1880   -6.7960   29.0810 O   0  0  0  0  0  0  0  0  0  0  0  0
    5.6300   -6.9950   28.8850 O   0  0  0  0  0  0  0  0  0  0  0  0
    4.5250   -6.7470   31.3690 C   0  0  0  0  0  0  0  0  0  0  0  0
    5.4390   -7.6730   31.8210 C   0  0  0  0  0  0  0  0  0  0  0  0
    5.6450   -8.2010   33.2690 C   0  0  0  0  0  0  0  0  0  0  0  0
    4.7040   -7.5990   34.3000 C   0  0  0  0  0  0  0  0  0  0  0  0
    3.7310   -6.6000   33.7840 C   0  0  0  0  0  0  0  0  0  0  0  0
    2.8050   -6.0060   34.7950 C   0  0  0  0  0  0  0  0  0  0  0  0
    1.8180   -5.0910   34.6800 N   0  0  0  0  0  0  0  0  0  0  0  0
    1.6840   -4.6520   33.3250 C   0  0  0  0  0  0  0  0  0  0  0  0
    2.5440   -5.1550   32.1790 C   0  0  0  0  0  0  0  0  0  0  0  0
    3.6230   -6.1740   32.3840 C   0  0  0  0  0  0  0  0  0  0  0  0
    4.1370   -4.1170   28.1280 C   0  0  0  0  0  0  0  0  0  0  0  0
    4.8400   -4.7670   27.1330 C   0  0  0  0  0  0  0  0  0  0  0  0
    5.6710   -5.0240   23.3400 C   0  0  0  0  0  0  0  0  0  0  0  0
    6.6460   -5.5770   22.3050 C   0  0  0  0  0  0  0  0  0  0  0  0
  1  2  1  0
  2  3  2  0
  2  4  1  0
  4  5  1  0
  5  6  1  0
  6  7  1  0
  7  8  1  0
  8  9  2  0
  8 10  1  0
 10 11  1  0
 11 12  1  0
 12 13  1  0
 13 14  1  0
 14 15  1  0
 15 16  2  0
 15 17  2  0
 15 18  1  0
 18 19  2  0
 19 20  1  0
 20 21  2  0
 21 22  1  0
 22 23  1  0
 23 24  2  0
 24 25  1  0
 25 26  2  0
 18 27  1  0
 22 27  2  0
 26 27  1  0
 14 28  1  0
 10 29  1  0
 28 29  1  0
  7 30  1  0
  4 31  1  0
 30 31  1  0
M  END
