piperidine-amides-6672-covalent
     RDKit          3D

 24 26  0  0  0  0  0  0  0  0999 V2000
    7.0380   -3.3230   19.3250 C   0  0  0  0  0  0  0  0  0  0  0  0
    6.3620   -4.1630   20.3290 C   0  0  0  0  0  0  0  0  0  0  0  0
    5.3980   -4.8840   19.9900 O   0  0  0  0  0  0  0  0  0  0  0  0
    6.8010   -4.1950   21.6630 N   0  0  0  0  0  0  0  0  0  0  0  0
    7.7180   -3.1740   22.1230 C   0  0  0  0  0  0  0  0  0  0  0  0
    7.6670   -3.2520   23.6360 C   0  0  0  0  0  0  0  0  0  0  0  0
    6.2290   -3.5980   23.9240 C   0  0  0  0  0  0  0  0  0  0  0  0
    5.8900   -3.2870   25.3290 C   0  0  0  0  0  0  0  0  0  0  0  0
    4.7210   -3.4930   25.7230 O   0  0  0  0  0  0  0  0  0  0  0  0
    6.9100   -2.7720   26.1710 N   0  0  0  0  0  0  0  0  0  0  0  0
    6.7060   -1.6210   27.0230 C   0  0  0  0  0  0  0  0  0  0  0  0
    7.3360   -1.6600   28.3940 C   0  0  0  0  0  0  0  0  0  0  0  0
    7.1950   -0.6220   29.2650 C   0  0  0  0  0  0  0  0  0  0  0  0
    6.4660    0.4760   28.8750 C   0  0  0  0  0  0  0  0  0  0  0  0
    5.8630    0.5620   27.6170 C   0  0  0  0  0  0  0  0  0  0  0  0
    5.9100   -0.3990   26.6290 C   0  0  0  0  0  0  0  0  0  0  0  0
    5.3160   -0.3010   25.4180 N   0  0  0  0  0  0  0  0  0  0  0  0
    6.1210    0.3990   24.5810 C   0  0  0  0  0  0  0  0  0  0  0  0
    5.2080    1.4400   23.8580 C   0  0  0  0  0  0  0  0  0  0  0  0
    3.9410    1.0210   24.1810 N   0  0  0  0  0  0  0  0  0  0  0  0
    3.9810    0.1860   25.3140 C   0  0  0  0  0  0  0  0  0  0  0  0
    3.0490   -0.1350   26.1750 O   0  0  0  0  0  0  0  0  0  0  0  0
    5.9320   -5.0490   23.6020 C   0  0  0  0  0  0  0  0  0  0  0  0
    6.6760   -5.4090   22.4530 C   0  0  0  0  0  0  0  0  0  0  0  0
  1  2  1  0
  2  3  2  0
  2  4  1  0
  4  5  1  0
  5  6  1  0
  6  7  1  0
  7  8  1  0
  8  9  2  0
  8 10  1  0
 10 11  1  0
 11 12  2  0
 12 13  1  0
 13 14  2  0
 14 15  1  0
 11 16  1  0
 15 16  2  0
 16 17  1  0
 17 18  1  0
 18 19  1  0
 19 20  1  0
 17 21  1  0
 20 21  1  0
 21 22  2  0
  7 23  1  0
  4 24  1  0
 23 24  1  0
M  END
