piperidine-amides-30611-covalent
     RDKit          3D

 27 29  0  0  0  0  0  0  0  0999 V2000
    7.0740   -3.3260   19.2670 C   0  0  0  0  0  0  0  0  0  0  0  0
    6.3690   -4.1340   20.2650 C   0  0  0  0  0  0  0  0  0  0  0  0
    5.3380   -4.7420   19.9430 O   0  0  0  0  0  0  0  0  0  0  0  0
    6.8610   -4.2760   21.5660 N   0  0  0  0  0  0  0  0  0  0  0  0
    7.7490   -3.2890   22.1510 C   0  0  0  0  0  0  0  0  0  0  0  0
    7.1360   -2.8530   23.4490 C   0  0  0  0  0  0  0  0  0  0  0  0
    6.7720   -4.0220   24.3120 C   0  0  0  0  0  0  0  0  0  0  0  0
    5.9310   -3.5940   25.4540 C   0  0  0  0  0  0  0  0  0  0  0  0
    4.7380   -3.2060   25.2560 O   0  0  0  0  0  0  0  0  0  0  0  0
    6.3930   -3.5850   26.7920 N   0  0  0  0  0  0  0  0  0  0  0  0
    5.5030   -3.1370   27.8580 C   0  0  0  0  0  0  0  0  0  0  0  0
    4.8240   -4.3460   28.3180 C   0  0  0  0  0  0  0  0  0  0  0  0
    5.5640   -4.8930   29.2740 N   0  0  0  0  0  0  0  0  0  0  0  0
    5.0190   -5.6750   30.3260 C   0  0  0  0  0  0  0  0  0  0  0  0
    5.8480   -6.8580   30.7120 C   0  0  0  0  0  0  0  0  0  0  0  0
    5.3550   -7.7270   31.8480 C   0  0  0  0  0  0  0  0  0  0  0  0
    4.0680   -7.3280   32.4740 C   0  0  0  0  0  0  0  0  0  0  0  0
    3.6260   -8.1410   33.5150 F   0  0  0  0  0  0  0  0  0  0  0  0
    3.4160   -6.2230   32.0060 C   0  0  0  0  0  0  0  0  0  0  0  0
    3.8320   -5.3850   30.9690 C   0  0  0  0  0  0  0  0  0  0  0  0
    3.1000   -4.2960   30.5860 F   0  0  0  0  0  0  0  0  0  0  0  0
    6.4600   -5.4620   28.3950 C   0  0  0  0  0  0  0  0  0  0  0  0
    7.7760   -4.7590   27.9600 C   0  0  0  0  0  0  0  0  0  0  0  0
    7.8160   -3.5700   27.0010 C   0  0  1  0  0  0  0  0  0  0  0  0
    8.1710   -2.8310   26.1170 C   0  0  0  0  0  0  0  0  0  0  0  0
    6.0780   -5.1180   23.6060 C   0  0  0  0  0  0  0  0  0  0  0  0
    6.5390   -5.4220   22.3510 C   0  0  0  0  0  0  0  0  0  0  0  0
  1  2  1  0
  2  3  2  0
  2  4  1  0
  4  5  1  0
  5  6  1  0
  6  7  1  0
  7  8  1  0
  8  9  2  0
  8 10  1  0
 10 11  1  0
 11 12  1  0
 12 13  1  0
 13 14  1  0
 14 15  2  0
 15 16  1  0
 16 17  2  0
 17 18  1  0
 17 19  1  0
 14 20  1  0
 19 20  2  0
 20 21  1  0
 13 22  1  0
 22 23  1  0
 10 24  1  0
 23 24  1  0
 24 25  1  6
  7 26  1  0
  4 27  1  0
 26 27  1  0
M  END
