piperidine-amides-30544-covalent
     RDKit          3D

 23 25  0  0  0  0  0  0  0  0999 V2000
    7.0540   -3.3360   19.3630 C   0  0  0  0  0  0  0  0  0  0  0  0
    6.3590   -4.1840   20.3330 C   0  0  0  0  0  0  0  0  0  0  0  0
    5.3470   -4.8000   19.9680 O   0  0  0  0  0  0  0  0  0  0  0  0
    6.8270   -4.3730   21.6470 N   0  0  0  0  0  0  0  0  0  0  0  0
    6.3040   -5.4270   22.4680 C   0  0  0  0  0  0  0  0  0  0  0  0
    5.3330   -4.7300   23.3930 C   0  0  0  0  0  0  0  0  0  0  0  0
    5.9020   -3.4560   23.9870 C   0  0  0  0  0  0  0  0  0  0  0  0
    4.9610   -2.7190   24.9280 C   0  0  0  0  0  0  0  0  0  0  0  0
    3.8510   -2.2590   24.5710 O   0  0  0  0  0  0  0  0  0  0  0  0
    5.3480   -2.5860   26.2700 N   0  0  0  0  0  0  0  0  0  0  0  0
    4.4060   -2.4060   27.4230 C   0  0  0  0  0  0  0  0  0  0  0  0
    4.5460   -3.4420   28.4990 C   0  0  0  0  0  0  0  0  0  0  0  0
    5.9000   -3.7760   28.9010 C   0  0  0  0  0  0  0  0  0  0  0  0
    6.6030   -4.1860   27.6810 C   0  0  0  0  0  0  0  0  0  0  0  0
    6.2760   -3.5390   26.4240 C   0  0  0  0  0  0  0  0  0  0  0  0
    6.9590   -3.9400   25.1950 C   0  0  0  0  0  0  0  0  0  0  0  0
    7.8740   -4.8660   25.1720 C   0  0  0  0  0  0  0  0  0  0  0  0
    8.1180   -5.4030   26.3890 C   0  0  0  0  0  0  0  0  0  0  0  0
    9.3800   -6.6430   26.6630 Br  0  0  0  0  0  0  0  0  0  0  0  0
    7.4730   -5.0620   27.6060 C   0  0  0  0  0  0  0  0  0  0  0  0
    7.9280   -5.8230   28.7350 C   0  0  0  0  0  0  0  0  0  0  0  0
    6.5070   -2.5880   22.8590 C   0  0  0  0  0  0  0  0  0  0  0  0
    7.4000   -3.2070   22.3200 C   0  0  0  0  0  0  0  0  0  0  0  0
  1  2  1  0
  2  3  2  0
  2  4  1  0
  4  5  1  0
  5  6  1  0
  6  7  1  0
  7  8  1  0
  8  9  2  0
  8 10  1  0
 10 11  1  0
 11 12  1  0
 12 13  1  0
 13 14  1  0
 10 15  1  0
 14 15  2  0
 15 16  1  0
 16 17  2  0
 17 18  1  0
 18 19  1  0
 14 20  1  0
 18 20  2  0
 20 21  1  0
  7 22  1  0
  4 23  1  0
 22 23  1  0
M  END
