piperidine-amides-814-covalent
     RDKit          3D

 25 27  0  0  0  0  0  0  0  0999 V2000
    7.1860   -3.3390   19.4090 C   0  0  0  0  0  0  0  0  0  0  0  0
    6.4420   -4.1070   20.3740 C   0  0  0  0  0  0  0  0  0  0  0  0
    5.4310   -4.7800   19.9770 O   0  0  0  0  0  0  0  0  0  0  0  0
    6.8540   -4.1490   21.7180 N   0  0  0  0  0  0  0  0  0  0  0  0
    6.4320   -5.2880   22.5500 C   0  0  0  0  0  0  0  0  0  0  0  0
    5.3580   -4.5360   23.4270 C   0  0  0  0  0  0  0  0  0  0  0  0
    6.0950   -3.4190   24.1520 C   0  0  0  0  0  0  0  0  0  0  0  0
    5.8830   -3.6270   25.7140 C   0  0  0  0  0  0  0  0  0  0  0  0
    5.7720   -4.8150   25.9180 O   0  0  0  0  0  0  0  0  0  0  0  0
    5.8450   -2.5320   26.3830 N   0  0  0  0  0  0  0  0  0  0  0  0
    5.6950   -1.4580   27.2300 C   0  0  0  0  0  0  0  0  0  0  0  0
    4.6660   -1.1710   28.1080 C   0  0  0  0  0  0  0  0  0  0  0  0
    4.7270   -1.6050   29.5110 C   0  0  0  0  0  0  0  0  0  0  0  0
    3.7140   -1.3900   30.6020 C   0  0  0  0  0  0  0  0  0  0  0  0
    2.6680   -0.6310   29.8460 C   0  0  0  0  0  0  0  0  0  0  0  0
    1.4970   -0.2020   30.4780 C   0  0  0  0  0  0  0  0  0  0  0  0
    2.3140   -0.0760   28.5350 C   0  0  0  0  0  0  0  0  0  0  0  0
    3.4370   -0.3850   27.5740 C   0  0  0  0  0  0  0  0  0  0  0  0
    5.8020   -0.2560   26.2350 C   0  0  0  0  0  0  0  0  0  0  0  0
    5.4090    0.2600   27.4610 C   0  0  0  0  0  0  0  0  0  0  0  0
    6.3050    0.6000   28.4420 C   0  0  0  0  0  0  0  0  0  0  0  0
    6.8770   -0.4800   29.0140 C   0  0  0  0  0  0  0  0  0  0  0  0
    6.9630   -1.4640   28.0670 C   0  0  0  0  0  0  0  0  0  0  0  0
    7.5000   -3.1210   23.7500 C   0  0  0  0  0  0  0  0  0  0  0  0
    7.6780   -3.0930   22.2610 C   0  0  0  0  0  0  0  0  0  0  0  0
  1  2  1  0
  2  3  2  0
  2  4  1  0
  4  5  1  0
  5  6  1  0
  6  7  1  0
  7  8  1  0
  8  9  2  0
  8 10  1  0
 11 10  1  0
 11 12  1  0
 12 13  2  0
 13 14  1  0
 14 15  2  0
 15 16  1  0
 15 17  1  0
 12 18  1  0
 17 18  2  0
 11 19  1  0
 19 20  1  0
 20 21  1  0
 21 22  1  0
 11 23  1  0
 22 23  1  0
  7 24  1  0
  4 25  1  0
 24 25  1  0
M  END
