piperidine-amides-25456-covalent
     RDKit          3D

 25 27  0  0  0  0  0  0  0  0999 V2000
    7.0200   -3.3500   19.4100 C   0  0  0  0  0  0  0  0  0  0  0  0
    6.3610   -4.2490   20.3960 C   0  0  0  0  0  0  0  0  0  0  0  0
    5.3910   -4.8920   19.9920 O   0  0  0  0  0  0  0  0  0  0  0  0
    6.8600   -4.3750   21.7020 N   0  0  0  0  0  0  0  0  0  0  0  0
    6.6990   -5.6100   22.4440 C   0  0  0  0  0  0  0  0  0  0  0  0
    6.2500   -5.3220   23.8570 C   0  0  0  0  0  0  0  0  0  0  0  0
    6.0930   -3.8180   24.0150 C   0  0  0  0  0  0  0  0  0  0  0  0
    5.4300   -3.4190   25.2910 C   0  0  0  0  0  0  0  0  0  0  0  0
    4.5330   -2.5780   25.1930 O   0  0  0  0  0  0  0  0  0  0  0  0
    5.7070   -3.8930   26.6010 N   0  0  0  0  0  0  0  0  0  0  0  0
    6.4340   -5.1360   26.8220 C   0  0  0  0  0  0  0  0  0  0  0  0
    5.3370   -5.9950   27.3720 C   0  0  0  0  0  0  0  0  0  0  0  0
    4.7150   -7.1300   27.0000 C   0  0  0  0  0  0  0  0  0  0  0  0
    5.4160   -7.0680   28.3130 C   0  0  0  0  0  0  0  0  0  0  0  0
    4.5380   -5.0560   28.0310 N   0  0  0  0  0  0  0  0  0  0  0  0
    5.5740   -4.5620   28.8100 C   0  0  0  0  0  0  0  0  0  0  0  0
    6.6730   -5.2540   29.2210 O   0  0  0  0  0  0  0  0  0  0  0  0
    5.4530   -3.2060   29.2740 C   0  0  0  0  0  0  0  0  0  0  0  0
    4.9800   -1.8630   28.8570 C   0  0  0  0  0  0  0  0  0  0  0  0
    4.0730   -1.1450   27.7490 C   0  0  0  0  0  0  0  0  0  0  0  0
    4.8700   -0.2210   28.4510 C   0  0  0  0  0  0  0  0  0  0  0  0
    5.3430   -1.5100   27.7520 C   0  0  0  0  0  0  0  0  0  0  0  0
    5.4170   -3.0380   27.8350 C   0  0  0  0  0  0  0  0  0  0  0  0
    7.4310   -3.1730   23.7730 C   0  0  0  0  0  0  0  0  0  0  0  0
    7.6980   -3.3320   22.2970 C   0  0  0  0  0  0  0  0  0  0  0  0
  1  2  1  0
  2  3  2  0
  2  4  1  0
  4  5  1  0
  5  6  1  0
  6  7  1  0
  7  8  1  0
  8  9  2  0
  8 10  1  0
 10 11  1  0
 11 12  1  0
 12 13  1  0
 12 14  1  0
 12 15  1  0
 15 16  1  0
 16 17  2  0
 16 18  1  0
 18 19  1  0
 19 20  2  0
 20 21  1  0
 21 22  2  0
 10 23  1  0
 18 23  2  0
 22 23  1  0
  7 24  1  0
  4 25  1  0
 24 25  1  0
M  END
