piperidine-amides-1180-covalent
     RDKit          3D

 23 24  0  0  0  0  0  0  0  0999 V2000
    7.2030   -3.2420   19.1380 C   0  0  0  0  0  0  0  0  0  0  0  0
    6.3790   -3.9260   20.1640 C   0  0  0  0  0  0  0  0  0  0  0  0
    5.2900   -4.4260   19.8420 O   0  0  0  0  0  0  0  0  0  0  0  0
    6.8960   -4.0460   21.4640 N   0  0  0  0  0  0  0  0  0  0  0  0
    7.6840   -3.0160   22.0840 C   0  0  0  0  0  0  0  0  0  0  0  0
    7.4690   -3.1720   23.5930 C   0  0  0  0  0  0  0  0  0  0  0  0
    5.9980   -3.3370   23.7900 C   0  0  0  0  0  0  0  0  0  0  0  0
    5.5010   -2.8530   25.1150 C   0  0  0  0  0  0  0  0  0  0  0  0
    4.4770   -2.1700   25.0820 O   0  0  0  0  0  0  0  0  0  0  0  0
    6.1380   -3.1640   26.3310 N   0  0  0  0  0  0  0  0  0  0  0  0
    5.4850   -3.6720   27.4960 C   0  0  0  0  0  0  0  0  0  0  0  0
    5.6450   -4.9640   27.9260 C   0  0  0  0  0  0  0  0  0  0  0  0
    4.7450   -5.9560   27.5170 C   0  0  0  0  0  0  0  0  0  0  0  0
    5.8510   -5.0580   29.4090 C   0  0  0  0  0  0  0  0  0  0  0  0
    6.8790   -5.2860   27.3330 C   0  0  0  0  0  0  0  0  0  0  0  0
    8.1280   -5.4070   28.1320 C   0  0  0  0  0  0  0  0  0  0  0  0
    9.3520   -5.7260   27.3870 C   0  0  0  0  0  0  0  0  0  0  0  0
    9.3160   -5.8760   26.0560 C   0  0  0  0  0  0  0  0  0  0  0  0
    8.1760   -5.7880   25.1220 C   0  0  0  0  0  0  0  0  0  0  0  0
    6.8920   -5.4870   25.8670 C   0  0  0  0  0  0  0  0  0  0  0  0
    5.3660   -5.3710   25.0190 Cl  0  0  0  0  0  0  0  0  0  0  0  0
    5.6140   -4.7170   23.4010 C   0  0  0  0  0  0  0  0  0  0  0  0
    6.5320   -5.1730   22.2550 C   0  0  0  0  0  0  0  0  0  0  0  0
  1  2  1  0
  2  3  2  0
  2  4  1  0
  4  5  1  0
  5  6  1  0
  6  7  1  0
  7  8  1  0
  8  9  2  0
  8 10  1  0
 10 11  1  0
 12 11  1  0
 12 13  1  0
 12 14  1  0
 12 15  1  0
 15 16  2  0
 16 17  1  0
 17 18  2  0
 18 19  1  0
 15 20  1  0
 19 20  2  0
 20 21  1  0
  7 22  1  0
  4 23  1  0
 22 23  1  0
M  END
