piperidine-amides-11954-covalent
     RDKit          3D

 26 28  0  0  0  0  0  0  0  0999 V2000
    7.1760   -3.3090   19.2730 C   0  0  0  0  0  0  0  0  0  0  0  0
    6.4740   -4.1240   20.2540 C   0  0  0  0  0  0  0  0  0  0  0  0
    5.4140   -4.6790   19.9520 O   0  0  0  0  0  0  0  0  0  0  0  0
    7.0710   -4.3190   21.5490 N   0  0  0  0  0  0  0  0  0  0  0  0
    7.8950   -3.3060   22.1320 C   0  0  0  0  0  0  0  0  0  0  0  0
    7.1490   -2.6110   23.2180 C   0  0  0  0  0  0  0  0  0  0  0  0
    6.5380   -3.6210   24.1900 C   0  0  0  0  0  0  0  0  0  0  0  0
    5.4730   -2.8890   24.9070 C   0  0  0  0  0  0  0  0  0  0  0  0
    4.5120   -2.3750   24.3140 O   0  0  0  0  0  0  0  0  0  0  0  0
    5.5070   -2.7610   26.2930 N   0  0  0  0  0  0  0  0  0  0  0  0
    4.2330   -3.0090   26.9220 C   0  0  0  0  0  0  0  0  0  0  0  0
    4.2890   -4.4270   27.3620 C   0  0  2  0  0  0  0  0  0  0  0  0
    5.5640   -4.6650   27.5500 C   0  0  0  0  0  0  0  0  0  0  0  0
    6.1570   -5.8260   27.0450 C   0  0  0  0  0  0  0  0  0  0  0  0
    7.4710   -6.0070   27.2670 C   0  0  0  0  0  0  0  0  0  0  0  0
    8.1800   -5.0520   27.9840 C   0  0  0  0  0  0  0  0  0  0  0  0
    9.8100   -5.4040   28.2340 Cl  0  0  0  0  0  0  0  0  0  0  0  0
    7.6230   -3.9490   28.4410 C   0  0  0  0  0  0  0  0  0  0  0  0
    6.3230   -3.7440   28.2400 C   0  0  0  0  0  0  0  0  0  0  0  0
    3.7660   -5.4800   26.6860 N   0  0  0  0  0  0  0  0  0  0  0  0
    3.6700   -6.7650   27.0970 C   0  0  0  0  0  0  0  0  0  0  0  0
    3.0740   -7.5640   26.1080 C   0  0  0  0  0  0  0  0  0  0  0  0
    2.8170   -6.7150   25.0900 C   0  0  0  0  0  0  0  0  0  0  0  0
    3.2440   -5.3420   25.4100 N   0  0  0  0  0  0  0  0  0  0  0  0
    5.8610   -4.8230   23.5540 C   0  0  0  0  0  0  0  0  0  0  0  0
    6.5740   -5.3560   22.3580 C   0  0  0  0  0  0  0  0  0  0  0  0
  1  2  1  0
  2  3  2  0
  2  4  1  0
  4  5  1  0
  5  6  1  0
  6  7  1  0
  7  8  1  0
  8  9  2  0
  8 10  1  0
 10 11  1  0
 12 11  1  6
 12 13  1  0
 13 14  2  0
 14 15  1  0
 15 16  2  0
 16 17  1  0
 16 18  1  0
 13 19  1  0
 18 19  2  0
 12 20  1  0
 20 21  1  0
 21 22  2  0
 22 23  1  0
 20 24  1  0
 23 24  2  0
  7 25  1  0
  4 26  1  0
 25 26  1  0
M  END
