piperidine-amides-13838-covalent
     RDKit          3D

 27 29  0  0  0  0  0  0  0  0999 V2000
    7.1010   -3.2840   19.2650 C   0  0  0  0  0  0  0  0  0  0  0  0
    6.3540   -4.0890   20.2720 C   0  0  0  0  0  0  0  0  0  0  0  0
    5.3090   -4.6660   19.9270 O   0  0  0  0  0  0  0  0  0  0  0  0
    6.8820   -4.2140   21.5750 N   0  0  0  0  0  0  0  0  0  0  0  0
    7.6140   -3.1480   22.2090 C   0  0  0  0  0  0  0  0  0  0  0  0
    6.7230   -2.6140   23.3350 C   0  0  0  0  0  0  0  0  0  0  0  0
    6.5060   -3.7280   24.3050 C   0  0  0  0  0  0  0  0  0  0  0  0
    5.6930   -3.3340   25.4880 C   0  0  0  0  0  0  0  0  0  0  0  0
    4.4950   -3.1370   25.2590 O   0  0  0  0  0  0  0  0  0  0  0  0
    6.2510   -3.2020   26.7760 N   0  0  0  0  0  0  0  0  0  0  0  0
    6.2810   -4.1770   27.8200 C   0  0  0  0  0  0  0  0  0  0  0  0
    5.3590   -4.3410   28.8200 C   0  0  0  0  0  0  0  0  0  0  0  0
    4.4660   -3.2770   29.1190 C   0  0  0  0  0  0  0  0  0  0  0  0
    3.5010   -3.3440   30.1100 C   0  0  0  0  0  0  0  0  0  0  0  0
    3.3880   -4.5830   30.9010 C   0  0  0  0  0  0  0  0  0  0  0  0
    4.3550   -5.6900   30.5560 C   0  0  0  0  0  0  0  0  0  0  0  0
    4.1810   -6.9440   31.4210 C   0  0  0  0  0  0  0  0  0  0  0  0
    4.7510   -7.0590   32.6400 N   0  0  0  0  0  0  0  0  0  0  0  0
    4.2030   -6.2040   33.5350 C   0  0  0  0  0  0  0  0  0  0  0  0
    3.7540   -7.0790   34.6570 C   0  0  0  0  0  0  0  0  0  0  0  0
    4.8040   -7.3570   35.2870 O   0  0  0  0  0  0  0  0  0  0  0  0
    5.6920   -8.0180   34.4940 C   0  0  1  0  0  0  0  0  0  0  0  0
    5.4930   -9.3460   34.2050 C   0  0  0  0  0  0  0  0  0  0  0  0
    5.3730   -8.2580   33.0810 C   0  0  0  0  0  0  0  0  0  0  0  0
    5.2760   -5.5250   29.5550 C   0  0  0  0  0  0  0  0  0  0  0  0
    5.8080   -4.9130   23.6560 C   0  0  0  0  0  0  0  0  0  0  0  0
    6.4820   -5.3480   22.4000 C   0  0  0  0  0  0  0  0  0  0  0  0
  1  2  1  0
  2  3  2  0
  2  4  1  0
  4  5  1  0
  5  6  1  0
  6  7  1  0
  7  8  1  0
  8  9  2  0
  8 10  1  0
 10 11  1  0
 11 12  1  0
 12 13  2  0
 13 14  1  0
 14 15  2  0
 15 16  1  0
 16 17  1  0
 17 18  1  0
 18 19  1  0
 19 20  1  0
 20 21  1  0
 21 22  1  0
 22 23  1  1
 18 24  1  0
 22 24  1  0
 12 25  1  0
 16 25  2  0
  7 26  1  0
  4 27  1  0
 26 27  1  0
M  END
