piperidine-amides-7198-covalent
     RDKit          3D

 21 22  0  0  0  0  0  0  0  0999 V2000
    7.0680   -3.2830   19.2580 C   0  0  0  0  0  0  0  0  0  0  0  0
    6.3540   -4.0570   20.2870 C   0  0  0  0  0  0  0  0  0  0  0  0
    5.2980   -4.6270   19.9110 O   0  0  0  0  0  0  0  0  0  0  0  0
    6.8530   -4.1830   21.5900 N   0  0  0  0  0  0  0  0  0  0  0  0
    6.6680   -5.4070   22.3400 C   0  0  0  0  0  0  0  0  0  0  0  0
    6.0770   -5.0670   23.6790 C   0  0  0  0  0  0  0  0  0  0  0  0
    6.0270   -3.5820   23.9100 C   0  0  0  0  0  0  0  0  0  0  0  0
    5.6150   -3.2510   25.2900 C   0  0  0  0  0  0  0  0  0  0  0  0
    4.3930   -3.1210   25.5130 O   0  0  0  0  0  0  0  0  0  0  0  0
    6.5100   -3.0740   26.3590 N   0  0  0  0  0  0  0  0  0  0  0  0
    6.2070   -3.5660   27.6810 C   0  0  0  0  0  0  0  0  0  0  0  0
    5.7000   -5.0070   27.7280 C   0  0  0  0  0  0  0  0  0  0  0  0
    5.4950   -5.6780   28.9020 C   0  0  0  0  0  0  0  0  0  0  0  0
    6.3670   -6.6550   29.3260 C   0  0  0  0  0  0  0  0  0  0  0  0
    6.1420   -7.2970   30.4880 N   0  0  0  0  0  0  0  0  0  0  0  0
    5.1090   -7.0340   31.2610 C   0  0  0  0  0  0  0  0  0  0  0  0
    4.8920   -7.6960   32.4530 C   0  0  0  0  0  0  0  0  0  0  0  0
    4.2440   -6.0700   30.8420 C   0  0  0  0  0  0  0  0  0  0  0  0
    4.4280   -5.4040   29.6890 N   0  0  0  0  0  0  0  0  0  0  0  0
    7.3900   -2.9600   23.6160 C   0  0  0  0  0  0  0  0  0  0  0  0
    7.6990   -3.1420   22.1360 C   0  0  0  0  0  0  0  0  0  0  0  0
  1  2  1  0
  2  3  2  0
  2  4  1  0
  4  5  1  0
  5  6  1  0
  6  7  1  0
  7  8  1  0
  8  9  2  0
  8 10  1  0
 10 11  1  0
 11 12  1  0
 12 13  1  0
 13 14  2  0
 14 15  1  0
 15 16  2  0
 16 17  1  0
 16 18  1  0
 13 19  1  0
 18 19  2  0
  7 20  1  0
  4 21  1  0
 20 21  1  0
M  END
