piperidine-amides-24807-covalent
     RDKit          3D

 25 27  0  0  0  0  0  0  0  0999 V2000
    7.0790   -3.2860   19.3390 C   0  0  0  0  0  0  0  0  0  0  0  0
    6.3770   -4.1170   20.3310 C   0  0  0  0  0  0  0  0  0  0  0  0
    5.3930   -4.8060   19.9750 O   0  0  0  0  0  0  0  0  0  0  0  0
    6.8150   -4.1800   21.6700 N   0  0  0  0  0  0  0  0  0  0  0  0
    7.7020   -3.1350   22.1670 C   0  0  0  0  0  0  0  0  0  0  0  0
    7.5110   -3.0260   23.6850 C   0  0  0  0  0  0  0  0  0  0  0  0
    6.1550   -3.6220   23.9460 C   0  0  0  0  0  0  0  0  0  0  0  0
    5.5820   -3.2620   25.2680 C   0  0  0  0  0  0  0  0  0  0  0  0
    4.3540   -3.0450   25.2920 O   0  0  0  0  0  0  0  0  0  0  0  0
    6.3420   -3.1410   26.4660 N   0  0  0  0  0  0  0  0  0  0  0  0
    6.7950   -1.8030   26.7380 C   0  0  0  0  0  0  0  0  0  0  0  0
    5.7470   -3.8210   27.6090 C   0  0  2  0  0  0  0  0  0  0  0  0
    6.6680   -4.4900   28.3630 C   0  0  0  0  0  0  0  0  0  0  0  0
    4.6800   -4.8490   27.3090 C   0  0  0  0  0  0  0  0  0  0  0  0
    4.9990   -5.9140   26.5670 C   0  0  0  0  0  0  0  0  0  0  0  0
    4.0290   -6.8420   26.3010 C   0  0  0  0  0  0  0  0  0  0  0  0
    2.5350   -7.0110   26.6580 C   0  0  0  0  0  0  0  0  0  0  0  0
    2.3350   -5.7160   27.5010 C   0  0  0  0  0  0  0  0  0  0  0  0
    0.8480   -5.7250   27.9510 C   0  0  0  0  0  0  0  0  0  0  0  0
    0.7580   -4.4510   28.7460 C   0  0  0  0  0  0  0  0  0  0  0  0
    1.6950   -3.4660   29.0540 C   0  0  0  0  0  0  0  0  0  0  0  0
    2.9150   -3.5970   28.6030 C   0  0  0  0  0  0  0  0  0  0  0  0
    3.3100   -4.7420   27.7910 C   0  0  0  0  0  0  0  0  0  0  0  0
    6.1440   -5.1220   23.7930 C   0  0  0  0  0  0  0  0  0  0  0  0
    6.6770   -5.4310   22.3790 C   0  0  0  0  0  0  0  0  0  0  0  0
  1  2  1  0
  2  3  2  0
  2  4  1  0
  4  5  1  0
  5  6  1  0
  6  7  1  0
  7  8  1  0
  8  9  2  0
  8 10  1  0
 10 11  1  0
 10 12  1  0
 12 13  1  6
 12 14  1  0
 14 15  2  0
 15 16  1  0
 16 17  2  0
 17 18  1  0
 18 19  1  0
 19 20  2  0
 20 21  1  0
 21 22  2  0
 14 23  1  0
 18 23  2  0
 22 23  1  0
  7 24  1  0
  4 25  1  0
 24 25  1  0
M  END
