piperidine-amides-25682-covalent
     RDKit          3D

 25 27  0  0  0  0  0  0  0  0999 V2000
    6.9980   -3.4100   19.4690 C   0  0  0  0  0  0  0  0  0  0  0  0
    6.3370   -4.3060   20.4570 C   0  0  0  0  0  0  0  0  0  0  0  0
    5.4140   -4.9930   20.0150 O   0  0  0  0  0  0  0  0  0  0  0  0
    6.7770   -4.3720   21.7960 N   0  0  0  0  0  0  0  0  0  0  0  0
    6.6380   -5.5860   22.5800 C   0  0  0  0  0  0  0  0  0  0  0  0
    6.0790   -5.2630   23.9510 C   0  0  0  0  0  0  0  0  0  0  0  0
    5.9810   -3.7510   24.0620 C   0  0  0  0  0  0  0  0  0  0  0  0
    5.4470   -3.2300   25.3700 C   0  0  0  0  0  0  0  0  0  0  0  0
    4.8910   -2.1320   25.3260 O   0  0  0  0  0  0  0  0  0  0  0  0
    5.4710   -3.8630   26.6550 N   0  0  0  0  0  0  0  0  0  0  0  0
    4.1890   -4.2170   27.2060 C   0  0  0  0  0  0  0  0  0  0  0  0
    4.4180   -4.6740   28.6380 C   0  0  0  0  0  0  0  0  0  0  0  0
    5.5490   -5.3340   28.9470 C   0  0  0  0  0  0  0  0  0  0  0  0
    6.5850   -4.8040   28.3440 C   0  0  0  0  0  0  0  0  0  0  0  0
    6.3390   -3.5880   27.7130 C   0  0  2  0  0  0  0  0  0  0  0  0
    6.0510   -2.3100   28.4960 C   0  0  0  0  0  0  0  0  0  0  0  0
    4.6360   -1.8750   28.3910 C   0  0  0  0  0  0  0  0  0  0  0  0
    4.2850   -0.6060   29.1530 C   0  0  0  0  0  0  0  0  0  0  0  0
    5.3620    0.1160   29.9430 C   0  0  0  0  0  0  0  0  0  0  0  0
    4.9330    1.2690   30.6060 O   0  0  0  0  0  0  0  0  0  0  0  0
    5.7010    1.6380   31.6790 C   0  0  0  0  0  0  0  0  0  0  0  0
    6.7720   -0.4120   29.9810 C   0  0  0  0  0  0  0  0  0  0  0  0
    7.1730   -1.6340   29.2640 C   0  0  0  0  0  0  0  0  0  0  0  0
    7.3250   -3.1260   23.7210 C   0  0  0  0  0  0  0  0  0  0  0  0
    7.5980   -3.2950   22.3700 C   0  0  0  0  0  0  0  0  0  0  0  0
  1  2  1  0
  2  3  2  0
  2  4  1  0
  4  5  1  0
  5  6  1  0
  6  7  1  0
  7  8  1  0
  8  9  2  0
  8 10  1  0
 10 11  1  0
 11 12  1  0
 12 13  1  0
 13 14  1  0
 10 15  1  0
 14 15  1  0
 15 16  1  1
 16 17  2  0
 17 18  1  0
 18 19  2  0
 19 20  1  0
 20 21  1  0
 19 22  1  0
 16 23  1  0
 22 23  2  0
  7 24  1  0
  4 25  1  0
 24 25  1  0
M  END
