piperidine-amides-26982-covalent
     RDKit          3D

 25 27  0  0  0  0  0  0  0  0999 V2000
    7.0450   -3.3390   19.3290 C   0  0  0  0  0  0  0  0  0  0  0  0
    6.3850   -4.1680   20.3440 C   0  0  0  0  0  0  0  0  0  0  0  0
    5.3590   -4.7950   19.9680 O   0  0  0  0  0  0  0  0  0  0  0  0
    6.9070   -4.2870   21.6390 N   0  0  0  0  0  0  0  0  0  0  0  0
    6.6950   -5.4850   22.4220 C   0  0  0  0  0  0  0  0  0  0  0  0
    6.1130   -5.1160   23.7690 C   0  0  0  0  0  0  0  0  0  0  0  0
    6.1230   -3.6300   24.0350 C   0  0  0  0  0  0  0  0  0  0  0  0
    5.7700   -3.3570   25.4490 C   0  0  0  0  0  0  0  0  0  0  0  0
    4.5510   -3.3720   25.7270 O   0  0  0  0  0  0  0  0  0  0  0  0
    6.7020   -3.0890   26.4850 N   0  0  0  0  0  0  0  0  0  0  0  0
    7.5970   -4.1400   26.9350 C   0  0  0  0  0  0  0  0  0  0  0  0
    6.9530   -1.7150   26.8990 C   0  0  1  0  0  0  0  0  0  0  0  0
    5.9370   -0.8590   26.4450 C   0  0  0  0  0  0  0  0  0  0  0  0
    5.5660   -0.1170   27.4550 C   0  0  2  0  0  0  0  0  0  0  0  0
    5.7950    1.1380   27.8120 C   0  0  0  0  0  0  0  0  0  0  0  0
    6.3480    0.7380   29.0090 C   0  0  0  0  0  0  0  0  0  0  0  0
    6.2460   -0.6940   29.0690 C   0  0  2  0  0  0  0  0  0  0  0  0
    7.3930   -1.5510   28.4570 C   0  0  0  0  0  0  0  0  0  0  0  0
    5.0870   -0.7790   28.4500 N   0  0  0  0  0  0  0  0  0  0  0  0
    3.7080   -1.0930   28.4130 C   0  0  0  0  0  0  0  0  0  0  0  0
    2.9660   -0.1020   29.2880 C   0  0  0  0  0  0  0  0  0  0  0  0
    2.1660   -0.8760   30.1480 O   0  0  0  0  0  0  0  0  0  0  0  0
    1.5520    0.0270   31.0140 C   0  0  0  0  0  0  0  0  0  0  0  0
    7.4010   -2.9870   23.6490 C   0  0  0  0  0  0  0  0  0  0  0  0
    7.7060   -3.2190   22.1910 C   0  0  0  0  0  0  0  0  0  0  0  0
  1  2  1  0
  2  3  2  0
  2  4  1  0
  4  5  1  0
  5  6  1  0
  6  7  1  0
  7  8  1  0
  8  9  2  0
  8 10  1  0
 10 11  1  0
 12 10  1  1
 12 13  1  0
 14 13  1  1
 14 15  1  0
 15 16  1  0
 17 16  1  6
 12 18  1  0
 17 18  1  0
 14 19  1  0
 17 19  1  0
 19 20  1  0
 20 21  1  0
 21 22  1  0
 22 23  1  0
  7 24  1  0
  4 25  1  0
 24 25  1  0
M  END
