piperidine-amides-3948-covalent
     RDKit          3D

 30 32  0  0  0  0  0  0  0  0999 V2000
    7.0780   -3.3580   19.3270 C   0  0  0  0  0  0  0  0  0  0  0  0
    6.4370   -4.1970   20.3520 C   0  0  0  0  0  0  0  0  0  0  0  0
    5.4060   -4.8200   19.9900 O   0  0  0  0  0  0  0  0  0  0  0  0
    6.9900   -4.3490   21.6600 N   0  0  0  0  0  0  0  0  0  0  0  0
    7.7300   -3.2510   22.2240 C   0  0  0  0  0  0  0  0  0  0  0  0
    7.3940   -2.9660   23.6140 C   0  0  0  0  0  0  0  0  0  0  0  0
    6.1350   -3.6080   24.0010 C   0  0  0  0  0  0  0  0  0  0  0  0
    5.5140   -3.0580   25.2530 C   0  0  0  0  0  0  0  0  0  0  0  0
    4.3960   -2.5240   25.1290 O   0  0  0  0  0  0  0  0  0  0  0  0
    6.0710   -3.0920   26.5540 N   0  0  0  0  0  0  0  0  0  0  0  0
    6.3280   -1.8960   27.3060 C   0  0  0  0  0  0  0  0  0  0  0  0
    7.0530   -1.7940   28.5600 C   0  0  0  0  0  0  0  0  0  0  0  0
    7.1500   -0.3990   29.1460 C   0  0  0  0  0  0  0  0  0  0  0  0
    7.9010   -0.4010   30.4230 N   0  0  0  0  0  0  0  0  0  0  0  0
    6.6580    0.7990   28.6730 C   0  0  0  0  0  0  0  0  0  0  0  0
    5.8820    0.7550   27.3340 C   0  0  0  0  0  0  0  0  0  0  0  0
    5.3930    1.9770   26.8670 F   0  0  0  0  0  0  0  0  0  0  0  0
    5.7700   -0.6280   26.7320 C   0  0  0  0  0  0  0  0  0  0  0  0
    5.5920   -4.2120   27.3520 C   0  0  0  0  0  0  0  0  0  0  0  0
    5.7480   -3.8120   28.7870 C   0  0  0  0  0  0  0  0  0  0  0  0
    4.5730   -2.9010   29.1330 C   0  0  0  0  0  0  0  0  0  0  0  0
    3.3500   -3.6510   28.8740 N   0  0  0  0  0  0  0  0  0  0  0  0
    2.3650   -3.7910   30.3010 S   0  0  0  0  0  0  0  0  0  0  0  0
    1.1050   -2.5480   30.3100 C   0  0  0  0  0  0  0  0  0  0  0  0
    1.6710   -5.1270   30.2350 O   0  0  0  0  0  0  0  0  0  0  0  0
    3.1500   -3.6840   31.5730 O   0  0  0  0  0  0  0  0  0  0  0  0
    3.5910   -4.9380   28.1970 C   0  0  0  0  0  0  0  0  0  0  0  0
    4.2880   -4.6170   27.0150 C   0  0  0  0  0  0  0  0  0  0  0  0
    6.1480   -5.0890   23.8530 C   0  0  0  0  0  0  0  0  0  0  0  0
    6.6150   -5.4890   22.4660 C   0  0  0  0  0  0  0  0  0  0  0  0
  1  2  1  0
  2  3  2  0
  2  4  1  0
  4  5  1  0
  5  6  1  0
  6  7  1  0
  7  8  1  0
  8  9  2  0
  8 10  1  0
 10 11  1  0
 11 12  2  0
 12 13  1  0
 13 14  1  0
 13 15  2  0
 15 16  1  0
 16 17  1  0
 11 18  1  0
 16 18  2  0
 10 19  1  0
 19 20  1  0
 20 21  1  0
 21 22  1  0
 22 23  1  0
 23 24  1  0
 23 25  2  0
 23 26  2  0
 22 27  1  0
 19 28  1  0
 27 28  1  0
  7 29  1  0
  4 30  1  0
 29 30  1  0
M  END
