piperidine-amides-25428-covalent
     RDKit          3D

 20 21  0  0  0  0  0  0  0  0999 V2000
    7.0690   -3.2890   19.2760 C   0  0  0  0  0  0  0  0  0  0  0  0
    6.3400   -4.1250   20.2710 C   0  0  0  0  0  0  0  0  0  0  0  0
    5.2850   -4.6260   19.9010 O   0  0  0  0  0  0  0  0  0  0  0  0
    6.8550   -4.3740   21.5460 N   0  0  0  0  0  0  0  0  0  0  0  0
    6.2620   -5.4120   22.3430 C   0  0  0  0  0  0  0  0  0  0  0  0
    5.4110   -4.7570   23.3930 C   0  0  0  0  0  0  0  0  0  0  0  0
    6.3580   -3.9500   24.2690 C   0  0  0  0  0  0  0  0  0  0  0  0
    5.6650   -3.3610   25.4290 C   0  0  0  0  0  0  0  0  0  0  0  0
    4.4690   -3.0570   25.3350 O   0  0  0  0  0  0  0  0  0  0  0  0
    6.3560   -3.1420   26.6440 N   0  0  0  0  0  0  0  0  0  0  0  0
    6.5320   -4.2990   27.4990 C   0  0  0  0  0  0  0  0  0  0  0  0
    6.3510   -1.8390   27.2480 C   0  0  0  0  0  0  0  0  0  0  0  0
    6.7090   -1.5370   28.5370 N   0  0  0  0  0  0  0  0  0  0  0  0
    6.5480   -0.2860   28.6570 N   0  0  0  0  0  0  0  0  0  0  0  0
    6.8260    0.2960   29.8370 C   0  0  0  0  0  0  0  0  0  0  0  0
    6.0890    0.5200   27.6020 C   0  0  0  0  0  0  0  0  0  0  0  0
    5.9460   -0.5420   26.6090 C   0  0  0  0  0  0  0  0  0  0  0  0
    5.3510   -0.4020   24.7890 Br  0  0  0  0  0  0  0  0  0  0  0  0
    7.0290   -2.8470   23.4640 C   0  0  0  0  0  0  0  0  0  0  0  0
    7.6330   -3.3730   22.2100 C   0  0  0  0  0  0  0  0  0  0  0  0
  1  2  1  0
  2  3  2  0
  2  4  1  0
  4  5  1  0
  5  6  1  0
  6  7  1  0
  7  8  1  0
  8  9  2  0
  8 10  1  0
 10 11  1  0
 10 12  1  0
 12 13  2  0
 13 14  1  0
 14 15  1  0
 14 16  1  0
 12 17  1  0
 16 17  2  0
 17 18  1  0
  7 19  1  0
  4 20  1  0
 19 20  1  0
M  END
