piperidine-amides-10429-covalent
     RDKit          3D

 24 25  0  0  0  0  0  0  0  0999 V2000
    7.1070   -3.2750   19.2330 C   0  0  0  0  0  0  0  0  0  0  0  0
    6.3670   -4.0300   20.2490 C   0  0  0  0  0  0  0  0  0  0  0  0
    5.2820   -4.5530   19.8850 O   0  0  0  0  0  0  0  0  0  0  0  0
    6.8920   -4.1910   21.5330 N   0  0  0  0  0  0  0  0  0  0  0  0
    7.7180   -3.1890   22.1590 C   0  0  0  0  0  0  0  0  0  0  0  0
    7.0140   -2.6890   23.3850 C   0  0  0  0  0  0  0  0  0  0  0  0
    6.4850   -3.8250   24.2190 C   0  0  0  0  0  0  0  0  0  0  0  0
    5.8190   -3.2940   25.4320 C   0  0  0  0  0  0  0  0  0  0  0  0
    4.5780   -3.1350   25.3910 O   0  0  0  0  0  0  0  0  0  0  0  0
    6.5020   -2.9640   26.6250 N   0  0  0  0  0  0  0  0  0  0  0  0
    5.9780   -3.3600   27.9090 C   0  0  1  0  0  0  0  0  0  0  0  0
    6.6280   -4.6470   28.4230 C   0  0  0  0  0  0  0  0  0  0  0  0
    6.0400   -2.3050   28.9600 C   0  0  0  0  0  0  0  0  0  0  0  0
    7.2120   -1.6300   29.3100 C   0  0  0  0  0  0  0  0  0  0  0  0
    7.2950   -0.6570   30.3080 C   0  0  0  0  0  0  0  0  0  0  0  0
    6.2060   -0.2590   31.0560 C   0  0  0  0  0  0  0  0  0  0  0  0
    6.3700    0.9740   32.3280 S   0  0  0  0  0  0  0  0  0  0  0  0
    7.8430    0.4700   33.3030 C   0  0  0  0  0  0  0  0  0  0  0  0
    6.6130    2.2990   31.7000 O   0  0  0  0  0  0  0  0  0  0  0  0
    5.1870    0.9400   33.2280 O   0  0  0  0  0  0  0  0  0  0  0  0
    4.8880   -0.9450   30.7180 C   0  0  0  0  0  0  0  0  0  0  0  0
    4.8910   -1.9880   29.6250 C   0  0  0  0  0  0  0  0  0  0  0  0
    5.5580   -4.7390   23.4070 C   0  0  0  0  0  0  0  0  0  0  0  0
    6.4720   -5.3250   22.3430 C   0  0  0  0  0  0  0  0  0  0  0  0
  1  2  1  0
  2  3  2  0
  2  4  1  0
  4  5  1  0
  5  6  1  0
  6  7  1  0
  7  8  1  0
  8  9  2  0
  8 10  1  0
 10 11  1  0
 11 12  1  1
 11 13  1  0
 13 14  2  0
 14 15  1  0
 15 16  2  0
 16 17  1  0
 17 18  1  0
 17 19  2  0
 17 20  2  0
 16 21  1  0
 13 22  1  0
 21 22  2  0
  7 23  1  0
  4 24  1  0
 23 24  1  0
M  END
