piperidine-amides-17011-covalent
     RDKit          3D

 20 21  0  0  0  0  0  0  0  0999 V2000
    7.1730   -3.3450   19.2880 C   0  0  0  0  0  0  0  0  0  0  0  0
    6.4260   -4.1340   20.2700 C   0  0  0  0  0  0  0  0  0  0  0  0
    5.3200   -4.6080   19.9120 O   0  0  0  0  0  0  0  0  0  0  0  0
    6.9990   -4.3980   21.5310 N   0  0  0  0  0  0  0  0  0  0  0  0
    6.4650   -5.4570   22.2980 C   0  0  0  0  0  0  0  0  0  0  0  0
    5.8860   -5.0200   23.5620 C   0  0  0  0  0  0  0  0  0  0  0  0
    6.5350   -3.8520   24.2180 C   0  0  0  0  0  0  0  0  0  0  0  0
    5.6550   -3.3410   25.3100 C   0  0  0  0  0  0  0  0  0  0  0  0
    4.4720   -3.0450   25.0660 O   0  0  0  0  0  0  0  0  0  0  0  0
    6.1330   -3.1970   26.6110 N   0  0  0  0  0  0  0  0  0  0  0  0
    5.3490   -3.0340   27.7560 C   0  0  0  0  0  0  0  0  0  0  0  0
    5.9120   -3.7390   28.8750 C   0  0  0  0  0  0  0  0  0  0  0  0
    7.1300   -4.4060   28.2100 C   0  0  0  0  0  0  0  0  0  0  0  0
    7.3160   -3.9140   26.9300 C   0  0  1  0  0  0  0  0  0  0  0  0
    7.2800   -5.3680   26.4950 C   0  0  0  0  0  0  0  0  0  0  0  0
    8.4390   -5.9860   26.9770 N   0  0  0  0  0  0  0  0  0  0  0  0
    9.4280   -5.8130   25.9500 C   0  0  0  0  0  0  0  0  0  0  0  0
    8.7510   -5.6600   28.2080 C   0  0  0  0  0  0  0  0  0  0  0  0
    6.9310   -2.7290   23.2900 C   0  0  0  0  0  0  0  0  0  0  0  0
    7.7530   -3.3650   22.2020 C   0  0  0  0  0  0  0  0  0  0  0  0
  1  2  1  0
  2  3  2  0
  2  4  1  0
  4  5  1  0
  5  6  1  0
  6  7  1  0
  7  8  1  0
  8  9  2  0
  8 10  1  0
 10 11  1  0
 11 12  1  0
 12 13  1  0
 10 14  1  0
 13 14  1  0
 14 15  1  6
 15 16  1  0
 16 17  1  0
 16 18  1  0
  7 19  1  0
  4 20  1  0
 19 20  1  0
M  END
