piperidine-amides-412-covalent
     RDKit          3D

 28 30  0  0  0  0  0  0  0  0999 V2000
    7.1540   -3.3030   19.0830 C   0  0  0  0  0  0  0  0  0  0  0  0
    6.3830   -3.9280   20.1300 C   0  0  0  0  0  0  0  0  0  0  0  0
    5.2570   -4.4310   19.8380 O   0  0  0  0  0  0  0  0  0  0  0  0
    6.8670   -4.0590   21.4360 N   0  0  0  0  0  0  0  0  0  0  0  0
    6.6260   -5.3520   22.1020 C   0  0  0  0  0  0  0  0  0  0  0  0
    5.5750   -4.8920   23.1770 C   0  0  0  0  0  0  0  0  0  0  0  0
    5.8480   -3.4200   23.4160 C   0  0  0  0  0  0  0  0  0  0  0  0
    5.2030   -2.9580   24.7670 C   0  0  0  0  0  0  0  0  0  0  0  0
    4.2590   -2.1970   24.6460 O   0  0  0  0  0  0  0  0  0  0  0  0
    5.8960   -3.5570   25.5970 N   0  0  0  0  0  0  0  0  0  0  0  0
    6.6460   -4.2330   26.4530 C   0  0  0  0  0  0  0  0  0  0  0  0
    6.6660   -4.6210   27.7230 C   0  0  0  0  0  0  0  0  0  0  0  0
    5.5420   -5.5650   27.8340 N   0  0  0  0  0  0  0  0  0  0  0  0
    5.1270   -6.3600   26.8380 C   0  0  0  0  0  0  0  0  0  0  0  0
    4.4500   -4.9130   28.3890 C   0  0  0  0  0  0  0  0  0  0  0  0
    3.5560   -5.9640   29.0600 C   0  0  0  0  0  0  0  0  0  0  0  0
    2.7880   -5.1880   29.9340 C   0  0  0  0  0  0  0  0  0  0  0  0
    1.7510   -5.5040   30.8720 C   0  0  0  0  0  0  0  0  0  0  0  0
    1.7280   -7.0460   30.6160 C   0  0  0  0  0  0  0  0  0  0  0  0
    2.5710   -7.9430   29.6500 C   0  0  0  0  0  0  0  0  0  0  0  0
    3.4750   -7.3300   28.8950 C   0  0  0  0  0  0  0  0  0  0  0  0
    7.8180   -5.2930   28.3440 C   0  0  0  0  0  0  0  0  0  0  0  0
    8.1340   -4.3170   27.4530 C   0  0  0  0  0  0  0  0  0  0  0  0
    8.3230   -3.0690   28.0200 C   0  0  0  0  0  0  0  0  0  0  0  0
    7.2120   -2.3450   28.4190 C   0  0  0  0  0  0  0  0  0  0  0  0
    6.4150   -3.5930   28.6000 C   0  0  0  0  0  0  0  0  0  0  0  0
    7.2800   -2.9350   23.4040 C   0  0  0  0  0  0  0  0  0  0  0  0
    7.7090   -3.0230   21.9670 C   0  0  0  0  0  0  0  0  0  0  0  0
  1  2  1  0
  2  3  2  0
  2  4  1  0
  4  5  1  0
  5  6  1  0
  6  7  1  0
  7  8  1  0
  8  9  2  0
  8 10  1  0
 10 11  1  0
 11 12  1  0
 12 13  1  0
 13 14  1  0
 13 15  1  0
 15 16  1  0
 16 17  2  0
 17 18  1  0
 18 19  2  0
 19 20  1  0
 16 21  1  0
 20 21  2  0
 12 22  1  0
 22 23  1  0
 23 24  1  0
 24 25  1  0
 12 26  1  0
 25 26  1  0
  7 27  1  0
  4 28  1  0
 27 28  1  0
M  END
