piperidine-amides-28159-covalent
     RDKit          3D

 26 28  0  0  0  0  0  0  0  0999 V2000
    6.9990   -3.3900   19.3690 C   0  0  0  0  0  0  0  0  0  0  0  0
    6.4010   -4.2760   20.3990 C   0  0  0  0  0  0  0  0  0  0  0  0
    5.4230   -4.9490   20.0090 O   0  0  0  0  0  0  0  0  0  0  0  0
    6.9360   -4.3790   21.7100 N   0  0  0  0  0  0  0  0  0  0  0  0
    6.6300   -5.5070   22.5470 C   0  0  0  0  0  0  0  0  0  0  0  0
    6.0620   -5.1210   23.8540 C   0  0  0  0  0  0  0  0  0  0  0  0
    6.0480   -3.6570   24.0030 C   0  0  0  0  0  0  0  0  0  0  0  0
    5.4310   -3.0870   25.2510 C   0  0  0  0  0  0  0  0  0  0  0  0
    4.9310   -1.9670   25.1190 O   0  0  0  0  0  0  0  0  0  0  0  0
    5.3320   -3.6730   26.5320 N   0  0  0  0  0  0  0  0  0  0  0  0
    4.1910   -3.3440   27.3740 C   0  0  0  0  0  0  0  0  0  0  0  0
    4.5490   -3.7430   28.7450 C   0  0  0  0  0  0  0  0  0  0  0  0
    5.2620   -4.9350   28.9190 N   0  0  0  0  0  0  0  0  0  0  0  0
    4.5850   -6.0470   29.5170 C   0  0  0  0  0  0  0  0  0  0  0  0
    3.3830   -6.4540   28.9900 C   0  0  0  0  0  0  0  0  0  0  0  0
    2.6890   -7.5040   29.5870 C   0  0  0  0  0  0  0  0  0  0  0  0
    3.2460   -8.0850   30.7010 C   0  0  0  0  0  0  0  0  0  0  0  0
    4.4430   -7.6220   31.1520 C   0  0  0  0  0  0  0  0  0  0  0  0
    4.9930   -8.1720   32.2510 N   0  0  0  0  0  0  0  0  0  0  0  0
    4.2200   -8.7420   33.1290 O   0  0  0  0  0  0  0  0  0  0  0  0
    6.0880   -7.5460   32.8150 O   0  0  0  0  0  0  0  0  0  0  0  0
    5.1440   -6.6330   30.5970 C   0  0  0  0  0  0  0  0  0  0  0  0
    6.4410   -4.9310   28.1180 C   0  0  0  0  0  0  0  0  0  0  0  0
    6.4420   -3.6150   27.3850 C   0  0  0  0  0  0  0  0  0  0  0  0
    7.3580   -3.0320   23.6990 C   0  0  0  0  0  0  0  0  0  0  0  0
    7.7560   -3.3020   22.2690 C   0  0  0  0  0  0  0  0  0  0  0  0
  1  2  1  0
  2  3  2  0
  2  4  1  0
  4  5  1  0
  5  6  1  0
  6  7  1  0
  7  8  1  0
  8  9  2  0
  8 10  1  0
 10 11  1  0
 11 12  1  0
 12 13  1  0
 13 14  1  0
 14 15  2  0
 15 16  1  0
 16 17  2  0
 17 18  1  0
 18 19  1  0
 19 20  2  0
 19 21  1  0
 14 22  1  0
 18 22  2  0
 13 23  1  0
 10 24  1  0
 23 24  1  0
  7 25  1  0
  4 26  1  0
 25 26  1  0
M  CHG  2  19   1  21  -1
M  END
