piperidine-amides-2373-covalent
     RDKit          3D

 26 26  0  0  0  0  0  0  0  0999 V2000
    7.1300   -3.2630   19.2260 C   0  0  0  0  0  0  0  0  0  0  0  0
    6.3870   -4.0330   20.2580 C   0  0  0  0  0  0  0  0  0  0  0  0
    5.3440   -4.5850   19.9060 O   0  0  0  0  0  0  0  0  0  0  0  0
    6.9150   -4.1320   21.5490 N   0  0  0  0  0  0  0  0  0  0  0  0
    7.8460   -3.1440   22.0490 C   0  0  0  0  0  0  0  0  0  0  0  0
    7.5420   -2.8730   23.4780 C   0  0  0  0  0  0  0  0  0  0  0  0
    6.1660   -3.4560   23.7260 C   0  0  0  0  0  0  0  0  0  0  0  0
    5.7250   -3.0860   25.0710 C   0  0  0  0  0  0  0  0  0  0  0  0
    4.5730   -2.6520   25.2120 O   0  0  0  0  0  0  0  0  0  0  0  0
    6.5550   -3.1930   26.1970 N   0  0  0  0  0  0  0  0  0  0  0  0
    5.8080   -3.1600   27.4070 C   0  0  2  0  0  0  0  0  0  0  0  0
    6.2900   -4.0490   28.4980 C   0  0  0  0  0  0  0  0  0  0  0  0
    5.3370   -4.8080   29.1380 C   0  0  0  0  0  0  0  0  0  0  0  0
    5.6220   -6.1010   29.1270 C   0  0  0  0  0  0  0  0  0  0  0  0
    5.6440   -6.7850   30.3150 C   0  0  0  0  0  0  0  0  0  0  0  0
    4.7110   -7.2030   29.3260 C   0  0  0  0  0  0  0  0  0  0  0  0
    6.9110   -6.6130   28.7720 C   0  0  0  0  0  0  0  0  0  0  0  0
    4.5180   -3.9030   27.1340 C   0  0  0  0  0  0  0  0  0  0  0  0
    3.2900   -3.2840   27.2960 O   0  0  0  0  0  0  0  0  0  0  0  0
    4.5650   -5.2240   26.7130 O   0  0  0  0  0  0  0  0  0  0  0  0
    3.4410   -6.0230   26.5160 C   0  0  0  0  0  0  0  0  0  0  0  0
    2.3490   -5.5650   27.4280 C   0  0  0  0  0  0  0  0  0  0  0  0
    3.5290   -7.5110   26.5400 C   0  0  0  0  0  0  0  0  0  0  0  0
    2.5990   -5.5310   25.3600 C   0  0  0  0  0  0  0  0  0  0  0  0
    6.1610   -4.9680   23.5580 C   0  0  0  0  0  0  0  0  0  0  0  0
    6.7100   -5.3410   22.3440 C   0  0  0  0  0  0  0  0  0  0  0  0
  1  2  1  0
  2  3  2  0
  2  4  1  0
  4  5  1  0
  5  6  1  0
  6  7  1  0
  7  8  1  0
  8  9  2  0
  8 10  1  0
 10 11  1  0
 11 12  1  1
 12 13  1  0
 14 13  1  0
 14 15  1  0
 14 16  1  0
 14 17  1  0
 11 18  1  0
 18 19  2  0
 18 20  1  0
 21 20  1  0
 21 22  1  0
 21 23  1  0
 21 24  1  0
  7 25  1  0
  4 26  1  0
 25 26  1  0
M  END
