piperidine-amides-11700-covalent
     RDKit          3D

 29 31  0  0  0  0  0  0  0  0999 V2000
    7.0770   -3.3350   19.2660 C   0  0  0  0  0  0  0  0  0  0  0  0
    6.3880   -4.1400   20.2640 C   0  0  0  0  0  0  0  0  0  0  0  0
    5.3590   -4.7430   19.9580 O   0  0  0  0  0  0  0  0  0  0  0  0
    6.9350   -4.2870   21.5830 N   0  0  0  0  0  0  0  0  0  0  0  0
    6.5600   -5.4100   22.3960 C   0  0  0  0  0  0  0  0  0  0  0  0
    5.7690   -4.9300   23.5850 C   0  0  0  0  0  0  0  0  0  0  0  0
    6.5650   -3.8250   24.2690 C   0  0  0  0  0  0  0  0  0  0  0  0
    5.7720   -3.2430   25.3830 C   0  0  0  0  0  0  0  0  0  0  0  0
    4.5700   -2.9440   25.2540 O   0  0  0  0  0  0  0  0  0  0  0  0
    6.4060   -3.0240   26.6280 N   0  0  0  0  0  0  0  0  0  0  0  0
    6.3610   -1.7040   27.2230 C   0  0  0  0  0  0  0  0  0  0  0  0
    7.0260   -1.5830   28.5590 C   0  0  0  0  0  0  0  0  0  0  0  0
    7.0370   -0.3680   29.2200 C   0  0  0  0  0  0  0  0  0  0  0  0
    6.4160    0.7540   28.6250 C   0  0  0  0  0  0  0  0  0  0  0  0
    6.4200    1.9900   29.2890 O   0  0  0  0  0  0  0  0  0  0  0  0
    6.6270    3.1760   28.5460 C   0  0  0  0  0  0  0  0  0  0  0  0
    8.0080    3.5060   28.3960 C   0  0  0  0  0  0  0  0  0  0  0  0
    8.2720    4.6340   27.6840 C   0  0  0  0  0  0  0  0  0  0  0  0
    7.2220    5.3850   27.1610 C   0  0  0  0  0  0  0  0  0  0  0  0
    5.8380    5.0950   27.2890 C   0  0  0  0  0  0  0  0  0  0  0  0
    4.8000    5.9540   26.6990 C   0  0  0  0  0  0  0  0  0  0  0  0
    5.1620    7.2640   26.8170 F   0  0  0  0  0  0  0  0  0  0  0  0
    3.5990    5.8320   27.3640 F   0  0  0  0  0  0  0  0  0  0  0  0
    4.6720    5.7140   25.3440 F   0  0  0  0  0  0  0  0  0  0  0  0
    5.5910    3.9730   27.9950 N   0  0  0  0  0  0  0  0  0  0  0  0
    5.7960    0.6390   27.3700 C   0  0  0  0  0  0  0  0  0  0  0  0
    5.7690   -0.5670   26.6790 C   0  0  0  0  0  0  0  0  0  0  0  0
    6.8730   -2.7010   23.3210 C   0  0  0  0  0  0  0  0  0  0  0  0
    7.7320   -3.2460   22.1860 C   0  0  0  0  0  0  0  0  0  0  0  0
  1  2  1  0
  2  3  2  0
  2  4  1  0
  4  5  1  0
  5  6  1  0
  6  7  1  0
  7  8  1  0
  8  9  2  0
  8 10  1  0
 10 11  1  0
 11 12  2  0
 12 13  1  0
 13 14  2  0
 14 15  1  0
 15 16  1  0
 16 17  2  0
 17 18  1  0
 18 19  2  0
 19 20  1  0
 20 21  1  0
 21 22  1  0
 21 23  1  0
 21 24  1  0
 16 25  1  0
 20 25  2  0
 14 26  1  0
 11 27  1  0
 26 27  2  0
  7 28  1  0
  4 29  1  0
 28 29  1  0
M  END
