piperidine-amides-13356-covalent
     RDKit          3D

 24 24  0  0  0  0  0  0  0  0999 V2000
    7.1000   -3.2730   19.1540 C   0  0  0  0  0  0  0  0  0  0  0  0
    6.3520   -4.0300   20.1810 C   0  0  0  0  0  0  0  0  0  0  0  0
    5.2470   -4.4920   19.8510 O   0  0  0  0  0  0  0  0  0  0  0  0
    6.9090   -4.2600   21.4380 N   0  0  0  0  0  0  0  0  0  0  0  0
    7.6210   -3.2080   22.0630 C   0  0  0  0  0  0  0  0  0  0  0  0
    7.0590   -2.8770   23.3530 C   0  0  0  0  0  0  0  0  0  0  0  0
    5.6660   -3.3240   23.5480 C   0  0  0  0  0  0  0  0  0  0  0  0
    5.1830   -2.9430   24.8960 C   0  0  0  0  0  0  0  0  0  0  0  0
    4.4120   -1.9780   24.9930 O   0  0  0  0  0  0  0  0  0  0  0  0
    5.5810   -3.6270   26.0410 N   0  0  0  0  0  0  0  0  0  0  0  0
    6.8210   -4.3980   26.0310 C   0  0  0  0  0  0  0  0  0  0  0  0
    7.9780   -3.4860   26.0060 C   0  0  0  0  0  0  0  0  0  0  0  0
    8.4170   -2.9660   24.9450 O   0  0  0  0  0  0  0  0  0  0  0  0
    8.6040   -3.1890   27.1980 N   0  0  0  0  0  0  0  0  0  0  0  0
    8.2300   -3.8830   28.3680 C   0  0  1  0  0  0  0  0  0  0  0  0
    7.0280   -3.3010   28.7290 C   0  0  0  0  0  0  0  0  0  0  0  0
    5.8550   -3.9340   28.9660 O   0  0  0  0  0  0  0  0  0  0  0  0
    7.1420   -1.9980   28.8450 O   0  0  0  0  0  0  0  0  0  0  0  0
    8.3960   -1.3640   28.8950 C   0  0  0  0  0  0  0  0  0  0  0  0
    8.0760   -5.3620   28.1590 C   0  0  0  0  0  0  0  0  0  0  0  0
    7.0100   -5.9580   28.7700 C   0  0  0  0  0  0  0  0  0  0  0  0
    8.2440   -5.8810   26.8920 C   0  0  0  0  0  0  0  0  0  0  0  0
    5.4770   -4.8030   23.2600 C   0  0  0  0  0  0  0  0  0  0  0  0
    6.4780   -5.3390   22.2950 C   0  0  0  0  0  0  0  0  0  0  0  0
  1  2  1  0
  2  3  2  0
  2  4  1  0
  4  5  1  0
  5  6  1  0
  6  7  1  0
  7  8  1  0
  8  9  2  0
  8 10  1  0
 10 11  1  0
 11 12  1  0
 12 13  2  0
 12 14  1  0
 15 14  1  6
 15 16  1  0
 16 17  2  0
 16 18  1  0
 18 19  1  0
 15 20  1  0
 20 21  1  0
 20 22  1  0
  7 23  1  0
  4 24  1  0
 23 24  1  0
M  END
