piperidine-amides-31594-covalent
     RDKit          3D

 28 30  0  0  0  0  0  0  0  0999 V2000
    7.0760   -3.3510   19.4480 C   0  0  0  0  0  0  0  0  0  0  0  0
    6.3650   -4.1950   20.3820 C   0  0  0  0  0  0  0  0  0  0  0  0
    5.3680   -4.8640   19.9720 O   0  0  0  0  0  0  0  0  0  0  0  0
    6.7670   -4.3250   21.7210 N   0  0  0  0  0  0  0  0  0  0  0  0
    6.6570   -5.6770   22.3290 C   0  0  0  0  0  0  0  0  0  0  0  0
    5.8490   -5.4060   23.6700 C   0  0  0  0  0  0  0  0  0  0  0  0
    6.0470   -3.9560   24.0000 C   0  0  0  0  0  0  0  0  0  0  0  0
    5.2560   -3.4270   25.2930 C   0  0  0  0  0  0  0  0  0  0  0  0
    4.1910   -2.9950   24.8860 O   0  0  0  0  0  0  0  0  0  0  0  0
    5.8270   -3.5390   26.4450 N   0  0  0  0  0  0  0  0  0  0  0  0
    5.9460   -3.1750   27.7480 C   0  0  0  0  0  0  0  0  0  0  0  0
    5.5510   -3.7430   28.8980 C   0  0  0  0  0  0  0  0  0  0  0  0
    5.6520   -5.1320   28.5300 N   0  0  0  0  0  0  0  0  0  0  0  0
    5.6220   -6.1200   29.4200 C   0  0  0  0  0  0  0  0  0  0  0  0
    6.6010   -6.6070   30.2820 O   0  0  0  0  0  0  0  0  0  0  0  0
    4.3180   -6.8100   29.5110 C   0  0  0  0  0  0  0  0  0  0  0  0
    4.2850   -6.5200   31.0270 C   0  0  0  0  0  0  0  0  0  0  0  0
    5.1170   -7.5430   31.5020 C   0  0  0  0  0  0  0  0  0  0  0  0
    5.5410   -7.8960   32.8350 C   0  0  0  0  0  0  0  0  0  0  0  0
    4.7960   -6.7810   33.6360 C   0  0  0  0  0  0  0  0  0  0  0  0
    3.8630   -5.6190   33.1790 C   0  0  0  0  0  0  0  0  0  0  0  0
    3.3490   -4.8080   33.9890 O   0  0  0  0  0  0  0  0  0  0  0  0
    4.0310   -4.2680   35.1170 C   0  0  0  0  0  0  0  0  0  0  0  0
    3.6700   -5.5910   31.7670 C   0  0  0  0  0  0  0  0  0  0  0  0
    6.7690   -5.3520   27.6870 C   0  0  0  0  0  0  0  0  0  0  0  0
    6.6120   -4.7950   26.4050 C   0  0  0  0  0  0  0  0  0  0  0  0
    7.3500   -3.3560   23.7430 C   0  0  0  0  0  0  0  0  0  0  0  0
    7.6280   -3.3130   22.2860 C   0  0  0  0  0  0  0  0  0  0  0  0
  1  2  1  0
  2  3  2  0
  2  4  1  0
  4  5  1  0
  5  6  1  0
  6  7  1  0
  7  8  1  0
  8  9  2  0
  8 10  1  0
 10 11  1  0
 11 12  1  0
 12 13  1  0
 13 14  1  0
 14 15  2  0
 14 16  1  0
 16 17  1  0
 17 18  2  0
 18 19  1  0
 19 20  2  0
 20 21  1  0
 21 22  1  0
 22 23  1  0
 17 24  1  0
 21 24  2  0
 13 25  1  0
 10 26  1  0
 25 26  1  0
  7 27  1  0
  4 28  1  0
 27 28  1  0
M  END
