piperidine-amides-4775-covalent
     RDKit          3D

 24 25  0  0  0  0  0  0  0  0999 V2000
    7.1480   -3.2770   19.2260 C   0  0  0  0  0  0  0  0  0  0  0  0
    6.4280   -4.0610   20.2560 C   0  0  0  0  0  0  0  0  0  0  0  0
    5.3450   -4.5740   19.9050 O   0  0  0  0  0  0  0  0  0  0  0  0
    6.9840   -4.2530   21.5380 N   0  0  0  0  0  0  0  0  0  0  0  0
    7.7540   -3.2120   22.1560 C   0  0  0  0  0  0  0  0  0  0  0  0
    7.2890   -2.8480   23.4920 C   0  0  0  0  0  0  0  0  0  0  0  0
    6.0200   -3.5110   23.8360 C   0  0  0  0  0  0  0  0  0  0  0  0
    5.5080   -3.0870   25.1550 C   0  0  0  0  0  0  0  0  0  0  0  0
    4.3440   -2.6510   25.1910 O   0  0  0  0  0  0  0  0  0  0  0  0
    6.2490   -3.1620   26.3420 N   0  0  0  0  0  0  0  0  0  0  0  0
    5.5330   -3.5040   27.5820 C   0  0  1  0  0  0  0  0  0  0  0  0
    5.9830   -4.8400   28.0670 C   0  0  0  0  0  0  0  0  0  0  0  0
    6.0600   -5.7850   27.2300 O   0  0  0  0  0  0  0  0  0  0  0  0
    6.2820   -5.1970   29.3550 O   0  0  0  0  0  0  0  0  0  0  0  0
    6.1870   -6.5640   29.6660 C   0  0  0  0  0  0  0  0  0  0  0  0
    5.7510   -2.3670   28.4610 C   0  0  0  0  0  0  0  0  0  0  0  0
    6.9370   -2.1950   29.1240 C   0  0  0  0  0  0  0  0  0  0  0  0
    7.1250   -1.1210   29.9390 C   0  0  0  0  0  0  0  0  0  0  0  0
    6.1410   -0.2070   30.1100 C   0  0  0  0  0  0  0  0  0  0  0  0
    4.9420   -0.3210   29.4830 C   0  0  0  0  0  0  0  0  0  0  0  0
    3.6540    0.8450   29.6860 Cl  0  0  0  0  0  0  0  0  0  0  0  0
    4.7570   -1.4240   28.6470 C   0  0  0  0  0  0  0  0  0  0  0  0
    6.0090   -4.9810   23.6530 C   0  0  0  0  0  0  0  0  0  0  0  0
    6.6610   -5.4160   22.3620 C   0  0  0  0  0  0  0  0  0  0  0  0
  1  2  1  0
  2  3  2  0
  2  4  1  0
  4  5  1  0
  5  6  1  0
  6  7  1  0
  7  8  1  0
  8  9  2  0
  8 10  1  0
 11 10  1  6
 11 12  1  0
 12 13  2  0
 12 14  1  0
 14 15  1  0
 11 16  1  0
 16 17  2  0
 17 18  1  0
 18 19  2  0
 19 20  1  0
 20 21  1  0
 16 22  1  0
 20 22  2  0
  7 23  1  0
  4 24  1  0
 23 24  1  0
M  END
