piperidine-amides-29713-covalent
     RDKit          3D

 27 29  0  0  0  0  0  0  0  0999 V2000
    7.0530   -3.3710   19.3330 C   0  0  0  0  0  0  0  0  0  0  0  0
    6.3880   -4.2290   20.3090 C   0  0  0  0  0  0  0  0  0  0  0  0
    5.3660   -4.8310   19.9800 O   0  0  0  0  0  0  0  0  0  0  0  0
    6.9470   -4.4280   21.6180 N   0  0  0  0  0  0  0  0  0  0  0  0
    7.6840   -3.3730   22.2700 C   0  0  0  0  0  0  0  0  0  0  0  0
    6.8710   -2.7760   23.3860 C   0  0  0  0  0  0  0  0  0  0  0  0
    6.2900   -3.8960   24.2420 C   0  0  0  0  0  0  0  0  0  0  0  0
    5.1890   -3.3700   25.1060 C   0  0  0  0  0  0  0  0  0  0  0  0
    4.1320   -2.9530   24.6150 O   0  0  0  0  0  0  0  0  0  0  0  0
    5.3190   -3.3410   26.5150 N   0  0  0  0  0  0  0  0  0  0  0  0
    6.5850   -3.1320   27.0460 C   0  0  0  0  0  0  0  0  0  0  0  0
    6.6940   -4.2480   28.0530 C   0  0  0  0  0  0  0  0  0  0  0  0
    5.7420   -4.2150   28.9780 C   0  0  0  0  0  0  0  0  0  0  0  0
    5.9410   -2.9770   29.6770 N   0  0  0  0  0  0  0  0  0  0  0  0
    4.8490   -2.0500   29.7380 C   0  0  0  0  0  0  0  0  0  0  0  0
    3.5210   -2.4890   29.6120 O   0  0  0  0  0  0  0  0  0  0  0  0
    5.1950   -0.7310   29.9450 C   0  0  0  0  0  0  0  0  0  0  0  0
    5.1970   -0.1840   31.3000 C   0  0  0  0  0  0  0  0  0  0  0  0
    5.5300    1.1000   31.5540 C   0  0  0  0  0  0  0  0  0  0  0  0
    5.8540    1.8120   30.4570 C   0  0  0  0  0  0  0  0  0  0  0  0
    6.2600    3.0400   29.9290 C   0  0  0  0  0  0  0  0  0  0  0  0
    5.8790    1.3470   29.0690 C   0  0  0  0  0  0  0  0  0  0  0  0
    5.5320    0.0060   28.7950 C   0  0  0  0  0  0  0  0  0  0  0  0
    4.5150   -4.4920   28.4060 C   0  0  0  0  0  0  0  0  0  0  0  0
    4.1350   -3.5730   27.2810 C   0  0  0  0  0  0  0  0  0  0  0  0
    5.6820   -5.0440   23.5000 C   0  0  0  0  0  0  0  0  0  0  0  0
    6.5630   -5.5620   22.3890 C   0  0  0  0  0  0  0  0  0  0  0  0
  1  2  1  0
  2  3  2  0
  2  4  1  0
  4  5  1  0
  5  6  1  0
  6  7  1  0
  7  8  1  0
  8  9  2  0
  8 10  1  0
 10 11  1  0
 11 12  1  0
 12 13  1  0
 13 14  1  0
 14 15  1  0
 15 16  2  0
 15 17  1  0
 17 18  2  0
 18 19  1  0
 19 20  2  0
 20 21  1  0
 20 22  1  0
 17 23  1  0
 22 23  2  0
 13 24  1  0
 10 25  1  0
 24 25  1  0
  7 26  1  0
  4 27  1  0
 26 27  1  0
M  END
