piperidine-amides-34968-covalent
     RDKit          3D

 32 34  0  0  0  0  0  0  0  0999 V2000
    7.0880   -3.2590   19.2010 C   0  0  0  0  0  0  0  0  0  0  0  0
    6.3120   -4.0260   20.2130 C   0  0  0  0  0  0  0  0  0  0  0  0
    5.2400   -4.4960   19.8540 O   0  0  0  0  0  0  0  0  0  0  0  0
    6.8170   -4.2420   21.4950 N   0  0  0  0  0  0  0  0  0  0  0  0
    6.5010   -5.4440   22.2190 C   0  0  0  0  0  0  0  0  0  0  0  0
    5.8310   -5.0640   23.5080 C   0  0  0  0  0  0  0  0  0  0  0  0
    6.6210   -3.9170   24.1390 C   0  0  0  0  0  0  0  0  0  0  0  0
    6.0120   -3.5550   25.4290 C   0  0  0  0  0  0  0  0  0  0  0  0
    4.7700   -3.3750   25.5380 O   0  0  0  0  0  0  0  0  0  0  0  0
    6.8710   -3.4240   26.5450 N   0  0  0  0  0  0  0  0  0  0  0  0
    6.6730   -2.2640   27.3990 C   0  0  0  0  0  0  0  0  0  0  0  0
    7.2520   -1.0480   26.7090 C   0  0  2  0  0  0  0  0  0  0  0  0
    8.0570   -1.5070   25.6870 O   0  0  0  0  0  0  0  0  0  0  0  0
    7.9690   -0.1030   27.3820 C   0  0  0  0  0  0  0  0  0  0  0  0
    7.3740    0.5500   28.4300 O   0  0  0  0  0  0  0  0  0  0  0  0
    8.0750    1.5230   29.2110 C   0  0  0  0  0  0  0  0  0  0  0  0
    8.5060    2.5530   28.4490 C   0  0  0  0  0  0  0  0  0  0  0  0
    9.2870    3.7550   28.9600 C   0  0  0  0  0  0  0  0  0  0  0  0
    9.5600    3.7070   30.4500 C   0  0  0  0  0  0  0  0  0  0  0  0
    9.0730    2.5500   31.3040 C   0  0  0  0  0  0  0  0  0  0  0  0
    8.3350    1.5170   30.5520 C   0  0  0  0  0  0  0  0  0  0  0  0
    7.8240    0.3580   31.3310 C   0  0  0  0  0  0  0  0  0  0  0  0
    7.9240    0.5150   32.8460 C   0  0  0  0  0  0  0  0  0  0  0  0
    9.0660    1.3360   33.3550 C   0  0  0  0  0  0  0  0  0  0  0  0
    9.3860    2.6330   32.6360 C   0  0  1  0  0  0  0  0  0  0  0  0
   10.7060    3.0780   32.6860 O   0  0  0  0  0  0  0  0  0  0  0  0
    7.4480   -4.6320   27.1040 C   0  0  0  0  0  0  0  0  0  0  0  0
    6.4350   -5.7340   27.2750 C   0  0  0  0  0  0  0  0  0  0  0  0
    8.6190   -5.1100   26.2940 C   0  0  0  0  0  0  0  0  0  0  0  0
    8.0890   -4.3600   28.4230 C   0  0  0  0  0  0  0  0  0  0  0  0
    6.8240   -2.6930   23.2920 C   0  0  0  0  0  0  0  0  0  0  0  0
    7.6230   -3.1960   22.0940 C   0  0  0  0  0  0  0  0  0  0  0  0
  1  2  1  0
  2  3  2  0
  2  4  1  0
  4  5  1  0
  5  6  1  0
  6  7  1  0
  7  8  1  0
  8  9  2  0
  8 10  1  0
 10 11  1  0
 11 12  1  0
 12 13  1  6
 12 14  1  0
 14 15  1  0
 15 16  1  0
 16 17  2  0
 17 18  1  0
 18 19  2  0
 19 20  1  0
 16 21  1  0
 20 21  2  0
 21 22  1  0
 22 23  1  0
 23 24  1  0
 20 25  1  0
 24 25  1  0
 25 26  1  6
 27 10  1  0
 27 28  1  0
 27 29  1  0
 27 30  1  0
  7 31  1  0
  4 32  1  0
 31 32  1  0
M  END
