piperidine-amides-33585-covalent
     RDKit          3D

 30 33  0  0  0  0  0  0  0  0999 V2000
    7.0890   -3.3050   19.3220 C   0  0  0  0  0  0  0  0  0  0  0  0
    6.3330   -4.0810   20.3200 C   0  0  0  0  0  0  0  0  0  0  0  0
    5.2830   -4.6310   19.9140 O   0  0  0  0  0  0  0  0  0  0  0  0
    6.7860   -4.2450   21.6580 N   0  0  0  0  0  0  0  0  0  0  0  0
    6.5320   -5.4800   22.3060 C   0  0  0  0  0  0  0  0  0  0  0  0
    6.0920   -5.3130   23.6840 C   0  0  0  0  0  0  0  0  0  0  0  0
    5.9640   -3.9040   24.0890 C   0  0  0  0  0  0  0  0  0  0  0  0
    5.5710   -3.7210   25.5400 C   0  0  0  0  0  0  0  0  0  0  0  0
    5.7080   -2.5980   26.0480 O   0  0  0  0  0  0  0  0  0  0  0  0
    5.0220   -4.7800   26.3350 N   0  0  0  0  0  0  0  0  0  0  0  0
    5.4900   -6.0480   26.5460 C   0  0  0  0  0  0  0  0  0  0  0  0
    5.2510   -6.0670   27.9430 C   0  0  0  0  0  0  0  0  0  0  0  0
    6.5290   -5.8770   28.7830 C   0  0  0  0  0  0  0  0  0  0  0  0
    4.2790   -6.9250   28.6220 C   0  0  0  0  0  0  0  0  0  0  0  0
    4.6810   -4.5510   27.7870 C   0  0  2  0  0  0  0  0  0  0  0  0
    3.1990   -4.4330   27.9670 C   0  0  0  0  0  0  0  0  0  0  0  0
    3.4510   -3.1550   28.7570 C   0  0  0  0  0  0  0  0  0  0  0  0
    2.2510   -2.2720   28.9440 C   0  0  0  0  0  0  0  0  0  0  0  0
    1.0190   -2.7130   28.3920 N   0  0  0  0  0  0  0  0  0  0  0  0
    0.2960   -3.5560   29.1350 C   0  0  0  0  0  0  0  0  0  0  0  0
   -0.4460   -2.9170   30.3220 C   0  0  0  0  0  0  0  0  0  0  0  0
   -0.1220   -3.5340   31.6430 C   0  0  0  0  0  0  0  0  0  0  0  0
   -0.6860   -3.1020   32.8420 C   0  0  0  0  0  0  0  0  0  0  0  0
   -1.5800   -2.0620   32.8150 C   0  0  0  0  0  0  0  0  0  0  0  0
   -1.9280   -1.4200   31.5000 C   0  0  0  0  0  0  0  0  0  0  0  0
   -1.3460   -1.8750   30.3180 C   0  0  0  0  0  0  0  0  0  0  0  0
    1.2720   -3.2860   27.1000 C   0  0  0  0  0  0  0  0  0  0  0  0
    2.3130   -4.3920   26.9080 C   0  0  0  0  0  0  0  0  0  0  0  0
    7.3000   -3.1950   23.8240 C   0  0  0  0  0  0  0  0  0  0  0  0
    7.4990   -3.1370   22.2900 C   0  0  0  0  0  0  0  0  0  0  0  0
  1  2  1  0
  2  3  2  0
  2  4  1  0
  4  5  1  0
  5  6  1  0
  6  7  1  0
  7  8  1  0
  8  9  2  0
  8 10  1  0
 10 11  1  0
 11 12  1  0
 12 13  1  0
 12 14  1  0
 10 15  1  0
 12 15  1  0
 15 16  1  6
 16 17  1  0
 17 18  1  0
 18 19  1  0
 19 20  1  0
 20 21  1  0
 21 22  2  0
 22 23  1  0
 23 24  2  0
 24 25  1  0
 21 26  1  0
 25 26  2  0
 19 27  1  0
 16 28  1  0
 27 28  1  0
  7 29  1  0
  4 30  1  0
 29 30  1  0
M  END
