piperidine-amides-30779-covalent
     RDKit          3D

 26 28  0  0  0  0  0  0  0  0999 V2000
    7.0790   -3.3780   19.4030 C   0  0  0  0  0  0  0  0  0  0  0  0
    6.3670   -4.2030   20.3790 C   0  0  0  0  0  0  0  0  0  0  0  0
    5.3780   -4.8520   19.9900 O   0  0  0  0  0  0  0  0  0  0  0  0
    6.8010   -4.3230   21.7200 N   0  0  0  0  0  0  0  0  0  0  0  0
    6.7090   -5.5870   22.4280 C   0  0  0  0  0  0  0  0  0  0  0  0
    6.2480   -5.2790   23.8350 C   0  0  0  0  0  0  0  0  0  0  0  0
    6.1720   -3.8060   24.0620 C   0  0  0  0  0  0  0  0  0  0  0  0
    5.6230   -3.3620   25.3830 C   0  0  0  0  0  0  0  0  0  0  0  0
    4.6190   -2.5940   25.3770 O   0  0  0  0  0  0  0  0  0  0  0  0
    6.0910   -3.7200   26.6730 N   0  0  0  0  0  0  0  0  0  0  0  0
    6.0710   -2.6670   27.7090 C   0  0  0  0  0  0  0  0  0  0  0  0
    6.0170   -3.3480   29.0170 C   0  0  0  0  0  0  0  0  0  0  0  0
    4.8910   -4.0570   29.0170 N   0  0  0  0  0  0  0  0  0  0  0  0
    3.6410   -3.5720   29.4910 C   0  0  0  0  0  0  0  0  0  0  0  0
    3.5350   -3.8200   30.9770 C   0  0  0  0  0  0  0  0  0  0  0  0
    3.5890   -2.5840   31.5690 O   0  0  0  0  0  0  0  0  0  0  0  0
    3.4100   -5.0870   31.5930 N   0  0  0  0  0  0  0  0  0  0  0  0
    3.6580   -6.1550   30.8340 C   0  0  0  0  0  0  0  0  0  0  0  0
    2.7040   -6.9270   30.2790 N   0  0  0  0  0  0  0  0  0  0  0  0
    3.2860   -7.8960   29.5740 N   0  0  0  0  0  0  0  0  0  0  0  0
    4.7180   -7.9260   29.5460 C   0  0  0  0  0  0  0  0  0  0  0  0
    5.3610   -6.6560   30.4750 S   0  0  0  0  0  0  0  0  0  0  0  0
    4.8940   -4.9880   28.0540 C   0  0  0  0  0  0  0  0  0  0  0  0
    5.9550   -5.0470   27.1910 C   0  0  0  0  0  0  0  0  0  0  0  0
    7.4980   -3.1250   23.7480 C   0  0  0  0  0  0  0  0  0  0  0  0
    7.6720   -3.2630   22.2280 C   0  0  0  0  0  0  0  0  0  0  0  0
  1  2  1  0
  2  3  2  0
  2  4  1  0
  4  5  1  0
  5  6  1  0
  6  7  1  0
  7  8  1  0
  8  9  2  0
  8 10  1  0
 10 11  1  0
 11 12  1  0
 12 13  1  0
 13 14  1  0
 14 15  1  0
 15 16  2  0
 15 17  1  0
 17 18  1  0
 18 19  2  0
 19 20  1  0
 20 21  2  0
 18 22  1  0
 21 22  1  0
 13 23  1  0
 10 24  1  0
 23 24  1  0
  7 25  1  0
  4 26  1  0
 25 26  1  0
M  END
