piperidine-amides-342-covalent
     RDKit          3D

 29 31  0  0  0  0  0  0  0  0999 V2000
    7.1520   -3.3070   19.3680 C   0  0  0  0  0  0  0  0  0  0  0  0
    6.4280   -4.1080   20.3230 C   0  0  0  0  0  0  0  0  0  0  0  0
    5.3750   -4.7180   19.9480 O   0  0  0  0  0  0  0  0  0  0  0  0
    6.8880   -4.2660   21.6410 N   0  0  0  0  0  0  0  0  0  0  0  0
    6.5580   -5.5300   22.3230 C   0  0  0  0  0  0  0  0  0  0  0  0
    5.5710   -4.9500   23.3950 C   0  0  0  0  0  0  0  0  0  0  0  0
    6.4300   -4.0140   24.2090 C   0  0  0  0  0  0  0  0  0  0  0  0
    5.7170   -3.7180   25.6030 C   0  0  0  0  0  0  0  0  0  0  0  0
    5.0340   -4.6700   25.9260 O   0  0  0  0  0  0  0  0  0  0  0  0
    6.0040   -2.5570   26.0320 N   0  0  0  0  0  0  0  0  0  0  0  0
    6.1440   -1.2700   26.4580 C   0  0  0  0  0  0  0  0  0  0  0  0
    6.1600   -0.0240   25.9440 C   0  0  0  0  0  0  0  0  0  0  0  0
    6.3140    1.1580   26.6940 C   0  0  0  0  0  0  0  0  0  0  0  0
    6.4970    1.3290   28.1440 C   0  0  0  0  0  0  0  0  0  0  0  0
    6.4900   -0.0480   28.8050 C   0  0  0  0  0  0  0  0  0  0  0  0
    6.3190   -1.1530   27.9650 C   0  0  0  0  0  0  0  0  0  0  0  0
    6.2900   -2.3060   28.7200 C   0  0  0  0  0  0  0  0  0  0  0  0
    6.7330   -3.4390   28.1240 O   0  0  0  0  0  0  0  0  0  0  0  0
    5.8090   -2.2570   29.9510 N   0  0  0  0  0  0  0  0  0  0  0  0
    6.0810   -1.1040   30.7900 C   0  0  0  0  0  0  0  0  0  0  0  0
    7.5520   -0.6160   30.8700 C   0  0  0  0  0  0  0  0  0  0  0  0
    7.8880    0.4450   31.6400 C   0  0  0  0  0  0  0  0  0  0  0  0
    6.9310    1.1050   32.3610 C   0  0  0  0  0  0  0  0  0  0  0  0
    7.2650    2.0780   33.0700 O   0  0  0  0  0  0  0  0  0  0  0  0
    8.3080    1.8500   33.9990 C   0  0  0  0  0  0  0  0  0  0  0  0
    5.6160    0.7550   32.3510 N   0  0  0  0  0  0  0  0  0  0  0  0
    5.1790   -0.3770   31.5470 C   0  0  0  0  0  0  0  0  0  0  0  0
    7.0050   -2.8100   23.5440 C   0  0  0  0  0  0  0  0  0  0  0  0
    7.6840   -3.2370   22.2760 C   0  0  0  0  0  0  0  0  0  0  0  0
  1  2  1  0
  2  3  2  0
  2  4  1  0
  4  5  1  0
  5  6  1  0
  6  7  1  0
  7  8  1  0
  8  9  2  0
  8 10  1  0
 10 11  1  0
 11 12  2  0
 12 13  1  0
 13 14  2  0
 14 15  1  0
 11 16  1  0
 15 16  2  0
 16 17  1  0
 17 18  2  0
 17 19  1  0
 19 20  1  0
 20 21  2  0
 21 22  1  0
 22 23  2  0
 23 24  1  0
 24 25  1  0
 23 26  1  0
 20 27  1  0
 26 27  2  0
  7 28  1  0
  4 29  1  0
 28 29  1  0
M  END
