piperidine-amides-24281-covalent
     RDKit          3D

 24 26  0  0  0  0  0  0  0  0999 V2000
    7.0820   -3.2710   19.2820 C   0  0  0  0  0  0  0  0  0  0  0  0
    6.3610   -4.0750   20.2820 C   0  0  0  0  0  0  0  0  0  0  0  0
    5.3420   -4.7180   19.9470 O   0  0  0  0  0  0  0  0  0  0  0  0
    6.8210   -4.1770   21.6060 N   0  0  0  0  0  0  0  0  0  0  0  0
    6.6610   -5.4500   22.2880 C   0  0  0  0  0  0  0  0  0  0  0  0
    6.2040   -5.1870   23.7330 C   0  0  0  0  0  0  0  0  0  0  0  0
    6.0670   -3.6950   23.9050 C   0  0  0  0  0  0  0  0  0  0  0  0
    5.5500   -3.3920   25.2580 C   0  0  0  0  0  0  0  0  0  0  0  0
    4.3610   -3.7020   25.4750 O   0  0  0  0  0  0  0  0  0  0  0  0
    6.3040   -2.7680   26.2850 N   0  0  0  0  0  0  0  0  0  0  0  0
    6.0710   -1.3780   26.4540 C   0  0  0  0  0  0  0  0  0  0  0  0
    5.4430   -1.6430   27.7740 C   0  0  0  0  0  0  0  0  0  0  0  0
    5.8260   -1.0400   28.9440 C   0  0  0  0  0  0  0  0  0  0  0  0
    6.0340    0.3600   28.9670 N   0  0  0  0  0  0  0  0  0  0  0  0
    6.3970    0.7260   30.2470 C   0  0  0  0  0  0  0  0  0  0  0  0
    6.6650    2.0570   30.5790 C   0  0  0  0  0  0  0  0  0  0  0  0
    6.6780    3.0010   29.6030 O   0  0  0  0  0  0  0  0  0  0  0  0
    6.9170    2.4240   31.8880 O   0  0  0  0  0  0  0  0  0  0  0  0
    6.5600    3.6990   32.4040 C   0  0  0  0  0  0  0  0  0  0  0  0
    6.4130   -0.4240   30.9780 C   0  0  0  0  0  0  0  0  0  0  0  0
    6.0570   -1.5310   30.1730 O   0  0  0  0  0  0  0  0  0  0  0  0
    6.0360   -3.1090   27.7040 C   0  0  0  0  0  0  0  0  0  0  0  0
    7.2960   -2.9510   23.5900 C   0  0  0  0  0  0  0  0  0  0  0  0
    7.6480   -3.1610   22.1920 C   0  0  0  0  0  0  0  0  0  0  0  0
  1  2  1  0
  2  3  2  0
  2  4  1  0
  4  5  1  0
  5  6  1  0
  6  7  1  0
  7  8  1  0
  8  9  2  0
  8 10  1  0
 10 11  1  0
 11 12  1  0
 12 13  1  0
 13 14  2  0
 14 15  1  0
 15 16  1  0
 16 17  2  0
 16 18  1  0
 18 19  1  0
 15 20  2  0
 13 21  1  0
 20 21  1  0
 10 22  1  0
 12 22  1  0
  7 23  1  0
  4 24  1  0
 23 24  1  0
M  END
