piperidine-amides-2230-covalent
     RDKit          3D

 29 31  0  0  0  0  0  0  0  0999 V2000
    7.1020   -3.2700   19.2290 C   0  0  0  0  0  0  0  0  0  0  0  0
    6.3630   -4.0700   20.2420 C   0  0  0  0  0  0  0  0  0  0  0  0
    5.2970   -4.5750   19.8940 O   0  0  0  0  0  0  0  0  0  0  0  0
    6.9110   -4.2640   21.5110 N   0  0  0  0  0  0  0  0  0  0  0  0
    7.7290   -3.2790   22.1580 C   0  0  0  0  0  0  0  0  0  0  0  0
    6.9850   -2.7220   23.3320 C   0  0  0  0  0  0  0  0  0  0  0  0
    6.4820   -3.8390   24.2580 C   0  0  0  0  0  0  0  0  0  0  0  0
    5.6340   -3.1630   25.2510 C   0  0  0  0  0  0  0  0  0  0  0  0
    4.5490   -3.6600   25.5770 O   0  0  0  0  0  0  0  0  0  0  0  0
    6.0370   -1.9320   25.8070 N   0  0  0  0  0  0  0  0  0  0  0  0
    6.9510   -1.9200   26.9120 C   0  0  2  0  0  0  0  0  0  0  0  0
    7.1530   -3.3370   27.3680 C   0  0  0  0  0  0  0  0  0  0  0  0
    8.1000   -4.2990   27.0090 C   0  0  0  0  0  0  0  0  0  0  0  0
    8.2280   -5.5680   27.4810 C   0  0  0  0  0  0  0  0  0  0  0  0
    7.3760   -6.0480   28.4040 C   0  0  0  0  0  0  0  0  0  0  0  0
    6.2470   -5.3050   28.9880 C   0  0  0  0  0  0  0  0  0  0  0  0
    5.0580   -5.8480   30.1900 S   0  0  0  0  0  0  0  0  0  0  0  0
    5.5190   -7.5220   30.6900 C   0  0  0  0  0  0  0  0  0  0  0  0
    6.1820   -3.9300   28.4300 C   0  0  0  0  0  0  0  0  0  0  0  0
    6.4240   -1.2990   28.1620 C   0  0  0  0  0  0  0  0  0  0  0  0
    5.0030   -0.8480   28.2210 C   0  0  0  0  0  0  0  0  0  0  0  0
    4.4630   -0.2210   29.4770 C   0  0  0  0  0  0  0  0  0  0  0  0
    5.4050   -0.0900   30.6070 C   0  0  0  0  0  0  0  0  0  0  0  0
    4.8660    0.4780   31.7070 F   0  0  0  0  0  0  0  0  0  0  0  0
    6.8300   -0.5720   30.4690 C   0  0  0  0  0  0  0  0  0  0  0  0
    7.2390   -1.1390   29.2680 C   0  0  0  0  0  0  0  0  0  0  0  0
    8.5520   -1.5840   29.1410 F   0  0  0  0  0  0  0  0  0  0  0  0
    5.7480   -4.9070   23.4860 C   0  0  0  0  0  0  0  0  0  0  0  0
    6.5710   -5.4390   22.3090 C   0  0  0  0  0  0  0  0  0  0  0  0
  1  2  1  0
  2  3  2  0
  2  4  1  0
  4  5  1  0
  5  6  1  0
  6  7  1  0
  7  8  1  0
  8  9  2  0
  8 10  1  0
 11 10  1  6
 11 12  1  0
 12 13  2  0
 13 14  1  0
 14 15  2  0
 15 16  1  0
 16 17  1  0
 17 18  1  0
 12 19  1  0
 16 19  2  0
 11 20  1  0
 20 21  2  0
 21 22  1  0
 22 23  2  0
 23 24  1  0
 23 25  1  0
 20 26  1  0
 25 26  2  0
 26 27  1  0
  7 28  1  0
  4 29  1  0
 28 29  1  0
M  END
