piperidine-amides-4001-covalent
     RDKit          3D

 29 31  0  0  0  0  0  0  0  0999 V2000
    7.0770   -3.3000   19.2280 C   0  0  0  0  0  0  0  0  0  0  0  0
    6.3310   -4.0910   20.2270 C   0  0  0  0  0  0  0  0  0  0  0  0
    5.2220   -4.5420   19.8670 O   0  0  0  0  0  0  0  0  0  0  0  0
    6.8640   -4.3910   21.5030 N   0  0  0  0  0  0  0  0  0  0  0  0
    7.5520   -3.3540   22.1780 C   0  0  0  0  0  0  0  0  0  0  0  0
    7.3840   -3.2800   23.6240 C   0  0  0  0  0  0  0  0  0  0  0  0
    6.5670   -4.2840   24.3300 C   0  0  0  0  0  0  0  0  0  0  0  0
    5.8200   -3.5850   25.4190 C   0  0  0  0  0  0  0  0  0  0  0  0
    4.5710   -3.6270   25.4520 O   0  0  0  0  0  0  0  0  0  0  0  0
    6.5220   -2.8690   26.4080 N   0  0  0  0  0  0  0  0  0  0  0  0
    6.7010   -1.4680   26.5340 C   0  0  2  0  0  0  0  0  0  0  0  0
    5.9790   -0.8020   27.6300 C   0  0  0  0  0  0  0  0  0  0  0  0
    5.4510   -1.7270   28.7620 C   0  0  0  0  0  0  0  0  0  0  0  0
    4.7360   -1.3000   29.8990 C   0  0  0  0  0  0  0  0  0  0  0  0
    4.4610    0.2180   30.0190 C   0  0  0  0  0  0  0  0  0  0  0  0
    3.7600    0.7150   31.1110 O   0  0  0  0  0  0  0  0  0  0  0  0
    2.5890    1.3060   30.6440 C   0  0  0  0  0  0  0  0  0  0  0  0
    4.9710    1.1480   28.9170 C   0  0  0  0  0  0  0  0  0  0  0  0
    5.7170    0.6710   27.7340 C   0  0  0  0  0  0  0  0  0  0  0  0
    6.2190    1.5990   26.6360 C   0  0  0  0  0  0  0  0  0  0  0  0
    6.3530   -0.7270   25.2540 C   0  0  0  0  0  0  0  0  0  0  0  0
    4.9940   -0.1190   25.3150 C   0  0  0  0  0  0  0  0  0  0  0  0
    4.4300    0.6170   24.2940 C   0  0  0  0  0  0  0  0  0  0  0  0
    5.1650    0.7960   23.1520 C   0  0  0  0  0  0  0  0  0  0  0  0
    6.5450    0.2030   23.0280 C   0  0  0  0  0  0  0  0  0  0  0  0
    7.0890   -0.5340   24.0790 C   0  0  0  0  0  0  0  0  0  0  0  0
    8.7150   -1.1560   23.7740 Cl  0  0  0  0  0  0  0  0  0  0  0  0
    5.6120   -4.9700   23.3820 C   0  0  0  0  0  0  0  0  0  0  0  0
    6.3890   -5.5380   22.2200 C   0  0  0  0  0  0  0  0  0  0  0  0
  1  2  1  0
  2  3  2  0
  2  4  1  0
  4  5  1  0
  5  6  1  0
  6  7  1  0
  7  8  1  0
  8  9  2  0
  8 10  1  0
 11 10  1  6
 11 12  1  0
 12 13  2  0
 13 14  1  0
 14 15  2  0
 15 16  1  0
 16 17  1  0
 15 18  1  0
 12 19  1  0
 18 19  2  0
 19 20  1  0
 11 21  1  0
 21 22  2  0
 22 23  1  0
 23 24  2  0
 24 25  1  0
 21 26  1  0
 25 26  2  0
 26 27  1  0
  7 28  1  0
  4 29  1  0
 28 29  1  0
M  END
