piperidine-amides-12968-covalent
     RDKit          3D

 21 22  0  0  0  0  0  0  0  0999 V2000
    7.1110   -3.3190   19.2490 C   0  0  0  0  0  0  0  0  0  0  0  0
    6.3560   -4.0590   20.2810 C   0  0  0  0  0  0  0  0  0  0  0  0
    5.2830   -4.5740   19.9020 O   0  0  0  0  0  0  0  0  0  0  0  0
    6.8580   -4.2170   21.5880 N   0  0  0  0  0  0  0  0  0  0  0  0
    7.6640   -3.1900   22.1810 C   0  0  0  0  0  0  0  0  0  0  0  0
    7.2640   -2.8610   23.5470 C   0  0  0  0  0  0  0  0  0  0  0  0
    6.0340   -3.5710   23.9430 C   0  0  0  0  0  0  0  0  0  0  0  0
    5.6190   -3.3000   25.3450 C   0  0  0  0  0  0  0  0  0  0  0  0
    4.4210   -3.4980   25.6190 O   0  0  0  0  0  0  0  0  0  0  0  0
    6.5030   -2.8390   26.3410 N   0  0  0  0  0  0  0  0  0  0  0  0
    6.6900   -1.4000   26.6460 C   0  0  0  0  0  0  0  0  0  0  0  0
    5.7010   -0.8810   27.6360 C   0  0  0  0  0  0  0  0  0  0  0  0
    6.0410   -1.9380   29.0500 S   0  0  0  0  0  0  0  0  0  0  0  0
    7.5230   -1.1260   29.6890 C   0  0  0  0  0  0  0  0  0  0  0  0
    5.0090   -1.8030   30.1040 O   0  0  0  0  0  0  0  0  0  0  0  0
    6.3050   -3.3160   28.5790 O   0  0  0  0  0  0  0  0  0  0  0  0
    4.2730   -0.8460   27.4010 C   0  0  0  0  0  0  0  0  0  0  0  0
    4.2650    0.4100   27.8740 C   0  0  0  0  0  0  0  0  0  0  0  0
    5.6140    0.4340   28.1280 C   0  0  0  0  0  0  0  0  0  0  0  0
    5.9920   -5.0330   23.6070 C   0  0  0  0  0  0  0  0  0  0  0  0
    6.5880   -5.3650   22.4170 C   0  0  0  0  0  0  0  0  0  0  0  0
  1  2  1  0
  2  3  2  0
  2  4  1  0
  4  5  1  0
  5  6  1  0
  6  7  1  0
  7  8  1  0
  8  9  2  0
  8 10  1  0
 10 11  1  0
 12 11  1  0
 12 13  1  0
 13 14  1  0
 13 15  2  0
 13 16  2  0
 12 17  1  0
 17 18  1  0
 12 19  1  0
 18 19  1  0
  7 20  1  0
  4 21  1  0
 20 21  1  0
M  END
