piperidine-amides-28124-covalent
     RDKit          3D

 25 27  0  0  0  0  0  0  0  0999 V2000
    7.0610   -3.3240   19.2480 C   0  0  0  0  0  0  0  0  0  0  0  0
    6.3540   -4.1180   20.2760 C   0  0  0  0  0  0  0  0  0  0  0  0
    5.2940   -4.6630   19.9210 O   0  0  0  0  0  0  0  0  0  0  0  0
    6.8940   -4.2850   21.5580 N   0  0  0  0  0  0  0  0  0  0  0  0
    6.5250   -5.4150   22.3400 C   0  0  0  0  0  0  0  0  0  0  0  0
    6.0070   -5.0720   23.6660 C   0  0  0  0  0  0  0  0  0  0  0  0
    6.5730   -3.8470   24.2820 C   0  0  0  0  0  0  0  0  0  0  0  0
    5.7580   -3.4260   25.4520 C   0  0  0  0  0  0  0  0  0  0  0  0
    4.5190   -3.4190   25.3110 O   0  0  0  0  0  0  0  0  0  0  0  0
    6.3180   -3.0230   26.6830 N   0  0  0  0  0  0  0  0  0  0  0  0
    6.2380   -3.8630   27.9190 C   0  0  0  0  0  0  0  0  0  0  0  0
    6.1450   -5.3500   27.7300 C   0  0  0  0  0  0  0  0  0  0  0  0
    5.1210   -6.1320   28.4180 C   0  0  0  0  0  0  0  0  0  0  0  0
    6.5570   -6.3580   28.7140 C   0  0  0  0  0  0  0  0  0  0  0  0
    6.2720   -1.5860   26.9710 C   0  0  0  0  0  0  0  0  0  0  0  0
    6.4460   -0.8540   28.2130 N   0  0  0  0  0  0  0  0  0  0  0  0
    6.3370    0.4690   28.1550 C   0  0  0  0  0  0  0  0  0  0  0  0
    6.4880    1.2160   29.2700 C   0  0  0  0  0  0  0  0  0  0  0  0
    6.3700    2.5900   29.1680 C   0  0  0  0  0  0  0  0  0  0  0  0
    6.0940    3.2050   27.9150 C   0  0  0  0  0  0  0  0  0  0  0  0
    5.9150    2.4340   26.6480 C   0  0  0  0  0  0  0  0  0  0  0  0
    6.0800    0.9880   26.9770 C   0  0  0  0  0  0  0  0  0  0  0  0
    5.9610   -0.2720   25.8370 S   0  0  0  0  0  0  0  0  0  0  0  0
    6.7620   -2.7420   23.2420 C   0  0  0  0  0  0  0  0  0  0  0  0
    7.6090   -3.2240   22.2300 C   0  0  0  0  0  0  0  0  0  0  0  0
  1  2  1  0
  2  3  2  0
  2  4  1  0
  4  5  1  0
  5  6  1  0
  6  7  1  0
  7  8  1  0
  8  9  2  0
  8 10  1  0
 10 11  1  0
 11 12  1  0
 12 13  1  0
 12 14  1  0
 10 15  1  0
 15 16  2  0
 16 17  1  0
 17 18  2  0
 18 19  1  0
 19 20  2  0
 20 21  1  0
 17 22  1  0
 21 22  2  0
 15 23  1  0
 22 23  1  0
  7 24  1  0
  4 25  1  0
 24 25  1  0
M  END
