piperidine-amides-9930-covalent
     RDKit          3D

 27 29  0  0  0  0  0  0  0  0999 V2000
    7.0820   -3.2820   19.2330 C   0  0  0  0  0  0  0  0  0  0  0  0
    6.3520   -4.0430   20.2530 C   0  0  0  0  0  0  0  0  0  0  0  0
    5.2730   -4.5760   19.8910 O   0  0  0  0  0  0  0  0  0  0  0  0
    6.8760   -4.1920   21.5410 N   0  0  0  0  0  0  0  0  0  0  0  0
    7.6610   -3.1520   22.1630 C   0  0  0  0  0  0  0  0  0  0  0  0
    6.9260   -2.7010   23.3870 C   0  0  0  0  0  0  0  0  0  0  0  0
    6.6820   -3.8520   24.3230 C   0  0  0  0  0  0  0  0  0  0  0  0
    5.9190   -3.3620   25.4970 C   0  0  0  0  0  0  0  0  0  0  0  0
    4.6840   -3.1930   25.3690 O   0  0  0  0  0  0  0  0  0  0  0  0
    6.5280   -3.0510   26.7390 N   0  0  0  0  0  0  0  0  0  0  0  0
    6.3400   -3.8200   27.9600 C   0  0  1  0  0  0  0  0  0  0  0  0
    4.8940   -4.2650   28.1640 C   0  0  0  0  0  0  0  0  0  0  0  0
    4.4650   -5.4640   27.4880 N   0  0  0  0  0  0  0  0  0  0  0  0
    3.2270   -5.6330   27.8220 C   0  0  0  0  0  0  0  0  0  0  0  0
    2.5050   -6.7080   27.3430 C   0  0  0  0  0  0  0  0  0  0  0  0
    2.8340   -7.6140   26.3480 C   0  0  0  0  0  0  0  0  0  0  0  0
    1.9210   -8.5800   26.0760 C   0  0  0  0  0  0  0  0  0  0  0  0
    0.9430   -9.1240   26.2150 N   0  0  0  0  0  0  0  0  0  0  0  0
    0.4380   -8.2850   27.2670 C   0  0  0  0  0  0  0  0  0  0  0  0
    1.1330   -7.0660   27.8930 C   0  0  0  0  0  0  0  0  0  0  0  0
    2.8730   -4.6140   28.6540 N   0  0  0  0  0  0  0  0  0  0  0  0
    3.9240   -3.8070   28.8300 O   0  0  0  0  0  0  0  0  0  0  0  0
    7.0660   -5.0890   28.1230 C   0  0  0  0  0  0  0  0  0  0  0  0
    6.4680   -6.2470   28.8890 C   0  0  0  0  0  0  0  0  0  0  0  0
    7.3640   -5.7040   26.7110 C   0  0  0  0  0  0  0  0  0  0  0  0
    5.9570   -4.9640   23.6480 C   0  0  0  0  0  0  0  0  0  0  0  0
    6.5370   -5.3630   22.3030 C   0  0  0  0  0  0  0  0  0  0  0  0
  1  2  1  0
  2  3  2  0
  2  4  1  0
  4  5  1  0
  5  6  1  0
  6  7  1  0
  7  8  1  0
  8  9  2  0
  8 10  1  0
 11 10  1  6
 11 12  1  0
 12 13  2  0
 13 14  1  0
 14 15  1  0
 15 16  2  0
 16 17  1  0
 17 18  2  0
 18 19  1  0
 15 20  1  0
 19 20  2  0
 14 21  2  0
 12 22  1  0
 21 22  1  0
 11 23  1  0
 23 24  1  0
 23 25  1  0
  7 26  1  0
  4 27  1  0
 26 27  1  0
M  END
