piperidine-amides-18850-covalent
     RDKit          3D

 21 22  0  0  0  0  0  0  0  0999 V2000
    7.0840   -3.3510   19.4460 C   0  0  0  0  0  0  0  0  0  0  0  0
    6.4080   -4.1860   20.4170 C   0  0  0  0  0  0  0  0  0  0  0  0
    5.4640   -4.9410   20.0080 O   0  0  0  0  0  0  0  0  0  0  0  0
    6.7970   -4.1870   21.7770 N   0  0  0  0  0  0  0  0  0  0  0  0
    6.6220   -5.4700   22.5250 C   0  0  0  0  0  0  0  0  0  0  0  0
    5.8510   -5.0310   23.8520 C   0  0  0  0  0  0  0  0  0  0  0  0
    6.2000   -3.5760   24.0460 C   0  0  0  0  0  0  0  0  0  0  0  0
    5.2120   -2.7540   25.0190 C   0  0  0  0  0  0  0  0  0  0  0  0
    4.7030   -1.8750   24.3620 O   0  0  0  0  0  0  0  0  0  0  0  0
    5.1340   -3.1620   26.2300 N   0  0  0  0  0  0  0  0  0  0  0  0
    4.5800   -3.4920   27.4170 C   0  0  0  0  0  0  0  0  0  0  0  0
    4.8430   -4.5350   28.1950 C   0  0  1  0  0  0  0  0  0  0  0  0
    3.9560   -5.6350   28.0480 C   0  0  0  0  0  0  0  0  0  0  0  0
    2.6350   -5.1640   28.1630 O   0  0  0  0  0  0  0  0  0  0  0  0
    6.1590   -4.8520   27.5120 C   0  0  2  0  0  0  0  0  0  0  0  0
    6.7200   -4.8680   28.9100 C   0  0  0  0  0  0  0  0  0  0  0  0
    6.6010   -6.2620   29.0260 C   0  0  0  0  0  0  0  0  0  0  0  0
    5.7460   -6.9310   28.1390 O   0  0  0  0  0  0  0  0  0  0  0  0
    6.3840   -3.4920   26.8250 C   0  0  0  0  0  0  0  0  0  0  0  0
    7.5650   -3.2240   23.8520 C   0  0  0  0  0  0  0  0  0  0  0  0
    7.7030   -3.2220   22.3030 C   0  0  0  0  0  0  0  0  0  0  0  0
  1  2  1  0
  2  3  2  0
  2  4  1  0
  4  5  1  0
  5  6  1  0
  6  7  1  0
  7  8  1  0
  8  9  2  0
  8 10  1  0
 10 11  1  0
 11 12  1  0
 12 13  1  6
 13 14  1  0
 12 15  1  0
 15 16  1  1
 16 17  1  0
 17 18  1  0
 10 19  1  0
 15 19  1  0
  7 20  1  0
  4 21  1  0
 20 21  1  0
M  END
