piperidine-amides-25344-covalent
     RDKit          3D

 25 28  0  0  0  0  0  0  0  0999 V2000
    7.0500   -3.3200   19.3000 C   0  0  0  0  0  0  0  0  0  0  0  0
    6.4000   -4.1500   20.3480 C   0  0  0  0  0  0  0  0  0  0  0  0
    5.4250   -4.8150   19.9840 O   0  0  0  0  0  0  0  0  0  0  0  0
    6.9100   -4.1950   21.6580 N   0  0  0  0  0  0  0  0  0  0  0  0
    6.6070   -5.2810   22.5440 C   0  0  0  0  0  0  0  0  0  0  0  0
    5.8010   -4.7540   23.7040 C   0  0  0  0  0  0  0  0  0  0  0  0
    5.9510   -3.2310   23.8360 C   0  0  0  0  0  0  0  0  0  0  0  0
    5.2350   -2.6400   25.0410 C   0  0  0  0  0  0  0  0  0  0  0  0
    4.4360   -1.7400   24.8100 O   0  0  0  0  0  0  0  0  0  0  0  0
    5.3480   -3.0200   26.4120 N   0  0  0  0  0  0  0  0  0  0  0  0
    4.4180   -4.0270   26.8560 C   0  0  0  0  0  0  0  0  0  0  0  0
    4.3210   -4.1060   28.3730 C   0  0  0  0  0  0  0  0  0  0  0  0
    4.3000   -4.6710   29.6460 C   0  0  0  0  0  0  0  0  0  0  0  0
    4.4510   -6.0620   30.0460 C   0  0  0  0  0  0  0  0  0  0  0  0
    4.6630   -7.2030   29.2240 C   0  0  0  0  0  0  0  0  0  0  0  0
    4.7060   -6.8370   28.0180 N   0  0  0  0  0  0  0  0  0  0  0  0
    4.5000   -5.5250   28.4530 C   0  0  0  0  0  0  0  0  0  0  0  0
    4.6030   -5.3880   27.1060 N   0  0  0  0  0  0  0  0  0  0  0  0
    3.6500   -6.0390   26.2490 C   0  0  0  0  0  0  0  0  0  0  0  0
    4.4620   -6.4770   25.0680 C   0  0  0  0  0  0  0  0  0  0  0  0
    5.6990   -5.6080   25.2650 C   0  0  0  0  0  0  0  0  0  0  0  0
    5.9280   -5.1370   26.6700 C   0  0  1  0  0  0  0  0  0  0  0  0
    6.4510   -3.7210   26.8480 C   0  0  0  0  0  0  0  0  0  0  0  0
    7.4120   -2.8810   23.6790 C   0  0  0  0  0  0  0  0  0  0  0  0
    7.7380   -3.1260   22.2190 C   0  0  0  0  0  0  0  0  0  0  0  0
  1  2  1  0
  2  3  2  0
  2  4  1  0
  4  5  1  0
  5  6  1  0
  6  7  1  0
  7  8  1  0
  8  9  2  0
  8 10  1  0
 10 11  1  0
 11 12  1  0
 12 13  1  0
 13 14  2  0
 14 15  1  0
 15 16  2  0
 12 17  2  0
 16 17  1  0
 17 18  1  0
 18 19  1  0
 19 20  1  0
 20 21  1  0
 18 22  1  0
 22 21  1  6
 10 23  1  0
 22 23  1  0
  7 24  1  0
  4 25  1  0
 24 25  1  0
M  END
