piperidine-amides-32964-covalent
     RDKit          3D

 29 31  0  0  0  0  0  0  0  0999 V2000
    7.0290   -3.3430   19.4160 C   0  0  0  0  0  0  0  0  0  0  0  0
    6.3560   -4.2320   20.4050 C   0  0  0  0  0  0  0  0  0  0  0  0
    5.3970   -4.9150   20.0030 O   0  0  0  0  0  0  0  0  0  0  0  0
    6.8300   -4.3300   21.7460 N   0  0  0  0  0  0  0  0  0  0  0  0
    6.6480   -5.5570   22.5000 C   0  0  0  0  0  0  0  0  0  0  0  0
    6.2510   -5.2050   23.9510 C   0  0  0  0  0  0  0  0  0  0  0  0
    5.8820   -3.7620   23.9910 C   0  0  0  0  0  0  0  0  0  0  0  0
    4.9850   -3.3290   25.1330 C   0  0  0  0  0  0  0  0  0  0  0  0
    3.8040   -3.5940   24.9320 O   0  0  0  0  0  0  0  0  0  0  0  0
    5.3440   -2.6770   26.3350 N   0  0  0  0  0  0  0  0  0  0  0  0
    4.4720   -2.2020   27.3360 C   0  0  0  0  0  0  0  0  0  0  0  0
    4.4660   -2.7390   28.5970 C   0  0  0  0  0  0  0  0  0  0  0  0
    4.8810   -4.0770   28.3800 N   0  0  0  0  0  0  0  0  0  0  0  0
    4.1250   -5.2340   28.5260 C   0  0  0  0  0  0  0  0  0  0  0  0
    2.9050   -5.4840   27.9130 O   0  0  0  0  0  0  0  0  0  0  0  0
    4.7350   -6.0990   29.3660 C   0  0  0  0  0  0  0  0  0  0  0  0
    4.7580   -5.7900   30.7960 C   0  0  0  0  0  0  0  0  0  0  0  0
    5.4390   -6.6860   31.8000 C   0  0  0  0  0  0  0  0  0  0  0  0
    6.0610   -7.8840   31.1490 C   0  0  0  0  0  0  0  0  0  0  0  0
    5.9980   -8.1400   29.7890 C   0  0  0  0  0  0  0  0  0  0  0  0
    6.5750   -9.3270   29.2830 O   0  0  0  0  0  0  0  0  0  0  0  0
    7.6230  -10.2440   29.6440 C   0  0  0  0  0  0  0  0  0  0  0  0
    5.3330   -7.2480   28.9100 C   0  0  0  0  0  0  0  0  0  0  0  0
    5.2750   -7.5210   27.6730 O   0  0  0  0  0  0  0  0  0  0  0  0
    5.3290   -6.5480   26.6560 C   0  0  0  0  0  0  0  0  0  0  0  0
    6.2140   -4.2390   27.9370 C   0  0  0  0  0  0  0  0  0  0  0  0
    6.5430   -3.0890   26.9630 C   0  0  0  0  0  0  0  0  0  0  0  0
    7.1140   -2.9210   23.7530 C   0  0  0  0  0  0  0  0  0  0  0  0
    7.5860   -3.2180   22.3600 C   0  0  0  0  0  0  0  0  0  0  0  0
  1  2  1  0
  2  3  2  0
  2  4  1  0
  4  5  1  0
  5  6  1  0
  6  7  1  0
  7  8  1  0
  8  9  2  0
  8 10  1  0
 10 11  1  0
 11 12  1  0
 12 13  1  0
 13 14  1  0
 14 15  2  0
 14 16  1  0
 16 17  2  0
 17 18  1  0
 18 19  2  0
 19 20  1  0
 20 21  1  0
 21 22  1  0
 16 23  1  0
 20 23  2  0
 23 24  1  0
 24 25  1  0
 13 26  1  0
 10 27  1  0
 26 27  1  0
  7 28  1  0
  4 29  1  0
 28 29  1  0
M  END
