piperidine-amides-33990-covalent
     RDKit          3D

 29 32  0  0  0  0  0  0  0  0999 V2000
    7.0990   -3.3520   19.3560 C   0  0  0  0  0  0  0  0  0  0  0  0
    6.3930   -4.2010   20.3230 C   0  0  0  0  0  0  0  0  0  0  0  0
    5.3680   -4.8290   19.9770 O   0  0  0  0  0  0  0  0  0  0  0  0
    6.8930   -4.3520   21.6200 N   0  0  0  0  0  0  0  0  0  0  0  0
    6.5920   -5.5530   22.3570 C   0  0  0  0  0  0  0  0  0  0  0  0
    5.7350   -5.1020   23.5400 C   0  0  0  0  0  0  0  0  0  0  0  0
    6.5300   -4.0410   24.2820 C   0  0  0  0  0  0  0  0  0  0  0  0
    5.7360   -3.5360   25.4340 C   0  0  0  0  0  0  0  0  0  0  0  0
    4.6680   -2.9560   25.1580 O   0  0  0  0  0  0  0  0  0  0  0  0
    6.1440   -3.6950   26.7950 N   0  0  0  0  0  0  0  0  0  0  0  0
    5.9850   -2.5760   27.6790 C   0  0  0  0  0  0  0  0  0  0  0  0
    5.7190   -3.1090   29.0710 C   0  0  0  0  0  0  0  0  0  0  0  0
    4.6390   -4.0490   28.9730 N   0  0  0  0  0  0  0  0  0  0  0  0
    3.2590   -4.0230   29.9220 S   0  0  0  0  0  0  0  0  0  0  0  0
    3.6100   -3.8680   31.3760 O   0  0  0  0  0  0  0  0  0  0  0  0
    2.3130   -2.9580   29.4490 O   0  0  0  0  0  0  0  0  0  0  0  0
    2.5600   -5.6420   29.6130 C   0  0  0  0  0  0  0  0  0  0  0  0
    3.2770   -6.7620   29.8460 C   0  0  0  0  0  0  0  0  0  0  0  0
    2.6510   -7.9150   29.5800 C   0  0  0  0  0  0  0  0  0  0  0  0
    1.3920   -7.9880   29.1130 C   0  0  0  0  0  0  0  0  0  0  0  0
    0.3940   -6.9780   28.7720 C   0  0  0  0  0  0  0  0  0  0  0  0
    1.2500   -5.7230   29.1260 C   0  0  0  0  0  0  0  0  0  0  0  0
   -0.8700   -7.3530   28.2940 C   0  0  0  0  0  0  0  0  0  0  0  0
   -0.6450   -8.8230   28.3490 C   0  0  0  0  0  0  0  0  0  0  0  0
    0.6930   -9.2150   28.8210 C   0  0  0  0  0  0  0  0  0  0  0  0
    5.0590   -5.2560   28.3790 C   0  0  0  0  0  0  0  0  0  0  0  0
    6.1820   -4.9460   27.4700 C   0  0  0  0  0  0  0  0  0  0  0  0
    6.8750   -2.8480   23.4180 C   0  0  0  0  0  0  0  0  0  0  0  0
    7.7060   -3.3260   22.2280 C   0  0  0  0  0  0  0  0  0  0  0  0
  1  2  1  0
  2  3  2  0
  2  4  1  0
  4  5  1  0
  5  6  1  0
  6  7  1  0
  7  8  1  0
  8  9  2  0
  8 10  1  0
 10 11  1  0
 11 12  1  0
 12 13  1  0
 13 14  1  0
 14 15  2  0
 14 16  2  0
 14 17  1  0
 17 18  2  0
 18 19  1  0
 19 20  2  0
 20 21  1  0
 17 22  1  0
 21 22  2  0
 21 23  1  0
 23 24  1  0
 20 25  1  0
 24 25  1  0
 13 26  1  0
 10 27  1  0
 26 27  1  0
  7 28  1  0
  4 29  1  0
 28 29  1  0
M  END
