piperidine-amides-30211-covalent
     RDKit          3D

 26 28  0  0  0  0  0  0  0  0999 V2000
    7.0660   -3.3340   19.3740 C   0  0  0  0  0  0  0  0  0  0  0  0
    6.3850   -4.1830   20.3440 C   0  0  0  0  0  0  0  0  0  0  0  0
    5.4020   -4.8400   19.9900 O   0  0  0  0  0  0  0  0  0  0  0  0
    6.8770   -4.2950   21.6980 N   0  0  0  0  0  0  0  0  0  0  0  0
    6.6050   -5.4890   22.4620 C   0  0  0  0  0  0  0  0  0  0  0  0
    6.1580   -5.1460   23.8650 C   0  0  0  0  0  0  0  0  0  0  0  0
    6.0550   -3.6310   23.9850 C   0  0  0  0  0  0  0  0  0  0  0  0
    5.4980   -3.1840   25.3010 C   0  0  0  0  0  0  0  0  0  0  0  0
    4.2830   -2.9440   25.4120 O   0  0  0  0  0  0  0  0  0  0  0  0
    6.3060   -3.0200   26.4550 N   0  0  0  0  0  0  0  0  0  0  0  0
    6.2520   -4.0820   27.4510 C   0  0  0  0  0  0  0  0  0  0  0  0
    4.9060   -4.0730   28.1310 C   0  0  0  0  0  0  0  0  0  0  0  0
    4.3820   -2.9040   28.7030 C   0  0  0  0  0  0  0  0  0  0  0  0
    2.7940   -3.3150   29.4040 S   0  0  0  0  0  0  0  0  0  0  0  0
    2.8720   -4.9740   28.9310 C   0  0  0  0  0  0  0  0  0  0  0  0
    1.8820   -5.8940   29.1960 C   0  0  0  0  0  0  0  0  0  0  0  0
    4.0970   -5.1880   28.2510 N   0  0  0  0  0  0  0  0  0  0  0  0
    6.4140   -1.7730   27.2210 C   0  0  0  0  0  0  0  0  0  0  0  0
    5.8760   -0.6210   26.6660 C   0  0  0  0  0  0  0  0  0  0  0  0
    5.8940    0.6180   27.2790 C   0  0  0  0  0  0  0  0  0  0  0  0
    6.4670    0.8100   28.5270 C   0  0  0  0  0  0  0  0  0  0  0  0
    6.5130    2.0000   29.1770 F   0  0  0  0  0  0  0  0  0  0  0  0
    7.0320   -0.4170   29.0880 C   0  0  0  0  0  0  0  0  0  0  0  0
    7.0080   -1.6480   28.4660 C   0  0  0  0  0  0  0  0  0  0  0  0
    7.3730   -2.9920   23.6740 C   0  0  0  0  0  0  0  0  0  0  0  0
    7.6640   -3.2240   22.2310 C   0  0  0  0  0  0  0  0  0  0  0  0
  1  2  1  0
  2  3  2  0
  2  4  1  0
  4  5  1  0
  5  6  1  0
  6  7  1  0
  7  8  1  0
  8  9  2  0
  8 10  1  0
 10 11  1  0
 11 12  1  0
 12 13  2  0
 13 14  1  0
 14 15  1  0
 15 16  1  0
 12 17  1  0
 15 17  2  0
 10 18  1  0
 18 19  2  0
 19 20  1  0
 20 21  2  0
 21 22  1  0
 21 23  1  0
 18 24  1  0
 23 24  2  0
  7 25  1  0
  4 26  1  0
 25 26  1  0
M  END
