piperidine-amides-28005-covalent
     RDKit          3D

 26 28  0  0  0  0  0  0  0  0999 V2000
    7.0520   -3.3230   19.3540 C   0  0  0  0  0  0  0  0  0  0  0  0
    6.3780   -4.1610   20.3700 C   0  0  0  0  0  0  0  0  0  0  0  0
    5.3800   -4.8000   19.9750 O   0  0  0  0  0  0  0  0  0  0  0  0
    6.8610   -4.2720   21.6920 N   0  0  0  0  0  0  0  0  0  0  0  0
    7.6580   -3.2360   22.2920 C   0  0  0  0  0  0  0  0  0  0  0  0
    7.3240   -2.9690   23.6940 C   0  0  0  0  0  0  0  0  0  0  0  0
    6.1560   -3.7450   24.1490 C   0  0  0  0  0  0  0  0  0  0  0  0
    5.6030   -3.3130   25.4770 C   0  0  0  0  0  0  0  0  0  0  0  0
    4.3610   -3.2560   25.5260 O   0  0  0  0  0  0  0  0  0  0  0  0
    6.3240   -2.9580   26.6550 N   0  0  0  0  0  0  0  0  0  0  0  0
    6.3500   -3.9410   27.7930 C   0  0  0  0  0  0  0  0  0  0  0  0
    6.2050   -5.3830   27.4090 C   0  0  0  0  0  0  0  0  0  0  0  0
    5.0760   -6.1630   27.9010 C   0  0  0  0  0  0  0  0  0  0  0  0
    5.4280   -7.0680   28.7290 O   0  0  0  0  0  0  0  0  0  0  0  0
    6.0810   -1.6950   27.3730 C   0  0  1  0  0  0  0  0  0  0  0  0
    7.0570   -1.4070   28.3060 C   0  0  0  0  0  0  0  0  0  0  0  0
    6.7870   -0.3740   29.1450 C   0  0  0  0  0  0  0  0  0  0  0  0
    6.2660    0.7560   28.5770 C   0  0  0  0  0  0  0  0  0  0  0  0
    5.9170    0.7130   27.2570 C   0  0  0  0  0  0  0  0  0  0  0  0
    5.6610    1.8790   26.5370 C   0  0  0  0  0  0  0  0  0  0  0  0
    5.2780    1.9410   25.1080 C   0  0  0  0  0  0  0  0  0  0  0  0
    5.1560    0.6310   24.3760 C   0  0  0  0  0  0  0  0  0  0  0  0
    5.4620   -0.5240   25.2850 C   0  0  0  0  0  0  0  0  0  0  0  0
    5.8250   -0.5150   26.6520 C   0  0  0  0  0  0  0  0  0  0  0  0
    6.2440   -5.1810   23.8510 C   0  0  0  0  0  0  0  0  0  0  0  0
    6.7170   -5.5030   22.4650 C   0  0  0  0  0  0  0  0  0  0  0  0
  1  2  1  0
  2  3  2  0
  2  4  1  0
  4  5  1  0
  5  6  1  0
  6  7  1  0
  7  8  1  0
  8  9  2  0
  8 10  1  0
 10 11  1  0
 11 12  1  0
 12 13  1  0
 13 14  1  0
 15 10  1  6
 15 16  1  0
 16 17  1  0
 17 18  1  0
 18 19  1  0
 19 20  2  0
 20 21  1  0
 21 22  2  0
 22 23  1  0
 15 24  1  0
 19 24  1  0
 23 24  2  0
  7 25  1  0
  4 26  1  0
 25 26  1  0
M  END
