piperidine-amides-10808-covalent
     RDKit          3D

 22 24  0  0  0  0  0  0  0  0999 V2000
    7.0650   -3.3320   19.3240 C   0  0  0  0  0  0  0  0  0  0  0  0
    6.3760   -4.1390   20.3360 C   0  0  0  0  0  0  0  0  0  0  0  0
    5.3970   -4.8250   19.9850 O   0  0  0  0  0  0  0  0  0  0  0  0
    6.8280   -4.1830   21.6710 N   0  0  0  0  0  0  0  0  0  0  0  0
    7.7740   -3.2010   22.1700 C   0  0  0  0  0  0  0  0  0  0  0  0
    7.4580   -3.0060   23.6200 C   0  0  0  0  0  0  0  0  0  0  0  0
    6.1120   -3.5600   23.9440 C   0  0  0  0  0  0  0  0  0  0  0  0
    5.6420   -3.2050   25.3040 C   0  0  0  0  0  0  0  0  0  0  0  0
    4.4020   -3.1850   25.5680 O   0  0  0  0  0  0  0  0  0  0  0  0
    6.5310   -2.8810   26.3490 N   0  0  0  0  0  0  0  0  0  0  0  0
    6.4550   -1.6140   27.1110 C   0  0  0  0  0  0  0  0  0  0  0  0
    6.9900   -1.6370   28.4970 C   0  0  0  0  0  0  0  0  0  0  0  0
    6.9390   -0.4230   29.2990 C   0  0  0  0  0  0  0  0  0  0  0  0
    6.3630    0.7260   28.6630 C   0  0  0  0  0  0  0  0  0  0  0  0
    5.7850    0.9150   27.2870 C   0  0  0  0  0  0  0  0  0  0  0  0
    5.8630   -0.3650   26.5120 C   0  0  0  0  0  0  0  0  0  0  0  0
    5.1920   -0.4070   24.7240 Br  0  0  0  0  0  0  0  0  0  0  0  0
    6.3220    1.9580   29.5020 C   0  0  0  0  0  0  0  0  0  0  0  0
    6.9400    1.3110   30.7160 N   0  0  0  0  0  0  0  0  0  0  0  0
    7.3310   -0.1230   30.5690 C   0  0  0  0  0  0  0  0  0  0  0  0
    6.0450   -5.0850   23.7630 C   0  0  0  0  0  0  0  0  0  0  0  0
    6.6610   -5.4330   22.3940 C   0  0  0  0  0  0  0  0  0  0  0  0
  1  2  1  0
  2  3  2  0
  2  4  1  0
  4  5  1  0
  5  6  1  0
  6  7  1  0
  7  8  1  0
  8  9  2  0
  8 10  1  0
 10 11  1  0
 11 12  2  0
 12 13  1  0
 13 14  2  0
 14 15  1  0
 11 16  1  0
 15 16  2  0
 16 17  1  0
 14 18  1  0
 18 19  1  0
 13 20  1  0
 19 20  1  0
  7 21  1  0
  4 22  1  0
 21 22  1  0
M  END
