piperidine-amides-10387-covalent
     RDKit          3D

 24 25  0  0  0  0  0  0  0  0999 V2000
    7.1030   -3.2860   19.2360 C   0  0  0  0  0  0  0  0  0  0  0  0
    6.3380   -4.0090   20.2560 C   0  0  0  0  0  0  0  0  0  0  0  0
    5.2640   -4.5440   19.8800 O   0  0  0  0  0  0  0  0  0  0  0  0
    6.8270   -4.1280   21.5580 N   0  0  0  0  0  0  0  0  0  0  0  0
    7.7220   -3.1420   22.1220 C   0  0  0  0  0  0  0  0  0  0  0  0
    7.4550   -3.0920   23.5910 C   0  0  0  0  0  0  0  0  0  0  0  0
    6.0700   -3.6030   23.8980 C   0  0  0  0  0  0  0  0  0  0  0  0
    5.8500   -3.6510   25.3540 C   0  0  0  0  0  0  0  0  0  0  0  0
    4.9430   -2.9320   25.8350 O   0  0  0  0  0  0  0  0  0  0  0  0
    6.6150   -4.4830   26.2030 N   0  0  0  0  0  0  0  0  0  0  0  0
    6.7700   -4.1710   27.5990 C   0  0  1  0  0  0  0  0  0  0  0  0
    5.9110   -5.1090   28.4440 C   0  0  0  0  0  0  0  0  0  0  0  0
    6.3480   -6.3260   28.9080 C   0  0  0  0  0  0  0  0  0  0  0  0
    5.5210   -7.1130   29.6680 C   0  0  0  0  0  0  0  0  0  0  0  0
    4.2390   -6.7560   30.0120 C   0  0  0  0  0  0  0  0  0  0  0  0
    3.2130   -7.7880   30.9900 Cl  0  0  0  0  0  0  0  0  0  0  0  0
    3.7860   -5.5410   29.5540 C   0  0  0  0  0  0  0  0  0  0  0  0
    4.6170   -4.7420   28.7860 C   0  0  0  0  0  0  0  0  0  0  0  0
    4.2280   -3.5500   28.3170 F   0  0  0  0  0  0  0  0  0  0  0  0
    8.0560   -3.9520   28.0870 C   0  0  0  0  0  0  0  0  0  0  0  0
    8.0900   -4.6870   26.7430 C   0  0  0  0  0  0  0  0  0  0  0  0
    8.1150   -2.5790   28.2700 C   0  0  0  0  0  0  0  0  0  0  0  0
    5.8250   -5.0020   23.3750 C   0  0  0  0  0  0  0  0  0  0  0  0
    6.6590   -5.3540   22.3350 C   0  0  0  0  0  0  0  0  0  0  0  0
  1  2  1  0
  2  3  2  0
  2  4  1  0
  4  5  1  0
  5  6  1  0
  6  7  1  0
  7  8  1  0
  8  9  2  0
  8 10  1  0
 11 10  1  6
 11 12  1  0
 12 13  2  0
 13 14  1  0
 14 15  2  0
 15 16  1  0
 15 17  1  0
 12 18  1  0
 17 18  2  0
 18 19  1  0
 11 20  1  0
 20 21  1  0
 20 22  1  0
  7 23  1  0
  4 24  1  0
 23 24  1  0
M  END
