piperidine-amides-8382-covalent
     RDKit          3D

 24 27  0  0  0  0  0  0  0  0999 V2000
    7.0270   -3.3160   19.3690 C   0  0  0  0  0  0  0  0  0  0  0  0
    6.3410   -4.1600   20.3480 C   0  0  0  0  0  0  0  0  0  0  0  0
    5.3380   -4.7850   19.9620 O   0  0  0  0  0  0  0  0  0  0  0  0
    6.8240   -4.3070   21.6780 N   0  0  0  0  0  0  0  0  0  0  0  0
    7.6080   -3.2390   22.2680 C   0  0  0  0  0  0  0  0  0  0  0  0
    7.4000   -3.1540   23.7620 C   0  0  0  0  0  0  0  0  0  0  0  0
    6.1670   -3.9740   24.0610 C   0  0  0  0  0  0  0  0  0  0  0  0
    5.6360   -3.8630   25.4660 C   0  0  0  0  0  0  0  0  0  0  0  0
    4.5150   -4.3350   25.6160 O   0  0  0  0  0  0  0  0  0  0  0  0
    6.3520   -3.2380   26.4840 N   0  0  0  0  0  0  0  0  0  0  0  0
    6.0040   -1.8970   26.7260 C   0  0  2  0  0  0  0  0  0  0  0  0
    6.8810   -1.0380   27.3690 C   0  0  2  0  0  0  0  0  0  0  0  0
    6.6950   -0.6200   28.6740 C   0  0  0  0  0  0  0  0  0  0  0  0
    5.4100   -0.2530   28.6970 C   0  0  2  0  0  0  0  0  0  0  0  0
    4.6500   -1.4930   28.7530 C   0  0  0  0  0  0  0  0  0  0  0  0
    4.6500   -1.8760   27.2490 C   0  0  1  0  0  0  0  0  0  0  0  0
    3.9890   -0.7150   26.5920 C   0  0  0  0  0  0  0  0  0  0  0  0
    4.8940    0.5190   26.7910 C   0  0  1  0  0  0  0  0  0  0  0  0
    4.6500    1.4120   25.9560 O   0  0  0  0  0  0  0  0  0  0  0  0
    4.6820    1.3400   24.5750 C   0  0  0  0  0  0  0  0  0  0  0  0
    4.9160    0.8750   28.1140 C   0  0  0  0  0  0  0  0  0  0  0  0
    6.3990    0.2510   26.6840 C   0  0  0  0  0  0  0  0  0  0  0  0
    6.3890   -5.4060   23.7680 C   0  0  0  0  0  0  0  0  0  0  0  0
    6.7220   -5.5940   22.3210 C   0  0  0  0  0  0  0  0  0  0  0  0
  1  2  1  0
  2  3  2  0
  2  4  1  0
  4  5  1  0
  5  6  1  0
  6  7  1  0
  7  8  1  0
  8  9  2  0
  8 10  1  0
 11 10  1  1
 11 12  1  0
 12 13  1  1
 14 13  1  6
 14 15  1  0
 11 16  1  0
 16 15  1  1
 16 17  1  0
 17 18  1  0
 18 19  1  6
 19 20  1  0
 14 21  1  0
 18 21  1  0
 12 22  1  0
 18 22  1  0
  7 23  1  0
  4 24  1  0
 23 24  1  0
M  END
