piperidine-amides-25945-covalent
     RDKit          3D

 25 26  0  0  0  0  0  0  0  0999 V2000
    7.0370   -3.3540   19.4050 C   0  0  0  0  0  0  0  0  0  0  0  0
    6.3730   -4.2230   20.3840 C   0  0  0  0  0  0  0  0  0  0  0  0
    5.3990   -4.8890   19.9970 O   0  0  0  0  0  0  0  0  0  0  0  0
    6.8140   -4.3730   21.7200 N   0  0  0  0  0  0  0  0  0  0  0  0
    6.6690   -5.5990   22.4560 C   0  0  0  0  0  0  0  0  0  0  0  0
    6.7040   -5.1310   23.8820 C   0  0  0  0  0  0  0  0  0  0  0  0
    6.1330   -3.7500   23.9820 C   0  0  0  0  0  0  0  0  0  0  0  0
    5.7230   -3.2940   25.3430 C   0  0  0  0  0  0  0  0  0  0  0  0
    4.5350   -2.8770   25.4850 O   0  0  0  0  0  0  0  0  0  0  0  0
    6.4930   -3.2720   26.5420 N   0  0  0  0  0  0  0  0  0  0  0  0
    6.4950   -1.9180   27.2030 C   0  0  0  0  0  0  0  0  0  0  0  0
    5.8980   -0.7160   26.5730 C   0  0  0  0  0  0  0  0  0  0  0  0
    5.9370    0.5680   27.3240 C   0  0  0  0  0  0  0  0  0  0  0  0
    6.5850    0.6020   28.6970 C   0  0  0  0  0  0  0  0  0  0  0  0
    7.2860    0.3550   30.0340 C   0  0  0  0  0  0  0  0  0  0  0  0
    7.8860    1.5310   30.6710 N   0  0  0  0  0  0  0  0  0  0  0  0
    7.4130   -0.8130   30.6850 N   0  0  0  0  0  0  0  0  0  0  0  0
    7.1190   -0.5290   29.2180 N   0  0  0  0  0  0  0  0  0  0  0  0
    7.0770   -1.6810   28.5330 C   0  0  0  0  0  0  0  0  0  0  0  0
    6.2490   -4.4110   27.4180 C   0  0  0  0  0  0  0  0  0  0  0  0
    6.8640   -4.4500   28.6690 C   0  0  0  0  0  0  0  0  0  0  0  0
    7.4220   -5.4080   27.6060 C   0  0  0  0  0  0  0  0  0  0  0  0
    6.2600   -5.8140   26.7520 C   0  0  0  0  0  0  0  0  0  0  0  0
    6.9820   -2.7300   23.1860 C   0  0  0  0  0  0  0  0  0  0  0  0
    7.6250   -3.3170   22.3410 C   0  0  0  0  0  0  0  0  0  0  0  0
  1  2  1  0
  2  3  2  0
  2  4  1  0
  4  5  1  0
  5  6  1  0
  6  7  1  0
  7  8  1  0
  8  9  2  0
  8 10  1  0
 10 11  1  0
 11 12  2  0
 12 13  1  0
 13 14  2  0
 14 15  1  0
 15 16  2  3
 15 17  1  0
 14 18  1  0
 11 19  1  0
 18 19  2  0
 20 10  1  0
 20 21  1  0
 20 22  1  0
 20 23  1  0
  7 24  1  0
  4 25  1  0
 24 25  1  0
M  END
