piperidine-amides-33854-covalent
     RDKit          3D

 30 33  0  0  0  0  0  0  0  0999 V2000
    7.0970   -3.3580   19.2960 C   0  0  0  0  0  0  0  0  0  0  0  0
    6.4450   -4.2040   20.3030 C   0  0  0  0  0  0  0  0  0  0  0  0
    5.3720   -4.7600   19.9640 O   0  0  0  0  0  0  0  0  0  0  0  0
    7.0440   -4.4310   21.5670 N   0  0  0  0  0  0  0  0  0  0  0  0
    6.5430   -5.5180   22.3200 C   0  0  0  0  0  0  0  0  0  0  0  0
    5.9150   -5.1220   23.5780 C   0  0  0  0  0  0  0  0  0  0  0  0
    6.4920   -3.9600   24.3060 C   0  0  0  0  0  0  0  0  0  0  0  0
    5.5590   -3.5480   25.3960 C   0  0  0  0  0  0  0  0  0  0  0  0
    4.6580   -2.7270   25.1580 O   0  0  0  0  0  0  0  0  0  0  0  0
    5.6810   -4.0820   26.6870 N   0  0  0  0  0  0  0  0  0  0  0  0
    6.8800   -4.4720   27.2230 C   0  0  0  0  0  0  0  0  0  0  0  0
    6.9990   -5.4710   28.2570 C   0  0  0  0  0  0  0  0  0  0  0  0
    5.9560   -5.0220   29.2810 C   0  0  0  0  0  0  0  0  0  0  0  0
    4.7600   -4.7190   28.6600 C   0  0  1  0  0  0  0  0  0  0  0  0
    4.1430   -4.3800   30.0230 C   0  0  0  0  0  0  0  0  0  0  0  0
    3.9130   -2.9580   30.3620 N   0  0  0  0  0  0  0  0  0  0  0  0
    3.3800   -3.3630   31.6190 C   0  0  0  0  0  0  0  0  0  0  0  0
    2.8320   -2.4890   32.7550 C   0  0  0  0  0  0  0  0  0  0  0  0
    3.2850   -4.6600   31.9940 C   0  0  0  0  0  0  0  0  0  0  0  0
    2.7380   -5.2210   33.3010 C   0  0  0  0  0  0  0  0  0  0  0  0
    3.3160   -5.8290   34.2350 O   0  0  0  0  0  0  0  0  0  0  0  0
    1.3050   -5.0290   33.4920 N   0  0  0  0  0  0  0  0  0  0  0  0
    0.1950   -5.8610   33.0500 C   0  0  0  0  0  0  0  0  0  0  0  0
   -1.0840   -5.3730   33.5870 C   0  0  0  0  0  0  0  0  0  0  0  0
   -0.7400   -4.2550   34.3280 C   0  0  0  0  0  0  0  0  0  0  0  0
    0.6310   -4.0240   34.2970 C   0  0  0  0  0  0  0  0  0  0  0  0
    3.7780   -5.4000   30.9730 O   0  0  0  0  0  0  0  0  0  0  0  0
    4.7830   -3.6920   27.7320 C   0  0  0  0  0  0  0  0  0  0  0  0
    6.8130   -2.8190   23.3790 C   0  0  0  0  0  0  0  0  0  0  0  0
    7.6490   -3.3220   22.2290 C   0  0  0  0  0  0  0  0  0  0  0  0
  1  2  1  0
  2  3  2  0
  2  4  1  0
  4  5  1  0
  5  6  1  0
  6  7  1  0
  7  8  1  0
  8  9  2  0
  8 10  1  0
 10 11  1  0
 11 12  1  0
 12 13  1  0
 13 14  1  0
 14 15  1  1
 15 16  2  0
 16 17  1  0
 17 18  1  0
 17 19  2  0
 19 20  1  0
 20 21  2  0
 20 22  1  0
 22 23  1  0
 23 24  1  0
 24 25  1  0
 22 26  1  0
 25 26  1  0
 15 27  1  0
 19 27  1  0
 10 28  1  0
 14 28  1  0
  7 29  1  0
  4 30  1  0
 29 30  1  0
M  END
