piperidine-amides-31252-covalent
     RDKit          3D

 26 28  0  0  0  0  0  0  0  0999 V2000
    7.0670   -3.3280   19.2870 C   0  0  0  0  0  0  0  0  0  0  0  0
    6.3780   -4.1360   20.2930 C   0  0  0  0  0  0  0  0  0  0  0  0
    5.3700   -4.7830   19.9640 O   0  0  0  0  0  0  0  0  0  0  0  0
    6.8620   -4.2250   21.6040 N   0  0  0  0  0  0  0  0  0  0  0  0
    7.6280   -3.1580   22.1970 C   0  0  0  0  0  0  0  0  0  0  0  0
    6.7570   -2.5920   23.2890 C   0  0  0  0  0  0  0  0  0  0  0  0
    6.3700   -3.6280   24.3150 C   0  0  0  0  0  0  0  0  0  0  0  0
    5.6220   -3.0510   25.4690 C   0  0  0  0  0  0  0  0  0  0  0  0
    4.3990   -2.7510   25.3250 O   0  0  0  0  0  0  0  0  0  0  0  0
    6.1850   -2.8140   26.7630 N   0  0  0  0  0  0  0  0  0  0  0  0
    6.1540   -3.8960   27.7720 C   0  0  0  0  0  0  0  0  0  0  0  0
    7.5260   -4.2220   28.1670 C   0  0  0  0  0  0  0  0  0  0  0  0
    7.9970   -4.9190   27.1690 N   0  0  0  0  0  0  0  0  0  0  0  0
    9.0350   -5.8200   27.3170 C   0  0  0  0  0  0  0  0  0  0  0  0
    9.7220   -5.8460   26.0060 C   0  0  0  0  0  0  0  0  0  0  0  0
    9.1680   -4.8270   25.3000 O   0  0  0  0  0  0  0  0  0  0  0  0
    7.9630   -5.2790   24.8830 C   0  0  0  0  0  0  0  0  0  0  0  0
    7.1640   -5.4540   26.1190 C   0  0  0  0  0  0  0  0  0  0  0  0
    6.0460   -1.5120   27.3420 C   0  0  0  0  0  0  0  0  0  0  0  0
    5.9310   -0.3800   26.5190 C   0  0  0  0  0  0  0  0  0  0  0  0
    5.8330    0.9940   27.1640 C   0  0  0  0  0  0  0  0  0  0  0  0
    5.3220    0.7690   28.7770 S   0  0  0  0  0  0  0  0  0  0  0  0
    6.6370   -0.3270   29.3320 C   0  0  0  0  0  0  0  0  0  0  0  0
    7.0600   -1.2710   28.2440 C   0  0  0  0  0  0  0  0  0  0  0  0
    5.6260   -4.7520   23.6310 C   0  0  0  0  0  0  0  0  0  0  0  0
    6.3040   -5.2610   22.4100 C   0  0  0  0  0  0  0  0  0  0  0  0
  1  2  1  0
  2  3  2  0
  2  4  1  0
  4  5  1  0
  5  6  1  0
  6  7  1  0
  7  8  1  0
  8  9  2  0
  8 10  1  0
 10 11  1  0
 11 12  1  0
 12 13  1  0
 13 14  1  0
 14 15  1  0
 15 16  1  0
 16 17  1  0
 13 18  1  0
 17 18  1  0
 10 19  1  0
 19 20  1  0
 20 21  1  0
 21 22  1  0
 22 23  1  0
 19 24  1  0
 23 24  1  0
  7 25  1  0
  4 26  1  0
 25 26  1  0
M  END
