piperidine-amides-8379-covalent
     RDKit          3D

 24 26  0  0  0  0  0  0  0  0999 V2000
    7.0750   -3.2880   19.3060 C   0  0  0  0  0  0  0  0  0  0  0  0
    6.3630   -4.0880   20.3060 C   0  0  0  0  0  0  0  0  0  0  0  0
    5.3440   -4.7020   19.9420 O   0  0  0  0  0  0  0  0  0  0  0  0
    6.8480   -4.1810   21.6380 N   0  0  0  0  0  0  0  0  0  0  0  0
    6.6790   -5.4130   22.3590 C   0  0  0  0  0  0  0  0  0  0  0  0
    6.0970   -5.1080   23.7050 C   0  0  0  0  0  0  0  0  0  0  0  0
    6.0840   -3.6020   23.8010 C   0  0  0  0  0  0  0  0  0  0  0  0
    5.6360   -3.1510   25.1590 C   0  0  0  0  0  0  0  0  0  0  0  0
    4.4330   -3.2560   25.3740 O   0  0  0  0  0  0  0  0  0  0  0  0
    6.5650   -2.6500   26.0670 N   0  0  0  0  0  0  0  0  0  0  0  0
    6.4340   -2.8640   27.4710 C   0  0  0  0  0  0  0  0  0  0  0  0
    5.2400   -2.4130   28.0490 C   0  0  0  0  0  0  0  0  0  0  0  0
    4.6890   -1.1830   28.1160 C   0  0  0  0  0  0  0  0  0  0  0  0
    3.4880   -1.3310   28.8180 N   0  0  0  0  0  0  0  0  0  0  0  0
    3.2750   -2.5920   29.1870 N   0  0  0  0  0  0  0  0  0  0  0  0
    4.3280   -3.3160   28.7410 N   0  0  0  0  0  0  0  0  0  0  0  0
    4.5850   -4.7200   28.8730 C   0  0  0  0  0  0  0  0  0  0  0  0
    6.0200   -5.1360   28.8700 C   0  0  0  0  0  0  0  0  0  0  0  0
    6.3350   -6.6230   29.0000 C   0  0  0  0  0  0  0  0  0  0  0  0
    5.2490   -7.6120   29.1280 C   0  0  0  0  0  0  0  0  0  0  0  0
    3.8160   -7.1730   29.1320 C   0  0  0  0  0  0  0  0  0  0  0  0
    3.5390   -5.6480   28.9950 C   0  0  0  0  0  0  0  0  0  0  0  0
    7.4770   -3.0840   23.5480 C   0  0  0  0  0  0  0  0  0  0  0  0
    7.7100   -3.1490   22.1890 C   0  0  0  0  0  0  0  0  0  0  0  0
  1  2  1  0
  2  3  2  0
  2  4  1  0
  4  5  1  0
  5  6  1  0
  6  7  1  0
  7  8  1  0
  8  9  2  0
  8 10  1  0
 10 11  1  0
 11 12  1  0
 12 13  2  0
 13 14  1  0
 14 15  2  0
 12 16  1  0
 15 16  1  0
 16 17  1  0
 17 18  2  0
 18 19  1  0
 19 20  2  0
 20 21  1  0
 17 22  1  0
 21 22  2  0
  7 23  1  0
  4 24  1  0
 23 24  1  0
M  END
