piperidine-amides-72-covalent
     RDKit          3D

 27 30  0  0  0  0  0  0  0  0999 V2000
    7.0720   -3.3560   19.2480 C   0  0  0  0  0  0  0  0  0  0  0  0
    6.3460   -4.0900   20.2620 C   0  0  0  0  0  0  0  0  0  0  0  0
    5.2590   -4.6340   19.9120 O   0  0  0  0  0  0  0  0  0  0  0  0
    6.8090   -4.2860   21.5760 N   0  0  0  0  0  0  0  0  0  0  0  0
    7.7150   -3.2830   22.1740 C   0  0  0  0  0  0  0  0  0  0  0  0
    6.7200   -2.6780   23.2150 C   0  0  0  0  0  0  0  0  0  0  0  0
    6.6300   -3.7490   24.2630 C   0  0  0  0  0  0  0  0  0  0  0  0
    5.5860   -3.3600   25.3920 C   0  0  0  0  0  0  0  0  0  0  0  0
    4.5570   -4.0100   25.2810 O   0  0  0  0  0  0  0  0  0  0  0  0
    6.0830   -2.4510   26.1290 N   0  0  0  0  0  0  0  0  0  0  0  0
    6.5560   -1.4420   26.9030 C   0  0  2  0  0  0  0  0  0  0  0  0
    7.1070   -1.3350   28.1730 C   0  0  0  0  0  0  0  0  0  0  0  0
    6.4300   -0.4260   28.9940 C   0  0  0  0  0  0  0  0  0  0  0  0
    5.3960    0.2340   28.2110 C   0  0  1  0  0  0  0  0  0  0  0  0
    6.2170    1.5340   28.1330 C   0  0  0  0  0  0  0  0  0  0  0  0
    5.9740    1.7580   26.7600 C   0  0  0  0  0  0  0  0  0  0  0  0
    5.5510    0.6840   25.9620 N   0  0  0  0  0  0  0  0  0  0  0  0
    6.0780    0.3150   24.6510 C   0  0  0  0  0  0  0  0  0  0  0  0
    6.0230    1.4630   23.6340 C   0  0  0  0  0  0  0  0  0  0  0  0
    4.6740    2.0000   23.0820 C   0  0  0  0  0  0  0  0  0  0  0  0
    4.6890    3.0140   22.1840 C   0  0  0  0  0  0  0  0  0  0  0  0
    5.8540    3.5700   21.7570 C   0  0  0  0  0  0  0  0  0  0  0  0
    7.0700    3.1340   22.2110 C   0  0  0  0  0  0  0  0  0  0  0  0
    7.1660    2.0900   23.1420 C   0  0  0  0  0  0  0  0  0  0  0  0
    5.4280   -0.4250   26.8700 C   0  0  1  0  0  0  0  0  0  0  0  0
    6.5540   -5.1830   23.8280 C   0  0  0  0  0  0  0  0  0  0  0  0
    6.5420   -5.4620   22.3510 C   0  0  0  0  0  0  0  0  0  0  0  0
  1  2  1  0
  2  3  2  0
  2  4  1  0
  4  5  1  0
  5  6  1  0
  6  7  1  0
  7  8  1  0
  8  9  2  0
  8 10  1  0
 11 10  1  1
 11 12  1  0
 12 13  1  0
 14 13  1  1
 14 15  1  0
 15 16  1  0
 16 17  1  0
 17 18  1  0
 18 19  1  0
 19 20  2  0
 20 21  1  0
 21 22  2  0
 22 23  1  0
 19 24  1  0
 23 24  2  0
 11 25  1  0
 14 25  1  0
 25 17  1  6
  7 26  1  0
  4 27  1  0
 26 27  1  0
M  END
