piperidine-amides-6292-covalent
     RDKit          3D

 25 28  0  0  0  0  0  0  0  0999 V2000
    7.0500   -3.3210   19.3580 C   0  0  0  0  0  0  0  0  0  0  0  0
    6.3720   -4.1840   20.3360 C   0  0  0  0  0  0  0  0  0  0  0  0
    5.3910   -4.8760   19.9860 O   0  0  0  0  0  0  0  0  0  0  0  0
    6.8310   -4.2740   21.6570 N   0  0  0  0  0  0  0  0  0  0  0  0
    6.5860   -5.5010   22.3760 C   0  0  0  0  0  0  0  0  0  0  0  0
    6.1070   -5.1310   23.7910 C   0  0  0  0  0  0  0  0  0  0  0  0
    6.0420   -3.6160   23.8850 C   0  0  0  0  0  0  0  0  0  0  0  0
    5.6580   -3.2060   25.2530 C   0  0  0  0  0  0  0  0  0  0  0  0
    4.4480   -3.2410   25.5600 O   0  0  0  0  0  0  0  0  0  0  0  0
    6.6470   -2.7940   26.1700 N   0  0  0  0  0  0  0  0  0  0  0  0
    6.4870   -1.5780   26.9260 C   0  0  0  0  0  0  0  0  0  0  0  0
    7.0740   -1.6090   28.3200 C   0  0  0  0  0  0  0  0  0  0  0  0
    6.9930   -0.5160   29.1550 C   0  0  0  0  0  0  0  0  0  0  0  0
    6.3600    0.6340   28.7120 C   0  0  0  0  0  0  0  0  0  0  0  0
    6.2430    1.7710   29.5060 N   0  0  0  0  0  0  0  0  0  0  0  0
    5.5730    2.6640   28.7280 C   0  0  0  0  0  0  0  0  0  0  0  0
    5.2010    3.9310   29.0330 O   0  0  0  0  0  0  0  0  0  0  0  0
    5.2610    2.0870   27.4300 N   0  0  0  0  0  0  0  0  0  0  0  0
    4.5430    2.8110   26.3870 C   0  0  0  0  0  0  0  0  0  0  0  0
    3.0610    2.8210   26.7220 C   0  0  0  0  0  0  0  0  0  0  0  0
    3.5590    2.2180   25.4400 C   0  0  0  0  0  0  0  0  0  0  0  0
    5.8130    0.7100   27.4610 C   0  0  0  0  0  0  0  0  0  0  0  0
    5.8730   -0.4170   26.5370 C   0  0  0  0  0  0  0  0  0  0  0  0
    7.3670   -3.0160   23.5230 C   0  0  0  0  0  0  0  0  0  0  0  0
    7.6220   -3.2150   22.2000 C   0  0  0  0  0  0  0  0  0  0  0  0
  1  2  1  0
  2  3  2  0
  2  4  1  0
  4  5  1  0
  5  6  1  0
  6  7  1  0
  7  8  1  0
  8  9  2  0
  8 10  1  0
 10 11  1  0
 11 12  2  0
 12 13  1  0
 13 14  2  0
 14 15  1  0
 15 16  2  0
 16 17  1  0
 16 18  1  0
 18 19  1  0
 19 20  1  0
 19 21  1  0
 20 21  1  0
 14 22  1  0
 18 22  1  0
 11 23  1  0
 22 23  2  0
  7 24  1  0
  4 25  1  0
 24 25  1  0
M  END
