piperidine-amides-15277-covalent
     RDKit          3D

 19 20  0  0  0  0  0  0  0  0999 V2000
    7.1300   -3.2900   19.2060 C   0  0  0  0  0  0  0  0  0  0  0  0
    6.3560   -4.0350   20.2050 C   0  0  0  0  0  0  0  0  0  0  0  0
    5.2750   -4.5670   19.8920 O   0  0  0  0  0  0  0  0  0  0  0  0
    6.8550   -4.2100   21.4990 N   0  0  0  0  0  0  0  0  0  0  0  0
    7.6980   -3.2020   22.0990 C   0  0  0  0  0  0  0  0  0  0  0  0
    6.8890   -2.5950   23.2390 C   0  0  0  0  0  0  0  0  0  0  0  0
    6.6260   -3.7210   24.2100 C   0  0  0  0  0  0  0  0  0  0  0  0
    5.8350   -3.1700   25.3230 C   0  0  0  0  0  0  0  0  0  0  0  0
    4.6240   -2.9230   25.1300 O   0  0  0  0  0  0  0  0  0  0  0  0
    6.4570   -2.9280   26.5650 N   0  0  0  0  0  0  0  0  0  0  0  0
    6.0440   -3.6270   27.7470 C   0  0  0  0  0  0  0  0  0  0  0  0
    5.3290   -4.9120   27.3650 C   0  0  0  0  0  0  0  0  0  0  0  0
    4.3950   -5.2880   26.4510 C   0  0  0  0  0  0  0  0  0  0  0  0
    4.1120   -6.6900   26.5880 N   0  0  0  0  0  0  0  0  0  0  0  0
    4.9060   -7.2020   27.6290 O   0  0  0  0  0  0  0  0  0  0  0  0
    5.6270   -6.1640   28.0950 C   0  0  0  0  0  0  0  0  0  0  0  0
    6.5460   -6.2310   29.1330 C   0  0  0  0  0  0  0  0  0  0  0  0
    5.9240   -4.8920   23.6080 C   0  0  0  0  0  0  0  0  0  0  0  0
    6.4940   -5.3530   22.2870 C   0  0  0  0  0  0  0  0  0  0  0  0
  1  2  1  0
  2  3  2  0
  2  4  1  0
  4  5  1  0
  5  6  1  0
  6  7  1  0
  7  8  1  0
  8  9  2  0
  8 10  1  0
 10 11  1  0
 11 12  1  0
 12 13  1  0
 13 14  2  0
 14 15  1  0
 12 16  2  0
 15 16  1  0
 16 17  1  0
  7 18  1  0
  4 19  1  0
 18 19  1  0
M  END
