piperidine-amides-10417-covalent
     RDKit          3D

 25 26  0  0  0  0  0  0  0  0999 V2000
    7.0860   -3.2910   19.2820 C   0  0  0  0  0  0  0  0  0  0  0  0
    6.3690   -4.0820   20.2930 C   0  0  0  0  0  0  0  0  0  0  0  0
    5.2960   -4.6170   19.9090 O   0  0  0  0  0  0  0  0  0  0  0  0
    6.8830   -4.2650   21.5860 N   0  0  0  0  0  0  0  0  0  0  0  0
    6.6310   -5.4730   22.3430 C   0  0  0  0  0  0  0  0  0  0  0  0
    6.0750   -5.0960   23.6920 C   0  0  0  0  0  0  0  0  0  0  0  0
    5.9990   -3.6060   23.8830 C   0  0  0  0  0  0  0  0  0  0  0  0
    5.5860   -3.2970   25.2690 C   0  0  0  0  0  0  0  0  0  0  0  0
    4.3850   -3.0150   25.4710 O   0  0  0  0  0  0  0  0  0  0  0  0
    6.4620   -3.3010   26.3640 N   0  0  0  0  0  0  0  0  0  0  0  0
    6.1050   -3.8840   27.6330 C   0  0  0  0  0  0  0  0  0  0  0  0
    5.9070   -5.4090   27.6370 C   0  0  2  0  0  0  0  0  0  0  0  0
    4.7370   -6.0740   27.3800 C   0  0  0  0  0  0  0  0  0  0  0  0
    6.4130   -5.9410   28.9480 C   0  0  0  0  0  0  0  0  0  0  0  0
    5.6530   -6.3590   29.9770 N   0  0  0  0  0  0  0  0  0  0  0  0
    5.7200   -7.4580   30.7190 C   0  0  0  0  0  0  0  0  0  0  0  0
    4.7570   -7.4400   31.6280 C   0  0  0  0  0  0  0  0  0  0  0  0
    4.0590   -6.3070   31.4620 C   0  0  0  0  0  0  0  0  0  0  0  0
    2.8630   -5.7690   32.2140 C   0  0  0  0  0  0  0  0  0  0  0  0
    2.8450   -4.4380   32.4620 F   0  0  0  0  0  0  0  0  0  0  0  0
    1.7720   -6.1280   31.4640 F   0  0  0  0  0  0  0  0  0  0  0  0
    2.7710   -6.4510   33.4340 F   0  0  0  0  0  0  0  0  0  0  0  0
    4.5920   -5.5810   30.4160 N   0  0  0  0  0  0  0  0  0  0  0  0
    7.3060   -2.9550   23.5850 C   0  0  0  0  0  0  0  0  0  0  0  0
    7.6860   -3.1690   22.1410 C   0  0  0  0  0  0  0  0  0  0  0  0
  1  2  1  0
  2  3  2  0
  2  4  1  0
  4  5  1  0
  5  6  1  0
  6  7  1  0
  7  8  1  0
  8  9  2  0
  8 10  1  0
 10 11  1  0
 11 12  1  0
 12 13  1  1
 12 14  1  0
 14 15  1  0
 15 16  1  0
 16 17  2  0
 17 18  1  0
 18 19  1  0
 19 20  1  0
 19 21  1  0
 19 22  1  0
 15 23  1  0
 18 23  2  0
  7 24  1  0
  4 25  1  0
 24 25  1  0
M  END
