piperidine-amides-24023-covalent
     RDKit          3D

 24 26  0  0  0  0  0  0  0  0999 V2000
    7.0660   -3.2880   19.2560 C   0  0  0  0  0  0  0  0  0  0  0  0
    6.3370   -4.0750   20.2670 C   0  0  0  0  0  0  0  0  0  0  0  0
    5.2640   -4.5960   19.8910 O   0  0  0  0  0  0  0  0  0  0  0  0
    6.8120   -4.2970   21.5810 N   0  0  0  0  0  0  0  0  0  0  0  0
    6.1220   -5.3100   22.2980 C   0  0  0  0  0  0  0  0  0  0  0  0
    5.4070   -4.8270   23.4800 C   0  0  0  0  0  0  0  0  0  0  0  0
    5.6130   -3.3930   23.8000 C   0  0  0  0  0  0  0  0  0  0  0  0
    4.9370   -2.9600   25.1020 C   0  0  0  0  0  0  0  0  0  0  0  0
    3.7690   -2.5630   25.0330 O   0  0  0  0  0  0  0  0  0  0  0  0
    5.5260   -2.9940   26.3830 N   0  0  0  0  0  0  0  0  0  0  0  0
    4.8710   -2.9960   27.6480 C   0  0  0  0  0  0  0  0  0  0  0  0
    5.3750   -3.8510   28.7490 C   0  0  0  0  0  0  0  0  0  0  0  0
    5.9520   -5.1630   28.1650 C   0  0  0  0  0  0  0  0  0  0  0  0
    6.3200   -5.0200   26.8390 C   0  0  2  0  0  0  0  0  0  0  0  0
    7.5780   -5.1990   26.6040 N   0  0  0  0  0  0  0  0  0  0  0  0
    8.3070   -5.0080   27.5400 N   0  0  0  0  0  0  0  0  0  0  0  0
    9.5400   -5.1750   27.0820 C   0  0  0  0  0  0  0  0  0  0  0  0
   10.3410   -4.9210   28.1460 C   0  0  0  0  0  0  0  0  0  0  0  0
    9.5160   -5.5060   25.8010 N   0  0  0  0  0  0  0  0  0  0  0  0
    8.2240   -5.5160   25.4610 C   0  0  0  0  0  0  0  0  0  0  0  0
    7.6240   -5.7850   24.1110 C   0  0  0  0  0  0  0  0  0  0  0  0
    6.6130   -3.7620   26.4840 C   0  0  0  0  0  0  0  0  0  0  0  0
    7.0900   -2.9790   23.6690 C   0  0  0  0  0  0  0  0  0  0  0  0
    7.5050   -3.1530   22.2340 C   0  0  0  0  0  0  0  0  0  0  0  0
  1  2  1  0
  2  3  2  0
  2  4  1  0
  4  5  1  0
  5  6  1  0
  6  7  1  0
  7  8  1  0
  8  9  2  0
  8 10  1  0
 10 11  1  0
 11 12  1  0
 12 13  1  0
 13 14  1  0
 14 15  1  1
 15 16  1  0
 16 17  2  0
 17 18  1  0
 17 19  1  0
 15 20  1  0
 19 20  2  0
 20 21  1  0
 10 22  1  0
 14 22  1  0
  7 23  1  0
  4 24  1  0
 23 24  1  0
M  END
