piperidine-amides-12841-covalent
     RDKit          3D

 23 25  0  0  0  0  0  0  0  0999 V2000
    7.1880   -3.3150   19.2040 C   0  0  0  0  0  0  0  0  0  0  0  0
    6.3260   -3.9720   20.2100 C   0  0  0  0  0  0  0  0  0  0  0  0
    5.2290   -4.4130   19.8220 O   0  0  0  0  0  0  0  0  0  0  0  0
    6.7600   -4.1280   21.5240 N   0  0  0  0  0  0  0  0  0  0  0  0
    7.4970   -3.0860   22.1610 C   0  0  0  0  0  0  0  0  0  0  0  0
    7.6190   -3.1550   23.6170 C   0  0  0  0  0  0  0  0  0  0  0  0
    6.5710   -3.9080   24.3520 C   0  0  0  0  0  0  0  0  0  0  0  0
    5.6250   -2.9300   24.9220 C   0  0  0  0  0  0  0  0  0  0  0  0
    4.4120   -3.2130   24.9580 O   0  0  0  0  0  0  0  0  0  0  0  0
    6.0800   -1.7030   25.4210 N   0  0  0  0  0  0  0  0  0  0  0  0
    6.2480   -1.5360   26.8610 C   0  0  0  0  0  0  0  0  0  0  0  0
    6.3890   -2.8570   27.4570 C   0  0  0  0  0  0  0  0  0  0  0  0
    7.5880   -3.2670   28.1000 C   0  0  0  0  0  0  0  0  0  0  0  0
    7.7090   -4.4810   28.6380 C   0  0  0  0  0  0  0  0  0  0  0  0
    6.6420   -5.3190   28.5650 C   0  0  0  0  0  0  0  0  0  0  0  0
    5.4550   -5.0340   27.9600 C   0  0  0  0  0  0  0  0  0  0  0  0
    5.2050   -3.8270   27.3700 C   0  0  0  0  0  0  0  0  0  0  0  0
    4.5820   -6.1210   28.0280 C   0  0  0  0  0  0  0  0  0  0  0  0
    3.2720   -6.1820   27.6710 O   0  0  0  0  0  0  0  0  0  0  0  0
    5.4250   -7.1520   28.5690 N   0  0  0  0  0  0  0  0  0  0  0  0
    6.5900   -6.5630   29.0790 C   0  0  0  0  0  0  0  0  0  0  0  0
    5.8420   -4.9550   23.5970 C   0  0  0  0  0  0  0  0  0  0  0  0
    6.4790   -5.3320   22.2940 C   0  0  0  0  0  0  0  0  0  0  0  0
  1  2  1  0
  2  3  2  0
  2  4  1  0
  4  5  1  0
  5  6  1  0
  6  7  1  0
  7  8  1  0
  8  9  2  0
  8 10  1  0
 10 11  1  0
 11 12  1  0
 12 13  2  0
 13 14  1  0
 14 15  2  0
 15 16  1  0
 12 17  1  0
 16 17  2  0
 16 18  1  0
 18 19  2  0
 18 20  1  0
 15 21  1  0
 20 21  1  0
  7 22  1  0
  4 23  1  0
 22 23  1  0
M  END
