piperidine-amides-990-covalent
     RDKit          3D

 24 26  0  0  0  0  0  0  0  0999 V2000
    7.0650   -3.3360   19.3160 C   0  0  0  0  0  0  0  0  0  0  0  0
    6.3730   -4.1960   20.3110 C   0  0  0  0  0  0  0  0  0  0  0  0
    5.3500   -4.8150   19.9720 O   0  0  0  0  0  0  0  0  0  0  0  0
    6.9310   -4.3210   21.5990 N   0  0  0  0  0  0  0  0  0  0  0  0
    7.7010   -3.2730   22.2270 C   0  0  0  0  0  0  0  0  0  0  0  0
    6.8030   -2.6520   23.2930 C   0  0  0  0  0  0  0  0  0  0  0  0
    6.5030   -3.7320   24.2750 C   0  0  0  0  0  0  0  0  0  0  0  0
    5.6200   -3.2930   25.3850 C   0  0  0  0  0  0  0  0  0  0  0  0
    4.4160   -3.2230   25.1170 O   0  0  0  0  0  0  0  0  0  0  0  0
    6.1320   -2.9820   26.6570 N   0  0  0  0  0  0  0  0  0  0  0  0
    6.5090   -1.6910   27.1390 C   0  0  0  0  0  0  0  0  0  0  0  0
    6.9680   -1.5390   28.4380 C   0  0  0  0  0  0  0  0  0  0  0  0
    6.6780   -0.3920   29.1900 C   0  0  0  0  0  0  0  0  0  0  0  0
    5.3350    0.0330   28.8490 N   0  0  0  0  0  0  0  0  0  0  0  0
    4.1790   -0.1840   29.5340 C   0  0  0  0  0  0  0  0  0  0  0  0
    4.2100   -0.4620   30.9980 C   0  0  0  0  0  0  0  0  0  0  0  0
    3.4090   -1.7210   31.4170 C   0  0  0  0  0  0  0  0  0  0  0  0
    2.4770   -1.1810   32.5030 C   0  0  0  0  0  0  0  0  0  0  0  0
    2.7080    0.1540   32.6540 C   0  0  0  0  0  0  0  0  0  0  0  0
    3.7690    0.6210   31.7430 C   0  0  0  0  0  0  0  0  0  0  0  0
    5.4210    0.4270   27.4950 C   0  0  0  0  0  0  0  0  0  0  0  0
    5.6700   -0.6660   26.6950 C   0  0  0  0  0  0  0  0  0  0  0  0
    5.8670   -4.9600   23.6810 C   0  0  0  0  0  0  0  0  0  0  0  0
    6.5800   -5.4500   22.4400 C   0  0  0  0  0  0  0  0  0  0  0  0
  1  2  1  0
  2  3  2  0
  2  4  1  0
  4  5  1  0
  5  6  1  0
  6  7  1  0
  7  8  1  0
  8  9  2  0
  8 10  1  0
 10 11  1  0
 11 12  1  0
 12 13  1  0
 13 14  1  0
 14 15  1  0
 15 16  1  0
 16 17  1  0
 17 18  1  0
 18 19  1  0
 16 20  1  0
 19 20  1  0
 14 21  1  0
 11 22  1  0
 21 22  1  0
  7 23  1  0
  4 24  1  0
 23 24  1  0
M  END
