piperidine-amides-521-covalent
     RDKit          3D

 27 29  0  0  0  0  0  0  0  0999 V2000
    7.2010   -3.2840   19.3360 C   0  0  0  0  0  0  0  0  0  0  0  0
    6.4390   -4.0640   20.2870 C   0  0  0  0  0  0  0  0  0  0  0  0
    5.3430   -4.5850   19.9060 O   0  0  0  0  0  0  0  0  0  0  0  0
    6.8950   -4.3040   21.6010 N   0  0  0  0  0  0  0  0  0  0  0  0
    7.9020   -3.3910   22.1840 C   0  0  0  0  0  0  0  0  0  0  0  0
    6.9750   -2.5910   23.1500 C   0  0  0  0  0  0  0  0  0  0  0  0
    6.5690   -3.5810   24.2130 C   0  0  0  0  0  0  0  0  0  0  0  0
    5.5230   -2.8590   25.1530 C   0  0  0  0  0  0  0  0  0  0  0  0
    4.7160   -2.2280   24.4930 O   0  0  0  0  0  0  0  0  0  0  0  0
    5.7690   -3.1220   26.3620 N   0  0  0  0  0  0  0  0  0  0  0  0
    5.8960   -3.3700   27.6800 C   0  0  1  0  0  0  0  0  0  0  0  0
    5.4200   -2.8000   28.8250 C   0  0  0  0  0  0  0  0  0  0  0  0
    4.2590   -3.3710   29.3630 C   0  0  0  0  0  0  0  0  0  0  0  0
    3.5460   -2.9290   30.5930 C   0  0  0  0  0  0  0  0  0  0  0  0
    4.2760   -1.7000   31.2330 C   0  0  0  0  0  0  0  0  0  0  0  0
    5.4290   -1.2560   30.5590 C   0  0  0  0  0  0  0  0  0  0  0  0
    5.9880   -1.7770   29.4040 C   0  0  0  0  0  0  0  0  0  0  0  0
    5.4810   -4.7720   27.7680 C   0  0  0  0  0  0  0  0  0  0  0  0
    6.1500   -5.2700   29.0680 C   0  0  0  0  0  0  0  0  0  0  0  0
    5.8990   -6.5740   29.3630 C   0  0  0  0  0  0  0  0  0  0  0  0
    5.1100   -7.3310   28.5320 C   0  0  0  0  0  0  0  0  0  0  0  0
    4.5200   -6.8890   27.3770 C   0  0  0  0  0  0  0  0  0  0  0  0
    3.7420   -7.7200   26.5970 O   0  0  0  0  0  0  0  0  0  0  0  0
    2.4530   -8.0700   27.0700 C   0  0  0  0  0  0  0  0  0  0  0  0
    4.7060   -5.5860   26.9830 C   0  0  0  0  0  0  0  0  0  0  0  0
    6.1710   -4.9730   23.8200 C   0  0  0  0  0  0  0  0  0  0  0  0
    6.5080   -5.4080   22.4190 C   0  0  0  0  0  0  0  0  0  0  0  0
  1  2  1  0
  2  3  2  0
  2  4  1  0
  4  5  1  0
  5  6  1  0
  6  7  1  0
  7  8  1  0
  8  9  2  0
  8 10  1  0
 11 10  1  6
 11 12  1  0
 12 13  2  0
 13 14  1  0
 14 15  2  0
 15 16  1  0
 12 17  1  0
 16 17  2  0
 11 18  1  0
 18 19  2  0
 19 20  1  0
 20 21  2  0
 21 22  1  0
 22 23  1  0
 23 24  1  0
 18 25  1  0
 22 25  2  0
  7 26  1  0
  4 27  1  0
 26 27  1  0
M  END
