piperidine-amides-30766-covalent
     RDKit          3D

 28 31  0  0  0  0  0  0  0  0999 V2000
    7.0360   -3.3620   19.4220 C   0  0  0  0  0  0  0  0  0  0  0  0
    6.3810   -4.2240   20.4100 C   0  0  0  0  0  0  0  0  0  0  0  0
    5.4390   -4.9380   20.0150 O   0  0  0  0  0  0  0  0  0  0  0  0
    6.8110   -4.2900   21.7630 N   0  0  0  0  0  0  0  0  0  0  0  0
    6.6560   -5.5050   22.5500 C   0  0  0  0  0  0  0  0  0  0  0  0
    6.0640   -5.1040   23.8930 C   0  0  0  0  0  0  0  0  0  0  0  0
    6.0480   -3.6220   24.0580 C   0  0  0  0  0  0  0  0  0  0  0  0
    5.2920   -3.0360   25.2370 C   0  0  0  0  0  0  0  0  0  0  0  0
    4.5600   -2.0430   24.9930 O   0  0  0  0  0  0  0  0  0  0  0  0
    5.2450   -3.4290   26.6140 N   0  0  0  0  0  0  0  0  0  0  0  0
    6.4620   -3.4680   27.3610 C   0  0  0  0  0  0  0  0  0  0  0  0
    6.4610   -4.7640   28.1220 C   0  0  0  0  0  0  0  0  0  0  0  0
    5.2700   -4.7470   28.7140 N   0  0  0  0  0  0  0  0  0  0  0  0
    4.3710   -5.8380   28.6650 C   0  0  0  0  0  0  0  0  0  0  0  0
    3.7710   -6.2250   30.0020 C   0  0  0  0  0  0  0  0  0  0  0  0
    2.7780   -7.3750   30.0510 C   0  0  0  0  0  0  0  0  0  0  0  0
    2.4800   -8.0250   28.7540 C   0  0  0  0  0  0  0  0  0  0  0  0
    3.0550   -7.6350   27.5790 C   0  0  0  0  0  0  0  0  0  0  0  0
    2.7410   -8.2960   26.3430 C   0  0  0  0  0  0  0  0  0  0  0  0
    3.1760   -8.0960   25.0780 N   0  0  0  0  0  0  0  0  0  0  0  0
    4.0920   -7.0800   24.8540 C   0  0  0  0  0  0  0  0  0  0  0  0
    4.5200   -6.2900   26.0640 C   0  0  0  0  0  0  0  0  0  0  0  0
    3.9780   -6.5920   27.4380 C   0  0  0  0  0  0  0  0  0  0  0  0
    4.6420   -3.5530   28.8850 C   0  0  0  0  0  0  0  0  0  0  0  0
    4.4240   -2.9610   29.9670 O   0  0  0  0  0  0  0  0  0  0  0  0
    4.2420   -3.0620   27.5390 C   0  0  0  0  0  0  0  0  0  0  0  0
    7.4090   -3.0350   23.7700 C   0  0  0  0  0  0  0  0  0  0  0  0
    7.6590   -3.2280   22.2670 C   0  0  0  0  0  0  0  0  0  0  0  0
  1  2  1  0
  2  3  2  0
  2  4  1  0
  4  5  1  0
  5  6  1  0
  6  7  1  0
  7  8  1  0
  8  9  2  0
  8 10  1  0
 10 11  1  0
 11 12  1  0
 12 13  1  0
 13 14  1  0
 14 15  2  0
 15 16  1  0
 16 17  2  0
 17 18  1  0
 18 19  1  0
 19 20  2  0
 20 21  1  0
 21 22  2  0
 14 23  1  0
 18 23  2  0
 22 23  1  0
 13 24  1  0
 24 25  2  0
 10 26  1  0
 24 26  1  0
  7 27  1  0
  4 28  1  0
 27 28  1  0
M  END
