piperidine-amides-13523-covalent
     RDKit          3D

 20 20  0  0  0  0  0  0  0  0999 V2000
    7.1500   -3.2940   19.2160 C   0  0  0  0  0  0  0  0  0  0  0  0
    6.3610   -4.0400   20.2320 C   0  0  0  0  0  0  0  0  0  0  0  0
    5.2880   -4.5690   19.8950 O   0  0  0  0  0  0  0  0  0  0  0  0
    6.8860   -4.1670   21.5340 N   0  0  0  0  0  0  0  0  0  0  0  0
    7.7970   -3.1950   22.0890 C   0  0  0  0  0  0  0  0  0  0  0  0
    7.0820   -2.5520   23.2620 C   0  0  0  0  0  0  0  0  0  0  0  0
    6.5100   -3.6590   24.0740 C   0  0  0  0  0  0  0  0  0  0  0  0
    5.7300   -3.1290   25.2040 C   0  0  0  0  0  0  0  0  0  0  0  0
    4.4980   -3.2280   25.1510 O   0  0  0  0  0  0  0  0  0  0  0  0
    6.4180   -2.5430   26.2630 N   0  0  0  0  0  0  0  0  0  0  0  0
    7.2850   -3.2500   27.1090 C   0  0  0  0  0  0  0  0  0  0  0  0
    7.1820   -4.5940   27.2740 C   0  0  0  0  0  0  0  0  0  0  0  0
    7.9340   -5.1800   28.2490 C   0  0  2  0  0  0  0  0  0  0  0  0
    9.2570   -4.9380   28.0600 C   0  0  0  0  0  0  0  0  0  0  0  0
    9.9360   -4.6230   26.9830 O   0  0  0  0  0  0  0  0  0  0  0  0
    9.8080   -5.5780   26.1140 C   0  0  0  0  0  0  0  0  0  0  0  0
    7.7170   -6.5110   28.4680 O   0  0  0  0  0  0  0  0  0  0  0  0
    6.4440   -6.6830   29.0690 C   0  0  0  0  0  0  0  0  0  0  0  0
    5.6570   -4.6580   23.3320 C   0  0  0  0  0  0  0  0  0  0  0  0
    6.4460   -5.2490   22.3640 C   0  0  0  0  0  0  0  0  0  0  0  0
  1  2  1  0
  2  3  2  0
  2  4  1  0
  4  5  1  0
  5  6  1  0
  6  7  1  0
  7  8  1  0
  8  9  2  0
  8 10  1  0
 10 11  1  0
 11 12  1  0
 13 12  1  6
 13 14  1  0
 14 15  1  0
 15 16  1  0
 13 17  1  0
 17 18  1  0
  7 19  1  0
  4 20  1  0
 19 20  1  0
M  END
