piperidine-amides-1490-covalent
     RDKit          3D

 26 28  0  0  0  0  0  0  0  0999 V2000
    7.0740   -3.3270   19.2940 C   0  0  0  0  0  0  0  0  0  0  0  0
    6.3810   -4.1820   20.2940 C   0  0  0  0  0  0  0  0  0  0  0  0
    5.3440   -4.7810   19.9630 O   0  0  0  0  0  0  0  0  0  0  0  0
    6.9450   -4.3380   21.5790 N   0  0  0  0  0  0  0  0  0  0  0  0
    7.7300   -3.2930   22.1930 C   0  0  0  0  0  0  0  0  0  0  0  0
    6.8410   -2.6610   23.2560 C   0  0  0  0  0  0  0  0  0  0  0  0
    6.4860   -3.7480   24.2020 C   0  0  0  0  0  0  0  0  0  0  0  0
    5.7700   -3.2170   25.3760 C   0  0  0  0  0  0  0  0  0  0  0  0
    4.5370   -3.1560   25.2980 O   0  0  0  0  0  0  0  0  0  0  0  0
    6.4980   -2.8240   26.4970 N   0  0  0  0  0  0  0  0  0  0  0  0
    6.4610   -1.6020   27.2190 C   0  0  0  0  0  0  0  0  0  0  0  0
    7.0210   -1.5050   28.4750 C   0  0  0  0  0  0  0  0  0  0  0  0
    7.0030   -0.3320   29.2200 C   0  0  0  0  0  0  0  0  0  0  0  0
    6.4080    0.7870   28.7110 C   0  0  0  0  0  0  0  0  0  0  0  0
    5.7970    0.7120   27.3620 C   0  0  0  0  0  0  0  0  0  0  0  0
    5.1060    1.9290   26.7220 C   0  0  0  0  0  0  0  0  0  0  0  0
    3.7250    1.9560   26.5710 O   0  0  0  0  0  0  0  0  0  0  0  0
    5.9160    3.0310   26.2920 N   0  0  0  0  0  0  0  0  0  0  0  0
    5.2930    4.2230   25.8730 C   0  0  0  0  0  0  0  0  0  0  0  0
    5.9710    5.2120   26.5370 C   0  0  0  0  0  0  0  0  0  0  0  0
    7.3780    4.8760   26.8810 C   0  0  0  0  0  0  0  0  0  0  0  0
    7.0660    3.3880   27.0340 C   0  0  0  0  0  0  0  0  0  0  0  0
    5.8390   -0.4730   26.6490 C   0  0  0  0  0  0  0  0  0  0  0  0
    5.2170   -0.6050   25.2370 C   0  0  0  0  0  0  0  0  0  0  0  0
    5.7490   -4.8960   23.5840 C   0  0  0  0  0  0  0  0  0  0  0  0
    6.5630   -5.4550   22.4150 C   0  0  0  0  0  0  0  0  0  0  0  0
  1  2  1  0
  2  3  2  0
  2  4  1  0
  4  5  1  0
  5  6  1  0
  6  7  1  0
  7  8  1  0
  8  9  2  0
  8 10  1  0
 10 11  1  0
 11 12  2  0
 12 13  1  0
 13 14  2  0
 14 15  1  0
 15 16  1  0
 16 17  2  0
 16 18  1  0
 18 19  1  0
 19 20  1  0
 20 21  1  0
 18 22  1  0
 21 22  1  0
 11 23  1  0
 15 23  2  0
 23 24  1  0
  7 25  1  0
  4 26  1  0
 25 26  1  0
M  END
