piperidine-amides-19285-covalent
     RDKit          3D

 22 23  0  0  0  0  0  0  0  0999 V2000
    7.0980   -3.3470   19.4820 C   0  0  0  0  0  0  0  0  0  0  0  0
    6.4170   -4.1840   20.4490 C   0  0  0  0  0  0  0  0  0  0  0  0
    5.4780   -4.9380   20.0170 O   0  0  0  0  0  0  0  0  0  0  0  0
    6.7810   -4.2070   21.8270 N   0  0  0  0  0  0  0  0  0  0  0  0
    6.6680   -5.5230   22.5160 C   0  0  0  0  0  0  0  0  0  0  0  0
    6.0650   -5.1340   23.9330 C   0  0  0  0  0  0  0  0  0  0  0  0
    6.3310   -3.6620   24.0970 C   0  0  0  0  0  0  0  0  0  0  0  0
    5.5500   -2.9530   25.3090 C   0  0  0  0  0  0  0  0  0  0  0  0
    4.6120   -2.3430   24.8220 O   0  0  0  0  0  0  0  0  0  0  0  0
    6.0370   -3.1790   26.4850 N   0  0  0  0  0  0  0  0  0  0  0  0
    6.3390   -3.8870   27.6140 C   0  0  0  0  0  0  0  0  0  0  0  0
    6.1830   -1.8790   27.0550 C   0  0  0  0  0  0  0  0  0  0  0  0
    5.8690   -0.6450   26.4040 C   0  0  0  0  0  0  0  0  0  0  0  0
    5.9340    0.7890   26.8370 C   0  0  0  0  0  0  0  0  0  0  0  0
    6.4450    0.9770   28.2840 C   0  0  0  0  0  0  0  0  0  0  0  0
    6.7380   -0.2380   28.8690 C   0  0  0  0  0  0  0  0  0  0  0  0
    7.2040   -0.6920   30.1000 C   0  0  0  0  0  0  0  0  0  0  0  0
    8.4850   -0.7560   30.4540 N   0  0  0  0  0  0  0  0  0  0  0  0
    6.1640   -1.0140   30.9140 O   0  0  0  0  0  0  0  0  0  0  0  0
    6.6880   -1.6620   28.4630 C   0  0  0  0  0  0  0  0  0  0  0  0
    7.7210   -3.3120   23.7080 C   0  0  0  0  0  0  0  0  0  0  0  0
    7.6800   -3.1840   22.3370 C   0  0  0  0  0  0  0  0  0  0  0  0
  1  2  1  0
  2  3  2  0
  2  4  1  0
  4  5  1  0
  5  6  1  0
  6  7  1  0
  7  8  1  0
  8  9  2  0
  8 10  1  0
 10 11  1  0
 10 12  1  0
 12 13  2  0
 13 14  1  0
 14 15  2  0
 15 16  1  0
 16 17  1  0
 17 18  1  0
 17 19  2  0
 12 20  1  0
 16 20  2  0
  7 21  1  0
  4 22  1  0
 21 22  1  0
M  END
