piperidine-amides-29310-covalent
     RDKit          3D

 26 28  0  0  0  0  0  0  0  0999 V2000
    7.0350   -3.3240   19.3170 C   0  0  0  0  0  0  0  0  0  0  0  0
    6.3650   -4.1440   20.3270 C   0  0  0  0  0  0  0  0  0  0  0  0
    5.3780   -4.8130   19.9720 O   0  0  0  0  0  0  0  0  0  0  0  0
    6.8610   -4.1970   21.6600 N   0  0  0  0  0  0  0  0  0  0  0  0
    6.6090   -5.3840   22.4260 C   0  0  0  0  0  0  0  0  0  0  0  0
    6.0410   -5.0440   23.7890 C   0  0  0  0  0  0  0  0  0  0  0  0
    6.1920   -3.5520   24.0300 C   0  0  0  0  0  0  0  0  0  0  0  0
    5.8340   -3.1890   25.4480 C   0  0  0  0  0  0  0  0  0  0  0  0
    4.6300   -3.2190   25.7020 O   0  0  0  0  0  0  0  0  0  0  0  0
    6.8350   -2.8360   26.3630 N   0  0  0  0  0  0  0  0  0  0  0  0
    7.4140   -3.7980   27.2350 C   0  0  0  0  0  0  0  0  0  0  0  0
    8.3970   -4.5950   26.6860 C   0  0  0  0  0  0  0  0  0  0  0  0
    8.8980   -5.5690   27.2560 C   0  0  0  0  0  0  0  0  0  0  0  0
    8.0230   -6.0100   26.2610 C   0  0  0  0  0  0  0  0  0  0  0  0
    6.5870   -1.4850   27.0540 C   0  0  0  0  0  0  0  0  0  0  0  0
    7.1930   -1.5070   28.4740 C   0  0  0  0  0  0  0  0  0  0  0  0
    7.0290   -0.2720   29.2870 C   0  0  0  0  0  0  0  0  0  0  0  0
    6.2790    0.8160   28.5550 C   0  0  0  0  0  0  0  0  0  0  0  0
    6.0370    2.1590   29.2890 C   0  0  0  0  0  0  0  0  0  0  0  0
    6.9960    2.6310   30.1560 F   0  0  0  0  0  0  0  0  0  0  0  0
    5.8800    3.1610   28.3260 F   0  0  0  0  0  0  0  0  0  0  0  0
    4.9140    2.0220   30.0320 F   0  0  0  0  0  0  0  0  0  0  0  0
    5.7820    0.7250   27.2740 C   0  0  0  0  0  0  0  0  0  0  0  0
    5.9300   -0.4100   26.5250 C   0  0  0  0  0  0  0  0  0  0  0  0
    7.5380   -3.0390   23.6750 C   0  0  0  0  0  0  0  0  0  0  0  0
    7.7180   -3.1650   22.1910 C   0  0  0  0  0  0  0  0  0  0  0  0
  1  2  1  0
  2  3  2  0
  2  4  1  0
  4  5  1  0
  5  6  1  0
  6  7  1  0
  7  8  1  0
  8  9  2  0
  8 10  1  0
 10 11  1  0
 11 12  1  0
 12 13  1  0
 12 14  1  0
 13 14  1  0
 10 15  1  0
 15 16  2  0
 16 17  1  0
 17 18  2  0
 18 19  1  0
 19 20  1  0
 19 21  1  0
 19 22  1  0
 18 23  1  0
 15 24  1  0
 23 24  2  0
  7 25  1  0
  4 26  1  0
 25 26  1  0
M  END
