piperidine-amides-6642-covalent
     RDKit          3D

 24 25  0  0  0  0  0  0  0  0999 V2000
    7.0610   -3.2770   19.2980 C   0  0  0  0  0  0  0  0  0  0  0  0
    6.3350   -4.0900   20.2900 C   0  0  0  0  0  0  0  0  0  0  0  0
    5.3370   -4.7560   19.9480 O   0  0  0  0  0  0  0  0  0  0  0  0
    6.7670   -4.1620   21.6210 N   0  0  0  0  0  0  0  0  0  0  0  0
    7.6500   -3.1270   22.1290 C   0  0  0  0  0  0  0  0  0  0  0  0
    7.4940   -3.1260   23.6470 C   0  0  0  0  0  0  0  0  0  0  0  0
    6.0880   -3.6140   23.8870 C   0  0  0  0  0  0  0  0  0  0  0  0
    5.6510   -3.2720   25.2530 C   0  0  0  0  0  0  0  0  0  0  0  0
    4.4240   -3.1850   25.4730 O   0  0  0  0  0  0  0  0  0  0  0  0
    6.6040   -3.0480   26.2660 N   0  0  0  0  0  0  0  0  0  0  0  0
    6.2500   -3.1650   27.6570 C   0  0  0  0  0  0  0  0  0  0  0  0
    5.9850   -4.6110   28.0370 C   0  0  0  0  0  0  0  0  0  0  0  0
    5.5060   -4.8880   29.2840 C   0  0  0  0  0  0  0  0  0  0  0  0
    4.5240   -5.8880   29.3640 N   0  0  0  0  0  0  0  0  0  0  0  0
    4.5900   -7.2990   29.2850 C   0  0  0  0  0  0  0  0  0  0  0  0
    3.2960   -7.7330   29.4370 C   0  0  0  0  0  0  0  0  0  0  0  0
    2.4620   -6.6750   29.5990 C   0  0  0  0  0  0  0  0  0  0  0  0
    0.9550   -6.6810   29.7960 C   0  0  0  0  0  0  0  0  0  0  0  0
    0.3520   -5.4650   29.9030 F   0  0  0  0  0  0  0  0  0  0  0  0
    0.6200   -7.3560   30.9730 F   0  0  0  0  0  0  0  0  0  0  0  0
    0.4530   -7.4210   28.7620 F   0  0  0  0  0  0  0  0  0  0  0  0
    3.2320   -5.5740   29.5520 N   0  0  0  0  0  0  0  0  0  0  0  0
    5.9030   -5.0630   23.5830 C   0  0  0  0  0  0  0  0  0  0  0  0
    6.6920   -5.4130   22.3580 C   0  0  0  0  0  0  0  0  0  0  0  0
  1  2  1  0
  2  3  2  0
  2  4  1  0
  4  5  1  0
  5  6  1  0
  6  7  1  0
  7  8  1  0
  8  9  2  0
  8 10  1  0
 10 11  1  0
 11 12  1  0
 12 13  1  0
 13 14  1  0
 14 15  1  0
 15 16  2  0
 16 17  1  0
 17 18  1  0
 18 19  1  0
 18 20  1  0
 18 21  1  0
 14 22  1  0
 17 22  2  0
  7 23  1  0
  4 24  1  0
 23 24  1  0
M  END
