piperidine-amides-25013-covalent
     RDKit          3D

 23 25  0  0  0  0  0  0  0  0999 V2000
    7.0450   -3.3400   19.3340 C   0  0  0  0  0  0  0  0  0  0  0  0
    6.3950   -4.2040   20.3320 C   0  0  0  0  0  0  0  0  0  0  0  0
    5.3930   -4.8730   19.9930 O   0  0  0  0  0  0  0  0  0  0  0  0
    6.9060   -4.3290   21.6370 N   0  0  0  0  0  0  0  0  0  0  0  0
    6.6900   -5.5760   22.3610 C   0  0  0  0  0  0  0  0  0  0  0  0
    6.2140   -5.2680   23.7990 C   0  0  0  0  0  0  0  0  0  0  0  0
    6.0810   -3.7700   23.9260 C   0  0  0  0  0  0  0  0  0  0  0  0
    5.4860   -3.3500   25.2200 C   0  0  0  0  0  0  0  0  0  0  0  0
    4.3640   -2.8130   25.1530 O   0  0  0  0  0  0  0  0  0  0  0  0
    6.0860   -3.5160   26.4950 N   0  0  0  0  0  0  0  0  0  0  0  0
    6.5600   -2.3250   27.0870 C   0  0  0  0  0  0  0  0  0  0  0  0
    6.7070   -2.4490   28.7680 S   0  0  0  0  0  0  0  0  0  0  0  0
    6.1340   -4.0740   28.5080 C   0  0  0  0  0  0  0  0  0  0  0  0
    5.2330   -4.2250   27.4610 C   0  0  2  0  0  0  0  0  0  0  0  0
    4.8160   -5.4820   27.0970 C   0  0  0  0  0  0  0  0  0  0  0  0
    5.3130   -6.1440   25.9910 O   0  0  0  0  0  0  0  0  0  0  0  0
    3.8120   -6.0630   27.9190 N   0  0  0  0  0  0  0  0  0  0  0  0
    2.9740   -7.0610   27.5550 C   0  0  0  0  0  0  0  0  0  0  0  0
    2.6890   -7.4720   28.8310 C   0  0  0  0  0  0  0  0  0  0  0  0
    2.4580   -6.3790   29.8730 C   0  0  0  0  0  0  0  0  0  0  0  0
    3.8790   -6.3150   29.3160 C   0  0  0  0  0  0  0  0  0  0  0  0
    7.3110   -3.0380   23.6100 C   0  0  0  0  0  0  0  0  0  0  0  0
    7.6890   -3.2870   22.2330 C   0  0  0  0  0  0  0  0  0  0  0  0
  1  2  1  0
  2  3  2  0
  2  4  1  0
  4  5  1  0
  5  6  1  0
  6  7  1  0
  7  8  1  0
  8  9  2  0
  8 10  1  0
 10 11  1  0
 11 12  1  0
 12 13  1  0
 10 14  1  0
 13 14  1  0
 14 15  1  6
 15 16  2  0
 15 17  1  0
 17 18  1  0
 18 19  1  0
 19 20  1  0
 17 21  1  0
 20 21  1  0
  7 22  1  0
  4 23  1  0
 22 23  1  0
M  END
