piperidine-amides-33295-covalent
     RDKit          3D

 30 32  0  0  0  0  0  0  0  0999 V2000
    7.0940   -3.3020   19.2830 C   0  0  0  0  0  0  0  0  0  0  0  0
    6.4000   -4.0880   20.3220 C   0  0  0  0  0  0  0  0  0  0  0  0
    5.3590   -4.6860   19.9480 O   0  0  0  0  0  0  0  0  0  0  0  0
    6.8980   -4.2160   21.6550 N   0  0  0  0  0  0  0  0  0  0  0  0
    7.6690   -3.1430   22.2140 C   0  0  0  0  0  0  0  0  0  0  0  0
    7.2970   -2.8130   23.5830 C   0  0  0  0  0  0  0  0  0  0  0  0
    6.1140   -3.5720   24.0100 C   0  0  0  0  0  0  0  0  0  0  0  0
    5.5250   -3.2030   25.3570 C   0  0  0  0  0  0  0  0  0  0  0  0
    4.2920   -3.0450   25.4030 O   0  0  0  0  0  0  0  0  0  0  0  0
    6.2410   -2.9770   26.5620 N   0  0  0  0  0  0  0  0  0  0  0  0
    6.0810   -3.7650   27.7520 C   0  0  0  0  0  0  0  0  0  0  0  0
    5.8160   -5.2150   27.7200 C   0  0  0  0  0  0  0  0  0  0  0  0
    4.9030   -5.8610   28.4740 N   0  0  0  0  0  0  0  0  0  0  0  0
    4.7870   -7.2890   28.6120 C   0  0  0  0  0  0  0  0  0  0  0  0
    3.8470   -5.3330   27.6540 C   0  0  0  0  0  0  0  0  0  0  0  0
    3.4340   -6.3770   26.6070 C   0  0  0  0  0  0  0  0  0  0  0  0
    3.8090   -5.7580   25.2980 C   0  0  0  0  0  0  0  0  0  0  0  0
    3.3930   -6.7820   24.2130 C   0  0  0  0  0  0  0  0  0  0  0  0
    2.7400   -8.1430   24.3430 C   0  0  0  0  0  0  0  0  0  0  0  0
    2.4300   -8.6260   25.7350 C   0  0  0  0  0  0  0  0  0  0  0  0
    2.7920   -7.7060   26.8840 C   0  0  0  0  0  0  0  0  0  0  0  0
    6.5980   -1.5790   26.7240 C   0  0  0  0  0  0  0  0  0  0  0  0
    6.2590   -1.2770   28.0480 C   0  0  0  0  0  0  0  0  0  0  0  0
    7.2550   -1.0960   29.0050 C   0  0  0  0  0  0  0  0  0  0  0  0
    7.0000   -0.7620   30.4530 C   0  0  0  0  0  0  0  0  0  0  0  0
    5.7060   -0.6200   30.8980 C   0  0  0  0  0  0  0  0  0  0  0  0
    4.6020   -0.8100   29.8920 C   0  0  0  0  0  0  0  0  0  0  0  0
    4.8970   -1.1450   28.4430 C   0  0  0  0  0  0  0  0  0  0  0  0
    6.4520   -5.0620   23.9150 C   0  0  0  0  0  0  0  0  0  0  0  0
    6.5290   -5.4120   22.4120 C   0  0  0  0  0  0  0  0  0  0  0  0
  1  2  1  0
  2  3  2  0
  2  4  1  0
  4  5  1  0
  5  6  1  0
  6  7  1  0
  7  8  1  0
  8  9  2  0
  8 10  1  0
 10 11  1  0
 11 12  1  0
 12 13  1  0
 13 14  1  0
 13 15  1  0
 15 16  1  0
 16 17  2  0
 17 18  1  0
 18 19  2  0
 19 20  1  0
 16 21  1  0
 20 21  2  0
 10 22  1  0
 22 23  1  0
 23 24  2  0
 24 25  1  0
 25 26  2  0
 26 27  1  0
 23 28  1  0
 27 28  2  0
  7 29  1  0
  4 30  1  0
 29 30  1  0
M  END
