piperidine-amides-4593-covalent
     RDKit          3D

 24 25  0  0  0  0  0  0  0  0999 V2000
    7.1530   -3.2740   19.2180 C   0  0  0  0  0  0  0  0  0  0  0  0
    6.4340   -4.0510   20.2520 C   0  0  0  0  0  0  0  0  0  0  0  0
    5.3490   -4.5700   19.9030 O   0  0  0  0  0  0  0  0  0  0  0  0
    6.9860   -4.2290   21.5330 N   0  0  0  0  0  0  0  0  0  0  0  0
    7.7800   -3.1910   22.1230 C   0  0  0  0  0  0  0  0  0  0  0  0
    7.3320   -2.8530   23.4610 C   0  0  0  0  0  0  0  0  0  0  0  0
    6.0460   -3.4890   23.7680 C   0  0  0  0  0  0  0  0  0  0  0  0
    5.5670   -3.0760   25.0930 C   0  0  0  0  0  0  0  0  0  0  0  0
    4.4160   -2.6130   25.1710 O   0  0  0  0  0  0  0  0  0  0  0  0
    6.3390   -3.2060   26.2430 N   0  0  0  0  0  0  0  0  0  0  0  0
    5.6650   -3.7010   27.4400 C   0  0  1  0  0  0  0  0  0  0  0  0
    6.0030   -5.1290   27.7260 C   0  0  0  0  0  0  0  0  0  0  0  0
    6.4210   -5.9590   28.8470 C   0  0  0  0  0  0  0  0  0  0  0  0
    6.3320   -5.0850   29.1260 C   0  0  0  0  0  0  0  0  0  0  0  0
    5.6370   -2.7190   28.5280 C   0  0  0  0  0  0  0  0  0  0  0  0
    4.5140   -2.6840   29.3160 C   0  0  0  0  0  0  0  0  0  0  0  0
    4.3780   -1.7950   30.3580 C   0  0  0  0  0  0  0  0  0  0  0  0
    5.3460   -0.8900   30.6810 C   0  0  0  0  0  0  0  0  0  0  0  0
    5.2170    0.0010   31.7180 F   0  0  0  0  0  0  0  0  0  0  0  0
    6.5000   -0.8850   29.9170 C   0  0  0  0  0  0  0  0  0  0  0  0
    7.4030    0.0270   30.2880 F   0  0  0  0  0  0  0  0  0  0  0  0
    6.6470   -1.8300   28.8040 C   0  0  0  0  0  0  0  0  0  0  0  0
    6.0530   -4.9760   23.6470 C   0  0  0  0  0  0  0  0  0  0  0  0
    6.6730   -5.3930   22.3360 C   0  0  0  0  0  0  0  0  0  0  0  0
  1  2  1  0
  2  3  2  0
  2  4  1  0
  4  5  1  0
  5  6  1  0
  6  7  1  0
  7  8  1  0
  8  9  2  0
  8 10  1  0
 11 10  1  6
 11 12  1  0
 12 13  2  3
 12 14  1  0
 11 15  1  0
 15 16  2  0
 16 17  1  0
 17 18  2  0
 18 19  1  0
 18 20  1  0
 20 21  1  0
 15 22  1  0
 20 22  2  0
  7 23  1  0
  4 24  1  0
 23 24  1  0
M  END
