piperidine-amides-11438-covalent
     RDKit          3D

 22 24  0  0  0  0  0  0  0  0999 V2000
    7.1300   -3.2700   19.2010 C   0  0  0  0  0  0  0  0  0  0  0  0
    6.3620   -4.0140   20.2010 C   0  0  0  0  0  0  0  0  0  0  0  0
    5.2770   -4.5190   19.8740 O   0  0  0  0  0  0  0  0  0  0  0  0
    6.8540   -4.2270   21.4980 N   0  0  0  0  0  0  0  0  0  0  0  0
    6.5620   -5.4240   22.2460 C   0  0  0  0  0  0  0  0  0  0  0  0
    5.8400   -4.9520   23.4820 C   0  0  0  0  0  0  0  0  0  0  0  0
    6.5700   -3.8380   24.1810 C   0  0  0  0  0  0  0  0  0  0  0  0
    5.8390   -3.3250   25.3590 C   0  0  0  0  0  0  0  0  0  0  0  0
    4.5720   -3.3420   25.3740 O   0  0  0  0  0  0  0  0  0  0  0  0
    6.4970   -2.7950   26.4900 N   0  0  0  0  0  0  0  0  0  0  0  0
    6.1370   -3.2520   27.8490 C   0  0  0  0  0  0  0  0  0  0  0  0
    5.7970   -2.0420   28.6470 C   0  0  2  0  0  0  0  0  0  0  0  0
    6.9400   -1.1440   28.9230 C   0  0  0  0  0  0  0  0  0  0  0  0
    6.7040   -0.3090   30.1580 C   0  0  0  0  0  0  0  0  0  0  0  0
    5.2630    0.1640   30.1250 C   0  0  0  0  0  0  0  0  0  0  0  0
    4.3860   -1.0290   30.1360 C   0  0  2  0  0  0  0  0  0  0  0  0
    4.8590   -2.2270   29.6230 C   0  0  0  0  0  0  0  0  0  0  0  0
    3.8900   -1.2420   28.7060 C   0  0  0  0  0  0  0  0  0  0  0  0
    2.5550   -1.3080   28.3010 O   0  0  0  0  0  0  0  0  0  0  0  0
    4.9490   -1.3490   27.9130 N   0  0  0  0  0  0  0  0  0  0  0  0
    6.8740   -2.6330   23.2860 C   0  0  0  0  0  0  0  0  0  0  0  0
    7.6570   -3.1960   22.1090 C   0  0  0  0  0  0  0  0  0  0  0  0
  1  2  1  0
  2  3  2  0
  2  4  1  0
  4  5  1  0
  5  6  1  0
  6  7  1  0
  7  8  1  0
  8  9  2  0
  8 10  1  0
 10 11  1  0
 12 11  1  6
 12 13  1  0
 13 14  1  0
 14 15  1  0
 16 15  1  6
 12 17  1  0
 16 17  1  0
 16 18  1  0
 18 19  2  0
 12 20  1  0
 18 20  1  0
  7 21  1  0
  4 22  1  0
 21 22  1  0
M  END
