piperidine-amides-10822-covalent
     RDKit          3D

 22 22  0  0  0  0  0  0  0  0999 V2000
    7.1370   -3.2690   19.1920 C   0  0  0  0  0  0  0  0  0  0  0  0
    6.3710   -3.9940   20.2050 C   0  0  0  0  0  0  0  0  0  0  0  0
    5.3080   -4.5520   19.8900 O   0  0  0  0  0  0  0  0  0  0  0  0
    6.8570   -4.1100   21.5160 N   0  0  0  0  0  0  0  0  0  0  0  0
    7.7150   -3.1110   22.1020 C   0  0  0  0  0  0  0  0  0  0  0  0
    6.9820   -2.6580   23.3240 C   0  0  0  0  0  0  0  0  0  0  0  0
    6.6570   -3.8240   24.2030 C   0  0  0  0  0  0  0  0  0  0  0  0
    5.9730   -3.4250   25.4410 C   0  0  0  0  0  0  0  0  0  0  0  0
    4.9210   -2.7130   25.4130 O   0  0  0  0  0  0  0  0  0  0  0  0
    6.4630   -3.8240   26.6970 N   0  0  0  0  0  0  0  0  0  0  0  0
    6.8540   -5.2420   26.8650 C   0  0  0  0  0  0  0  0  0  0  0  0
    6.1440   -5.7660   28.0370 C   0  0  0  0  0  0  0  0  0  0  0  0
    4.8320   -5.9420   27.7650 N   0  0  0  0  0  0  0  0  0  0  0  0
    4.2980   -6.5930   26.6260 C   0  0  0  0  0  0  0  0  0  0  0  0
    3.9950   -6.5120   28.8530 C   0  0  0  0  0  0  0  0  0  0  0  0
    3.1370   -5.5520   29.6590 C   0  0  0  0  0  0  0  0  0  0  0  0
    2.1860   -6.4910   30.8870 S   0  0  0  0  0  0  0  0  0  0  0  0
    3.2410   -7.9810   30.9250 C   0  0  0  0  0  0  0  0  0  0  0  0
    2.1660   -5.7820   32.1830 O   0  0  0  0  0  0  0  0  0  0  0  0
    0.7890   -6.7240   30.3480 O   0  0  0  0  0  0  0  0  0  0  0  0
    5.8250   -4.8280   23.4210 C   0  0  0  0  0  0  0  0  0  0  0  0
    6.5120   -5.2810   22.2880 C   0  0  0  0  0  0  0  0  0  0  0  0
  1  2  1  0
  2  3  2  0
  2  4  1  0
  4  5  1  0
  5  6  1  0
  6  7  1  0
  7  8  1  0
  8  9  2  0
  8 10  1  0
 10 11  1  0
 11 12  1  0
 12 13  1  0
 13 14  1  0
 13 15  1  0
 15 16  1  0
 17 16  1  0
 17 18  1  0
 17 19  2  0
 17 20  2  0
  7 21  1  0
  4 22  1  0
 21 22  1  0
M  END
