piperidine-amides-1587-covalent
     RDKit          3D

 21 22  0  0  0  0  0  0  0  0999 V2000
    7.0460   -3.3260   19.3710 C   0  0  0  0  0  0  0  0  0  0  0  0
    6.3680   -4.2100   20.3610 C   0  0  0  0  0  0  0  0  0  0  0  0
    5.3840   -4.8730   19.9870 O   0  0  0  0  0  0  0  0  0  0  0  0
    6.8740   -4.3250   21.6760 N   0  0  0  0  0  0  0  0  0  0  0  0
    6.7650   -5.5700   22.4060 C   0  0  0  0  0  0  0  0  0  0  0  0
    6.1310   -5.2610   23.7650 C   0  0  0  0  0  0  0  0  0  0  0  0
    6.1450   -3.7820   23.9130 C   0  0  0  0  0  0  0  0  0  0  0  0
    5.6560   -3.3110   25.2380 C   0  0  0  0  0  0  0  0  0  0  0  0
    4.4290   -3.3000   25.3800 O   0  0  0  0  0  0  0  0  0  0  0  0
    6.5270   -2.9000   26.2520 N   0  0  0  0  0  0  0  0  0  0  0  0
    6.7180   -1.5670   26.7040 C   0  0  0  0  0  0  0  0  0  0  0  0
    5.8130   -0.5200   26.5320 C   0  0  0  0  0  0  0  0  0  0  0  0
    5.8350   -0.3390   27.9830 N   0  0  0  0  0  0  0  0  0  0  0  0
    6.2540    0.8080   28.6570 C   0  0  0  0  0  0  0  0  0  0  0  0
    7.3750    0.9250   29.4590 O   0  0  0  0  0  0  0  0  0  0  0  0
    5.3960    1.8640   28.4240 O   0  0  0  0  0  0  0  0  0  0  0  0
    5.8220    3.1780   28.0550 C   0  0  0  0  0  0  0  0  0  0  0  0
    7.2100    3.2380   27.5180 C   0  0  0  0  0  0  0  0  0  0  0  0
    6.8140   -1.3670   28.0830 C   0  0  0  0  0  0  0  0  0  0  0  0
    7.4580   -3.1400   23.5840 C   0  0  0  0  0  0  0  0  0  0  0  0
    7.6660   -3.2450   22.2180 C   0  0  0  0  0  0  0  0  0  0  0  0
  1  2  1  0
  2  3  2  0
  2  4  1  0
  4  5  1  0
  5  6  1  0
  6  7  1  0
  7  8  1  0
  8  9  2  0
  8 10  1  0
 10 11  1  0
 11 12  1  0
 12 13  1  0
 13 14  1  0
 14 15  2  0
 14 16  1  0
 16 17  1  0
 17 18  1  0
 11 19  1  0
 13 19  1  0
  7 20  1  0
  4 21  1  0
 20 21  1  0
M  END
