piperidine-amides-32694-covalent
     RDKit          3D

 27 29  0  0  0  0  0  0  0  0999 V2000
    7.0840   -3.3420   19.3130 C   0  0  0  0  0  0  0  0  0  0  0  0
    6.4090   -4.2180   20.3070 C   0  0  0  0  0  0  0  0  0  0  0  0
    5.3750   -4.8260   19.9770 O   0  0  0  0  0  0  0  0  0  0  0  0
    6.9950   -4.3740   21.5810 N   0  0  0  0  0  0  0  0  0  0  0  0
    7.8000   -3.3570   22.2140 C   0  0  0  0  0  0  0  0  0  0  0  0
    6.9200   -2.7200   23.2780 C   0  0  0  0  0  0  0  0  0  0  0  0
    6.5800   -3.7900   24.2540 C   0  0  0  0  0  0  0  0  0  0  0  0
    5.6540   -3.2820   25.2920 C   0  0  0  0  0  0  0  0  0  0  0  0
    4.8070   -2.4900   24.8840 O   0  0  0  0  0  0  0  0  0  0  0  0
    5.6870   -3.6700   26.6400 N   0  0  0  0  0  0  0  0  0  0  0  0
    6.3620   -2.9810   27.6560 C   0  0  0  0  0  0  0  0  0  0  0  0
    6.7510   -3.6150   28.8110 C   0  0  0  0  0  0  0  0  0  0  0  0
    6.2480   -4.8710   29.0600 C   0  0  0  0  0  0  0  0  0  0  0  0
    4.9060   -4.8600   29.1460 C   0  0  2  0  0  0  0  0  0  0  0  0
    4.2920   -5.4910   30.1800 N   0  0  0  0  0  0  0  0  0  0  0  0
    3.3310   -4.9850   30.9800 C   0  0  0  0  0  0  0  0  0  0  0  0
    1.8960   -4.9980   30.4770 C   0  0  0  0  0  0  0  0  0  0  0  0
    2.0180   -3.5250   30.5880 C   0  0  0  0  0  0  0  0  0  0  0  0
    3.3380   -3.4420   31.0270 C   0  0  0  0  0  0  0  0  0  0  0  0
    4.8160   -7.1090   30.2210 S   0  0  0  0  0  0  0  0  0  0  0  0
    3.3530   -8.0190   30.6930 C   0  0  0  0  0  0  0  0  0  0  0  0
    5.2880   -7.5750   28.8580 O   0  0  0  0  0  0  0  0  0  0  0  0
    5.9240   -7.2010   31.2260 O   0  0  0  0  0  0  0  0  0  0  0  0
    4.3940   -5.0940   27.9160 C   0  0  0  0  0  0  0  0  0  0  0  0
    4.3360   -4.0420   27.0410 C   0  0  0  0  0  0  0  0  0  0  0  0
    5.9610   -5.0340   23.6720 C   0  0  0  0  0  0  0  0  0  0  0  0
    6.6510   -5.5130   22.4100 C   0  0  0  0  0  0  0  0  0  0  0  0
  1  2  1  0
  2  3  2  0
  2  4  1  0
  4  5  1  0
  5  6  1  0
  6  7  1  0
  7  8  1  0
  8  9  2  0
  8 10  1  0
 10 11  1  0
 11 12  1  0
 12 13  1  0
 13 14  1  0
 14 15  1  1
 15 16  1  0
 16 17  1  0
 17 18  1  0
 16 19  1  0
 18 19  1  0
 20 15  1  0
 20 21  1  0
 20 22  2  0
 20 23  2  0
 14 24  1  0
 10 25  1  0
 24 25  1  0
  7 26  1  0
  4 27  1  0
 26 27  1  0
M  END
