piperidine-amides-25673-covalent
     RDKit          3D

 23 25  0  0  0  0  0  0  0  0999 V2000
    7.0520   -3.3500   19.3440 C   0  0  0  0  0  0  0  0  0  0  0  0
    6.4020   -4.2290   20.3500 C   0  0  0  0  0  0  0  0  0  0  0  0
    5.3850   -4.8170   19.9810 O   0  0  0  0  0  0  0  0  0  0  0  0
    6.9640   -4.4130   21.6260 N   0  0  0  0  0  0  0  0  0  0  0  0
    6.7210   -5.6400   22.3600 C   0  0  0  0  0  0  0  0  0  0  0  0
    6.2350   -5.3450   23.7600 C   0  0  0  0  0  0  0  0  0  0  0  0
    6.0640   -3.8430   23.9250 C   0  0  0  0  0  0  0  0  0  0  0  0
    5.4730   -3.5410   25.2440 C   0  0  0  0  0  0  0  0  0  0  0  0
    4.3170   -3.1070   25.2590 O   0  0  0  0  0  0  0  0  0  0  0  0
    6.1170   -3.7220   26.4790 N   0  0  0  0  0  0  0  0  0  0  0  0
    5.5240   -4.7800   27.2900 C   0  0  0  0  0  0  0  0  0  0  0  0
    6.3660   -5.0510   28.5220 C   0  0  0  0  0  0  0  0  0  0  0  0
    7.0950   -3.9290   28.7620 O   0  0  0  0  0  0  0  0  0  0  0  0
    6.5100   -2.7840   28.5560 C   0  0  2  0  0  0  0  0  0  0  0  0
    7.0700   -1.6730   29.1730 C   0  0  0  0  0  0  0  0  0  0  0  0
    6.3080   -0.5470   28.9510 C   0  0  0  0  0  0  0  0  0  0  0  0
    4.8720   -1.2360   29.5150 S   0  0  0  0  0  0  0  0  0  0  0  0
    3.7140   -0.6120   28.7880 O   0  0  0  0  0  0  0  0  0  0  0  0
    4.7160   -1.1130   31.0050 O   0  0  0  0  0  0  0  0  0  0  0  0
    5.1020   -2.9010   28.9970 C   0  0  0  0  0  0  0  0  0  0  0  0
    6.4710   -2.5040   27.1040 C   0  0  0  0  0  0  0  0  0  0  0  0
    7.2870   -3.0890   23.6310 C   0  0  0  0  0  0  0  0  0  0  0  0
    7.6880   -3.3100   22.2230 C   0  0  0  0  0  0  0  0  0  0  0  0
  1  2  1  0
  2  3  2  0
  2  4  1  0
  4  5  1  0
  5  6  1  0
  6  7  1  0
  7  8  1  0
  8  9  2  0
  8 10  1  0
 10 11  1  0
 11 12  1  0
 12 13  1  0
 14 13  1  0
 14 15  1  1
 15 16  1  0
 17 16  1  0
 17 18  2  0
 17 19  2  0
 14 20  1  0
 17 20  1  0
 10 21  1  0
 14 21  1  0
  7 22  1  0
  4 23  1  0
 22 23  1  0
M  END
