piperidine-amides-15313-covalent
     RDKit          3D

 17 19  0  0  0  0  0  0  0  0999 V2000
    7.0670   -3.2890   19.2520 C   0  0  0  0  0  0  0  0  0  0  0  0
    6.3800   -4.1280   20.2400 C   0  0  0  0  0  0  0  0  0  0  0  0
    5.3490   -4.7680   19.9480 O   0  0  0  0  0  0  0  0  0  0  0  0
    6.9140   -4.2530   21.5150 N   0  0  0  0  0  0  0  0  0  0  0  0
    6.4810   -5.3450   22.3500 C   0  0  0  0  0  0  0  0  0  0  0  0
    5.6270   -4.6970   23.4330 C   0  0  0  0  0  0  0  0  0  0  0  0
    6.5900   -3.8560   24.2340 C   0  0  0  0  0  0  0  0  0  0  0  0
    5.8630   -3.1980   25.3230 C   0  0  0  0  0  0  0  0  0  0  0  0
    5.0350   -2.3210   25.0170 O   0  0  0  0  0  0  0  0  0  0  0  0
    6.0480   -3.5610   26.6640 N   0  0  0  0  0  0  0  0  0  0  0  0
    5.8230   -4.8250   27.0020 C   0  0  1  0  0  0  0  0  0  0  0  0
    6.6000   -5.4180   28.1330 C   0  0  0  0  0  0  0  0  0  0  0  0
    5.8760   -5.2950   29.2080 C   0  0  0  0  0  0  0  0  0  0  0  0
    5.1710   -4.1340   29.0240 C   0  0  0  0  0  0  0  0  0  0  0  0
    4.9250   -3.8580   27.6830 C   0  0  1  0  0  0  0  0  0  0  0  0
    7.3060   -2.8180   23.4680 C   0  0  0  0  0  0  0  0  0  0  0  0
    7.7100   -3.1870   22.0780 C   0  0  0  0  0  0  0  0  0  0  0  0
  1  2  1  0
  2  3  2  0
  2  4  1  0
  4  5  1  0
  5  6  1  0
  6  7  1  0
  7  8  1  0
  8  9  2  0
  8 10  1  0
 10 11  1  0
 11 12  1  1
 12 13  1  0
 13 14  1  0
 10 15  1  0
 11 15  1  0
 15 14  1  1
  7 16  1  0
  4 17  1  0
 16 17  1  0
M  END
