piperidine-amides-12067-covalent
     RDKit          3D

 25 26  0  0  0  0  0  0  0  0999 V2000
    7.0520   -3.3070   19.2750 C   0  0  0  0  0  0  0  0  0  0  0  0
    6.3390   -4.0850   20.2870 C   0  0  0  0  0  0  0  0  0  0  0  0
    5.3380   -4.7210   19.9540 O   0  0  0  0  0  0  0  0  0  0  0  0
    6.8170   -4.1590   21.6440 N   0  0  0  0  0  0  0  0  0  0  0  0
    6.6550   -5.3980   22.3710 C   0  0  0  0  0  0  0  0  0  0  0  0
    6.1050   -5.1120   23.7380 C   0  0  0  0  0  0  0  0  0  0  0  0
    6.1580   -3.6100   23.9090 C   0  0  0  0  0  0  0  0  0  0  0  0
    5.6180   -3.2060   25.2480 C   0  0  0  0  0  0  0  0  0  0  0  0
    4.5900   -2.5080   25.3440 O   0  0  0  0  0  0  0  0  0  0  0  0
    6.2610   -3.6060   26.4480 N   0  0  0  0  0  0  0  0  0  0  0  0
    5.8860   -4.8700   27.0650 C   0  0  1  0  0  0  0  0  0  0  0  0
    6.4150   -4.8160   28.4780 C   0  0  0  0  0  0  0  0  0  0  0  0
    5.5540   -5.1660   29.4970 C   0  0  0  0  0  0  0  0  0  0  0  0
    5.5980   -6.3430   30.2790 C   0  0  0  0  0  0  0  0  0  0  0  0
    4.7000   -6.6400   31.2860 C   0  0  0  0  0  0  0  0  0  0  0  0
    3.5960   -5.7910   31.6770 C   0  0  0  0  0  0  0  0  0  0  0  0
    2.4420   -6.1640   32.9680 Cl  0  0  0  0  0  0  0  0  0  0  0  0
    3.5550   -4.6860   30.9400 N   0  0  0  0  0  0  0  0  0  0  0  0
    4.4860   -4.3660   29.8860 C   0  0  0  0  0  0  0  0  0  0  0  0
    4.6280   -5.3810   27.0110 C   0  0  0  0  0  0  0  0  0  0  0  0
    3.7920   -5.1980   25.9220 O   0  0  0  0  0  0  0  0  0  0  0  0
    4.2050   -6.0550   27.9780 O   0  0  0  0  0  0  0  0  0  0  0  0
    4.5840   -7.3590   27.8090 C   0  0  0  0  0  0  0  0  0  0  0  0
    7.4380   -3.0070   23.5790 C   0  0  0  0  0  0  0  0  0  0  0  0
    7.6810   -3.1350   22.2130 C   0  0  0  0  0  0  0  0  0  0  0  0
  1  2  1  0
  2  3  2  0
  2  4  1  0
  4  5  1  0
  5  6  1  0
  6  7  1  0
  7  8  1  0
  8  9  2  0
  8 10  1  0
 10 11  1  0
 11 12  1  1
 12 13  1  0
 13 14  2  0
 14 15  1  0
 15 16  2  0
 16 17  1  0
 16 18  1  0
 13 19  1  0
 18 19  2  0
 11 20  1  0
 20 21  2  0
 20 22  1  0
 22 23  1  0
  7 24  1  0
  4 25  1  0
 24 25  1  0
M  END
