piperidine-amides-31811-covalent
     RDKit          3D

 27 30  0  0  0  0  0  0  0  0999 V2000
    7.1220   -3.3550   19.4370 C   0  0  0  0  0  0  0  0  0  0  0  0
    6.4410   -4.2140   20.3790 C   0  0  0  0  0  0  0  0  0  0  0  0
    5.4140   -4.8550   19.9860 O   0  0  0  0  0  0  0  0  0  0  0  0
    6.9060   -4.3950   21.6990 N   0  0  0  0  0  0  0  0  0  0  0  0
    7.7740   -3.3510   22.2940 C   0  0  0  0  0  0  0  0  0  0  0  0
    6.7780   -2.7810   23.3640 C   0  0  0  0  0  0  0  0  0  0  0  0
    6.4580   -3.9630   24.2470 C   0  0  0  0  0  0  0  0  0  0  0  0
    5.6580   -3.4750   25.5350 C   0  0  0  0  0  0  0  0  0  0  0  0
    4.7410   -2.7220   25.2330 O   0  0  0  0  0  0  0  0  0  0  0  0
    6.2060   -4.0190   26.5390 N   0  0  0  0  0  0  0  0  0  0  0  0
    7.0540   -4.7980   27.2250 C   0  0  0  0  0  0  0  0  0  0  0  0
    7.0040   -5.8280   28.0710 C   0  0  0  0  0  0  0  0  0  0  0  0
    5.9730   -5.5100   28.9410 C   0  0  0  0  0  0  0  0  0  0  0  0
    5.5470   -6.2170   30.0230 N   0  0  0  0  0  0  0  0  0  0  0  0
    4.4980   -5.4190   30.4680 C   0  0  0  0  0  0  0  0  0  0  0  0
    3.6500   -5.7630   31.6850 C   0  0  0  0  0  0  0  0  0  0  0  0
    2.6550   -4.7420   31.8780 C   0  0  0  0  0  0  0  0  0  0  0  0
    1.6370   -5.0920   33.2830 Cl  0  0  0  0  0  0  0  0  0  0  0  0
    2.3710   -3.5300   31.1350 C   0  0  0  0  0  0  0  0  0  0  0  0
    1.3600   -2.7070   31.5100 O   0  0  0  0  0  0  0  0  0  0  0  0
    0.0920   -3.2030   31.3280 C   0  0  0  0  0  0  0  0  0  0  0  0
    3.3230   -3.3360   29.9370 C   0  0  0  0  0  0  0  0  0  0  0  0
    4.2840   -4.2110   29.6530 C   0  0  0  0  0  0  0  0  0  0  0  0
    5.2260   -4.2890   28.6930 C   0  0  0  0  0  0  0  0  0  0  0  0
    5.4520   -3.4100   27.6640 C   0  0  0  0  0  0  0  0  0  0  0  0
    5.8300   -5.1470   23.5690 C   0  0  0  0  0  0  0  0  0  0  0  0
    6.5950   -5.5600   22.4740 C   0  0  0  0  0  0  0  0  0  0  0  0
  1  2  1  0
  2  3  2  0
  2  4  1  0
  4  5  1  0
  5  6  1  0
  6  7  1  0
  7  8  1  0
  8  9  2  0
  8 10  1  0
 10 11  1  0
 11 12  1  0
 12 13  1  0
 13 14  1  0
 14 15  1  0
 15 16  2  0
 16 17  1  0
 17 18  1  0
 17 19  2  0
 19 20  1  0
 20 21  1  0
 19 22  1  0
 15 23  1  0
 22 23  2  0
 13 24  2  0
 23 24  1  0
 10 25  1  0
 24 25  1  0
  7 26  1  0
  4 27  1  0
 26 27  1  0
M  END
