piperidine-amides-11744-covalent
     RDKit          3D

 28 30  0  0  0  0  0  0  0  0999 V2000
    7.1760   -3.9590   19.5950 C   0  0  0  0  0  0  0  0  0  0  0  0
    5.9690   -3.8800   20.2590 C   0  0  0  0  0  0  0  0  0  0  0  0
    4.9580   -3.9790   19.5810 O   0  0  0  0  0  0  0  0  0  0  0  0
    6.0650   -3.8070   21.6590 N   0  0  0  0  0  0  0  0  0  0  0  0
    5.9420   -5.0710   22.3350 C   0  0  0  0  0  0  0  0  0  0  0  0
    5.7210   -4.8940   23.8010 C   0  0  0  0  0  0  0  0  0  0  0  0
    6.5710   -3.7640   24.3840 C   0  0  0  0  0  0  0  0  0  0  0  0
    5.7610   -3.1370   25.4380 C   0  0  0  0  0  0  0  0  0  0  0  0
    4.5260   -3.2980   25.5230 O   0  0  0  0  0  0  0  0  0  0  0  0
    6.4150   -2.3130   26.3650 N   0  0  0  0  0  0  0  0  0  0  0  0
    5.5650   -1.4950   27.1760 C   0  0  0  0  0  0  0  0  0  0  0  0
    6.3830   -0.9770   28.3200 C   0  0  0  0  0  0  0  0  0  0  0  0
    6.0900    0.2290   28.9910 C   0  0  0  0  0  0  0  0  0  0  0  0
    6.8810    0.6980   30.0770 C   0  0  0  0  0  0  0  0  0  0  0  0
    7.9600   -0.0470   30.4690 C   0  0  0  0  0  0  0  0  0  0  0  0
    8.2060   -1.2510   29.7470 C   0  0  0  0  0  0  0  0  0  0  0  0
    7.4530   -1.7120   28.7230 C   0  0  0  0  0  0  0  0  0  0  0  0
    7.9900   -3.1960   28.1060 S   0  0  0  0  0  0  0  0  0  0  0  0
    9.2420   -3.6320   28.7650 O   0  0  0  0  0  0  0  0  0  0  0  0
    8.2790   -3.0650   26.6530 O   0  0  0  0  0  0  0  0  0  0  0  0
    6.7230   -4.3920   28.3170 N   0  0  0  0  0  0  0  0  0  0  0  0
    5.3330   -4.0100   28.3810 C   0  0  0  0  0  0  0  0  0  0  0  0
    4.5310   -4.9360   29.0480 C   0  0  0  0  0  0  0  0  0  0  0  0
    5.1390   -6.1960   29.4600 C   0  0  0  0  0  0  0  0  0  0  0  0
    6.1330   -6.7030   28.6690 C   0  0  0  0  0  0  0  0  0  0  0  0
    7.0800   -5.7770   28.2160 C   0  0  0  0  0  0  0  0  0  0  0  0
    6.8810   -2.5980   23.4690 C   0  0  0  0  0  0  0  0  0  0  0  0
    7.2250   -3.0910   22.0900 C   0  0  0  0  0  0  0  0  0  0  0  0
  1  2  1  0
  2  3  2  0
  2  4  1  0
  4  5  1  0
  5  6  1  0
  6  7  1  0
  7  8  1  0
  8  9  2  0
  8 10  1  0
 10 11  1  0
 11 12  1  0
 12 13  2  0
 13 14  1  0
 14 15  2  0
 15 16  1  0
 12 17  1  0
 16 17  2  0
 18 17  1  0
 18 19  2  0
 18 20  2  0
 18 21  1  0
 21 22  1  0
 22 23  1  0
 23 24  1  0
 24 25  1  0
 21 26  1  0
 25 26  1  0
  7 27  1  0
  4 28  1  0
 27 28  1  0
M  END
