piperidine-amides-13598-covalent
     RDKit          3D

 29 31  0  0  0  0  0  0  0  0999 V2000
    7.0260   -3.3130   19.3400 C   0  0  0  0  0  0  0  0  0  0  0  0
    6.3130   -4.1690   20.3330 C   0  0  0  0  0  0  0  0  0  0  0  0
    5.3280   -4.8230   19.9630 O   0  0  0  0  0  0  0  0  0  0  0  0
    6.7820   -4.2590   21.6610 N   0  0  0  0  0  0  0  0  0  0  0  0
    6.6380   -5.4860   22.4020 C   0  0  0  0  0  0  0  0  0  0  0  0
    6.1470   -5.1590   23.8200 C   0  0  0  0  0  0  0  0  0  0  0  0
    6.0880   -3.6750   23.9980 C   0  0  0  0  0  0  0  0  0  0  0  0
    5.6410   -3.2620   25.3560 C   0  0  0  0  0  0  0  0  0  0  0  0
    4.4220   -3.2680   25.5720 O   0  0  0  0  0  0  0  0  0  0  0  0
    6.5690   -2.8890   26.3320 N   0  0  0  0  0  0  0  0  0  0  0  0
    6.5560   -1.7440   27.1780 C   0  0  0  0  0  0  0  0  0  0  0  0
    7.0400   -1.5980   28.4610 C   0  0  0  0  0  0  0  0  0  0  0  0
    6.9650   -0.4000   29.1840 C   0  0  0  0  0  0  0  0  0  0  0  0
    6.3910    0.7250   28.6410 C   0  0  0  0  0  0  0  0  0  0  0  0
    5.8450    0.6620   27.2630 C   0  0  0  0  0  0  0  0  0  0  0  0
    5.2810    1.8490   26.7680 N   0  0  0  0  0  0  0  0  0  0  0  0
    4.0160    1.9800   26.2700 N   0  0  0  0  0  0  0  0  0  0  0  0
    3.8830    3.3230   25.8930 C   0  0  0  0  0  0  0  0  0  0  0  0
    5.1730    3.9840   26.2060 C   0  0  0  0  0  0  0  0  0  0  0  0
    5.4390    5.3190   25.9770 C   0  0  0  0  0  0  0  0  0  0  0  0
    6.7850    5.6160   26.0090 O   0  0  0  0  0  0  0  0  0  0  0  0
    4.4670    6.2660   25.7420 O   0  0  0  0  0  0  0  0  0  0  0  0
    3.8150    7.0150   26.7300 C   0  0  0  0  0  0  0  0  0  0  0  0
    4.2460    6.4970   28.0920 C   0  0  0  0  0  0  0  0  0  0  0  0
    5.9880    3.0310   26.7410 C   0  0  0  0  0  0  0  0  0  0  0  0
    7.4390    3.2700   27.2200 C   0  0  0  0  0  0  0  0  0  0  0  0
    5.9230   -0.5290   26.5570 C   0  0  0  0  0  0  0  0  0  0  0  0
    7.4160   -3.0240   23.6830 C   0  0  0  0  0  0  0  0  0  0  0  0
    7.5920   -3.1680   22.2170 C   0  0  0  0  0  0  0  0  0  0  0  0
  1  2  1  0
  2  3  2  0
  2  4  1  0
  4  5  1  0
  5  6  1  0
  6  7  1  0
  7  8  1  0
  8  9  2  0
  8 10  1  0
 10 11  1  0
 11 12  2  0
 12 13  1  0
 13 14  2  0
 14 15  1  0
 15 16  1  0
 16 17  1  0
 17 18  2  0
 18 19  1  0
 19 20  1  0
 20 21  2  0
 20 22  1  0
 22 23  1  0
 23 24  1  0
 16 25  1  0
 19 25  2  0
 25 26  1  0
 11 27  1  0
 15 27  2  0
  7 28  1  0
  4 29  1  0
 28 29  1  0
M  END
