piperidine-amides-2350-covalent
     RDKit          3D

 27 29  0  0  0  0  0  0  0  0999 V2000
    7.0440   -3.3370   19.2920 C   0  0  0  0  0  0  0  0  0  0  0  0
    6.3520   -4.1890   20.2980 C   0  0  0  0  0  0  0  0  0  0  0  0
    5.3180   -4.7400   19.9430 O   0  0  0  0  0  0  0  0  0  0  0  0
    6.8930   -4.3840   21.5680 N   0  0  0  0  0  0  0  0  0  0  0  0
    7.7350   -3.3880   22.1800 C   0  0  0  0  0  0  0  0  0  0  0  0
    7.0000   -2.7870   23.3220 C   0  0  0  0  0  0  0  0  0  0  0  0
    6.4850   -3.9120   24.2120 C   0  0  0  0  0  0  0  0  0  0  0  0
    5.9580   -3.2110   25.3860 C   0  0  0  0  0  0  0  0  0  0  0  0
    4.7740   -3.2850   25.7470 O   0  0  0  0  0  0  0  0  0  0  0  0
    6.9230   -2.4480   26.0400 N   0  0  0  0  0  0  0  0  0  0  0  0
    6.6480   -1.4660   27.0480 C   0  0  0  0  0  0  0  0  0  0  0  0
    5.9990   -0.1760   26.6710 C   0  0  0  0  0  0  0  0  0  0  0  0
    5.6630    0.8950   27.4220 C   0  0  0  0  0  0  0  0  0  0  0  0
    5.9360    0.8570   28.7490 C   0  0  0  0  0  0  0  0  0  0  0  0
    5.6990    1.8060   29.7080 C   0  0  0  0  0  0  0  0  0  0  0  0
    5.0700    2.9480   29.4080 N   0  0  0  0  0  0  0  0  0  0  0  0
    5.0080    3.6420   30.5730 O   0  0  0  0  0  0  0  0  0  0  0  0
    5.6110    2.8360   31.4550 C   0  0  0  0  0  0  0  0  0  0  0  0
    5.7880    3.1820   32.9010 C   0  0  0  0  0  0  0  0  0  0  0  0
    4.9720    2.3420   33.6640 F   0  0  0  0  0  0  0  0  0  0  0  0
    5.3410    4.4800   33.1300 F   0  0  0  0  0  0  0  0  0  0  0  0
    7.0970    3.1020   33.3120 F   0  0  0  0  0  0  0  0  0  0  0  0
    6.0900    1.6230   30.9800 N   0  0  0  0  0  0  0  0  0  0  0  0
    6.6110   -0.4180   29.3080 C   0  0  0  0  0  0  0  0  0  0  0  0
    6.9850   -1.6140   28.4900 C   0  0  0  0  0  0  0  0  0  0  0  0
    5.5690   -4.8540   23.4960 C   0  0  0  0  0  0  0  0  0  0  0  0
    6.3910   -5.4790   22.3750 C   0  0  0  0  0  0  0  0  0  0  0  0
  1  2  1  0
  2  3  2  0
  2  4  1  0
  4  5  1  0
  5  6  1  0
  6  7  1  0
  7  8  1  0
  8  9  2  0
  8 10  1  0
 10 11  1  0
 11 12  2  0
 12 13  1  0
 13 14  2  0
 14 15  1  0
 15 16  2  0
 16 17  1  0
 17 18  1  0
 18 19  1  0
 19 20  1  0
 19 21  1  0
 19 22  1  0
 15 23  1  0
 18 23  2  0
 14 24  1  0
 11 25  1  0
 24 25  2  0
  7 26  1  0
  4 27  1  0
 26 27  1  0
M  END
