piperidine-amides-29900-covalent
     RDKit          3D

 26 29  0  0  0  0  0  0  0  0999 V2000
    7.1170   -3.3670   19.2750 C   0  0  0  0  0  0  0  0  0  0  0  0
    6.3880   -4.1580   20.2540 C   0  0  0  0  0  0  0  0  0  0  0  0
    5.3250   -4.6930   19.9440 O   0  0  0  0  0  0  0  0  0  0  0  0
    6.9590   -4.3700   21.5490 N   0  0  0  0  0  0  0  0  0  0  0  0
    6.6020   -5.5310   22.3120 C   0  0  0  0  0  0  0  0  0  0  0  0
    5.8710   -5.1090   23.5540 C   0  0  0  0  0  0  0  0  0  0  0  0
    6.6630   -4.0070   24.2530 C   0  0  0  0  0  0  0  0  0  0  0  0
    5.9210   -3.5240   25.4380 C   0  0  0  0  0  0  0  0  0  0  0  0
    4.8520   -2.8840   25.3630 O   0  0  0  0  0  0  0  0  0  0  0  0
    6.4720   -3.8340   26.6860 N   0  0  0  0  0  0  0  0  0  0  0  0
    7.0460   -5.1640   26.7950 C   0  0  0  0  0  0  0  0  0  0  0  0
    6.9870   -5.3970   28.2670 C   0  0  0  0  0  0  0  0  0  0  0  0
    6.0970   -4.5150   28.8220 C   0  0  0  0  0  0  0  0  0  0  0  0
    5.6630   -3.5490   27.9170 C   0  0  1  0  0  0  0  0  0  0  0  0
    5.6290   -2.2090   28.2550 C   0  0  0  0  0  0  0  0  0  0  0  0
    4.6600   -1.1660   28.1320 N   0  0  0  0  0  0  0  0  0  0  0  0
    5.3010   -0.0530   28.7020 C   0  0  0  0  0  0  0  0  0  0  0  0
    4.5930    1.1300   28.7320 C   0  0  0  0  0  0  0  0  0  0  0  0
    4.9570    2.4070   29.0060 C   0  0  0  0  0  0  0  0  0  0  0  0
    3.8850    3.2480   28.9070 C   0  0  0  0  0  0  0  0  0  0  0  0
    2.6250    2.5750   28.5360 C   0  0  0  0  0  0  0  0  0  0  0  0
    2.9630    0.8750   28.3470 S   0  0  0  0  0  0  0  0  0  0  0  0
    6.5600   -0.2650   29.1700 C   0  0  0  0  0  0  0  0  0  0  0  0
    6.8320   -1.6590   28.9040 N   0  0  0  0  0  0  0  0  0  0  0  0
    6.8990   -2.8350   23.3530 C   0  0  0  0  0  0  0  0  0  0  0  0
    7.6350   -3.2800   22.1540 C   0  0  0  0  0  0  0  0  0  0  0  0
  1  2  1  0
  2  3  2  0
  2  4  1  0
  4  5  1  0
  5  6  1  0
  6  7  1  0
  7  8  1  0
  8  9  2  0
  8 10  1  0
 10 11  1  0
 11 12  1  0
 12 13  1  0
 10 14  1  0
 13 14  1  0
 14 15  1  1
 15 16  2  0
 16 17  1  0
 17 18  1  0
 18 19  2  0
 19 20  1  0
 20 21  2  0
 18 22  1  0
 21 22  1  0
 17 23  2  0
 15 24  1  0
 23 24  1  0
  7 25  1  0
  4 26  1  0
 25 26  1  0
M  END
