piperidine-amides-227-covalent
     RDKit          3D

 26 28  0  0  0  0  0  0  0  0999 V2000
    7.0590   -3.3700   19.2920 C   0  0  0  0  0  0  0  0  0  0  0  0
    6.3710   -4.1220   20.3140 C   0  0  0  0  0  0  0  0  0  0  0  0
    5.3280   -4.7500   19.9620 O   0  0  0  0  0  0  0  0  0  0  0  0
    6.8330   -4.2400   21.6450 N   0  0  0  0  0  0  0  0  0  0  0  0
    7.6480   -3.1390   22.2150 C   0  0  0  0  0  0  0  0  0  0  0  0
    6.6580   -2.6100   23.3180 C   0  0  0  0  0  0  0  0  0  0  0  0
    6.4700   -3.7840   24.2430 C   0  0  0  0  0  0  0  0  0  0  0  0
    5.6070   -3.4280   25.5390 C   0  0  0  0  0  0  0  0  0  0  0  0
    4.6810   -4.2150   25.6450 O   0  0  0  0  0  0  0  0  0  0  0  0
    6.0640   -2.3980   26.1330 N   0  0  0  0  0  0  0  0  0  0  0  0
    6.4250   -1.2460   26.7660 C   0  0  1  0  0  0  0  0  0  0  0  0
    5.8300   -0.0180   26.9680 C   0  0  0  0  0  0  0  0  0  0  0  0
    5.5400    0.1130   28.4090 N   0  0  0  0  0  0  0  0  0  0  0  0
    4.3110    0.3440   28.9160 C   0  0  0  0  0  0  0  0  0  0  0  0
    3.9940    1.6450   28.2970 C   0  0  0  0  0  0  0  0  0  0  0  0
    5.0710    2.6130   28.5010 C   0  0  0  0  0  0  0  0  0  0  0  0
    4.5940    3.8050   27.8450 C   0  0  0  0  0  0  0  0  0  0  0  0
    3.3990    4.2660   27.0830 C   0  0  0  0  0  0  0  0  0  0  0  0
    2.4440    3.0010   27.0430 C   0  0  0  0  0  0  0  0  0  0  0  0
    2.7510    1.6370   27.6740 C   0  0  0  0  0  0  0  0  0  0  0  0
    6.3090   -0.8570   29.1220 C   0  0  0  0  0  0  0  0  0  0  0  0
    5.4300   -1.7140   29.7280 C   0  0  0  0  0  0  0  0  0  0  0  0
    7.2460   -0.3140   30.1550 C   0  0  0  0  0  0  0  0  0  0  0  0
    7.0710   -1.6090   28.0860 C   0  0  0  0  0  0  0  0  0  0  0  0
    5.9810   -5.0780   23.6650 C   0  0  0  0  0  0  0  0  0  0  0  0
    6.6340   -5.4630   22.3740 C   0  0  0  0  0  0  0  0  0  0  0  0
  1  2  1  0
  2  3  2  0
  2  4  1  0
  4  5  1  0
  5  6  1  0
  6  7  1  0
  7  8  1  0
  8  9  2  0
  8 10  1  0
 11 10  1  1
 11 12  1  0
 12 13  1  0
 13 14  1  0
 14 15  1  0
 15 16  2  0
 16 17  1  0
 17 18  2  0
 18 19  1  0
 15 20  1  0
 19 20  2  0
 13 21  1  0
 21 22  1  0
 21 23  1  0
 11 24  1  0
 21 24  1  0
  7 25  1  0
  4 26  1  0
 25 26  1  0
M  END
