piperidine-amides-29012-covalent
     RDKit          3D

 26 28  0  0  0  0  0  0  0  0999 V2000
    7.0300   -3.3800   19.3790 C   0  0  0  0  0  0  0  0  0  0  0  0
    6.3390   -4.2100   20.3600 C   0  0  0  0  0  0  0  0  0  0  0  0
    5.3520   -4.8640   19.9820 O   0  0  0  0  0  0  0  0  0  0  0  0
    6.8260   -4.2880   21.6850 N   0  0  0  0  0  0  0  0  0  0  0  0
    6.6360   -5.5130   22.4200 C   0  0  0  0  0  0  0  0  0  0  0  0
    6.1820   -5.2250   23.8300 C   0  0  0  0  0  0  0  0  0  0  0  0
    6.1050   -3.7210   23.9670 C   0  0  0  0  0  0  0  0  0  0  0  0
    5.4670   -3.2290   25.2390 C   0  0  0  0  0  0  0  0  0  0  0  0
    4.8420   -2.1850   25.1300 O   0  0  0  0  0  0  0  0  0  0  0  0
    5.5690   -3.9270   26.4390 N   0  0  0  0  0  0  0  0  0  0  0  0
    4.4190   -4.3670   27.1020 C   0  0  0  0  0  0  0  0  0  0  0  0
    4.5160   -4.2610   28.5020 C   0  0  0  0  0  0  0  0  0  0  0  0
    5.6790   -4.6790   29.0890 C   0  0  0  0  0  0  0  0  0  0  0  0
    5.6010   -5.9460   29.6280 C   0  0  0  0  0  0  0  0  0  0  0  0
    4.8090   -6.2350   30.7620 N   0  0  0  0  0  0  0  0  0  0  0  0
    3.6350   -5.4200   31.0460 C   0  0  0  0  0  0  0  0  0  0  0  0
    2.7890   -6.1180   32.1410 C   0  0  2  0  0  0  0  0  0  0  0  0
    1.8850   -5.2210   32.9020 C   0  0  0  0  0  0  0  0  0  0  0  0
    3.5600   -6.5570   33.0380 O   0  0  0  0  0  0  0  0  0  0  0  0
    4.3590   -7.6220   32.6000 C   0  0  2  0  0  0  0  0  0  0  0  0
    5.5250   -7.8780   33.5860 C   0  0  0  0  0  0  0  0  0  0  0  0
    4.9220   -7.5300   31.3490 C   0  0  0  0  0  0  0  0  0  0  0  0
    6.8050   -4.4760   28.3710 C   0  0  0  0  0  0  0  0  0  0  0  0
    6.4190   -3.3720   27.4080 C   0  0  0  0  0  0  0  0  0  0  0  0
    7.4980   -3.1490   23.7140 C   0  0  0  0  0  0  0  0  0  0  0  0
    7.6670   -3.2480   22.2190 C   0  0  0  0  0  0  0  0  0  0  0  0
  1  2  1  0
  2  3  2  0
  2  4  1  0
  4  5  1  0
  5  6  1  0
  6  7  1  0
  7  8  1  0
  8  9  2  0
  8 10  1  0
 10 11  1  0
 11 12  1  0
 12 13  1  0
 13 14  1  0
 14 15  1  0
 15 16  1  0
 16 17  1  0
 17 18  1  1
 17 19  1  0
 19 20  1  0
 20 21  1  1
 15 22  1  0
 20 22  1  0
 13 23  1  0
 10 24  1  0
 23 24  1  0
  7 25  1  0
  4 26  1  0
 25 26  1  0
M  END
