piperidine-amides-34294-covalent
     RDKit          3D

 31 34  0  0  0  0  0  0  0  0999 V2000
    6.9630   -3.3610   19.4580 C   0  0  0  0  0  0  0  0  0  0  0  0
    6.3270   -4.2620   20.4440 C   0  0  0  0  0  0  0  0  0  0  0  0
    5.4470   -5.0480   20.0280 O   0  0  0  0  0  0  0  0  0  0  0  0
    6.6930   -4.2790   21.8220 N   0  0  0  0  0  0  0  0  0  0  0  0
    7.5950   -3.2560   22.3420 C   0  0  0  0  0  0  0  0  0  0  0  0
    7.1890   -2.9350   23.7970 C   0  0  0  0  0  0  0  0  0  0  0  0
    5.8310   -3.5740   23.9810 C   0  0  0  0  0  0  0  0  0  0  0  0
    5.0900   -3.0690   25.2160 C   0  0  0  0  0  0  0  0  0  0  0  0
    4.4610   -2.0130   25.0680 O   0  0  0  0  0  0  0  0  0  0  0  0
    5.0620   -3.7060   26.5040 N   0  0  0  0  0  0  0  0  0  0  0  0
    4.4930   -3.0750   27.6700 C   0  0  0  0  0  0  0  0  0  0  0  0
    4.2190   -4.1020   28.8080 C   0  0  0  0  0  0  0  0  0  0  0  0
    5.3590   -4.9690   29.0850 N   0  0  0  0  0  0  0  0  0  0  0  0
    5.2540   -6.3750   29.4740 C   0  0  2  0  0  0  0  0  0  0  0  0
    4.8750   -6.9640   28.2950 C   0  0  0  0  0  0  0  0  0  0  0  0
    4.5810   -6.7010   30.6020 C   0  0  0  0  0  0  0  0  0  0  0  0
    3.6670   -5.8520   31.2520 N   0  0  0  0  0  0  0  0  0  0  0  0
    3.2920   -6.7000   32.3370 C   0  0  0  0  0  0  0  0  0  0  0  0
    2.2820   -6.0900   33.2900 C   0  0  0  0  0  0  0  0  0  0  0  0
    1.8490   -7.4380   32.7440 C   0  0  0  0  0  0  0  0  0  0  0  0
    1.8890   -8.5740   33.7850 C   0  0  0  0  0  0  0  0  0  0  0  0
    1.4020   -9.7350   32.9410 C   0  0  0  0  0  0  0  0  0  0  0  0
    1.0090   -9.8360   31.5910 C   0  0  0  0  0  0  0  0  0  0  0  0
    1.0380   -8.7600   30.8360 C   0  0  0  0  0  0  0  0  0  0  0  0
    1.4710   -7.4960   31.4100 C   0  0  0  0  0  0  0  0  0  0  0  0
    3.9720   -7.9540   32.2830 N   0  0  0  0  0  0  0  0  0  0  0  0
    4.7670   -7.9270   31.1840 O   0  0  0  0  0  0  0  0  0  0  0  0
    6.4290   -4.7250   28.2170 C   0  0  0  0  0  0  0  0  0  0  0  0
    6.2330   -4.2830   26.7840 C   0  0  0  0  0  0  0  0  0  0  0  0
    5.8590   -5.0670   23.8430 C   0  0  0  0  0  0  0  0  0  0  0  0
    6.4570   -5.4470   22.6560 C   0  0  0  0  0  0  0  0  0  0  0  0
  1  2  1  0
  2  3  2  0
  2  4  1  0
  4  5  1  0
  5  6  1  0
  6  7  1  0
  7  8  1  0
  8  9  2  0
  8 10  1  0
 10 11  1  0
 11 12  1  0
 12 13  1  0
 13 14  1  0
 14 15  1  6
 14 16  1  0
 16 17  2  0
 17 18  1  0
 18 19  1  0
 19 20  1  0
 20 21  2  0
 21 22  1  0
 22 23  2  0
 23 24  1  0
 20 25  1  0
 24 25  2  0
 18 26  2  0
 16 27  1  0
 26 27  1  0
 13 28  1  0
 10 29  1  0
 28 29  1  0
  7 30  1  0
  4 31  1  0
 30 31  1  0
M  END
