piperidine-amides-26834-covalent
     RDKit          3D

 25 27  0  0  0  0  0  0  0  0999 V2000
    7.0420   -3.4090   19.4270 C   0  0  0  0  0  0  0  0  0  0  0  0
    6.3980   -4.2770   20.4150 C   0  0  0  0  0  0  0  0  0  0  0  0
    5.3900   -4.9130   20.0020 O   0  0  0  0  0  0  0  0  0  0  0  0
    6.9150   -4.4100   21.7170 N   0  0  0  0  0  0  0  0  0  0  0  0
    6.6840   -5.6160   22.5040 C   0  0  0  0  0  0  0  0  0  0  0  0
    6.1080   -5.2450   23.8550 C   0  0  0  0  0  0  0  0  0  0  0  0
    5.9540   -3.7580   23.9760 C   0  0  0  0  0  0  0  0  0  0  0  0
    5.2540   -3.2850   25.2080 C   0  0  0  0  0  0  0  0  0  0  0  0
    4.4520   -2.3510   25.0330 O   0  0  0  0  0  0  0  0  0  0  0  0
    5.3550   -3.7410   26.5460 N   0  0  0  0  0  0  0  0  0  0  0  0
    6.4670   -3.3320   27.3040 C   0  0  0  0  0  0  0  0  0  0  0  0
    6.7270   -4.3980   28.3590 C   0  0  0  0  0  0  0  0  0  0  0  0
    5.7960   -4.5550   29.2660 C   0  0  0  0  0  0  0  0  0  0  0  0
    4.5510   -4.3840   28.7610 C   0  0  2  0  0  0  0  0  0  0  0  0
    3.8570   -5.5400   28.4240 C   0  0  0  0  0  0  0  0  0  0  0  0
    3.3260   -6.1190   29.5180 N   0  0  0  0  0  0  0  0  0  0  0  0
    2.4120   -5.4600   30.2550 C   0  0  0  0  0  0  0  0  0  0  0  0
    1.1620   -6.0360   30.4110 C   0  0  0  0  0  0  0  0  0  0  0  0
    1.2660   -7.3480   30.7130 N   0  0  0  0  0  0  0  0  0  0  0  0
    0.3930   -7.9230   31.6660 C   0  0  0  0  0  0  0  0  0  0  0  0
    2.3660   -8.0890   30.4700 C   0  0  0  0  0  0  0  0  0  0  0  0
    3.6060   -7.4980   29.8470 C   0  0  0  0  0  0  0  0  0  0  0  0
    4.5990   -3.4120   27.7630 C   0  0  0  0  0  0  0  0  0  0  0  0
    7.2310   -3.0470   23.7200 C   0  0  0  0  0  0  0  0  0  0  0  0
    7.6740   -3.3260   22.3060 C   0  0  0  0  0  0  0  0  0  0  0  0
  1  2  1  0
  2  3  2  0
  2  4  1  0
  4  5  1  0
  5  6  1  0
  6  7  1  0
  7  8  1  0
  8  9  2  0
  8 10  1  0
 10 11  1  0
 11 12  1  0
 12 13  1  0
 13 14  1  0
 14 15  1  6
 15 16  1  0
 16 17  1  0
 17 18  1  0
 18 19  1  0
 19 20  1  0
 19 21  1  0
 16 22  1  0
 21 22  1  0
 10 23  1  0
 14 23  1  0
  7 24  1  0
  4 25  1  0
 24 25  1  0
M  END
