piperidine-amides-10068-covalent
     RDKit          3D

 26 28  0  0  0  0  0  0  0  0999 V2000
    7.0030   -3.3460   19.3570 C   0  0  0  0  0  0  0  0  0  0  0  0
    6.3230   -4.1860   20.3540 C   0  0  0  0  0  0  0  0  0  0  0  0
    5.3290   -4.8440   19.9650 O   0  0  0  0  0  0  0  0  0  0  0  0
    6.8020   -4.2570   21.6590 N   0  0  0  0  0  0  0  0  0  0  0  0
    7.6660   -3.2290   22.1690 C   0  0  0  0  0  0  0  0  0  0  0  0
    7.3880   -3.1360   23.6240 C   0  0  0  0  0  0  0  0  0  0  0  0
    6.0120   -3.6270   23.9220 C   0  0  0  0  0  0  0  0  0  0  0  0
    5.6790   -3.3630   25.3450 C   0  0  0  0  0  0  0  0  0  0  0  0
    4.6810   -3.9490   25.8190 O   0  0  0  0  0  0  0  0  0  0  0  0
    6.3910   -2.4590   26.1870 N   0  0  0  0  0  0  0  0  0  0  0  0
    5.6450   -1.3270   26.6950 C   0  0  0  0  0  0  0  0  0  0  0  0
    6.6900   -0.4830   27.6490 C   0  0  0  0  0  0  0  0  0  0  0  0
    7.8860   -1.0060   27.7110 N   0  0  0  0  0  0  0  0  0  0  0  0
    6.9990   -1.5370   27.0170 N   0  0  0  0  0  0  0  0  0  0  0  0
    8.1140   -2.2570   26.9050 C   0  0  0  0  0  0  0  0  0  0  0  0
    8.7540   -1.6050   25.8510 C   0  0  0  0  0  0  0  0  0  0  0  0
    9.0350   -2.5250   24.9760 O   0  0  0  0  0  0  0  0  0  0  0  0
    9.0650   -0.2700   25.6800 N   0  0  0  0  0  0  0  0  0  0  0  0
    9.9590    0.1410   24.6310 C   0  0  0  0  0  0  0  0  0  0  0  0
    9.5920    1.4370   24.3000 C   0  0  0  0  0  0  0  0  0  0  0  0
    9.2660    1.5350   22.9550 C   0  0  0  0  0  0  0  0  0  0  0  0
    9.2400    0.1950   22.2510 C   0  0  0  0  0  0  0  0  0  0  0  0
    9.7570   -0.6670   23.3930 C   0  0  0  0  0  0  0  0  0  0  0  0
    6.0110   -0.3390   27.5040 C   0  0  0  0  0  0  0  0  0  0  0  0
    5.8580   -5.1030   23.6200 C   0  0  0  0  0  0  0  0  0  0  0  0
    6.6260   -5.4460   22.5070 C   0  0  0  0  0  0  0  0  0  0  0  0
  1  2  1  0
  2  3  2  0
  2  4  1  0
  4  5  1  0
  5  6  1  0
  6  7  1  0
  7  8  1  0
  8  9  2  0
  8 10  1  0
 10 11  1  0
 11 12  1  0
 12 13  2  0
 13 14  1  0
 14 15  1  0
 15 16  1  0
 16 17  2  0
 16 18  1  0
 18 19  1  0
 19 20  1  0
 20 21  1  0
 21 22  1  0
 19 23  1  0
 22 23  1  0
 11 24  2  0
 14 24  1  0
  7 25  1  0
  4 26  1  0
 25 26  1  0
M  END
