piperidine-amides-4641-covalent
     RDKit          3D

 24 25  0  0  0  0  0  0  0  0999 V2000
    7.1520   -3.2350   19.1420 C   0  0  0  0  0  0  0  0  0  0  0  0
    6.3610   -3.9480   20.1700 C   0  0  0  0  0  0  0  0  0  0  0  0
    5.2650   -4.4290   19.8280 O   0  0  0  0  0  0  0  0  0  0  0  0
    6.8660   -4.1110   21.4580 N   0  0  0  0  0  0  0  0  0  0  0  0
    7.6370   -3.0570   22.0430 C   0  0  0  0  0  0  0  0  0  0  0  0
    7.1720   -2.6310   23.3520 C   0  0  0  0  0  0  0  0  0  0  0  0
    6.6540   -3.7290   24.1790 C   0  0  0  0  0  0  0  0  0  0  0  0
    5.9210   -3.1840   25.3400 C   0  0  0  0  0  0  0  0  0  0  0  0
    5.0760   -2.2910   25.1500 O   0  0  0  0  0  0  0  0  0  0  0  0
    6.1510   -3.6730   26.6330 N   0  0  0  0  0  0  0  0  0  0  0  0
    5.2870   -4.7400   27.1630 C   0  0  2  0  0  0  0  0  0  0  0  0
    6.0270   -5.9040   27.7240 C   0  0  0  0  0  0  0  0  0  0  0  0
    6.4040   -5.8800   29.1160 C   0  0  0  0  0  0  0  0  0  0  0  0
    5.3900   -5.8270   30.0390 C   0  0  0  0  0  0  0  0  0  0  0  0
    4.2420   -6.5640   29.8500 C   0  0  0  0  0  0  0  0  0  0  0  0
    4.1000   -7.7990   29.3170 C   0  0  0  0  0  0  0  0  0  0  0  0
    4.2910   -5.2180   26.1680 C   0  0  0  0  0  0  0  0  0  0  0  0
    3.3720   -4.3380   25.6750 C   0  0  0  0  0  0  0  0  0  0  0  0
    2.4240   -4.7560   24.7320 C   0  0  0  0  0  0  0  0  0  0  0  0
    2.3160   -6.1370   24.1870 C   0  0  0  0  0  0  0  0  0  0  0  0
    3.3410   -7.0930   24.7470 C   0  0  0  0  0  0  0  0  0  0  0  0
    4.3020   -6.5370   25.7500 C   0  0  0  0  0  0  0  0  0  0  0  0
    5.8910   -4.7850   23.4870 C   0  0  0  0  0  0  0  0  0  0  0  0
    6.5840   -5.2910   22.2490 C   0  0  0  0  0  0  0  0  0  0  0  0
  1  2  1  0
  2  3  2  0
  2  4  1  0
  4  5  1  0
  5  6  1  0
  6  7  1  0
  7  8  1  0
  8  9  2  0
  8 10  1  0
 10 11  1  0
 11 12  1  6
 12 13  1  0
 13 14  1  0
 14 15  1  0
 15 16  2  3
 11 17  1  0
 17 18  2  0
 18 19  1  0
 19 20  2  0
 20 21  1  0
 17 22  1  0
 21 22  2  0
  7 23  1  0
  4 24  1  0
 23 24  1  0
M  END
