piperidine-amides-34237-covalent
     RDKit          3D

 29 31  0  0  0  0  0  0  0  0999 V2000
    7.0290   -3.3400   19.4470 C   0  0  0  0  0  0  0  0  0  0  0  0
    6.3770   -4.2460   20.4080 C   0  0  0  0  0  0  0  0  0  0  0  0
    5.4230   -4.9570   20.0110 O   0  0  0  0  0  0  0  0  0  0  0  0
    6.8200   -4.3630   21.7490 N   0  0  0  0  0  0  0  0  0  0  0  0
    6.5910   -5.6250   22.4280 C   0  0  0  0  0  0  0  0  0  0  0  0
    6.3430   -5.3560   23.9310 C   0  0  0  0  0  0  0  0  0  0  0  0
    6.1300   -3.8700   24.0860 C   0  0  0  0  0  0  0  0  0  0  0  0
    5.5960   -3.4570   25.4370 C   0  0  0  0  0  0  0  0  0  0  0  0
    4.5300   -2.8140   25.3970 O   0  0  0  0  0  0  0  0  0  0  0  0
    6.1900   -3.7350   26.7200 N   0  0  0  0  0  0  0  0  0  0  0  0
    6.2880   -2.6780   27.6790 C   0  0  0  0  0  0  0  0  0  0  0  0
    5.0280   -2.6310   28.5050 C   0  0  0  0  0  0  0  0  0  0  0  0
    4.7710   -3.8810   29.1780 N   0  0  0  0  0  0  0  0  0  0  0  0
    3.3540   -4.0040   30.0620 S   0  0  0  0  0  0  0  0  0  0  0  0
    2.3320   -3.0370   29.5220 O   0  0  0  0  0  0  0  0  0  0  0  0
    3.5970   -3.8090   31.5290 O   0  0  0  0  0  0  0  0  0  0  0  0
    2.8480   -5.6880   29.7370 C   0  0  0  0  0  0  0  0  0  0  0  0
    3.6850   -6.7160   29.9440 C   0  0  0  0  0  0  0  0  0  0  0  0
    3.2060   -7.9380   29.6670 C   0  0  0  0  0  0  0  0  0  0  0  0
    1.9670   -8.2320   29.2050 C   0  0  0  0  0  0  0  0  0  0  0  0
    0.8330   -7.2530   28.8920 C   0  0  0  0  0  0  0  0  0  0  0  0
   -0.4030   -7.5110   28.4370 N   0  0  0  0  0  0  0  0  0  0  0  0
   -0.4230   -7.3390   27.1510 O   0  0  0  0  0  0  0  0  0  0  0  0
   -1.4840   -7.0470   29.1080 O   0  0  0  0  0  0  0  0  0  0  0  0
    1.5670   -5.9390   29.2640 C   0  0  0  0  0  0  0  0  0  0  0  0
    5.0170   -5.0230   28.2760 C   0  0  0  0  0  0  0  0  0  0  0  0
    6.2400   -4.9250   27.5400 C   0  0  0  0  0  0  0  0  0  0  0  0
    7.3920   -3.1690   23.6900 C   0  0  0  0  0  0  0  0  0  0  0  0
    7.6070   -3.3050   22.3370 C   0  0  0  0  0  0  0  0  0  0  0  0
  1  2  1  0
  2  3  2  0
  2  4  1  0
  4  5  1  0
  5  6  1  0
  6  7  1  0
  7  8  1  0
  8  9  2  0
  8 10  1  0
 10 11  1  0
 11 12  1  0
 12 13  1  0
 13 14  1  0
 14 15  2  0
 14 16  2  0
 14 17  1  0
 17 18  2  0
 18 19  1  0
 19 20  2  0
 20 21  1  0
 21 22  1  0
 22 23  2  0
 22 24  1  0
 17 25  1  0
 21 25  2  0
 13 26  1  0
 10 27  1  0
 26 27  1  0
  7 28  1  0
  4 29  1  0
 28 29  1  0
M  CHG  2  22   1  24  -1
M  END
