piperidine-amides-25547-covalent
     RDKit          3D

 25 27  0  0  0  0  0  0  0  0999 V2000
    7.0540   -3.3310   19.3610 C   0  0  0  0  0  0  0  0  0  0  0  0
    6.3860   -4.2150   20.3480 C   0  0  0  0  0  0  0  0  0  0  0  0
    5.3640   -4.7880   19.9680 O   0  0  0  0  0  0  0  0  0  0  0  0
    6.9370   -4.4140   21.6250 N   0  0  0  0  0  0  0  0  0  0  0  0
    6.6150   -5.5740   22.4010 C   0  0  0  0  0  0  0  0  0  0  0  0
    5.7720   -5.1380   23.5640 C   0  0  0  0  0  0  0  0  0  0  0  0
    6.4480   -3.9730   24.3050 C   0  0  0  0  0  0  0  0  0  0  0  0
    5.4440   -3.3800   25.2340 C   0  0  0  0  0  0  0  0  0  0  0  0
    4.5910   -2.6120   24.7820 O   0  0  0  0  0  0  0  0  0  0  0  0
    5.4310   -3.6660   26.6190 N   0  0  0  0  0  0  0  0  0  0  0  0
    6.6920   -3.7920   27.2450 C   0  0  0  0  0  0  0  0  0  0  0  0
    6.9130   -4.9230   28.2900 C   0  0  2  0  0  0  0  0  0  0  0  0
    6.9780   -6.1390   27.5130 N   0  0  0  0  0  0  0  0  0  0  0  0
    5.9250   -5.9980   26.4960 C   0  0  0  0  0  0  0  0  0  0  0  0
    8.3750   -6.2090   27.1410 C   0  0  0  0  0  0  0  0  0  0  0  0
    6.0830   -4.9490   29.5560 C   0  0  0  0  0  0  0  0  0  0  0  0
    5.3630   -5.7390   28.5300 C   0  0  0  0  0  0  0  0  0  0  0  0
    4.4340   -4.6010   28.5800 C   0  0  0  0  0  0  0  0  0  0  0  0
    3.5100   -4.7730   29.7790 C   0  0  0  0  0  0  0  0  0  0  0  0
    2.5130   -3.6690   29.9400 C   0  0  0  0  0  0  0  0  0  0  0  0
    2.5100   -2.5520   28.9650 C   0  0  0  0  0  0  0  0  0  0  0  0
    3.4950   -2.5290   27.8290 C   0  0  0  0  0  0  0  0  0  0  0  0
    4.4870   -3.6130   27.6530 C   0  0  0  0  0  0  0  0  0  0  0  0
    6.8650   -2.8730   23.3220 C   0  0  0  0  0  0  0  0  0  0  0  0
    7.6750   -3.3730   22.3250 C   0  0  0  0  0  0  0  0  0  0  0  0
  1  2  1  0
  2  3  2  0
  2  4  1  0
  4  5  1  0
  5  6  1  0
  6  7  1  0
  7  8  1  0
  8  9  2  0
  8 10  1  0
 10 11  1  0
 11 12  1  0
 12 13  1  6
 13 14  1  0
 13 15  1  0
 12 16  1  0
 16 17  1  0
 17 18  1  0
 18 19  1  0
 19 20  2  0
 20 21  1  0
 21 22  2  0
 10 23  1  0
 18 23  2  0
 22 23  1  0
  7 24  1  0
  4 25  1  0
 24 25  1  0
M  END
