piperidine-amides-24430-covalent
     RDKit          3D

 23 24  0  0  0  0  0  0  0  0999 V2000
    7.0090   -3.3480   19.4110 C   0  0  0  0  0  0  0  0  0  0  0  0
    6.3640   -4.2440   20.3880 C   0  0  0  0  0  0  0  0  0  0  0  0
    5.4230   -4.9790   20.0120 O   0  0  0  0  0  0  0  0  0  0  0  0
    6.8090   -4.3100   21.7300 N   0  0  0  0  0  0  0  0  0  0  0  0
    6.6480   -5.5620   22.4640 C   0  0  0  0  0  0  0  0  0  0  0  0
    6.0800   -5.2620   23.8720 C   0  0  0  0  0  0  0  0  0  0  0  0
    6.0240   -3.7620   23.9950 C   0  0  0  0  0  0  0  0  0  0  0  0
    5.3160   -3.2700   25.2200 C   0  0  0  0  0  0  0  0  0  0  0  0
    4.5700   -2.2920   25.0450 O   0  0  0  0  0  0  0  0  0  0  0  0
    5.4220   -3.8300   26.5260 N   0  0  0  0  0  0  0  0  0  0  0  0
    6.4300   -3.3320   27.3350 C   0  0  0  0  0  0  0  0  0  0  0  0
    6.6800   -4.4120   28.3820 C   0  0  0  0  0  0  0  0  0  0  0  0
    5.5170   -4.4040   29.1400 O   0  0  0  0  0  0  0  0  0  0  0  0
    4.3890   -3.8420   28.6530 C   0  0  2  0  0  0  0  0  0  0  0  0
    4.3920   -2.4650   28.6960 C   0  0  0  0  0  0  0  0  0  0  0  0
    5.3920   -1.9350   29.5220 C   0  0  0  0  0  0  0  0  0  0  0  0
    3.2120   -4.4080   29.1620 C   0  0  0  0  0  0  0  0  0  0  0  0
    2.2010   -4.3860   28.2170 F   0  0  0  0  0  0  0  0  0  0  0  0
    2.8240   -3.7550   30.3180 F   0  0  0  0  0  0  0  0  0  0  0  0
    3.4230   -5.7640   29.4090 F   0  0  0  0  0  0  0  0  0  0  0  0
    4.1730   -4.0100   27.2790 C   0  0  0  0  0  0  0  0  0  0  0  0
    7.3440   -3.1300   23.7300 C   0  0  0  0  0  0  0  0  0  0  0  0
    7.6930   -3.2890   22.2860 C   0  0  0  0  0  0  0  0  0  0  0  0
  1  2  1  0
  2  3  2  0
  2  4  1  0
  4  5  1  0
  5  6  1  0
  6  7  1  0
  7  8  1  0
  8  9  2  0
  8 10  1  0
 10 11  1  0
 11 12  1  0
 12 13  1  0
 13 14  1  0
 14 15  1  6
 15 16  1  0
 14 17  1  0
 17 18  1  0
 17 19  1  0
 17 20  1  0
 10 21  1  0
 14 21  1  0
  7 22  1  0
  4 23  1  0
 22 23  1  0
M  END
