piperidine-amides-19574-covalent
     RDKit          3D

 22 24  0  0  0  0  0  0  0  0999 V2000
    6.9310   -3.4290   19.3980 C   0  0  0  0  0  0  0  0  0  0  0  0
    6.2520   -4.2540   20.3880 C   0  0  0  0  0  0  0  0  0  0  0  0
    5.3100   -4.9800   19.9820 O   0  0  0  0  0  0  0  0  0  0  0  0
    6.5900   -4.3280   21.7490 N   0  0  0  0  0  0  0  0  0  0  0  0
    6.2510   -5.6070   22.4280 C   0  0  0  0  0  0  0  0  0  0  0  0
    5.8350   -5.1580   23.9010 C   0  0  0  0  0  0  0  0  0  0  0  0
    5.7060   -3.6370   23.9140 C   0  0  0  0  0  0  0  0  0  0  0  0
    4.6280   -3.0620   24.9940 C   0  0  0  0  0  0  0  0  0  0  0  0
    3.6790   -2.6820   24.3580 O   0  0  0  0  0  0  0  0  0  0  0  0
    4.9350   -3.1100   26.2530 N   0  0  0  0  0  0  0  0  0  0  0  0
    4.7780   -3.2720   27.5890 C   0  0  0  0  0  0  0  0  0  0  0  0
    5.4440   -4.1060   28.3560 C   0  0  0  0  0  0  0  0  0  0  0  0
    6.5050   -4.1960   27.4900 C   0  0  0  0  0  0  0  0  0  0  0  0
    6.3840   -2.9970   26.5350 C   0  0  1  0  0  0  0  0  0  0  0  0
    6.8350   -3.3570   25.0870 C   0  0  0  0  0  0  0  0  0  0  0  0
    7.9650   -2.5340   24.5630 N   0  0  0  0  0  0  0  0  0  0  0  0
    9.1070   -3.1530   23.9660 C   0  0  0  0  0  0  0  0  0  0  0  0
    9.9720   -2.2670   23.5550 N   0  0  0  0  0  0  0  0  0  0  0  0
    9.4100   -0.9940   23.8720 C   0  0  0  0  0  0  0  0  0  0  0  0
    8.1820   -1.2190   24.4920 N   0  0  0  0  0  0  0  0  0  0  0  0
    6.8340   -2.8290   23.5360 C   0  0  0  0  0  0  0  0  0  0  0  0
    7.5630   -3.5460   22.3690 C   0  0  0  0  0  0  0  0  0  0  0  0
  1  2  1  0
  2  3  2  0
  2  4  1  0
  4  5  1  0
  5  6  1  0
  6  7  1  0
  7  8  1  0
  8  9  2  0
  8 10  1  0
 10 11  1  0
 11 12  1  0
 12 13  1  0
 10 14  1  0
 13 14  1  0
 14 15  1  6
 15 16  1  0
 16 17  1  0
 17 18  2  0
 18 19  1  0
 16 20  1  0
 19 20  2  0
  7 21  1  0
  4 22  1  0
 21 22  1  0
M  END
