piperidine-amides-532-covalent
     RDKit          3D

 26 27  0  0  0  0  0  0  0  0999 V2000
    7.1970   -3.3070   19.3220 C   0  0  0  0  0  0  0  0  0  0  0  0
    6.3710   -4.0570   20.2370 C   0  0  0  0  0  0  0  0  0  0  0  0
    5.2480   -4.4950   19.8530 O   0  0  0  0  0  0  0  0  0  0  0  0
    6.8290   -4.3550   21.5210 N   0  0  0  0  0  0  0  0  0  0  0  0
    6.2080   -5.5000   22.2230 C   0  0  0  0  0  0  0  0  0  0  0  0
    5.1000   -4.7260   23.0290 C   0  0  0  0  0  0  0  0  0  0  0  0
    5.8770   -3.7770   23.9050 C   0  0  0  0  0  0  0  0  0  0  0  0
    5.0210   -3.1300   25.0730 C   0  0  0  0  0  0  0  0  0  0  0  0
    3.9490   -2.6720   24.7150 O   0  0  0  0  0  0  0  0  0  0  0  0
    5.7470   -3.3010   26.0630 N   0  0  0  0  0  0  0  0  0  0  0  0
    6.6670   -3.5770   26.9670 C   0  0  2  0  0  0  0  0  0  0  0  0
    7.9500   -3.8450   26.8000 C   0  0  0  0  0  0  0  0  0  0  0  0
    8.6180   -4.7340   27.6240 C   0  0  0  0  0  0  0  0  0  0  0  0
   10.0030   -5.1690   27.5960 C   0  0  0  0  0  0  0  0  0  0  0  0
   10.8470   -4.5190   26.4470 C   0  0  0  0  0  0  0  0  0  0  0  0
   10.1240   -3.6440   25.6820 C   0  0  0  0  0  0  0  0  0  0  0  0
   10.3200   -2.7910   24.5820 C   0  0  0  0  0  0  0  0  0  0  0  0
    9.5710   -3.1120   23.4970 F   0  0  0  0  0  0  0  0  0  0  0  0
   11.6360   -2.7410   24.2010 F   0  0  0  0  0  0  0  0  0  0  0  0
    9.9750   -1.5110   24.9710 F   0  0  0  0  0  0  0  0  0  0  0  0
    8.7310   -3.1950   25.6950 C   0  0  0  0  0  0  0  0  0  0  0  0
    6.0530   -4.7710   27.7480 C   0  0  0  0  0  0  0  0  0  0  0  0
    4.7890   -4.4080   28.1110 F   0  0  0  0  0  0  0  0  0  0  0  0
    6.0990   -5.8190   26.8790 F   0  0  0  0  0  0  0  0  0  0  0  0
    6.6150   -2.7230   23.0660 C   0  0  0  0  0  0  0  0  0  0  0  0
    7.5370   -3.3630   22.2930 C   0  0  0  0  0  0  0  0  0  0  0  0
  1  2  1  0
  2  3  2  0
  2  4  1  0
  4  5  1  0
  5  6  1  0
  6  7  1  0
  7  8  1  0
  8  9  2  0
  8 10  1  0
 11 10  1  6
 11 12  1  0
 12 13  2  0
 13 14  1  0
 14 15  2  0
 15 16  1  0
 16 17  1  0
 17 18  1  0
 17 19  1  0
 17 20  1  0
 12 21  1  0
 16 21  2  0
 11 22  1  0
 22 23  1  0
 22 24  1  0
  7 25  1  0
  4 26  1  0
 25 26  1  0
M  END
