piperidine-amides-24074-covalent
     RDKit          3D

 23 24  0  0  0  0  0  0  0  0999 V2000
    7.0770   -3.3200   19.2540 C   0  0  0  0  0  0  0  0  0  0  0  0
    6.3640   -4.1070   20.2750 C   0  0  0  0  0  0  0  0  0  0  0  0
    5.2930   -4.6510   19.9180 O   0  0  0  0  0  0  0  0  0  0  0  0
    6.8920   -4.2940   21.5740 N   0  0  0  0  0  0  0  0  0  0  0  0
    7.5620   -3.1890   22.1610 C   0  0  0  0  0  0  0  0  0  0  0  0
    7.1130   -2.8320   23.5020 C   0  0  0  0  0  0  0  0  0  0  0  0
    6.5560   -3.9300   24.3360 C   0  0  0  0  0  0  0  0  0  0  0  0
    5.9540   -3.3880   25.6000 C   0  0  0  0  0  0  0  0  0  0  0  0
    4.7190   -3.1930   25.6450 O   0  0  0  0  0  0  0  0  0  0  0  0
    6.7470   -3.0830   26.7400 N   0  0  0  0  0  0  0  0  0  0  0  0
    7.3620   -4.0100   27.6350 C   0  0  0  0  0  0  0  0  0  0  0  0
    7.8270   -5.3320   27.2180 C   0  0  0  0  0  0  0  0  0  0  0  0
    8.6120   -5.2030   25.9070 C   0  0  0  0  0  0  0  0  0  0  0  0
    8.0360   -5.7860   24.8030 F   0  0  0  0  0  0  0  0  0  0  0  0
    8.8300   -3.8820   25.6330 F   0  0  0  0  0  0  0  0  0  0  0  0
    9.8200   -5.8350   26.0760 F   0  0  0  0  0  0  0  0  0  0  0  0
    6.9400   -1.6840   27.0480 C   0  0  0  0  0  0  0  0  0  0  0  0
    5.7350   -0.7570   26.6840 C   0  0  0  0  0  0  0  0  0  0  0  0
    6.0010    0.4630   27.6050 C   0  0  0  0  0  0  0  0  0  0  0  0
    6.5960   -0.3280   28.7820 C   0  0  0  0  0  0  0  0  0  0  0  0
    7.2740   -1.5420   28.3520 C   0  0  0  0  0  0  0  0  0  0  0  0
    5.6140   -4.8170   23.5420 C   0  0  0  0  0  0  0  0  0  0  0  0
    6.4050   -5.3890   22.3550 C   0  0  0  0  0  0  0  0  0  0  0  0
  1  2  1  0
  2  3  2  0
  2  4  1  0
  4  5  1  0
  5  6  1  0
  6  7  1  0
  7  8  1  0
  8  9  2  0
  8 10  1  0
 10 11  1  0
 11 12  1  0
 12 13  1  0
 13 14  1  0
 13 15  1  0
 13 16  1  0
 10 17  1  0
 17 18  1  0
 18 19  1  0
 19 20  1  0
 17 21  1  0
 20 21  1  0
  7 22  1  0
  4 23  1  0
 22 23  1  0
M  END
