piperidine-amides-25235-covalent
     RDKit          3D

 25 28  0  0  0  0  0  0  0  0999 V2000
    7.0240   -3.3400   19.3440 C   0  0  0  0  0  0  0  0  0  0  0  0
    6.3240   -4.2270   20.3070 C   0  0  0  0  0  0  0  0  0  0  0  0
    5.2880   -4.7600   19.9380 O   0  0  0  0  0  0  0  0  0  0  0  0
    6.8780   -4.4640   21.5550 N   0  0  0  0  0  0  0  0  0  0  0  0
    6.6280   -5.6780   22.2830 C   0  0  0  0  0  0  0  0  0  0  0  0
    5.7820   -5.3670   23.4870 C   0  0  0  0  0  0  0  0  0  0  0  0
    6.3310   -4.1430   24.2210 C   0  0  0  0  0  0  0  0  0  0  0  0
    5.2870   -3.6660   25.1510 C   0  0  0  0  0  0  0  0  0  0  0  0
    4.2620   -3.1600   24.6880 O   0  0  0  0  0  0  0  0  0  0  0  0
    5.4130   -3.7520   26.5460 N   0  0  0  0  0  0  0  0  0  0  0  0
    5.8490   -4.9970   27.1640 C   0  0  0  0  0  0  0  0  0  0  0  0
    7.2170   -4.6550   27.6260 C   0  0  2  0  0  0  0  0  0  0  0  0
    8.0860   -5.1330   28.5010 C   0  0  0  0  0  0  0  0  0  0  0  0
    8.9390   -4.0410   28.5020 C   0  0  0  0  0  0  0  0  0  0  0  0
    8.2500   -2.8320   28.1170 N   0  0  0  0  0  0  0  0  0  0  0  0
    8.4620   -2.9510   26.7500 C   0  0  0  0  0  0  0  0  0  0  0  0
    9.2010   -4.2300   26.5240 C   0  0  0  0  0  0  0  0  0  0  0  0
    9.4700   -4.4980   25.1470 C   0  0  0  0  0  0  0  0  0  0  0  0
    9.0360   -3.5410   24.0660 C   0  0  0  0  0  0  0  0  0  0  0  0
    8.3090   -2.2860   24.4450 C   0  0  0  0  0  0  0  0  0  0  0  0
    7.9560   -1.8960   25.8370 C   0  0  0  0  0  0  0  0  0  0  0  0
    6.9580   -3.3260   28.2880 C   0  0  1  0  0  0  0  0  0  0  0  0
    5.8610   -2.8100   27.4890 C   0  0  0  0  0  0  0  0  0  0  0  0
    6.5950   -3.0120   23.2260 C   0  0  0  0  0  0  0  0  0  0  0  0
    7.5150   -3.3950   22.2800 C   0  0  0  0  0  0  0  0  0  0  0  0
  1  2  1  0
  2  3  2  0
  2  4  1  0
  4  5  1  0
  5  6  1  0
  6  7  1  0
  7  8  1  0
  8  9  2  0
  8 10  1  0
 10 11  1  0
 12 11  1  1
 12 13  1  0
 13 14  1  0
 14 15  1  0
 15 16  1  0
 16 17  2  0
 17 18  1  0
 18 19  2  0
 19 20  1  0
 16 21  1  0
 20 21  2  0
 12 22  1  0
 15 22  1  0
 10 23  1  0
 22 23  1  6
  7 24  1  0
  4 25  1  0
 24 25  1  0
M  END
