piperidine-amides-19757-covalent
     RDKit          3D

 22 23  0  0  0  0  0  0  0  0999 V2000
    7.0810   -3.3310   19.3030 C   0  0  0  0  0  0  0  0  0  0  0  0
    6.3370   -4.1280   20.3040 C   0  0  0  0  0  0  0  0  0  0  0  0
    5.2990   -4.6650   19.9270 O   0  0  0  0  0  0  0  0  0  0  0  0
    6.8520   -4.2880   21.5920 N   0  0  0  0  0  0  0  0  0  0  0  0
    7.6140   -3.2560   22.2390 C   0  0  0  0  0  0  0  0  0  0  0  0
    6.8550   -2.7520   23.4380 C   0  0  0  0  0  0  0  0  0  0  0  0
    6.3900   -3.9470   24.2810 C   0  0  0  0  0  0  0  0  0  0  0  0
    5.6520   -3.4230   25.4620 C   0  0  0  0  0  0  0  0  0  0  0  0
    4.4130   -3.4000   25.4140 O   0  0  0  0  0  0  0  0  0  0  0  0
    6.3010   -2.9450   26.6300 N   0  0  0  0  0  0  0  0  0  0  0  0
    6.2500   -3.7630   27.8320 C   0  0  0  0  0  0  0  0  0  0  0  0
    5.9410   -5.2110   27.4930 C   0  0  0  0  0  0  0  0  0  0  0  0
    6.3900   -6.2250   28.2880 C   0  0  0  0  0  0  0  0  0  0  0  0
    5.4710   -6.8400   29.0710 C   0  0  0  0  0  0  0  0  0  0  0  0
    6.6800   -1.5900   26.8740 C   0  0  0  0  0  0  0  0  0  0  0  0
    5.6660   -0.4700   26.4900 C   0  0  0  0  0  0  0  0  0  0  0  0
    5.8210    0.5730   27.5570 C   0  0  0  0  0  0  0  0  0  0  0  0
    5.3550    0.1690   28.7500 O   0  0  0  0  0  0  0  0  0  0  0  0
    5.8200   -1.1050   28.8910 C   0  0  0  0  0  0  0  0  0  0  0  0
    7.1550   -1.1490   28.2700 C   0  0  0  0  0  0  0  0  0  0  0  0
    5.5970   -4.9540   23.5000 C   0  0  0  0  0  0  0  0  0  0  0  0
    6.4650   -5.4460   22.3550 C   0  0  0  0  0  0  0  0  0  0  0  0
  1  2  1  0
  2  3  2  0
  2  4  1  0
  4  5  1  0
  5  6  1  0
  6  7  1  0
  7  8  1  0
  8  9  2  0
  8 10  1  0
 10 11  1  0
 11 12  1  0
 12 13  1  0
 13 14  3  0
 10 15  1  0
 15 16  1  0
 16 17  1  0
 17 18  1  0
 18 19  1  0
 15 20  1  0
 19 20  1  0
  7 21  1  0
  4 22  1  0
 21 22  1  0
M  END
