piperidine-amides-35061-covalent
     RDKit          3D

 32 35  0  0  0  0  0  0  0  0999 V2000
    7.0430   -3.3100   19.3380 C   0  0  0  0  0  0  0  0  0  0  0  0
    6.3490   -4.1670   20.3390 C   0  0  0  0  0  0  0  0  0  0  0  0
    5.3470   -4.7660   19.9560 O   0  0  0  0  0  0  0  0  0  0  0  0
    6.8480   -4.3110   21.6410 N   0  0  0  0  0  0  0  0  0  0  0  0
    6.7910   -5.6010   22.2950 C   0  0  0  0  0  0  0  0  0  0  0  0
    6.4120   -5.4420   23.7320 C   0  0  0  0  0  0  0  0  0  0  0  0
    6.1940   -3.9730   24.0370 C   0  0  0  0  0  0  0  0  0  0  0  0
    5.5850   -3.8980   25.3820 C   0  0  0  0  0  0  0  0  0  0  0  0
    4.4010   -4.2350   25.4750 O   0  0  0  0  0  0  0  0  0  0  0  0
    6.2250   -3.4350   26.5450 N   0  0  0  0  0  0  0  0  0  0  0  0
    5.8990   -3.9750   27.7770 C   0  0  0  0  0  0  0  0  0  0  0  0
    6.2810   -5.4780   27.6430 C   0  0  0  0  0  0  0  0  0  0  0  0
    6.0330   -6.1980   28.8330 C   0  0  0  0  0  0  0  0  0  0  0  0
    5.4820   -5.3200   29.7710 N   0  0  0  0  0  0  0  0  0  0  0  0
    5.7500   -4.7490   28.6760 N   0  0  0  0  0  0  0  0  0  0  0  0
    5.2520   -3.6140   29.2080 C   0  0  2  0  0  0  0  0  0  0  0  0
    3.9050   -3.2980   29.3510 C   0  0  0  0  0  0  0  0  0  0  0  0
    3.2620   -4.4650   29.7470 F   0  0  0  0  0  0  0  0  0  0  0  0
    3.7340   -2.3520   30.3570 F   0  0  0  0  0  0  0  0  0  0  0  0
    3.3460   -2.8100   28.1990 F   0  0  0  0  0  0  0  0  0  0  0  0
    4.6640   -2.8720   28.0670 C   0  0  0  0  0  0  0  0  0  0  0  0
    5.6360   -2.2590   27.0210 C   0  0  1  0  0  0  0  0  0  0  0  0
    6.1500   -1.2140   27.9860 C   0  0  0  0  0  0  0  0  0  0  0  0
    7.1210   -1.7430   28.9780 C   0  0  0  0  0  0  0  0  0  0  0  0
    7.6150   -0.7310   29.9440 C   0  0  0  0  0  0  0  0  0  0  0  0
    7.1170    0.6970   29.8520 C   0  0  0  0  0  0  0  0  0  0  0  0
    6.1400    1.1190   28.8030 C   0  0  0  0  0  0  0  0  0  0  0  0
    5.6520    0.0610   27.8290 C   0  0  0  0  0  0  0  0  0  0  0  0
    4.7480    0.4300   26.8580 O   0  0  0  0  0  0  0  0  0  0  0  0
    5.0880    0.3680   25.4990 C   0  0  0  0  0  0  0  0  0  0  0  0
    7.4540   -3.2200   23.7540 C   0  0  0  0  0  0  0  0  0  0  0  0
    7.7000   -3.2530   22.2390 C   0  0  0  0  0  0  0  0  0  0  0  0
  1  2  1  0
  2  3  2  0
  2  4  1  0
  4  5  1  0
  5  6  1  0
  6  7  1  0
  7  8  1  0
  8  9  2  0
  8 10  1  0
 10 11  1  0
 11 12  2  0
 12 13  1  0
 13 14  2  0
 11 15  1  0
 14 15  1  0
 15 16  1  0
 16 17  1  1
 17 18  1  0
 17 19  1  0
 17 20  1  0
 16 21  1  0
 10 22  1  0
 21 22  1  0
 22 23  1  1
 23 24  2  0
 24 25  1  0
 25 26  2  0
 26 27  1  0
 23 28  1  0
 27 28  2  0
 28 29  1  0
 29 30  1  0
  7 31  1  0
  4 32  1  0
 31 32  1  0
M  END
