piperidine-amides-19102-covalent
     RDKit          3D

 20 21  0  0  0  0  0  0  0  0999 V2000
    6.9640   -3.4210   19.3370 C   0  0  0  0  0  0  0  0  0  0  0  0
    6.2970   -4.2220   20.3490 C   0  0  0  0  0  0  0  0  0  0  0  0
    5.3290   -4.9390   19.9800 O   0  0  0  0  0  0  0  0  0  0  0  0
    6.6830   -4.2800   21.7000 N   0  0  0  0  0  0  0  0  0  0  0  0
    6.6140   -5.6100   22.3660 C   0  0  0  0  0  0  0  0  0  0  0  0
    5.8320   -5.2930   23.7110 C   0  0  0  0  0  0  0  0  0  0  0  0
    6.0390   -3.8200   23.9590 C   0  0  0  0  0  0  0  0  0  0  0  0
    5.3590   -3.1200   25.2340 C   0  0  0  0  0  0  0  0  0  0  0  0
    4.8310   -2.0980   24.8350 O   0  0  0  0  0  0  0  0  0  0  0  0
    5.4950   -3.7100   26.3680 N   0  0  0  0  0  0  0  0  0  0  0  0
    5.2290   -4.1130   27.6330 C   0  0  0  0  0  0  0  0  0  0  0  0
    4.7910   -5.2790   28.1420 C   0  0  2  0  0  0  0  0  0  0  0  0
    4.6510   -5.2760   29.5330 C   0  0  0  0  0  0  0  0  0  0  0  0
    5.8090   -6.5880   27.9990 S   0  0  0  0  0  0  0  0  0  0  0  0
    6.1710   -7.1180   29.3280 O   0  0  0  0  0  0  0  0  0  0  0  0
    7.1080   -5.4970   27.4960 C   0  0  1  0  0  0  0  0  0  0  0  0
    7.2350   -5.2890   25.9860 C   0  0  0  0  0  0  0  0  0  0  0  0
    6.8290   -4.0710   26.8810 C   0  0  0  0  0  0  0  0  0  0  0  0
    7.4390   -3.3740   23.7130 C   0  0  0  0  0  0  0  0  0  0  0  0
    7.5940   -3.2710   22.2130 C   0  0  0  0  0  0  0  0  0  0  0  0
  1  2  1  0
  2  3  2  0
  2  4  1  0
  4  5  1  0
  5  6  1  0
  6  7  1  0
  7  8  1  0
  8  9  2  0
  8 10  1  0
 10 11  1  0
 11 12  1  0
 12 13  1  1
 14 12  1  0
 14 15  2  0
 14 16  1  0
 16 17  1  6
 10 18  1  0
 16 18  1  0
  7 19  1  0
  4 20  1  0
 19 20  1  0
M  END
