piperidine-amides-5304-covalent
     RDKit          3D

 21 22  0  0  0  0  0  0  0  0999 V2000
    7.0620   -3.3270   19.2660 C   0  0  0  0  0  0  0  0  0  0  0  0
    6.3680   -4.1380   20.2900 C   0  0  0  0  0  0  0  0  0  0  0  0
    5.3100   -4.6870   19.9290 O   0  0  0  0  0  0  0  0  0  0  0  0
    6.9050   -4.3310   21.5730 N   0  0  0  0  0  0  0  0  0  0  0  0
    6.4760   -5.4350   22.3550 C   0  0  0  0  0  0  0  0  0  0  0  0
    5.9520   -5.0510   23.6700 C   0  0  0  0  0  0  0  0  0  0  0  0
    6.5540   -3.8330   24.2530 C   0  0  0  0  0  0  0  0  0  0  0  0
    5.7720   -3.3910   25.4420 C   0  0  0  0  0  0  0  0  0  0  0  0
    4.5240   -3.3240   25.3800 O   0  0  0  0  0  0  0  0  0  0  0  0
    6.4190   -3.0580   26.6350 N   0  0  0  0  0  0  0  0  0  0  0  0
    6.3790   -1.7060   27.2310 C   0  0  0  0  0  0  0  0  0  0  0  0
    6.9620   -1.5070   28.5610 C   0  0  0  0  0  0  0  0  0  0  0  0
    6.9370   -0.2190   29.1810 C   0  0  0  0  0  0  0  0  0  0  0  0
    7.5210   -0.2020   30.4240 F   0  0  0  0  0  0  0  0  0  0  0  0
    6.3740    0.8740   28.5660 C   0  0  0  0  0  0  0  0  0  0  0  0
    5.7810    0.8420   27.3000 C   0  0  0  0  0  0  0  0  0  0  0  0
    5.2740    1.9430   26.8210 O   0  0  0  0  0  0  0  0  0  0  0  0
    4.0320    2.4820   27.1020 C   0  0  0  0  0  0  0  0  0  0  0  0
    5.7850   -0.5040   26.6040 C   0  0  0  0  0  0  0  0  0  0  0  0
    6.8620   -2.7430   23.3020 C   0  0  0  0  0  0  0  0  0  0  0  0
    7.6080   -3.2600   22.2450 C   0  0  0  0  0  0  0  0  0  0  0  0
  1  2  1  0
  2  3  2  0
  2  4  1  0
  4  5  1  0
  5  6  1  0
  6  7  1  0
  7  8  1  0
  8  9  2  0
  8 10  1  0
 10 11  1  0
 11 12  2  0
 12 13  1  0
 13 14  1  0
 13 15  2  0
 15 16  1  0
 16 17  1  0
 17 18  1  0
 11 19  1  0
 16 19  2  0
  7 20  1  0
  4 21  1  0
 20 21  1  0
M  END
