piperidine-amides-16172-covalent
     RDKit          3D

 19 20  0  0  0  0  0  0  0  0999 V2000
    7.0760   -3.3350   19.3390 C   0  0  0  0  0  0  0  0  0  0  0  0
    6.4110   -4.2190   20.3280 C   0  0  0  0  0  0  0  0  0  0  0  0
    5.3780   -4.7820   19.9670 O   0  0  0  0  0  0  0  0  0  0  0  0
    6.9850   -4.4300   21.5860 N   0  0  0  0  0  0  0  0  0  0  0  0
    6.6710   -5.5880   22.3720 C   0  0  0  0  0  0  0  0  0  0  0  0
    5.7810   -5.1800   23.5140 C   0  0  0  0  0  0  0  0  0  0  0  0
    6.4010   -4.0240   24.3100 C   0  0  0  0  0  0  0  0  0  0  0  0
    5.3850   -3.6310   25.3090 C   0  0  0  0  0  0  0  0  0  0  0  0
    4.4400   -2.9090   24.9800 O   0  0  0  0  0  0  0  0  0  0  0  0
    5.5110   -4.0710   26.6320 N   0  0  0  0  0  0  0  0  0  0  0  0
    4.4410   -3.8800   27.5650 C   0  0  0  0  0  0  0  0  0  0  0  0
    4.9490   -4.4850   28.8640 C   0  0  0  0  0  0  0  0  0  0  0  0
    5.9610   -5.4070   28.8840 C   0  0  0  0  0  0  0  0  0  0  0  0
    6.8470   -5.2590   27.9010 C   0  0  2  0  0  0  0  0  0  0  0  0
    8.1300   -5.4870   28.3380 O   0  0  0  0  0  0  0  0  0  0  0  0
    6.6900   -4.0450   27.2930 C   0  0  2  0  0  0  0  0  0  0  0  0
    6.7590   -2.7080   28.0350 C   0  0  0  0  0  0  0  0  0  0  0  0
    6.8280   -2.8830   23.4350 C   0  0  0  0  0  0  0  0  0  0  0  0
    7.6450   -3.3370   22.2660 C   0  0  0  0  0  0  0  0  0  0  0  0
  1  2  1  0
  2  3  2  0
  2  4  1  0
  4  5  1  0
  5  6  1  0
  6  7  1  0
  7  8  1  0
  8  9  2  0
  8 10  1  0
 10 11  1  0
 11 12  1  0
 12 13  1  0
 13 14  1  0
 14 15  1  1
 10 16  1  0
 14 16  1  0
 16 17  1  1
  7 18  1  0
  4 19  1  0
 18 19  1  0
M  END
