piperidine-amides-27473-covalent
     RDKit          3D

 26 29  0  0  0  0  0  0  0  0999 V2000
    7.0500   -3.3770   19.3980 C   0  0  0  0  0  0  0  0  0  0  0  0
    6.3540   -4.1990   20.3890 C   0  0  0  0  0  0  0  0  0  0  0  0
    5.3530   -4.8390   19.9770 O   0  0  0  0  0  0  0  0  0  0  0  0
    6.8300   -4.2860   21.7070 N   0  0  0  0  0  0  0  0  0  0  0  0
    6.7140   -5.5290   22.4450 C   0  0  0  0  0  0  0  0  0  0  0  0
    6.2340   -5.2330   23.8460 C   0  0  0  0  0  0  0  0  0  0  0  0
    6.1160   -3.7560   24.0890 C   0  0  0  0  0  0  0  0  0  0  0  0
    5.6500   -3.3920   25.4660 C   0  0  0  0  0  0  0  0  0  0  0  0
    4.6840   -2.6040   25.5170 O   0  0  0  0  0  0  0  0  0  0  0  0
    6.1660   -3.8520   26.7070 N   0  0  0  0  0  0  0  0  0  0  0  0
    6.1730   -2.9670   27.8490 C   0  0  0  0  0  0  0  0  0  0  0  0
    5.2040   -3.4180   28.9380 C   0  0  0  0  0  0  0  0  0  0  0  0
    5.4230   -4.8240   29.3230 N   0  0  0  0  0  0  0  0  0  0  0  0
    4.3720   -5.5080   29.7710 C   0  0  0  0  0  0  0  0  0  0  0  0
    3.6700   -5.1510   30.9580 C   0  0  0  0  0  0  0  0  0  0  0  0
    2.5420   -5.8130   31.5130 C   0  0  0  0  0  0  0  0  0  0  0  0
    1.9610   -6.9250   30.9400 C   0  0  0  0  0  0  0  0  0  0  0  0
    0.8490   -7.6970   31.3480 O   0  0  0  0  0  0  0  0  0  0  0  0
    0.7570   -8.6690   30.3610 C   0  0  0  0  0  0  0  0  0  0  0  0
    1.7810   -8.5670   29.2960 C   0  0  0  0  0  0  0  0  0  0  0  0
    2.6390   -7.3520   29.6880 C   0  0  0  0  0  0  0  0  0  0  0  0
    3.8210   -6.6240   29.1580 C   0  0  0  0  0  0  0  0  0  0  0  0
    6.3410   -5.4380   28.3500 C   0  0  0  0  0  0  0  0  0  0  0  0
    6.0210   -5.2170   27.0300 C   0  0  0  0  0  0  0  0  0  0  0  0
    7.4440   -3.1090   23.7440 C   0  0  0  0  0  0  0  0  0  0  0  0
    7.7210   -3.2680   22.2540 C   0  0  0  0  0  0  0  0  0  0  0  0
  1  2  1  0
  2  3  2  0
  2  4  1  0
  4  5  1  0
  5  6  1  0
  6  7  1  0
  7  8  1  0
  8  9  2  0
  8 10  1  0
 10 11  1  0
 11 12  1  0
 12 13  1  0
 13 14  1  0
 14 15  2  0
 15 16  1  0
 16 17  2  0
 17 18  1  0
 18 19  1  0
 19 20  2  0
 17 21  1  0
 20 21  1  0
 14 22  1  0
 21 22  2  0
 13 23  1  0
 10 24  1  0
 23 24  1  0
  7 25  1  0
  4 26  1  0
 25 26  1  0
M  END
