piperidine-amides-29942-covalent
     RDKit          3D

 26 28  0  0  0  0  0  0  0  0999 V2000
    7.0570   -3.3580   19.2970 C   0  0  0  0  0  0  0  0  0  0  0  0
    6.3910   -4.1890   20.2920 C   0  0  0  0  0  0  0  0  0  0  0  0
    5.3750   -4.8090   19.9770 O   0  0  0  0  0  0  0  0  0  0  0  0
    6.9480   -4.3360   21.6120 N   0  0  0  0  0  0  0  0  0  0  0  0
    6.5580   -5.4370   22.4380 C   0  0  0  0  0  0  0  0  0  0  0  0
    5.7870   -4.9250   23.6290 C   0  0  0  0  0  0  0  0  0  0  0  0
    6.5590   -3.7890   24.3030 C   0  0  0  0  0  0  0  0  0  0  0  0
    5.7180   -3.1830   25.3790 C   0  0  0  0  0  0  0  0  0  0  0  0
    4.5830   -2.7330   25.1310 O   0  0  0  0  0  0  0  0  0  0  0  0
    6.1990   -3.1230   26.7160 N   0  0  0  0  0  0  0  0  0  0  0  0
    6.0060   -4.3010   27.5330 C   0  0  0  0  0  0  0  0  0  0  0  0
    4.5750   -4.3430   28.0050 C   0  0  0  0  0  0  0  0  0  0  0  0
    3.7130   -5.3450   27.5750 C   0  0  0  0  0  0  0  0  0  0  0  0
    2.3860   -5.3760   28.0240 C   0  0  0  0  0  0  0  0  0  0  0  0
    1.9450   -4.4060   28.8930 C   0  0  0  0  0  0  0  0  0  0  0  0
    2.7900   -3.3650   29.3560 N   0  0  0  0  0  0  0  0  0  0  0  0
    4.1430   -3.3480   28.8880 C   0  0  0  0  0  0  0  0  0  0  0  0
    6.3340   -1.8440   27.3670 C   0  0  0  0  0  0  0  0  0  0  0  0
    5.8410   -0.6580   26.7170 C   0  0  0  0  0  0  0  0  0  0  0  0
    5.8820    0.6770   27.2250 C   0  0  0  0  0  0  0  0  0  0  0  0
    6.4940    0.8000   28.5320 C   0  0  0  0  0  0  0  0  0  0  0  0
    6.9050   -0.3740   29.0040 C   0  0  0  0  0  0  0  0  0  0  0  0
    6.1740   -0.5820   27.4490 Cl  0  0  0  0  0  0  0  0  0  0  0  0
    6.9350   -1.7270   28.6400 N   0  0  0  0  0  0  0  0  0  0  0  0
    6.9210   -2.6920   23.3440 C   0  0  0  0  0  0  0  0  0  0  0  0
    7.6550   -3.2440   22.1770 C   0  0  0  0  0  0  0  0  0  0  0  0
  1  2  1  0
  2  3  2  0
  2  4  1  0
  4  5  1  0
  5  6  1  0
  6  7  1  0
  7  8  1  0
  8  9  2  0
  8 10  1  0
 10 11  1  0
 11 12  1  0
 12 13  2  0
 13 14  1  0
 14 15  2  0
 15 16  1  0
 12 17  1  0
 16 17  2  0
 10 18  1  0
 18 19  2  0
 19 20  1  0
 20 21  2  0
 21 22  1  0
 22 23  1  0
 18 24  1  0
 22 24  2  0
  7 25  1  0
  4 26  1  0
 25 26  1  0
M  END
