piperidine-amides-32845-covalent
     RDKit          3D

 29 31  0  0  0  0  0  0  0  0999 V2000
    7.0950   -3.3440   19.3940 C   0  0  0  0  0  0  0  0  0  0  0  0
    6.3400   -4.1950   20.3510 C   0  0  0  0  0  0  0  0  0  0  0  0
    5.3000   -4.7360   19.9490 O   0  0  0  0  0  0  0  0  0  0  0  0
    6.8310   -4.4290   21.6570 N   0  0  0  0  0  0  0  0  0  0  0  0
    6.4640   -5.6330   22.3420 C   0  0  0  0  0  0  0  0  0  0  0  0
    5.5560   -5.1720   23.4790 C   0  0  0  0  0  0  0  0  0  0  0  0
    6.4090   -4.3430   24.3720 C   0  0  0  0  0  0  0  0  0  0  0  0
    5.6320   -3.7520   25.5360 C   0  0  0  0  0  0  0  0  0  0  0  0
    4.6370   -3.0840   25.1670 O   0  0  0  0  0  0  0  0  0  0  0  0
    5.9360   -3.9140   26.9600 N   0  0  0  0  0  0  0  0  0  0  0  0
    4.9210   -3.7680   27.9960 C   0  0  0  0  0  0  0  0  0  0  0  0
    4.9880   -4.1890   29.3250 C   0  0  0  0  0  0  0  0  0  0  0  0
    5.4340   -5.5710   29.3810 N   0  0  0  0  0  0  0  0  0  0  0  0
    5.1480   -6.4820   30.4060 C   0  0  0  0  0  0  0  0  0  0  0  0
    5.9170   -6.7580   31.5420 O   0  0  0  0  0  0  0  0  0  0  0  0
    3.9530   -7.1100   30.1670 O   0  0  0  0  0  0  0  0  0  0  0  0
    2.8360   -6.9620   31.0250 C   0  0  0  0  0  0  0  0  0  0  0  0
    3.0860   -5.8320   31.9560 C   0  0  0  0  0  0  0  0  0  0  0  0
    1.7410   -6.5790   30.2620 C   0  0  0  0  0  0  0  0  0  0  0  0
    2.4650   -8.1740   31.5610 C   0  0  0  0  0  0  0  0  0  0  0  0
    6.5750   -5.7040   28.7310 C   0  0  0  0  0  0  0  0  0  0  0  0
    6.8490   -4.2640   28.5410 C   0  0  0  0  0  0  0  0  0  0  0  0
    5.9930   -5.1340   27.5520 C   0  0  0  0  0  0  0  0  0  0  0  0
    5.2400   -5.0210   26.3040 C   0  0  0  0  0  0  0  0  0  0  0  0
    5.4160   -3.4850   25.9320 C   0  0  0  0  0  0  0  0  0  0  0  0
    6.1660   -2.4820   26.6960 C   0  0  0  0  0  0  0  0  0  0  0  0
    6.7300   -3.1070   27.8570 C   0  0  0  0  0  0  0  0  0  0  0  0
    7.0380   -3.1450   23.6470 C   0  0  0  0  0  0  0  0  0  0  0  0
    7.5090   -3.3710   22.3480 C   0  0  0  0  0  0  0  0  0  0  0  0
  1  2  1  0
  2  3  2  0
  2  4  1  0
  4  5  1  0
  5  6  1  0
  6  7  1  0
  7  8  1  0
  8  9  2  0
  8 10  1  0
 10 11  1  0
 11 12  1  0
 12 13  1  0
 13 14  1  0
 14 15  2  0
 14 16  1  0
 17 16  1  0
 17 18  1  0
 17 19  1  0
 17 20  1  0
 13 21  1  0
 21 22  1  0
 22 23  1  0
 23 24  2  0
 24 25  1  0
 25 26  2  0
 10 27  1  0
 22 27  2  0
 26 27  1  0
  7 28  1  0
  4 29  1  0
 28 29  1  0
M  END
