piperidine-amides-31516-covalent
     RDKit          3D

 28 31  0  0  0  0  0  0  0  0999 V2000
    7.0760   -3.3520   19.4690 C   0  0  0  0  0  0  0  0  0  0  0  0
    6.4020   -4.2060   20.4200 C   0  0  0  0  0  0  0  0  0  0  0  0
    5.4440   -4.9350   20.0020 O   0  0  0  0  0  0  0  0  0  0  0  0
    6.8010   -4.2690   21.7760 N   0  0  0  0  0  0  0  0  0  0  0  0
    6.7260   -5.6180   22.4110 C   0  0  0  0  0  0  0  0  0  0  0  0
    6.1960   -5.3320   23.8840 C   0  0  0  0  0  0  0  0  0  0  0  0
    6.2360   -3.8460   24.0500 C   0  0  0  0  0  0  0  0  0  0  0  0
    5.4530   -3.2610   25.3120 C   0  0  0  0  0  0  0  0  0  0  0  0
    4.7870   -2.3100   24.9390 O   0  0  0  0  0  0  0  0  0  0  0  0
    5.6710   -3.8900   26.4050 N   0  0  0  0  0  0  0  0  0  0  0  0
    5.5930   -4.8330   27.3690 C   0  0  0  0  0  0  0  0  0  0  0  0
    5.9810   -4.7050   28.6330 C   0  0  0  0  0  0  0  0  0  0  0  0
    6.4290   -3.3930   28.5460 C   0  0  2  0  0  0  0  0  0  0  0  0
    5.8230   -2.6220   29.5710 O   0  0  0  0  0  0  0  0  0  0  0  0
    4.5580   -2.1400   29.2350 C   0  0  0  0  0  0  0  0  0  0  0  0
    3.5230   -3.1480   28.6720 C   0  0  0  0  0  0  0  0  0  0  0  0
    2.3180   -2.4500   28.4080 C   0  0  0  0  0  0  0  0  0  0  0  0
    2.1030   -1.0790   28.6210 C   0  0  0  0  0  0  0  0  0  0  0  0
    2.9920   -0.2290   29.1020 N   0  0  0  0  0  0  0  0  0  0  0  0
    4.2890   -0.7170   29.4410 C   0  0  0  0  0  0  0  0  0  0  0  0
    5.3250    0.0970   29.9680 N   0  0  0  0  0  0  0  0  0  0  0  0
    5.1660    0.6370   31.2720 C   0  0  0  0  0  0  0  0  0  0  0  0
    5.5340    1.8980   31.3450 C   0  0  0  0  0  0  0  0  0  0  0  0
    5.9500    2.2150   30.0930 C   0  0  0  0  0  0  0  0  0  0  0  0
    5.8390    1.1380   29.2010 C   0  0  0  0  0  0  0  0  0  0  0  0
    6.2130   -2.8180   27.2600 C   0  0  0  0  0  0  0  0  0  0  0  0
    7.4960   -3.1450   23.7210 C   0  0  0  0  0  0  0  0  0  0  0  0
    7.7280   -3.2540   22.2550 C   0  0  0  0  0  0  0  0  0  0  0  0
  1  2  1  0
  2  3  2  0
  2  4  1  0
  4  5  1  0
  5  6  1  0
  6  7  1  0
  7  8  1  0
  8  9  2  0
  8 10  1  0
 10 11  1  0
 11 12  1  0
 12 13  1  0
 13 14  1  1
 14 15  1  0
 15 16  2  0
 16 17  1  0
 17 18  2  0
 18 19  1  0
 15 20  1  0
 19 20  2  0
 20 21  1  0
 21 22  1  0
 22 23  1  0
 23 24  1  0
 21 25  1  0
 24 25  1  0
 10 26  1  0
 13 26  1  0
  7 27  1  0
  4 28  1  0
 27 28  1  0
M  END
