piperidine-amides-11435-covalent
     RDKit          3D

 29 32  0  0  0  0  0  0  0  0999 V2000
    7.1400   -3.2990   19.2760 C   0  0  0  0  0  0  0  0  0  0  0  0
    6.3590   -4.0310   20.2710 C   0  0  0  0  0  0  0  0  0  0  0  0
    5.3120   -4.5980   19.9130 O   0  0  0  0  0  0  0  0  0  0  0  0
    6.8030   -4.1510   21.5990 N   0  0  0  0  0  0  0  0  0  0  0  0
    7.6440   -3.1190   22.1960 C   0  0  0  0  0  0  0  0  0  0  0  0
    7.4040   -3.1370   23.6910 C   0  0  0  0  0  0  0  0  0  0  0  0
    6.0750   -3.7380   24.0350 C   0  0  0  0  0  0  0  0  0  0  0  0
    5.5280   -3.3270   25.3550 C   0  0  0  0  0  0  0  0  0  0  0  0
    4.2880   -3.4610   25.5670 O   0  0  0  0  0  0  0  0  0  0  0  0
    6.2820   -2.7920   26.4270 N   0  0  0  0  0  0  0  0  0  0  0  0
    6.7560   -1.3890   26.4060 C   0  0  2  0  0  0  0  0  0  0  0  0
    6.6700   -0.7710   27.7520 C   0  0  0  0  0  0  0  0  0  0  0  0
    6.1490    0.5980   27.8460 C   0  0  0  0  0  0  0  0  0  0  0  0
    6.0540    1.2580   29.1830 C   0  0  0  0  0  0  0  0  0  0  0  0
    6.4970    0.5050   30.4160 C   0  0  0  0  0  0  0  0  0  0  0  0
    6.4480    1.1360   32.0470 Cl  0  0  0  0  0  0  0  0  0  0  0  0
    6.9950   -0.8660   30.1160 C   0  0  0  0  0  0  0  0  0  0  0  0
    7.0700   -1.4520   28.8720 C   0  0  0  0  0  0  0  0  0  0  0  0
    5.9610   -0.5300   25.4730 C   0  0  0  0  0  0  0  0  0  0  0  0
    6.7860   -0.1420   24.2260 C   0  0  0  0  0  0  0  0  0  0  0  0
    6.0800    0.7380   23.2290 C   0  0  0  0  0  0  0  0  0  0  0  0
    4.7380    0.9980   23.7420 C   0  0  0  0  0  0  0  0  0  0  0  0
    4.0090    0.7800   24.6290 C   0  0  0  0  0  0  0  0  0  0  0  0
    4.6170   -0.0950   25.6820 C   0  0  0  0  0  0  0  0  0  0  0  0
    3.9530   -0.4920   26.8260 C   0  0  0  0  0  0  0  0  0  0  0  0
    2.5430   -0.6760   26.7300 C   0  0  0  0  0  0  0  0  0  0  0  0
    2.8180    0.3770   27.6380 C   0  0  0  0  0  0  0  0  0  0  0  0
    6.0750   -5.1700   23.7070 C   0  0  0  0  0  0  0  0  0  0  0  0
    6.5590   -5.3670   22.3010 C   0  0  0  0  0  0  0  0  0  0  0  0
  1  2  1  0
  2  3  2  0
  2  4  1  0
  4  5  1  0
  5  6  1  0
  6  7  1  0
  7  8  1  0
  8  9  2  0
  8 10  1  0
 11 10  1  1
 11 12  1  0
 12 13  2  0
 13 14  1  0
 14 15  2  0
 15 16  1  0
 15 17  1  0
 12 18  1  0
 17 18  2  0
 11 19  1  0
 19 20  2  0
 20 21  1  0
 21 22  2  0
 22 23  1  0
 19 24  1  0
 23 24  2  0
 24 25  1  0
 25 26  1  0
 25 27  1  0
 26 27  1  0
  7 28  1  0
  4 29  1  0
 28 29  1  0
M  END
