piperidine-amides-29835-covalent
     RDKit          3D

 27 29  0  0  0  0  0  0  0  0999 V2000
    7.0060   -3.4220   19.4650 C   0  0  0  0  0  0  0  0  0  0  0  0
    6.3300   -4.2830   20.4330 C   0  0  0  0  0  0  0  0  0  0  0  0
    5.4150   -4.9970   20.0220 O   0  0  0  0  0  0  0  0  0  0  0  0
    6.7400   -4.3390   21.8270 N   0  0  0  0  0  0  0  0  0  0  0  0
    7.6040   -3.3130   22.3870 C   0  0  0  0  0  0  0  0  0  0  0  0
    7.2040   -2.9730   23.8070 C   0  0  0  0  0  0  0  0  0  0  0  0
    5.8360   -3.5940   24.0350 C   0  0  0  0  0  0  0  0  0  0  0  0
    5.0830   -3.0370   25.2460 C   0  0  0  0  0  0  0  0  0  0  0  0
    4.2970   -2.0990   25.0690 O   0  0  0  0  0  0  0  0  0  0  0  0
    5.1740   -3.4930   26.6040 N   0  0  0  0  0  0  0  0  0  0  0  0
    4.4260   -2.7870   27.6040 C   0  0  0  0  0  0  0  0  0  0  0  0
    4.2990   -3.7220   28.7670 C   0  0  0  0  0  0  0  0  0  0  0  0
    5.3450   -4.3970   29.1900 N   0  0  0  0  0  0  0  0  0  0  0  0
    5.1230   -5.7170   29.0740 C   0  0  1  0  0  0  0  0  0  0  0  0
    5.9910   -6.6370   29.6710 C   0  0  0  0  0  0  0  0  0  0  0  0
    5.6810   -7.0090   30.9340 N   0  0  0  0  0  0  0  0  0  0  0  0
    3.7950   -6.3090   29.6220 C   0  0  0  0  0  0  0  0  0  0  0  0
    3.3350   -7.6150   29.2020 C   0  0  0  0  0  0  0  0  0  0  0  0
    2.1660   -8.1430   29.6820 C   0  0  0  0  0  0  0  0  0  0  0  0
    1.3670   -7.4820   30.5770 C   0  0  0  0  0  0  0  0  0  0  0  0
    0.2410   -8.1390   30.9570 F   0  0  0  0  0  0  0  0  0  0  0  0
    1.7460   -6.2150   31.0270 C   0  0  0  0  0  0  0  0  0  0  0  0
    3.0030   -5.6160   30.5290 C   0  0  0  0  0  0  0  0  0  0  0  0
    6.5180   -4.0350   28.5210 C   0  0  0  0  0  0  0  0  0  0  0  0
    6.3360   -4.0500   27.1280 C   0  0  0  0  0  0  0  0  0  0  0  0
    5.9500   -5.1020   23.9960 C   0  0  0  0  0  0  0  0  0  0  0  0
    6.5270   -5.5320   22.6210 C   0  0  0  0  0  0  0  0  0  0  0  0
  1  2  1  0
  2  3  2  0
  2  4  1  0
  4  5  1  0
  5  6  1  0
  6  7  1  0
  7  8  1  0
  8  9  2  0
  8 10  1  0
 10 11  1  0
 11 12  1  0
 12 13  1  0
 13 14  1  0
 14 15  1  1
 15 16  3  0
 14 17  1  0
 17 18  2  0
 18 19  1  0
 19 20  2  0
 20 21  1  0
 20 22  1  0
 17 23  1  0
 22 23  2  0
 13 24  1  0
 10 25  1  0
 24 25  1  0
  7 26  1  0
  4 27  1  0
 26 27  1  0
M  END
