piperidine-amides-14357-covalent
     RDKit          3D

 22 23  0  0  0  0  0  0  0  0999 V2000
    7.0530   -3.3310   19.3100 C   0  0  0  0  0  0  0  0  0  0  0  0
    6.3790   -4.1610   20.3090 C   0  0  0  0  0  0  0  0  0  0  0  0
    5.3630   -4.7880   19.9650 O   0  0  0  0  0  0  0  0  0  0  0  0
    6.9060   -4.2740   21.6210 N   0  0  0  0  0  0  0  0  0  0  0  0
    7.7050   -3.2040   22.1600 C   0  0  0  0  0  0  0  0  0  0  0  0
    6.9800   -2.5870   23.3100 C   0  0  0  0  0  0  0  0  0  0  0  0
    6.6170   -3.7500   24.1830 C   0  0  0  0  0  0  0  0  0  0  0  0
    5.7800   -3.2760   25.3380 C   0  0  0  0  0  0  0  0  0  0  0  0
    4.5770   -3.1500   25.1200 O   0  0  0  0  0  0  0  0  0  0  0  0
    6.4030   -3.0400   26.5610 N   0  0  0  0  0  0  0  0  0  0  0  0
    6.4280   -1.7600   27.2130 C   0  0  0  0  0  0  0  0  0  0  0  0
    6.9660   -1.6280   28.4880 C   0  0  0  0  0  0  0  0  0  0  0  0
    7.0070   -0.4350   29.1760 C   0  0  0  0  0  0  0  0  0  0  0  0
    6.5270    0.8060   28.7180 C   0  0  0  0  0  0  0  0  0  0  0  0
    6.5810    2.3310   29.6150 Cl  0  0  0  0  0  0  0  0  0  0  0  0
    5.9410    0.7060   27.3330 C   0  0  0  0  0  0  0  0  0  0  0  0
    5.8790   -0.6050   26.5370 C   0  0  0  0  0  0  0  0  0  0  0  0
    5.2640   -0.5140   25.1880 C   0  0  0  0  0  0  0  0  0  0  0  0
    4.1920    0.1460   25.1590 O   0  0  0  0  0  0  0  0  0  0  0  0
    3.0990   -0.6050   25.5760 C   0  0  0  0  0  0  0  0  0  0  0  0
    5.8950   -4.8590   23.5370 C   0  0  0  0  0  0  0  0  0  0  0  0
    6.6040   -5.3990   22.4810 C   0  0  0  0  0  0  0  0  0  0  0  0
  1  2  1  0
  2  3  2  0
  2  4  1  0
  4  5  1  0
  5  6  1  0
  6  7  1  0
  7  8  1  0
  8  9  2  0
  8 10  1  0
 10 11  1  0
 11 12  2  0
 12 13  1  0
 13 14  2  0
 14 15  1  0
 14 16  1  0
 11 17  1  0
 16 17  2  0
 17 18  1  0
 18 19  1  0
 19 20  1  0
  7 21  1  0
  4 22  1  0
 21 22  1  0
M  END
