piperidine-amides-31021-covalent
     RDKit          3D

 27 29  0  0  0  0  0  0  0  0999 V2000
    7.1220   -3.3420   19.2540 C   0  0  0  0  0  0  0  0  0  0  0  0
    6.3610   -4.0920   20.2470 C   0  0  0  0  0  0  0  0  0  0  0  0
    5.3000   -4.6470   19.9190 O   0  0  0  0  0  0  0  0  0  0  0  0
    6.8590   -4.2330   21.5430 N   0  0  0  0  0  0  0  0  0  0  0  0
    7.7260   -3.2160   22.0990 C   0  0  0  0  0  0  0  0  0  0  0  0
    6.9780   -2.7300   23.2890 C   0  0  0  0  0  0  0  0  0  0  0  0
    6.7170   -3.8900   24.1750 C   0  0  0  0  0  0  0  0  0  0  0  0
    5.9300   -3.4990   25.3510 C   0  0  0  0  0  0  0  0  0  0  0  0
    4.9060   -2.7600   25.2450 O   0  0  0  0  0  0  0  0  0  0  0  0
    6.2980   -3.9410   26.6200 N   0  0  0  0  0  0  0  0  0  0  0  0
    7.0240   -5.2200   26.7100 C   0  0  0  0  0  0  0  0  0  0  0  0
    7.0950   -5.4070   28.1450 C   0  0  0  0  0  0  0  0  0  0  0  0
    6.2010   -4.4260   28.7680 C   0  0  0  0  0  0  0  0  0  0  0  0
    5.8190   -3.3250   27.8100 C   0  0  1  0  0  0  0  0  0  0  0  0
    6.4560   -2.0130   28.2340 C   0  0  0  0  0  0  0  0  0  0  0  0
    4.2930   -3.2170   27.9920 C   0  0  0  0  0  0  0  0  0  0  0  0
    3.9530   -2.5050   29.1320 C   0  0  0  0  0  0  0  0  0  0  0  0
    2.6580   -2.2730   29.5140 C   0  0  0  0  0  0  0  0  0  0  0  0
    1.6630   -2.8520   28.6010 C   0  0  0  0  0  0  0  0  0  0  0  0
    0.1390   -2.7680   28.7500 C   0  0  0  0  0  0  0  0  0  0  0  0
   -0.3060   -1.5240   29.1240 F   0  0  0  0  0  0  0  0  0  0  0  0
   -0.5210   -3.0580   27.5540 F   0  0  0  0  0  0  0  0  0  0  0  0
   -0.3300   -3.6320   29.7500 F   0  0  0  0  0  0  0  0  0  0  0  0
    2.2330   -3.6000   27.4010 C   0  0  0  0  0  0  0  0  0  0  0  0
    3.3990   -3.8050   27.0630 C   0  0  0  0  0  0  0  0  0  0  0  0
    6.0360   -5.0350   23.5260 C   0  0  0  0  0  0  0  0  0  0  0  0
    6.6140   -5.4060   22.3280 C   0  0  0  0  0  0  0  0  0  0  0  0
  1  2  1  0
  2  3  2  0
  2  4  1  0
  4  5  1  0
  5  6  1  0
  6  7  1  0
  7  8  1  0
  8  9  2  0
  8 10  1  0
 10 11  1  0
 11 12  1  0
 12 13  1  0
 10 14  1  0
 13 14  1  0
 14 15  1  1
 14 16  1  0
 16 17  2  0
 17 18  1  0
 18 19  2  0
 19 20  1  0
 20 21  1  0
 20 22  1  0
 20 23  1  0
 19 24  1  0
 16 25  1  0
 24 25  2  0
  7 26  1  0
  4 27  1  0
 26 27  1  0
M  END
