piperidine-amides-2767-covalent
     RDKit          3D

 24 25  0  0  0  0  0  0  0  0999 V2000
    7.0980   -3.3000   19.1590 C   0  0  0  0  0  0  0  0  0  0  0  0
    6.3330   -4.0280   20.1700 C   0  0  0  0  0  0  0  0  0  0  0  0
    5.2600   -4.5440   19.8730 O   0  0  0  0  0  0  0  0  0  0  0  0
    6.8560   -4.1970   21.4940 N   0  0  0  0  0  0  0  0  0  0  0  0
    7.7060   -3.1890   22.0720 C   0  0  0  0  0  0  0  0  0  0  0  0
    7.0050   -2.5080   23.2020 C   0  0  0  0  0  0  0  0  0  0  0  0
    6.5290   -3.5790   24.1600 C   0  0  0  0  0  0  0  0  0  0  0  0
    5.7580   -2.9160   25.2440 C   0  0  0  0  0  0  0  0  0  0  0  0
    4.5680   -3.1990   25.4960 O   0  0  0  0  0  0  0  0  0  0  0  0
    6.4130   -1.9010   25.9920 N   0  0  0  0  0  0  0  0  0  0  0  0
    7.3700   -2.2570   27.0130 C   0  0  0  0  0  0  0  0  0  0  0  0
    7.5950   -3.7180   26.9310 C   0  0  0  0  0  0  0  0  0  0  0  0
    8.2070   -4.2410   25.8350 C   0  0  0  0  0  0  0  0  0  0  0  0
    8.9610   -5.3760   25.9690 C   0  0  0  0  0  0  0  0  0  0  0  0
    8.9630   -5.9810   27.1920 C   0  0  0  0  0  0  0  0  0  0  0  0
    7.9650   -5.7230   28.2360 C   0  0  0  0  0  0  0  0  0  0  0  0
    6.6010   -5.4630   28.2710 C   0  0  0  0  0  0  0  0  0  0  0  0
    6.0130   -4.3600   28.8710 C   0  0  0  0  0  0  0  0  0  0  0  0
    4.6570   -4.1020   28.9170 C   0  0  0  0  0  0  0  0  0  0  0  0
    3.7880   -5.0730   28.2790 C   0  0  0  0  0  0  0  0  0  0  0  0
    4.3000   -6.1930   27.6630 C   0  0  0  0  0  0  0  0  0  0  0  0
    5.6910   -6.3570   27.6750 C   0  0  0  0  0  0  0  0  0  0  0  0
    5.6460   -4.5960   23.4700 C   0  0  0  0  0  0  0  0  0  0  0  0
    6.4140   -5.2810   22.3280 C   0  0  0  0  0  0  0  0  0  0  0  0
  1  2  1  0
  2  3  2  0
  2  4  1  0
  4  5  1  0
  5  6  1  0
  6  7  1  0
  7  8  1  0
  8  9  2  0
  8 10  1  0
 10 11  1  0
 11 12  1  0
 12 13  1  0
 13 14  1  0
 14 15  1  0
 15 16  1  0
 16 17  1  0
 17 18  2  0
 18 19  1  0
 19 20  2  0
 20 21  1  0
 17 22  1  0
 21 22  2  0
  7 23  1  0
  4 24  1  0
 23 24  1  0
M  END
