piperidine-amides-24771-covalent
     RDKit          3D

 24 25  0  0  0  0  0  0  0  0999 V2000
    7.0770   -3.3230   19.3690 C   0  0  0  0  0  0  0  0  0  0  0  0
    6.3510   -4.1420   20.3490 C   0  0  0  0  0  0  0  0  0  0  0  0
    5.3480   -4.7900   19.9720 O   0  0  0  0  0  0  0  0  0  0  0  0
    6.7860   -4.2540   21.6880 N   0  0  0  0  0  0  0  0  0  0  0  0
    6.5620   -5.5230   22.3520 C   0  0  0  0  0  0  0  0  0  0  0  0
    6.2660   -5.2390   23.8370 C   0  0  0  0  0  0  0  0  0  0  0  0
    6.0630   -3.7470   23.9780 C   0  0  0  0  0  0  0  0  0  0  0  0
    5.5290   -3.4030   25.3340 C   0  0  0  0  0  0  0  0  0  0  0  0
    4.2910   -3.4800   25.4600 O   0  0  0  0  0  0  0  0  0  0  0  0
    6.3280   -2.9950   26.4460 N   0  0  0  0  0  0  0  0  0  0  0  0
    6.5190   -1.5780   26.6760 C   0  0  0  0  0  0  0  0  0  0  0  0
    6.2090   -0.7580   25.4300 C   0  0  0  0  0  0  0  0  0  0  0  0
    5.2680   -1.2700   24.6070 F   0  0  0  0  0  0  0  0  0  0  0  0
    5.7650    0.5010   25.9100 F   0  0  0  0  0  0  0  0  0  0  0  0
    6.2760   -3.8350   27.6640 C   0  0  2  0  0  0  0  0  0  0  0  0
    5.8420   -5.1080   27.3580 C   0  0  0  0  0  0  0  0  0  0  0  0
    5.5350   -3.1290   28.5610 C   0  0  0  0  0  0  0  0  0  0  0  0
    4.2470   -3.3370   28.7920 C   0  0  0  0  0  0  0  0  0  0  0  0
    3.3600   -2.6160   29.7630 C   0  0  0  0  0  0  0  0  0  0  0  0
    4.3930   -1.6110   30.3610 C   0  0  0  0  0  0  0  0  0  0  0  0
    5.8870   -1.2390   30.2130 C   0  0  0  0  0  0  0  0  0  0  0  0
    6.2670   -2.1990   29.1900 C   0  0  0  0  0  0  0  0  0  0  0  0
    7.3520   -3.0700   23.6220 C   0  0  0  0  0  0  0  0  0  0  0  0
    7.5960   -3.2230   22.2790 C   0  0  0  0  0  0  0  0  0  0  0  0
  1  2  1  0
  2  3  2  0
  2  4  1  0
  4  5  1  0
  5  6  1  0
  6  7  1  0
  7  8  1  0
  8  9  2  0
  8 10  1  0
 10 11  1  0
 11 12  1  0
 12 13  1  0
 12 14  1  0
 10 15  1  0
 15 16  1  6
 15 17  1  0
 17 18  2  0
 18 19  1  0
 19 20  2  0
 20 21  1  0
 17 22  1  0
 21 22  2  0
  7 23  1  0
  4 24  1  0
 23 24  1  0
M  END
