piperidine-amides-7111-covalent
     RDKit          3D

 21 23  0  0  0  0  0  0  0  0999 V2000
    7.1190   -3.2940   19.2610 C   0  0  0  0  0  0  0  0  0  0  0  0
    6.3430   -4.0440   20.2560 C   0  0  0  0  0  0  0  0  0  0  0  0
    5.2880   -4.6200   19.9150 O   0  0  0  0  0  0  0  0  0  0  0  0
    6.8030   -4.1670   21.5740 N   0  0  0  0  0  0  0  0  0  0  0  0
    6.5620   -5.4050   22.2930 C   0  0  0  0  0  0  0  0  0  0  0  0
    6.0980   -5.0770   23.7290 C   0  0  0  0  0  0  0  0  0  0  0  0
    6.0300   -3.5700   23.8710 C   0  0  0  0  0  0  0  0  0  0  0  0
    5.6160   -3.1940   25.2350 C   0  0  0  0  0  0  0  0  0  0  0  0
    4.3980   -3.0130   25.4470 O   0  0  0  0  0  0  0  0  0  0  0  0
    6.5780   -3.0330   26.2520 N   0  0  0  0  0  0  0  0  0  0  0  0
    6.2390   -3.3110   27.6240 C   0  0  0  0  0  0  0  0  0  0  0  0
    5.7050   -4.7250   27.7560 C   0  0  0  0  0  0  0  0  0  0  0  0
    4.6600   -4.9080   28.6250 C   0  0  2  0  0  0  0  0  0  0  0  0
    4.9030   -5.4030   29.8450 C   0  0  0  0  0  0  0  0  0  0  0  0
    4.3120   -6.6360   29.7610 C   0  0  2  0  0  0  0  0  0  0  0  0
    4.8630   -7.3750   28.7950 C   0  0  0  0  0  0  0  0  0  0  0  0
    4.4080   -7.0770   27.3480 C   0  0  0  0  0  0  0  0  0  0  0  0
    3.8190   -5.9080   28.1850 C   0  0  1  0  0  0  0  0  0  0  0  0
    3.1690   -6.5140   29.0910 O   0  0  0  0  0  0  0  0  0  0  0  0
    7.2880   -2.8900   23.5320 C   0  0  0  0  0  0  0  0  0  0  0  0
    7.6400   -3.1690   22.1560 C   0  0  0  0  0  0  0  0  0  0  0  0
  1  2  1  0
  2  3  2  0
  2  4  1  0
  4  5  1  0
  5  6  1  0
  6  7  1  0
  7  8  1  0
  8  9  2  0
  8 10  1  0
 10 11  1  0
 11 12  1  0
 13 12  1  6
 13 14  1  0
 15 14  1  6
 15 16  1  0
 16 17  1  0
 13 18  1  0
 18 17  1  1
 15 19  1  0
 18 19  1  0
  7 20  1  0
  4 21  1  0
 20 21  1  0
M  END
