piperidine-amides-10082-covalent
     RDKit          3D

 26 28  0  0  0  0  0  0  0  0999 V2000
    6.9980   -3.3260   19.3180 C   0  0  0  0  0  0  0  0  0  0  0  0
    6.3420   -4.1560   20.3340 C   0  0  0  0  0  0  0  0  0  0  0  0
    5.3280   -4.7960   19.9610 O   0  0  0  0  0  0  0  0  0  0  0  0
    6.8610   -4.2550   21.6330 N   0  0  0  0  0  0  0  0  0  0  0  0
    7.8000   -3.2760   22.1420 C   0  0  0  0  0  0  0  0  0  0  0  0
    7.5580   -3.1100   23.6120 C   0  0  0  0  0  0  0  0  0  0  0  0
    6.2000   -3.6230   23.9970 C   0  0  0  0  0  0  0  0  0  0  0  0
    5.9240   -3.3520   25.4220 C   0  0  0  0  0  0  0  0  0  0  0  0
    4.7720   -3.5950   25.8460 O   0  0  0  0  0  0  0  0  0  0  0  0
    6.8940   -2.8350   26.3110 N   0  0  0  0  0  0  0  0  0  0  0  0
    6.6660   -1.6250   27.0740 C   0  0  0  0  0  0  0  0  0  0  0  0
    7.4070   -1.6640   28.4040 C   0  0  0  0  0  0  0  0  0  0  0  0
    7.3450   -0.6400   29.3040 C   0  0  0  0  0  0  0  0  0  0  0  0
    6.5950    0.4710   29.0090 C   0  0  0  0  0  0  0  0  0  0  0  0
    6.4410    1.5820   29.8210 C   0  0  0  0  0  0  0  0  0  0  0  0
    5.8540    0.5370   27.6980 C   0  0  0  0  0  0  0  0  0  0  0  0
    5.9120   -0.5000   26.7900 C   0  0  0  0  0  0  0  0  0  0  0  0
    5.2010   -0.3980   25.5990 O   0  0  0  0  0  0  0  0  0  0  0  0
    4.0060   -0.4460   25.0250 C   0  0  0  0  0  0  0  0  0  0  0  0
    2.7950   -0.8740   25.8780 C   0  0  1  0  0  0  0  0  0  0  0  0
    3.2080   -1.2790   27.2720 C   0  0  0  0  0  0  0  0  0  0  0  0
    1.9740   -1.3870   28.0760 C   0  0  0  0  0  0  0  0  0  0  0  0
    1.0380   -0.9290   27.2100 C   0  0  0  0  0  0  0  0  0  0  0  0
    1.7580   -0.3900   26.0980 O   0  0  0  0  0  0  0  0  0  0  0  0
    6.1350   -5.1230   23.7290 C   0  0  0  0  0  0  0  0  0  0  0  0
    6.7720   -5.4880   22.3890 C   0  0  0  0  0  0  0  0  0  0  0  0
  1  2  1  0
  2  3  2  0
  2  4  1  0
  4  5  1  0
  5  6  1  0
  6  7  1  0
  7  8  1  0
  8  9  2  0
  8 10  1  0
 10 11  1  0
 11 12  2  0
 12 13  1  0
 13 14  2  0
 14 15  1  0
 14 16  1  0
 11 17  1  0
 16 17  2  0
 17 18  1  0
 18 19  1  0
 20 19  1  1
 20 21  1  0
 21 22  1  0
 22 23  1  0
 20 24  1  0
 23 24  1  0
  7 25  1  0
  4 26  1  0
 25 26  1  0
M  END
