piperidine-amides-23559-covalent
     RDKit          3D

 24 26  0  0  0  0  0  0  0  0999 V2000
    7.0980   -3.3810   19.4170 C   0  0  0  0  0  0  0  0  0  0  0  0
    6.3930   -4.2410   20.3730 C   0  0  0  0  0  0  0  0  0  0  0  0
    5.3300   -4.7680   19.9640 O   0  0  0  0  0  0  0  0  0  0  0  0
    6.9220   -4.5200   21.6670 N   0  0  0  0  0  0  0  0  0  0  0  0
    6.3470   -5.5650   22.4170 C   0  0  0  0  0  0  0  0  0  0  0  0
    5.6710   -5.0830   23.6170 C   0  0  0  0  0  0  0  0  0  0  0  0
    5.5080   -3.5970   23.7180 C   0  0  0  0  0  0  0  0  0  0  0  0
    4.9120   -3.1010   25.0260 C   0  0  0  0  0  0  0  0  0  0  0  0
    4.1730   -2.1120   24.9920 O   0  0  0  0  0  0  0  0  0  0  0  0
    5.1460   -3.6640   26.2970 N   0  0  0  0  0  0  0  0  0  0  0  0
    4.8390   -3.0520   27.5460 C   0  0  0  0  0  0  0  0  0  0  0  0
    4.8930   -3.7780   28.8340 C   0  0  0  0  0  0  0  0  0  0  0  0
    5.9170   -4.9220   28.7730 C   0  0  0  0  0  0  0  0  0  0  0  0
    6.5370   -4.9660   27.5860 C   0  0  0  0  0  0  0  0  0  0  0  0
    7.6670   -5.8030   28.0300 C   0  0  0  0  0  0  0  0  0  0  0  0
    8.5640   -5.9640   26.8630 C   0  0  0  0  0  0  0  0  0  0  0  0
    9.6700   -6.4730   26.7340 N   0  0  0  0  0  0  0  0  0  0  0  0
   10.0910   -6.0030   27.9590 O   0  0  0  0  0  0  0  0  0  0  0  0
    9.9120   -7.6930   26.4590 O   0  0  0  0  0  0  0  0  0  0  0  0
    8.2010   -5.3690   25.5150 C   0  0  0  0  0  0  0  0  0  0  0  0
    7.0480   -4.5850   25.2030 C   0  0  0  0  0  0  0  0  0  0  0  0
    6.2550   -4.4330   26.4160 C   0  0  0  0  0  0  0  0  0  0  0  0
    6.7670   -2.7570   23.3820 C   0  0  0  0  0  0  0  0  0  0  0  0
    7.6280   -3.4320   22.3580 C   0  0  0  0  0  0  0  0  0  0  0  0
  1  2  1  0
  2  3  2  0
  2  4  1  0
  4  5  1  0
  5  6  1  0
  6  7  1  0
  7  8  1  0
  8  9  2  0
  8 10  1  0
 10 11  1  0
 11 12  1  0
 12 13  1  0
 13 14  1  0
 14 15  2  0
 15 16  1  0
 16 17  1  0
 17 18  2  0
 17 19  1  0
 16 20  2  0
 20 21  1  0
 10 22  1  0
 14 22  1  0
 21 22  2  0
  7 23  1  0
  4 24  1  0
 23 24  1  0
M  CHG  2  17   1  19  -1
M  END
