piperidine-amides-4903-covalent
     RDKit          3D

 23 24  0  0  0  0  0  0  0  0999 V2000
    7.0640   -3.2850   19.2290 C   0  0  0  0  0  0  0  0  0  0  0  0
    6.3460   -4.0490   20.2810 C   0  0  0  0  0  0  0  0  0  0  0  0
    5.2950   -4.6090   19.9100 O   0  0  0  0  0  0  0  0  0  0  0  0
    6.8320   -4.1780   21.6000 N   0  0  0  0  0  0  0  0  0  0  0  0
    7.6490   -3.1610   22.1770 C   0  0  0  0  0  0  0  0  0  0  0  0
    7.3260   -2.9370   23.5770 C   0  0  0  0  0  0  0  0  0  0  0  0
    6.0680   -3.6090   23.9670 C   0  0  0  0  0  0  0  0  0  0  0  0
    5.6420   -3.2700   25.3600 C   0  0  0  0  0  0  0  0  0  0  0  0
    4.5820   -2.6280   25.4780 O   0  0  0  0  0  0  0  0  0  0  0  0
    6.3660   -3.6370   26.5160 N   0  0  0  0  0  0  0  0  0  0  0  0
    5.7610   -4.3570   27.6770 C   0  0  2  0  0  0  0  0  0  0  0  0
    6.7530   -5.0070   28.5840 C   0  0  0  0  0  0  0  0  0  0  0  0
    4.7760   -5.3830   27.2480 C   0  0  0  0  0  0  0  0  0  0  0  0
    4.9840   -6.0910   26.0990 C   0  0  0  0  0  0  0  0  0  0  0  0
    4.1680   -7.0680   25.5780 C   0  0  0  0  0  0  0  0  0  0  0  0
    3.0360   -7.3830   26.2570 C   0  0  0  0  0  0  0  0  0  0  0  0
    2.7610   -6.7120   27.4200 C   0  0  0  0  0  0  0  0  0  0  0  0
    3.6080   -5.7430   27.8940 C   0  0  0  0  0  0  0  0  0  0  0  0
    3.0400   -5.2310   29.1230 N   0  0  0  0  0  0  0  0  0  0  0  0
    2.7200   -3.9760   29.2010 O   0  0  0  0  0  0  0  0  0  0  0  0
    2.3260   -6.0640   30.0020 O   0  0  0  0  0  0  0  0  0  0  0  0
    6.1270   -5.0970   23.7110 C   0  0  0  0  0  0  0  0  0  0  0  0
    6.6850   -5.4070   22.3560 C   0  0  0  0  0  0  0  0  0  0  0  0
  1  2  1  0
  2  3  2  0
  2  4  1  0
  4  5  1  0
  5  6  1  0
  6  7  1  0
  7  8  1  0
  8  9  2  0
  8 10  1  0
 10 11  1  0
 11 12  1  6
 11 13  1  0
 13 14  2  0
 14 15  1  0
 15 16  2  0
 16 17  1  0
 13 18  1  0
 17 18  2  0
 18 19  1  0
 19 20  2  0
 19 21  1  0
  7 22  1  0
  4 23  1  0
 22 23  1  0
M  CHG  2  19   1  21  -1
M  END
