piperidine-amides-9991-covalent
     RDKit          3D

 26 27  0  0  0  0  0  0  0  0999 V2000
    7.1210   -3.3310   19.2620 C   0  0  0  0  0  0  0  0  0  0  0  0
    6.3890   -4.1050   20.2650 C   0  0  0  0  0  0  0  0  0  0  0  0
    5.2960   -4.6090   19.9050 O   0  0  0  0  0  0  0  0  0  0  0  0
    6.9410   -4.2960   21.5280 N   0  0  0  0  0  0  0  0  0  0  0  0
    7.7630   -3.2750   22.1340 C   0  0  0  0  0  0  0  0  0  0  0  0
    6.9600   -2.6490   23.2220 C   0  0  0  0  0  0  0  0  0  0  0  0
    6.5080   -3.7010   24.1840 C   0  0  0  0  0  0  0  0  0  0  0  0
    5.7200   -3.0960   25.2720 C   0  0  0  0  0  0  0  0  0  0  0  0
    4.5080   -2.8600   25.0690 O   0  0  0  0  0  0  0  0  0  0  0  0
    6.2800   -2.7840   26.5200 N   0  0  0  0  0  0  0  0  0  0  0  0
    6.2990   -1.4420   27.0620 C   0  0  0  0  0  0  0  0  0  0  0  0
    5.9560   -0.2550   26.1830 C   0  0  0  0  0  0  0  0  0  0  0  0
    5.9740    1.0100   26.7160 C   0  0  0  0  0  0  0  0  0  0  0  0
    6.3100    1.1610   28.0440 C   0  0  0  0  0  0  0  0  0  0  0  0
    6.6310    0.1230   28.8900 C   0  0  0  0  0  0  0  0  0  0  0  0
    6.6140   -1.1540   28.3800 C   0  0  0  0  0  0  0  0  0  0  0  0
    6.9020   -2.1890   29.1720 C   0  0  0  0  0  0  0  0  0  0  0  0
    5.9810   -3.3610   29.0100 C   0  0  0  0  0  0  0  0  0  0  0  0
    4.6890   -3.3220   29.4800 O   0  0  0  0  0  0  0  0  0  0  0  0
    6.3600   -4.5010   28.4120 O   0  0  0  0  0  0  0  0  0  0  0  0
    5.5550   -5.6860   28.3860 C   0  0  0  0  0  0  0  0  0  0  0  0
    4.2030   -5.6130   29.0610 C   0  0  0  0  0  0  0  0  0  0  0  0
    6.3710   -6.7490   29.2000 C   0  0  0  0  0  0  0  0  0  0  0  0
    5.5210   -6.2060   26.9740 C   0  0  0  0  0  0  0  0  0  0  0  0
    5.7000   -4.7690   23.4580 C   0  0  0  0  0  0  0  0  0  0  0  0
    6.5560   -5.4070   22.3720 C   0  0  0  0  0  0  0  0  0  0  0  0
  1  2  1  0
  2  3  2  0
  2  4  1  0
  4  5  1  0
  5  6  1  0
  6  7  1  0
  7  8  1  0
  8  9  2  0
  8 10  1  0
 10 11  1  0
 11 12  2  0
 12 13  1  0
 13 14  2  0
 14 15  1  0
 11 16  1  0
 15 16  2  0
 16 17  1  0
 17 18  1  0
 18 19  2  0
 18 20  1  0
 21 20  1  0
 21 22  1  0
 21 23  1  0
 21 24  1  0
  7 25  1  0
  4 26  1  0
 25 26  1  0
M  END
