piperidine-amides-4940-covalent
     RDKit          3D

 23 24  0  0  0  0  0  0  0  0999 V2000
    7.1750   -3.2710   19.1140 C   0  0  0  0  0  0  0  0  0  0  0  0
    6.3430   -3.9490   20.1250 C   0  0  0  0  0  0  0  0  0  0  0  0
    5.2120   -4.3310   19.7830 O   0  0  0  0  0  0  0  0  0  0  0  0
    6.8580   -4.2130   21.3880 N   0  0  0  0  0  0  0  0  0  0  0  0
    7.6280   -3.2180   22.0650 C   0  0  0  0  0  0  0  0  0  0  0  0
    7.1610   -2.8790   23.4020 C   0  0  0  0  0  0  0  0  0  0  0  0
    6.4140   -3.9470   24.0960 C   0  0  0  0  0  0  0  0  0  0  0  0
    5.6290   -3.3540   25.1820 C   0  0  0  0  0  0  0  0  0  0  0  0
    4.4650   -2.9690   24.9610 O   0  0  0  0  0  0  0  0  0  0  0  0
    6.1940   -3.2350   26.4410 N   0  0  0  0  0  0  0  0  0  0  0  0
    6.0220   -4.2890   27.4420 C   0  0  0  0  0  0  0  0  0  0  0  0
    6.6090   -3.8540   28.7140 C   0  0  0  0  0  0  0  0  0  0  0  0
    6.7860   -2.4030   28.9000 C   0  0  0  0  0  0  0  0  0  0  0  0
    5.6960   -1.8310   29.6660 N   0  0  0  0  0  0  0  0  0  0  0  0
    4.2980   -2.0370   29.8510 C   0  0  0  0  0  0  0  0  0  0  0  0
    3.7930   -1.1300   30.7480 C   0  0  0  0  0  0  0  0  0  0  0  0
    4.7650   -0.2390   31.2520 N   0  0  0  0  0  0  0  0  0  0  0  0
    5.9130   -0.7740   30.5010 C   0  0  0  0  0  0  0  0  0  0  0  0
    7.1510   -0.2140   30.6500 C   0  0  0  0  0  0  0  0  0  0  0  0
    7.1560    0.8140   31.5480 C   0  0  0  0  0  0  0  0  0  0  0  0
    7.0630    0.3890   32.8750 C   0  0  0  0  0  0  0  0  0  0  0  0
    5.6060   -4.8630   23.2700 C   0  0  0  0  0  0  0  0  0  0  0  0
    6.4480   -5.3800   22.1460 C   0  0  0  0  0  0  0  0  0  0  0  0
  1  2  1  0
  2  3  2  0
  2  4  1  0
  4  5  1  0
  5  6  1  0
  6  7  1  0
  7  8  1  0
  8  9  2  0
  8 10  1  0
 10 11  1  0
 11 12  1  0
 12 13  1  0
 13 14  1  0
 14 15  1  0
 15 16  2  0
 16 17  1  0
 14 18  1  0
 17 18  2  0
 18 19  1  0
 19 20  1  0
 20 21  1  0
  7 22  1  0
  4 23  1  0
 22 23  1  0
M  END
