piperidine-amides-32498-covalent
     RDKit          3D

 28 30  0  0  0  0  0  0  0  0999 V2000
    7.0180   -3.3890   19.4870 C   0  0  0  0  0  0  0  0  0  0  0  0
    6.3230   -4.2780   20.4610 C   0  0  0  0  0  0  0  0  0  0  0  0
    5.4040   -4.9900   20.0180 O   0  0  0  0  0  0  0  0  0  0  0  0
    6.7370   -4.3350   21.8250 N   0  0  0  0  0  0  0  0  0  0  0  0
    6.6330   -5.5900   22.5520 C   0  0  0  0  0  0  0  0  0  0  0  0
    6.2650   -5.3390   24.0330 C   0  0  0  0  0  0  0  0  0  0  0  0
    6.0700   -3.8740   24.2410 C   0  0  0  0  0  0  0  0  0  0  0  0
    5.2360   -3.4770   25.4520 C   0  0  0  0  0  0  0  0  0  0  0  0
    4.0690   -3.2620   25.1320 O   0  0  0  0  0  0  0  0  0  0  0  0
    5.5930   -3.3220   26.8360 N   0  0  0  0  0  0  0  0  0  0  0  0
    4.8070   -2.6390   27.7950 C   0  0  0  0  0  0  0  0  0  0  0  0
    3.9090   -3.2920   28.6330 C   0  0  0  0  0  0  0  0  0  0  0  0
    4.6200   -4.1700   29.5410 N   0  0  0  0  0  0  0  0  0  0  0  0
    4.0070   -4.9850   30.5350 C   0  0  0  0  0  0  0  0  0  0  0  0
    4.7570   -6.1130   30.4500 C   0  0  0  0  0  0  0  0  0  0  0  0
    4.7970   -6.7080   29.1840 C   0  0  0  0  0  0  0  0  0  0  0  0
    5.5780   -7.9020   28.8290 C   0  0  0  0  0  0  0  0  0  0  0  0
    6.5440   -8.6880   29.8360 C   0  0  0  0  0  0  0  0  0  0  0  0
    7.5350  -10.0130   29.7980 C   0  0  0  0  0  0  0  0  0  0  0  0
    7.4570  -11.0540   30.6810 F   0  0  0  0  0  0  0  0  0  0  0  0
    8.8620  -10.1600   29.6540 F   0  0  0  0  0  0  0  0  0  0  0  0
    7.7340  -10.7980   28.7890 F   0  0  0  0  0  0  0  0  0  0  0  0
    6.3490   -8.0110   31.1850 C   0  0  0  0  0  0  0  0  0  0  0  0
    5.4770   -6.7540   31.4110 C   0  0  0  0  0  0  0  0  0  0  0  0
    5.8720   -4.3440   29.0810 C   0  0  0  0  0  0  0  0  0  0  0  0
    6.3140   -4.2840   27.6190 C   0  0  0  0  0  0  0  0  0  0  0  0
    7.2770   -3.0560   23.9110 C   0  0  0  0  0  0  0  0  0  0  0  0
    7.5640   -3.2730   22.4090 C   0  0  0  0  0  0  0  0  0  0  0  0
  1  2  1  0
  2  3  2  0
  2  4  1  0
  4  5  1  0
  5  6  1  0
  6  7  1  0
  7  8  1  0
  8  9  2  0
  8 10  1  0
 10 11  1  0
 11 12  1  0
 12 13  1  0
 13 14  1  0
 14 15  1  0
 15 16  2  0
 16 17  1  0
 17 18  2  0
 18 19  1  0
 19 20  1  0
 19 21  1  0
 19 22  1  0
 18 23  1  0
 15 24  1  0
 23 24  2  0
 13 25  1  0
 10 26  1  0
 25 26  1  0
  7 27  1  0
  4 28  1  0
 27 28  1  0
M  END
