piperidine-amides-27188-covalent
     RDKit          3D

 24 26  0  0  0  0  0  0  0  0999 V2000
    7.0150   -3.3510   19.3870 C   0  0  0  0  0  0  0  0  0  0  0  0
    6.3800   -4.2060   20.3980 C   0  0  0  0  0  0  0  0  0  0  0  0
    5.3980   -4.8860   19.9930 O   0  0  0  0  0  0  0  0  0  0  0  0
    6.8690   -4.2840   21.7130 N   0  0  0  0  0  0  0  0  0  0  0  0
    6.7190   -5.5150   22.4650 C   0  0  0  0  0  0  0  0  0  0  0  0
    6.0960   -5.1870   23.7940 C   0  0  0  0  0  0  0  0  0  0  0  0
    5.9910   -3.7010   23.9610 C   0  0  0  0  0  0  0  0  0  0  0  0
    5.4810   -3.3180   25.3130 C   0  0  0  0  0  0  0  0  0  0  0  0
    4.2410   -3.2410   25.4190 O   0  0  0  0  0  0  0  0  0  0  0  0
    6.2460   -3.0110   26.4670 N   0  0  0  0  0  0  0  0  0  0  0  0
    6.1420   -3.8670   27.6400 C   0  0  0  0  0  0  0  0  0  0  0  0
    4.7110   -3.9920   28.1730 C   0  0  0  0  0  0  0  0  0  0  0  0
    4.0370   -2.9740   28.8480 C   0  0  0  0  0  0  0  0  0  0  0  0
    4.6460   -1.7800   29.0760 F   0  0  0  0  0  0  0  0  0  0  0  0
    2.7600   -3.1530   29.2960 C   0  0  0  0  0  0  0  0  0  0  0  0
    2.1280   -4.3370   29.0870 C   0  0  0  0  0  0  0  0  0  0  0  0
    2.7260   -5.3780   28.4360 C   0  0  0  0  0  0  0  0  0  0  0  0
    4.0270   -5.2060   27.9750 C   0  0  0  0  0  0  0  0  0  0  0  0
    4.7710   -6.5560   27.1420 Cl  0  0  0  0  0  0  0  0  0  0  0  0
    6.7290   -1.6790   26.5790 C   0  0  0  0  0  0  0  0  0  0  0  0
    5.8930   -0.6690   26.8840 C   0  0  0  0  0  0  0  0  0  0  0  0
    6.9250   -1.2230   27.9580 C   0  0  0  0  0  0  0  0  0  0  0  0
    7.2990   -3.0400   23.6460 C   0  0  0  0  0  0  0  0  0  0  0  0
    7.6810   -3.2090   22.3250 C   0  0  0  0  0  0  0  0  0  0  0  0
  1  2  1  0
  2  3  2  0
  2  4  1  0
  4  5  1  0
  5  6  1  0
  6  7  1  0
  7  8  1  0
  8  9  2  0
  8 10  1  0
 10 11  1  0
 11 12  1  0
 12 13  2  0
 13 14  1  0
 13 15  1  0
 15 16  2  0
 16 17  1  0
 12 18  1  0
 17 18  2  0
 18 19  1  0
 10 20  1  0
 20 21  1  0
 20 22  1  0
 21 22  1  0
  7 23  1  0
  4 24  1  0
 23 24  1  0
M  END
