piperidine-amides-31099-covalent
     RDKit          3D

 23 25  0  0  0  0  0  0  0  0999 V2000
    7.0550   -3.3910   19.4250 C   0  0  0  0  0  0  0  0  0  0  0  0
    6.3550   -4.2330   20.3980 C   0  0  0  0  0  0  0  0  0  0  0  0
    5.3800   -4.8930   20.0000 O   0  0  0  0  0  0  0  0  0  0  0  0
    6.7860   -4.3550   21.7390 N   0  0  0  0  0  0  0  0  0  0  0  0
    6.7040   -5.6190   22.4600 C   0  0  0  0  0  0  0  0  0  0  0  0
    6.1270   -5.3070   23.8210 C   0  0  0  0  0  0  0  0  0  0  0  0
    5.9140   -3.8410   23.9740 C   0  0  0  0  0  0  0  0  0  0  0  0
    5.2210   -3.4110   25.2320 C   0  0  0  0  0  0  0  0  0  0  0  0
    4.2670   -2.5980   25.1400 O   0  0  0  0  0  0  0  0  0  0  0  0
    5.5160   -3.8260   26.5540 N   0  0  0  0  0  0  0  0  0  0  0  0
    4.4790   -4.4420   27.4180 C   0  0  0  0  0  0  0  0  0  0  0  0
    4.7680   -4.1900   28.8520 C   0  0  0  0  0  0  0  0  0  0  0  0
    5.3390   -2.8710   29.0920 C   0  0  0  0  0  0  0  0  0  0  0  0
    4.8340   -2.0290   30.2330 C   0  0  0  0  0  0  0  0  0  0  0  0
    5.4370   -0.6540   30.4830 C   0  0  0  0  0  0  0  0  0  0  0  0
    4.8790    0.4990   31.9120 Br  0  0  0  0  0  0  0  0  0  0  0  0
    6.5030   -0.3130   29.4950 C   0  0  0  0  0  0  0  0  0  0  0  0
    7.0720    0.9410   29.6990 F   0  0  0  0  0  0  0  0  0  0  0  0
    6.8630   -1.1720   28.4900 C   0  0  0  0  0  0  0  0  0  0  0  0
    6.2870   -2.4220   28.2990 C   0  0  0  0  0  0  0  0  0  0  0  0
    6.6050   -3.3770   27.2510 C   0  0  0  0  0  0  0  0  0  0  0  0
    7.1560   -3.0260   23.7240 C   0  0  0  0  0  0  0  0  0  0  0  0
    7.6390   -3.3240   22.3210 C   0  0  0  0  0  0  0  0  0  0  0  0
  1  2  1  0
  2  3  2  0
  2  4  1  0
  4  5  1  0
  5  6  1  0
  6  7  1  0
  7  8  1  0
  8  9  2  0
  8 10  1  0
 10 11  1  0
 11 12  1  0
 12 13  1  0
 13 14  2  0
 14 15  1  0
 15 16  1  0
 15 17  2  0
 17 18  1  0
 17 19  1  0
 13 20  1  0
 19 20  2  0
 10 21  1  0
 20 21  1  0
  7 22  1  0
  4 23  1  0
 22 23  1  0
M  END
