piperidine-amides-29935-covalent
     RDKit          3D

 27 29  0  0  0  0  0  0  0  0999 V2000
    7.0870   -3.3650   19.2970 C   0  0  0  0  0  0  0  0  0  0  0  0
    6.3770   -4.1620   20.2830 C   0  0  0  0  0  0  0  0  0  0  0  0
    5.3520   -4.7620   19.9630 O   0  0  0  0  0  0  0  0  0  0  0  0
    6.9100   -4.2930   21.6080 N   0  0  0  0  0  0  0  0  0  0  0  0
    7.7420   -3.2370   22.1620 C   0  0  0  0  0  0  0  0  0  0  0  0
    7.4470   -3.0360   23.6200 C   0  0  0  0  0  0  0  0  0  0  0  0
    6.0820   -3.6460   23.8380 C   0  0  0  0  0  0  0  0  0  0  0  0
    5.4860   -3.2870   25.1560 C   0  0  0  0  0  0  0  0  0  0  0  0
    4.3400   -2.8080   25.2370 O   0  0  0  0  0  0  0  0  0  0  0  0
    6.2030   -3.4870   26.3520 N   0  0  0  0  0  0  0  0  0  0  0  0
    5.9440   -2.5210   27.4020 C   0  0  0  0  0  0  0  0  0  0  0  0
    5.6380   -3.2880   28.6560 C   0  0  0  0  0  0  0  0  0  0  0  0
    6.1560   -4.5560   28.7470 C   0  0  0  0  0  0  0  0  0  0  0  0
    6.0200   -5.4220   27.6600 C   0  0  1  0  0  0  0  0  0  0  0  0
    4.7600   -6.0340   27.5960 C   0  0  0  0  0  0  0  0  0  0  0  0
    4.1720   -6.3010   28.8890 N   0  0  0  0  0  0  0  0  0  0  0  0
    3.3120   -7.4380   29.0110 C   0  0  0  0  0  0  0  0  0  0  0  0
    5.0080   -5.7780   29.9360 C   0  0  0  0  0  0  0  0  0  0  0  0
    6.1720   -5.5230   29.2580 C   0  0  0  0  0  0  0  0  0  0  0  0
    6.9040   -6.5380   28.7100 C   0  0  0  0  0  0  0  0  0  0  0  0
    8.1060   -6.2480   27.9550 C   0  0  0  0  0  0  0  0  0  0  0  0
    8.5940   -5.0220   27.7440 C   0  0  0  0  0  0  0  0  0  0  0  0
    7.9340   -3.8630   28.2770 N   0  0  0  0  0  0  0  0  0  0  0  0
    6.7480   -4.1610   29.0120 C   0  0  0  0  0  0  0  0  0  0  0  0
    6.5730   -4.8560   26.5180 C   0  0  0  0  0  0  0  0  0  0  0  0
    6.0600   -5.1310   23.6780 C   0  0  0  0  0  0  0  0  0  0  0  0
    6.6790   -5.5020   22.3490 C   0  0  0  0  0  0  0  0  0  0  0  0
  1  2  1  0
  2  3  2  0
  2  4  1  0
  4  5  1  0
  5  6  1  0
  6  7  1  0
  7  8  1  0
  8  9  2  0
  8 10  1  0
 10 11  1  0
 11 12  1  0
 12 13  1  0
 13 14  1  0
 14 15  1  6
 15 16  1  0
 16 17  1  0
 16 18  1  0
 18 19  1  0
 19 20  2  0
 20 21  1  0
 21 22  2  0
 22 23  1  0
 19 24  1  0
 23 24  2  0
 10 25  1  0
 14 25  1  0
  7 26  1  0
  4 27  1  0
 26 27  1  0
M  END
