piperidine-amides-4927-covalent
     RDKit          3D

 23 25  0  0  0  0  0  0  0  0999 V2000
    7.1320   -3.2460   19.1920 C   0  0  0  0  0  0  0  0  0  0  0  0
    6.3570   -3.9950   20.2090 C   0  0  0  0  0  0  0  0  0  0  0  0
    5.2650   -4.4720   19.8460 O   0  0  0  0  0  0  0  0  0  0  0  0
    6.8560   -4.2030   21.4970 N   0  0  0  0  0  0  0  0  0  0  0  0
    7.5950   -3.1690   22.1580 C   0  0  0  0  0  0  0  0  0  0  0  0
    7.0890   -2.7870   23.4760 C   0  0  0  0  0  0  0  0  0  0  0  0
    6.4810   -3.8880   24.2460 C   0  0  0  0  0  0  0  0  0  0  0  0
    5.7850   -3.3620   25.4550 C   0  0  0  0  0  0  0  0  0  0  0  0
    4.5630   -3.1330   25.3780 O   0  0  0  0  0  0  0  0  0  0  0  0
    6.4860   -3.1100   26.6580 N   0  0  0  0  0  0  0  0  0  0  0  0
    6.0310   -3.5520   28.0020 C   0  0  0  0  0  0  0  0  0  0  0  0
    6.4430   -4.9400   28.3890 C   0  0  0  0  0  0  0  0  0  0  0  0
    5.5000   -5.7790   29.0300 N   0  0  0  0  0  0  0  0  0  0  0  0
    5.4010   -6.0860   30.3050 N   0  0  0  0  0  0  0  0  0  0  0  0
    4.2910   -6.9670   30.4820 C   0  0  0  0  0  0  0  0  0  0  0  0
    3.7420   -7.1620   29.2520 C   0  0  0  0  0  0  0  0  0  0  0  0
    2.6660   -7.8990   28.8100 C   0  0  0  0  0  0  0  0  0  0  0  0
    2.3660   -7.8890   27.4590 C   0  0  0  0  0  0  0  0  0  0  0  0
    3.1280   -7.1560   26.5630 C   0  0  0  0  0  0  0  0  0  0  0  0
    4.1920   -6.4240   27.0010 C   0  0  0  0  0  0  0  0  0  0  0  0
    4.4510   -6.4620   28.3500 C   0  0  0  0  0  0  0  0  0  0  0  0
    5.6440   -4.8290   23.4710 C   0  0  0  0  0  0  0  0  0  0  0  0
    6.4430   -5.3420   22.3000 C   0  0  0  0  0  0  0  0  0  0  0  0
  1  2  1  0
  2  3  2  0
  2  4  1  0
  4  5  1  0
  5  6  1  0
  6  7  1  0
  7  8  1  0
  8  9  2  0
  8 10  1  0
 10 11  1  0
 11 12  1  0
 12 13  1  0
 13 14  1  0
 14 15  2  0
 15 16  1  0
 16 17  1  0
 17 18  2  0
 18 19  1  0
 19 20  2  0
 13 21  1  0
 16 21  2  0
 20 21  1  0
  7 22  1  0
  4 23  1  0
 22 23  1  0
M  END
