piperidine-amides-27741-covalent
     RDKit          3D

 26 28  0  0  0  0  0  0  0  0999 V2000
    7.0340   -3.4200   19.4290 C   0  0  0  0  0  0  0  0  0  0  0  0
    6.3860   -4.2830   20.4390 C   0  0  0  0  0  0  0  0  0  0  0  0
    5.4190   -4.9580   20.0170 O   0  0  0  0  0  0  0  0  0  0  0  0
    6.8720   -4.3660   21.7670 N   0  0  0  0  0  0  0  0  0  0  0  0
    6.5330   -5.4840   22.5990 C   0  0  0  0  0  0  0  0  0  0  0  0
    5.9500   -5.0860   23.8940 C   0  0  0  0  0  0  0  0  0  0  0  0
    5.9250   -3.6150   24.0370 C   0  0  0  0  0  0  0  0  0  0  0  0
    5.2320   -3.0610   25.2560 C   0  0  0  0  0  0  0  0  0  0  0  0
    4.6650   -1.9760   25.0940 O   0  0  0  0  0  0  0  0  0  0  0  0
    5.1460   -3.6450   26.5440 N   0  0  0  0  0  0  0  0  0  0  0  0
    3.9750   -3.6420   27.3920 C   0  0  0  0  0  0  0  0  0  0  0  0
    4.3190   -4.4860   28.5640 C   0  0  0  0  0  0  0  0  0  0  0  0
    5.5260   -4.1780   29.2970 C   0  0  0  0  0  0  0  0  0  0  0  0
    5.2220   -2.8480   29.7880 N   0  0  0  0  0  0  0  0  0  0  0  0
    4.2000   -2.4960   30.7070 C   0  0  0  0  0  0  0  0  0  0  0  0
    3.2410   -3.2780   30.8230 O   0  0  0  0  0  0  0  0  0  0  0  0
    4.3390   -1.3200   31.4150 C   0  0  0  0  0  0  0  0  0  0  0  0
    3.8370   -1.2470   32.6870 C   0  0  0  0  0  0  0  0  0  0  0  0
    3.9490   -0.1000   33.4390 C   0  0  0  0  0  0  0  0  0  0  0  0
    4.5570    1.0420   32.9970 C   0  0  0  0  0  0  0  0  0  0  0  0
    5.0770    1.0020   31.7110 C   0  0  0  0  0  0  0  0  0  0  0  0
    4.9630   -0.2170   30.8990 C   0  0  0  0  0  0  0  0  0  0  0  0
    6.6990   -3.9550   28.6230 C   0  0  0  0  0  0  0  0  0  0  0  0
    6.3530   -3.9210   27.1590 C   0  0  0  0  0  0  0  0  0  0  0  0
    7.1930   -2.9560   23.7100 C   0  0  0  0  0  0  0  0  0  0  0  0
    7.7300   -3.3200   22.3370 C   0  0  0  0  0  0  0  0  0  0  0  0
  1  2  1  0
  2  3  2  0
  2  4  1  0
  4  5  1  0
  5  6  1  0
  6  7  1  0
  7  8  1  0
  8  9  2  0
  8 10  1  0
 10 11  1  0
 11 12  1  0
 12 13  1  0
 13 14  1  0
 14 15  1  0
 15 16  2  0
 15 17  1  0
 17 18  2  0
 18 19  1  0
 19 20  2  0
 20 21  1  0
 17 22  1  0
 21 22  2  0
 13 23  1  0
 10 24  1  0
 23 24  1  0
  7 25  1  0
  4 26  1  0
 25 26  1  0
M  END
