piperidine-amides-5415-covalent
     RDKit          3D

 20 21  0  0  0  0  0  0  0  0999 V2000
    7.1320   -3.2670   19.2060 C   0  0  0  0  0  0  0  0  0  0  0  0
    6.3570   -4.0060   20.2090 C   0  0  0  0  0  0  0  0  0  0  0  0
    5.2840   -4.5340   19.8780 O   0  0  0  0  0  0  0  0  0  0  0  0
    6.8310   -4.1740   21.5180 N   0  0  0  0  0  0  0  0  0  0  0  0
    6.6040   -5.3900   22.2640 C   0  0  0  0  0  0  0  0  0  0  0  0
    5.7500   -4.9680   23.4280 C   0  0  0  0  0  0  0  0  0  0  0  0
    6.0020   -3.5280   23.7750 C   0  0  0  0  0  0  0  0  0  0  0  0
    5.5830   -3.1540   25.1440 C   0  0  0  0  0  0  0  0  0  0  0  0
    4.3560   -2.9830   25.4110 O   0  0  0  0  0  0  0  0  0  0  0  0
    6.4980   -2.9670   26.2000 N   0  0  0  0  0  0  0  0  0  0  0  0
    6.0530   -3.2520   27.5890 C   0  0  0  0  0  0  0  0  0  0  0  0
    6.6440   -4.5460   27.9970 C   0  0  1  0  0  0  0  0  0  0  0  0
    6.3570   -5.6350   27.0650 C   0  0  0  0  0  0  0  0  0  0  0  0
    7.5730   -5.7880   26.1940 C   0  0  0  0  0  0  0  0  0  0  0  0
    8.6190   -4.8220   26.6410 C   0  0  0  0  0  0  0  0  0  0  0  0
    8.1310   -4.4420   27.9900 C   0  0  1  0  0  0  0  0  0  0  0  0
    7.4240   -3.3010   28.2580 C   0  0  0  0  0  0  0  0  0  0  0  0
    8.1650   -2.1410   28.5160 C   0  0  0  0  0  0  0  0  0  0  0  0
    7.4620   -3.1140   23.5750 C   0  0  0  0  0  0  0  0  0  0  0  0
    7.6840   -3.1320   22.0640 C   0  0  0  0  0  0  0  0  0  0  0  0
  1  2  1  0
  2  3  2  0
  2  4  1  0
  4  5  1  0
  5  6  1  0
  6  7  1  0
  7  8  1  0
  8  9  2  0
  8 10  1  0
 10 11  1  0
 12 11  1  6
 12 13  1  0
 13 14  1  0
 14 15  1  0
 12 16  1  0
 15 16  1  0
 16 17  1  6
 17 18  1  0
  7 19  1  0
  4 20  1  0
 19 20  1  0
M  END
