piperidine-amides-33917-covalent
     RDKit          3D

 30 33  0  0  0  0  0  0  0  0999 V2000
    7.0370   -3.3890   19.3910 C   0  0  0  0  0  0  0  0  0  0  0  0
    6.4180   -4.2640   20.3990 C   0  0  0  0  0  0  0  0  0  0  0  0
    5.4160   -4.9200   20.0090 O   0  0  0  0  0  0  0  0  0  0  0  0
    6.9580   -4.3970   21.7170 N   0  0  0  0  0  0  0  0  0  0  0  0
    6.6060   -5.5440   22.4910 C   0  0  0  0  0  0  0  0  0  0  0  0
    6.0350   -5.1880   23.7890 C   0  0  0  0  0  0  0  0  0  0  0  0
    5.9030   -3.7300   23.9220 C   0  0  0  0  0  0  0  0  0  0  0  0
    5.2340   -3.2260   25.1920 C   0  0  0  0  0  0  0  0  0  0  0  0
    4.4580   -2.2670   25.0720 O   0  0  0  0  0  0  0  0  0  0  0  0
    5.3920   -3.7330   26.5030 N   0  0  0  0  0  0  0  0  0  0  0  0
    6.4710   -3.4900   27.2680 C   0  0  0  0  0  0  0  0  0  0  0  0
    6.7990   -4.5540   28.1870 C   0  0  0  0  0  0  0  0  0  0  0  0
    5.5900   -4.5990   29.0520 C   0  0  0  0  0  0  0  0  0  0  0  0
    4.3570   -4.6080   28.4320 C   0  0  2  0  0  0  0  0  0  0  0  0
    3.9180   -5.9310   28.2210 N   0  0  0  0  0  0  0  0  0  0  0  0
    2.6910   -6.0720   28.7240 N   0  0  0  0  0  0  0  0  0  0  0  0
    1.5450   -6.8330   28.2590 C   0  0  0  0  0  0  0  0  0  0  0  0
    1.7920   -7.5710   27.0110 C   0  0  0  0  0  0  0  0  0  0  0  0
    1.0040   -8.4450   26.3900 N   0  0  0  0  0  0  0  0  0  0  0  0
    1.5050   -9.3570   25.5380 C   0  0  0  0  0  0  0  0  0  0  0  0
    0.7640  -10.6520   25.5590 C   0  0  0  0  0  0  0  0  0  0  0  0
   -0.3650  -10.3360   26.4890 C   0  0  2  0  0  0  0  0  0  0  0  0
   -1.5360  -10.5380   26.0790 O   0  0  0  0  0  0  0  0  0  0  0  0
   -0.1760   -8.8680   26.9210 C   0  0  0  0  0  0  0  0  0  0  0  0
    3.0130   -7.2840   26.4550 C   0  0  0  0  0  0  0  0  0  0  0  0
    4.0360   -6.4170   26.8750 C   0  0  0  0  0  0  0  0  0  0  0  0
    4.9450   -6.1270   26.1150 O   0  0  0  0  0  0  0  0  0  0  0  0
    4.2090   -3.7580   27.3270 C   0  0  0  0  0  0  0  0  0  0  0  0
    7.2040   -3.0480   23.6440 C   0  0  0  0  0  0  0  0  0  0  0  0
    7.6860   -3.3090   22.3540 C   0  0  0  0  0  0  0  0  0  0  0  0
  1  2  1  0
  2  3  2  0
  2  4  1  0
  4  5  1  0
  5  6  1  0
  6  7  1  0
  7  8  1  0
  8  9  2  0
  8 10  1  0
 10 11  1  0
 11 12  1  0
 12 13  1  0
 13 14  1  0
 14 15  1  6
 15 16  1  0
 16 17  2  0
 17 18  1  0
 18 19  1  0
 19 20  1  0
 20 21  1  0
 21 22  1  0
 22 23  1  6
 19 24  1  0
 22 24  1  0
 18 25  2  0
 15 26  1  0
 25 26  1  0
 26 27  2  0
 10 28  1  0
 14 28  1  0
  7 29  1  0
  4 30  1  0
 29 30  1  0
M  END
