piperidine-amides-12365-covalent
     RDKit          3D

 24 25  0  0  0  0  0  0  0  0999 V2000
    7.1280   -3.2830   19.2620 C   0  0  0  0  0  0  0  0  0  0  0  0
    6.3780   -4.0610   20.2390 C   0  0  0  0  0  0  0  0  0  0  0  0
    5.3300   -4.6180   19.9150 O   0  0  0  0  0  0  0  0  0  0  0  0
    6.8950   -4.2180   21.5690 N   0  0  0  0  0  0  0  0  0  0  0  0
    6.6040   -5.4210   22.3020 C   0  0  0  0  0  0  0  0  0  0  0  0
    5.9330   -5.0330   23.5780 C   0  0  0  0  0  0  0  0  0  0  0  0
    5.8860   -3.5130   23.5510 C   0  0  0  0  0  0  0  0  0  0  0  0
    5.0860   -3.0060   24.6940 C   0  0  0  0  0  0  0  0  0  0  0  0
    3.9010   -3.3230   24.8870 O   0  0  0  0  0  0  0  0  0  0  0  0
    5.6950   -2.1260   25.5970 N   0  0  0  0  0  0  0  0  0  0  0  0
    6.5510   -2.7660   26.5130 C   0  0  0  0  0  0  0  0  0  0  0  0
    5.7300   -3.8480   27.1500 C   0  0  0  0  0  0  0  0  0  0  0  0
    5.2160   -4.9420   26.4380 C   0  0  0  0  0  0  0  0  0  0  0  0
    4.4340   -5.9760   26.9870 C   0  0  0  0  0  0  0  0  0  0  0  0
    3.9710   -7.0030   26.1900 C   0  0  0  0  0  0  0  0  0  0  0  0
    4.1460   -5.9310   28.3170 C   0  0  0  0  0  0  0  0  0  0  0  0
    4.6000   -4.9130   29.0930 C   0  0  0  0  0  0  0  0  0  0  0  0
    5.3600   -3.9050   28.5580 C   0  0  0  0  0  0  0  0  0  0  0  0
    5.7370   -2.9490   29.4960 O   0  0  0  0  0  0  0  0  0  0  0  0
    5.6010   -1.6170   29.0720 C   0  0  0  0  0  0  0  0  0  0  0  0
    6.6310   -0.8150   29.4390 F   0  0  0  0  0  0  0  0  0  0  0  0
    4.5050   -1.1270   29.6970 F   0  0  0  0  0  0  0  0  0  0  0  0
    7.1750   -2.8650   23.4180 C   0  0  0  0  0  0  0  0  0  0  0  0
    7.7290   -3.2090   22.1930 C   0  0  0  0  0  0  0  0  0  0  0  0
  1  2  1  0
  2  3  2  0
  2  4  1  0
  4  5  1  0
  5  6  1  0
  6  7  1  0
  7  8  1  0
  8  9  2  0
  8 10  1  0
 10 11  1  0
 11 12  1  0
 12 13  2  0
 13 14  1  0
 14 15  1  0
 14 16  2  0
 16 17  1  0
 12 18  1  0
 17 18  2  0
 18 19  1  0
 19 20  1  0
 20 21  1  0
 20 22  1  0
  7 23  1  0
  4 24  1  0
 23 24  1  0
M  END
