piperidine-amides-29387-covalent
     RDKit          3D

 26 27  0  0  0  0  0  0  0  0999 V2000
    7.1100   -3.2510   19.2220 C   0  0  0  0  0  0  0  0  0  0  0  0
    6.3690   -4.0220   20.2180 C   0  0  0  0  0  0  0  0  0  0  0  0
    5.2860   -4.5250   19.8760 O   0  0  0  0  0  0  0  0  0  0  0  0
    6.9050   -4.2400   21.5100 N   0  0  0  0  0  0  0  0  0  0  0  0
    6.4750   -5.4120   22.2160 C   0  0  0  0  0  0  0  0  0  0  0  0
    5.9430   -5.0540   23.5810 C   0  0  0  0  0  0  0  0  0  0  0  0
    5.7540   -3.5460   23.6720 C   0  0  0  0  0  0  0  0  0  0  0  0
    5.0570   -3.1800   24.9610 C   0  0  0  0  0  0  0  0  0  0  0  0
    3.8590   -3.4310   24.9810 O   0  0  0  0  0  0  0  0  0  0  0  0
    5.7290   -2.6090   26.0410 N   0  0  0  0  0  0  0  0  0  0  0  0
    5.5370   -3.1810   27.3310 C   0  0  0  0  0  0  0  0  0  0  0  0
    6.4330   -2.7570   28.2970 C   0  0  0  0  0  0  0  0  0  0  0  0
    7.6120   -3.4480   27.8710 N   0  0  0  0  0  0  0  0  0  0  0  0
    8.2290   -4.5150   28.5460 C   0  0  0  0  0  0  0  0  0  0  0  0
    8.5870   -5.6950   27.9950 C   0  0  0  0  0  0  0  0  0  0  0  0
    8.4520   -5.6400   26.6790 N   0  0  0  0  0  0  0  0  0  0  0  0
    9.4720   -6.1660   25.9270 C   0  0  0  0  0  0  0  0  0  0  0  0
    7.5630   -4.8280   26.1700 C   0  0  0  0  0  0  0  0  0  0  0  0
    7.8570   -3.4260   26.4410 C   0  0  0  0  0  0  0  0  0  0  0  0
    5.9420   -1.1790   26.0320 C   0  0  0  0  0  0  0  0  0  0  0  0
    4.6250   -0.4120   26.3520 C   0  0  0  0  0  0  0  0  0  0  0  0
    4.3330    0.4980   25.5280 O   0  0  0  0  0  0  0  0  0  0  0  0
    3.8710   -0.7200   27.4530 O   0  0  0  0  0  0  0  0  0  0  0  0
    4.1420   -0.3780   28.7730 C   0  0  0  0  0  0  0  0  0  0  0  0
    7.0990   -2.9110   23.5150 C   0  0  0  0  0  0  0  0  0  0  0  0
    7.6260   -3.1530   22.1370 C   0  0  0  0  0  0  0  0  0  0  0  0
  1  2  1  0
  2  3  2  0
  2  4  1  0
  4  5  1  0
  5  6  1  0
  6  7  1  0
  7  8  1  0
  8  9  2  0
  8 10  1  0
 10 11  1  0
 11 12  1  0
 12 13  1  0
 13 14  1  0
 14 15  1  0
 15 16  1  0
 16 17  1  0
 16 18  1  0
 13 19  1  0
 18 19  1  0
 10 20  1  0
 20 21  1  0
 21 22  2  0
 21 23  1  0
 23 24  1  0
  7 25  1  0
  4 26  1  0
 25 26  1  0
M  END
