piperidine-amides-11150-covalent
     RDKit          3D

 20 21  0  0  0  0  0  0  0  0999 V2000
    7.0950   -3.3280   19.2650 C   0  0  0  0  0  0  0  0  0  0  0  0
    6.3910   -4.1300   20.2670 C   0  0  0  0  0  0  0  0  0  0  0  0
    5.3530   -4.7340   19.9510 O   0  0  0  0  0  0  0  0  0  0  0  0
    6.9090   -4.2650   21.5600 N   0  0  0  0  0  0  0  0  0  0  0  0
    7.7710   -3.2810   22.1690 C   0  0  0  0  0  0  0  0  0  0  0  0
    6.9790   -2.7070   23.2970 C   0  0  0  0  0  0  0  0  0  0  0  0
    6.5080   -3.7990   24.2010 C   0  0  0  0  0  0  0  0  0  0  0  0
    5.7470   -3.2540   25.3400 C   0  0  0  0  0  0  0  0  0  0  0  0
    4.4900   -3.1130   25.2730 O   0  0  0  0  0  0  0  0  0  0  0  0
    6.3700   -2.8780   26.5410 N   0  0  0  0  0  0  0  0  0  0  0  0
    6.3080   -1.4800   27.0320 C   0  0  0  0  0  0  0  0  0  0  0  0
    5.8530   -0.3500   26.2020 C   0  0  0  0  0  0  0  0  0  0  0  0
    5.8220    1.0000   26.7980 C   0  0  0  0  0  0  0  0  0  0  0  0
    6.2510    1.2040   28.2250 C   0  0  0  0  0  0  0  0  0  0  0  0
    6.1670    2.5120   28.6340 O   0  0  0  0  0  0  0  0  0  0  0  0
    6.7260    0.0790   29.1060 C   0  0  0  0  0  0  0  0  0  0  0  0
    6.7130   -1.2210   28.4130 C   0  0  0  0  0  0  0  0  0  0  0  0
    7.0920   -2.3260   29.0470 C   0  0  0  0  0  0  0  0  0  0  0  0
    5.6890   -4.8390   23.4730 C   0  0  0  0  0  0  0  0  0  0  0  0
    6.5480   -5.4140   22.3670 C   0  0  0  0  0  0  0  0  0  0  0  0
  1  2  1  0
  2  3  2  0
  2  4  1  0
  4  5  1  0
  5  6  1  0
  6  7  1  0
  7  8  1  0
  8  9  2  0
  8 10  1  0
 10 11  1  0
 11 12  2  0
 12 13  1  0
 13 14  2  0
 14 15  1  0
 14 16  1  0
 11 17  1  0
 16 17  2  0
 17 18  1  0
  7 19  1  0
  4 20  1  0
 19 20  1  0
M  END
