piperidine-amides-23465-covalent
     RDKit          3D

 24 27  0  0  0  0  0  0  0  0999 V2000
    7.0810   -3.3900   19.4080 C   0  0  0  0  0  0  0  0  0  0  0  0
    6.4030   -4.2370   20.3950 C   0  0  0  0  0  0  0  0  0  0  0  0
    5.3690   -4.8280   19.9910 O   0  0  0  0  0  0  0  0  0  0  0  0
    6.9310   -4.4320   21.7050 N   0  0  0  0  0  0  0  0  0  0  0  0
    6.4240   -5.4770   22.5010 C   0  0  0  0  0  0  0  0  0  0  0  0
    6.1100   -5.0940   23.8850 C   0  0  0  0  0  0  0  0  0  0  0  0
    6.4330   -3.7080   24.3500 C   0  0  0  0  0  0  0  0  0  0  0  0
    5.3320   -3.1990   25.2650 C   0  0  0  0  0  0  0  0  0  0  0  0
    4.3800   -2.6070   24.7440 O   0  0  0  0  0  0  0  0  0  0  0  0
    5.3080   -3.3600   26.6780 N   0  0  0  0  0  0  0  0  0  0  0  0
    4.6400   -2.5940   27.6250 C   0  0  0  0  0  0  0  0  0  0  0  0
    4.2630   -3.2130   28.8900 C   0  0  0  0  0  0  0  0  0  0  0  0
    5.0690   -4.4920   29.1320 C   0  0  0  0  0  0  0  0  0  0  0  0
    6.0150   -5.0770   28.4300 C   0  0  0  0  0  0  0  0  0  0  0  0
    6.4690   -6.2400   29.0770 N   0  0  0  0  0  0  0  0  0  0  0  0
    5.6590   -6.3010   30.2920 C   0  0  0  0  0  0  0  0  0  0  0  0
    5.8280   -7.3850   31.3010 C   0  0  0  0  0  0  0  0  0  0  0  0
    4.4170   -7.4460   31.4020 C   0  0  0  0  0  0  0  0  0  0  0  0
    5.0330   -7.7960   32.6370 C   0  0  0  0  0  0  0  0  0  0  0  0
    4.7980   -5.1550   30.2180 N   0  0  0  0  0  0  0  0  0  0  0  0
    3.7240   -4.6330   31.1260 C   0  0  0  0  0  0  0  0  0  0  0  0
    6.2390   -4.2520   27.1790 C   0  0  0  0  0  0  0  0  0  0  0  0
    6.7030   -2.7530   23.2160 C   0  0  0  0  0  0  0  0  0  0  0  0
    7.6470   -3.4000   22.4200 C   0  0  0  0  0  0  0  0  0  0  0  0
  1  2  1  0
  2  3  2  0
  2  4  1  0
  4  5  1  0
  5  6  1  0
  6  7  1  0
  7  8  1  0
  8  9  2  0
  8 10  1  0
 10 11  1  0
 11 12  1  0
 12 13  1  0
 13 14  2  0
 14 15  1  0
 15 16  2  0
 16 17  1  0
 17 18  1  0
 17 19  1  0
 18 19  1  0
 13 20  1  0
 16 20  1  0
 20 21  1  0
 10 22  1  0
 14 22  1  0
  7 23  1  0
  4 24  1  0
 23 24  1  0
M  END
