piperidine-amides-10012-covalent
     RDKit          3D

 26 28  0  0  0  0  0  0  0  0999 V2000
    7.0800   -3.2610   19.2090 C   0  0  0  0  0  0  0  0  0  0  0  0
    6.3190   -3.9970   20.2310 C   0  0  0  0  0  0  0  0  0  0  0  0
    5.2420   -4.5240   19.8630 O   0  0  0  0  0  0  0  0  0  0  0  0
    6.8130   -4.1300   21.5290 N   0  0  0  0  0  0  0  0  0  0  0  0
    7.6810   -3.1240   22.0940 C   0  0  0  0  0  0  0  0  0  0  0  0
    7.2130   -2.9050   23.4890 C   0  0  0  0  0  0  0  0  0  0  0  0
    5.8780   -3.5530   23.7050 C   0  0  0  0  0  0  0  0  0  0  0  0
    5.3860   -3.2990   25.0830 C   0  0  0  0  0  0  0  0  0  0  0  0
    4.1500   -3.2670   25.2640 O   0  0  0  0  0  0  0  0  0  0  0  0
    6.2210   -3.0720   26.1880 N   0  0  0  0  0  0  0  0  0  0  0  0
    6.4100   -4.0470   27.2270 C   0  0  2  0  0  0  0  0  0  0  0  0
    7.7910   -4.6100   27.1430 C   0  0  0  0  0  0  0  0  0  0  0  0
    8.3580   -5.6880   27.7370 C   0  0  0  0  0  0  0  0  0  0  0  0
    9.6430   -5.7560   27.3520 N   0  0  0  0  0  0  0  0  0  0  0  0
    9.9060   -4.7380   26.5210 C   0  0  0  0  0  0  0  0  0  0  0  0
   11.0680   -4.3800   25.8890 C   0  0  0  0  0  0  0  0  0  0  0  0
   11.0780   -3.2630   25.0580 C   0  0  0  0  0  0  0  0  0  0  0  0
    9.9550   -2.4880   24.8460 C   0  0  0  0  0  0  0  0  0  0  0  0
    8.6230   -2.7780   25.4940 C   0  0  0  0  0  0  0  0  0  0  0  0
    8.7870   -4.0170   26.3560 C   0  0  0  0  0  0  0  0  0  0  0  0
    5.3840   -5.1380   27.3460 C   0  0  0  0  0  0  0  0  0  0  0  0
    5.4560   -5.9510   28.4220 F   0  0  0  0  0  0  0  0  0  0  0  0
    5.5530   -5.9880   26.2620 F   0  0  0  0  0  0  0  0  0  0  0  0
    4.1080   -4.6030   27.2950 F   0  0  0  0  0  0  0  0  0  0  0  0
    5.9300   -5.0490   23.4900 C   0  0  0  0  0  0  0  0  0  0  0  0
    6.6160   -5.3480   22.3220 C   0  0  0  0  0  0  0  0  0  0  0  0
  1  2  1  0
  2  3  2  0
  2  4  1  0
  4  5  1  0
  5  6  1  0
  6  7  1  0
  7  8  1  0
  8  9  2  0
  8 10  1  0
 11 10  1  6
 11 12  1  0
 12 13  2  0
 13 14  1  0
 14 15  1  0
 15 16  1  0
 16 17  2  0
 17 18  1  0
 18 19  2  0
 12 20  1  0
 15 20  2  0
 19 20  1  0
 11 21  1  0
 21 22  1  0
 21 23  1  0
 21 24  1  0
  7 25  1  0
  4 26  1  0
 25 26  1  0
M  END
