piperidine-amides-25882-covalent
     RDKit          3D

 25 26  0  0  0  0  0  0  0  0999 V2000
    7.1180   -3.2930   19.2710 C   0  0  0  0  0  0  0  0  0  0  0  0
    6.3010   -4.0290   20.2670 C   0  0  0  0  0  0  0  0  0  0  0  0
    5.2530   -4.5350   19.8740 O   0  0  0  0  0  0  0  0  0  0  0  0
    6.7660   -4.1640   21.5760 N   0  0  0  0  0  0  0  0  0  0  0  0
    6.5300   -5.3580   22.3470 C   0  0  0  0  0  0  0  0  0  0  0  0
    5.9220   -4.9840   23.6700 C   0  0  0  0  0  0  0  0  0  0  0  0
    6.0260   -3.4700   23.8880 C   0  0  0  0  0  0  0  0  0  0  0  0
    5.5830   -3.1570   25.2610 C   0  0  0  0  0  0  0  0  0  0  0  0
    4.3850   -3.2590   25.5490 O   0  0  0  0  0  0  0  0  0  0  0  0
    6.5090   -2.7540   26.2420 N   0  0  0  0  0  0  0  0  0  0  0  0
    7.4630   -3.7320   26.6480 C   0  0  0  0  0  0  0  0  0  0  0  0
    6.9420   -4.3920   27.8990 C   0  0  0  0  0  0  0  0  0  0  0  0
    6.3520   -3.5950   28.8780 O   0  0  0  0  0  0  0  0  0  0  0  0
    7.1640   -5.8270   27.8820 N   0  0  0  0  0  0  0  0  0  0  0  0
    8.6110   -5.9340   27.6260 C   0  0  0  0  0  0  0  0  0  0  0  0
    6.4760   -6.4890   28.9630 C   0  0  0  0  0  0  0  0  0  0  0  0
    6.6270   -1.5130   26.9090 C   0  0  0  0  0  0  0  0  0  0  0  0
    6.3090   -0.2740   26.1000 C   0  0  0  0  0  0  0  0  0  0  0  0
    4.8700   -0.3810   25.6700 C   0  0  0  0  0  0  0  0  0  0  0  0
    4.3040    0.7510   24.8370 C   0  0  0  0  0  0  0  0  0  0  0  0
    5.2250    1.8830   24.5110 C   0  0  0  0  0  0  0  0  0  0  0  0
    6.6380    1.9320   24.9660 C   0  0  0  0  0  0  0  0  0  0  0  0
    7.2670    0.8430   25.7960 C   0  0  0  0  0  0  0  0  0  0  0  0
    7.4430   -3.0220   23.6340 C   0  0  0  0  0  0  0  0  0  0  0  0
    7.6460   -3.1590   22.1540 C   0  0  0  0  0  0  0  0  0  0  0  0
  1  2  1  0
  2  3  2  0
  2  4  1  0
  4  5  1  0
  5  6  1  0
  6  7  1  0
  7  8  1  0
  8  9  2  0
  8 10  1  0
 10 11  1  0
 11 12  1  0
 12 13  2  0
 12 14  1  0
 14 15  1  0
 14 16  1  0
 10 17  1  0
 17 18  1  0
 18 19  2  0
 19 20  1  0
 20 21  2  0
 21 22  1  0
 18 23  1  0
 22 23  2  0
  7 24  1  0
  4 25  1  0
 24 25  1  0
M  END
