piperidine-amides-24323-covalent
     RDKit          3D

 24 26  0  0  0  0  0  0  0  0999 V2000
    7.0970   -3.3320   19.3360 C   0  0  0  0  0  0  0  0  0  0  0  0
    6.4260   -4.2040   20.3030 C   0  0  0  0  0  0  0  0  0  0  0  0
    5.3910   -4.8320   19.9810 O   0  0  0  0  0  0  0  0  0  0  0  0
    6.9740   -4.3840   21.5810 N   0  0  0  0  0  0  0  0  0  0  0  0
    6.6350   -5.5500   22.3520 C   0  0  0  0  0  0  0  0  0  0  0  0
    5.8510   -5.0310   23.5610 C   0  0  0  0  0  0  0  0  0  0  0  0
    6.6490   -3.8920   24.1720 C   0  0  0  0  0  0  0  0  0  0  0  0
    5.8910   -3.2860   25.2820 C   0  0  0  0  0  0  0  0  0  0  0  0
    5.2150   -2.2660   25.0410 O   0  0  0  0  0  0  0  0  0  0  0  0
    5.8820   -3.8550   26.5640 N   0  0  0  0  0  0  0  0  0  0  0  0
    4.6160   -3.9300   27.2090 C   0  0  0  0  0  0  0  0  0  0  0  0
    4.6210   -5.1800   28.0430 C   0  0  0  0  0  0  0  0  0  0  0  0
    5.4710   -5.2040   29.0710 C   0  0  0  0  0  0  0  0  0  0  0  0
    5.3780   -6.2550   29.9490 C   0  0  0  0  0  0  0  0  0  0  0  0
    4.5370   -6.4580   30.9770 C   0  0  0  0  0  0  0  0  0  0  0  0
    4.8320   -7.6250   31.5620 C   0  0  0  0  0  0  0  0  0  0  0  0
    4.1790   -8.2940   32.7590 C   0  0  0  0  0  0  0  0  0  0  0  0
    3.7430   -7.6330   33.7030 O   0  0  0  0  0  0  0  0  0  0  0  0
    5.9160   -8.2030   30.8690 O   0  0  0  0  0  0  0  0  0  0  0  0
    6.2410   -7.3570   29.8710 N   0  0  0  0  0  0  0  0  0  0  0  0
    6.6690   -4.9550   28.5090 C   0  0  0  0  0  0  0  0  0  0  0  0
    6.3850   -3.6110   27.8880 C   0  0  0  0  0  0  0  0  0  0  0  0
    6.9350   -2.8020   23.1740 C   0  0  0  0  0  0  0  0  0  0  0  0
    7.7720   -3.3560   22.2130 C   0  0  0  0  0  0  0  0  0  0  0  0
  1  2  1  0
  2  3  2  0
  2  4  1  0
  4  5  1  0
  5  6  1  0
  6  7  1  0
  7  8  1  0
  8  9  2  0
  8 10  1  0
 10 11  1  0
 11 12  1  0
 12 13  1  0
 13 14  1  0
 14 15  1  0
 15 16  2  0
 16 17  1  0
 17 18  1  0
 16 19  1  0
 14 20  2  0
 19 20  1  0
 13 21  1  0
 10 22  1  0
 21 22  1  0
  7 23  1  0
  4 24  1  0
 23 24  1  0
M  END
