piperidine-amides-30181-covalent
     RDKit          3D

 27 29  0  0  0  0  0  0  0  0999 V2000
    7.0890   -3.3600   19.2740 C   0  0  0  0  0  0  0  0  0  0  0  0
    6.4230   -4.2010   20.2590 C   0  0  0  0  0  0  0  0  0  0  0  0
    5.3760   -4.7760   19.9690 O   0  0  0  0  0  0  0  0  0  0  0  0
    7.0300   -4.4100   21.5360 N   0  0  0  0  0  0  0  0  0  0  0  0
    7.7540   -3.3350   22.1640 C   0  0  0  0  0  0  0  0  0  0  0  0
    6.9570   -2.8030   23.3080 C   0  0  0  0  0  0  0  0  0  0  0  0
    6.5790   -3.9720   24.1930 C   0  0  0  0  0  0  0  0  0  0  0  0
    5.7210   -3.4720   25.2890 C   0  0  0  0  0  0  0  0  0  0  0  0
    4.7150   -2.7690   25.0740 O   0  0  0  0  0  0  0  0  0  0  0  0
    6.0320   -3.8050   26.6120 N   0  0  0  0  0  0  0  0  0  0  0  0
    6.4350   -2.7140   27.4370 C   0  0  0  0  0  0  0  0  0  0  0  0
    6.7520   -3.3150   28.7690 C   0  0  0  0  0  0  0  0  0  0  0  0
    5.8050   -4.1230   29.2910 C   0  0  0  0  0  0  0  0  0  0  0  0
    5.0100   -3.5160   30.0580 O   0  0  0  0  0  0  0  0  0  0  0  0
    3.6980   -3.9650   30.2630 C   0  0  0  0  0  0  0  0  0  0  0  0
    3.4210   -5.2530   30.7150 C   0  0  0  0  0  0  0  0  0  0  0  0
    2.0380   -5.6280   30.8980 C   0  0  0  0  0  0  0  0  0  0  0  0
    1.0030   -4.7910   30.6550 C   0  0  0  0  0  0  0  0  0  0  0  0
    1.2490   -3.5200   30.2110 C   0  0  0  0  0  0  0  0  0  0  0  0
    0.2470   -2.5700   29.9280 N   0  0  0  0  0  0  0  0  0  0  0  0
   -0.1430   -1.6160   30.8320 O   0  0  0  0  0  0  0  0  0  0  0  0
   -0.3660   -2.5840   28.7050 O   0  0  0  0  0  0  0  0  0  0  0  0
    2.5920   -3.1330   30.0230 C   0  0  0  0  0  0  0  0  0  0  0  0
    4.9770   -4.7630   28.4480 C   0  0  0  0  0  0  0  0  0  0  0  0
    5.4340   -4.9620   27.1610 C   0  0  0  0  0  0  0  0  0  0  0  0
    5.8130   -5.0400   23.4610 C   0  0  0  0  0  0  0  0  0  0  0  0
    6.5850   -5.5220   22.2860 C   0  0  0  0  0  0  0  0  0  0  0  0
  1  2  1  0
  2  3  2  0
  2  4  1  0
  4  5  1  0
  5  6  1  0
  6  7  1  0
  7  8  1  0
  8  9  2  0
  8 10  1  0
 10 11  1  0
 11 12  1  0
 12 13  1  0
 13 14  1  0
 14 15  1  0
 15 16  2  0
 16 17  1  0
 17 18  2  0
 18 19  1  0
 19 20  1  0
 20 21  2  0
 20 22  1  0
 15 23  1  0
 19 23  2  0
 13 24  1  0
 10 25  1  0
 24 25  1  0
  7 26  1  0
  4 27  1  0
 26 27  1  0
M  CHG  2  20   1  22  -1
M  END
