piperidine-amides-27662-covalent
     RDKit          3D

 26 28  0  0  0  0  0  0  0  0999 V2000
    7.0400   -3.3540   19.3730 C   0  0  0  0  0  0  0  0  0  0  0  0
    6.4120   -4.2120   20.3880 C   0  0  0  0  0  0  0  0  0  0  0  0
    5.4120   -4.8720   19.9940 O   0  0  0  0  0  0  0  0  0  0  0  0
    6.9350   -4.3120   21.6950 N   0  0  0  0  0  0  0  0  0  0  0  0
    6.6460   -5.4810   22.5060 C   0  0  0  0  0  0  0  0  0  0  0  0
    6.1150   -5.0390   23.8570 C   0  0  0  0  0  0  0  0  0  0  0  0
    6.0970   -3.5370   24.0010 C   0  0  0  0  0  0  0  0  0  0  0  0
    5.4970   -3.0960   25.2900 C   0  0  0  0  0  0  0  0  0  0  0  0
    4.2850   -2.8040   25.2400 O   0  0  0  0  0  0  0  0  0  0  0  0
    6.1470   -2.9760   26.5450 N   0  0  0  0  0  0  0  0  0  0  0  0
    6.1230   -4.1470   27.4050 C   0  0  0  0  0  0  0  0  0  0  0  0
    4.7920   -4.3670   28.1200 C   0  0  0  0  0  0  0  0  0  0  0  0
    4.6600   -5.2480   29.1760 C   0  0  0  0  0  0  0  0  0  0  0  0
    3.4480   -5.4250   29.7980 C   0  0  0  0  0  0  0  0  0  0  0  0
    2.3030   -4.7630   29.4330 C   0  0  0  0  0  0  0  0  0  0  0  0
    2.4300   -3.8840   28.3830 C   0  0  0  0  0  0  0  0  0  0  0  0
    3.6390   -3.6890   27.7420 C   0  0  0  0  0  0  0  0  0  0  0  0
    6.4840   -1.6600   27.0270 C   0  0  1  0  0  0  0  0  0  0  0  0
    5.7400   -0.4820   26.3790 C   0  0  0  0  0  0  0  0  0  0  0  0
    5.7650    0.6480   27.3210 C   0  0  0  0  0  0  0  0  0  0  0  0
    6.3300    0.0320   28.5540 C   0  0  0  0  0  0  0  0  0  0  0  0
    6.4030   -1.3570   28.4440 C   0  0  0  0  0  0  0  0  0  0  0  0
    7.6480   -1.7040   29.1950 C   0  0  0  0  0  0  0  0  0  0  0  0
    5.3170   -1.9920   28.9740 C   0  0  0  0  0  0  0  0  0  0  0  0
    7.4130   -2.9690   23.6380 C   0  0  0  0  0  0  0  0  0  0  0  0
    7.7430   -3.2340   22.2250 C   0  0  0  0  0  0  0  0  0  0  0  0
  1  2  1  0
  2  3  2  0
  2  4  1  0
  4  5  1  0
  5  6  1  0
  6  7  1  0
  7  8  1  0
  8  9  2  0
  8 10  1  0
 10 11  1  0
 11 12  1  0
 12 13  2  0
 13 14  1  0
 14 15  2  0
 15 16  1  0
 12 17  1  0
 16 17  2  0
 18 10  1  1
 18 19  1  0
 19 20  1  0
 20 21  1  0
 18 22  1  0
 21 22  1  0
 22 23  1  0
 22 24  1  0
  7 25  1  0
  4 26  1  0
 25 26  1  0
M  END
