piperidine-amides-14356-covalent
     RDKit          3D

 24 25  0  0  0  0  0  0  0  0999 V2000
    7.1280   -3.3080   19.2670 C   0  0  0  0  0  0  0  0  0  0  0  0
    6.3590   -4.0680   20.2460 C   0  0  0  0  0  0  0  0  0  0  0  0
    5.2700   -4.5460   19.8870 O   0  0  0  0  0  0  0  0  0  0  0  0
    6.8860   -4.3070   21.5380 N   0  0  0  0  0  0  0  0  0  0  0  0
    7.6360   -3.2770   22.1980 C   0  0  0  0  0  0  0  0  0  0  0  0
    6.7590   -2.6270   23.2240 C   0  0  0  0  0  0  0  0  0  0  0  0
    5.9250   -3.7080   23.8840 C   0  0  0  0  0  0  0  0  0  0  0  0
    5.7640   -3.4150   25.3340 C   0  0  0  0  0  0  0  0  0  0  0  0
    4.8020   -2.7180   25.6450 O   0  0  0  0  0  0  0  0  0  0  0  0
    6.6960   -3.9520   26.2120 N   0  0  0  0  0  0  0  0  0  0  0  0
    6.3090   -4.4460   27.4830 C   0  0  1  0  0  0  0  0  0  0  0  0
    7.2720   -5.2080   28.1800 C   0  0  0  0  0  0  0  0  0  0  0  0
    6.0370   -3.2280   28.2810 C   0  0  0  0  0  0  0  0  0  0  0  0
    6.5890   -2.0040   27.8940 C   0  0  0  0  0  0  0  0  0  0  0  0
    6.2960   -0.7930   28.7170 C   0  0  0  0  0  0  0  0  0  0  0  0
    5.4140   -0.8530   29.9590 C   0  0  0  0  0  0  0  0  0  0  0  0
    4.9070   -2.2070   30.2290 C   0  0  0  0  0  0  0  0  0  0  0  0
    4.1560   -2.4960   31.2000 O   0  0  0  0  0  0  0  0  0  0  0  0
    3.8520   -1.4160   32.0230 C   0  0  0  0  0  0  0  0  0  0  0  0
    2.3770   -0.9950   31.8290 C   0  0  0  0  0  0  0  0  0  0  0  0
    4.0440   -1.5890   33.3780 C   0  0  0  0  0  0  0  0  0  0  0  0
    5.2350   -3.2890   29.4040 C   0  0  0  0  0  0  0  0  0  0  0  0
    6.4540   -5.0940   23.7250 C   0  0  0  0  0  0  0  0  0  0  0  0
    6.5430   -5.4800   22.2800 C   0  0  0  0  0  0  0  0  0  0  0  0
  1  2  1  0
  2  3  2  0
  2  4  1  0
  4  5  1  0
  5  6  1  0
  6  7  1  0
  7  8  1  0
  8  9  2  0
  8 10  1  0
 10 11  1  0
 11 12  1  1
 11 13  1  0
 13 14  2  0
 14 15  1  0
 15 16  2  0
 16 17  1  0
 17 18  1  0
 18 19  1  0
 19 20  1  0
 19 21  1  0
 13 22  1  0
 17 22  2  0
  7 23  1  0
  4 24  1  0
 23 24  1  0
M  END
