piperidine-amides-31180-covalent
     RDKit          3D

 27 28  0  0  0  0  0  0  0  0999 V2000
    7.1150   -3.3420   19.2820 C   0  0  0  0  0  0  0  0  0  0  0  0
    6.3580   -4.1220   20.2560 C   0  0  0  0  0  0  0  0  0  0  0  0
    5.2930   -4.6580   19.9230 O   0  0  0  0  0  0  0  0  0  0  0  0
    6.8690   -4.3160   21.5400 N   0  0  0  0  0  0  0  0  0  0  0  0
    7.6880   -3.3220   22.1660 C   0  0  0  0  0  0  0  0  0  0  0  0
    6.8950   -2.8630   23.3540 C   0  0  0  0  0  0  0  0  0  0  0  0
    6.4810   -3.9750   24.2880 C   0  0  0  0  0  0  0  0  0  0  0  0
    5.6360   -3.4270   25.3780 C   0  0  0  0  0  0  0  0  0  0  0  0
    4.4200   -3.1780   25.1510 O   0  0  0  0  0  0  0  0  0  0  0  0
    6.0800   -3.1460   26.6840 N   0  0  0  0  0  0  0  0  0  0  0  0
    5.2940   -3.6270   27.8000 C   0  0  0  0  0  0  0  0  0  0  0  0
    6.3720   -4.1260   28.6620 C   0  0  0  0  0  0  0  0  0  0  0  0
    7.7220   -4.1680   28.0170 C   0  0  1  0  0  0  0  0  0  0  0  0
    8.0560   -5.2720   27.6070 O   0  0  0  0  0  0  0  0  0  0  0  0
    9.4290   -5.2910   27.4670 C   0  0  0  0  0  0  0  0  0  0  0  0
    9.7920   -5.1310   26.0140 C   0  0  0  0  0  0  0  0  0  0  0  0
   10.7800   -4.0510   25.8990 N   0  0  0  0  0  0  0  0  0  0  0  0
   10.3190   -3.1870   24.8290 C   0  0  0  0  0  0  0  0  0  0  0  0
    9.2950   -3.3220   24.1390 O   0  0  0  0  0  0  0  0  0  0  0  0
   11.1770   -2.1400   24.6440 O   0  0  0  0  0  0  0  0  0  0  0  0
   12.1400   -2.5570   23.7590 C   0  0  0  0  0  0  0  0  0  0  0  0
   13.4540   -2.5880   24.2310 C   0  0  0  0  0  0  0  0  0  0  0  0
   13.0540   -1.3690   23.4250 C   0  0  0  0  0  0  0  0  0  0  0  0
   12.0490   -1.8860   22.3330 C   0  0  0  0  0  0  0  0  0  0  0  0
    7.4860   -3.1420   26.9650 C   0  0  0  0  0  0  0  0  0  0  0  0
    5.7720   -5.0860   23.5440 C   0  0  0  0  0  0  0  0  0  0  0  0
    6.4070   -5.4500   22.2570 C   0  0  0  0  0  0  0  0  0  0  0  0
  1  2  1  0
  2  3  2  0
  2  4  1  0
  4  5  1  0
  5  6  1  0
  6  7  1  0
  7  8  1  0
  8  9  2  0
  8 10  1  0
 10 11  1  0
 11 12  1  0
 12 13  1  0
 13 14  1  6
 14 15  1  0
 15 16  1  0
 16 17  1  0
 17 18  1  0
 18 19  2  0
 18 20  1  0
 21 20  1  0
 21 22  1  0
 21 23  1  0
 21 24  1  0
 10 25  1  0
 13 25  1  0
  7 26  1  0
  4 27  1  0
 26 27  1  0
M  END
