piperidine-amides-5495-covalent
     RDKit          3D

 20 21  0  0  0  0  0  0  0  0999 V2000
    7.0670   -3.2730   19.1650 C   0  0  0  0  0  0  0  0  0  0  0  0
    6.2710   -3.9910   20.1690 C   0  0  0  0  0  0  0  0  0  0  0  0
    5.2170   -4.5530   19.8540 O   0  0  0  0  0  0  0  0  0  0  0  0
    6.7090   -4.0840   21.4860 N   0  0  0  0  0  0  0  0  0  0  0  0
    7.5550   -3.0730   22.0240 C   0  0  0  0  0  0  0  0  0  0  0  0
    7.3100   -3.1080   23.4870 C   0  0  0  0  0  0  0  0  0  0  0  0
    6.0020   -3.6850   23.8980 C   0  0  0  0  0  0  0  0  0  0  0  0
    5.9110   -3.6950   25.3720 C   0  0  0  0  0  0  0  0  0  0  0  0
    4.9940   -3.0480   25.9600 O   0  0  0  0  0  0  0  0  0  0  0  0
    6.8670   -4.4060   26.1460 N   0  0  0  0  0  0  0  0  0  0  0  0
    6.5310   -5.1570   27.3810 C   0  0  0  0  0  0  0  0  0  0  0  0
    6.1500   -4.1880   28.3980 C   0  0  0  0  0  0  0  0  0  0  0  0
    7.7720   -5.8330   27.9890 C   0  0  0  0  0  0  0  0  0  0  0  0
    5.4150   -6.1870   27.2190 C   0  0  0  0  0  0  0  0  0  0  0  0
    4.2170   -5.4040   26.7160 C   0  0  0  0  0  0  0  0  0  0  0  0
    3.1340   -6.0040   27.5200 C   0  0  0  0  0  0  0  0  0  0  0  0
    3.6660   -6.7520   28.5270 C   0  0  0  0  0  0  0  0  0  0  0  0
    5.0720   -6.8260   28.5590 C   0  0  0  0  0  0  0  0  0  0  0  0
    5.7390   -5.1190   23.4030 C   0  0  0  0  0  0  0  0  0  0  0  0
    6.6120   -5.3530   22.1620 C   0  0  0  0  0  0  0  0  0  0  0  0
  1  2  1  0
  2  3  2  0
  2  4  1  0
  4  5  1  0
  5  6  1  0
  6  7  1  0
  7  8  1  0
  8  9  2  0
  8 10  1  0
 11 10  1  0
 11 12  1  0
 11 13  1  0
 11 14  1  0
 14 15  1  0
 15 16  1  0
 16 17  1  0
 14 18  1  0
 17 18  1  0
  7 19  1  0
  4 20  1  0
 19 20  1  0
M  END
