piperidine-amides-24701-covalent
     RDKit          3D

 24 25  0  0  0  0  0  0  0  0999 V2000
    7.0560   -3.3430   19.4100 C   0  0  0  0  0  0  0  0  0  0  0  0
    6.4060   -4.2460   20.3670 C   0  0  0  0  0  0  0  0  0  0  0  0
    5.4050   -4.9060   20.0030 O   0  0  0  0  0  0  0  0  0  0  0  0
    6.9230   -4.4230   21.6710 N   0  0  0  0  0  0  0  0  0  0  0  0
    6.4900   -5.5570   22.4290 C   0  0  0  0  0  0  0  0  0  0  0  0
    5.4810   -4.9950   23.4400 C   0  0  0  0  0  0  0  0  0  0  0  0
    6.1590   -3.9120   24.2760 C   0  0  0  0  0  0  0  0  0  0  0  0
    5.1120   -3.2600   25.1280 C   0  0  0  0  0  0  0  0  0  0  0  0
    4.1530   -2.7240   24.5580 O   0  0  0  0  0  0  0  0  0  0  0  0
    5.2340   -3.2690   26.5380 N   0  0  0  0  0  0  0  0  0  0  0  0
    4.2130   -3.9250   27.3240 C   0  0  0  0  0  0  0  0  0  0  0  0
    4.2700   -3.5760   28.8130 C   0  0  0  0  0  0  0  0  0  0  0  0
    5.5150   -4.0310   29.3420 N   0  0  0  0  0  0  0  0  0  0  0  0
    5.8610   -5.4330   29.3360 C   0  0  0  0  0  0  0  0  0  0  0  0
    5.1830   -5.9950   30.3860 C   0  0  0  0  0  0  0  0  0  0  0  0
    4.8390   -7.3140   30.3950 C   0  0  0  0  0  0  0  0  0  0  0  0
    3.5640   -7.7130   30.0740 C   0  0  0  0  0  0  0  0  0  0  0  0
    5.0870   -7.7000   31.8640 C   0  0  0  0  0  0  0  0  0  0  0  0
    5.8540   -7.9810   29.5600 C   0  0  0  0  0  0  0  0  0  0  0  0
    6.4500   -3.3290   28.5100 C   0  0  0  0  0  0  0  0  0  0  0  0
    7.2240   -2.4290   29.0420 O   0  0  0  0  0  0  0  0  0  0  0  0
    6.4400   -3.5910   27.1070 C   0  0  0  0  0  0  0  0  0  0  0  0
    6.8030   -2.8500   23.4050 C   0  0  0  0  0  0  0  0  0  0  0  0
    7.5360   -3.3290   22.3480 C   0  0  0  0  0  0  0  0  0  0  0  0
  1  2  1  0
  2  3  2  0
  2  4  1  0
  4  5  1  0
  5  6  1  0
  6  7  1  0
  7  8  1  0
  8  9  2  0
  8 10  1  0
 10 11  1  0
 11 12  1  0
 12 13  1  0
 13 14  1  0
 14 15  1  0
 16 15  1  0
 16 17  1  0
 16 18  1  0
 16 19  1  0
 13 20  1  0
 20 21  2  0
 10 22  1  0
 20 22  1  0
  7 23  1  0
  4 24  1  0
 23 24  1  0
M  END
