piperidine-amides-2101-covalent
     RDKit          3D

 22 24  0  0  0  0  0  0  0  0999 V2000
    7.0830   -3.2620   19.2290 C   0  0  0  0  0  0  0  0  0  0  0  0
    6.3380   -4.0310   20.2630 C   0  0  0  0  0  0  0  0  0  0  0  0
    5.3010   -4.5800   19.8990 O   0  0  0  0  0  0  0  0  0  0  0  0
    6.8340   -4.1500   21.5670 N   0  0  0  0  0  0  0  0  0  0  0  0
    6.5760   -5.3060   22.3760 C   0  0  0  0  0  0  0  0  0  0  0  0
    5.7770   -4.8950   23.5830 C   0  0  0  0  0  0  0  0  0  0  0  0
    5.7320   -3.3610   23.7230 C   0  0  0  0  0  0  0  0  0  0  0  0
    5.2440   -3.0680   25.0930 C   0  0  0  0  0  0  0  0  0  0  0  0
    4.5040   -3.8820   25.6560 O   0  0  0  0  0  0  0  0  0  0  0  0
    5.5800   -1.8690   25.7590 N   0  0  0  0  0  0  0  0  0  0  0  0
    5.1710   -1.6980   27.1410 C   0  0  0  0  0  0  0  0  0  0  0  0
    6.2830   -2.3120   27.8950 C   0  0  2  0  0  0  0  0  0  0  0  0
    7.5100   -1.9960   28.1010 C   0  0  0  0  0  0  0  0  0  0  0  0
    7.5180   -2.4930   26.9660 C   0  0  1  0  0  0  0  0  0  0  0  0
    7.9040   -3.7110   26.5810 C   0  0  0  0  0  0  0  0  0  0  0  0
    7.9800   -4.3570   25.2360 C   0  0  0  0  0  0  0  0  0  0  0  0
    8.4690   -5.7330   25.3310 C   0  0  0  0  0  0  0  0  0  0  0  0
    8.8510   -6.3210   26.6390 C   0  0  0  0  0  0  0  0  0  0  0  0
    8.7110   -5.5560   27.8740 C   0  0  0  0  0  0  0  0  0  0  0  0
    8.2110   -4.1750   27.9590 C   0  0  0  0  0  0  0  0  0  0  0  0
    6.9400   -2.5840   23.3310 C   0  0  0  0  0  0  0  0  0  0  0  0
    7.6750   -3.1270   22.1580 C   0  0  0  0  0  0  0  0  0  0  0  0
  1  2  1  0
  2  3  2  0
  2  4  1  0
  4  5  1  0
  5  6  1  0
  6  7  1  0
  7  8  1  0
  8  9  2  0
  8 10  1  0
 10 11  1  0
 12 11  1  6
 12 13  1  0
 12 14  1  0
 13 14  1  0
 14 15  1  1
 15 16  2  0
 16 17  1  0
 17 18  2  0
 18 19  1  0
 15 20  1  0
 19 20  2  0
  7 21  1  0
  4 22  1  0
 21 22  1  0
M  END
