piperidine-amides-10962-covalent
     RDKit          3D

 21 22  0  0  0  0  0  0  0  0999 V2000
    7.0900   -3.3160   19.2790 C   0  0  0  0  0  0  0  0  0  0  0  0
    6.3830   -4.1270   20.2700 C   0  0  0  0  0  0  0  0  0  0  0  0
    5.3350   -4.7090   19.9420 O   0  0  0  0  0  0  0  0  0  0  0  0
    6.8940   -4.3120   21.5610 N   0  0  0  0  0  0  0  0  0  0  0  0
    6.6060   -5.4780   22.3640 C   0  0  0  0  0  0  0  0  0  0  0  0
    5.8320   -4.9600   23.5480 C   0  0  0  0  0  0  0  0  0  0  0  0
    6.5470   -3.8280   24.2290 C   0  0  0  0  0  0  0  0  0  0  0  0
    5.7900   -3.2920   25.3770 C   0  0  0  0  0  0  0  0  0  0  0  0
    4.5530   -3.0280   25.2670 O   0  0  0  0  0  0  0  0  0  0  0  0
    6.3880   -3.0610   26.6240 N   0  0  0  0  0  0  0  0  0  0  0  0
    6.3790   -1.7190   27.2470 C   0  0  0  0  0  0  0  0  0  0  0  0
    7.0030   -1.6050   28.5830 C   0  0  0  0  0  0  0  0  0  0  0  0
    7.0520   -0.3350   29.3200 C   0  0  0  0  0  0  0  0  0  0  0  0
    6.4560    0.9000   28.7170 C   0  0  0  0  0  0  0  0  0  0  0  0
    5.8150    0.8170   27.3550 C   0  0  0  0  0  0  0  0  0  0  0  0
    5.2500    2.0510   26.8040 N   0  0  0  0  0  0  0  0  0  0  0  0
    3.9840    2.2550   27.4840 C   0  0  0  0  0  0  0  0  0  0  0  0
    2.7920    2.7480   27.0240 O   0  0  0  0  0  0  0  0  0  0  0  0
    5.7410   -0.4890   26.5460 C   0  0  0  0  0  0  0  0  0  0  0  0
    6.8500   -2.6990   23.2920 C   0  0  0  0  0  0  0  0  0  0  0  0
    7.6860   -3.2630   22.1790 C   0  0  0  0  0  0  0  0  0  0  0  0
  1  2  1  0
  2  3  2  0
  2  4  1  0
  4  5  1  0
  5  6  1  0
  6  7  1  0
  7  8  1  0
  8  9  2  0
  8 10  1  0
 10 11  1  0
 11 12  2  0
 12 13  1  0
 13 14  2  0
 14 15  1  0
 15 16  1  0
 16 17  1  0
 17 18  2  0
 11 19  1  0
 15 19  2  0
  7 20  1  0
  4 21  1  0
 20 21  1  0
M  END
