piperidine-amides-30247-covalent
     RDKit          3D

 26 28  0  0  0  0  0  0  0  0999 V2000
    7.0660   -3.3590   19.3300 C   0  0  0  0  0  0  0  0  0  0  0  0
    6.3940   -4.1990   20.3110 C   0  0  0  0  0  0  0  0  0  0  0  0
    5.3740   -4.8050   19.9790 O   0  0  0  0  0  0  0  0  0  0  0  0
    6.9410   -4.3800   21.6320 N   0  0  0  0  0  0  0  0  0  0  0  0
    6.5130   -5.4890   22.4220 C   0  0  0  0  0  0  0  0  0  0  0  0
    5.5830   -5.0090   23.5090 C   0  0  0  0  0  0  0  0  0  0  0  0
    6.2260   -3.8550   24.2750 C   0  0  0  0  0  0  0  0  0  0  0  0
    5.2890   -3.3190   25.3270 C   0  0  0  0  0  0  0  0  0  0  0  0
    4.4560   -2.4330   25.0760 O   0  0  0  0  0  0  0  0  0  0  0  0
    5.3570   -3.8350   26.6560 N   0  0  0  0  0  0  0  0  0  0  0  0
    4.6800   -3.1230   27.6910 C   0  0  0  0  0  0  0  0  0  0  0  0
    5.0560   -3.7780   28.9970 C   0  0  0  0  0  0  0  0  0  0  0  0
    5.7040   -4.9510   29.1300 N   0  0  0  0  0  0  0  0  0  0  0  0
    4.8610   -6.0030   29.1490 C   0  0  0  0  0  0  0  0  0  0  0  0
    4.7910   -6.8600   30.0600 O   0  0  0  0  0  0  0  0  0  0  0  0
    3.9380   -6.3320   28.1510 C   0  0  0  0  0  0  0  0  0  0  0  0
    4.3380   -7.0470   27.0480 C   0  0  0  0  0  0  0  0  0  0  0  0
    3.5140   -7.4940   25.9290 C   0  0  0  0  0  0  0  0  0  0  0  0
    2.4470   -8.3360   26.1030 C   0  0  0  0  0  0  0  0  0  0  0  0
    1.7510   -8.7000   25.0000 C   0  0  0  0  0  0  0  0  0  0  0  0
    2.2170   -8.1620   23.8180 C   0  0  0  0  0  0  0  0  0  0  0  0
    3.6460   -7.1360   24.2540 S   0  0  0  0  0  0  0  0  0  0  0  0
    6.6260   -5.0780   28.1720 C   0  0  0  0  0  0  0  0  0  0  0  0
    6.5260   -4.4720   26.9430 C   0  0  0  0  0  0  0  0  0  0  0  0
    6.6850   -2.7470   23.3620 C   0  0  0  0  0  0  0  0  0  0  0  0
    7.5630   -3.2710   22.2700 C   0  0  0  0  0  0  0  0  0  0  0  0
  1  2  1  0
  2  3  2  0
  2  4  1  0
  4  5  1  0
  5  6  1  0
  6  7  1  0
  7  8  1  0
  8  9  2  0
  8 10  1  0
 10 11  1  0
 11 12  1  0
 12 13  1  0
 13 14  1  0
 14 15  2  0
 14 16  1  0
 16 17  2  3
 17 18  1  0
 18 19  2  0
 19 20  1  0
 20 21  2  0
 18 22  1  0
 21 22  1  0
 13 23  1  0
 10 24  1  0
 23 24  1  0
  7 25  1  0
  4 26  1  0
 25 26  1  0
M  END
