piperidine-amides-31633-covalent
     RDKit          3D

 28 31  0  0  0  0  0  0  0  0999 V2000
    7.1260   -3.3490   19.4160 C   0  0  0  0  0  0  0  0  0  0  0  0
    6.4380   -4.1930   20.3600 C   0  0  0  0  0  0  0  0  0  0  0  0
    5.4060   -4.8360   19.9800 O   0  0  0  0  0  0  0  0  0  0  0  0
    6.9140   -4.3480   21.6720 N   0  0  0  0  0  0  0  0  0  0  0  0
    6.6640   -5.6250   22.3730 C   0  0  0  0  0  0  0  0  0  0  0  0
    5.7090   -5.1250   23.5230 C   0  0  0  0  0  0  0  0  0  0  0  0
    6.4440   -3.9960   24.2160 C   0  0  0  0  0  0  0  0  0  0  0  0
    5.6160   -3.5240   25.4910 C   0  0  0  0  0  0  0  0  0  0  0  0
    4.6910   -2.7910   25.1760 O   0  0  0  0  0  0  0  0  0  0  0  0
    6.1690   -4.0640   26.4940 N   0  0  0  0  0  0  0  0  0  0  0  0
    7.0290   -4.8040   27.1890 C   0  0  0  0  0  0  0  0  0  0  0  0
    7.0040   -5.7280   28.1420 C   0  0  0  0  0  0  0  0  0  0  0  0
    6.2410   -5.1350   29.1430 C   0  0  0  0  0  0  0  0  0  0  0  0
    5.0120   -4.5370   28.5710 C   0  0  1  0  0  0  0  0  0  0  0  0
    3.9560   -4.2570   29.4610 N   0  0  0  0  0  0  0  0  0  0  0  0
    3.9000   -3.2150   30.3140 N   0  0  0  0  0  0  0  0  0  0  0  0
    3.0890   -3.3320   31.3440 C   0  0  0  0  0  0  0  0  0  0  0  0
    2.2500   -4.4090   31.6610 C   0  0  0  0  0  0  0  0  0  0  0  0
    1.6920   -4.6110   32.9880 N   0  0  0  0  0  0  0  0  0  0  0  0
    0.6940   -3.8720   33.5140 C   0  0  0  0  0  0  0  0  0  0  0  0
    0.2870   -5.0470   34.3740 C   0  0  0  0  0  0  0  0  0  0  0  0
    1.4630   -5.8580   33.7350 C   0  0  0  0  0  0  0  0  0  0  0  0
    2.0910   -5.2040   30.4090 C   0  0  0  0  0  0  0  0  0  0  0  0
    2.6890   -4.8840   29.2380 C   0  0  0  0  0  0  0  0  0  0  0  0
    2.0070   -5.2060   28.2510 O   0  0  0  0  0  0  0  0  0  0  0  0
    5.4330   -3.4320   27.6220 C   0  0  0  0  0  0  0  0  0  0  0  0
    6.8890   -2.8610   23.3520 C   0  0  0  0  0  0  0  0  0  0  0  0
    7.6880   -3.3310   22.3240 C   0  0  0  0  0  0  0  0  0  0  0  0
  1  2  1  0
  2  3  2  0
  2  4  1  0
  4  5  1  0
  5  6  1  0
  6  7  1  0
  7  8  1  0
  8  9  2  0
  8 10  1  0
 10 11  1  0
 11 12  1  0
 12 13  1  0
 13 14  1  0
 14 15  1  1
 15 16  1  0
 16 17  2  0
 17 18  1  0
 18 19  1  0
 19 20  1  0
 20 21  1  0
 19 22  1  0
 21 22  1  0
 18 23  2  0
 15 24  1  0
 23 24  1  0
 24 25  2  0
 10 26  1  0
 14 26  1  0
  7 27  1  0
  4 28  1  0
 27 28  1  0
M  END
