piperidine-amides-31397-covalent
     RDKit          3D

 28 31  0  0  0  0  0  0  0  0999 V2000
    6.9940   -3.4310   19.3920 C   0  0  0  0  0  0  0  0  0  0  0  0
    6.3520   -4.2400   20.4130 C   0  0  0  0  0  0  0  0  0  0  0  0
    5.4150   -5.0020   20.0200 O   0  0  0  0  0  0  0  0  0  0  0  0
    6.7400   -4.2440   21.7810 N   0  0  0  0  0  0  0  0  0  0  0  0
    6.6560   -5.5590   22.4910 C   0  0  0  0  0  0  0  0  0  0  0  0
    5.9620   -5.2050   23.8850 C   0  0  0  0  0  0  0  0  0  0  0  0
    6.2810   -3.7590   24.1460 C   0  0  0  0  0  0  0  0  0  0  0  0
    5.7300   -3.0900   25.4990 C   0  0  0  0  0  0  0  0  0  0  0  0
    5.5920   -1.9000   25.2920 O   0  0  0  0  0  0  0  0  0  0  0  0
    5.5280   -3.9030   26.4770 N   0  0  0  0  0  0  0  0  0  0  0  0
    4.9320   -4.8020   27.3170 C   0  0  0  0  0  0  0  0  0  0  0  0
    5.3070   -4.9640   28.5640 C   0  0  1  0  0  0  0  0  0  0  0  0
    6.6290   -4.9200   28.3640 C   0  0  0  0  0  0  0  0  0  0  0  0
    6.4410   -3.6290   27.6910 C   0  0  2  0  0  0  0  0  0  0  0  0
    5.5960   -3.5310   29.0070 C   0  0  1  0  0  0  0  0  0  0  0  0
    4.6060   -2.4800   28.8010 N   0  0  0  0  0  0  0  0  0  0  0  0
    3.4420   -2.5910   29.6250 C   0  0  0  0  0  0  0  0  0  0  0  0
    2.5430   -3.4550   29.5990 O   0  0  0  0  0  0  0  0  0  0  0  0
    3.2070   -1.6160   30.6230 O   0  0  0  0  0  0  0  0  0  0  0  0
    3.3330   -1.7760   31.9910 C   0  0  0  0  0  0  0  0  0  0  0  0
    2.3530   -2.8840   32.3970 C   0  0  0  0  0  0  0  0  0  0  0  0
    2.7790   -4.3680   32.6200 C   0  0  0  0  0  0  0  0  0  0  0  0
    1.8740   -5.3240   32.9820 C   0  0  0  0  0  0  0  0  0  0  0  0
    0.5640   -4.9710   33.1520 C   0  0  0  0  0  0  0  0  0  0  0  0
    0.1500   -3.6890   32.9670 C   0  0  0  0  0  0  0  0  0  0  0  0
    1.0000   -2.6540   32.6010 C   0  0  0  0  0  0  0  0  0  0  0  0
    7.6180   -3.2630   23.7310 C   0  0  0  0  0  0  0  0  0  0  0  0
    7.6550   -3.2160   22.2430 C   0  0  0  0  0  0  0  0  0  0  0  0
  1  2  1  0
  2  3  2  0
  2  4  1  0
  4  5  1  0
  5  6  1  0
  6  7  1  0
  7  8  1  0
  8  9  2  0
  8 10  1  0
 10 11  1  0
 12 11  1  6
 12 13  1  0
 10 14  1  0
 14 13  1  1
 12 15  1  0
 14 15  1  0
 15 16  1  6
 16 17  1  0
 17 18  2  0
 17 19  1  0
 19 20  1  0
 20 21  1  0
 21 22  2  0
 22 23  1  0
 23 24  2  0
 24 25  1  0
 21 26  1  0
 25 26  2  0
  7 27  1  0
  4 28  1  0
 27 28  1  0
M  END
