piperidine-amides-6933-covalent
     RDKit          3D

 22 23  0  0  0  0  0  0  0  0999 V2000
    7.0960   -3.3270   19.3450 C   0  0  0  0  0  0  0  0  0  0  0  0
    6.3560   -4.1470   20.3050 C   0  0  0  0  0  0  0  0  0  0  0  0
    5.3230   -4.7530   19.9540 O   0  0  0  0  0  0  0  0  0  0  0  0
    6.8340   -4.3080   21.6050 N   0  0  0  0  0  0  0  0  0  0  0  0
    7.5820   -3.2450   22.2420 C   0  0  0  0  0  0  0  0  0  0  0  0
    6.6950   -2.7010   23.3660 C   0  0  0  0  0  0  0  0  0  0  0  0
    6.5350   -3.8430   24.3420 C   0  0  0  0  0  0  0  0  0  0  0  0
    5.7050   -3.4160   25.4990 C   0  0  0  0  0  0  0  0  0  0  0  0
    4.4590   -3.3890   25.3810 O   0  0  0  0  0  0  0  0  0  0  0  0
    6.3040   -3.0660   26.7410 N   0  0  0  0  0  0  0  0  0  0  0  0
    6.2840   -1.6910   27.1980 C   0  0  0  0  0  0  0  0  0  0  0  0
    7.1440   -1.1120   27.8150 C   0  0  0  0  0  0  0  0  0  0  0  0
    5.5280   -1.2110   27.9080 N   0  0  0  0  0  0  0  0  0  0  0  0
    4.4650   -1.0460   26.9140 N   0  0  0  0  0  0  0  0  0  0  0  0
    3.1880   -1.2750   26.5370 C   0  0  0  0  0  0  0  0  0  0  0  0
    5.2800   -0.4440   27.1060 C   0  0  0  0  0  0  0  0  0  0  0  0
    5.5900    0.9220   27.1910 C   0  0  0  0  0  0  0  0  0  0  0  0
    6.1090    1.4410   26.0210 F   0  0  0  0  0  0  0  0  0  0  0  0
    4.4370    1.6130   27.4650 F   0  0  0  0  0  0  0  0  0  0  0  0
    6.4820    1.1990   28.2100 F   0  0  0  0  0  0  0  0  0  0  0  0
    5.9410   -5.0620   23.7160 C   0  0  0  0  0  0  0  0  0  0  0  0
    6.5130   -5.4730   22.3830 C   0  0  0  0  0  0  0  0  0  0  0  0
  1  2  1  0
  2  3  2  0
  2  4  1  0
  4  5  1  0
  5  6  1  0
  6  7  1  0
  7  8  1  0
  8  9  2  0
  8 10  1  0
 10 11  1  0
 11 12  1  0
 12 13  2  0
 13 14  1  0
 14 15  1  0
 11 16  2  0
 14 16  1  0
 16 17  1  0
 17 18  1  0
 17 19  1  0
 17 20  1  0
  7 21  1  0
  4 22  1  0
 21 22  1  0
M  END
