piperidine-amides-28611-covalent
     RDKit          3D

 27 29  0  0  0  0  0  0  0  0999 V2000
    7.0120   -3.2140   19.2460 C   0  0  0  0  0  0  0  0  0  0  0  0
    6.2250   -3.9440   20.2490 C   0  0  0  0  0  0  0  0  0  0  0  0
    5.2250   -4.5630   19.8610 O   0  0  0  0  0  0  0  0  0  0  0  0
    6.5480   -4.0120   21.6270 N   0  0  0  0  0  0  0  0  0  0  0  0
    7.5150   -3.1050   22.2130 C   0  0  0  0  0  0  0  0  0  0  0  0
    7.2610   -2.8400   23.6850 C   0  0  0  0  0  0  0  0  0  0  0  0
    5.8330   -3.2400   24.0270 C   0  0  0  0  0  0  0  0  0  0  0  0
    5.3410   -2.8350   25.4200 C   0  0  0  0  0  0  0  0  0  0  0  0
    4.1300   -2.9590   25.5590 O   0  0  0  0  0  0  0  0  0  0  0  0
    6.1880   -2.3640   26.4550 N   0  0  0  0  0  0  0  0  0  0  0  0
    6.5120   -3.1750   27.5800 C   0  0  0  0  0  0  0  0  0  0  0  0
    7.3830   -4.1140   27.1630 C   0  0  0  0  0  0  0  0  0  0  0  0
    8.2740   -4.7660   27.9510 C   0  0  0  0  0  0  0  0  0  0  0  0
    9.1790   -5.7110   27.5150 C   0  0  0  0  0  0  0  0  0  0  0  0
    9.1520   -6.0270   26.0530 C   0  0  0  0  0  0  0  0  0  0  0  0
    8.1360   -5.2970   25.1750 C   0  0  0  0  0  0  0  0  0  0  0  0
    7.9220   -5.4420   23.7170 C   0  0  0  0  0  0  0  0  0  0  0  0
    7.5910   -6.6620   23.0520 N   0  0  0  0  0  0  0  0  0  0  0  0
    7.2910   -4.3470   25.8430 C   0  0  0  0  0  0  0  0  0  0  0  0
    6.0570   -0.9600   26.8490 C   0  0  0  0  0  0  0  0  0  0  0  0
    5.7950    0.0160   25.9330 C   0  0  0  0  0  0  0  0  0  0  0  0
    5.6740    1.3080   26.3310 N   0  0  0  0  0  0  0  0  0  0  0  0
    5.7960    1.7230   27.5960 C   0  0  0  0  0  0  0  0  0  0  0  0
    6.0850    0.6050   28.5720 C   0  0  0  0  0  0  0  0  0  0  0  0
    6.1980   -0.6590   28.1490 N   0  0  0  0  0  0  0  0  0  0  0  0
    5.5900   -4.7460   23.7740 C   0  0  0  0  0  0  0  0  0  0  0  0
    6.0040   -5.1060   22.3560 C   0  0  0  0  0  0  0  0  0  0  0  0
  1  2  1  0
  2  3  2  0
  2  4  1  0
  4  5  1  0
  5  6  1  0
  6  7  1  0
  7  8  1  0
  8  9  2  0
  8 10  1  0
 10 11  1  0
 11 12  1  0
 12 13  2  0
 13 14  1  0
 14 15  2  0
 15 16  1  0
 16 17  1  0
 17 18  3  0
 12 19  1  0
 16 19  2  0
 10 20  1  0
 20 21  2  0
 21 22  1  0
 22 23  2  0
 23 24  1  0
 20 25  1  0
 24 25  2  0
  7 26  1  0
  4 27  1  0
 26 27  1  0
M  END
