piperidine-amides-12474-covalent
     RDKit          3D

 24 25  0  0  0  0  0  0  0  0999 V2000
    7.1150   -3.2800   19.1960 C   0  0  0  0  0  0  0  0  0  0  0  0
    6.3420   -4.0240   20.1880 C   0  0  0  0  0  0  0  0  0  0  0  0
    5.2730   -4.5350   19.8760 O   0  0  0  0  0  0  0  0  0  0  0  0
    6.8500   -4.2170   21.5110 N   0  0  0  0  0  0  0  0  0  0  0  0
    7.6940   -3.2100   22.1010 C   0  0  0  0  0  0  0  0  0  0  0  0
    7.0810   -2.7050   23.3640 C   0  0  0  0  0  0  0  0  0  0  0  0
    6.5770   -3.9010   24.1470 C   0  0  0  0  0  0  0  0  0  0  0  0
    5.8530   -3.3620   25.3200 C   0  0  0  0  0  0  0  0  0  0  0  0
    4.6100   -3.3350   25.4140 O   0  0  0  0  0  0  0  0  0  0  0  0
    6.6520   -2.8450   26.3510 N   0  0  0  0  0  0  0  0  0  0  0  0
    6.1290   -2.6930   27.6780 C   0  0  0  0  0  0  0  0  0  0  0  0
    6.1220   -4.0050   28.4240 C   0  0  0  0  0  0  0  0  0  0  0  0
    5.0540   -4.8650   28.2910 C   0  0  0  0  0  0  0  0  0  0  0  0
    3.5540   -4.2810   29.1090 S   0  0  0  0  0  0  0  0  0  0  0  0
    2.7910   -3.4880   28.1020 O   0  0  0  0  0  0  0  0  0  0  0  0
    3.8400   -3.4010   30.2850 O   0  0  0  0  0  0  0  0  0  0  0  0
    2.5630   -5.6550   29.5770 C   0  0  0  0  0  0  0  0  0  0  0  0
    1.3710   -5.2990   30.1980 C   0  0  0  0  0  0  0  0  0  0  0  0
    0.4850   -6.3860   30.6130 C   0  0  0  0  0  0  0  0  0  0  0  0
    0.7860   -7.7100   30.4150 C   0  0  0  0  0  0  0  0  0  0  0  0
    1.9780   -7.9790   29.7980 C   0  0  0  0  0  0  0  0  0  0  0  0
    2.8590   -6.9920   29.3820 C   0  0  0  0  0  0  0  0  0  0  0  0
    5.7890   -4.8760   23.4160 C   0  0  0  0  0  0  0  0  0  0  0  0
    6.4790   -5.3500   22.3140 C   0  0  0  0  0  0  0  0  0  0  0  0
  1  2  1  0
  2  3  2  0
  2  4  1  0
  4  5  1  0
  5  6  1  0
  6  7  1  0
  7  8  1  0
  8  9  2  0
  8 10  1  0
 10 11  1  0
 11 12  1  0
 12 13  1  0
 14 13  1  0
 14 15  2  0
 14 16  2  0
 14 17  1  0
 17 18  2  0
 18 19  1  0
 19 20  2  0
 20 21  1  0
 17 22  1  0
 21 22  2  0
  7 23  1  0
  4 24  1  0
 23 24  1  0
M  END
