piperidine-amides-28762-covalent
     RDKit          3D

 26 28  0  0  0  0  0  0  0  0999 V2000
    7.0680   -3.3590   19.3470 C   0  0  0  0  0  0  0  0  0  0  0  0
    6.4200   -4.2290   20.3230 C   0  0  0  0  0  0  0  0  0  0  0  0
    5.3760   -4.8130   19.9740 O   0  0  0  0  0  0  0  0  0  0  0  0
    7.0030   -4.4470   21.6010 N   0  0  0  0  0  0  0  0  0  0  0  0
    6.4380   -5.4910   22.3830 C   0  0  0  0  0  0  0  0  0  0  0  0
    5.5540   -4.8370   23.4010 C   0  0  0  0  0  0  0  0  0  0  0  0
    6.4700   -4.0610   24.3260 C   0  0  0  0  0  0  0  0  0  0  0  0
    5.6640   -3.4360   25.4380 C   0  0  0  0  0  0  0  0  0  0  0  0
    4.9400   -2.5170   25.0800 O   0  0  0  0  0  0  0  0  0  0  0  0
    5.7230   -3.8910   26.7640 N   0  0  0  0  0  0  0  0  0  0  0  0
    4.6410   -3.5820   27.6410 C   0  0  0  0  0  0  0  0  0  0  0  0
    4.1250   -4.6090   28.4710 C   0  0  0  0  0  0  0  0  0  0  0  0
    5.2620   -5.3210   29.0620 N   0  0  0  0  0  0  0  0  0  0  0  0
    5.2760   -6.1620   30.1920 C   0  0  0  0  0  0  0  0  0  0  0  0
    6.4590   -6.8290   30.2450 O   0  0  0  0  0  0  0  0  0  0  0  0
    4.1800   -6.2160   31.0410 C   0  0  0  0  0  0  0  0  0  0  0  0
    3.0030   -6.0620   30.6410 O   0  0  0  0  0  0  0  0  0  0  0  0
    4.4260   -6.4500   32.3860 N   0  0  0  0  0  0  0  0  0  0  0  0
    5.1650   -7.5370   32.8560 C   0  0  0  0  0  0  0  0  0  0  0  0
    4.3830   -8.0990   34.0380 C   0  0  0  0  0  0  0  0  0  0  0  0
    3.0950   -7.3190   33.9990 C   0  0  0  0  0  0  0  0  0  0  0  0
    3.4350   -5.9830   33.3290 C   0  0  0  0  0  0  0  0  0  0  0  0
    6.5340   -4.9340   28.5990 C   0  0  0  0  0  0  0  0  0  0  0  0
    6.3990   -3.7120   28.0100 C   0  0  0  0  0  0  0  0  0  0  0  0
    7.1050   -2.9360   23.5450 C   0  0  0  0  0  0  0  0  0  0  0  0
    7.6820   -3.3290   22.2130 C   0  0  0  0  0  0  0  0  0  0  0  0
  1  2  1  0
  2  3  2  0
  2  4  1  0
  4  5  1  0
  5  6  1  0
  6  7  1  0
  7  8  1  0
  8  9  2  0
  8 10  1  0
 10 11  1  0
 11 12  1  0
 12 13  1  0
 13 14  1  0
 14 15  2  0
 14 16  1  0
 16 17  2  0
 16 18  1  0
 18 19  1  0
 19 20  1  0
 20 21  1  0
 18 22  1  0
 21 22  1  0
 13 23  1  0
 10 24  1  0
 23 24  1  0
  7 25  1  0
  4 26  1  0
 25 26  1  0
M  END
