piperidine-amides-2363-covalent
     RDKit          3D

 27 29  0  0  0  0  0  0  0  0999 V2000
    7.0060   -3.3400   19.3550 C   0  0  0  0  0  0  0  0  0  0  0  0
    6.3500   -4.1850   20.3870 C   0  0  0  0  0  0  0  0  0  0  0  0
    5.4120   -4.8850   19.9970 O   0  0  0  0  0  0  0  0  0  0  0  0
    6.8200   -4.2010   21.7160 N   0  0  0  0  0  0  0  0  0  0  0  0
    7.7140   -3.1810   22.2250 C   0  0  0  0  0  0  0  0  0  0  0  0
    7.4420   -2.9650   23.6840 C   0  0  0  0  0  0  0  0  0  0  0  0
    6.0520   -3.5170   23.9610 C   0  0  0  0  0  0  0  0  0  0  0  0
    5.6100   -3.1990   25.3460 C   0  0  0  0  0  0  0  0  0  0  0  0
    4.4080   -3.3220   25.6140 O   0  0  0  0  0  0  0  0  0  0  0  0
    6.4960   -2.7670   26.3600 N   0  0  0  0  0  0  0  0  0  0  0  0
    6.5010   -1.3700   26.7940 C   0  0  2  0  0  0  0  0  0  0  0  0
    7.0670   -1.4140   28.2040 C   0  0  0  0  0  0  0  0  0  0  0  0
    6.6200   -0.5880   29.1700 C   0  0  0  0  0  0  0  0  0  0  0  0
    6.0460    0.5070   28.6520 C   0  0  0  0  0  0  0  0  0  0  0  0
    5.9500    0.5080   27.2110 N   0  0  0  0  0  0  0  0  0  0  0  0
    5.9490    1.7700   26.5010 C   0  0  0  0  0  0  0  0  0  0  0  0
    6.4620    1.7640   25.0660 C   0  0  0  0  0  0  0  0  0  0  0  0
    6.4270    3.1200   24.4280 C   0  0  0  0  0  0  0  0  0  0  0  0
    5.9270    4.3170   25.1790 C   0  0  0  0  0  0  0  0  0  0  0  0
    5.4610    4.1410   26.5760 C   0  0  0  0  0  0  0  0  0  0  0  0
    5.4200    2.8860   27.3760 C   0  0  0  0  0  0  0  0  0  0  0  0
    4.9930    2.8710   28.5810 O   0  0  0  0  0  0  0  0  0  0  0  0
    3.6500    3.0490   28.7500 C   0  0  0  0  0  0  0  0  0  0  0  0
    5.2210   -0.6060   26.6230 C   0  0  0  0  0  0  0  0  0  0  0  0
    4.2920    0.3970   26.6450 O   0  0  0  0  0  0  0  0  0  0  0  0
    6.0180   -5.0250   23.7250 C   0  0  0  0  0  0  0  0  0  0  0  0
    6.6580   -5.3930   22.5410 C   0  0  0  0  0  0  0  0  0  0  0  0
  1  2  1  0
  2  3  2  0
  2  4  1  0
  4  5  1  0
  5  6  1  0
  6  7  1  0
  7  8  1  0
  8  9  2  0
  8 10  1  0
 11 10  1  1
 11 12  1  0
 12 13  1  0
 13 14  1  0
 14 15  1  0
 15 16  1  0
 16 17  2  0
 17 18  1  0
 18 19  2  0
 19 20  1  0
 16 21  1  0
 20 21  2  0
 21 22  1  0
 22 23  1  0
 11 24  1  0
 15 24  1  0
 24 25  2  0
  7 26  1  0
  4 27  1  0
 26 27  1  0
M  END
