piperidine-amides-27657-covalent
     RDKit          3D

 26 28  0  0  0  0  0  0  0  0999 V2000
    7.0850   -3.3440   19.2910 C   0  0  0  0  0  0  0  0  0  0  0  0
    6.3980   -4.2030   20.2530 C   0  0  0  0  0  0  0  0  0  0  0  0
    5.2780   -4.6610   19.9150 O   0  0  0  0  0  0  0  0  0  0  0  0
    7.0140   -4.5400   21.4520 N   0  0  0  0  0  0  0  0  0  0  0  0
    6.5890   -5.7230   22.1480 C   0  0  0  0  0  0  0  0  0  0  0  0
    5.6760   -5.2910   23.2590 C   0  0  0  0  0  0  0  0  0  0  0  0
    6.2770   -4.1900   24.0800 C   0  0  0  0  0  0  0  0  0  0  0  0
    5.3060   -3.7490   25.0830 C   0  0  0  0  0  0  0  0  0  0  0  0
    4.2270   -3.2630   24.6960 O   0  0  0  0  0  0  0  0  0  0  0  0
    5.5250   -3.8400   26.4450 N   0  0  0  0  0  0  0  0  0  0  0  0
    4.7540   -4.7530   27.2370 C   0  0  0  0  0  0  0  0  0  0  0  0
    4.9800   -4.4830   28.7070 C   0  0  0  0  0  0  0  0  0  0  0  0
    5.9840   -3.6780   29.1020 C   0  0  0  0  0  0  0  0  0  0  0  0
    6.7240   -3.0930   28.1590 C   0  0  0  0  0  0  0  0  0  0  0  0
    6.0460   -2.6810   27.0410 C   0  0  1  0  0  0  0  0  0  0  0  0
    6.4830   -1.7840   26.0410 C   0  0  0  0  0  0  0  0  0  0  0  0
    5.9450   -0.4990   25.9510 C   0  0  0  0  0  0  0  0  0  0  0  0
    6.2740    0.5890   24.9200 C   0  0  0  0  0  0  0  0  0  0  0  0
    7.3270    0.1530   23.8940 C   0  0  0  0  0  0  0  0  0  0  0  0
    7.9210    0.9210   22.7210 C   0  0  0  0  0  0  0  0  0  0  0  0
    8.0790    0.1430   21.4210 C   0  0  0  0  0  0  0  0  0  0  0  0
    9.1000    1.7650   22.9640 C   0  0  0  0  0  0  0  0  0  0  0  0
    7.9120   -1.2480   24.0090 C   0  0  0  0  0  0  0  0  0  0  0  0
    7.4350   -2.1670   25.1180 C   0  0  0  0  0  0  0  0  0  0  0  0
    6.7620   -3.0680   23.2390 C   0  0  0  0  0  0  0  0  0  0  0  0
    7.6520   -3.4880   22.1680 C   0  0  0  0  0  0  0  0  0  0  0  0
  1  2  1  0
  2  3  2  0
  2  4  1  0
  4  5  1  0
  5  6  1  0
  6  7  1  0
  7  8  1  0
  8  9  2  0
  8 10  1  0
 10 11  1  0
 11 12  1  0
 12 13  1  0
 13 14  1  0
 10 15  1  0
 14 15  1  0
 15 16  1  6
 16 17  2  0
 17 18  1  0
 18 19  2  0
 19 20  1  0
 20 21  1  0
 20 22  1  0
 19 23  1  0
 16 24  1  0
 23 24  2  0
  7 25  1  0
  4 26  1  0
 25 26  1  0
M  END
