piperidine-amides-1930-covalent
     RDKit          3D

 27 28  0  0  0  0  0  0  0  0999 V2000
    7.1400   -3.1840   19.0890 C   0  0  0  0  0  0  0  0  0  0  0  0
    6.3570   -3.8900   20.1320 C   0  0  0  0  0  0  0  0  0  0  0  0
    5.2830   -4.3860   19.8070 O   0  0  0  0  0  0  0  0  0  0  0  0
    6.8500   -4.0160   21.4180 N   0  0  0  0  0  0  0  0  0  0  0  0
    7.8420   -3.1200   21.9990 C   0  0  0  0  0  0  0  0  0  0  0  0
    7.3190   -2.4560   23.2440 C   0  0  0  0  0  0  0  0  0  0  0  0
    6.6850   -3.5260   24.1110 C   0  0  0  0  0  0  0  0  0  0  0  0
    6.2180   -2.9110   25.3750 C   0  0  0  0  0  0  0  0  0  0  0  0
    4.9950   -2.7400   25.5710 O   0  0  0  0  0  0  0  0  0  0  0  0
    7.1770   -2.5090   26.3410 N   0  0  0  0  0  0  0  0  0  0  0  0
    7.2860   -3.2050   27.6120 C   0  0  0  0  0  0  0  0  0  0  0  0
    7.6360   -4.6410   27.3280 C   0  0  0  0  0  0  0  0  0  0  0  0
    6.5800   -5.4250   27.7830 F   0  0  0  0  0  0  0  0  0  0  0  0
    8.7830   -5.0910   27.9640 F   0  0  0  0  0  0  0  0  0  0  0  0
    7.7320   -4.8530   25.9730 O   0  0  0  0  0  0  0  0  0  0  0  0
    6.9620   -5.7030   25.3030 C   0  0  0  0  0  0  0  0  0  0  0  0
    5.6450   -5.4620   25.4470 C   0  0  0  0  0  0  0  0  0  0  0  0
    4.7790   -6.2940   24.8160 C   0  0  0  0  0  0  0  0  0  0  0  0
    5.1350   -7.4840   23.9630 C   0  0  0  0  0  0  0  0  0  0  0  0
    6.6380   -7.6450   23.8870 C   0  0  0  0  0  0  0  0  0  0  0  0
    7.3140   -8.8550   23.1430 C   0  0  0  0  0  0  0  0  0  0  0  0
    8.5600   -8.3440   23.1310 O   0  0  0  0  0  0  0  0  0  0  0  0
    7.0300  -10.3320   22.9790 O   0  0  0  0  0  0  0  0  0  0  0  0
    7.2710  -11.8720   22.3320 C   0  0  0  0  0  0  0  0  0  0  0  0
    7.4510   -6.7370   24.5510 C   0  0  0  0  0  0  0  0  0  0  0  0
    5.6810   -4.3300   23.3820 C   0  0  0  0  0  0  0  0  0  0  0  0
    6.2830   -5.0480   22.2400 C   0  0  0  0  0  0  0  0  0  0  0  0
  1  2  1  0
  2  3  2  0
  2  4  1  0
  4  5  1  0
  5  6  1  0
  6  7  1  0
  7  8  1  0
  8  9  2  0
  8 10  1  0
 10 11  1  0
 11 12  1  0
 12 13  1  0
 12 14  1  0
 12 15  1  0
 15 16  1  0
 16 17  2  0
 17 18  1  0
 18 19  2  0
 19 20  1  0
 20 21  1  0
 21 22  2  0
 21 23  1  0
 23 24  1  0
 16 25  1  0
 20 25  2  0
  7 26  1  0
  4 27  1  0
 26 27  1  0
M  END
