piperidine-amides-19428-covalent
     RDKit          3D

 22 24  0  0  0  0  0  0  0  0999 V2000
    7.0450   -3.4330   19.4070 C   0  0  0  0  0  0  0  0  0  0  0  0
    6.4200   -4.2710   20.4060 C   0  0  0  0  0  0  0  0  0  0  0  0
    5.4050   -4.9330   20.0140 O   0  0  0  0  0  0  0  0  0  0  0  0
    6.9030   -4.4430   21.7340 N   0  0  0  0  0  0  0  0  0  0  0  0
    6.5030   -5.6360   22.4780 C   0  0  0  0  0  0  0  0  0  0  0  0
    5.4740   -4.9500   23.4530 C   0  0  0  0  0  0  0  0  0  0  0  0
    6.1870   -3.8520   24.2370 C   0  0  0  0  0  0  0  0  0  0  0  0
    5.1180   -3.1000   25.1670 C   0  0  0  0  0  0  0  0  0  0  0  0
    4.4970   -2.3180   24.4790 O   0  0  0  0  0  0  0  0  0  0  0  0
    5.1200   -3.4560   26.3940 N   0  0  0  0  0  0  0  0  0  0  0  0
    4.6570   -3.8680   27.6090 C   0  0  0  0  0  0  0  0  0  0  0  0
    5.2790   -4.2050   28.7270 C   0  0  0  0  0  0  0  0  0  0  0  0
    6.5490   -4.0270   28.2630 C   0  0  0  0  0  0  0  0  0  0  0  0
    6.4350   -3.1560   27.0310 C   0  0  2  0  0  0  0  0  0  0  0  0
    6.3750   -1.8310   27.8230 C   0  0  0  0  0  0  0  0  0  0  0  0
    6.4970   -2.0410   29.1300 C   0  0  0  0  0  0  0  0  0  0  0  0
    6.4260   -0.7470   29.5650 C   0  0  0  0  0  0  0  0  0  0  0  0
    6.2700    0.1370   28.5180 N   0  0  0  0  0  0  0  0  0  0  0  0
    6.1650    1.5720   28.6200 C   0  0  0  0  0  0  0  0  0  0  0  0
    6.2350   -0.6050   27.3450 N   0  0  0  0  0  0  0  0  0  0  0  0
    7.0480   -2.9100   23.4190 C   0  0  0  0  0  0  0  0  0  0  0  0
    7.7550   -3.5100   22.4070 C   0  0  0  0  0  0  0  0  0  0  0  0
  1  2  1  0
  2  3  2  0
  2  4  1  0
  4  5  1  0
  5  6  1  0
  6  7  1  0
  7  8  1  0
  8  9  2  0
  8 10  1  0
 10 11  1  0
 11 12  1  0
 12 13  1  0
 10 14  1  0
 13 14  1  0
 14 15  1  1
 15 16  1  0
 16 17  2  0
 17 18  1  0
 18 19  1  0
 15 20  2  0
 18 20  1  0
  7 21  1  0
  4 22  1  0
 21 22  1  0
M  END
