piperidine-amides-31717-covalent
     RDKit          3D

 28 31  0  0  0  0  0  0  0  0999 V2000
    7.0890   -3.3890   19.2740 C   0  0  0  0  0  0  0  0  0  0  0  0
    6.4230   -4.1700   20.2890 C   0  0  0  0  0  0  0  0  0  0  0  0
    5.3410   -4.7490   19.9640 O   0  0  0  0  0  0  0  0  0  0  0  0
    6.9670   -4.3650   21.5730 N   0  0  0  0  0  0  0  0  0  0  0  0
    6.6020   -5.5940   22.3170 C   0  0  0  0  0  0  0  0  0  0  0  0
    5.5330   -5.0370   23.3410 C   0  0  0  0  0  0  0  0  0  0  0  0
    6.1570   -3.8390   24.0320 C   0  0  0  0  0  0  0  0  0  0  0  0
    5.1120   -3.1910   25.0410 C   0  0  0  0  0  0  0  0  0  0  0  0
    4.0390   -3.0610   24.4830 O   0  0  0  0  0  0  0  0  0  0  0  0
    5.6280   -2.9720   26.1820 N   0  0  0  0  0  0  0  0  0  0  0  0
    5.7270   -2.7260   27.4840 C   0  0  0  0  0  0  0  0  0  0  0  0
    6.9420   -2.7540   27.6070 C   0  0  0  0  0  0  0  0  0  0  0  0
    7.7230   -2.0260   28.5110 C   0  0  0  0  0  0  0  0  0  0  0  0
    6.9810   -1.0480   29.2860 C   0  0  0  0  0  0  0  0  0  0  0  0
    7.0550   -0.0410   28.3560 O   0  0  0  0  0  0  0  0  0  0  0  0
    6.6390   -0.6490   27.1560 C   0  0  0  0  0  0  0  0  0  0  0  0
    7.5710   -1.6740   26.7480 C   0  0  0  0  0  0  0  0  0  0  0  0
    7.1970   -3.0840   26.3100 C   0  0  2  0  0  0  0  0  0  0  0  0
    7.8820   -2.1900   25.2080 C   0  0  0  0  0  0  0  0  0  0  0  0
    7.3750   -0.9640   24.4050 C   0  0  0  0  0  0  0  0  0  0  0  0
    8.4970   -0.5830   23.5130 N   0  0  0  0  0  0  0  0  0  0  0  0
    9.5610   -1.4270   23.7030 N   0  0  0  0  0  0  0  0  0  0  0  0
   10.8520   -1.4280   23.0470 C   0  0  0  0  0  0  0  0  0  0  0  0
   11.3620   -0.1600   23.0770 C   0  0  0  0  0  0  0  0  0  0  0  0
   11.8080   -2.2470   23.8620 C   0  0  0  0  0  0  0  0  0  0  0  0
    9.1390   -2.3480   24.7150 C   0  0  0  0  0  0  0  0  0  0  0  0
    6.7320   -2.7690   23.1760 C   0  0  0  0  0  0  0  0  0  0  0  0
    7.7090   -3.3180   22.2160 C   0  0  0  0  0  0  0  0  0  0  0  0
  1  2  1  0
  2  3  2  0
  2  4  1  0
  4  5  1  0
  5  6  1  0
  6  7  1  0
  7  8  1  0
  8  9  2  0
  8 10  1  0
 10 11  1  0
 12 11  1  0
 12 13  1  0
 13 14  1  0
 14 15  1  0
 15 16  1  0
 12 17  1  0
 16 17  1  0
 10 18  1  0
 12 18  1  0
 18 19  1  6
 19 20  1  0
 20 21  2  0
 21 22  1  0
 22 23  1  0
 23 24  1  0
 23 25  1  0
 19 26  2  0
 22 26  1  0
  7 27  1  0
  4 28  1  0
 27 28  1  0
M  END
