piperidine-amides-24001-covalent
     RDKit          3D

 24 26  0  0  0  0  0  0  0  0999 V2000
    7.0850   -3.3870   19.4120 C   0  0  0  0  0  0  0  0  0  0  0  0
    6.4160   -4.2530   20.3900 C   0  0  0  0  0  0  0  0  0  0  0  0
    5.3800   -4.8400   19.9910 O   0  0  0  0  0  0  0  0  0  0  0  0
    6.9560   -4.4650   21.6950 N   0  0  0  0  0  0  0  0  0  0  0  0
    6.4250   -5.5070   22.4860 C   0  0  0  0  0  0  0  0  0  0  0  0
    5.7930   -5.0660   23.7380 C   0  0  0  0  0  0  0  0  0  0  0  0
    6.2520   -3.7830   24.3470 C   0  0  0  0  0  0  0  0  0  0  0  0
    5.2570   -3.2490   25.3690 C   0  0  0  0  0  0  0  0  0  0  0  0
    4.3970   -2.4390   24.9990 O   0  0  0  0  0  0  0  0  0  0  0  0
    5.2780   -3.6520   26.7340 N   0  0  0  0  0  0  0  0  0  0  0  0
    6.3110   -4.3710   27.2100 C   0  0  0  0  0  0  0  0  0  0  0  0
    6.3840   -4.9040   28.5380 C   0  0  0  0  0  0  0  0  0  0  0  0
    5.3200   -4.8530   29.3200 N   0  0  0  0  0  0  0  0  0  0  0  0
    4.9330   -6.0010   30.1210 C   0  0  0  0  0  0  0  0  0  0  0  0
    3.7530   -5.8180   30.8240 C   0  0  0  0  0  0  0  0  0  0  0  0
    3.4360   -4.5070   31.0890 N   0  0  0  0  0  0  0  0  0  0  0  0
    2.1860   -4.4350   31.8360 C   0  0  0  0  0  0  0  0  0  0  0  0
    1.9300   -5.8720   31.8960 C   0  0  0  0  0  0  0  0  0  0  0  0
    2.8010   -6.6600   31.3310 N   0  0  0  0  0  0  0  0  0  0  0  0
    2.7620   -7.9960   31.2670 C   0  0  0  0  0  0  0  0  0  0  0  0
    4.4280   -3.7990   29.0670 C   0  0  0  0  0  0  0  0  0  0  0  0
    4.6280   -2.9580   27.7880 C   0  0  0  0  0  0  0  0  0  0  0  0
    6.5850   -2.7190   23.2840 C   0  0  0  0  0  0  0  0  0  0  0  0
    7.5870   -3.3090   22.3510 C   0  0  0  0  0  0  0  0  0  0  0  0
  1  2  1  0
  2  3  2  0
  2  4  1  0
  4  5  1  0
  5  6  1  0
  6  7  1  0
  7  8  1  0
  8  9  2  0
  8 10  1  0
 10 11  1  0
 11 12  1  0
 12 13  1  0
 13 14  1  0
 14 15  1  0
 15 16  2  0
 16 17  1  0
 17 18  2  0
 15 19  1  0
 18 19  1  0
 19 20  1  0
 13 21  1  0
 10 22  1  0
 21 22  1  0
  7 23  1  0
  4 24  1  0
 23 24  1  0
M  END
