piperidine-amides-13737-covalent
     RDKit          3D

 28 29  0  0  0  0  0  0  0  0999 V2000
    7.0840   -3.3270   19.3280 C   0  0  0  0  0  0  0  0  0  0  0  0
    6.4020   -4.1910   20.3240 C   0  0  0  0  0  0  0  0  0  0  0  0
    5.3800   -4.8130   19.9820 O   0  0  0  0  0  0  0  0  0  0  0  0
    6.9720   -4.3190   21.6130 N   0  0  0  0  0  0  0  0  0  0  0  0
    7.7330   -3.2640   22.2330 C   0  0  0  0  0  0  0  0  0  0  0  0
    6.8310   -2.6670   23.3090 C   0  0  0  0  0  0  0  0  0  0  0  0
    6.4790   -3.7700   24.2500 C   0  0  0  0  0  0  0  0  0  0  0  0
    5.7050   -3.2610   25.4040 C   0  0  0  0  0  0  0  0  0  0  0  0
    4.4980   -3.0780   25.2110 O   0  0  0  0  0  0  0  0  0  0  0  0
    6.3170   -3.0160   26.6320 N   0  0  0  0  0  0  0  0  0  0  0  0
    6.3700   -1.7510   27.2840 C   0  0  0  0  0  0  0  0  0  0  0  0
    6.9610   -1.5840   28.5180 C   0  0  0  0  0  0  0  0  0  0  0  0
    7.0180   -0.3540   29.1870 C   0  0  0  0  0  0  0  0  0  0  0  0
    6.4720    0.7690   28.6230 C   0  0  0  0  0  0  0  0  0  0  0  0
    5.8260    0.6380   27.2950 C   0  0  0  0  0  0  0  0  0  0  0  0
    5.1440    1.7150   26.4380 C   0  0  0  0  0  0  0  0  0  0  0  0
    4.3060    2.6020   27.1040 O   0  0  0  0  0  0  0  0  0  0  0  0
    2.9190    2.3720   27.2250 C   0  0  0  0  0  0  0  0  0  0  0  0
    2.4440    2.7590   28.4610 C   0  0  1  0  0  0  0  0  0  0  0  0
    2.9820    3.8990   29.2510 C   0  0  0  0  0  0  0  0  0  0  0  0
    3.2080    3.0040   30.4600 C   0  0  0  0  0  0  0  0  0  0  0  0
    1.0960    3.4910   28.3900 C   0  0  0  0  0  0  0  0  0  0  0  0
    0.9790    4.7760   27.5360 C   0  0  0  0  0  0  0  0  0  0  0  0
    1.0180    6.1110   28.2490 C   0  0  0  0  0  0  0  0  0  0  0  0
    0.2930    7.2920   27.5970 C   0  0  0  0  0  0  0  0  0  0  0  0
    5.7940   -0.6120   26.6670 C   0  0  0  0  0  0  0  0  0  0  0  0
    5.7850   -4.9290   23.5540 C   0  0  0  0  0  0  0  0  0  0  0  0
    6.5100   -5.3810   22.4870 C   0  0  0  0  0  0  0  0  0  0  0  0
  1  2  1  0
  2  3  2  0
  2  4  1  0
  4  5  1  0
  5  6  1  0
  6  7  1  0
  7  8  1  0
  8  9  2  0
  8 10  1  0
 10 11  1  0
 11 12  2  0
 12 13  1  0
 13 14  2  0
 14 15  1  0
 15 16  1  0
 16 17  1  0
 17 18  1  0
 19 18  1  6
 19 20  1  0
 20 21  1  0
 19 22  1  0
 22 23  1  0
 23 24  1  0
 24 25  1  0
 11 26  1  0
 15 26  2  0
  7 27  1  0
  4 28  1  0
 27 28  1  0
M  END
