piperidine-amides-17101-covalent
     RDKit          3D

 20 21  0  0  0  0  0  0  0  0999 V2000
    7.1170   -3.3050   19.2860 C   0  0  0  0  0  0  0  0  0  0  0  0
    6.3610   -4.0620   20.2980 C   0  0  0  0  0  0  0  0  0  0  0  0
    5.3020   -4.6090   19.9110 O   0  0  0  0  0  0  0  0  0  0  0  0
    6.8450   -4.1960   21.6280 N   0  0  0  0  0  0  0  0  0  0  0  0
    6.5460   -5.3850   22.3550 C   0  0  0  0  0  0  0  0  0  0  0  0
    6.1030   -5.1140   23.7140 C   0  0  0  0  0  0  0  0  0  0  0  0
    6.0780   -3.6770   24.0440 C   0  0  0  0  0  0  0  0  0  0  0  0
    5.5850   -3.4380   25.4470 C   0  0  0  0  0  0  0  0  0  0  0  0
    4.3930   -3.6800   25.7000 O   0  0  0  0  0  0  0  0  0  0  0  0
    6.4060   -2.9120   26.4690 N   0  0  0  0  0  0  0  0  0  0  0  0
    6.9050   -1.5910   26.4620 C   0  0  0  0  0  0  0  0  0  0  0  0
    6.2360   -3.4200   27.8370 C   0  0  0  0  0  0  0  0  0  0  0  0
    5.5570   -4.7690   28.1700 C   0  0  2  0  0  0  0  0  0  0  0  0
    6.2390   -5.8250   28.7540 C   0  0  0  0  0  0  0  0  0  0  0  0
    5.7340   -5.9670   27.1680 C   0  0  0  0  0  0  0  0  0  0  0  0
    5.4410   -6.6690   28.5080 C   0  0  0  0  0  0  0  0  0  0  0  0
    4.1030   -5.9570   28.6120 C   0  0  0  0  0  0  0  0  0  0  0  0
    4.2890   -4.6310   28.6810 O   0  0  0  0  0  0  0  0  0  0  0  0
    7.3710   -2.9660   23.7090 C   0  0  0  0  0  0  0  0  0  0  0  0
    7.6800   -3.1660   22.2290 C   0  0  0  0  0  0  0  0  0  0  0  0
  1  2  1  0
  2  3  2  0
  2  4  1  0
  4  5  1  0
  5  6  1  0
  6  7  1  0
  7  8  1  0
  8  9  2  0
  8 10  1  0
 10 11  1  0
 10 12  1  0
 13 12  1  0
 13 14  1  1
 13 15  1  0
 15 16  1  0
 16 17  1  0
 13 18  1  0
 17 18  1  0
  7 19  1  0
  4 20  1  0
 19 20  1  0
M  END
