piperidine-amides-33428-covalent
     RDKit          3D

 29 31  0  0  0  0  0  0  0  0999 V2000
    7.0730   -3.3300   19.2420 C   0  0  0  0  0  0  0  0  0  0  0  0
    6.3780   -4.1190   20.2700 C   0  0  0  0  0  0  0  0  0  0  0  0
    5.3150   -4.6870   19.9310 O   0  0  0  0  0  0  0  0  0  0  0  0
    6.9240   -4.2780   21.5620 N   0  0  0  0  0  0  0  0  0  0  0  0
    6.5550   -5.4200   22.3190 C   0  0  0  0  0  0  0  0  0  0  0  0
    6.1400   -5.1190   23.6840 C   0  0  0  0  0  0  0  0  0  0  0  0
    6.7130   -3.8850   24.2670 C   0  0  0  0  0  0  0  0  0  0  0  0
    5.8700   -3.4210   25.4290 C   0  0  0  0  0  0  0  0  0  0  0  0
    4.7750   -2.8920   25.1580 O   0  0  0  0  0  0  0  0  0  0  0  0
    6.2140   -3.5510   26.8070 N   0  0  0  0  0  0  0  0  0  0  0  0
    6.1600   -2.4790   27.6880 C   0  0  0  0  0  0  0  0  0  0  0  0
    5.1090   -2.6100   28.6630 C   0  0  2  0  0  0  0  0  0  0  0  0
    5.2600   -2.2590   29.9510 N   0  0  0  0  0  0  0  0  0  0  0  0
    4.2890   -1.5000   30.7020 C   0  0  0  0  0  0  0  0  0  0  0  0
    3.5340   -0.6100   29.9710 O   0  0  0  0  0  0  0  0  0  0  0  0
    4.2350   -1.7240   31.9270 O   0  0  0  0  0  0  0  0  0  0  0  0
    3.1730   -2.1050   32.6330 C   0  0  0  0  0  0  0  0  0  0  0  0
    1.8920   -2.1420   31.7970 C   0  0  0  0  0  0  0  0  0  0  0  0
    3.3390   -3.4180   33.4180 C   0  0  0  0  0  0  0  0  0  0  0  0
    2.6040   -1.0340   33.4890 C   0  0  0  0  0  0  0  0  0  0  0  0
    4.5890   -4.0100   28.4460 C   0  0  0  0  0  0  0  0  0  0  0  0
    5.6940   -4.6330   27.5720 C   0  0  2  0  0  0  0  0  0  0  0  0
    6.6770   -5.3830   28.4750 C   0  0  0  0  0  0  0  0  0  0  0  0
    5.9010   -6.0980   29.4880 C   0  0  0  0  0  0  0  0  0  0  0  0
    4.8390   -6.8470   28.9690 C   0  0  0  0  0  0  0  0  0  0  0  0
    4.2870   -6.4460   27.7600 O   0  0  0  0  0  0  0  0  0  0  0  0
    4.9770   -5.6780   26.8060 C   0  0  0  0  0  0  0  0  0  0  0  0
    6.8460   -2.8050   23.2570 C   0  0  0  0  0  0  0  0  0  0  0  0
    7.6530   -3.2130   22.2090 C   0  0  0  0  0  0  0  0  0  0  0  0
  1  2  1  0
  2  3  2  0
  2  4  1  0
  4  5  1  0
  5  6  1  0
  6  7  1  0
  7  8  1  0
  8  9  2  0
  8 10  1  0
 10 11  1  0
 11 12  1  0
 12 13  1  1
 13 14  1  0
 14 15  2  0
 14 16  1  0
 17 16  1  0
 17 18  1  0
 17 19  1  0
 17 20  1  0
 12 21  1  0
 22 10  1  0
 22 21  1  1
 22 23  1  0
 23 24  1  0
 24 25  1  0
 25 26  1  0
 22 27  1  0
 26 27  1  0
  7 28  1  0
  4 29  1  0
 28 29  1  0
M  END
