piperidine-amides-25139-covalent
     RDKit          3D

 24 25  0  0  0  0  0  0  0  0999 V2000
    7.0520   -3.3720   19.3440 C   0  0  0  0  0  0  0  0  0  0  0  0
    6.3690   -4.2110   20.3600 C   0  0  0  0  0  0  0  0  0  0  0  0
    5.3740   -4.8290   19.9810 O   0  0  0  0  0  0  0  0  0  0  0  0
    6.8820   -4.3150   21.6610 N   0  0  0  0  0  0  0  0  0  0  0  0
    6.7080   -5.5260   22.4300 C   0  0  0  0  0  0  0  0  0  0  0  0
    6.1610   -5.1950   23.7940 C   0  0  0  0  0  0  0  0  0  0  0  0
    6.1930   -3.6770   23.9880 C   0  0  0  0  0  0  0  0  0  0  0  0
    5.6110   -3.3040   25.3010 C   0  0  0  0  0  0  0  0  0  0  0  0
    4.7190   -2.4520   25.3140 O   0  0  0  0  0  0  0  0  0  0  0  0
    6.0050   -3.8860   26.5230 N   0  0  0  0  0  0  0  0  0  0  0  0
    5.4790   -5.1780   26.8540 C   0  0  0  0  0  0  0  0  0  0  0  0
    5.9760   -5.2690   28.2470 C   0  0  2  0  0  0  0  0  0  0  0  0
    4.9140   -5.5780   29.0720 O   0  0  0  0  0  0  0  0  0  0  0  0
    6.5460   -4.1220   28.6200 C   0  0  0  0  0  0  0  0  0  0  0  0
    6.2970   -3.1410   27.7080 C   0  0  2  0  0  0  0  0  0  0  0  0
    5.3250   -2.3090   28.2010 C   0  0  0  0  0  0  0  0  0  0  0  0
    4.3570   -1.9470   27.2980 O   0  0  0  0  0  0  0  0  0  0  0  0
    5.3810   -1.8990   29.5400 O   0  0  0  0  0  0  0  0  0  0  0  0
    6.3330   -0.9680   29.9670 C   0  0  0  0  0  0  0  0  0  0  0  0
    7.6850   -1.2230   29.3820 C   0  0  0  0  0  0  0  0  0  0  0  0
    6.7760   -0.0950   28.8210 C   0  0  0  0  0  0  0  0  0  0  0  0
    6.3270   -0.2250   31.2600 C   0  0  0  0  0  0  0  0  0  0  0  0
    7.5410   -3.1110   23.6870 C   0  0  0  0  0  0  0  0  0  0  0  0
    7.7130   -3.2380   22.1870 C   0  0  0  0  0  0  0  0  0  0  0  0
  1  2  1  0
  2  3  2  0
  2  4  1  0
  4  5  1  0
  5  6  1  0
  6  7  1  0
  7  8  1  0
  8  9  2  0
  8 10  1  0
 10 11  1  0
 11 12  1  0
 12 13  1  1
 12 14  1  0
 10 15  1  0
 14 15  1  0
 15 16  1  1
 16 17  2  0
 16 18  1  0
 19 18  1  0
 19 20  1  0
 19 21  1  0
 19 22  1  0
  7 23  1  0
  4 24  1  0
 23 24  1  0
M  END
