piperidine-amides-10780-covalent
     RDKit          3D

 22 24  0  0  0  0  0  0  0  0999 V2000
    7.0900   -3.3540   19.3530 C   0  0  0  0  0  0  0  0  0  0  0  0
    6.3640   -4.1360   20.3530 C   0  0  0  0  0  0  0  0  0  0  0  0
    5.3900   -4.8160   19.9810 O   0  0  0  0  0  0  0  0  0  0  0  0
    6.7800   -4.1620   21.6980 N   0  0  0  0  0  0  0  0  0  0  0  0
    7.7920   -3.2580   22.2090 C   0  0  0  0  0  0  0  0  0  0  0  0
    7.2580   -2.7540   23.5050 C   0  0  0  0  0  0  0  0  0  0  0  0
    6.0630   -3.5440   23.9100 C   0  0  0  0  0  0  0  0  0  0  0  0
    5.6360   -3.2100   25.2870 C   0  0  0  0  0  0  0  0  0  0  0  0
    4.4110   -3.1890   25.6050 O   0  0  0  0  0  0  0  0  0  0  0  0
    6.5780   -2.9000   26.2860 N   0  0  0  0  0  0  0  0  0  0  0  0
    6.4940   -1.6790   27.1180 C   0  0  0  0  0  0  0  0  0  0  0  0
    5.8840   -0.4450   26.5510 C   0  0  0  0  0  0  0  0  0  0  0  0
    5.7880    0.7860   27.3690 C   0  0  0  0  0  0  0  0  0  0  0  0
    6.3170    0.7650   28.7740 C   0  0  0  0  0  0  0  0  0  0  0  0
    6.1730    2.0680   29.5460 C   0  0  0  0  0  0  0  0  0  0  0  0
    7.2860    2.0680   30.4650 C   0  0  0  0  0  0  0  0  0  0  0  0
    6.3560    2.0120   31.4140 C   0  0  0  0  0  0  0  0  0  0  0  0
    5.1900    2.0100   30.5690 C   0  0  0  0  0  0  0  0  0  0  0  0
    6.8740   -0.3570   29.2870 C   0  0  0  0  0  0  0  0  0  0  0  0
    7.0140   -1.6650   28.5200 C   0  0  0  0  0  0  0  0  0  0  0  0
    6.4110   -5.0300   23.6860 C   0  0  0  0  0  0  0  0  0  0  0  0
    6.3060   -5.2940   22.5050 C   0  0  0  0  0  0  0  0  0  0  0  0
  1  2  1  0
  2  3  2  0
  2  4  1  0
  4  5  1  0
  5  6  1  0
  6  7  1  0
  7  8  1  0
  8  9  2  0
  8 10  1  0
 10 11  1  0
 11 12  2  0
 12 13  1  0
 13 14  2  0
 14 15  1  0
 15 16  1  0
 16 17  1  0
 15 18  1  0
 17 18  1  0
 14 19  1  0
 11 20  1  0
 19 20  2  0
  7 21  1  0
  4 22  1  0
 21 22  1  0
M  END
