piperidine-amides-12279-covalent
     RDKit          3D

 24 26  0  0  0  0  0  0  0  0999 V2000
    7.0360   -3.3320   19.4020 C   0  0  0  0  0  0  0  0  0  0  0  0
    6.3450   -4.1790   20.3710 C   0  0  0  0  0  0  0  0  0  0  0  0
    5.4040   -4.8810   19.9940 O   0  0  0  0  0  0  0  0  0  0  0  0
    6.7790   -4.2370   21.7490 N   0  0  0  0  0  0  0  0  0  0  0  0
    7.6420   -3.2060   22.2810 C   0  0  0  0  0  0  0  0  0  0  0  0
    7.2670   -2.9130   23.7040 C   0  0  0  0  0  0  0  0  0  0  0  0
    5.9230   -3.5830   23.9270 C   0  0  0  0  0  0  0  0  0  0  0  0
    5.3040   -3.1930   25.2390 C   0  0  0  0  0  0  0  0  0  0  0  0
    4.0730   -3.2240   25.4190 O   0  0  0  0  0  0  0  0  0  0  0  0
    6.1380   -2.7860   26.3020 N   0  0  0  0  0  0  0  0  0  0  0  0
    5.7300   -1.8060   27.3200 C   0  0  1  0  0  0  0  0  0  0  0  0
    7.0690   -1.2620   27.5740 C   0  0  0  0  0  0  0  0  0  0  0  0
    7.7300   -1.4090   26.3930 O   0  0  0  0  0  0  0  0  0  0  0  0
    7.6190   -0.6360   28.6690 N   0  0  0  0  0  0  0  0  0  0  0  0
    7.8410   -1.5050   29.6210 C   0  0  0  0  0  0  0  0  0  0  0  0
    6.5940    0.2180   29.0100 C   0  0  0  0  0  0  0  0  0  0  0  0
    5.8830   -0.4040   28.0880 C   0  0  0  0  0  0  0  0  0  0  0  0
    5.1770    0.7040   27.9250 C   0  0  0  0  0  0  0  0  0  0  0  0
    4.6160   -0.2260   26.9930 C   0  0  0  0  0  0  0  0  0  0  0  0
    3.6260    0.2590   26.3040 C   0  0  0  0  0  0  0  0  0  0  0  0
    4.3720    0.8610   27.2640 C   0  0  0  0  0  0  0  0  0  0  0  0
    4.9400   -0.6350   27.1190 C   0  0  0  0  0  0  0  0  0  0  0  0
    6.0050   -5.0930   23.7600 C   0  0  0  0  0  0  0  0  0  0  0  0
    6.5800   -5.4360   22.5250 C   0  0  0  0  0  0  0  0  0  0  0  0
  1  2  1  0
  2  3  2  0
  2  4  1  0
  4  5  1  0
  5  6  1  0
  6  7  1  0
  7  8  1  0
  8  9  2  0
  8 10  1  0
 11 10  1  6
 11 12  1  0
 12 13  2  0
 12 14  1  0
 14 15  1  0
 14 16  1  0
 16 17  1  0
 17 18  2  0
 18 19  1  0
 19 20  2  0
 20 21  1  0
 11 22  1  0
 17 22  1  0
 21 22  2  0
  7 23  1  0
  4 24  1  0
 23 24  1  0
M  END
