piperidine-amides-27858-covalent
     RDKit          3D

 26 28  0  0  0  0  0  0  0  0999 V2000
    7.0820   -3.3750   19.3880 C   0  0  0  0  0  0  0  0  0  0  0  0
    6.3920   -4.2090   20.3950 C   0  0  0  0  0  0  0  0  0  0  0  0
    5.3960   -4.8480   19.9890 O   0  0  0  0  0  0  0  0  0  0  0  0
    6.8830   -4.2980   21.7150 N   0  0  0  0  0  0  0  0  0  0  0  0
    6.5830   -5.4330   22.5290 C   0  0  0  0  0  0  0  0  0  0  0  0
    6.1580   -5.0580   23.8870 C   0  0  0  0  0  0  0  0  0  0  0  0
    6.0070   -3.5950   24.0770 C   0  0  0  0  0  0  0  0  0  0  0  0
    5.5360   -3.2190   25.4580 C   0  0  0  0  0  0  0  0  0  0  0  0
    4.3300   -2.9400   25.5570 O   0  0  0  0  0  0  0  0  0  0  0  0
    6.3540   -3.1800   26.6200 N   0  0  0  0  0  0  0  0  0  0  0  0
    7.4330   -4.1360   26.6760 C   0  0  0  0  0  0  0  0  0  0  0  0
    8.4730   -4.1340   25.6470 C   0  0  0  0  0  0  0  0  0  0  0  0
    9.4490   -5.1560   25.8320 C   0  0  0  0  0  0  0  0  0  0  0  0
    9.3530   -6.0150   26.8780 C   0  0  0  0  0  0  0  0  0  0  0  0
    8.3650   -5.9700   27.8240 C   0  0  0  0  0  0  0  0  0  0  0  0
    7.3990   -5.0500   27.7630 C   0  0  0  0  0  0  0  0  0  0  0  0
    6.4220   -4.9990   28.6980 C   0  0  0  0  0  0  0  0  0  0  0  0
    5.3730   -4.1900   28.3430 C   0  0  0  0  0  0  0  0  0  0  0  0
    5.8160   -2.9140   27.9280 C   0  0  2  0  0  0  0  0  0  0  0  0
    4.8030   -1.8320   27.9030 C   0  0  0  0  0  0  0  0  0  0  0  0
    4.4270   -1.5570   29.3420 C   0  0  0  0  0  0  0  0  0  0  0  0
    5.2660   -0.6750   29.9960 O   0  0  0  0  0  0  0  0  0  0  0  0
    3.4290   -2.0690   29.9590 O   0  0  0  0  0  0  0  0  0  0  0  0
    3.5090   -2.3660   31.3360 C   0  0  0  0  0  0  0  0  0  0  0  0
    7.0930   -2.7450   23.5490 C   0  0  0  0  0  0  0  0  0  0  0  0
    7.7540   -3.2840   22.2920 C   0  0  0  0  0  0  0  0  0  0  0  0
  1  2  1  0
  2  3  2  0
  2  4  1  0
  4  5  1  0
  5  6  1  0
  6  7  1  0
  7  8  1  0
  8  9  2  0
  8 10  1  0
 10 11  1  0
 11 12  2  0
 12 13  1  0
 13 14  2  0
 14 15  1  0
 11 16  1  0
 15 16  2  0
 16 17  1  0
 17 18  1  0
 10 19  1  0
 18 19  1  0
 19 20  1  6
 20 21  1  0
 21 22  2  0
 21 23  1  0
 23 24  1  0
  7 25  1  0
  4 26  1  0
 25 26  1  0
M  END
