piperidine-amides-35275-covalent
     RDKit          3D

 33 35  0  0  0  0  0  0  0  0999 V2000
    7.0540   -3.3390   19.3550 C   0  0  0  0  0  0  0  0  0  0  0  0
    6.3840   -4.2320   20.3330 C   0  0  0  0  0  0  0  0  0  0  0  0
    5.3550   -4.7910   19.9620 O   0  0  0  0  0  0  0  0  0  0  0  0
    6.9430   -4.4610   21.5940 N   0  0  0  0  0  0  0  0  0  0  0  0
    6.5250   -5.5830   22.3720 C   0  0  0  0  0  0  0  0  0  0  0  0
    5.6270   -5.0700   23.4620 C   0  0  0  0  0  0  0  0  0  0  0  0
    6.3380   -3.9550   24.2410 C   0  0  0  0  0  0  0  0  0  0  0  0
    5.4010   -3.4630   25.2860 C   0  0  0  0  0  0  0  0  0  0  0  0
    4.4810   -2.7180   24.9450 O   0  0  0  0  0  0  0  0  0  0  0  0
    5.5250   -3.8030   26.6530 N   0  0  0  0  0  0  0  0  0  0  0  0
    6.5130   -3.1500   27.3820 C   0  0  0  0  0  0  0  0  0  0  0  0
    6.8300   -4.2100   28.4040 C   0  0  0  0  0  0  0  0  0  0  0  0
    5.8730   -4.5320   29.2580 C   0  0  0  0  0  0  0  0  0  0  0  0
    4.7170   -4.8280   28.6320 C   0  0  1  0  0  0  0  0  0  0  0  0
    3.5560   -4.8220   29.4890 N   0  0  0  0  0  0  0  0  0  0  0  0
    2.6480   -5.9380   29.3900 C   0  0  0  0  0  0  0  0  0  0  0  0
    2.7990   -7.0010   28.5550 O   0  0  0  0  0  0  0  0  0  0  0  0
    1.4100   -5.9610   30.2660 C   0  0  2  0  0  0  0  0  0  0  0  0
    2.2720   -5.9890   31.4760 C   0  0  0  0  0  0  0  0  0  0  0  0
    1.4810   -6.9830   32.2780 C   0  0  0  0  0  0  0  0  0  0  0  0
    0.0670   -6.6300   31.9140 C   0  0  0  0  0  0  0  0  0  0  0  0
   -0.6490   -6.9460   30.7830 N   0  0  0  0  0  0  0  0  0  0  0  0
   -2.0260   -7.3740   30.8480 C   0  0  0  0  0  0  0  0  0  0  0  0
   -2.8480   -6.8960   31.6580 O   0  0  0  0  0  0  0  0  0  0  0  0
   -2.5190   -8.3560   29.9900 O   0  0  0  0  0  0  0  0  0  0  0  0
   -3.7250   -9.0520   30.2330 C   0  0  0  0  0  0  0  0  0  0  0  0
   -4.8970   -8.1340   30.1820 C   0  0  0  0  0  0  0  0  0  0  0  0
   -3.7130  -10.1320   29.3510 C   0  0  0  0  0  0  0  0  0  0  0  0
   -3.6900   -9.6510   31.6120 C   0  0  0  0  0  0  0  0  0  0  0  0
    0.5700   -7.0520   30.0110 C   0  0  0  0  0  0  0  0  0  0  0  0
    4.4020   -4.0630   27.5090 C   0  0  0  0  0  0  0  0  0  0  0  0
    6.7930   -2.8760   23.2700 C   0  0  0  0  0  0  0  0  0  0  0  0
    7.6190   -3.4240   22.3370 C   0  0  0  0  0  0  0  0  0  0  0  0
  1  2  1  0
  2  3  2  0
  2  4  1  0
  4  5  1  0
  5  6  1  0
  6  7  1  0
  7  8  1  0
  8  9  2  0
  8 10  1  0
 10 11  1  0
 11 12  1  0
 12 13  1  0
 13 14  1  0
 14 15  1  1
 15 16  1  0
 16 17  2  0
 18 16  1  6
 18 19  1  0
 19 20  1  0
 20 21  1  0
 21 22  1  0
 22 23  1  0
 23 24  2  0
 23 25  1  0
 26 25  1  0
 26 27  1  0
 26 28  1  0
 26 29  1  0
 18 30  1  0
 22 30  1  0
 10 31  1  0
 14 31  1  0
  7 32  1  0
  4 33  1  0
 32 33  1  0
M  END
