piperidine-amides-27078-covalent
     RDKit          3D

 26 28  0  0  0  0  0  0  0  0999 V2000
    7.0710   -3.3170   19.3050 C   0  0  0  0  0  0  0  0  0  0  0  0
    6.3840   -4.1390   20.3110 C   0  0  0  0  0  0  0  0  0  0  0  0
    5.3250   -4.7060   19.9400 O   0  0  0  0  0  0  0  0  0  0  0  0
    6.9280   -4.3110   21.5900 N   0  0  0  0  0  0  0  0  0  0  0  0
    6.5920   -5.4720   22.3800 C   0  0  0  0  0  0  0  0  0  0  0  0
    5.9580   -5.0040   23.6640 C   0  0  0  0  0  0  0  0  0  0  0  0
    6.7650   -3.9130   24.3220 C   0  0  0  0  0  0  0  0  0  0  0  0
    6.0660   -3.3940   25.5120 C   0  0  0  0  0  0  0  0  0  0  0  0
    4.8190   -3.2860   25.4870 O   0  0  0  0  0  0  0  0  0  0  0  0
    6.7740   -3.0240   26.6720 N   0  0  0  0  0  0  0  0  0  0  0  0
    7.6830   -3.9780   27.2720 C   0  0  0  0  0  0  0  0  0  0  0  0
    6.5780   -1.6920   27.2250 C   0  0  0  0  0  0  0  0  0  0  0  0
    7.1300   -1.5760   28.4840 C   0  0  0  0  0  0  0  0  0  0  0  0
    7.0610   -0.4050   29.2050 C   0  0  0  0  0  0  0  0  0  0  0  0
    6.4190    0.6800   28.6380 C   0  0  0  0  0  0  0  0  0  0  0  0
    5.8670    0.5760   27.3770 C   0  0  0  0  0  0  0  0  0  0  0  0
    5.9340   -0.5950   26.6540 C   0  0  0  0  0  0  0  0  0  0  0  0
    5.3540   -0.6540   25.3740 O   0  0  0  0  0  0  0  0  0  0  0  0
    4.4770   -0.1500   24.4930 C   0  0  0  0  0  0  0  0  0  0  0  0
    4.7670   -0.2490   23.0040 C   0  0  0  0  0  0  0  0  0  0  0  0
    3.7610    0.3320   22.0670 C   0  0  0  0  0  0  0  0  0  0  0  0
    2.4930    1.0010   22.5240 C   0  0  0  0  0  0  0  0  0  0  0  0
    2.2270    1.0890   23.8850 C   0  0  0  0  0  0  0  0  0  0  0  0
    3.2680    0.4880   24.8550 C   0  0  0  0  0  0  0  0  0  0  0  0
    6.9790   -2.7710   23.3840 C   0  0  0  0  0  0  0  0  0  0  0  0
    7.7500   -3.2560   22.1650 C   0  0  0  0  0  0  0  0  0  0  0  0
  1  2  1  0
  2  3  2  0
  2  4  1  0
  4  5  1  0
  5  6  1  0
  6  7  1  0
  7  8  1  0
  8  9  2  0
  8 10  1  0
 10 11  1  0
 10 12  1  0
 12 13  2  0
 13 14  1  0
 14 15  2  0
 15 16  1  0
 12 17  1  0
 16 17  2  0
 17 18  1  0
 18 19  1  0
 19 20  2  0
 20 21  1  0
 21 22  2  0
 22 23  1  0
 19 24  1  0
 23 24  2  0
  7 25  1  0
  4 26  1  0
 25 26  1  0
M  END
