piperidine-amides-29877-covalent
     RDKit          3D

 27 29  0  0  0  0  0  0  0  0999 V2000
    7.1000   -3.3250   19.3050 C   0  0  0  0  0  0  0  0  0  0  0  0
    6.4050   -4.1680   20.2710 C   0  0  0  0  0  0  0  0  0  0  0  0
    5.3700   -4.7580   19.9580 O   0  0  0  0  0  0  0  0  0  0  0  0
    6.9630   -4.3530   21.5750 N   0  0  0  0  0  0  0  0  0  0  0  0
    7.7810   -3.3210   22.1600 C   0  0  0  0  0  0  0  0  0  0  0  0
    7.1830   -2.8290   23.4370 C   0  0  0  0  0  0  0  0  0  0  0  0
    6.7480   -4.0170   24.2820 C   0  0  0  0  0  0  0  0  0  0  0  0
    5.8250   -3.5080   25.3150 C   0  0  0  0  0  0  0  0  0  0  0  0
    4.7120   -3.0180   25.0320 O   0  0  0  0  0  0  0  0  0  0  0  0
    6.2120   -3.5770   26.6650 N   0  0  0  0  0  0  0  0  0  0  0  0
    5.1800   -3.7750   27.6340 C   0  0  0  0  0  0  0  0  0  0  0  0
    5.5080   -5.0510   28.3850 C   0  0  2  0  0  0  0  0  0  0  0  0
    4.9820   -5.3730   29.6250 C   0  0  0  0  0  0  0  0  0  0  0  0
    3.8420   -4.9610   29.9460 O   0  0  0  0  0  0  0  0  0  0  0  0
    5.6250   -6.1510   30.5680 O   0  0  0  0  0  0  0  0  0  0  0  0
    5.6160   -7.5400   30.6020 C   0  0  0  0  0  0  0  0  0  0  0  0
    7.0860   -5.2180   28.5240 C   0  0  0  0  0  0  0  0  0  0  0  0
    7.5630   -3.8510   28.3170 C   0  0  2  0  0  0  0  0  0  0  0  0
    6.9480   -2.7650   28.9420 C   0  0  0  0  0  0  0  0  0  0  0  0
    5.6440   -2.7080   29.4290 C   0  0  0  0  0  0  0  0  0  0  0  0
    5.0930   -1.6040   30.0530 C   0  0  0  0  0  0  0  0  0  0  0  0
    5.9120   -0.4360   30.2180 C   0  0  0  0  0  0  0  0  0  0  0  0
    7.2060   -0.4320   29.7600 C   0  0  0  0  0  0  0  0  0  0  0  0
    7.7070   -1.5900   29.1280 C   0  0  0  0  0  0  0  0  0  0  0  0
    7.5960   -3.5940   26.9450 C   0  0  0  0  0  0  0  0  0  0  0  0
    5.9610   -5.0950   23.5830 C   0  0  0  0  0  0  0  0  0  0  0  0
    6.6780   -5.5260   22.3300 C   0  0  0  0  0  0  0  0  0  0  0  0
  1  2  1  0
  2  3  2  0
  2  4  1  0
  4  5  1  0
  5  6  1  0
  6  7  1  0
  7  8  1  0
  8  9  2  0
  8 10  1  0
 10 11  1  0
 11 12  1  0
 12 13  1  1
 13 14  2  0
 13 15  1  0
 15 16  1  0
 12 17  1  0
 17 18  1  0
 18 19  1  1
 19 20  2  0
 20 21  1  0
 21 22  2  0
 22 23  1  0
 19 24  1  0
 23 24  2  0
 10 25  1  0
 18 25  1  0
  7 26  1  0
  4 27  1  0
 26 27  1  0
M  END
