piperidine-amides-8987-covalent
     RDKit          3D

 21 21  0  0  0  0  0  0  0  0999 V2000
    7.1270   -3.2540   19.1860 C   0  0  0  0  0  0  0  0  0  0  0  0
    6.3530   -3.9900   20.1810 C   0  0  0  0  0  0  0  0  0  0  0  0
    5.2590   -4.4770   19.8560 O   0  0  0  0  0  0  0  0  0  0  0  0
    6.8460   -4.2260   21.4730 N   0  0  0  0  0  0  0  0  0  0  0  0
    6.5690   -5.4340   22.1980 C   0  0  0  0  0  0  0  0  0  0  0  0
    5.7890   -4.9860   23.4030 C   0  0  0  0  0  0  0  0  0  0  0  0
    6.5140   -3.9210   24.1700 C   0  0  0  0  0  0  0  0  0  0  0  0
    5.7380   -3.4490   25.3360 C   0  0  0  0  0  0  0  0  0  0  0  0
    4.5880   -2.9360   25.1730 O   0  0  0  0  0  0  0  0  0  0  0  0
    6.2230   -3.5350   26.6550 N   0  0  0  0  0  0  0  0  0  0  0  0
    5.9990   -4.7400   27.5020 C   0  0  1  0  0  0  0  0  0  0  0  0
    6.3960   -4.3620   28.8580 C   0  0  0  0  0  0  0  0  0  0  0  0
    5.5470   -3.3090   29.4410 C   0  0  0  0  0  0  0  0  0  0  0  0
    4.6080   -5.2460   27.5050 C   0  0  0  0  0  0  0  0  0  0  0  0
    4.0790   -5.8800   26.4120 O   0  0  0  0  0  0  0  0  0  0  0  0
    3.6320   -5.1830   28.5400 N   0  0  0  0  0  0  0  0  0  0  0  0
    3.8550   -6.3980   29.3180 C   0  0  0  0  0  0  0  0  0  0  0  0
    2.6860   -7.2820   29.1050 C   0  0  0  0  0  0  0  0  0  0  0  0
    2.4010   -8.1220   30.1460 C   0  0  0  0  0  0  0  0  0  0  0  0
    6.8490   -2.7350   23.3070 C   0  0  0  0  0  0  0  0  0  0  0  0
    7.6670   -3.2310   22.1440 C   0  0  0  0  0  0  0  0  0  0  0  0
  1  2  1  0
  2  3  2  0
  2  4  1  0
  4  5  1  0
  5  6  1  0
  6  7  1  0
  7  8  1  0
  8  9  2  0
  8 10  1  0
 10 11  1  0
 11 12  1  1
 12 13  1  0
 11 14  1  0
 14 15  2  0
 14 16  1  0
 16 17  1  0
 17 18  1  0
 18 19  1  0
  7 20  1  0
  4 21  1  0
 20 21  1  0
M  END
