piperidine-amides-33077-covalent
     RDKit          3D

 28 30  0  0  0  0  0  0  0  0999 V2000
    7.1240   -3.3040   19.2740 C   0  0  0  0  0  0  0  0  0  0  0  0
    6.4190   -4.1030   20.2860 C   0  0  0  0  0  0  0  0  0  0  0  0
    5.3410   -4.6350   19.9260 O   0  0  0  0  0  0  0  0  0  0  0  0
    6.9690   -4.3100   21.5810 N   0  0  0  0  0  0  0  0  0  0  0  0
    6.5570   -5.4460   22.3190 C   0  0  0  0  0  0  0  0  0  0  0  0
    6.1970   -5.1210   23.6990 C   0  0  0  0  0  0  0  0  0  0  0  0
    5.8720   -3.6960   23.9200 C   0  0  0  0  0  0  0  0  0  0  0  0
    5.4120   -3.4420   25.3290 C   0  0  0  0  0  0  0  0  0  0  0  0
    4.1940   -3.3080   25.5310 O   0  0  0  0  0  0  0  0  0  0  0  0
    6.2860   -3.3590   26.4250 N   0  0  0  0  0  0  0  0  0  0  0  0
    6.8180   -4.4800   27.1230 C   0  0  0  0  0  0  0  0  0  0  0  0
    6.0070   -5.6060   27.5350 C   0  0  0  0  0  0  0  0  0  0  0  0
    6.7130   -6.2120   28.7610 C   0  0  0  0  0  0  0  0  0  0  0  0
    6.6800   -2.0360   26.8660 C   0  0  0  0  0  0  0  0  0  0  0  0
    5.6240   -0.9360   26.7620 C   0  0  0  0  0  0  0  0  0  0  0  0
    4.2160   -1.2840   26.8480 N   0  0  0  0  0  0  0  0  0  0  0  0
    3.4360   -0.0610   26.7150 C   0  0  0  0  0  0  0  0  0  0  0  0
    1.9920   -0.5000   26.9090 C   0  0  0  0  0  0  0  0  0  0  0  0
    0.8120    0.4340   26.8610 C   0  0  0  0  0  0  0  0  0  0  0  0
   -0.8460   -0.0820   27.0830 Cl  0  0  0  0  0  0  0  0  0  0  0  0
    1.2620    1.8730   26.5900 C   0  0  0  0  0  0  0  0  0  0  0  0
    2.7620    2.2370   26.4030 C   0  0  0  0  0  0  0  0  0  0  0  0
    3.8270    1.1960   26.4800 C   0  0  0  0  0  0  0  0  0  0  0  0
    5.1640    1.4980   26.3210 C   0  0  0  0  0  0  0  0  0  0  0  0
    5.5640    2.7720   25.9160 O   0  0  0  0  0  0  0  0  0  0  0  0
    6.0890    0.4340   26.5900 N   0  0  0  0  0  0  0  0  0  0  0  0
    6.8830   -2.7130   23.4310 C   0  0  0  0  0  0  0  0  0  0  0  0
    7.6640   -3.2390   22.2450 C   0  0  0  0  0  0  0  0  0  0  0  0
  1  2  1  0
  2  3  2  0
  2  4  1  0
  4  5  1  0
  5  6  1  0
  6  7  1  0
  7  8  1  0
  8  9  2  0
  8 10  1  0
 10 11  1  0
 11 12  1  0
 12 13  1  0
 10 14  1  0
 14 15  1  0
 15 16  2  0
 16 17  1  0
 17 18  2  0
 18 19  1  0
 19 20  1  0
 19 21  2  0
 21 22  1  0
 17 23  1  0
 22 23  2  0
 23 24  1  0
 24 25  2  0
 15 26  1  0
 24 26  1  0
  7 27  1  0
  4 28  1  0
 27 28  1  0
M  END
