piperidine-amides-25124-covalent
     RDKit          3D

 24 25  0  0  0  0  0  0  0  0999 V2000
    6.9960   -3.3650   19.4100 C   0  0  0  0  0  0  0  0  0  0  0  0
    6.3650   -4.2730   20.4090 C   0  0  0  0  0  0  0  0  0  0  0  0
    5.4180   -4.9500   20.0030 O   0  0  0  0  0  0  0  0  0  0  0  0
    6.8530   -4.3700   21.7300 N   0  0  0  0  0  0  0  0  0  0  0  0
    6.6680   -5.5790   22.5040 C   0  0  0  0  0  0  0  0  0  0  0  0
    6.0890   -5.2620   23.8680 C   0  0  0  0  0  0  0  0  0  0  0  0
    6.0560   -3.7510   24.0570 C   0  0  0  0  0  0  0  0  0  0  0  0
    5.3800   -3.3490   25.3400 C   0  0  0  0  0  0  0  0  0  0  0  0
    4.5980   -2.4000   25.2770 O   0  0  0  0  0  0  0  0  0  0  0  0
    5.5500   -3.9620   26.6120 N   0  0  0  0  0  0  0  0  0  0  0  0
    6.4390   -3.3580   27.4860 C   0  0  0  0  0  0  0  0  0  0  0  0
    6.6650   -4.4310   28.5380 C   0  0  2  0  0  0  0  0  0  0  0  0
    6.4170   -5.7850   28.3920 C   0  0  0  0  0  0  0  0  0  0  0  0
    5.5770   -6.2150   29.3680 C   0  0  0  0  0  0  0  0  0  0  0  0
    4.3160   -6.6460   29.0120 O   0  0  0  0  0  0  0  0  0  0  0  0
    5.9050   -6.2370   30.5730 O   0  0  0  0  0  0  0  0  0  0  0  0
    5.6320   -7.3610   31.3770 C   0  0  0  0  0  0  0  0  0  0  0  0
    5.7510   -4.0740   29.5120 O   0  0  0  0  0  0  0  0  0  0  0  0
    4.5670   -3.9040   28.7710 C   0  0  0  0  0  0  0  0  0  0  0  0
    3.3640   -4.1310   29.6350 C   0  0  0  0  0  0  0  0  0  0  0  0
    3.7910   -2.6870   29.2080 C   0  0  0  0  0  0  0  0  0  0  0  0
    4.3160   -4.2750   27.3090 C   0  0  0  0  0  0  0  0  0  0  0  0
    7.3880   -3.1190   23.7800 C   0  0  0  0  0  0  0  0  0  0  0  0
    7.6420   -3.2740   22.2860 C   0  0  0  0  0  0  0  0  0  0  0  0
  1  2  1  0
  2  3  2  0
  2  4  1  0
  4  5  1  0
  5  6  1  0
  6  7  1  0
  7  8  1  0
  8  9  2  0
  8 10  1  0
 10 11  1  0
 11 12  1  0
 12 13  1  6
 13 14  1  0
 14 15  2  0
 14 16  1  0
 16 17  1  0
 12 18  1  0
 18 19  1  0
 19 20  1  0
 19 21  1  0
 10 22  1  0
 19 22  1  0
  7 23  1  0
  4 24  1  0
 23 24  1  0
M  END
