piperidine-amides-23984-covalent
     RDKit          3D

 24 26  0  0  0  0  0  0  0  0999 V2000
    7.0440   -3.3690   19.3340 C   0  0  0  0  0  0  0  0  0  0  0  0
    6.4030   -4.2260   20.3460 C   0  0  0  0  0  0  0  0  0  0  0  0
    5.3740   -4.8440   19.9820 O   0  0  0  0  0  0  0  0  0  0  0  0
    6.9600   -4.3820   21.6420 N   0  0  0  0  0  0  0  0  0  0  0  0
    6.6800   -5.5810   22.3630 C   0  0  0  0  0  0  0  0  0  0  0  0
    6.1780   -5.3030   23.6920 C   0  0  0  0  0  0  0  0  0  0  0  0
    6.1640   -3.8640   23.9470 C   0  0  0  0  0  0  0  0  0  0  0  0
    5.5380   -3.5050   25.2620 C   0  0  0  0  0  0  0  0  0  0  0  0
    4.5100   -2.8070   25.2430 O   0  0  0  0  0  0  0  0  0  0  0  0
    6.0200   -3.9100   26.5160 N   0  0  0  0  0  0  0  0  0  0  0  0
    5.5740   -5.0460   27.2210 C   0  0  0  0  0  0  0  0  0  0  0  0
    5.5060   -5.0090   28.6710 C   0  0  0  0  0  0  0  0  0  0  0  0
    5.6340   -3.5380   29.0060 C   0  0  0  0  0  0  0  0  0  0  0  0
    6.8720   -3.0780   28.7210 C   0  0  2  0  0  0  0  0  0  0  0  0
    6.7070   -1.7980   29.5580 C   0  0  0  0  0  0  0  0  0  0  0  0
    5.2220   -1.6390   29.6930 C   0  0  0  0  0  0  0  0  0  0  0  0
    5.1060   -0.3680   30.5230 C   0  0  0  0  0  0  0  0  0  0  0  0
    6.2400    0.4660   31.0400 C   0  0  0  0  0  0  0  0  0  0  0  0
    5.8140    1.5590   31.7600 F   0  0  0  0  0  0  0  0  0  0  0  0
    7.5940    0.1310   30.7900 N   0  0  0  0  0  0  0  0  0  0  0  0
    7.8380   -0.9730   30.0680 C   0  0  0  0  0  0  0  0  0  0  0  0
    6.4570   -2.7910   27.2750 C   0  0  0  0  0  0  0  0  0  0  0  0
    7.5200   -3.2920   23.6810 C   0  0  0  0  0  0  0  0  0  0  0  0
    7.6890   -3.2880   22.2860 C   0  0  0  0  0  0  0  0  0  0  0  0
  1  2  1  0
  2  3  2  0
  2  4  1  0
  4  5  1  0
  5  6  1  0
  6  7  1  0
  7  8  1  0
  8  9  2  0
  8 10  1  0
 10 11  1  0
 11 12  1  0
 12 13  1  0
 13 14  1  0
 14 15  1  1
 15 16  2  0
 16 17  1  0
 17 18  2  0
 18 19  1  0
 18 20  1  0
 15 21  1  0
 20 21  2  0
 10 22  1  0
 14 22  1  0
  7 23  1  0
  4 24  1  0
 23 24  1  0
M  END
