piperidine-amides-570-covalent
     RDKit          3D

 26 28  0  0  0  0  0  0  0  0999 V2000
    7.0410   -3.3690   19.2670 C   0  0  0  0  0  0  0  0  0  0  0  0
    6.3620   -4.1030   20.3120 C   0  0  0  0  0  0  0  0  0  0  0  0
    5.3510   -4.7890   19.9700 O   0  0  0  0  0  0  0  0  0  0  0  0
    6.7910   -4.1390   21.6570 N   0  0  0  0  0  0  0  0  0  0  0  0
    7.6400   -3.0230   22.1600 C   0  0  0  0  0  0  0  0  0  0  0  0
    7.6650   -3.2950   23.7170 C   0  0  0  0  0  0  0  0  0  0  0  0
    6.2580   -3.7000   24.0630 C   0  0  0  0  0  0  0  0  0  0  0  0
    5.9010   -3.6710   25.6090 C   0  0  0  0  0  0  0  0  0  0  0  0
    5.4790   -4.7560   25.9460 O   0  0  0  0  0  0  0  0  0  0  0  0
    6.1040   -2.5300   26.1130 N   0  0  0  0  0  0  0  0  0  0  0  0
    6.1700   -1.3340   26.7440 C   0  0  0  0  0  0  0  0  0  0  0  0
    5.8200   -0.0190   26.4940 C   0  0  0  0  0  0  0  0  0  0  0  0
    5.9980    1.0510   27.4070 C   0  0  0  0  0  0  0  0  0  0  0  0
    6.5820    0.8710   28.7300 C   0  0  0  0  0  0  0  0  0  0  0  0
    7.0010   -0.4940   29.0930 C   0  0  0  0  0  0  0  0  0  0  0  0
    6.7960   -1.4950   28.1470 C   0  0  0  0  0  0  0  0  0  0  0  0
    7.5530   -0.4540   30.4270 N   0  0  0  0  0  0  0  0  0  0  0  0
    7.4680    0.9560   30.8980 C   0  0  0  0  0  0  0  0  0  0  0  0
    6.8560    1.6550   29.7610 N   0  0  0  0  0  0  0  0  0  0  0  0
    6.5750    3.0730   29.7760 C   0  0  0  0  0  0  0  0  0  0  0  0
    7.9360    3.7820   30.0960 C   0  0  0  0  0  0  0  0  0  0  0  0
    8.8070    2.9610   30.8180 F   0  0  0  0  0  0  0  0  0  0  0  0
    8.6420    4.1900   29.0180 F   0  0  0  0  0  0  0  0  0  0  0  0
    7.7240    4.8820   30.9500 F   0  0  0  0  0  0  0  0  0  0  0  0
    5.9450   -5.1040   23.5190 C   0  0  0  0  0  0  0  0  0  0  0  0
    6.7150   -5.3630   22.4230 C   0  0  0  0  0  0  0  0  0  0  0  0
  1  2  1  0
  2  3  2  0
  2  4  1  0
  4  5  1  0
  5  6  1  0
  6  7  1  0
  7  8  1  0
  8  9  2  0
  8 10  1  0
 10 11  1  0
 11 12  2  0
 12 13  1  0
 13 14  2  0
 14 15  1  0
 11 16  1  0
 15 16  2  0
 15 17  1  0
 17 18  2  0
 14 19  1  0
 18 19  1  0
 19 20  1  0
 20 21  1  0
 21 22  1  0
 21 23  1  0
 21 24  1  0
  7 25  1  0
  4 26  1  0
 25 26  1  0
M  END
