piperidine-amides-13817-covalent
     RDKit          3D

 27 29  0  0  0  0  0  0  0  0999 V2000
    7.1500   -3.2350   19.1600 C   0  0  0  0  0  0  0  0  0  0  0  0
    6.3630   -3.9740   20.1860 C   0  0  0  0  0  0  0  0  0  0  0  0
    5.2890   -4.5060   19.8650 O   0  0  0  0  0  0  0  0  0  0  0  0
    6.8770   -4.0920   21.4870 N   0  0  0  0  0  0  0  0  0  0  0  0
    7.7170   -3.0660   22.0680 C   0  0  0  0  0  0  0  0  0  0  0  0
    6.9010   -2.3570   23.1550 C   0  0  0  0  0  0  0  0  0  0  0  0
    6.4850   -3.4150   24.1160 C   0  0  0  0  0  0  0  0  0  0  0  0
    5.9210   -2.8710   25.3830 C   0  0  0  0  0  0  0  0  0  0  0  0
    4.7060   -2.6200   25.3740 O   0  0  0  0  0  0  0  0  0  0  0  0
    6.7520   -2.6770   26.5140 N   0  0  0  0  0  0  0  0  0  0  0  0
    6.7940   -3.4800   27.6980 C   0  0  0  0  0  0  0  0  0  0  0  0
    6.0360   -4.6310   27.8090 C   0  0  2  0  0  0  0  0  0  0  0  0
    5.4600   -5.1010   29.0020 C   0  0  0  0  0  0  0  0  0  0  0  0
    4.3680   -4.4370   29.5100 C   0  0  0  0  0  0  0  0  0  0  0  0
    3.7130   -4.8960   30.7560 C   0  0  0  0  0  0  0  0  0  0  0  0
    4.2170   -6.1130   31.5260 C   0  0  0  0  0  0  0  0  0  0  0  0
    5.4350   -6.7380   30.8390 C   0  0  0  0  0  0  0  0  0  0  0  0
    5.9850   -7.8240   31.4230 F   0  0  0  0  0  0  0  0  0  0  0  0
    5.9550   -6.2070   29.6620 C   0  0  0  0  0  0  0  0  0  0  0  0
    6.7530   -5.6490   27.0830 N   0  0  0  0  0  0  0  0  0  0  0  0
    7.9560   -5.3100   27.7330 C   0  0  0  0  0  0  0  0  0  0  0  0
    9.1700   -5.9320   27.1170 C   0  0  0  0  0  0  0  0  0  0  0  0
    9.3260   -5.3380   25.8920 O   0  0  0  0  0  0  0  0  0  0  0  0
    8.1950   -5.2960   25.0570 C   0  0  0  0  0  0  0  0  0  0  0  0
    6.7730   -5.2970   25.6940 C   0  0  0  0  0  0  0  0  0  0  0  0
    5.5960   -4.4520   23.4880 C   0  0  0  0  0  0  0  0  0  0  0  0
    6.3770   -5.1260   22.3600 C   0  0  0  0  0  0  0  0  0  0  0  0
  1  2  1  0
  2  3  2  0
  2  4  1  0
  4  5  1  0
  5  6  1  0
  6  7  1  0
  7  8  1  0
  8  9  2  0
  8 10  1  0
 10 11  1  0
 12 11  1  1
 12 13  1  0
 13 14  2  0
 14 15  1  0
 15 16  2  0
 16 17  1  0
 17 18  1  0
 13 19  1  0
 17 19  2  0
 12 20  1  0
 20 21  1  0
 21 22  1  0
 22 23  1  0
 23 24  1  0
 20 25  1  0
 24 25  1  0
  7 26  1  0
  4 27  1  0
 26 27  1  0
M  END
