piperidine-amides-27083-covalent
     RDKit          3D

 26 29  0  0  0  0  0  0  0  0999 V2000
    7.0360   -3.3970   19.4100 C   0  0  0  0  0  0  0  0  0  0  0  0
    6.3830   -4.2460   20.4100 C   0  0  0  0  0  0  0  0  0  0  0  0
    5.3980   -4.9160   19.9990 O   0  0  0  0  0  0  0  0  0  0  0  0
    6.8760   -4.3200   21.7230 N   0  0  0  0  0  0  0  0  0  0  0  0
    6.7060   -5.5310   22.5130 C   0  0  0  0  0  0  0  0  0  0  0  0
    6.0890   -5.1560   23.8400 C   0  0  0  0  0  0  0  0  0  0  0  0
    5.8980   -3.6710   23.9210 C   0  0  0  0  0  0  0  0  0  0  0  0
    5.1780   -3.1810   25.1370 C   0  0  0  0  0  0  0  0  0  0  0  0
    4.2230   -2.4160   24.9260 O   0  0  0  0  0  0  0  0  0  0  0  0
    5.4250   -3.4820   26.4870 N   0  0  0  0  0  0  0  0  0  0  0  0
    4.3350   -3.8020   27.3710 C   0  0  0  0  0  0  0  0  0  0  0  0
    4.7980   -5.0410   28.0700 C   0  0  0  0  0  0  0  0  0  0  0  0
    4.0940   -6.2160   28.2410 C   0  0  0  0  0  0  0  0  0  0  0  0
    4.6830   -7.2660   28.8890 C   0  0  0  0  0  0  0  0  0  0  0  0
    5.9600   -7.2080   29.3770 C   0  0  0  0  0  0  0  0  0  0  0  0
    6.6200   -6.0150   29.1800 C   0  0  0  0  0  0  0  0  0  0  0  0
    6.0510   -4.9490   28.5490 C   0  0  0  0  0  0  0  0  0  0  0  0
    6.7470   -3.6400   28.3430 C   0  0  2  0  0  0  0  0  0  0  0  0
    6.3840   -2.5600   29.2120 N   0  0  0  0  0  0  0  0  0  0  0  0
    7.2460   -1.4650   29.4570 C   0  0  0  0  0  0  0  0  0  0  0  0
    6.3950   -0.6870   30.3700 C   0  0  0  0  0  0  0  0  0  0  0  0
    5.1040   -1.4120   30.5720 C   0  0  0  0  0  0  0  0  0  0  0  0
    5.1460   -2.6310   29.7940 N   0  0  0  0  0  0  0  0  0  0  0  0
    6.6070   -3.0310   27.0760 C   0  0  0  0  0  0  0  0  0  0  0  0
    7.2450   -3.0050   23.7240 C   0  0  0  0  0  0  0  0  0  0  0  0
    7.7160   -3.2720   22.3000 C   0  0  0  0  0  0  0  0  0  0  0  0
  1  2  1  0
  2  3  2  0
  2  4  1  0
  4  5  1  0
  5  6  1  0
  6  7  1  0
  7  8  1  0
  8  9  2  0
  8 10  1  0
 10 11  1  0
 11 12  1  0
 12 13  2  0
 13 14  1  0
 14 15  2  0
 15 16  1  0
 12 17  1  0
 16 17  2  0
 17 18  1  0
 18 19  1  1
 19 20  1  0
 20 21  2  0
 21 22  1  0
 19 23  1  0
 22 23  2  0
 10 24  1  0
 18 24  1  0
  7 25  1  0
  4 26  1  0
 25 26  1  0
M  END
