piperidine-amides-4566-covalent
     RDKit          3D

 25 27  0  0  0  0  0  0  0  0999 V2000
    7.0960   -3.3030   19.2610 C   0  0  0  0  0  0  0  0  0  0  0  0
    6.3820   -4.1120   20.2720 C   0  0  0  0  0  0  0  0  0  0  0  0
    5.3120   -4.6450   19.9170 O   0  0  0  0  0  0  0  0  0  0  0  0
    6.9300   -4.3040   21.5450 N   0  0  0  0  0  0  0  0  0  0  0  0
    6.4980   -5.4040   22.3380 C   0  0  0  0  0  0  0  0  0  0  0  0
    5.9600   -5.0090   23.6440 C   0  0  0  0  0  0  0  0  0  0  0  0
    6.5810   -3.8060   24.2480 C   0  0  0  0  0  0  0  0  0  0  0  0
    5.7660   -3.2790   25.3630 C   0  0  0  0  0  0  0  0  0  0  0  0
    4.5510   -3.0840   25.1730 O   0  0  0  0  0  0  0  0  0  0  0  0
    6.3440   -3.0040   26.6080 N   0  0  0  0  0  0  0  0  0  0  0  0
    6.3110   -1.6610   27.2240 C   0  0  0  0  0  0  0  0  0  0  0  0
    6.9920   -1.6130   28.5430 C   0  0  0  0  0  0  0  0  0  0  0  0
    7.0860   -0.4030   29.3400 C   0  0  0  0  0  0  0  0  0  0  0  0
    6.5060    0.7350   28.8280 C   0  0  0  0  0  0  0  0  0  0  0  0
    6.6740    1.8040   29.7150 N   0  0  0  0  0  0  0  0  0  0  0  0
    6.8280    3.0200   29.3300 N   0  0  0  0  0  0  0  0  0  0  0  0
    6.9590    3.7880   30.4540 C   0  0  0  0  0  0  0  0  0  0  0  0
    7.1390    5.1330   30.3980 C   0  0  0  0  0  0  0  0  0  0  0  0
    6.8660    2.8700   31.6640 C   0  0  0  0  0  0  0  0  0  0  0  0
    6.6850    1.6150   31.1720 C   0  0  0  0  0  0  0  0  0  0  0  0
    6.5510    0.4600   31.9510 C   0  0  0  0  0  0  0  0  0  0  0  0
    5.8630    0.7530   27.6100 C   0  0  0  0  0  0  0  0  0  0  0  0
    5.7560   -0.4930   26.7640 C   0  0  0  0  0  0  0  0  0  0  0  0
    6.8580   -2.7330   23.2000 C   0  0  0  0  0  0  0  0  0  0  0  0
    7.6880   -3.2680   22.2090 C   0  0  0  0  0  0  0  0  0  0  0  0
  1  2  1  0
  2  3  2  0
  2  4  1  0
  4  5  1  0
  5  6  1  0
  6  7  1  0
  7  8  1  0
  8  9  2  0
  8 10  1  0
 10 11  1  0
 11 12  2  0
 12 13  1  0
 13 14  2  0
 14 15  1  0
 15 16  1  0
 16 17  2  0
 17 18  1  0
 17 19  1  0
 15 20  1  0
 19 20  2  0
 20 21  1  0
 14 22  1  0
 11 23  1  0
 22 23  2  0
  7 24  1  0
  4 25  1  0
 24 25  1  0
M  END
