piperidine-amides-33798-covalent
     RDKit          3D

 30 32  0  0  0  0  0  0  0  0999 V2000
    7.1040   -3.3440   19.2870 C   0  0  0  0  0  0  0  0  0  0  0  0
    6.4340   -4.1740   20.2980 C   0  0  0  0  0  0  0  0  0  0  0  0
    5.3550   -4.7150   19.9510 O   0  0  0  0  0  0  0  0  0  0  0  0
    7.0190   -4.4160   21.5670 N   0  0  0  0  0  0  0  0  0  0  0  0
    6.5340   -5.5160   22.3150 C   0  0  0  0  0  0  0  0  0  0  0  0
    5.9040   -5.1410   23.5770 C   0  0  0  0  0  0  0  0  0  0  0  0
    6.5100   -4.0050   24.3160 C   0  0  0  0  0  0  0  0  0  0  0  0
    5.5900   -3.5380   25.4040 C   0  0  0  0  0  0  0  0  0  0  0  0
    4.6610   -2.7560   25.1400 O   0  0  0  0  0  0  0  0  0  0  0  0
    5.7720   -3.9840   26.7160 N   0  0  0  0  0  0  0  0  0  0  0  0
    6.9360   -4.6210   27.0940 C   0  0  0  0  0  0  0  0  0  0  0  0
    7.0140   -5.9650   27.5560 C   0  0  0  0  0  0  0  0  0  0  0  0
    6.6830   -5.8430   29.0290 C   0  0  0  0  0  0  0  0  0  0  0  0
    5.3480   -5.2800   28.9590 N   0  0  0  0  0  0  0  0  0  0  0  0
    4.3990   -6.1470   29.5990 C   0  0  0  0  0  0  0  0  0  0  0  0
    3.0750   -6.4040   29.3130 O   0  0  0  0  0  0  0  0  0  0  0  0
    4.9980   -6.9040   30.7980 C   0  0  0  0  0  0  0  0  0  0  0  0
    3.6180   -7.1320   31.3290 C   0  0  0  0  0  0  0  0  0  0  0  0
    4.2130   -7.1020   32.7490 C   0  0  0  0  0  0  0  0  0  0  0  0
    3.6440   -6.2240   33.8490 C   0  0  0  0  0  0  0  0  0  0  0  0
    4.3090   -6.2810   35.2140 C   0  0  0  0  0  0  0  0  0  0  0  0
    5.5030   -7.2230   35.3730 C   0  0  0  0  0  0  0  0  0  0  0  0
    5.9890   -7.2090   36.5330 O   0  0  0  0  0  0  0  0  0  0  0  0
    6.8390   -6.1770   36.9840 C   0  0  0  0  0  0  0  0  0  0  0  0
    5.8980   -7.9520   34.2750 C   0  0  0  0  0  0  0  0  0  0  0  0
    5.3060   -7.9100   33.0310 C   0  0  0  0  0  0  0  0  0  0  0  0
    5.3170   -3.8680   29.0350 C   0  0  0  0  0  0  0  0  0  0  0  0
    5.2450   -3.1830   27.8140 C   0  0  0  0  0  0  0  0  0  0  0  0
    6.8030   -2.8670   23.3640 C   0  0  0  0  0  0  0  0  0  0  0  0
    7.7060   -3.3490   22.2510 C   0  0  0  0  0  0  0  0  0  0  0  0
  1  2  1  0
  2  3  2  0
  2  4  1  0
  4  5  1  0
  5  6  1  0
  6  7  1  0
  7  8  1  0
  8  9  2  0
  8 10  1  0
 10 11  1  0
 11 12  1  0
 12 13  1  0
 13 14  1  0
 14 15  1  0
 15 16  2  0
 15 17  1  0
 17 18  1  0
 18 19  1  0
 19 20  2  0
 20 21  1  0
 21 22  2  0
 22 23  1  0
 23 24  1  0
 22 25  1  0
 19 26  1  0
 25 26  2  0
 14 27  1  0
 10 28  1  0
 27 28  1  0
  7 29  1  0
  4 30  1  0
 29 30  1  0
M  END
