piperidine-amides-32731-covalent
     RDKit          3D

 29 31  0  0  0  0  0  0  0  0999 V2000
    7.1020   -3.2730   19.2640 C   0  0  0  0  0  0  0  0  0  0  0  0
    6.3570   -4.0780   20.2690 C   0  0  0  0  0  0  0  0  0  0  0  0
    5.3050   -4.6400   19.9200 O   0  0  0  0  0  0  0  0  0  0  0  0
    6.8690   -4.2490   21.5730 N   0  0  0  0  0  0  0  0  0  0  0  0
    6.5300   -5.4310   22.3110 C   0  0  0  0  0  0  0  0  0  0  0  0
    5.7720   -5.0010   23.5790 C   0  0  0  0  0  0  0  0  0  0  0  0
    5.7860   -3.5090   23.6970 C   0  0  0  0  0  0  0  0  0  0  0  0
    5.2220   -2.9970   24.9850 C   0  0  0  0  0  0  0  0  0  0  0  0
    3.9990   -2.8370   24.9800 O   0  0  0  0  0  0  0  0  0  0  0  0
    5.9760   -2.7150   26.1290 N   0  0  0  0  0  0  0  0  0  0  0  0
    6.3940   -3.7400   26.9970 C   0  0  0  0  0  0  0  0  0  0  0  0
    6.9650   -4.7680   26.3440 C   0  0  0  0  0  0  0  0  0  0  0  0
    6.2140   -5.7190   25.6200 C   0  0  0  0  0  0  0  0  0  0  0  0
    6.8230   -6.7370   24.9220 C   0  0  0  0  0  0  0  0  0  0  0  0
    8.2930   -6.8010   24.9650 C   0  0  0  0  0  0  0  0  0  0  0  0
    9.0570   -5.7700   25.7560 C   0  0  0  0  0  0  0  0  0  0  0  0
   10.4180   -5.6730   25.8890 O   0  0  0  0  0  0  0  0  0  0  0  0
   11.0100   -4.3910   25.8990 C   0  0  0  0  0  0  0  0  0  0  0  0
    8.3120   -4.8430   26.3810 C   0  0  0  0  0  0  0  0  0  0  0  0
    8.7820   -3.8390   27.1340 O   0  0  0  0  0  0  0  0  0  0  0  0
    5.8650   -1.4290   26.8020 C   0  0  0  0  0  0  0  0  0  0  0  0
    5.2030   -1.4660   28.1680 C   0  0  0  0  0  0  0  0  0  0  0  0
    4.8710   -0.5030   29.1530 C   0  0  0  0  0  0  0  0  0  0  0  0
    5.4180    0.7850   28.4400 C   0  0  0  0  0  0  0  0  0  0  0  0
    5.2400    1.9030   29.1770 F   0  0  0  0  0  0  0  0  0  0  0  0
    6.0790    0.9280   27.1080 C   0  0  0  0  0  0  0  0  0  0  0  0
    6.2920   -0.2800   26.2720 C   0  0  0  0  0  0  0  0  0  0  0  0
    7.1510   -2.8990   23.4830 C   0  0  0  0  0  0  0  0  0  0  0  0
    7.5780   -3.1710   22.1940 C   0  0  0  0  0  0  0  0  0  0  0  0
  1  2  1  0
  2  3  2  0
  2  4  1  0
  4  5  1  0
  5  6  1  0
  6  7  1  0
  7  8  1  0
  8  9  2  0
  8 10  1  0
 10 11  1  0
 11 12  1  0
 12 13  2  0
 13 14  1  0
 14 15  2  0
 15 16  1  0
 16 17  1  0
 17 18  1  0
 12 19  1  0
 16 19  2  0
 19 20  1  0
 10 21  1  0
 21 22  2  0
 22 23  1  0
 23 24  2  0
 24 25  1  0
 24 26  1  0
 21 27  1  0
 26 27  2  0
  7 28  1  0
  4 29  1  0
 28 29  1  0
M  END
