piperidine-amides-8556-covalent
     RDKit          3D

 23 25  0  0  0  0  0  0  0  0999 V2000
    7.0840   -3.2820   19.2290 C   0  0  0  0  0  0  0  0  0  0  0  0
    6.3760   -4.0640   20.2430 C   0  0  0  0  0  0  0  0  0  0  0  0
    5.3150   -4.6240   19.9140 O   0  0  0  0  0  0  0  0  0  0  0  0
    6.9260   -4.2150   21.5460 N   0  0  0  0  0  0  0  0  0  0  0  0
    7.6790   -3.1310   22.1210 C   0  0  0  0  0  0  0  0  0  0  0  0
    6.9170   -2.5680   23.2740 C   0  0  0  0  0  0  0  0  0  0  0  0
    6.5830   -3.7450   24.1510 C   0  0  0  0  0  0  0  0  0  0  0  0
    5.7890   -3.2830   25.3390 C   0  0  0  0  0  0  0  0  0  0  0  0
    4.5620   -3.2990   25.2170 O   0  0  0  0  0  0  0  0  0  0  0  0
    6.4720   -2.8680   26.4780 N   0  0  0  0  0  0  0  0  0  0  0  0
    6.2180   -3.4320   27.7640 C   0  0  0  0  0  0  0  0  0  0  0  0
    5.8670   -2.5140   28.7700 C   0  0  0  0  0  0  0  0  0  0  0  0
    4.5370   -2.4460   29.2290 C   0  0  0  0  0  0  0  0  0  0  0  0
    4.0600   -1.5830   30.2370 C   0  0  0  0  0  0  0  0  0  0  0  0
    5.1110   -0.7080   30.8080 C   0  0  0  0  0  0  0  0  0  0  0  0
    6.5140   -0.7520   30.3450 C   0  0  0  0  0  0  0  0  0  0  0  0
    6.8720   -1.7010   29.2840 C   0  0  0  0  0  0  0  0  0  0  0  0
    7.4060    0.2350   31.0810 C   0  0  0  0  0  0  0  0  0  0  0  0
    6.4380    0.7550   31.9300 N   0  0  0  0  0  0  0  0  0  0  0  0
    5.0880    0.2670   31.8030 C   0  0  0  0  0  0  0  0  0  0  0  0
    4.1220    0.6890   32.4990 O   0  0  0  0  0  0  0  0  0  0  0  0
    5.7220   -4.7240   23.3800 C   0  0  0  0  0  0  0  0  0  0  0  0
    6.5060   -5.2960   22.4010 C   0  0  0  0  0  0  0  0  0  0  0  0
  1  2  1  0
  2  3  2  0
  2  4  1  0
  4  5  1  0
  5  6  1  0
  6  7  1  0
  7  8  1  0
  8  9  2  0
  8 10  1  0
 10 11  1  0
 11 12  1  0
 12 13  2  0
 13 14  1  0
 14 15  2  0
 15 16  1  0
 12 17  1  0
 16 17  2  0
 16 18  1  0
 18 19  1  0
 15 20  1  0
 19 20  1  0
 20 21  2  0
  7 22  1  0
  4 23  1  0
 22 23  1  0
M  END
