piperidine-amides-3366-covalent
     RDKit          3D

 21 22  0  0  0  0  0  0  0  0999 V2000
    7.1430   -3.3030   19.2230 C   0  0  0  0  0  0  0  0  0  0  0  0
    6.3410   -4.0260   20.1980 C   0  0  0  0  0  0  0  0  0  0  0  0
    5.2590   -4.5070   19.8710 O   0  0  0  0  0  0  0  0  0  0  0  0
    6.8510   -4.2350   21.5180 N   0  0  0  0  0  0  0  0  0  0  0  0
    7.6290   -3.2050   22.1510 C   0  0  0  0  0  0  0  0  0  0  0  0
    6.8900   -2.6510   23.3360 C   0  0  0  0  0  0  0  0  0  0  0  0
    6.4830   -3.8140   24.2280 C   0  0  0  0  0  0  0  0  0  0  0  0
    5.6400   -3.3100   25.3460 C   0  0  0  0  0  0  0  0  0  0  0  0
    4.3960   -3.2580   25.2680 O   0  0  0  0  0  0  0  0  0  0  0  0
    6.2700   -2.8880   26.5330 N   0  0  0  0  0  0  0  0  0  0  0  0
    6.7710   -1.5400   26.5880 C   0  0  0  0  0  0  0  0  0  0  0  0
    5.8090   -0.6260   25.8750 C   0  0  0  0  0  0  0  0  0  0  0  0
    6.2620    0.1520   24.8080 C   0  0  0  0  0  0  0  0  0  0  0  0
    5.4140    1.0210   24.1110 C   0  0  0  0  0  0  0  0  0  0  0  0
    6.0540    2.0820   22.6590 Br  0  0  0  0  0  0  0  0  0  0  0  0
    4.1070    1.1100   24.4820 C   0  0  0  0  0  0  0  0  0  0  0  0
    3.6510    0.3010   25.5810 C   0  0  0  0  0  0  0  0  0  0  0  0
    4.4760   -0.5490   26.2670 C   0  0  0  0  0  0  0  0  0  0  0  0
    4.0220   -1.3200   27.3200 C   0  0  0  0  0  0  0  0  0  0  0  0
    5.8700   -4.9960   23.5700 C   0  0  0  0  0  0  0  0  0  0  0  0
    6.3930   -5.3510   22.2540 C   0  0  0  0  0  0  0  0  0  0  0  0
  1  2  1  0
  2  3  2  0
  2  4  1  0
  4  5  1  0
  5  6  1  0
  6  7  1  0
  7  8  1  0
  8  9  2  0
  8 10  1  0
 10 11  1  0
 11 12  1  0
 12 13  2  0
 13 14  1  0
 14 15  1  0
 14 16  2  0
 16 17  1  0
 12 18  1  0
 17 18  2  0
 18 19  1  0
  7 20  1  0
  4 21  1  0
 20 21  1  0
M  END
