piperidine-amides-27257-covalent
     RDKit          3D

 25 26  0  0  0  0  0  0  0  0999 V2000
    7.1140   -3.3080   19.2810 C   0  0  0  0  0  0  0  0  0  0  0  0
    6.3710   -4.0720   20.2830 C   0  0  0  0  0  0  0  0  0  0  0  0
    5.2910   -4.5870   19.9050 O   0  0  0  0  0  0  0  0  0  0  0  0
    6.9010   -4.2470   21.5680 N   0  0  0  0  0  0  0  0  0  0  0  0
    6.7340   -5.5100   22.2650 C   0  0  0  0  0  0  0  0  0  0  0  0
    6.1010   -5.1790   23.5820 C   0  0  0  0  0  0  0  0  0  0  0  0
    5.9650   -3.6940   23.6560 C   0  0  0  0  0  0  0  0  0  0  0  0
    5.3430   -3.2530   24.9150 C   0  0  0  0  0  0  0  0  0  0  0  0
    4.2220   -2.7110   24.8280 O   0  0  0  0  0  0  0  0  0  0  0  0
    5.8800   -3.3830   26.1950 N   0  0  0  0  0  0  0  0  0  0  0  0
    5.6190   -2.2610   27.0740 C   0  0  0  0  0  0  0  0  0  0  0  0
    5.2230   -3.1980   28.0800 C   0  0  0  0  0  0  0  0  0  0  0  0
    3.9410   -3.4880   28.4710 C   0  0  0  0  0  0  0  0  0  0  0  0
    5.9670   -2.8900   29.3220 C   0  0  0  0  0  0  0  0  0  0  0  0
    5.8070   -1.7020   29.9430 N   0  0  0  0  0  0  0  0  0  0  0  0
    4.6100   -1.3290   30.3950 C   0  0  0  0  0  0  0  0  0  0  0  0
    4.1540   -1.8950   31.5660 O   0  0  0  0  0  0  0  0  0  0  0  0
    3.7940   -0.3990   29.7590 O   0  0  0  0  0  0  0  0  0  0  0  0
    2.6430   -0.8170   29.0850 C   0  0  0  0  0  0  0  0  0  0  0  0
    1.4580   -0.4440   29.6760 C   0  0  0  0  0  0  0  0  0  0  0  0
    1.6670   -1.9240   29.5440 C   0  0  0  0  0  0  0  0  0  0  0  0
    2.6790   -0.5890   27.6040 C   0  0  0  0  0  0  0  0  0  0  0  0
    5.5850   -4.3010   27.3710 C   0  0  0  0  0  0  0  0  0  0  0  0
    7.2930   -3.0170   23.4890 C   0  0  0  0  0  0  0  0  0  0  0  0
    7.7540   -3.2280   22.2040 C   0  0  0  0  0  0  0  0  0  0  0  0
  1  2  1  0
  2  3  2  0
  2  4  1  0
  4  5  1  0
  5  6  1  0
  6  7  1  0
  7  8  1  0
  8  9  2  0
  8 10  1  0
 10 11  1  0
 11 12  1  0
 12 13  1  0
 12 14  1  0
 14 15  1  0
 15 16  1  0
 16 17  2  0
 16 18  1  0
 19 18  1  0
 19 20  1  0
 19 21  1  0
 19 22  1  0
 10 23  1  0
 12 23  1  0
  7 24  1  0
  4 25  1  0
 24 25  1  0
M  END
