piperidine-amides-19391-covalent
     RDKit          3D

 22 23  0  0  0  0  0  0  0  0999 V2000
    7.0260   -3.4150   19.3510 C   0  0  0  0  0  0  0  0  0  0  0  0
    6.3980   -4.2060   20.3850 C   0  0  0  0  0  0  0  0  0  0  0  0
    5.4210   -4.9360   20.0150 O   0  0  0  0  0  0  0  0  0  0  0  0
    6.8360   -4.2420   21.7360 N   0  0  0  0  0  0  0  0  0  0  0  0
    6.4110   -5.4060   22.5520 C   0  0  0  0  0  0  0  0  0  0  0  0
    6.6190   -4.8720   24.0330 C   0  0  0  0  0  0  0  0  0  0  0  0
    6.1280   -3.4390   24.0280 C   0  0  0  0  0  0  0  0  0  0  0  0
    5.3930   -3.0210   25.3850 C   0  0  0  0  0  0  0  0  0  0  0  0
    4.3010   -2.5470   25.1130 O   0  0  0  0  0  0  0  0  0  0  0  0
    6.0920   -3.2860   26.4240 N   0  0  0  0  0  0  0  0  0  0  0  0
    6.6730   -4.1140   27.3390 C   0  0  0  0  0  0  0  0  0  0  0  0
    6.2770   -2.0110   27.0930 C   0  0  0  0  0  0  0  0  0  0  0  0
    5.7860   -0.8200   26.4000 C   0  0  0  0  0  0  0  0  0  0  0  0
    5.7320    0.6820   26.6720 C   0  0  0  0  0  0  0  0  0  0  0  0
    6.3600    0.5980   27.9230 N   0  0  0  0  0  0  0  0  0  0  0  0
    6.8560   -0.5290   28.6360 C   0  0  0  0  0  0  0  0  0  0  0  0
    7.4920   -0.6650   29.8640 C   0  0  0  0  0  0  0  0  0  0  0  0
    6.9830   -0.2350   31.0290 N   0  0  0  0  0  0  0  0  0  0  0  0
    8.6080   -1.1860   30.0040 O   0  0  0  0  0  0  0  0  0  0  0  0
    6.8680   -1.9640   28.2980 C   0  0  0  0  0  0  0  0  0  0  0  0
    6.8930   -2.4740   23.2980 C   0  0  0  0  0  0  0  0  0  0  0  0
    7.7510   -3.3340   22.3280 C   0  0  0  0  0  0  0  0  0  0  0  0
  1  2  1  0
  2  3  2  0
  2  4  1  0
  4  5  1  0
  5  6  1  0
  6  7  1  0
  7  8  1  0
  8  9  2  0
  8 10  1  0
 10 11  1  0
 10 12  1  0
 12 13  2  0
 13 14  1  0
 14 15  2  0
 15 16  1  0
 16 17  1  0
 17 18  1  0
 17 19  2  0
 12 20  1  0
 16 20  2  0
  7 21  1  0
  4 22  1  0
 21 22  1  0
M  END
