piperidine-amides-28082-covalent
     RDKit          3D

 26 28  0  0  0  0  0  0  0  0999 V2000
    7.0830   -3.3560   19.2790 C   0  0  0  0  0  0  0  0  0  0  0  0
    6.3500   -4.1340   20.2990 C   0  0  0  0  0  0  0  0  0  0  0  0
    5.2880   -4.6700   19.9250 O   0  0  0  0  0  0  0  0  0  0  0  0
    6.8750   -4.2910   21.5840 N   0  0  0  0  0  0  0  0  0  0  0  0
    7.5600   -3.2000   22.1940 C   0  0  0  0  0  0  0  0  0  0  0  0
    6.9440   -2.7810   23.4420 C   0  0  0  0  0  0  0  0  0  0  0  0
    6.6210   -3.9050   24.3350 C   0  0  0  0  0  0  0  0  0  0  0  0
    5.8340   -3.3980   25.4740 C   0  0  0  0  0  0  0  0  0  0  0  0
    4.6130   -3.2040   25.3000 O   0  0  0  0  0  0  0  0  0  0  0  0
    6.4260   -3.1290   26.7190 N   0  0  0  0  0  0  0  0  0  0  0  0
    6.5880   -4.2250   27.7250 C   0  0  0  0  0  0  0  0  0  0  0  0
    7.3370   -5.4280   27.2340 C   0  0  0  0  0  0  0  0  0  0  0  0
    6.4430   -1.8310   27.3100 C   0  0  0  0  0  0  0  0  0  0  0  0
    7.0080   -1.6250   28.5340 C   0  0  0  0  0  0  0  0  0  0  0  0
    7.0710   -0.4300   29.2050 C   0  0  0  0  0  0  0  0  0  0  0  0
    6.5260    0.6860   28.6230 C   0  0  0  0  0  0  0  0  0  0  0  0
    6.5710    1.9410   29.2840 N   0  0  0  0  0  0  0  0  0  0  0  0
    5.8190    3.0240   28.7020 C   0  0  0  0  0  0  0  0  0  0  0  0
    5.8490    4.0450   29.6090 C   0  0  0  0  0  0  0  0  0  0  0  0
    5.2300    3.7250   30.7560 O   0  0  0  0  0  0  0  0  0  0  0  0
    5.4490    2.4260   31.2170 C   0  0  0  0  0  0  0  0  0  0  0  0
    6.8060    2.0730   30.7430 C   0  0  0  0  0  0  0  0  0  0  0  0
    5.9280    0.6150   27.3840 C   0  0  0  0  0  0  0  0  0  0  0  0
    5.8880   -0.7200   26.6930 C   0  0  0  0  0  0  0  0  0  0  0  0
    5.9520   -5.0450   23.6740 C   0  0  0  0  0  0  0  0  0  0  0  0
    6.6320   -5.4750   22.3880 C   0  0  0  0  0  0  0  0  0  0  0  0
  1  2  1  0
  2  3  2  0
  2  4  1  0
  4  5  1  0
  5  6  1  0
  6  7  1  0
  7  8  1  0
  8  9  2  0
  8 10  1  0
 10 11  1  0
 11 12  1  0
 10 13  1  0
 13 14  2  0
 14 15  1  0
 15 16  2  0
 16 17  1  0
 17 18  1  0
 18 19  1  0
 19 20  1  0
 20 21  1  0
 17 22  1  0
 21 22  1  0
 16 23  1  0
 13 24  1  0
 23 24  2  0
  7 25  1  0
  4 26  1  0
 25 26  1  0
M  END
