piperidine-amides-27629-covalent
     RDKit          3D

 26 28  0  0  0  0  0  0  0  0999 V2000
    7.0500   -3.3690   19.3930 C   0  0  0  0  0  0  0  0  0  0  0  0
    6.4110   -4.2290   20.3980 C   0  0  0  0  0  0  0  0  0  0  0  0
    5.4200   -4.9040   19.9990 O   0  0  0  0  0  0  0  0  0  0  0  0
    6.9100   -4.3130   21.7090 N   0  0  0  0  0  0  0  0  0  0  0  0
    6.6960   -5.5030   22.5160 C   0  0  0  0  0  0  0  0  0  0  0  0
    6.1670   -5.0960   23.8730 C   0  0  0  0  0  0  0  0  0  0  0  0
    6.2530   -3.6020   24.0640 C   0  0  0  0  0  0  0  0  0  0  0  0
    5.8520   -3.1230   25.4200 C   0  0  0  0  0  0  0  0  0  0  0  0
    5.5670   -1.9200   25.5250 O   0  0  0  0  0  0  0  0  0  0  0  0
    5.6940   -3.9070   26.5790 N   0  0  0  0  0  0  0  0  0  0  0  0
    4.3760   -4.2640   26.9260 C   0  0  0  0  0  0  0  0  0  0  0  0
    4.3750   -4.9850   28.2650 C   0  0  0  0  0  0  0  0  0  0  0  0
    5.3740   -5.3130   29.1400 C   0  0  0  0  0  0  0  0  0  0  0  0
    5.1630   -5.9970   30.3120 C   0  0  0  0  0  0  0  0  0  0  0  0
    5.8790   -7.0850   30.7270 C   0  0  0  0  0  0  0  0  0  0  0  0
    5.6940   -7.7800   31.8920 C   0  0  0  0  0  0  0  0  0  0  0  0
    4.6930   -7.3690   32.7320 C   0  0  0  0  0  0  0  0  0  0  0  0
    3.8100   -6.1850   32.4080 C   0  0  0  0  0  0  0  0  0  0  0  0
    4.1170   -5.4850   31.0740 C   0  0  0  0  0  0  0  0  0  0  0  0
    3.5070   -4.4890   30.6240 O   0  0  0  0  0  0  0  0  0  0  0  0
    2.5690   -3.6900   31.2780 C   0  0  0  0  0  0  0  0  0  0  0  0
    2.9980   -3.4390   32.7130 C   0  0  0  0  0  0  0  0  0  0  0  0
    6.5280   -4.8410   28.5960 C   0  0  0  0  0  0  0  0  0  0  0  0
    6.3450   -3.5630   27.7910 C   0  0  0  0  0  0  0  0  0  0  0  0
    7.6210   -3.1250   23.7080 C   0  0  0  0  0  0  0  0  0  0  0  0
    7.7930   -3.2470   22.1960 C   0  0  0  0  0  0  0  0  0  0  0  0
  1  2  1  0
  2  3  2  0
  2  4  1  0
  4  5  1  0
  5  6  1  0
  6  7  1  0
  7  8  1  0
  8  9  2  0
  8 10  1  0
 10 11  1  0
 11 12  1  0
 12 13  2  0
 13 14  1  0
 14 15  2  0
 15 16  1  0
 16 17  2  0
 17 18  1  0
 14 19  1  0
 18 19  2  0
 19 20  1  0
 20 21  1  0
 21 22  1  0
 13 23  1  0
 10 24  1  0
 23 24  1  0
  7 25  1  0
  4 26  1  0
 25 26  1  0
M  END
