piperidine-amides-31156-covalent
     RDKit          3D

 28 31  0  0  0  0  0  0  0  0999 V2000
    7.0480   -3.3260   19.3000 C   0  0  0  0  0  0  0  0  0  0  0  0
    6.3660   -4.1570   20.2890 C   0  0  0  0  0  0  0  0  0  0  0  0
    5.3430   -4.7810   19.9590 O   0  0  0  0  0  0  0  0  0  0  0  0
    6.8660   -4.3080   21.5850 N   0  0  0  0  0  0  0  0  0  0  0  0
    6.6630   -5.5230   22.3370 C   0  0  0  0  0  0  0  0  0  0  0  0
    5.9340   -5.1110   23.5870 C   0  0  0  0  0  0  0  0  0  0  0  0
    6.5720   -3.9100   24.2210 C   0  0  0  0  0  0  0  0  0  0  0  0
    5.7230   -3.3360   25.3020 C   0  0  0  0  0  0  0  0  0  0  0  0
    4.8360   -2.4910   24.9990 O   0  0  0  0  0  0  0  0  0  0  0  0
    5.8040   -3.6870   26.6780 N   0  0  0  0  0  0  0  0  0  0  0  0
    4.9670   -4.8050   27.1540 C   0  0  0  0  0  0  0  0  0  0  0  0
    4.6060   -4.5140   28.5430 C   0  0  0  0  0  0  0  0  0  0  0  0
    5.5740   -3.7090   28.8990 N   0  0  0  0  0  0  0  0  0  0  0  0
    6.8830   -4.0070   28.5310 C   0  0  0  0  0  0  0  0  0  0  0  0
    6.8640   -4.9050   29.3890 O   0  0  0  0  0  0  0  0  0  0  0  0
    6.4630   -2.8460   27.6220 C   0  0  2  0  0  0  0  0  0  0  0  0
    5.6340   -1.8420   28.4390 C   0  0  0  0  0  0  0  0  0  0  0  0
    4.1980   -1.5880   28.1300 C   0  0  0  0  0  0  0  0  0  0  0  0
    3.4250   -2.1540   27.1430 C   0  0  0  0  0  0  0  0  0  0  0  0
    3.7670   -0.6580   29.0280 N   0  0  0  0  0  0  0  0  0  0  0  0
    4.8540   -0.3730   29.8050 C   0  0  0  0  0  0  0  0  0  0  0  0
    4.6990    0.6530   30.9250 C   0  0  0  0  0  0  0  0  0  0  0  0
    5.9900    0.8180   31.6440 C   0  0  0  0  0  0  0  0  0  0  0  0
    6.9200   -0.1000   30.9620 C   0  0  0  0  0  0  0  0  0  0  0  0
    7.1930   -0.9110   30.1390 C   0  0  0  0  0  0  0  0  0  0  0  0
    6.0060   -1.0890   29.4540 N   0  0  0  0  0  0  0  0  0  0  0  0
    6.9440   -2.8190   23.3030 C   0  0  0  0  0  0  0  0  0  0  0  0
    7.6370   -3.2730   22.2080 C   0  0  0  0  0  0  0  0  0  0  0  0
  1  2  1  0
  2  3  2  0
  2  4  1  0
  4  5  1  0
  5  6  1  0
  6  7  1  0
  7  8  1  0
  8  9  2  0
  8 10  1  0
 10 11  1  0
 11 12  1  0
 12 13  1  0
 13 14  1  0
 14 15  2  0
 10 16  1  0
 14 16  1  0
 16 17  1  1
 17 18  2  0
 18 19  1  0
 18 20  1  0
 20 21  2  0
 21 22  1  0
 22 23  2  0
 23 24  1  0
 24 25  2  0
 17 26  1  0
 21 26  1  0
 25 26  1  0
  7 27  1  0
  4 28  1  0
 27 28  1  0
M  END
