piperidine-amides-29712-covalent
     RDKit          3D

 27 29  0  0  0  0  0  0  0  0999 V2000
    7.0130   -3.3720   19.4480 C   0  0  0  0  0  0  0  0  0  0  0  0
    6.3600   -4.2640   20.4020 C   0  0  0  0  0  0  0  0  0  0  0  0
    5.4190   -4.9620   20.0120 O   0  0  0  0  0  0  0  0  0  0  0  0
    6.8240   -4.3660   21.7710 N   0  0  0  0  0  0  0  0  0  0  0  0
    7.6590   -3.3160   22.3330 C   0  0  0  0  0  0  0  0  0  0  0  0
    7.2600   -2.9820   23.7490 C   0  0  0  0  0  0  0  0  0  0  0  0
    5.9390   -3.6830   24.0140 C   0  0  0  0  0  0  0  0  0  0  0  0
    5.2470   -3.2460   25.2890 C   0  0  0  0  0  0  0  0  0  0  0  0
    4.4580   -2.2910   25.2590 O   0  0  0  0  0  0  0  0  0  0  0  0
    5.4110   -3.8620   26.5700 N   0  0  0  0  0  0  0  0  0  0  0  0
    6.5100   -3.4740   27.3060 C   0  0  0  0  0  0  0  0  0  0  0  0
    6.7460   -4.6970   28.1800 C   0  0  0  0  0  0  0  0  0  0  0  0
    5.7380   -5.0270   29.0090 C   0  0  0  0  0  0  0  0  0  0  0  0
    5.5490   -6.4520   29.0230 N   0  0  0  0  0  0  0  0  0  0  0  0
    4.2030   -6.8330   29.3440 C   0  0  0  0  0  0  0  0  0  0  0  0
    3.3610   -7.3310   28.3340 O   0  0  0  0  0  0  0  0  0  0  0  0
    3.7920   -6.6810   30.6550 C   0  0  0  0  0  0  0  0  0  0  0  0
    3.7500   -5.4230   31.3160 C   0  0  0  0  0  0  0  0  0  0  0  0
    3.3450   -5.3300   32.5920 C   0  0  0  0  0  0  0  0  0  0  0  0
    2.9560   -6.4470   33.3050 C   0  0  0  0  0  0  0  0  0  0  0  0
    2.9210   -7.7930   32.8340 C   0  0  0  0  0  0  0  0  0  0  0  0
    2.5380   -9.0620   33.4610 C   0  0  0  0  0  0  0  0  0  0  0  0
    3.4050   -7.7930   31.3520 C   0  0  0  0  0  0  0  0  0  0  0  0
    4.6390   -4.1980   28.7420 C   0  0  0  0  0  0  0  0  0  0  0  0
    4.2160   -4.1170   27.2940 C   0  0  0  0  0  0  0  0  0  0  0  0
    6.0310   -5.1670   23.8990 C   0  0  0  0  0  0  0  0  0  0  0  0
    6.5820   -5.5660   22.5360 C   0  0  0  0  0  0  0  0  0  0  0  0
  1  2  1  0
  2  3  2  0
  2  4  1  0
  4  5  1  0
  5  6  1  0
  6  7  1  0
  7  8  1  0
  8  9  2  0
  8 10  1  0
 10 11  1  0
 11 12  1  0
 12 13  1  0
 13 14  1  0
 14 15  1  0
 15 16  2  0
 15 17  1  0
 17 18  2  0
 18 19  1  0
 19 20  2  0
 20 21  1  0
 21 22  1  0
 17 23  1  0
 21 23  2  0
 13 24  1  0
 10 25  1  0
 24 25  1  0
  7 26  1  0
  4 27  1  0
 26 27  1  0
M  END
