piperidine-amides-28942-covalent
     RDKit          3D

 26 28  0  0  0  0  0  0  0  0999 V2000
    6.9680   -3.3570   19.4230 C   0  0  0  0  0  0  0  0  0  0  0  0
    6.3560   -4.2360   20.4240 C   0  0  0  0  0  0  0  0  0  0  0  0
    5.4430   -4.9810   20.0150 O   0  0  0  0  0  0  0  0  0  0  0  0
    6.7990   -4.2670   21.7920 N   0  0  0  0  0  0  0  0  0  0  0  0
    6.5280   -5.4540   22.5660 C   0  0  0  0  0  0  0  0  0  0  0  0
    5.9680   -5.1190   23.9420 C   0  0  0  0  0  0  0  0  0  0  0  0
    5.7750   -3.6140   24.0180 C   0  0  0  0  0  0  0  0  0  0  0  0
    4.9430   -3.1300   25.2330 C   0  0  0  0  0  0  0  0  0  0  0  0
    3.7930   -2.8540   24.9470 O   0  0  0  0  0  0  0  0  0  0  0  0
    5.4230   -3.0240   26.5550 N   0  0  0  0  0  0  0  0  0  0  0  0
    4.6170   -2.9840   27.7120 C   0  0  0  0  0  0  0  0  0  0  0  0
    4.8500   -3.9610   28.7400 C   0  0  0  0  0  0  0  0  0  0  0  0
    5.9430   -4.8390   28.7950 C   0  0  0  0  0  0  0  0  0  0  0  0
    5.8550   -6.0750   29.4550 C   0  0  0  0  0  0  0  0  0  0  0  0
    4.7490   -6.0170   30.4880 C   0  0  0  0  0  0  0  0  0  0  0  0
    4.1690   -4.7840   30.6300 O   0  0  0  0  0  0  0  0  0  0  0  0
    4.3370   -7.0810   31.2300 N   0  0  0  0  0  0  0  0  0  0  0  0
    3.0630   -7.1160   31.6320 C   0  0  0  0  0  0  0  0  0  0  0  0
    2.6560   -8.3380   32.3690 C   0  0  0  0  0  0  0  0  0  0  0  0
    3.6290   -8.8230   33.2070 O   0  0  0  0  0  0  0  0  0  0  0  0
    4.7710   -8.0530   33.4990 C   0  0  0  0  0  0  0  0  0  0  0  0
    5.3440   -7.4650   32.1810 C   0  0  0  0  0  0  0  0  0  0  0  0
    5.9420   -4.9580   27.2990 C   0  0  0  0  0  0  0  0  0  0  0  0
    6.4600   -3.7950   26.7840 C   0  0  0  0  0  0  0  0  0  0  0  0
    7.0630   -2.8950   23.7850 C   0  0  0  0  0  0  0  0  0  0  0  0
    7.5710   -3.1910   22.3860 C   0  0  0  0  0  0  0  0  0  0  0  0
  1  2  1  0
  2  3  2  0
  2  4  1  0
  4  5  1  0
  5  6  1  0
  6  7  1  0
  7  8  1  0
  8  9  2  0
  8 10  1  0
 10 11  1  0
 11 12  1  0
 12 13  1  0
 13 14  1  0
 14 15  1  0
 15 16  2  0
 15 17  1  0
 17 18  1  0
 18 19  1  0
 19 20  1  0
 20 21  1  0
 17 22  1  0
 21 22  1  0
 13 23  1  0
 10 24  1  0
 23 24  1  0
  7 25  1  0
  4 26  1  0
 25 26  1  0
M  END
