piperidine-amides-9820-covalent
     RDKit          3D

 28 29  0  0  0  0  0  0  0  0999 V2000
    7.0610   -3.3370   19.3150 C   0  0  0  0  0  0  0  0  0  0  0  0
    6.3970   -4.1710   20.3220 C   0  0  0  0  0  0  0  0  0  0  0  0
    5.3490   -4.7660   19.9600 O   0  0  0  0  0  0  0  0  0  0  0  0
    6.9550   -4.3180   21.5930 N   0  0  0  0  0  0  0  0  0  0  0  0
    7.7610   -3.2860   22.2050 C   0  0  0  0  0  0  0  0  0  0  0  0
    7.0420   -2.7850   23.4160 C   0  0  0  0  0  0  0  0  0  0  0  0
    6.5450   -3.9070   24.2780 C   0  0  0  0  0  0  0  0  0  0  0  0
    5.8290   -3.3330   25.4380 C   0  0  0  0  0  0  0  0  0  0  0  0
    4.5780   -3.2900   25.4010 O   0  0  0  0  0  0  0  0  0  0  0  0
    6.4990   -2.8360   26.5740 N   0  0  0  0  0  0  0  0  0  0  0  0
    6.3470   -1.4780   27.0510 C   0  0  0  0  0  0  0  0  0  0  0  0
    6.7800   -1.3370   28.5070 C   0  0  0  0  0  0  0  0  0  0  0  0
    6.7180   -0.1440   29.1830 C   0  0  0  0  0  0  0  0  0  0  0  0
    7.0770    0.0700   30.5010 C   0  0  0  0  0  0  0  0  0  0  0  0
    8.3050   -0.2790   30.9240 F   0  0  0  0  0  0  0  0  0  0  0  0
    6.0990   -0.5040   31.3270 F   0  0  0  0  0  0  0  0  0  0  0  0
    7.0180    1.4260   30.6510 F   0  0  0  0  0  0  0  0  0  0  0  0
    6.2520    0.9380   28.4900 C   0  0  0  0  0  0  0  0  0  0  0  0
    5.8580    0.8290   27.1670 C   0  0  0  0  0  0  0  0  0  0  0  0
    5.8910   -0.3330   26.4360 C   0  0  0  0  0  0  0  0  0  0  0  0
    5.4620   -0.3210   25.1000 O   0  0  0  0  0  0  0  0  0  0  0  0
    4.7140    0.2610   24.1450 C   0  0  0  0  0  0  0  0  0  0  0  0
    5.2490    1.5710   23.5540 C   0  0  0  0  0  0  0  0  0  0  0  0
    4.8360    1.6740   22.2190 F   0  0  0  0  0  0  0  0  0  0  0  0
    4.8030    2.7100   24.1580 F   0  0  0  0  0  0  0  0  0  0  0  0
    6.6280    1.5730   23.6620 F   0  0  0  0  0  0  0  0  0  0  0  0
    5.6670   -4.8880   23.4850 C   0  0  0  0  0  0  0  0  0  0  0  0
    6.5850   -5.4590   22.4180 C   0  0  0  0  0  0  0  0  0  0  0  0
  1  2  1  0
  2  3  2  0
  2  4  1  0
  4  5  1  0
  5  6  1  0
  6  7  1  0
  7  8  1  0
  8  9  2  0
  8 10  1  0
 10 11  1  0
 11 12  2  0
 12 13  1  0
 13 14  1  0
 14 15  1  0
 14 16  1  0
 14 17  1  0
 13 18  2  0
 18 19  1  0
 11 20  1  0
 19 20  2  0
 20 21  1  0
 21 22  1  0
 22 23  1  0
 23 24  1  0
 23 25  1  0
 23 26  1  0
  7 27  1  0
  4 28  1  0
 27 28  1  0
M  END
