piperidine-amides-8944-covalent
     RDKit          3D

 22 24  0  0  0  0  0  0  0  0999 V2000
    7.0760   -3.3280   19.2880 C   0  0  0  0  0  0  0  0  0  0  0  0
    6.3830   -4.1370   20.2890 C   0  0  0  0  0  0  0  0  0  0  0  0
    5.3690   -4.7760   19.9630 O   0  0  0  0  0  0  0  0  0  0  0  0
    6.8820   -4.2360   21.5950 N   0  0  0  0  0  0  0  0  0  0  0  0
    7.7210   -3.2200   22.1910 C   0  0  0  0  0  0  0  0  0  0  0  0
    6.9230   -2.6700   23.3320 C   0  0  0  0  0  0  0  0  0  0  0  0
    6.5490   -3.7620   24.2740 C   0  0  0  0  0  0  0  0  0  0  0  0
    5.8120   -3.2490   25.4560 C   0  0  0  0  0  0  0  0  0  0  0  0
    4.5580   -3.0830   25.4000 O   0  0  0  0  0  0  0  0  0  0  0  0
    6.4510   -2.9280   26.6810 N   0  0  0  0  0  0  0  0  0  0  0  0
    6.4240   -1.5490   27.2310 C   0  0  0  0  0  0  0  0  0  0  0  0
    7.2440   -1.2930   28.5010 C   0  0  0  0  0  0  0  0  0  0  0  0
    7.1900   -0.0070   28.9760 N   0  0  0  0  0  0  0  0  0  0  0  0
    6.4420    0.9900   28.3660 C   0  0  0  0  0  0  0  0  0  0  0  0
    6.3370    2.2730   28.7910 N   0  0  0  0  0  0  0  0  0  0  0  0
    5.5190    2.8830   27.9060 N   0  0  0  0  0  0  0  0  0  0  0  0
    5.0210    2.0560   26.8340 C   0  0  0  0  0  0  0  0  0  0  0  0
    4.0920    2.4060   25.6860 C   0  0  0  0  0  0  0  0  0  0  0  0
    5.6530    0.7340   27.1390 C   0  0  0  0  0  0  0  0  0  0  0  0
    5.5780   -0.4450   26.5100 C   0  0  0  0  0  0  0  0  0  0  0  0
    5.7410   -4.8410   23.5860 C   0  0  0  0  0  0  0  0  0  0  0  0
    6.5420   -5.3770   22.4170 C   0  0  0  0  0  0  0  0  0  0  0  0
  1  2  1  0
  2  3  2  0
  2  4  1  0
  4  5  1  0
  5  6  1  0
  6  7  1  0
  7  8  1  0
  8  9  2  0
  8 10  1  0
 10 11  1  0
 11 12  1  0
 12 13  2  0
 13 14  1  0
 14 15  2  0
 15 16  1  0
 16 17  1  0
 17 18  1  0
 14 19  1  0
 17 19  2  0
 11 20  2  0
 19 20  1  0
  7 21  1  0
  4 22  1  0
 21 22  1  0
M  END
