piperidine-amides-14260-covalent
     RDKit          3D

 24 25  0  0  0  0  0  0  0  0999 V2000
    7.0950   -3.2530   19.2110 C   0  0  0  0  0  0  0  0  0  0  0  0
    6.3200   -4.0270   20.2220 C   0  0  0  0  0  0  0  0  0  0  0  0
    5.2680   -4.5910   19.8850 O   0  0  0  0  0  0  0  0  0  0  0  0
    6.8240   -4.1450   21.5280 N   0  0  0  0  0  0  0  0  0  0  0  0
    7.6680   -3.1160   22.0870 C   0  0  0  0  0  0  0  0  0  0  0  0
    7.5240   -3.1860   23.6030 C   0  0  0  0  0  0  0  0  0  0  0  0
    6.1370   -3.6470   23.8800 C   0  0  0  0  0  0  0  0  0  0  0  0
    5.6260   -3.1440   25.1700 C   0  0  0  0  0  0  0  0  0  0  0  0
    4.4800   -2.6620   25.1600 O   0  0  0  0  0  0  0  0  0  0  0  0
    6.4110   -3.2340   26.3190 N   0  0  0  0  0  0  0  0  0  0  0  0
    7.4480   -2.3610   26.7490 C   0  0  0  0  0  0  0  0  0  0  0  0
    7.2930   -1.3330   27.6630 C   0  0  2  0  0  0  0  0  0  0  0  0
    8.3920   -0.6380   28.1610 C   0  0  0  0  0  0  0  0  0  0  0  0
    8.5810   -0.6200   29.5160 C   0  0  0  0  0  0  0  0  0  0  0  0
    6.7020   -1.9150   28.8630 O   0  0  0  0  0  0  0  0  0  0  0  0
    6.5750   -3.1670   28.6260 C   0  0  0  0  0  0  0  0  0  0  0  0
    5.2740   -3.8660   28.9640 C   0  0  0  0  0  0  0  0  0  0  0  0
    5.2540   -5.3290   28.6110 C   0  0  0  0  0  0  0  0  0  0  0  0
    6.3470   -5.9100   28.0300 C   0  0  0  0  0  0  0  0  0  0  0  0
    7.6990   -5.3970   27.6240 C   0  0  0  0  0  0  0  0  0  0  0  0
    9.0390   -6.2040   26.8680 Cl  0  0  0  0  0  0  0  0  0  0  0  0
    7.6740   -3.9370   28.0100 C   0  0  0  0  0  0  0  0  0  0  0  0
    6.1300   -5.1060   23.6970 C   0  0  0  0  0  0  0  0  0  0  0  0
    6.6090   -5.3720   22.2530 C   0  0  0  0  0  0  0  0  0  0  0  0
  1  2  1  0
  2  3  2  0
  2  4  1  0
  4  5  1  0
  5  6  1  0
  6  7  1  0
  7  8  1  0
  8  9  2  0
  8 10  1  0
 10 11  1  0
 12 11  1  6
 12 13  1  0
 13 14  1  0
 12 15  1  0
 15 16  1  0
 16 17  2  0
 17 18  1  0
 18 19  2  0
 19 20  1  0
 20 21  1  0
 16 22  1  0
 20 22  2  0
  7 23  1  0
  4 24  1  0
 23 24  1  0
M  END
