piperidine-amides-35012-covalent
     RDKit          3D

 32 35  0  0  0  0  0  0  0  0999 V2000
    7.1010   -3.3710   19.3490 C   0  0  0  0  0  0  0  0  0  0  0  0
    6.3980   -4.2090   20.3480 C   0  0  0  0  0  0  0  0  0  0  0  0
    5.3670   -4.7680   19.9690 O   0  0  0  0  0  0  0  0  0  0  0  0
    6.9370   -4.3860   21.6290 N   0  0  0  0  0  0  0  0  0  0  0  0
    6.5860   -5.5110   22.4460 C   0  0  0  0  0  0  0  0  0  0  0  0
    5.8990   -5.0160   23.6910 C   0  0  0  0  0  0  0  0  0  0  0  0
    6.5790   -3.7440   24.2390 C   0  0  0  0  0  0  0  0  0  0  0  0
    5.6680   -3.1140   25.2250 C   0  0  0  0  0  0  0  0  0  0  0  0
    4.9670   -2.1730   24.8530 O   0  0  0  0  0  0  0  0  0  0  0  0
    5.5400   -3.5390   26.5620 N   0  0  0  0  0  0  0  0  0  0  0  0
    6.1120   -4.8200   26.8220 C   0  0  0  0  0  0  0  0  0  0  0  0
    6.3240   -5.7040   27.9600 C   0  0  0  0  0  0  0  0  0  0  0  0
    5.9950   -5.6160   29.3770 C   0  0  0  0  0  0  0  0  0  0  0  0
    6.5320   -6.3460   28.5760 N   0  0  0  0  0  0  0  0  0  0  0  0
    5.9750   -5.0850   28.0710 N   0  0  0  0  0  0  0  0  0  0  0  0
    5.3510   -4.3410   28.9970 C   0  0  2  0  0  0  0  0  0  0  0  0
    4.0850   -4.6040   29.5350 C   0  0  0  0  0  0  0  0  0  0  0  0
    4.1800   -5.7140   30.3700 F   0  0  0  0  0  0  0  0  0  0  0  0
    3.6160   -3.5220   30.2710 F   0  0  0  0  0  0  0  0  0  0  0  0
    3.1760   -4.8650   28.5430 F   0  0  0  0  0  0  0  0  0  0  0  0
    4.1370   -4.0550   28.3220 C   0  0  0  0  0  0  0  0  0  0  0  0
    4.3490   -3.1380   27.1800 C   0  0  2  0  0  0  0  0  0  0  0  0
    3.0240   -3.3870   26.5030 C   0  0  0  0  0  0  0  0  0  0  0  0
    1.7490   -2.6510   26.8330 C   0  0  0  0  0  0  0  0  0  0  0  0
    0.4550   -2.9340   26.1260 C   0  0  0  0  0  0  0  0  0  0  0  0
    0.3000   -3.9660   25.0290 C   0  0  0  0  0  0  0  0  0  0  0  0
   -0.9920   -4.2370   24.3330 C   0  0  0  0  0  0  0  0  0  0  0  0
    1.4490   -4.6550   24.7050 C   0  0  0  0  0  0  0  0  0  0  0  0
    1.4230   -5.6190   23.7170 C   0  0  0  0  0  0  0  0  0  0  0  0
    2.7750   -4.4080   25.3870 C   0  0  0  0  0  0  0  0  0  0  0  0
    6.8500   -2.6610   23.1930 C   0  0  0  0  0  0  0  0  0  0  0  0
    7.7660   -3.3430   22.2030 C   0  0  0  0  0  0  0  0  0  0  0  0
  1  2  1  0
  2  3  2  0
  2  4  1  0
  4  5  1  0
  5  6  1  0
  6  7  1  0
  7  8  1  0
  8  9  2  0
  8 10  1  0
 10 11  1  0
 11 12  2  0
 12 13  1  0
 13 14  2  0
 11 15  1  0
 14 15  1  0
 15 16  1  0
 16 17  1  1
 17 18  1  0
 17 19  1  0
 17 20  1  0
 16 21  1  0
 10 22  1  0
 21 22  1  0
 22 23  1  6
 23 24  2  0
 24 25  1  0
 25 26  2  0
 26 27  1  0
 26 28  1  0
 28 29  1  0
 23 30  1  0
 28 30  2  0
  7 31  1  0
  4 32  1  0
 31 32  1  0
M  END
