piperidine-amides-30874-covalent
     RDKit          3D

 28 31  0  0  0  0  0  0  0  0999 V2000
    7.0820   -3.3540   19.3620 C   0  0  0  0  0  0  0  0  0  0  0  0
    6.4180   -4.2090   20.3470 C   0  0  0  0  0  0  0  0  0  0  0  0
    5.4070   -4.8450   19.9920 O   0  0  0  0  0  0  0  0  0  0  0  0
    6.9210   -4.3760   21.6570 N   0  0  0  0  0  0  0  0  0  0  0  0
    6.6490   -5.5450   22.4480 C   0  0  0  0  0  0  0  0  0  0  0  0
    5.8620   -5.0700   23.6510 C   0  0  0  0  0  0  0  0  0  0  0  0
    6.3730   -3.7930   24.2910 C   0  0  0  0  0  0  0  0  0  0  0  0
    5.3430   -3.1840   25.1840 C   0  0  0  0  0  0  0  0  0  0  0  0
    4.3900   -2.5630   24.6490 O   0  0  0  0  0  0  0  0  0  0  0  0
    5.2980   -3.2300   26.6020 N   0  0  0  0  0  0  0  0  0  0  0  0
    4.0240   -3.3370   27.2930 C   0  0  0  0  0  0  0  0  0  0  0  0
    4.1680   -4.4480   28.2410 C   0  0  0  0  0  0  0  0  0  0  0  0
    5.3500   -4.3730   29.0780 C   0  0  0  0  0  0  0  0  0  0  0  0
    5.3520   -5.4980   30.0510 C   0  0  0  0  0  0  0  0  0  0  0  0
    4.2630   -5.5310   31.0490 C   0  0  0  0  0  0  0  0  0  0  0  0
    4.4430   -6.6130   32.0390 C   0  0  0  0  0  0  0  0  0  0  0  0
    3.6440   -6.4130   33.1580 C   0  0  0  0  0  0  0  0  0  0  0  0
    3.5660   -7.1740   34.2700 C   0  0  0  0  0  0  0  0  0  0  0  0
    4.4280   -8.3240   34.2740 C   0  0  0  0  0  0  0  0  0  0  0  0
    5.2880   -8.5220   33.0460 C   0  0  0  0  0  0  0  0  0  0  0  0
    5.4880   -7.7650   31.7070 C   0  0  0  0  0  0  0  0  0  0  0  0
    5.9970   -7.5950   30.5900 C   0  0  0  0  0  0  0  0  0  0  0  0
    6.2450   -8.6160   29.9110 O   0  0  0  0  0  0  0  0  0  0  0  0
    6.3430   -6.4450   30.0290 N   0  0  0  0  0  0  0  0  0  0  0  0
    6.5220   -4.3320   28.1900 C   0  0  0  0  0  0  0  0  0  0  0  0
    6.4550   -3.2220   27.3470 C   0  0  0  0  0  0  0  0  0  0  0  0
    6.8440   -2.7390   23.3230 C   0  0  0  0  0  0  0  0  0  0  0  0
    7.7530   -3.3790   22.2920 C   0  0  0  0  0  0  0  0  0  0  0  0
  1  2  1  0
  2  3  2  0
  2  4  1  0
  4  5  1  0
  5  6  1  0
  6  7  1  0
  7  8  1  0
  8  9  2  0
  8 10  1  0
 10 11  1  0
 11 12  1  0
 12 13  1  0
 13 14  1  0
 14 15  2  0
 15 16  1  0
 16 17  2  0
 17 18  1  0
 18 19  2  0
 19 20  1  0
 16 21  1  0
 20 21  2  0
 21 22  1  0
 22 23  2  0
 14 24  1  0
 22 24  1  0
 13 25  1  0
 10 26  1  0
 25 26  1  0
  7 27  1  0
  4 28  1  0
 27 28  1  0
M  END
