piperidine-amides-3146-covalent
     RDKit          3D

 23 24  0  0  0  0  0  0  0  0999 V2000
    7.1120   -3.2680   19.2490 C   0  0  0  0  0  0  0  0  0  0  0  0
    6.3560   -4.0360   20.2350 C   0  0  0  0  0  0  0  0  0  0  0  0
    5.3140   -4.6050   19.9050 O   0  0  0  0  0  0  0  0  0  0  0  0
    6.8500   -4.1720   21.5760 N   0  0  0  0  0  0  0  0  0  0  0  0
    6.6110   -5.4060   22.2840 C   0  0  0  0  0  0  0  0  0  0  0  0
    6.0230   -5.1000   23.6270 C   0  0  0  0  0  0  0  0  0  0  0  0
    6.1040   -3.5990   23.7830 C   0  0  0  0  0  0  0  0  0  0  0  0
    5.5800   -3.2050   25.1120 C   0  0  0  0  0  0  0  0  0  0  0  0
    4.5340   -2.5460   25.2500 O   0  0  0  0  0  0  0  0  0  0  0  0
    6.2850   -3.6020   26.2540 N   0  0  0  0  0  0  0  0  0  0  0  0
    5.5830   -4.4250   27.1990 C   0  0  1  0  0  0  0  0  0  0  0  0
    5.9860   -5.8750   27.1210 C   0  0  0  0  0  0  0  0  0  0  0  0
    5.8240   -3.9410   28.5510 C   0  0  0  0  0  0  0  0  0  0  0  0
    6.8760   -3.3850   28.9170 O   0  0  0  0  0  0  0  0  0  0  0  0
    4.7360   -4.1250   29.4590 N   0  0  0  0  0  0  0  0  0  0  0  0
    4.7980   -5.3350   30.2130 C   0  0  0  0  0  0  0  0  0  0  0  0
    3.8080   -5.4860   31.1770 C   0  0  0  0  0  0  0  0  0  0  0  0
    3.8250   -6.6900   31.9910 C   0  0  0  0  0  0  0  0  0  0  0  0
    4.7640   -7.6670   31.8440 C   0  0  0  0  0  0  0  0  0  0  0  0
    5.7110   -7.4730   30.8800 C   0  0  0  0  0  0  0  0  0  0  0  0
    5.7400   -6.3430   30.0780 C   0  0  0  0  0  0  0  0  0  0  0  0
    7.4050   -3.0290   23.5140 C   0  0  0  0  0  0  0  0  0  0  0  0
    7.7160   -3.1710   22.1740 C   0  0  0  0  0  0  0  0  0  0  0  0
  1  2  1  0
  2  3  2  0
  2  4  1  0
  4  5  1  0
  5  6  1  0
  6  7  1  0
  7  8  1  0
  8  9  2  0
  8 10  1  0
 10 11  1  0
 11 12  1  1
 11 13  1  0
 13 14  2  0
 13 15  1  0
 15 16  1  0
 16 17  2  0
 17 18  1  0
 18 19  2  0
 19 20  1  0
 16 21  1  0
 20 21  2  0
  7 22  1  0
  4 23  1  0
 22 23  1  0
M  END
