piperidine-amides-34346-covalent
     RDKit          3D

 29 31  0  0  0  0  0  0  0  0999 V2000
    7.0410   -3.3460   19.3690 C   0  0  0  0  0  0  0  0  0  0  0  0
    6.3800   -4.2150   20.3520 C   0  0  0  0  0  0  0  0  0  0  0  0
    5.3940   -4.9000   19.9980 O   0  0  0  0  0  0  0  0  0  0  0  0
    6.8670   -4.3270   21.6700 N   0  0  0  0  0  0  0  0  0  0  0  0
    6.6640   -5.5420   22.4030 C   0  0  0  0  0  0  0  0  0  0  0  0
    5.8570   -5.1500   23.6440 C   0  0  0  0  0  0  0  0  0  0  0  0
    6.5780   -4.0040   24.3370 C   0  0  0  0  0  0  0  0  0  0  0  0
    5.7510   -3.5810   25.5160 C   0  0  0  0  0  0  0  0  0  0  0  0
    4.5410   -3.3910   25.2620 O   0  0  0  0  0  0  0  0  0  0  0  0
    6.2030   -3.3620   26.8740 N   0  0  0  0  0  0  0  0  0  0  0  0
    5.1760   -2.8850   27.7680 C   0  0  0  0  0  0  0  0  0  0  0  0
    4.5430   -4.0140   28.6310 C   0  0  0  0  0  0  0  0  0  0  0  0
    4.9620   -5.3680   28.2530 N   0  0  0  0  0  0  0  0  0  0  0  0
    4.1400   -6.5590   28.4090 C   0  0  0  0  0  0  0  0  0  0  0  0
    3.0200   -6.5200   27.8160 O   0  0  0  0  0  0  0  0  0  0  0  0
    4.7190   -7.5370   29.1720 C   0  0  0  0  0  0  0  0  0  0  0  0
    3.9970   -7.7130   30.2850 N   0  0  0  0  0  0  0  0  0  0  0  0
    4.5470   -7.6590   31.6360 C   0  0  0  0  0  0  0  0  0  0  0  0
    3.5720   -7.8820   32.5360 C   0  0  0  0  0  0  0  0  0  0  0  0
    3.7470   -7.9190   34.2810 Cl  0  0  0  0  0  0  0  0  0  0  0  0
    2.3280   -8.0910   31.7540 C   0  0  0  0  0  0  0  0  0  0  0  0
    1.1730   -8.3370   32.4000 N   0  0  0  0  0  0  0  0  0  0  0  0
    1.0310   -8.1440   33.6740 O   0  0  0  0  0  0  0  0  0  0  0  0
    0.1080   -8.8330   31.6980 O   0  0  0  0  0  0  0  0  0  0  0  0
    2.5970   -7.9860   30.4350 N   0  0  0  0  0  0  0  0  0  0  0  0
    6.3220   -5.4790   27.9820 C   0  0  0  0  0  0  0  0  0  0  0  0
    6.5460   -4.0350   28.1050 C   0  0  0  0  0  0  0  0  0  0  0  0
    6.7620   -2.8460   23.3790 C   0  0  0  0  0  0  0  0  0  0  0  0
    7.6010   -3.2650   22.3270 C   0  0  0  0  0  0  0  0  0  0  0  0
  1  2  1  0
  2  3  2  0
  2  4  1  0
  4  5  1  0
  5  6  1  0
  6  7  1  0
  7  8  1  0
  8  9  2  0
  8 10  1  0
 10 11  1  0
 11 12  1  0
 12 13  1  0
 13 14  1  0
 14 15  2  0
 14 16  1  0
 16 17  1  0
 17 18  1  0
 18 19  2  0
 19 20  1  0
 19 21  1  0
 21 22  1  0
 22 23  2  0
 22 24  1  0
 17 25  1  0
 21 25  2  0
 13 26  1  0
 10 27  1  0
 26 27  1  0
  7 28  1  0
  4 29  1  0
 28 29  1  0
M  CHG  2  22   1  24  -1
M  END
