piperidine-amides-4761-covalent
     RDKit          3D

 24 25  0  0  0  0  0  0  0  0999 V2000
    7.1170   -3.2670   19.1390 C   0  0  0  0  0  0  0  0  0  0  0  0
    6.3710   -3.9960   20.1900 C   0  0  0  0  0  0  0  0  0  0  0  0
    5.2770   -4.4950   19.8610 O   0  0  0  0  0  0  0  0  0  0  0  0
    6.9050   -4.1620   21.4710 N   0  0  0  0  0  0  0  0  0  0  0  0
    7.6420   -3.1030   22.0800 C   0  0  0  0  0  0  0  0  0  0  0  0
    7.1900   -2.7370   23.4190 C   0  0  0  0  0  0  0  0  0  0  0  0
    6.6130   -3.8460   24.2000 C   0  0  0  0  0  0  0  0  0  0  0  0
    5.8410   -3.2980   25.3410 C   0  0  0  0  0  0  0  0  0  0  0  0
    4.6920   -2.8750   25.1070 O   0  0  0  0  0  0  0  0  0  0  0  0
    6.3570   -3.2570   26.6480 N   0  0  0  0  0  0  0  0  0  0  0  0
    5.5620   -3.7890   27.7690 C   0  0  1  0  0  0  0  0  0  0  0  0
    6.0230   -5.1440   28.1980 C   0  0  0  0  0  0  0  0  0  0  0  0
    6.4490   -5.4290   29.3460 O   0  0  0  0  0  0  0  0  0  0  0  0
    6.1140   -6.6280   29.7410 C   0  0  0  0  0  0  0  0  0  0  0  0
    5.6150   -2.7630   28.7980 C   0  0  0  0  0  0  0  0  0  0  0  0
    6.6860   -1.9150   28.9730 C   0  0  0  0  0  0  0  0  0  0  0  0
    6.6700   -0.9640   29.9500 C   0  0  0  0  0  0  0  0  0  0  0  0
    5.5920   -0.8260   30.7790 C   0  0  0  0  0  0  0  0  0  0  0  0
    4.5060   -1.6440   30.6470 C   0  0  0  0  0  0  0  0  0  0  0  0
    3.4510   -1.4640   31.5030 O   0  0  0  0  0  0  0  0  0  0  0  0
    3.7850   -1.5330   32.8390 C   0  0  0  0  0  0  0  0  0  0  0  0
    4.5540   -2.5920   29.6540 C   0  0  0  0  0  0  0  0  0  0  0  0
    5.7570   -4.7930   23.4310 C   0  0  0  0  0  0  0  0  0  0  0  0
    6.5550   -5.3070   22.2740 C   0  0  0  0  0  0  0  0  0  0  0  0
  1  2  1  0
  2  3  2  0
  2  4  1  0
  4  5  1  0
  5  6  1  0
  6  7  1  0
  7  8  1  0
  8  9  2  0
  8 10  1  0
 10 11  1  0
 11 12  1  1
 12 13  1  0
 13 14  1  0
 11 15  1  0
 15 16  2  0
 16 17  1  0
 17 18  2  0
 18 19  1  0
 19 20  1  0
 20 21  1  0
 15 22  1  0
 19 22  2  0
  7 23  1  0
  4 24  1  0
 23 24  1  0
M  END
