piperidine-amides-15141-covalent
     RDKit          3D

 20 21  0  0  0  0  0  0  0  0999 V2000
    7.0130   -3.3350   19.3610 C   0  0  0  0  0  0  0  0  0  0  0  0
    6.3590   -4.1830   20.3580 C   0  0  0  0  0  0  0  0  0  0  0  0
    5.3940   -4.8740   19.9860 O   0  0  0  0  0  0  0  0  0  0  0  0
    6.8360   -4.2390   21.6960 N   0  0  0  0  0  0  0  0  0  0  0  0
    7.7130   -3.1980   22.1830 C   0  0  0  0  0  0  0  0  0  0  0  0
    7.4700   -2.9360   23.6360 C   0  0  0  0  0  0  0  0  0  0  0  0
    6.1380   -3.5670   23.9280 C   0  0  0  0  0  0  0  0  0  0  0  0
    5.7040   -3.2670   25.3320 C   0  0  0  0  0  0  0  0  0  0  0  0
    4.5650   -3.6200   25.6300 O   0  0  0  0  0  0  0  0  0  0  0  0
    6.5860   -2.6040   26.1860 N   0  0  0  0  0  0  0  0  0  0  0  0
    6.1290   -1.7490   27.2370 C   0  0  1  0  0  0  0  0  0  0  0  0
    7.0510   -1.4940   28.2550 C   0  0  0  0  0  0  0  0  0  0  0  0
    6.7280   -0.5580   29.1920 C   0  0  0  0  0  0  0  0  0  0  0  0
    6.0690    0.6070   28.8310 C   0  0  2  0  0  0  0  0  0  0  0  0
    4.8600    0.4870   29.7140 C   0  0  0  0  0  0  0  0  0  0  0  0
    3.8400    1.6420   29.6030 C   0  0  0  0  0  0  0  0  0  0  0  0
    5.8460    0.8370   27.4680 C   0  0  0  0  0  0  0  0  0  0  0  0
    5.9110   -0.3830   26.5860 C   0  0  0  0  0  0  0  0  0  0  0  0
    6.0630   -5.0190   23.7020 C   0  0  0  0  0  0  0  0  0  0  0  0
    6.6550   -5.4200   22.5200 C   0  0  0  0  0  0  0  0  0  0  0  0
  1  2  1  0
  2  3  2  0
  2  4  1  0
  4  5  1  0
  5  6  1  0
  6  7  1  0
  7  8  1  0
  8  9  2  0
  8 10  1  0
 11 10  1  6
 11 12  1  0
 12 13  1  0
 13 14  1  0
 14 15  1  1
 15 16  1  0
 14 17  1  0
 11 18  1  0
 17 18  1  0
  7 19  1  0
  4 20  1  0
 19 20  1  0
M  END
