piperidine-amides-2009-covalent
     RDKit          3D

 20 21  0  0  0  0  0  0  0  0999 V2000
    7.1330   -3.2490   19.1530 C   0  0  0  0  0  0  0  0  0  0  0  0
    6.3760   -3.9980   20.1940 C   0  0  0  0  0  0  0  0  0  0  0  0
    5.3110   -4.5240   19.8710 O   0  0  0  0  0  0  0  0  0  0  0  0
    6.9150   -4.1060   21.4690 N   0  0  0  0  0  0  0  0  0  0  0  0
    7.7630   -3.0660   21.9930 C   0  0  0  0  0  0  0  0  0  0  0  0
    7.4940   -2.8610   23.4440 C   0  0  0  0  0  0  0  0  0  0  0  0
    6.1170   -3.4090   23.8200 C   0  0  0  0  0  0  0  0  0  0  0  0
    6.0230   -3.1840   25.2630 C   0  0  0  0  0  0  0  0  0  0  0  0
    4.9440   -2.8220   25.7670 O   0  0  0  0  0  0  0  0  0  0  0  0
    7.1850   -3.3870   26.0370 N   0  0  0  0  0  0  0  0  0  0  0  0
    7.4050   -2.5890   27.2010 C   0  0  0  0  0  0  0  0  0  0  0  0
    7.3890   -3.5200   28.3860 C   0  0  0  0  0  0  0  0  0  0  0  0
    6.5650   -4.6010   28.5010 C   0  0  1  0  0  0  0  0  0  0  0  0
    5.8620   -4.9430   27.4180 C   0  0  0  0  0  0  0  0  0  0  0  0
    6.5520   -6.0530   27.2790 C   0  0  1  0  0  0  0  0  0  0  0  0
    7.4930   -6.0840   26.2840 O   0  0  0  0  0  0  0  0  0  0  0  0
    8.8220   -5.9400   26.5530 C   0  0  0  0  0  0  0  0  0  0  0  0
    7.2660   -5.9540   28.5450 C   0  0  0  0  0  0  0  0  0  0  0  0
    5.9090   -4.8440   23.5190 C   0  0  0  0  0  0  0  0  0  0  0  0
    6.5530   -5.2580   22.2450 C   0  0  0  0  0  0  0  0  0  0  0  0
  1  2  1  0
  2  3  2  0
  2  4  1  0
  4  5  1  0
  5  6  1  0
  6  7  1  0
  7  8  1  0
  8  9  2  0
  8 10  1  0
 10 11  1  0
 11 12  1  0
 13 12  1  6
 13 14  1  0
 14 15  1  0
 15 16  1  6
 16 17  1  0
 13 18  1  0
 15 18  1  0
  7 19  1  0
  4 20  1  0
 19 20  1  0
M  END
