piperidine-amides-14428-covalent
     RDKit          3D

 23 24  0  0  0  0  0  0  0  0999 V2000
    7.0400   -3.3400   19.3280 C   0  0  0  0  0  0  0  0  0  0  0  0
    6.3910   -4.1870   20.3280 C   0  0  0  0  0  0  0  0  0  0  0  0
    5.3820   -4.8290   19.9780 O   0  0  0  0  0  0  0  0  0  0  0  0
    6.9310   -4.2990   21.6380 N   0  0  0  0  0  0  0  0  0  0  0  0
    7.6620   -3.1830   22.1800 C   0  0  0  0  0  0  0  0  0  0  0  0
    7.4500   -3.1050   23.6610 C   0  0  0  0  0  0  0  0  0  0  0  0
    6.0360   -3.5670   23.9160 C   0  0  0  0  0  0  0  0  0  0  0  0
    5.5930   -3.1860   25.2960 C   0  0  0  0  0  0  0  0  0  0  0  0
    4.3860   -3.1820   25.5080 O   0  0  0  0  0  0  0  0  0  0  0  0
    6.5830   -2.8780   26.2140 N   0  0  0  0  0  0  0  0  0  0  0  0
    6.5490   -1.7250   27.0480 C   0  0  0  0  0  0  0  0  0  0  0  0
    7.0010   -1.6110   28.4020 C   0  0  0  0  0  0  0  0  0  0  0  0
    6.9890   -0.5130   29.2320 C   0  0  0  0  0  0  0  0  0  0  0  0
    7.4180   -0.3640   30.5350 C   0  0  0  0  0  0  0  0  0  0  0  0
    6.4160    0.7950   28.6690 C   0  0  0  0  0  0  0  0  0  0  0  0
    5.9070    0.8020   27.2490 C   0  0  0  0  0  0  0  0  0  0  0  0
    5.3610    2.0560   26.6840 C   0  0  0  0  0  0  0  0  0  0  0  0
    6.3110    2.9890   26.1660 N   0  0  0  0  0  0  0  0  0  0  0  0
    7.2050    3.4440   27.2040 C   0  0  0  0  0  0  0  0  0  0  0  0
    6.7430    2.8520   24.8100 C   0  0  0  0  0  0  0  0  0  0  0  0
    5.9940   -0.3870   26.5560 C   0  0  0  0  0  0  0  0  0  0  0  0
    6.0450   -5.0570   23.7610 C   0  0  0  0  0  0  0  0  0  0  0  0
    6.5610   -5.4660   22.4050 C   0  0  0  0  0  0  0  0  0  0  0  0
  1  2  1  0
  2  3  2  0
  2  4  1  0
  4  5  1  0
  5  6  1  0
  6  7  1  0
  7  8  1  0
  8  9  2  0
  8 10  1  0
 10 11  1  0
 11 12  2  0
 12 13  1  0
 13 14  1  0
 13 15  2  0
 15 16  1  0
 16 17  1  0
 17 18  1  0
 18 19  1  0
 18 20  1  0
 11 21  1  0
 16 21  2  0
  7 22  1  0
  4 23  1  0
 22 23  1  0
M  END
