piperidine-amides-13280-covalent
     RDKit          3D

 16 17  0  0  0  0  0  0  0  0999 V2000
    7.1380   -3.2630   19.2050 C   0  0  0  0  0  0  0  0  0  0  0  0
    6.3610   -4.0160   20.2160 C   0  0  0  0  0  0  0  0  0  0  0  0
    5.2680   -4.4910   19.8550 O   0  0  0  0  0  0  0  0  0  0  0  0
    6.8750   -4.2240   21.5000 N   0  0  0  0  0  0  0  0  0  0  0  0
    6.3750   -5.3100   22.2630 C   0  0  0  0  0  0  0  0  0  0  0  0
    5.8680   -4.9050   23.5770 C   0  0  0  0  0  0  0  0  0  0  0  0
    6.5620   -3.7370   24.1790 C   0  0  0  0  0  0  0  0  0  0  0  0
    5.8120   -3.2320   25.3570 C   0  0  0  0  0  0  0  0  0  0  0  0
    4.5820   -3.0690   25.2450 O   0  0  0  0  0  0  0  0  0  0  0  0
    6.4590   -2.9370   26.5780 N   0  0  0  0  0  0  0  0  0  0  0  0
    6.2650   -3.7250   27.8210 C   0  0  0  0  0  0  0  0  0  0  0  0
    5.8800   -5.1470   27.5730 C   0  0  0  0  0  0  0  0  0  0  0  0
    4.6830   -5.5340   28.0640 C   0  0  0  0  0  0  0  0  0  0  0  0
    5.4880   -6.3270   28.6370 C   0  0  0  0  0  0  0  0  0  0  0  0
    6.8830   -2.6520   23.2110 C   0  0  0  0  0  0  0  0  0  0  0  0
    7.5300   -3.1150   22.1170 C   0  0  0  0  0  0  0  0  0  0  0  0
  1  2  1  0
  2  3  2  0
  2  4  1  0
  4  5  1  0
  5  6  1  0
  6  7  1  0
  7  8  1  0
  8  9  2  0
  8 10  1  0
 10 11  1  0
 11 12  1  0
 12 13  1  0
 12 14  1  0
 13 14  1  0
  7 15  1  0
  4 16  1  0
 15 16  1  0
M  END
