piperidine-amides-16098-covalent
     RDKit          3D

 19 20  0  0  0  0  0  0  0  0999 V2000
    7.0660   -3.3070   19.3080 C   0  0  0  0  0  0  0  0  0  0  0  0
    6.3160   -4.0750   20.3360 C   0  0  0  0  0  0  0  0  0  0  0  0
    5.3210   -4.6810   19.9390 O   0  0  0  0  0  0  0  0  0  0  0  0
    6.7670   -4.1270   21.6660 N   0  0  0  0  0  0  0  0  0  0  0  0
    7.6400   -3.1220   22.2440 C   0  0  0  0  0  0  0  0  0  0  0  0
    7.3230   -2.8990   23.7100 C   0  0  0  0  0  0  0  0  0  0  0  0
    6.0190   -3.6110   24.0590 C   0  0  0  0  0  0  0  0  0  0  0  0
    5.5450   -3.2490   25.4260 C   0  0  0  0  0  0  0  0  0  0  0  0
    4.3300   -3.3520   25.6390 O   0  0  0  0  0  0  0  0  0  0  0  0
    6.3710   -2.7920   26.4880 N   0  0  0  0  0  0  0  0  0  0  0  0
    6.3430   -3.5820   27.7070 C   0  0  0  0  0  0  0  0  0  0  0  0
    6.7190   -1.3960   26.5230 C   0  0  0  0  0  0  0  0  0  0  0  0
    6.2490   -0.6790   27.6090 C   0  0  1  0  0  0  0  0  0  0  0  0
    5.1250   -1.2230   28.2100 C   0  0  0  0  0  0  0  0  0  0  0  0
    5.4150   -1.3840   29.5020 C   0  0  0  0  0  0  0  0  0  0  0  0
    6.7290   -0.7870   29.7640 C   0  0  0  0  0  0  0  0  0  0  0  0
    7.1320   -0.3100   28.5320 O   0  0  0  0  0  0  0  0  0  0  0  0
    6.1170   -5.0810   23.8040 C   0  0  0  0  0  0  0  0  0  0  0  0
    6.5840   -5.3600   22.4050 C   0  0  0  0  0  0  0  0  0  0  0  0
  1  2  1  0
  2  3  2  0
  2  4  1  0
  4  5  1  0
  5  6  1  0
  6  7  1  0
  7  8  1  0
  8  9  2  0
  8 10  1  0
 10 11  1  0
 10 12  1  0
 13 12  1  6
 13 14  1  0
 14 15  1  0
 15 16  1  0
 13 17  1  0
 16 17  1  0
  7 18  1  0
  4 19  1  0
 18 19  1  0
M  END
