piperidine-amides-8948-covalent
     RDKit          3D

 22 24  0  0  0  0  0  0  0  0999 V2000
    7.0740   -3.3460   19.3090 C   0  0  0  0  0  0  0  0  0  0  0  0
    6.4000   -4.1590   20.3210 C   0  0  0  0  0  0  0  0  0  0  0  0
    5.4110   -4.8370   19.9870 O   0  0  0  0  0  0  0  0  0  0  0  0
    6.8880   -4.2150   21.6380 N   0  0  0  0  0  0  0  0  0  0  0  0
    7.7750   -3.2110   22.1780 C   0  0  0  0  0  0  0  0  0  0  0  0
    7.0850   -2.6900   23.3990 C   0  0  0  0  0  0  0  0  0  0  0  0
    6.4900   -3.7950   24.2160 C   0  0  0  0  0  0  0  0  0  0  0  0
    5.7540   -3.2750   25.4030 C   0  0  0  0  0  0  0  0  0  0  0  0
    4.5010   -3.0960   25.3500 O   0  0  0  0  0  0  0  0  0  0  0  0
    6.3980   -2.9650   26.6260 N   0  0  0  0  0  0  0  0  0  0  0  0
    6.1200   -1.7280   27.4070 C   0  0  2  0  0  0  0  0  0  0  0  0
    5.9190   -0.5520   26.5200 C   0  0  0  0  0  0  0  0  0  0  0  0
    5.6490    0.7480   27.1950 C   0  0  0  0  0  0  0  0  0  0  0  0
    6.0480    0.7560   28.6490 C   0  0  0  0  0  0  0  0  0  0  0  0
    5.5760    1.9720   29.4640 C   0  0  0  0  0  0  0  0  0  0  0  0
    5.9890    1.9570   30.9110 C   0  0  0  0  0  0  0  0  0  0  0  0
    6.7260    0.9070   31.3860 C   0  0  0  0  0  0  0  0  0  0  0  0
    7.1370   -0.1720   30.6380 C   0  0  0  0  0  0  0  0  0  0  0  0
    6.7750   -0.2470   29.1930 C   0  0  0  0  0  0  0  0  0  0  0  0
    7.2220   -1.4300   28.3660 C   0  0  0  0  0  0  0  0  0  0  0  0
    5.6240   -4.6920   23.3040 C   0  0  0  0  0  0  0  0  0  0  0  0
    6.3550   -5.2490   22.5200 C   0  0  0  0  0  0  0  0  0  0  0  0
  1  2  1  0
  2  3  2  0
  2  4  1  0
  4  5  1  0
  5  6  1  0
  6  7  1  0
  7  8  1  0
  8  9  2  0
  8 10  1  0
 11 10  1  6
 11 12  1  0
 12 13  1  0
 13 14  1  0
 14 15  2  0
 15 16  1  0
 16 17  2  0
 17 18  1  0
 14 19  1  0
 18 19  2  0
 11 20  1  0
 19 20  1  0
  7 21  1  0
  4 22  1  0
 21 22  1  0
M  END
