piperidine-amides-1940-covalent
     RDKit          3D

 24 25  0  0  0  0  0  0  0  0999 V2000
    7.0770   -3.2660   19.1740 C   0  0  0  0  0  0  0  0  0  0  0  0
    6.3260   -4.0280   20.2090 C   0  0  0  0  0  0  0  0  0  0  0  0
    5.2630   -4.5310   19.8670 O   0  0  0  0  0  0  0  0  0  0  0  0
    6.8480   -4.1910   21.4920 N   0  0  0  0  0  0  0  0  0  0  0  0
    7.6620   -3.1800   22.1180 C   0  0  0  0  0  0  0  0  0  0  0  0
    6.9760   -2.6670   23.3470 C   0  0  0  0  0  0  0  0  0  0  0  0
    6.5420   -3.8580   24.1940 C   0  0  0  0  0  0  0  0  0  0  0  0
    5.8330   -3.3180   25.3690 C   0  0  0  0  0  0  0  0  0  0  0  0
    4.6040   -3.1670   25.3420 O   0  0  0  0  0  0  0  0  0  0  0  0
    6.5750   -2.9620   26.5120 N   0  0  0  0  0  0  0  0  0  0  0  0
    6.1200   -3.2910   27.8480 C   0  0  0  0  0  0  0  0  0  0  0  0
    5.8890   -4.7880   28.0110 C   0  0  0  0  0  0  0  0  0  0  0  0
    5.9430   -5.3310   26.7300 F   0  0  0  0  0  0  0  0  0  0  0  0
    6.9240   -5.3360   28.7420 F   0  0  0  0  0  0  0  0  0  0  0  0
    4.8000   -5.3350   28.6510 C   0  0  0  0  0  0  0  0  0  0  0  0
    3.9150   -5.9760   28.0050 O   0  0  0  0  0  0  0  0  0  0  0  0
    4.4230   -6.9700   27.1690 C   0  0  0  0  0  0  0  0  0  0  0  0
    5.3340   -6.5310   29.4620 C   0  0  0  0  0  0  0  0  0  0  0  0
    4.1100   -7.3140   29.8590 C   0  0  0  0  0  0  0  0  0  0  0  0
    2.9650   -6.6370   29.5240 O   0  0  0  0  0  0  0  0  0  0  0  0
    3.0970   -5.3020   29.0530 C   0  0  0  0  0  0  0  0  0  0  0  0
    4.1830   -4.5400   29.7800 C   0  0  0  0  0  0  0  0  0  0  0  0
    5.7980   -4.9150   23.4810 C   0  0  0  0  0  0  0  0  0  0  0  0
    6.4740   -5.3640   22.2340 C   0  0  0  0  0  0  0  0  0  0  0  0
  1  2  1  0
  2  3  2  0
  2  4  1  0
  4  5  1  0
  5  6  1  0
  6  7  1  0
  7  8  1  0
  8  9  2  0
  8 10  1  0
 10 11  1  0
 11 12  1  0
 12 13  1  0
 12 14  1  0
 12 15  1  0
 15 16  1  0
 16 17  1  0
 15 18  1  0
 18 19  1  0
 19 20  1  0
 20 21  1  0
 15 22  1  0
 21 22  1  0
  7 23  1  0
  4 24  1  0
 23 24  1  0
M  END
