piperidine-amides-33472-covalent
     RDKit          3D

 28 29  0  0  0  0  0  0  0  0999 V2000
    7.1090   -3.2970   19.2710 C   0  0  0  0  0  0  0  0  0  0  0  0
    6.3280   -4.0240   20.2870 C   0  0  0  0  0  0  0  0  0  0  0  0
    5.2640   -4.5570   19.8910 O   0  0  0  0  0  0  0  0  0  0  0  0
    6.7670   -4.1710   21.6300 N   0  0  0  0  0  0  0  0  0  0  0  0
    7.6320   -3.1810   22.1840 C   0  0  0  0  0  0  0  0  0  0  0  0
    7.3140   -2.9560   23.5740 C   0  0  0  0  0  0  0  0  0  0  0  0
    6.1030   -3.7040   23.9310 C   0  0  0  0  0  0  0  0  0  0  0  0
    5.5840   -3.3840   25.3080 C   0  0  0  0  0  0  0  0  0  0  0  0
    4.3630   -3.4930   25.5110 O   0  0  0  0  0  0  0  0  0  0  0  0
    6.4100   -2.9420   26.3630 N   0  0  0  0  0  0  0  0  0  0  0  0
    6.8880   -1.6140   26.4800 C   0  0  0  0  0  0  0  0  0  0  0  0
    6.2560   -3.5870   27.6690 C   0  0  1  0  0  0  0  0  0  0  0  0
    5.4060   -2.8800   28.7540 C   0  0  0  0  0  0  0  0  0  0  0  0
    6.0810   -1.8560   29.4110 C   0  0  0  0  0  0  0  0  0  0  0  0
    5.2870   -1.0810   30.5200 C   0  0  0  0  0  0  0  0  0  0  0  0
    3.8500   -1.4350   30.8630 C   0  0  0  0  0  0  0  0  0  0  0  0
    3.2670   -2.5830   30.0510 C   0  0  0  0  0  0  0  0  0  0  0  0
    1.8550   -3.0960   30.2290 C   0  0  0  0  0  0  0  0  0  0  0  0
    1.8950   -4.4130   30.6310 F   0  0  0  0  0  0  0  0  0  0  0  0
    1.2310   -2.9960   28.9820 F   0  0  0  0  0  0  0  0  0  0  0  0
    1.1760   -2.3310   31.1600 F   0  0  0  0  0  0  0  0  0  0  0  0
    4.1050   -3.2490   29.0200 C   0  0  0  0  0  0  0  0  0  0  0  0
    5.5040   -4.9180   27.6980 C   0  0  0  0  0  0  0  0  0  0  0  0
    6.0360   -5.8120   26.7700 F   0  0  0  0  0  0  0  0  0  0  0  0
    5.5100   -5.4560   28.9470 F   0  0  0  0  0  0  0  0  0  0  0  0
    4.1580   -4.7860   27.2990 F   0  0  0  0  0  0  0  0  0  0  0  0
    6.2870   -5.1730   23.6920 C   0  0  0  0  0  0  0  0  0  0  0  0
    6.6110   -5.4330   22.3350 C   0  0  0  0  0  0  0  0  0  0  0  0
  1  2  1  0
  2  3  2  0
  2  4  1  0
  4  5  1  0
  5  6  1  0
  6  7  1  0
  7  8  1  0
  8  9  2  0
  8 10  1  0
 10 11  1  0
 12 10  1  6
 12 13  1  0
 13 14  2  0
 14 15  1  0
 15 16  2  0
 16 17  1  0
 17 18  1  0
 18 19  1  0
 18 20  1  0
 18 21  1  0
 13 22  1  0
 17 22  2  0
 12 23  1  0
 23 24  1  0
 23 25  1  0
 23 26  1  0
  7 27  1  0
  4 28  1  0
 27 28  1  0
M  END
