piperidine-amides-11821-covalent
     RDKit          3D

 27 29  0  0  0  0  0  0  0  0999 V2000
    7.0550   -3.3310   19.3470 C   0  0  0  0  0  0  0  0  0  0  0  0
    6.3620   -4.1670   20.3220 C   0  0  0  0  0  0  0  0  0  0  0  0
    5.3780   -4.8220   19.9770 O   0  0  0  0  0  0  0  0  0  0  0  0
    6.8550   -4.2630   21.6740 N   0  0  0  0  0  0  0  0  0  0  0  0
    7.7100   -3.2230   22.2040 C   0  0  0  0  0  0  0  0  0  0  0  0
    7.4880   -3.0590   23.6830 C   0  0  0  0  0  0  0  0  0  0  0  0
    6.1210   -3.6400   23.9860 C   0  0  0  0  0  0  0  0  0  0  0  0
    5.6200   -3.2780   25.3490 C   0  0  0  0  0  0  0  0  0  0  0  0
    4.4170   -3.4290   25.6620 O   0  0  0  0  0  0  0  0  0  0  0  0
    6.5020   -2.7170   26.3120 N   0  0  0  0  0  0  0  0  0  0  0  0
    6.0150   -1.6050   27.1160 C   0  0  1  0  0  0  0  0  0  0  0  0
    6.8680   -1.6050   28.3660 C   0  0  0  0  0  0  0  0  0  0  0  0
    6.7790   -0.5450   29.2310 C   0  0  0  0  0  0  0  0  0  0  0  0
    6.3370    0.6880   28.7570 C   0  0  0  0  0  0  0  0  0  0  0  0
    5.7380    0.6650   27.4770 N   0  0  0  0  0  0  0  0  0  0  0  0
    4.7420    1.5720   27.0760 C   0  0  0  0  0  0  0  0  0  0  0  0
    5.0890    2.9890   27.0200 C   0  0  0  0  0  0  0  0  0  0  0  0
    4.0430    3.8180   27.2450 N   0  0  0  0  0  0  0  0  0  0  0  0
    3.1200    3.8220   26.2570 C   0  0  0  0  0  0  0  0  0  0  0  0
    2.6080    4.9710   25.6950 C   0  0  0  0  0  0  0  0  0  0  0  0
    2.3010    5.7720   26.7750 O   0  0  0  0  0  0  0  0  0  0  0  0
    3.4560    6.2620   27.3830 C   0  0  0  0  0  0  0  0  0  0  0  0
    4.3790    5.1710   27.7320 C   0  0  0  0  0  0  0  0  0  0  0  0
    5.9520   -0.3380   26.4900 C   0  0  0  0  0  0  0  0  0  0  0  0
    6.0870   -0.1000   25.1490 O   0  0  0  0  0  0  0  0  0  0  0  0
    6.1370   -5.1320   23.8110 C   0  0  0  0  0  0  0  0  0  0  0  0
    6.5650   -5.4430   22.4120 C   0  0  0  0  0  0  0  0  0  0  0  0
  1  2  1  0
  2  3  2  0
  2  4  1  0
  4  5  1  0
  5  6  1  0
  6  7  1  0
  7  8  1  0
  8  9  2  0
  8 10  1  0
 11 10  1  6
 11 12  1  0
 12 13  1  0
 13 14  1  0
 14 15  1  0
 15 16  1  0
 16 17  1  0
 17 18  1  0
 18 19  1  0
 19 20  1  0
 20 21  1  0
 21 22  1  0
 18 23  1  0
 22 23  1  0
 11 24  1  0
 15 24  1  0
 24 25  2  0
  7 26  1  0
  4 27  1  0
 26 27  1  0
M  END
