piperidine-amides-34252-covalent
     RDKit          3D

 26 27  0  0  0  0  0  0  0  0999 V2000
    7.1120   -3.3300   19.2790 C   0  0  0  0  0  0  0  0  0  0  0  0
    6.4300   -4.1750   20.2680 C   0  0  0  0  0  0  0  0  0  0  0  0
    5.3730   -4.7690   19.9650 O   0  0  0  0  0  0  0  0  0  0  0  0
    6.9950   -4.3740   21.5320 N   0  0  0  0  0  0  0  0  0  0  0  0
    7.7670   -3.3220   22.1520 C   0  0  0  0  0  0  0  0  0  0  0  0
    6.8370   -2.6700   23.1610 C   0  0  0  0  0  0  0  0  0  0  0  0
    6.4930   -3.7600   24.1450 C   0  0  0  0  0  0  0  0  0  0  0  0
    5.6010   -3.2320   25.1810 C   0  0  0  0  0  0  0  0  0  0  0  0
    4.4570   -2.8410   24.8780 O   0  0  0  0  0  0  0  0  0  0  0  0
    6.0920   -3.2240   26.4790 N   0  0  0  0  0  0  0  0  0  0  0  0
    6.2710   -1.9600   27.2010 C   0  0  0  0  0  0  0  0  0  0  0  0
    6.9960   -1.9040   28.5190 C   0  0  0  0  0  0  0  0  0  0  0  0
    7.1040   -0.6990   29.1510 C   0  0  0  0  0  0  0  0  0  0  0  0
    6.5750    0.4570   28.6220 C   0  0  0  0  0  0  0  0  0  0  0  0
    6.7620    2.1060   29.5970 Br  0  0  0  0  0  0  0  0  0  0  0  0
    5.9030    0.4690   27.3990 C   0  0  0  0  0  0  0  0  0  0  0  0
    5.7120   -0.6720   26.6390 C   0  0  0  0  0  0  0  0  0  0  0  0
    4.9760   -0.6260   25.3190 C   0  0  0  0  0  0  0  0  0  0  0  0
    6.8890   -4.3630   26.8810 C   0  0  2  0  0  0  0  0  0  0  0  0
    6.0490   -5.4890   27.3940 C   0  0  0  0  0  0  0  0  0  0  0  0
    7.0790   -4.8230   28.3030 C   0  0  0  0  0  0  0  0  0  0  0  0
    6.3640   -4.4340   29.2600 O   0  0  0  0  0  0  0  0  0  0  0  0
    8.0960   -5.7240   28.5420 O   0  0  0  0  0  0  0  0  0  0  0  0
    8.8290   -6.1490   27.4230 C   0  0  0  0  0  0  0  0  0  0  0  0
    5.7180   -4.8750   23.4450 C   0  0  0  0  0  0  0  0  0  0  0  0
    6.5560   -5.4730   22.3500 C   0  0  0  0  0  0  0  0  0  0  0  0
  1  2  1  0
  2  3  2  0
  2  4  1  0
  4  5  1  0
  5  6  1  0
  6  7  1  0
  7  8  1  0
  8  9  2  0
  8 10  1  0
 10 11  1  0
 11 12  2  0
 12 13  1  0
 13 14  2  0
 14 15  1  0
 14 16  1  0
 11 17  1  0
 16 17  2  0
 17 18  1  0
 10 19  1  0
 19 20  1  6
 19 21  1  0
 21 22  2  0
 21 23  1  0
 23 24  1  0
  7 25  1  0
  4 26  1  0
 25 26  1  0
M  END
