piperidine-amides-25477-covalent
     RDKit          3D

 25 27  0  0  0  0  0  0  0  0999 V2000
    7.0750   -3.3370   19.2950 C   0  0  0  0  0  0  0  0  0  0  0  0
    6.4000   -4.1880   20.3040 C   0  0  0  0  0  0  0  0  0  0  0  0
    5.3590   -4.7450   19.9560 O   0  0  0  0  0  0  0  0  0  0  0  0
    6.9700   -4.3810   21.5630 N   0  0  0  0  0  0  0  0  0  0  0  0
    6.6670   -5.5300   22.3610 C   0  0  0  0  0  0  0  0  0  0  0  0
    5.9320   -5.0700   23.5850 C   0  0  0  0  0  0  0  0  0  0  0  0
    6.7400   -4.0000   24.3430 C   0  0  0  0  0  0  0  0  0  0  0  0
    5.8750   -3.5140   25.4280 C   0  0  0  0  0  0  0  0  0  0  0  0
    4.8600   -2.8610   25.1470 O   0  0  0  0  0  0  0  0  0  0  0  0
    6.1670   -3.7880   26.7710 N   0  0  0  0  0  0  0  0  0  0  0  0
    5.0770   -4.0820   27.6540 C   0  0  0  0  0  0  0  0  0  0  0  0
    5.5160   -5.1960   28.5920 C   0  0  0  0  0  0  0  0  0  0  0  0
    6.9020   -4.9750   29.0400 N   0  0  0  0  0  0  0  0  0  0  0  0
    7.7110   -4.6540   27.8650 C   0  0  0  0  0  0  0  0  0  0  0  0
    8.6140   -5.2830   27.2480 O   0  0  0  0  0  0  0  0  0  0  0  0
    7.3630   -3.4360   27.4010 C   0  0  2  0  0  0  0  0  0  0  0  0
    7.1470   -2.5320   28.4200 C   0  0  0  0  0  0  0  0  0  0  0  0
    8.1810   -1.5690   28.9420 C   0  0  0  0  0  0  0  0  0  0  0  0
    7.7680   -0.6370   30.0790 C   0  0  0  0  0  0  0  0  0  0  0  0
    6.3850   -0.6180   30.7110 C   0  0  0  0  0  0  0  0  0  0  0  0
    5.3970   -1.5830   30.1670 C   0  0  0  0  0  0  0  0  0  0  0  0
    4.0070   -1.6730   30.6990 C   0  0  0  0  0  0  0  0  0  0  0  0
    5.8230   -2.4660   29.0770 C   0  0  0  0  0  0  0  0  0  0  0  0
    7.0820   -2.8360   23.4360 C   0  0  0  0  0  0  0  0  0  0  0  0
    7.7620   -3.3470   22.2050 C   0  0  0  0  0  0  0  0  0  0  0  0
  1  2  1  0
  2  3  2  0
  2  4  1  0
  4  5  1  0
  5  6  1  0
  6  7  1  0
  7  8  1  0
  8  9  2  0
  8 10  1  0
 10 11  1  0
 11 12  1  0
 12 13  1  0
 13 14  1  0
 14 15  2  0
 10 16  1  0
 14 16  1  0
 16 17  1  1
 17 18  2  0
 18 19  1  0
 19 20  2  0
 20 21  1  0
 21 22  1  0
 17 23  1  0
 21 23  2  0
  7 24  1  0
  4 25  1  0
 24 25  1  0
M  END
