piperidine-amides-19459-covalent
     RDKit          3D

 22 24  0  0  0  0  0  0  0  0999 V2000
    7.0010   -3.4130   19.3670 C   0  0  0  0  0  0  0  0  0  0  0  0
    6.3550   -4.2130   20.3890 C   0  0  0  0  0  0  0  0  0  0  0  0
    5.3880   -4.9330   20.0040 O   0  0  0  0  0  0  0  0  0  0  0  0
    6.7640   -4.2620   21.7420 N   0  0  0  0  0  0  0  0  0  0  0  0
    6.7240   -5.6210   22.3540 C   0  0  0  0  0  0  0  0  0  0  0  0
    6.3430   -5.3340   23.8670 C   0  0  0  0  0  0  0  0  0  0  0  0
    6.3580   -3.8420   24.0320 C   0  0  0  0  0  0  0  0  0  0  0  0
    5.6250   -3.2910   25.3410 C   0  0  0  0  0  0  0  0  0  0  0  0
    5.0580   -2.2460   25.0620 O   0  0  0  0  0  0  0  0  0  0  0  0
    5.7720   -4.0600   26.3610 N   0  0  0  0  0  0  0  0  0  0  0  0
    5.8570   -5.1340   27.2150 C   0  0  0  0  0  0  0  0  0  0  0  0
    6.3080   -5.1830   28.4850 C   0  0  0  0  0  0  0  0  0  0  0  0
    6.3540   -3.8250   28.6390 C   0  0  0  0  0  0  0  0  0  0  0  0
    5.3760   -3.3740   27.6350 C   0  0  1  0  0  0  0  0  0  0  0  0
    5.7200   -1.8880   27.8190 C   0  0  0  0  0  0  0  0  0  0  0  0
    6.5640   -1.4560   26.8520 C   0  0  0  0  0  0  0  0  0  0  0  0
    6.8040   -0.0820   27.1010 N   0  0  0  0  0  0  0  0  0  0  0  0
    6.0920    0.2410   28.2120 N   0  0  0  0  0  0  0  0  0  0  0  0
    6.1300    1.6010   28.7250 C   0  0  0  0  0  0  0  0  0  0  0  0
    5.3380   -0.8620   28.7840 C   0  0  0  0  0  0  0  0  0  0  0  0
    7.6560   -3.2620   23.6050 C   0  0  0  0  0  0  0  0  0  0  0  0
    7.6750   -3.2570   22.2370 C   0  0  0  0  0  0  0  0  0  0  0  0
  1  2  1  0
  2  3  2  0
  2  4  1  0
  4  5  1  0
  5  6  1  0
  6  7  1  0
  7  8  1  0
  8  9  2  0
  8 10  1  0
 10 11  1  0
 11 12  1  0
 12 13  1  0
 10 14  1  0
 13 14  1  0
 14 15  1  6
 15 16  1  0
 16 17  2  0
 17 18  1  0
 18 19  1  0
 15 20  2  0
 18 20  1  0
  7 21  1  0
  4 22  1  0
 21 22  1  0
M  END
