piperidine-amides-34186-covalent
     RDKit          3D

 31 34  0  0  0  0  0  0  0  0999 V2000
    7.1410   -3.3280   19.3100 C   0  0  0  0  0  0  0  0  0  0  0  0
    6.4500   -4.1850   20.2820 C   0  0  0  0  0  0  0  0  0  0  0  0
    5.3950   -4.7840   19.9700 O   0  0  0  0  0  0  0  0  0  0  0  0
    7.0130   -4.3820   21.5470 N   0  0  0  0  0  0  0  0  0  0  0  0
    7.8710   -3.3630   22.1110 C   0  0  0  0  0  0  0  0  0  0  0  0
    7.0270   -2.6370   23.1360 C   0  0  0  0  0  0  0  0  0  0  0  0
    6.6270   -3.6910   24.1310 C   0  0  0  0  0  0  0  0  0  0  0  0
    5.7670   -3.0390   25.1190 C   0  0  0  0  0  0  0  0  0  0  0  0
    4.7650   -2.4220   24.7180 O   0  0  0  0  0  0  0  0  0  0  0  0
    6.0650   -3.1480   26.4820 N   0  0  0  0  0  0  0  0  0  0  0  0
    7.1080   -4.0900   26.7930 C   0  0  0  0  0  0  0  0  0  0  0  0
    8.1500   -4.2520   25.7110 C   0  0  0  0  0  0  0  0  0  0  0  0
    9.1540   -5.1270   25.9000 C   0  0  0  0  0  0  0  0  0  0  0  0
    9.2410   -5.8580   27.0200 C   0  0  0  0  0  0  0  0  0  0  0  0
    8.3230   -5.7250   28.0240 C   0  0  0  0  0  0  0  0  0  0  0  0
    7.2450   -4.9030   28.0590 C   0  0  0  0  0  0  0  0  0  0  0  0
    6.3540   -4.8910   29.2980 C   0  0  0  0  0  0  0  0  0  0  0  0
    5.5860   -4.9530   28.0490 C   0  0  0  0  0  0  0  0  0  0  0  0
    5.2250   -3.5990   27.5230 C   0  0  1  0  0  0  0  0  0  0  0  0
    5.4990   -3.2930   28.9210 C   0  0  0  0  0  0  0  0  0  0  0  0
    6.5930   -2.7650   29.2660 O   0  0  0  0  0  0  0  0  0  0  0  0
    4.4580   -3.5430   29.8350 N   0  0  0  0  0  0  0  0  0  0  0  0
    3.9720   -2.5510   30.7280 C   0  0  0  0  0  0  0  0  0  0  0  0
    2.8290   -2.7900   31.4620 C   0  0  0  0  0  0  0  0  0  0  0  0
    2.2900   -1.7610   32.4170 C   0  0  0  0  0  0  0  0  0  0  0  0
    2.9980   -0.4550   32.5790 C   0  0  0  0  0  0  0  0  0  0  0  0
    2.5740    0.5430   33.4300 F   0  0  0  0  0  0  0  0  0  0  0  0
    4.2470   -0.3140   31.7140 C   0  0  0  0  0  0  0  0  0  0  0  0
    4.6750   -1.3140   30.8570 C   0  0  0  0  0  0  0  0  0  0  0  0
    5.8970   -4.8640   23.5310 C   0  0  0  0  0  0  0  0  0  0  0  0
    6.5140   -5.3930   22.4120 C   0  0  0  0  0  0  0  0  0  0  0  0
  1  2  1  0
  2  3  2  0
  2  4  1  0
  4  5  1  0
  5  6  1  0
  6  7  1  0
  7  8  1  0
  8  9  2  0
  8 10  1  0
 10 11  1  0
 11 12  2  0
 12 13  1  0
 13 14  2  0
 14 15  1  0
 11 16  1  0
 15 16  2  0
 16 17  1  0
 17 18  1  0
 10 19  1  0
 18 19  1  0
 19 20  1  1
 20 21  2  0
 20 22  1  0
 22 23  1  0
 23 24  2  0
 24 25  1  0
 25 26  2  0
 26 27  1  0
 26 28  1  0
 23 29  1  0
 28 29  2  0
  7 30  1  0
  4 31  1  0
 30 31  1  0
M  END
