piperidine-amides-30249-covalent
     RDKit          3D

 27 28  0  0  0  0  0  0  0  0999 V2000
    7.1830   -4.0040   19.6770 C   0  0  0  0  0  0  0  0  0  0  0  0
    5.9400   -3.9170   20.2870 C   0  0  0  0  0  0  0  0  0  0  0  0
    4.9530   -3.9860   19.5780 O   0  0  0  0  0  0  0  0  0  0  0  0
    5.9530   -3.8550   21.6920 N   0  0  0  0  0  0  0  0  0  0  0  0
    5.8800   -5.1120   22.3890 C   0  0  0  0  0  0  0  0  0  0  0  0
    5.4130   -4.9070   23.8000 C   0  0  0  0  0  0  0  0  0  0  0  0
    6.0750   -3.6830   24.4250 C   0  0  0  0  0  0  0  0  0  0  0  0
    5.1640   -3.1320   25.4520 C   0  0  0  0  0  0  0  0  0  0  0  0
    4.0860   -3.6720   25.7540 O   0  0  0  0  0  0  0  0  0  0  0  0
    5.5460   -1.9460   26.0980 N   0  0  0  0  0  0  0  0  0  0  0  0
    5.0190   -0.7150   25.6110 C   0  0  0  0  0  0  0  0  0  0  0  0
    6.8670   -1.9650   26.5370 C   0  0  0  0  0  0  0  0  0  0  0  0
    7.8050   -1.3580   25.7290 C   0  0  0  0  0  0  0  0  0  0  0  0
    8.4330   -1.9400   24.6190 C   0  0  0  0  0  0  0  0  0  0  0  0
    9.3780   -1.2420   23.8850 C   0  0  0  0  0  0  0  0  0  0  0  0
    9.7830    0.1230   24.2150 C   0  0  0  0  0  0  0  0  0  0  0  0
   10.7240    0.8570   23.5480 C   0  0  0  0  0  0  0  0  0  0  0  0
   11.8810    0.2350   23.8330 N   0  0  0  0  0  0  0  0  0  0  0  0
   12.9160    0.4180   22.8640 C   0  0  0  0  0  0  0  0  0  0  0  0
   12.0780   -0.7480   24.7480 C   0  0  0  0  0  0  0  0  0  0  0  0
   11.8910   -2.1630   24.3810 C   0  0  0  0  0  0  0  0  0  0  0  0
   12.2790   -3.0520   25.1430 O   0  0  0  0  0  0  0  0  0  0  0  0
   13.6180   -2.9590   25.3320 C   0  0  0  0  0  0  0  0  0  0  0  0
    9.1360    0.6500   25.2990 C   0  0  0  0  0  0  0  0  0  0  0  0
    8.1220   -0.0710   26.0990 C   0  0  0  0  0  0  0  0  0  0  0  0
    6.3270   -2.5100   23.5290 C   0  0  0  0  0  0  0  0  0  0  0  0
    6.9000   -2.9550   22.2290 C   0  0  0  0  0  0  0  0  0  0  0  0
  1  2  1  0
  2  3  2  0
  2  4  1  0
  4  5  1  0
  5  6  1  0
  6  7  1  0
  7  8  1  0
  8  9  2  0
  8 10  1  0
 10 11  1  0
 10 12  1  0
 12 13  1  0
 13 14  2  0
 14 15  1  0
 15 16  2  0
 16 17  1  0
 17 18  1  0
 18 19  1  0
 18 20  1  0
 20 21  1  0
 21 22  1  0
 22 23  1  0
 16 24  1  0
 13 25  1  0
 24 25  2  0
  7 26  1  0
  4 27  1  0
 26 27  1  0
M  END
