piperidine-amides-18934-covalent
     RDKit          3D

 21 22  0  0  0  0  0  0  0  0999 V2000
    7.1530   -3.3630   19.4480 C   0  0  0  0  0  0  0  0  0  0  0  0
    6.4770   -4.2260   20.3820 C   0  0  0  0  0  0  0  0  0  0  0  0
    5.4230   -4.8360   19.9890 O   0  0  0  0  0  0  0  0  0  0  0  0
    6.9880   -4.4490   21.6770 N   0  0  0  0  0  0  0  0  0  0  0  0
    6.5630   -5.6560   22.3880 C   0  0  0  0  0  0  0  0  0  0  0  0
    5.4950   -4.9660   23.3000 C   0  0  0  0  0  0  0  0  0  0  0  0
    6.2580   -4.0090   24.1970 C   0  0  0  0  0  0  0  0  0  0  0  0
    5.2390   -3.4280   25.2640 C   0  0  0  0  0  0  0  0  0  0  0  0
    4.2240   -3.0850   24.6830 O   0  0  0  0  0  0  0  0  0  0  0  0
    5.6840   -3.4400   26.4510 N   0  0  0  0  0  0  0  0  0  0  0  0
    6.3090   -3.1040   27.5780 C   0  0  0  0  0  0  0  0  0  0  0  0
    6.6980   -3.7330   28.7260 C   0  0  0  0  0  0  0  0  0  0  0  0
    5.6980   -4.5940   29.2250 C   0  0  0  0  0  0  0  0  0  0  0  0
    4.4260   -3.9940   29.7090 C   0  0  0  0  0  0  0  0  0  0  0  0
    3.7140   -5.3570   29.6160 C   0  0  0  0  0  0  0  0  0  0  0  0
    3.0920   -5.1750   30.8610 C   0  0  0  0  0  0  0  0  0  0  0  0
    2.2790   -4.0550   30.7440 F   0  0  0  0  0  0  0  0  0  0  0  0
    5.6530   -5.3090   27.9220 C   0  0  0  0  0  0  0  0  0  0  0  0
    4.8040   -4.1970   27.2880 C   0  0  0  0  0  0  0  0  0  0  0  0
    7.1020   -2.9960   23.4640 C   0  0  0  0  0  0  0  0  0  0  0  0
    7.7710   -3.4690   22.3640 C   0  0  0  0  0  0  0  0  0  0  0  0
  1  2  1  0
  2  3  2  0
  2  4  1  0
  4  5  1  0
  5  6  1  0
  6  7  1  0
  7  8  1  0
  8  9  2  0
  8 10  1  0
 10 11  1  0
 11 12  1  0
 12 13  1  0
 13 14  1  0
 14 15  1  0
 15 16  1  0
 16 17  1  0
 13 18  1  0
 10 19  1  0
 18 19  1  0
  7 20  1  0
  4 21  1  0
 20 21  1  0
M  END
