piperidine-amides-3223-covalent
     RDKit          3D

 22 23  0  0  0  0  0  0  0  0999 V2000
    7.0340   -3.2940   19.2500 C   0  0  0  0  0  0  0  0  0  0  0  0
    6.3000   -4.0600   20.2540 C   0  0  0  0  0  0  0  0  0  0  0  0
    5.2930   -4.6820   19.9260 O   0  0  0  0  0  0  0  0  0  0  0  0
    6.7510   -4.1390   21.6130 N   0  0  0  0  0  0  0  0  0  0  0  0
    6.5640   -5.3580   22.3600 C   0  0  0  0  0  0  0  0  0  0  0  0
    5.8150   -5.0730   23.6330 C   0  0  0  0  0  0  0  0  0  0  0  0
    5.8970   -3.5740   23.8900 C   0  0  0  0  0  0  0  0  0  0  0  0
    5.3520   -3.2500   25.2560 C   0  0  0  0  0  0  0  0  0  0  0  0
    4.1940   -3.5780   25.5730 O   0  0  0  0  0  0  0  0  0  0  0  0
    6.1050   -2.5430   26.2380 N   0  0  0  0  0  0  0  0  0  0  0  0
    6.2900   -3.1390   27.5530 C   0  0  0  0  0  0  0  0  0  0  0  0
    7.6310   -3.7170   27.4100 C   0  0  0  0  0  0  0  0  0  0  0  0
    8.3710   -4.7250   27.9720 N   0  0  0  0  0  0  0  0  0  0  0  0
    9.5800   -4.8160   27.3880 N   0  0  0  0  0  0  0  0  0  0  0  0
    9.9690   -3.9190   26.3140 C   0  0  0  0  0  0  0  0  0  0  0  0
   11.1870   -4.0350   25.7240 C   0  0  0  0  0  0  0  0  0  0  0  0
   11.5060   -2.8750   25.0040 O   0  0  0  0  0  0  0  0  0  0  0  0
   12.8370   -2.5220   24.6990 C   0  0  0  0  0  0  0  0  0  0  0  0
   12.8920   -1.0710   24.7610 C   0  0  0  0  0  0  0  0  0  0  0  0
    8.5610   -2.9230   26.1680 S   0  0  0  0  0  0  0  0  0  0  0  0
    7.2680   -3.0040   23.6170 C   0  0  0  0  0  0  0  0  0  0  0  0
    7.5340   -3.0760   22.2540 C   0  0  0  0  0  0  0  0  0  0  0  0
  1  2  1  0
  2  3  2  0
  2  4  1  0
  4  5  1  0
  5  6  1  0
  6  7  1  0
  7  8  1  0
  8  9  2  0
  8 10  1  0
 10 11  1  0
 11 12  1  0
 12 13  2  0
 13 14  1  0
 14 15  2  0
 15 16  1  0
 16 17  1  0
 17 18  1  0
 18 19  1  0
 12 20  1  0
 15 20  1  0
  7 21  1  0
  4 22  1  0
 21 22  1  0
M  END
