piperidine-amides-15042-covalent
     RDKit          3D

 21 22  0  0  0  0  0  0  0  0999 V2000
    6.9990   -3.3070   19.2580 C   0  0  0  0  0  0  0  0  0  0  0  0
    6.2620   -4.1330   20.2250 C   0  0  0  0  0  0  0  0  0  0  0  0
    5.1890   -4.6270   19.8780 O   0  0  0  0  0  0  0  0  0  0  0  0
    6.7870   -4.3900   21.5030 N   0  0  0  0  0  0  0  0  0  0  0  0
    6.2370   -5.4900   22.2600 C   0  0  0  0  0  0  0  0  0  0  0  0
    5.3350   -4.9910   23.3760 C   0  0  0  0  0  0  0  0  0  0  0  0
    6.1410   -4.0490   24.2550 C   0  0  0  0  0  0  0  0  0  0  0  0
    5.3940   -3.6140   25.4840 C   0  0  0  0  0  0  0  0  0  0  0  0
    4.3240   -3.0430   25.2850 O   0  0  0  0  0  0  0  0  0  0  0  0
    5.9370   -3.8710   26.7520 N   0  0  0  0  0  0  0  0  0  0  0  0
    7.3310   -4.0030   26.9860 C   0  0  1  0  0  0  0  0  0  0  0  0
    7.8000   -5.3280   27.0100 C   0  0  0  0  0  0  0  0  0  0  0  0
    7.9170   -3.3290   25.8150 C   0  0  0  0  0  0  0  0  0  0  0  0
    7.7680   -1.8990   25.5210 N   0  0  0  0  0  0  0  0  0  0  0  0
    8.4160   -1.5020   24.3400 C   0  0  0  0  0  0  0  0  0  0  0  0
    9.0890   -2.5660   23.6630 C   0  0  0  0  0  0  0  0  0  0  0  0
    9.8630   -2.2550   22.3500 C   0  0  0  0  0  0  0  0  0  0  0  0
   10.3760   -0.8710   22.5120 C   0  0  0  0  0  0  0  0  0  0  0  0
    8.8770   -4.0250   24.5310 S   0  0  0  0  0  0  0  0  0  0  0  0
    6.5630   -2.9010   23.4250 C   0  0  0  0  0  0  0  0  0  0  0  0
    7.3390   -3.2610   22.1630 C   0  0  0  0  0  0  0  0  0  0  0  0
  1  2  1  0
  2  3  2  0
  2  4  1  0
  4  5  1  0
  5  6  1  0
  6  7  1  0
  7  8  1  0
  8  9  2  0
  8 10  1  0
 10 11  1  0
 11 12  1  6
 11 13  1  0
 13 14  2  0
 14 15  1  0
 15 16  2  0
 16 17  1  0
 17 18  1  0
 13 19  1  0
 16 19  1  0
  7 20  1  0
  4 21  1  0
 20 21  1  0
M  END
