piperidine-amides-3258-covalent
     RDKit          3D

 22 24  0  0  0  0  0  0  0  0999 V2000
    7.1210   -3.2730   19.2830 C   0  0  0  0  0  0  0  0  0  0  0  0
    6.3580   -4.0490   20.2570 C   0  0  0  0  0  0  0  0  0  0  0  0
    5.3140   -4.6070   19.9130 O   0  0  0  0  0  0  0  0  0  0  0  0
    6.8440   -4.2070   21.6030 N   0  0  0  0  0  0  0  0  0  0  0  0
    6.5490   -5.4220   22.3100 C   0  0  0  0  0  0  0  0  0  0  0  0
    6.1440   -5.1000   23.7230 C   0  0  0  0  0  0  0  0  0  0  0  0
    6.1140   -3.5830   23.8780 C   0  0  0  0  0  0  0  0  0  0  0  0
    5.6770   -3.1540   25.2410 C   0  0  0  0  0  0  0  0  0  0  0  0
    4.9310   -2.1770   25.4200 O   0  0  0  0  0  0  0  0  0  0  0  0
    6.0930   -3.8840   26.3700 N   0  0  0  0  0  0  0  0  0  0  0  0
    5.6890   -5.2650   26.4060 C   0  0  0  0  0  0  0  0  0  0  0  0
    5.3510   -5.6810   27.8080 C   0  0  0  0  0  0  0  0  0  0  0  0
    4.3420   -5.1090   28.5790 N   0  0  0  0  0  0  0  0  0  0  0  0
    4.4240   -5.8000   29.6980 C   0  0  0  0  0  0  0  0  0  0  0  0
    3.6180   -5.5830   30.7400 N   0  0  0  0  0  0  0  0  0  0  0  0
    3.7270   -6.3610   31.9760 C   0  0  0  0  0  0  0  0  0  0  0  0
    4.7260   -7.3420   32.0000 C   0  0  0  0  0  0  0  0  0  0  0  0
    5.5640   -7.5190   30.8280 C   0  0  0  0  0  0  0  0  0  0  0  0
    5.3290   -6.7170   29.7640 C   0  0  0  0  0  0  0  0  0  0  0  0
    5.9860   -6.6860   28.5070 N   0  0  0  0  0  0  0  0  0  0  0  0
    7.5020   -3.0620   23.5530 C   0  0  0  0  0  0  0  0  0  0  0  0
    7.6340   -3.1150   22.1640 C   0  0  0  0  0  0  0  0  0  0  0  0
  1  2  1  0
  2  3  2  0
  2  4  1  0
  4  5  1  0
  5  6  1  0
  6  7  1  0
  7  8  1  0
  8  9  2  0
  8 10  1  0
 10 11  1  0
 11 12  1  0
 12 13  2  0
 13 14  1  0
 14 15  2  0
 15 16  1  0
 16 17  2  0
 17 18  1  0
 14 19  1  0
 18 19  2  0
 12 20  1  0
 19 20  1  0
  7 21  1  0
  4 22  1  0
 21 22  1  0
M  END
