piperidine-amides-28799-covalent
     RDKit          3D

 26 28  0  0  0  0  0  0  0  0999 V2000
    6.9970   -3.3530   19.3930 C   0  0  0  0  0  0  0  0  0  0  0  0
    6.3670   -4.2300   20.3850 C   0  0  0  0  0  0  0  0  0  0  0  0
    5.4120   -4.9320   20.0010 O   0  0  0  0  0  0  0  0  0  0  0  0
    6.8570   -4.2920   21.7260 N   0  0  0  0  0  0  0  0  0  0  0  0
    6.6500   -5.5110   22.4790 C   0  0  0  0  0  0  0  0  0  0  0  0
    6.2210   -5.2340   23.9070 C   0  0  0  0  0  0  0  0  0  0  0  0
    6.1680   -3.7370   24.0800 C   0  0  0  0  0  0  0  0  0  0  0  0
    5.6780   -3.2660   25.4330 C   0  0  0  0  0  0  0  0  0  0  0  0
    5.1530   -2.1600   25.4270 O   0  0  0  0  0  0  0  0  0  0  0  0
    5.7790   -4.0520   26.5900 N   0  0  0  0  0  0  0  0  0  0  0  0
    4.6400   -4.6450   27.1350 C   0  0  0  0  0  0  0  0  0  0  0  0
    4.4840   -4.2850   28.4940 C   0  0  0  0  0  0  0  0  0  0  0  0
    5.3970   -5.1300   29.2960 N   0  0  0  0  0  0  0  0  0  0  0  0
    5.0920   -5.9900   30.3810 C   0  0  0  0  0  0  0  0  0  0  0  0
    6.0400   -6.7990   30.9640 O   0  0  0  0  0  0  0  0  0  0  0  0
    3.8330   -5.9890   30.8810 N   0  0  0  0  0  0  0  0  0  0  0  0
    3.4320   -7.2590   30.9550 C   0  0  0  0  0  0  0  0  0  0  0  0
    2.1890   -7.7250   30.2600 C   0  0  0  0  0  0  0  0  0  0  0  0
    0.8590   -7.4090   30.9870 C   0  0  0  0  0  0  0  0  0  0  0  0
    1.0110   -7.6460   32.4470 C   0  0  0  0  0  0  0  0  0  0  0  0
    2.2100   -8.5150   32.6910 C   0  0  0  0  0  0  0  0  0  0  0  0
    3.4770   -7.7340   32.2690 C   0  0  0  0  0  0  0  0  0  0  0  0
    6.5630   -4.6760   28.5480 C   0  0  0  0  0  0  0  0  0  0  0  0
    6.4130   -3.5550   27.7360 C   0  0  0  0  0  0  0  0  0  0  0  0
    7.4660   -3.1070   23.7390 C   0  0  0  0  0  0  0  0  0  0  0  0
    7.6880   -3.2350   22.2630 C   0  0  0  0  0  0  0  0  0  0  0  0
  1  2  1  0
  2  3  2  0
  2  4  1  0
  4  5  1  0
  5  6  1  0
  6  7  1  0
  7  8  1  0
  8  9  2  0
  8 10  1  0
 10 11  1  0
 11 12  1  0
 12 13  1  0
 13 14  1  0
 14 15  2  0
 14 16  1  0
 16 17  1  0
 17 18  1  0
 18 19  1  0
 19 20  1  0
 20 21  1  0
 17 22  1  0
 21 22  1  0
 13 23  1  0
 10 24  1  0
 23 24  1  0
  7 25  1  0
  4 26  1  0
 25 26  1  0
M  END
