piperidine-amides-21666-covalent
     RDKit          3D

 23 25  0  0  0  0  0  0  0  0999 V2000
    7.0460   -3.3810   19.4080 C   0  0  0  0  0  0  0  0  0  0  0  0
    6.4160   -4.2600   20.3940 C   0  0  0  0  0  0  0  0  0  0  0  0
    5.3960   -4.8880   19.9960 O   0  0  0  0  0  0  0  0  0  0  0  0
    6.9590   -4.4240   21.6820 N   0  0  0  0  0  0  0  0  0  0  0  0
    6.6560   -5.5540   22.5110 C   0  0  0  0  0  0  0  0  0  0  0  0
    5.8770   -5.0720   23.7100 C   0  0  0  0  0  0  0  0  0  0  0  0
    6.3490   -3.7640   24.3250 C   0  0  0  0  0  0  0  0  0  0  0  0
    5.2640   -3.2790   25.2320 C   0  0  0  0  0  0  0  0  0  0  0  0
    4.1430   -3.1290   24.7160 O   0  0  0  0  0  0  0  0  0  0  0  0
    5.3650   -2.9810   26.6150 N   0  0  0  0  0  0  0  0  0  0  0  0
    4.2450   -3.0750   27.4870 C   0  0  0  0  0  0  0  0  0  0  0  0
    4.4320   -4.2250   28.4610 C   0  0  0  0  0  0  0  0  0  0  0  0
    5.5680   -4.4710   29.1560 C   0  0  0  0  0  0  0  0  0  0  0  0
    5.5710   -5.6240   29.8490 N   0  0  0  0  0  0  0  0  0  0  0  0
    6.3210   -6.6970   29.3700 C   0  0  0  0  0  0  0  0  0  0  0  0
    6.1710   -7.7160   30.2330 C   0  0  0  0  0  0  0  0  0  0  0  0
    5.3760   -7.0570   31.0320 C   0  0  0  0  0  0  0  0  0  0  0  0
    5.0010   -7.8140   32.1130 C   0  0  0  0  0  0  0  0  0  0  0  0
    4.9460   -6.0340   31.0340 N   0  0  0  0  0  0  0  0  0  0  0  0
    6.6000   -4.2970   28.2890 C   0  0  0  0  0  0  0  0  0  0  0  0
    6.5410   -3.1110   27.3080 C   0  0  0  0  0  0  0  0  0  0  0  0
    6.7000   -2.6920   23.2720 C   0  0  0  0  0  0  0  0  0  0  0  0
    7.6950   -3.3530   22.3350 C   0  0  0  0  0  0  0  0  0  0  0  0
  1  2  1  0
  2  3  2  0
  2  4  1  0
  4  5  1  0
  5  6  1  0
  6  7  1  0
  7  8  1  0
  8  9  2  0
  8 10  1  0
 10 11  1  0
 11 12  1  0
 12 13  1  0
 13 14  1  0
 14 15  1  0
 15 16  2  0
 16 17  1  0
 17 18  1  0
 14 19  1  0
 17 19  2  0
 13 20  1  0
 10 21  1  0
 20 21  1  0
  7 22  1  0
  4 23  1  0
 22 23  1  0
M  END
