piperidine-amides-26955-covalent
     RDKit          3D

 25 27  0  0  0  0  0  0  0  0999 V2000
    7.0450   -3.3350   19.3330 C   0  0  0  0  0  0  0  0  0  0  0  0
    6.3120   -4.1200   20.3320 C   0  0  0  0  0  0  0  0  0  0  0  0
    5.2720   -4.6950   19.9270 O   0  0  0  0  0  0  0  0  0  0  0  0
    6.7890   -4.2410   21.6430 N   0  0  0  0  0  0  0  0  0  0  0  0
    6.6150   -5.4730   22.3890 C   0  0  0  0  0  0  0  0  0  0  0  0
    6.0780   -5.1240   23.7530 C   0  0  0  0  0  0  0  0  0  0  0  0
    6.0440   -3.6360   23.9200 C   0  0  0  0  0  0  0  0  0  0  0  0
    5.7760   -3.1860   25.3060 C   0  0  0  0  0  0  0  0  0  0  0  0
    6.0810   -2.0110   25.5700 O   0  0  0  0  0  0  0  0  0  0  0  0
    5.1820   -3.9220   26.3490 N   0  0  0  0  0  0  0  0  0  0  0  0
    5.8370   -3.8780   27.6610 C   0  0  0  0  0  0  0  0  0  0  0  0
    4.5610   -3.5250   28.1920 C   0  0  0  0  0  0  0  0  0  0  0  0
    4.1710   -2.3390   28.7400 C   0  0  0  0  0  0  0  0  0  0  0  0
    3.9280   -2.9320   29.9800 C   0  0  0  0  0  0  0  0  0  0  0  0
    4.2810   -4.1430   29.4790 N   0  0  0  0  0  0  0  0  0  0  0  0
    3.5170   -5.2130   29.6600 C   0  0  0  0  0  0  0  0  0  0  0  0
    2.3520   -5.3140   28.9360 O   0  0  0  0  0  0  0  0  0  0  0  0
    3.8300   -6.2310   30.5440 O   0  0  0  0  0  0  0  0  0  0  0  0
    5.0560   -6.8810   30.4160 C   0  0  0  0  0  0  0  0  0  0  0  0
    5.1640   -7.7110   29.3230 C   0  0  0  0  0  0  0  0  0  0  0  0
    6.1510   -6.5730   29.3750 C   0  0  0  0  0  0  0  0  0  0  0  0
    5.5490   -7.5000   31.6880 C   0  0  0  0  0  0  0  0  0  0  0  0
    3.8380   -3.7730   27.0730 C   0  0  0  0  0  0  0  0  0  0  0  0
    7.3600   -3.0250   23.5310 C   0  0  0  0  0  0  0  0  0  0  0  0
    7.6960   -3.2370   22.2170 C   0  0  0  0  0  0  0  0  0  0  0  0
  1  2  1  0
  2  3  2  0
  2  4  1  0
  4  5  1  0
  5  6  1  0
  6  7  1  0
  7  8  1  0
  8  9  2  0
  8 10  1  0
 10 11  1  0
 11 12  1  0
 12 13  1  0
 13 14  1  0
 12 15  1  0
 14 15  1  0
 15 16  1  0
 16 17  2  0
 16 18  1  0
 19 18  1  0
 19 20  1  0
 19 21  1  0
 19 22  1  0
 10 23  1  0
 12 23  1  0
  7 24  1  0
  4 25  1  0
 24 25  1  0
M  END
