piperidine-amides-29267-covalent
     RDKit          3D

 26 27  0  0  0  0  0  0  0  0999 V2000
    7.0470   -3.3420   19.3240 C   0  0  0  0  0  0  0  0  0  0  0  0
    6.4050   -4.1940   20.3190 C   0  0  0  0  0  0  0  0  0  0  0  0
    5.3890   -4.8280   19.9780 O   0  0  0  0  0  0  0  0  0  0  0  0
    6.9730   -4.3210   21.6130 N   0  0  0  0  0  0  0  0  0  0  0  0
    6.6350   -5.4700   22.3900 C   0  0  0  0  0  0  0  0  0  0  0  0
    5.7820   -5.0340   23.5470 C   0  0  0  0  0  0  0  0  0  0  0  0
    6.5170   -3.9410   24.3020 C   0  0  0  0  0  0  0  0  0  0  0  0
    5.6590   -3.4350   25.4420 C   0  0  0  0  0  0  0  0  0  0  0  0
    4.5790   -2.9810   25.0730 O   0  0  0  0  0  0  0  0  0  0  0  0
    6.0600   -3.4730   26.7980 N   0  0  0  0  0  0  0  0  0  0  0  0
    6.2890   -4.6720   27.5130 C   0  0  0  0  0  0  0  0  0  0  0  0
    5.4780   -4.9090   28.5630 C   0  0  2  0  0  0  0  0  0  0  0  0
    4.7190   -6.0620   28.4740 C   0  0  0  0  0  0  0  0  0  0  0  0
    3.3240   -5.7450   28.5650 N   0  0  0  0  0  0  0  0  0  0  0  0
    2.5150   -6.5660   27.7380 C   0  0  0  0  0  0  0  0  0  0  0  0
    1.1290   -6.5050   27.7830 O   0  0  0  0  0  0  0  0  0  0  0  0
    3.0560   -7.3740   26.9450 O   0  0  0  0  0  0  0  0  0  0  0  0
    2.7400   -7.3220   25.5620 C   0  0  0  0  0  0  0  0  0  0  0  0
    1.8380   -6.0940   25.2850 C   0  0  0  0  0  0  0  0  0  0  0  0
    2.3560   -8.5660   25.1060 C   0  0  0  0  0  0  0  0  0  0  0  0
    3.9960   -6.9490   24.8840 C   0  0  0  0  0  0  0  0  0  0  0  0
    4.7530   -3.7700   28.8000 C   0  0  0  0  0  0  0  0  0  0  0  0
    5.6270   -2.9400   28.0940 C   0  0  1  0  0  0  0  0  0  0  0  0
    6.7320   -2.5040   28.7800 C   0  0  0  0  0  0  0  0  0  0  0  0
    6.8840   -2.7900   23.4370 C   0  0  0  0  0  0  0  0  0  0  0  0
    7.6660   -3.2280   22.2380 C   0  0  0  0  0  0  0  0  0  0  0  0
  1  2  1  0
  2  3  2  0
  2  4  1  0
  4  5  1  0
  5  6  1  0
  6  7  1  0
  7  8  1  0
  8  9  2  0
  8 10  1  0
 10 11  1  0
 11 12  1  0
 12 13  1  6
 13 14  1  0
 14 15  1  0
 15 16  2  0
 15 17  1  0
 18 17  1  0
 18 19  1  0
 18 20  1  0
 18 21  1  0
 12 22  1  0
 10 23  1  0
 22 23  1  0
 23 24  1  1
  7 25  1  0
  4 26  1  0
 25 26  1  0
M  END
