piperidine-amides-9065-covalent
     RDKit          3D

 21 22  0  0  0  0  0  0  0  0999 V2000
    7.1510   -3.2880   19.2060 C   0  0  0  0  0  0  0  0  0  0  0  0
    6.3500   -3.9840   20.2050 C   0  0  0  0  0  0  0  0  0  0  0  0
    5.2770   -4.5150   19.8750 O   0  0  0  0  0  0  0  0  0  0  0  0
    6.8130   -4.1110   21.5180 N   0  0  0  0  0  0  0  0  0  0  0  0
    7.7070   -3.1460   22.1190 C   0  0  0  0  0  0  0  0  0  0  0  0
    7.0170   -2.6940   23.3740 C   0  0  0  0  0  0  0  0  0  0  0  0
    6.5730   -3.8540   24.2070 C   0  0  0  0  0  0  0  0  0  0  0  0
    5.7790   -3.4530   25.3860 C   0  0  0  0  0  0  0  0  0  0  0  0
    4.5390   -3.7140   25.4140 O   0  0  0  0  0  0  0  0  0  0  0  0
    6.2790   -2.7570   26.5130 N   0  0  0  0  0  0  0  0  0  0  0  0
    5.2810   -1.9540   27.2440 C   0  0  0  0  0  0  0  0  0  0  0  0
    5.8080   -1.3910   28.5060 C   0  0  0  0  0  0  0  0  0  0  0  0
    7.1580   -0.8370   28.5180 C   0  0  0  0  0  0  0  0  0  0  0  0
    7.8030   -0.2280   29.6900 N   0  0  0  0  0  0  0  0  0  0  0  0
    6.8740   -0.2660   30.8680 C   0  0  0  0  0  0  0  0  0  0  0  0
    7.2610    0.2910   32.2210 C   0  0  0  0  0  0  0  0  0  0  0  0
    5.4650   -0.8660   30.8000 C   0  0  0  0  0  0  0  0  0  0  0  0
    5.0310   -1.3860   29.6250 C   0  0  0  0  0  0  0  0  0  0  0  0
    3.7780   -1.9630   29.4040 C   0  0  0  0  0  0  0  0  0  0  0  0
    5.7210   -4.8800   23.4380 C   0  0  0  0  0  0  0  0  0  0  0  0
    6.5290   -5.3290   22.2200 C   0  0  0  0  0  0  0  0  0  0  0  0
  1  2  1  0
  2  3  2  0
  2  4  1  0
  4  5  1  0
  5  6  1  0
  6  7  1  0
  7  8  1  0
  8  9  2  0
  8 10  1  0
 10 11  1  0
 11 12  1  0
 12 13  2  0
 13 14  1  0
 14 15  2  0
 15 16  1  0
 15 17  1  0
 12 18  1  0
 17 18  2  0
 18 19  1  0
  7 20  1  0
  4 21  1  0
 20 21  1  0
M  END
