piperidine-amides-10470-covalent
     RDKit          3D

 24 25  0  0  0  0  0  0  0  0999 V2000
    7.1060   -3.2930   19.2350 C   0  0  0  0  0  0  0  0  0  0  0  0
    6.3520   -4.0100   20.2700 C   0  0  0  0  0  0  0  0  0  0  0  0
    5.2900   -4.5760   19.8950 O   0  0  0  0  0  0  0  0  0  0  0  0
    6.8390   -4.0830   21.5810 N   0  0  0  0  0  0  0  0  0  0  0  0
    7.7710   -3.0900   22.0780 C   0  0  0  0  0  0  0  0  0  0  0  0
    7.5000   -2.9070   23.5340 C   0  0  0  0  0  0  0  0  0  0  0  0
    6.1220   -3.4020   23.8350 C   0  0  0  0  0  0  0  0  0  0  0  0
    5.7570   -3.1520   25.2500 C   0  0  0  0  0  0  0  0  0  0  0  0
    4.5350   -3.0510   25.5010 O   0  0  0  0  0  0  0  0  0  0  0  0
    6.6690   -3.0170   26.3250 N   0  0  0  0  0  0  0  0  0  0  0  0
    6.1640   -3.2740   27.6540 C   0  0  1  0  0  0  0  0  0  0  0  0
    6.4020   -4.7080   28.0520 C   0  0  0  0  0  0  0  0  0  0  0  0
    6.1060   -5.1240   29.2000 O   0  0  0  0  0  0  0  0  0  0  0  0
    6.9510   -5.6170   27.1840 O   0  0  0  0  0  0  0  0  0  0  0  0
    8.1130   -6.2210   27.6290 C   0  0  0  0  0  0  0  0  0  0  0  0
    9.1170   -5.3470   27.7580 C   0  0  0  0  0  0  0  0  0  0  0  0
    6.5600   -2.2560   28.6690 C   0  0  0  0  0  0  0  0  0  0  0  0
    5.4690   -1.7050   29.3550 C   0  0  0  0  0  0  0  0  0  0  0  0
    5.5980   -0.7370   30.3610 C   0  0  0  0  0  0  0  0  0  0  0  0
    6.9470   -0.1960   30.8030 C   0  0  0  0  0  0  0  0  0  0  0  0
    8.0670   -0.8390   30.0170 C   0  0  0  0  0  0  0  0  0  0  0  0
    7.8340   -1.8600   28.9580 C   0  0  0  0  0  0  0  0  0  0  0  0
    5.9750   -4.8780   23.5390 C   0  0  0  0  0  0  0  0  0  0  0  0
    6.6600   -5.2860   22.4030 C   0  0  0  0  0  0  0  0  0  0  0  0
  1  2  1  0
  2  3  2  0
  2  4  1  0
  4  5  1  0
  5  6  1  0
  6  7  1  0
  7  8  1  0
  8  9  2  0
  8 10  1  0
 11 10  1  6
 11 12  1  0
 12 13  2  0
 12 14  1  0
 14 15  1  0
 15 16  1  0
 11 17  1  0
 17 18  2  0
 18 19  1  0
 19 20  2  0
 20 21  1  0
 17 22  1  0
 21 22  2  0
  7 23  1  0
  4 24  1  0
 23 24  1  0
M  END
