piperidine-amides-24749-covalent
     RDKit          3D

 23 25  0  0  0  0  0  0  0  0999 V2000
    7.0200   -3.3110   19.3250 C   0  0  0  0  0  0  0  0  0  0  0  0
    6.3340   -4.1540   20.3210 C   0  0  0  0  0  0  0  0  0  0  0  0
    5.3410   -4.8240   19.9720 O   0  0  0  0  0  0  0  0  0  0  0  0
    6.7900   -4.2630   21.6470 N   0  0  0  0  0  0  0  0  0  0  0  0
    6.5770   -5.5140   22.3630 C   0  0  0  0  0  0  0  0  0  0  0  0
    6.0630   -5.2250   23.7940 C   0  0  0  0  0  0  0  0  0  0  0  0
    5.9120   -3.7300   23.9450 C   0  0  0  0  0  0  0  0  0  0  0  0
    5.4590   -3.3370   25.3050 C   0  0  0  0  0  0  0  0  0  0  0  0
    5.4620   -2.1230   25.5660 O   0  0  0  0  0  0  0  0  0  0  0  0
    4.9970   -4.2790   26.2760 N   0  0  0  0  0  0  0  0  0  0  0  0
    5.8590   -4.6600   27.3380 C   0  0  0  0  0  0  0  0  0  0  0  0
    4.8450   -4.2930   28.3480 C   0  0  0  0  0  0  0  0  0  0  0  0
    4.5730   -5.4560   29.1030 O   0  0  0  0  0  0  0  0  0  0  0  0
    5.0350   -3.1590   29.0910 C   0  0  0  0  0  0  0  0  0  0  0  0
    6.1360   -2.3450   29.1020 C   0  0  0  0  0  0  0  0  0  0  0  0
    6.1510   -1.2430   29.9120 C   0  0  0  0  0  0  0  0  0  0  0  0
    5.0820   -0.9620   30.6970 C   0  0  0  0  0  0  0  0  0  0  0  0
    3.9440   -1.6950   30.7670 N   0  0  0  0  0  0  0  0  0  0  0  0
    3.9790   -2.7850   29.9400 C   0  0  0  0  0  0  0  0  0  0  0  0
    2.5820   -3.8240   29.9190 Cl  0  0  0  0  0  0  0  0  0  0  0  0
    3.8490   -3.9690   27.1570 C   0  0  0  0  0  0  0  0  0  0  0  0
    7.1400   -2.9840   23.6150 C   0  0  0  0  0  0  0  0  0  0  0  0
    7.5710   -3.2290   22.2490 C   0  0  0  0  0  0  0  0  0  0  0  0
  1  2  1  0
  2  3  2  0
  2  4  1  0
  4  5  1  0
  5  6  1  0
  6  7  1  0
  7  8  1  0
  8  9  2  0
  8 10  1  0
 10 11  1  0
 11 12  1  0
 12 13  1  0
 12 14  1  0
 14 15  2  0
 15 16  1  0
 16 17  2  0
 17 18  1  0
 14 19  1  0
 18 19  2  0
 19 20  1  0
 10 21  1  0
 12 21  1  0
  7 22  1  0
  4 23  1  0
 22 23  1  0
M  END
