piperidine-amides-31438-covalent
     RDKit          3D

 26 28  0  0  0  0  0  0  0  0999 V2000
    7.0330   -3.4300   19.4790 C   0  0  0  0  0  0  0  0  0  0  0  0
    6.3650   -4.2320   20.4830 C   0  0  0  0  0  0  0  0  0  0  0  0
    5.4460   -4.9960   20.0350 O   0  0  0  0  0  0  0  0  0  0  0  0
    6.6980   -4.2440   21.8810 N   0  0  0  0  0  0  0  0  0  0  0  0
    6.6510   -5.5880   22.5320 C   0  0  0  0  0  0  0  0  0  0  0  0
    6.2220   -5.2940   24.0430 C   0  0  0  0  0  0  0  0  0  0  0  0
    6.0360   -3.8060   24.1590 C   0  0  0  0  0  0  0  0  0  0  0  0
    4.9310   -3.2660   25.2300 C   0  0  0  0  0  0  0  0  0  0  0  0
    3.9150   -3.1440   24.5850 O   0  0  0  0  0  0  0  0  0  0  0  0
    5.2410   -3.0600   26.4830 N   0  0  0  0  0  0  0  0  0  0  0  0
    5.1730   -2.6750   27.7970 C   0  0  0  0  0  0  0  0  0  0  0  0
    5.0260   -3.3090   29.0010 C   0  0  0  0  0  0  0  0  0  0  0  0
    5.2910   -4.6590   28.8250 C   0  0  0  0  0  0  0  0  0  0  0  0
    5.4760   -5.4390   29.8830 N   0  0  0  0  0  0  0  0  0  0  0  0
    6.0260   -6.6540   29.5030 C   0  0  0  0  0  0  0  0  0  0  0  0
    5.1370   -7.2250   28.3950 C   0  0  0  0  0  0  0  0  0  0  0  0
    3.9270   -5.8010   30.5470 S   0  0  0  0  0  0  0  0  0  0  0  0
    3.5540   -4.7850   31.5460 O   0  0  0  0  0  0  0  0  0  0  0  0
    2.9720   -5.8400   29.3980 O   0  0  0  0  0  0  0  0  0  0  0  0
    3.9500   -7.3080   31.3390 C   0  0  0  0  0  0  0  0  0  0  0  0
    4.0980   -7.6850   32.6930 C   0  0  0  0  0  0  0  0  0  0  0  0
    2.7440   -7.8680   32.0350 C   0  0  0  0  0  0  0  0  0  0  0  0
    6.4780   -4.5480   27.9570 C   0  0  0  0  0  0  0  0  0  0  0  0
    6.4420   -3.3960   27.1420 C   0  0  0  0  0  0  0  0  0  0  0  0
    7.2540   -2.9840   23.7790 C   0  0  0  0  0  0  0  0  0  0  0  0
    7.5510   -3.2010   22.4540 C   0  0  0  0  0  0  0  0  0  0  0  0
  1  2  1  0
  2  3  2  0
  2  4  1  0
  4  5  1  0
  5  6  1  0
  6  7  1  0
  7  8  1  0
  8  9  2  0
  8 10  1  0
 10 11  1  0
 11 12  1  0
 12 13  1  0
 13 14  1  0
 14 15  1  0
 15 16  1  0
 17 14  1  0
 17 18  2  0
 17 19  2  0
 17 20  1  0
 20 21  1  0
 20 22  1  0
 21 22  1  0
 13 23  1  0
 10 24  1  0
 23 24  1  0
  7 25  1  0
  4 26  1  0
 25 26  1  0
M  END
