piperidine-amides-10352-covalent
     RDKit          3D

 25 27  0  0  0  0  0  0  0  0999 V2000
    7.0480   -3.3390   19.3400 C   0  0  0  0  0  0  0  0  0  0  0  0
    6.3920   -4.1690   20.3590 C   0  0  0  0  0  0  0  0  0  0  0  0
    5.3820   -4.8180   19.9760 O   0  0  0  0  0  0  0  0  0  0  0  0
    6.8990   -4.2570   21.6630 N   0  0  0  0  0  0  0  0  0  0  0  0
    6.6750   -5.4350   22.4800 C   0  0  0  0  0  0  0  0  0  0  0  0
    6.0540   -5.0300   23.7980 C   0  0  0  0  0  0  0  0  0  0  0  0
    6.0930   -3.5370   24.0260 C   0  0  0  0  0  0  0  0  0  0  0  0
    5.7560   -3.1930   25.4260 C   0  0  0  0  0  0  0  0  0  0  0  0
    4.6330   -3.5430   25.8480 O   0  0  0  0  0  0  0  0  0  0  0  0
    6.6140   -2.4770   26.2950 N   0  0  0  0  0  0  0  0  0  0  0  0
    6.0810   -1.5350   27.2620 C   0  0  2  0  0  0  0  0  0  0  0  0
    5.9060   -0.1380   26.6690 C   0  0  0  0  0  0  0  0  0  0  0  0
    6.1100    1.0110   27.4000 C   0  0  0  0  0  0  0  0  0  0  0  0
    6.7630    0.8280   28.6530 O   0  0  0  0  0  0  0  0  0  0  0  0
    6.7350   -0.3740   29.2400 C   0  0  1  0  0  0  0  0  0  0  0  0
    5.6420   -0.5280   30.0850 C   0  0  0  0  0  0  0  0  0  0  0  0
    4.3770   -0.8650   29.6230 C   0  0  0  0  0  0  0  0  0  0  0  0
    3.2650   -1.0200   30.4570 C   0  0  0  0  0  0  0  0  0  0  0  0
    3.2810   -0.8430   31.9750 C   0  0  0  0  0  0  0  0  0  0  0  0
    2.2030   -0.9920   32.7820 F   0  0  0  0  0  0  0  0  0  0  0  0
    4.6990   -0.4770   32.3880 C   0  0  0  0  0  0  0  0  0  0  0  0
    5.8290   -0.3330   31.4220 C   0  0  0  0  0  0  0  0  0  0  0  0
    7.0540   -1.4180   28.4040 C   0  0  0  0  0  0  0  0  0  0  0  0
    7.3930   -2.9470   23.6360 C   0  0  0  0  0  0  0  0  0  0  0  0
    7.7200   -3.1880   22.1870 C   0  0  0  0  0  0  0  0  0  0  0  0
  1  2  1  0
  2  3  2  0
  2  4  1  0
  4  5  1  0
  5  6  1  0
  6  7  1  0
  7  8  1  0
  8  9  2  0
  8 10  1  0
 11 10  1  6
 11 12  1  0
 12 13  1  0
 13 14  1  0
 14 15  1  0
 15 16  1  6
 16 17  2  0
 17 18  1  0
 18 19  2  0
 19 20  1  0
 19 21  1  0
 16 22  1  0
 21 22  2  0
 11 23  1  0
 15 23  1  0
  7 24  1  0
  4 25  1  0
 24 25  1  0
M  END
