piperidine-amides-19032-covalent
     RDKit          3D

 22 24  0  0  0  0  0  0  0  0999 V2000
    7.1340   -3.3860   19.4790 C   0  0  0  0  0  0  0  0  0  0  0  0
    6.4470   -4.2360   20.4220 C   0  0  0  0  0  0  0  0  0  0  0  0
    5.4500   -4.9120   20.0060 O   0  0  0  0  0  0  0  0  0  0  0  0
    6.8810   -4.3600   21.7620 N   0  0  0  0  0  0  0  0  0  0  0  0
    6.4530   -5.5500   22.5390 C   0  0  0  0  0  0  0  0  0  0  0  0
    6.5660   -5.0080   24.0250 C   0  0  0  0  0  0  0  0  0  0  0  0
    6.0570   -3.5890   23.9640 C   0  0  0  0  0  0  0  0  0  0  0  0
    5.5390   -2.9590   25.3370 C   0  0  0  0  0  0  0  0  0  0  0  0
    4.7040   -2.0970   25.1050 O   0  0  0  0  0  0  0  0  0  0  0  0
    6.1090   -3.5170   26.3240 N   0  0  0  0  0  0  0  0  0  0  0  0
    6.5730   -4.5600   27.0830 C   0  0  0  0  0  0  0  0  0  0  0  0
    6.3380   -2.4820   27.2780 C   0  0  1  0  0  0  0  0  0  0  0  0
    7.0150   -1.4410   26.9960 C   0  0  0  0  0  0  0  0  0  0  0  0
    5.5620   -1.0670   27.1070 C   0  0  2  0  0  0  0  0  0  0  0  0
    6.0900   -0.4300   28.4080 C   0  0  0  0  0  0  0  0  0  0  0  0
    5.7510    0.9280   28.2890 C   0  0  0  0  0  0  0  0  0  0  0  0
    5.9570    2.0790   29.1620 C   0  0  0  0  0  0  0  0  0  0  0  0
    6.7080    1.3520   30.3450 C   0  0  0  0  0  0  0  0  0  0  0  0
    7.0590   -0.1570   30.4260 C   0  0  0  0  0  0  0  0  0  0  0  0
    6.7460   -0.9950   29.4700 C   0  0  0  0  0  0  0  0  0  0  0  0
    6.9060   -2.6350   23.1440 C   0  0  0  0  0  0  0  0  0  0  0  0
    7.7380   -3.3620   22.3660 C   0  0  0  0  0  0  0  0  0  0  0  0
  1  2  1  0
  2  3  2  0
  2  4  1  0
  4  5  1  0
  5  6  1  0
  6  7  1  0
  7  8  1  0
  8  9  2  0
  8 10  1  0
 10 11  1  0
 12 10  1  6
 12 13  1  0
 12 14  1  0
 13 14  1  0
 14 15  1  1
 15 16  2  0
 16 17  1  0
 17 18  2  0
 18 19  1  0
 15 20  1  0
 19 20  2  0
  7 21  1  0
  4 22  1  0
 21 22  1  0
M  END
