piperidine-amides-657-covalent
     RDKit          3D

 26 28  0  0  0  0  0  0  0  0999 V2000
    7.0320   -3.3930   19.3010 C   0  0  0  0  0  0  0  0  0  0  0  0
    6.3740   -4.2590   20.2500 C   0  0  0  0  0  0  0  0  0  0  0  0
    5.2460   -4.7260   19.9300 O   0  0  0  0  0  0  0  0  0  0  0  0
    6.9520   -4.6700   21.4650 N   0  0  0  0  0  0  0  0  0  0  0  0
    6.2680   -5.7930   22.1650 C   0  0  0  0  0  0  0  0  0  0  0  0
    5.1700   -5.0270   23.0120 C   0  0  0  0  0  0  0  0  0  0  0  0
    5.9740   -4.0270   23.7830 C   0  0  0  0  0  0  0  0  0  0  0  0
    5.2450   -3.2980   24.9740 C   0  0  0  0  0  0  0  0  0  0  0  0
    4.1330   -3.6780   25.2960 O   0  0  0  0  0  0  0  0  0  0  0  0
    6.1640   -2.5080   25.1830 N   0  0  0  0  0  0  0  0  0  0  0  0
    7.3120   -1.8620   25.1530 C   0  0  0  0  0  0  0  0  0  0  0  0
    8.6040   -2.1860   25.1180 C   0  0  0  0  0  0  0  0  0  0  0  0
    9.0820   -3.1260   25.9440 C   0  0  0  0  0  0  0  0  0  0  0  0
   10.4160   -3.5730   26.0900 C   0  0  0  0  0  0  0  0  0  0  0  0
   11.3800   -2.8650   25.1360 C   0  0  0  0  0  0  0  0  0  0  0  0
   13.1190   -3.3260   25.2420 S   0  0  0  0  0  0  0  0  0  0  0  0
   13.9460   -4.5300   26.2610 C   0  0  0  0  0  0  0  0  0  0  0  0
   14.6050   -5.5220   26.1480 C   0  0  0  0  0  0  0  0  0  0  0  0
   15.3840   -6.2480   27.3570 C   0  0  0  0  0  0  0  0  0  0  0  0
   15.0690   -5.7570   28.5030 C   0  0  0  0  0  0  0  0  0  0  0  0
   14.3360   -4.8570   28.3520 C   0  0  0  0  0  0  0  0  0  0  0  0
   13.8010   -4.2680   27.1460 C   0  0  0  0  0  0  0  0  0  0  0  0
   10.8760   -1.7930   24.1370 C   0  0  0  0  0  0  0  0  0  0  0  0
    9.5350   -1.4750   24.1430 C   0  0  0  0  0  0  0  0  0  0  0  0
    6.7380   -3.0060   23.0060 C   0  0  0  0  0  0  0  0  0  0  0  0
    7.7370   -3.7290   22.2030 C   0  0  0  0  0  0  0  0  0  0  0  0
  1  2  1  0
  2  3  2  0
  2  4  1  0
  4  5  1  0
  5  6  1  0
  6  7  1  0
  7  8  1  0
  8  9  2  0
  8 10  1  0
 10 11  1  0
 11 12  1  0
 12 13  2  0
 13 14  1  0
 14 15  2  0
 15 16  1  0
 16 17  1  0
 17 18  2  0
 18 19  1  0
 19 20  2  0
 20 21  1  0
 17 22  1  0
 21 22  2  0
 15 23  1  0
 12 24  1  0
 23 24  2  0
  7 25  1  0
  4 26  1  0
 25 26  1  0
M  END
