piperidine-amides-3169-covalent
     RDKit          3D

 23 25  0  0  0  0  0  0  0  0999 V2000
    7.1370   -3.2990   19.2430 C   0  0  0  0  0  0  0  0  0  0  0  0
    6.3810   -4.0940   20.2000 C   0  0  0  0  0  0  0  0  0  0  0  0
    5.2940   -4.5790   19.8930 O   0  0  0  0  0  0  0  0  0  0  0  0
    6.9470   -4.3690   21.4800 N   0  0  0  0  0  0  0  0  0  0  0  0
    7.7250   -3.3330   22.1200 C   0  0  0  0  0  0  0  0  0  0  0  0
    6.9830   -2.7880   23.2920 C   0  0  0  0  0  0  0  0  0  0  0  0
    6.5960   -3.9490   24.1810 C   0  0  0  0  0  0  0  0  0  0  0  0
    5.8460   -3.4010   25.3160 C   0  0  0  0  0  0  0  0  0  0  0  0
    4.6070   -3.4890   25.4320 O   0  0  0  0  0  0  0  0  0  0  0  0
    6.5950   -2.7350   26.2900 N   0  0  0  0  0  0  0  0  0  0  0  0
    5.8650   -2.0970   27.3290 C   0  0  1  0  0  0  0  0  0  0  0  0
    6.3770   -2.7060   28.6140 C   0  0  0  0  0  0  0  0  0  0  0  0
    6.5940   -1.6040   29.2490 O   0  0  0  0  0  0  0  0  0  0  0  0
    6.3060   -0.6350   28.4030 C   0  0  0  0  0  0  0  0  0  0  0  0
    5.8580   -0.5720   27.1810 C   0  0  0  0  0  0  0  0  0  0  0  0
    6.0300    0.9730   27.5300 C   0  0  0  0  0  0  0  0  0  0  0  0
    6.5290    1.9260   28.8270 C   0  0  0  0  0  0  0  0  0  0  0  0
    6.6880    0.8000   29.3510 C   0  0  0  0  0  0  0  0  0  0  0  0
    7.2310    0.1270   30.8880 Cl  0  0  0  0  0  0  0  0  0  0  0  0
    6.2830    0.5310   28.2660 C   0  0  0  0  0  0  0  0  0  0  0  0
    6.3980    2.2630   28.4710 Cl  0  0  0  0  0  0  0  0  0  0  0  0
    5.9110   -5.0930   23.5340 C   0  0  0  0  0  0  0  0  0  0  0  0
    6.4250   -5.4500   22.2240 C   0  0  0  0  0  0  0  0  0  0  0  0
  1  2  1  0
  2  3  2  0
  2  4  1  0
  4  5  1  0
  5  6  1  0
  6  7  1  0
  7  8  1  0
  8  9  2  0
  8 10  1  0
 11 10  1  6
 11 12  1  0
 12 13  1  0
 13 14  1  0
 11 15  1  0
 14 15  2  0
 15 16  1  0
 16 17  2  0
 17 18  1  0
 18 19  1  0
 14 20  1  0
 18 20  2  0
 20 21  1  0
  7 22  1  0
  4 23  1  0
 22 23  1  0
M  END
