piperidine-amides-6664-covalent
     RDKit          3D

 24 25  0  0  0  0  0  0  0  0999 V2000
    7.0480   -3.2750   19.3040 C   0  0  0  0  0  0  0  0  0  0  0  0
    6.3520   -4.1040   20.3040 C   0  0  0  0  0  0  0  0  0  0  0  0
    5.3650   -4.7910   19.9640 O   0  0  0  0  0  0  0  0  0  0  0  0
    6.8050   -4.1870   21.6310 N   0  0  0  0  0  0  0  0  0  0  0  0
    7.6760   -3.1530   22.1660 C   0  0  0  0  0  0  0  0  0  0  0  0
    7.4850   -3.1270   23.6880 C   0  0  0  0  0  0  0  0  0  0  0  0
    6.0760   -3.6140   23.9380 C   0  0  0  0  0  0  0  0  0  0  0  0
    5.6090   -3.3730   25.3270 C   0  0  0  0  0  0  0  0  0  0  0  0
    4.4010   -3.1320   25.5050 O   0  0  0  0  0  0  0  0  0  0  0  0
    6.5140   -3.4030   26.4120 N   0  0  0  0  0  0  0  0  0  0  0  0
    6.1050   -3.7520   27.7560 C   0  0  0  0  0  0  0  0  0  0  0  0
    6.3180   -5.2390   28.0570 C   0  0  0  0  0  0  0  0  0  0  0  0
    5.3430   -5.9860   28.6550 C   0  0  0  0  0  0  0  0  0  0  0  0
    5.4550   -6.4120   29.8470 O   0  0  0  0  0  0  0  0  0  0  0  0
    4.3980   -7.1210   30.3750 C   0  0  0  0  0  0  0  0  0  0  0  0
    3.2800   -7.3370   29.6050 C   0  0  0  0  0  0  0  0  0  0  0  0
    2.9540   -6.9830   28.3150 C   0  0  0  0  0  0  0  0  0  0  0  0
    2.2320   -8.1130   30.3360 C   0  0  0  0  0  0  0  0  0  0  0  0
    2.4320   -8.5720   31.7480 C   0  0  0  0  0  0  0  0  0  0  0  0
    3.6450   -8.3680   32.6380 C   0  0  0  0  0  0  0  0  0  0  0  0
    4.5040   -7.5890   31.6850 C   0  0  0  0  0  0  0  0  0  0  0  0
    5.7000   -7.3010   32.3270 C   0  0  0  0  0  0  0  0  0  0  0  0
    6.0510   -5.1190   23.6940 C   0  0  0  0  0  0  0  0  0  0  0  0
    6.6790   -5.4330   22.3560 C   0  0  0  0  0  0  0  0  0  0  0  0
  1  2  1  0
  2  3  2  0
  2  4  1  0
  4  5  1  0
  5  6  1  0
  6  7  1  0
  7  8  1  0
  8  9  2  0
  8 10  1  0
 10 11  1  0
 11 12  1  0
 12 13  1  0
 13 14  1  0
 14 15  1  0
 15 16  2  0
 16 17  1  0
 16 18  1  0
 18 19  2  0
 19 20  1  0
 15 21  1  0
 20 21  2  0
 21 22  1  0
  7 23  1  0
  4 24  1  0
 23 24  1  0
M  END
