piperidine-amides-33844-covalent
     RDKit          3D

 24 26  0  0  0  0  0  0  0  0999 V2000
    7.0650   -3.3800   19.3360 C   0  0  0  0  0  0  0  0  0  0  0  0
    6.4380   -4.2390   20.3530 C   0  0  0  0  0  0  0  0  0  0  0  0
    5.4100   -4.8670   19.9950 O   0  0  0  0  0  0  0  0  0  0  0  0
    7.0080   -4.3850   21.6500 N   0  0  0  0  0  0  0  0  0  0  0  0
    6.6180   -5.5180   22.4290 C   0  0  0  0  0  0  0  0  0  0  0  0
    6.1910   -5.1580   23.7780 C   0  0  0  0  0  0  0  0  0  0  0  0
    6.2440   -3.7040   23.9990 C   0  0  0  0  0  0  0  0  0  0  0  0
    5.5990   -3.2030   25.2550 C   0  0  0  0  0  0  0  0  0  0  0  0
    4.8590   -2.2130   25.1590 O   0  0  0  0  0  0  0  0  0  0  0  0
    5.7280   -3.7700   26.5280 N   0  0  0  0  0  0  0  0  0  0  0  0
    4.6810   -4.4990   27.1050 C   0  0  0  0  0  0  0  0  0  0  0  0
    4.8990   -5.3720   28.2480 C   0  0  0  0  0  0  0  0  0  0  0  0
    5.5470   -4.5890   29.3830 C   0  0  0  0  0  0  0  0  0  0  0  0
    5.6660   -5.5970   30.3140 O   0  0  0  0  0  0  0  0  0  0  0  0
    4.8640   -3.4850   29.8780 C   0  0  0  0  0  0  0  0  0  0  0  0
    5.5280   -1.8370   29.9260 S   0  0  0  0  0  0  0  0  0  0  0  0
    4.0710   -1.0440   30.6850 C   0  0  0  0  0  0  0  0  0  0  0  0
    3.0400   -2.0760   30.9080 N   0  0  0  0  0  0  0  0  0  0  0  0
    3.4740   -3.4340   30.4640 C   0  0  0  0  0  0  0  0  0  0  0  0
    2.3330   -4.9570   30.6420 Br  0  0  0  0  0  0  0  0  0  0  0  0
    6.6620   -4.3790   28.4960 C   0  0  0  0  0  0  0  0  0  0  0  0
    6.3100   -3.1750   27.6470 C   0  0  0  0  0  0  0  0  0  0  0  0
    7.6290   -3.2010   23.7130 C   0  0  0  0  0  0  0  0  0  0  0  0
    7.7540   -3.2630   22.1860 C   0  0  0  0  0  0  0  0  0  0  0  0
  1  2  1  0
  2  3  2  0
  2  4  1  0
  4  5  1  0
  5  6  1  0
  6  7  1  0
  7  8  1  0
  8  9  2  0
  8 10  1  0
 10 11  1  0
 11 12  1  0
 12 13  1  0
 13 14  1  0
 13 15  1  0
 15 16  1  0
 16 17  1  0
 17 18  2  0
 15 19  2  0
 18 19  1  0
 19 20  1  0
 13 21  1  0
 10 22  1  0
 21 22  1  0
  7 23  1  0
  4 24  1  0
 23 24  1  0
M  END
