piperidine-amides-25495-covalent
     RDKit          3D

 25 27  0  0  0  0  0  0  0  0999 V2000
    7.0390   -3.3490   19.3720 C   0  0  0  0  0  0  0  0  0  0  0  0
    6.3980   -4.2480   20.3640 C   0  0  0  0  0  0  0  0  0  0  0  0
    5.3990   -4.8640   19.9880 O   0  0  0  0  0  0  0  0  0  0  0  0
    6.9480   -4.4120   21.6470 N   0  0  0  0  0  0  0  0  0  0  0  0
    6.5620   -5.4880   22.4990 C   0  0  0  0  0  0  0  0  0  0  0  0
    5.6150   -4.9590   23.5510 C   0  0  0  0  0  0  0  0  0  0  0  0
    6.2010   -3.7510   24.3170 C   0  0  0  0  0  0  0  0  0  0  0  0
    5.1040   -3.1740   25.1760 C   0  0  0  0  0  0  0  0  0  0  0  0
    3.9870   -3.0150   24.6850 O   0  0  0  0  0  0  0  0  0  0  0  0
    5.3160   -2.8070   26.5280 N   0  0  0  0  0  0  0  0  0  0  0  0
    6.4510   -3.3610   26.9810 C   0  0  0  0  0  0  0  0  0  0  0  0
    5.8870   -4.6290   27.6230 C   0  0  1  0  0  0  0  0  0  0  0  0
    6.0020   -5.7780   26.7010 N   0  0  0  0  0  0  0  0  0  0  0  0
    4.9480   -6.7210   27.1020 C   0  0  0  0  0  0  0  0  0  0  0  0
    5.1090   -7.1300   28.3850 C   0  0  0  0  0  0  0  0  0  0  0  0
    3.9640   -7.1980   26.4650 O   0  0  0  0  0  0  0  0  0  0  0  0
    6.5340   -4.7990   28.9360 C   0  0  0  0  0  0  0  0  0  0  0  0
    5.1340   -4.1740   28.8080 C   0  0  0  0  0  0  0  0  0  0  0  0
    4.3630   -4.6440   30.0120 C   0  0  0  0  0  0  0  0  0  0  0  0
    2.9180   -4.1880   30.1850 C   0  0  0  0  0  0  0  0  0  0  0  0
    2.3500   -3.2900   29.1260 C   0  0  0  0  0  0  0  0  0  0  0  0
    3.1350   -2.8510   27.9510 C   0  0  0  0  0  0  0  0  0  0  0  0
    4.5630   -3.2600   27.7160 C   0  0  0  0  0  0  0  0  0  0  0  0
    6.7420   -2.6980   23.3580 C   0  0  0  0  0  0  0  0  0  0  0  0
    7.6390   -3.3370   22.3230 C   0  0  0  0  0  0  0  0  0  0  0  0
  1  2  1  0
  2  3  2  0
  2  4  1  0
  4  5  1  0
  5  6  1  0
  6  7  1  0
  7  8  1  0
  8  9  2  0
  8 10  1  0
 10 11  1  0
 11 12  1  0
 12 13  1  6
 13 14  1  0
 14 15  1  0
 14 16  2  0
 12 17  1  0
 17 18  1  0
 18 19  2  0
 19 20  1  0
 20 21  2  0
 21 22  1  0
 10 23  1  0
 18 23  1  0
 22 23  2  0
  7 24  1  0
  4 25  1  0
 24 25  1  0
M  END
