piperidine-amides-30261-covalent
     RDKit          3D

 27 29  0  0  0  0  0  0  0  0999 V2000
    7.0970   -3.3310   19.3010 C   0  0  0  0  0  0  0  0  0  0  0  0
    6.4100   -4.1570   20.2880 C   0  0  0  0  0  0  0  0  0  0  0  0
    5.3970   -4.7870   19.9710 O   0  0  0  0  0  0  0  0  0  0  0  0
    6.9530   -4.2680   21.6110 N   0  0  0  0  0  0  0  0  0  0  0  0
    7.7850   -3.2130   22.1310 C   0  0  0  0  0  0  0  0  0  0  0  0
    7.0850   -2.5320   23.2540 C   0  0  0  0  0  0  0  0  0  0  0  0
    6.7300   -3.5860   24.2750 C   0  0  0  0  0  0  0  0  0  0  0  0
    5.8280   -2.9770   25.2840 C   0  0  0  0  0  0  0  0  0  0  0  0
    4.7740   -2.4150   24.9410 O   0  0  0  0  0  0  0  0  0  0  0  0
    6.1390   -3.0470   26.6660 N   0  0  0  0  0  0  0  0  0  0  0  0
    5.8850   -1.8290   27.4540 C   0  0  0  0  0  0  0  0  0  0  0  0
    7.0380   -1.4460   28.3190 C   0  0  0  0  0  0  0  0  0  0  0  0
    6.7440   -0.4430   29.2010 C   0  0  0  0  0  0  0  0  0  0  0  0
    5.9710    0.4350   28.7210 O   0  0  0  0  0  0  0  0  0  0  0  0
    5.7660    0.5260   27.3200 C   0  0  0  0  0  0  0  0  0  0  0  0
    5.6120   -0.6580   26.5940 C   0  0  0  0  0  0  0  0  0  0  0  0
    5.6590   -4.2230   27.4160 C   0  0  0  0  0  0  0  0  0  0  0  0
    4.3200   -4.4600   27.1160 C   0  0  0  0  0  0  0  0  0  0  0  0
    3.6250   -5.4370   27.8400 C   0  0  0  0  0  0  0  0  0  0  0  0
    3.7980   -5.4430   29.2390 N   0  0  0  0  0  0  0  0  0  0  0  0
    2.7160   -5.2920   30.0390 C   0  0  0  0  0  0  0  0  0  0  0  0
    2.8540   -5.3790   31.4990 C   0  0  0  0  0  0  0  0  0  0  0  0
    2.1610   -6.3130   32.2500 C   0  0  0  0  0  0  0  0  0  0  0  0
    4.9130   -4.7120   29.7130 C   0  0  0  0  0  0  0  0  0  0  0  0
    5.8240   -4.0070   28.7910 C   0  0  0  0  0  0  0  0  0  0  0  0
    5.9930   -4.7950   23.7400 C   0  0  0  0  0  0  0  0  0  0  0  0
    6.6050   -5.3530   22.4730 C   0  0  0  0  0  0  0  0  0  0  0  0
  1  2  1  0
  2  3  2  0
  2  4  1  0
  4  5  1  0
  5  6  1  0
  6  7  1  0
  7  8  1  0
  8  9  2  0
  8 10  1  0
 10 11  1  0
 11 12  1  0
 12 13  1  0
 13 14  1  0
 14 15  1  0
 11 16  1  0
 15 16  1  0
 10 17  1  0
 17 18  1  0
 18 19  1  0
 19 20  1  0
 20 21  1  0
 21 22  1  0
 22 23  3  0
 20 24  1  0
 17 25  1  0
 24 25  1  0
  7 26  1  0
  4 27  1  0
 26 27  1  0
M  END
