piperidine-amides-35330-covalent
     RDKit          3D

 33 35  0  0  0  0  0  0  0  0999 V2000
    7.0270   -3.3470   19.3750 C   0  0  0  0  0  0  0  0  0  0  0  0
    6.3940   -4.2450   20.3780 C   0  0  0  0  0  0  0  0  0  0  0  0
    5.4120   -4.8890   19.9940 O   0  0  0  0  0  0  0  0  0  0  0  0
    6.9250   -4.3780   21.6760 N   0  0  0  0  0  0  0  0  0  0  0  0
    6.6180   -5.4830   22.5300 C   0  0  0  0  0  0  0  0  0  0  0  0
    5.7060   -5.0230   23.6390 C   0  0  0  0  0  0  0  0  0  0  0  0
    6.2520   -3.7810   24.3830 C   0  0  0  0  0  0  0  0  0  0  0  0
    5.1740   -3.3350   25.3230 C   0  0  0  0  0  0  0  0  0  0  0  0
    4.0240   -3.2660   24.8900 O   0  0  0  0  0  0  0  0  0  0  0  0
    5.3870   -2.9790   26.6890 N   0  0  0  0  0  0  0  0  0  0  0  0
    6.6380   -3.1140   27.2190 C   0  0  0  0  0  0  0  0  0  0  0  0
    6.5430   -4.3030   28.1820 C   0  0  0  0  0  0  0  0  0  0  0  0
    5.4570   -4.4300   28.9820 C   0  0  0  0  0  0  0  0  0  0  0  0
    5.1600   -5.6190   29.7030 N   0  0  0  0  0  0  0  0  0  0  0  0
    6.1210   -6.3980   30.2040 N   0  0  0  0  0  0  0  0  0  0  0  0
    5.4910   -7.4370   30.8280 C   0  0  0  0  0  0  0  0  0  0  0  0
    4.1430   -7.3660   30.7450 C   0  0  0  0  0  0  0  0  0  0  0  0
    3.0310   -8.1940   31.2150 N   0  0  0  0  0  0  0  0  0  0  0  0
    3.0790   -8.3950   32.6220 C   0  0  0  0  0  0  0  0  0  0  0  0
    3.9680   -7.7610   33.4520 O   0  0  0  0  0  0  0  0  0  0  0  0
    2.1760   -9.2770   33.1870 O   0  0  0  0  0  0  0  0  0  0  0  0
    2.3450   -9.7580   34.5050 C   0  0  0  0  0  0  0  0  0  0  0  0
    2.0060   -8.6450   35.4570 C   0  0  0  0  0  0  0  0  0  0  0  0
    3.7740   -9.9600   34.9540 C   0  0  0  0  0  0  0  0  0  0  0  0
    1.7220  -10.9820   34.6640 C   0  0  0  0  0  0  0  0  0  0  0  0
    3.8600   -6.1430   29.9870 C   0  0  0  0  0  0  0  0  0  0  0  0
    2.5740   -5.5090   29.5620 C   0  0  0  0  0  0  0  0  0  0  0  0
    1.6210   -6.4700   29.5390 F   0  0  0  0  0  0  0  0  0  0  0  0
    2.1970   -4.4400   30.3590 F   0  0  0  0  0  0  0  0  0  0  0  0
    4.3040   -4.0730   28.3170 C   0  0  0  0  0  0  0  0  0  0  0  0
    4.3740   -2.8570   27.6670 C   0  0  0  0  0  0  0  0  0  0  0  0
    6.7060   -2.7340   23.4000 C   0  0  0  0  0  0  0  0  0  0  0  0
    7.6600   -3.2880   22.3320 C   0  0  0  0  0  0  0  0  0  0  0  0
  1  2  1  0
  2  3  2  0
  2  4  1  0
  4  5  1  0
  5  6  1  0
  6  7  1  0
  7  8  1  0
  8  9  2  0
  8 10  1  0
 10 11  1  0
 11 12  1  0
 12 13  1  0
 13 14  1  0
 14 15  1  0
 15 16  2  0
 16 17  1  0
 17 18  1  0
 18 19  1  0
 19 20  2  0
 19 21  1  0
 22 21  1  0
 22 23  1  0
 22 24  1  0
 22 25  1  0
 14 26  1  0
 17 26  2  0
 26 27  1  0
 27 28  1  0
 27 29  1  0
 13 30  1  0
 10 31  1  0
 30 31  1  0
  7 32  1  0
  4 33  1  0
 32 33  1  0
M  END
