piperidine-amides-12547-covalent
     RDKit          3D

 23 25  0  0  0  0  0  0  0  0999 V2000
    7.1040   -3.2890   19.2110 C   0  0  0  0  0  0  0  0  0  0  0  0
    6.3760   -4.0800   20.2310 C   0  0  0  0  0  0  0  0  0  0  0  0
    5.2910   -4.5800   19.8900 O   0  0  0  0  0  0  0  0  0  0  0  0
    6.9260   -4.2940   21.4960 N   0  0  0  0  0  0  0  0  0  0  0  0
    7.6380   -3.2320   22.1350 C   0  0  0  0  0  0  0  0  0  0  0  0
    7.0600   -2.7760   23.3940 C   0  0  0  0  0  0  0  0  0  0  0  0
    6.5410   -3.8620   24.2340 C   0  0  0  0  0  0  0  0  0  0  0  0
    5.7780   -3.3110   25.3770 C   0  0  0  0  0  0  0  0  0  0  0  0
    4.5340   -3.2910   25.3020 O   0  0  0  0  0  0  0  0  0  0  0  0
    6.4330   -2.8260   26.5200 N   0  0  0  0  0  0  0  0  0  0  0  0
    6.3040   -1.4150   26.9710 C   0  0  0  0  0  0  0  0  0  0  0  0
    5.7100   -0.3030   26.2150 C   0  0  0  0  0  0  0  0  0  0  0  0
    5.2130   -0.3380   25.0600 O   0  0  0  0  0  0  0  0  0  0  0  0
    3.9660   -0.7190   24.9680 C   0  0  0  0  0  0  0  0  0  0  0  0
    5.6460    1.0410   26.8090 C   0  0  0  0  0  0  0  0  0  0  0  0
    6.1430    1.2930   28.0920 C   0  0  0  0  0  0  0  0  0  0  0  0
    6.6990    0.2710   28.8020 C   0  0  0  0  0  0  0  0  0  0  0  0
    7.2120    0.4280   30.0700 N   0  0  0  0  0  0  0  0  0  0  0  0
    7.6720   -0.8200   30.4310 C   0  0  0  0  0  0  0  0  0  0  0  0
    7.3930   -1.6150   29.3440 C   0  0  0  0  0  0  0  0  0  0  0  0
    6.7680   -0.9870   28.2630 C   0  0  0  0  0  0  0  0  0  0  0  0
    5.7980   -4.9280   23.5330 C   0  0  0  0  0  0  0  0  0  0  0  0
    6.5340   -5.4290   22.3210 C   0  0  0  0  0  0  0  0  0  0  0  0
  1  2  1  0
  2  3  2  0
  2  4  1  0
  4  5  1  0
  5  6  1  0
  6  7  1  0
  7  8  1  0
  8  9  2  0
  8 10  1  0
 10 11  1  0
 11 12  2  0
 12 13  1  0
 13 14  1  0
 12 15  1  0
 15 16  2  0
 16 17  1  0
 17 18  1  0
 18 19  1  0
 19 20  2  0
 11 21  1  0
 17 21  2  0
 20 21  1  0
  7 22  1  0
  4 23  1  0
 22 23  1  0
M  END
