piperidine-amides-32851-covalent
     RDKit          3D

 29 31  0  0  0  0  0  0  0  0999 V2000
    7.0940   -3.3190   19.3040 C   0  0  0  0  0  0  0  0  0  0  0  0
    6.3830   -4.1760   20.2920 C   0  0  0  0  0  0  0  0  0  0  0  0
    5.3340   -4.7430   19.9470 O   0  0  0  0  0  0  0  0  0  0  0  0
    6.9330   -4.3780   21.5730 N   0  0  0  0  0  0  0  0  0  0  0  0
    6.5500   -5.5380   22.3340 C   0  0  0  0  0  0  0  0  0  0  0  0
    5.6580   -5.0040   23.4560 C   0  0  0  0  0  0  0  0  0  0  0  0
    6.4840   -4.0080   24.1880 C   0  0  0  0  0  0  0  0  0  0  0  0
    5.7670   -3.3380   25.3050 C   0  0  0  0  0  0  0  0  0  0  0  0
    4.8100   -2.6390   24.9650 O   0  0  0  0  0  0  0  0  0  0  0  0
    6.1340   -3.4980   26.6500 N   0  0  0  0  0  0  0  0  0  0  0  0
    5.6180   -2.6860   27.6800 C   0  0  0  0  0  0  0  0  0  0  0  0
    4.9070   -3.3340   28.5610 C   0  0  2  0  0  0  0  0  0  0  0  0
    4.5510   -2.7120   29.7610 C   0  0  0  0  0  0  0  0  0  0  0  0
    3.2940   -3.2670   30.2670 N   0  0  0  0  0  0  0  0  0  0  0  0
    2.6310   -4.3660   29.8020 C   0  0  0  0  0  0  0  0  0  0  0  0
    1.5390   -4.2200   29.0620 O   0  0  0  0  0  0  0  0  0  0  0  0
    3.0760   -5.6350   30.1020 O   0  0  0  0  0  0  0  0  0  0  0  0
    2.8300   -6.8150   29.3210 C   0  0  0  0  0  0  0  0  0  0  0  0
    1.6590   -6.5630   28.3720 C   0  0  0  0  0  0  0  0  0  0  0  0
    2.7840   -7.9930   29.9920 C   0  0  0  0  0  0  0  0  0  0  0  0
    3.9030   -7.0490   28.3040 C   0  0  0  0  0  0  0  0  0  0  0  0
    5.6020   -4.4370   28.5290 C   0  0  0  0  0  0  0  0  0  0  0  0
    5.3100   -5.2270   29.8190 C   0  0  0  0  0  0  0  0  0  0  0  0
    5.7670   -6.4750   30.3200 C   0  0  0  0  0  0  0  0  0  0  0  0
    6.7030   -6.8250   29.1170 C   0  0  0  0  0  0  0  0  0  0  0  0
    6.1960   -5.5520   28.6830 C   0  0  0  0  0  0  0  0  0  0  0  0
    6.4120   -4.7320   27.4700 C   0  0  0  0  0  0  0  0  0  0  0  0
    6.9740   -2.8640   23.3290 C   0  0  0  0  0  0  0  0  0  0  0  0
    7.6170   -3.2830   22.1850 C   0  0  0  0  0  0  0  0  0  0  0  0
  1  2  1  0
  2  3  2  0
  2  4  1  0
  4  5  1  0
  5  6  1  0
  6  7  1  0
  7  8  1  0
  8  9  2  0
  8 10  1  0
 10 11  1  0
 11 12  1  0
 12 13  1  1
 13 14  1  0
 14 15  1  0
 15 16  2  0
 15 17  1  0
 18 17  1  0
 18 19  1  0
 18 20  1  0
 18 21  1  0
 12 22  1  0
 22 23  1  0
 23 24  2  0
 24 25  1  0
 25 26  2  0
 10 27  1  0
 22 27  2  0
 26 27  1  0
  7 28  1  0
  4 29  1  0
 28 29  1  0
M  END
