piperidine-amides-31574-covalent
     RDKit          3D

 25 26  0  0  0  0  0  0  0  0999 V2000
    7.1080   -3.3020   19.4250 C   0  0  0  0  0  0  0  0  0  0  0  0
    6.3920   -4.1060   20.3980 C   0  0  0  0  0  0  0  0  0  0  0  0
    5.4170   -4.8120   19.9810 O   0  0  0  0  0  0  0  0  0  0  0  0
    6.7550   -4.1540   21.7730 N   0  0  0  0  0  0  0  0  0  0  0  0
    6.6920   -5.5070   22.4000 C   0  0  0  0  0  0  0  0  0  0  0  0
    6.1950   -5.1980   23.8730 C   0  0  0  0  0  0  0  0  0  0  0  0
    6.1890   -3.7020   23.9760 C   0  0  0  0  0  0  0  0  0  0  0  0
    5.3560   -3.1030   25.2050 C   0  0  0  0  0  0  0  0  0  0  0  0
    4.2900   -2.7160   24.7560 O   0  0  0  0  0  0  0  0  0  0  0  0
    5.9440   -3.1670   26.3480 N   0  0  0  0  0  0  0  0  0  0  0  0
    6.2710   -3.5470   27.6270 C   0  0  0  0  0  0  0  0  0  0  0  0
    6.4180   -4.6990   28.3520 C   0  0  0  0  0  0  0  0  0  0  0  0
    6.1060   -5.8570   27.6100 C   0  0  0  0  0  0  0  0  0  0  0  0
    4.8030   -6.2470   27.9600 O   0  0  0  0  0  0  0  0  0  0  0  0
    6.5510   -1.8570   26.7140 C   0  0  0  0  0  0  0  0  0  0  0  0
    5.3810   -0.8950   26.9970 C   0  0  0  0  0  0  0  0  0  0  0  0
    5.7200    0.2750   26.3190 C   0  0  0  0  0  0  0  0  0  0  0  0
    5.0600    1.5430   26.1870 C   0  0  0  0  0  0  0  0  0  0  0  0
    3.7760    1.2640   27.0510 C   0  0  0  0  0  0  0  0  0  0  0  0
    2.6640    2.6120   27.1520 Cl  0  0  0  0  0  0  0  0  0  0  0  0
    3.3830   -0.0500   27.8160 C   0  0  0  0  0  0  0  0  0  0  0  0
    1.8760   -0.1540   28.7370 Cl  0  0  0  0  0  0  0  0  0  0  0  0
    4.2370   -1.0660   27.7330 C   0  0  0  0  0  0  0  0  0  0  0  0
    7.4970   -3.0320   23.6230 C   0  0  0  0  0  0  0  0  0  0  0  0
    7.6970   -3.1600   22.2790 C   0  0  0  0  0  0  0  0  0  0  0  0
  1  2  1  0
  2  3  2  0
  2  4  1  0
  4  5  1  0
  5  6  1  0
  6  7  1  0
  7  8  1  0
  8  9  2  0
  8 10  1  0
 10 11  1  0
 11 12  1  0
 12 13  1  0
 13 14  1  0
 10 15  1  0
 15 16  1  0
 16 17  2  0
 17 18  1  0
 18 19  2  0
 19 20  1  0
 19 21  1  0
 21 22  1  0
 16 23  1  0
 21 23  2  0
  7 24  1  0
  4 25  1  0
 24 25  1  0
M  END
