piperidine-amides-8819-covalent
     RDKit          3D

 22 23  0  0  0  0  0  0  0  0999 V2000
    7.1130   -3.3010   19.2350 C   0  0  0  0  0  0  0  0  0  0  0  0
    6.4110   -4.1060   20.2320 C   0  0  0  0  0  0  0  0  0  0  0  0
    5.3230   -4.6130   19.9090 O   0  0  0  0  0  0  0  0  0  0  0  0
    6.9940   -4.3520   21.5030 N   0  0  0  0  0  0  0  0  0  0  0  0
    7.6430   -3.2650   22.1600 C   0  0  0  0  0  0  0  0  0  0  0  0
    6.6840   -2.6880   23.1470 C   0  0  0  0  0  0  0  0  0  0  0  0
    6.2880   -3.7930   24.1160 C   0  0  0  0  0  0  0  0  0  0  0  0
    5.3760   -3.2210   25.1550 C   0  0  0  0  0  0  0  0  0  0  0  0
    4.1790   -3.2300   24.8980 O   0  0  0  0  0  0  0  0  0  0  0  0
    5.9260   -2.7270   26.3210 N   0  0  0  0  0  0  0  0  0  0  0  0
    6.3810   -3.6050   27.3230 C   0  0  1  0  0  0  0  0  0  0  0  0
    5.7600   -4.8630   27.3970 C   0  0  0  0  0  0  0  0  0  0  0  0
    5.5080   -5.3660   28.6520 C   0  0  0  0  0  0  0  0  0  0  0  0
    6.1700   -6.3690   29.3310 C   0  0  0  0  0  0  0  0  0  0  0  0
    7.7580   -3.9050   26.9830 C   0  0  0  0  0  0  0  0  0  0  0  0
    8.5300   -4.8070   27.9300 C   0  0  0  0  0  0  0  0  0  0  0  0
    9.9110   -5.1590   27.6620 C   0  0  0  0  0  0  0  0  0  0  0  0
   10.5200   -4.5930   26.4140 C   0  0  0  0  0  0  0  0  0  0  0  0
    9.6960   -3.6920   25.5080 C   0  0  0  0  0  0  0  0  0  0  0  0
    8.4030   -3.3380   25.7280 C   0  0  0  0  0  0  0  0  0  0  0  0
    5.5230   -4.8390   23.3490 C   0  0  0  0  0  0  0  0  0  0  0  0
    6.3800   -5.4120   22.2550 C   0  0  0  0  0  0  0  0  0  0  0  0
  1  2  1  0
  2  3  2  0
  2  4  1  0
  4  5  1  0
  5  6  1  0
  6  7  1  0
  7  8  1  0
  8  9  2  0
  8 10  1  0
 10 11  1  0
 11 12  1  6
 12 13  1  0
 13 14  2  3
 11 15  1  0
 15 16  2  0
 16 17  1  0
 17 18  2  0
 18 19  1  0
 15 20  1  0
 19 20  2  0
  7 21  1  0
  4 22  1  0
 21 22  1  0
M  END
