piperidine-amides-10307-covalent
     RDKit          3D

 24 26  0  0  0  0  0  0  0  0999 V2000
    7.0890   -3.2670   19.2000 C   0  0  0  0  0  0  0  0  0  0  0  0
    6.3380   -4.0220   20.2150 C   0  0  0  0  0  0  0  0  0  0  0  0
    5.2450   -4.5190   19.8560 O   0  0  0  0  0  0  0  0  0  0  0  0
    6.8460   -4.2130   21.4980 N   0  0  0  0  0  0  0  0  0  0  0  0
    7.6860   -3.2160   22.1170 C   0  0  0  0  0  0  0  0  0  0  0  0
    6.9540   -2.6310   23.2840 C   0  0  0  0  0  0  0  0  0  0  0  0
    6.5420   -3.7000   24.2590 C   0  0  0  0  0  0  0  0  0  0  0  0
    5.8600   -3.0860   25.4290 C   0  0  0  0  0  0  0  0  0  0  0  0
    4.6080   -3.1510   25.4890 O   0  0  0  0  0  0  0  0  0  0  0  0
    6.5810   -2.4110   26.4510 N   0  0  0  0  0  0  0  0  0  0  0  0
    6.5810   -2.8090   27.8490 C   0  0  0  0  0  0  0  0  0  0  0  0
    6.6050   -4.3070   28.0760 C   0  0  0  0  0  0  0  0  0  0  0  0
    5.5000   -5.0310   28.4710 C   0  0  0  0  0  0  0  0  0  0  0  0
    5.6960   -6.2800   29.0440 C   0  0  0  0  0  0  0  0  0  0  0  0
    4.7560   -6.4160   30.0140 C   0  0  0  0  0  0  0  0  0  0  0  0
    4.0360   -5.2660   30.0620 C   0  0  0  0  0  0  0  0  0  0  0  0
    4.5490   -4.2910   29.2140 C   0  0  0  0  0  0  0  0  0  0  0  0
    7.2240   -4.9370   26.8360 C   0  0  0  0  0  0  0  0  0  0  0  0
    8.1120   -5.7440   27.7770 C   0  0  0  0  0  0  0  0  0  0  0  0
    9.2920   -6.0530   26.9800 C   0  0  0  0  0  0  0  0  0  0  0  0
    9.0990   -5.2710   25.7460 C   0  0  0  0  0  0  0  0  0  0  0  0
    8.1740   -4.2820   25.9970 C   0  0  0  0  0  0  0  0  0  0  0  0
    5.6510   -4.6850   23.5260 C   0  0  0  0  0  0  0  0  0  0  0  0
    6.3850   -5.3000   22.3390 C   0  0  0  0  0  0  0  0  0  0  0  0
  1  2  1  0
  2  3  2  0
  2  4  1  0
  4  5  1  0
  5  6  1  0
  6  7  1  0
  7  8  1  0
  8  9  2  0
  8 10  1  0
 10 11  1  0
 11 12  1  0
 12 13  1  0
 13 14  1  0
 14 15  1  0
 15 16  1  0
 13 17  1  0
 16 17  1  0
 12 18  1  0
 18 19  1  0
 19 20  1  0
 20 21  1  0
 18 22  1  0
 21 22  1  0
  7 23  1  0
  4 24  1  0
 23 24  1  0
M  END
