piperidine-amides-25906-covalent
     RDKit          3D

 25 27  0  0  0  0  0  0  0  0999 V2000
    7.0480   -3.3420   19.3620 C   0  0  0  0  0  0  0  0  0  0  0  0
    6.3990   -4.2150   20.3720 C   0  0  0  0  0  0  0  0  0  0  0  0
    5.4250   -4.8710   19.9940 O   0  0  0  0  0  0  0  0  0  0  0  0
    6.9260   -4.2930   21.6710 N   0  0  0  0  0  0  0  0  0  0  0  0
    6.5920   -5.3520   22.5800 C   0  0  0  0  0  0  0  0  0  0  0  0
    5.8760   -4.7810   23.7870 C   0  0  0  0  0  0  0  0  0  0  0  0
    6.6010   -3.5500   24.3790 C   0  0  0  0  0  0  0  0  0  0  0  0
    5.7580   -3.0010   25.4830 C   0  0  0  0  0  0  0  0  0  0  0  0
    4.5670   -2.7680   25.2390 O   0  0  0  0  0  0  0  0  0  0  0  0
    6.2560   -2.7600   26.8000 N   0  0  0  0  0  0  0  0  0  0  0  0
    6.2160   -3.8930   27.7010 C   0  0  0  0  0  0  0  0  0  0  0  0
    6.2660   -1.4430   27.4120 C   0  0  2  0  0  0  0  0  0  0  0  0
    6.1500   -0.4630   26.4570 C   0  0  0  0  0  0  0  0  0  0  0  0
    5.0090    0.1000   26.7070 C   0  0  0  0  0  0  0  0  0  0  0  0
    4.8710   -0.3140   27.9660 C   0  0  0  0  0  0  0  0  0  0  0  0
    6.0950   -0.4020   28.8410 C   0  0  0  0  0  0  0  0  0  0  0  0
    7.3410   -1.2500   28.4030 C   0  0  0  0  0  0  0  0  0  0  0  0
    7.3240   -0.5090   29.6390 C   0  0  0  0  0  0  0  0  0  0  0  0
    8.4270   -0.5580   30.5580 C   0  0  0  0  0  0  0  0  0  0  0  0
    7.2520    0.2670   30.9370 C   0  0  0  0  0  0  0  0  0  0  0  0
    7.2850    0.8940   32.0500 O   0  0  0  0  0  0  0  0  0  0  0  0
    6.1220    0.3280   30.0430 N   0  0  0  0  0  0  0  0  0  0  0  0
    5.1430    1.3370   30.2110 C   0  0  0  0  0  0  0  0  0  0  0  0
    6.8230   -2.5140   23.3090 C   0  0  0  0  0  0  0  0  0  0  0  0
    7.6540   -3.1870   22.2530 C   0  0  0  0  0  0  0  0  0  0  0  0
  1  2  1  0
  2  3  2  0
  2  4  1  0
  4  5  1  0
  5  6  1  0
  6  7  1  0
  7  8  1  0
  8  9  2  0
  8 10  1  0
 10 11  1  0
 12 10  1  6
 12 13  1  0
 13 14  1  0
 14 15  1  0
 15 16  1  0
 12 17  1  0
 16 17  2  0
 17 18  1  0
 18 19  2  0
 19 20  1  0
 20 21  2  0
 16 22  1  0
 20 22  1  0
 22 23  1  0
  7 24  1  0
  4 25  1  0
 24 25  1  0
M  END
