piperidine-amides-25659-covalent
     RDKit          3D

 25 27  0  0  0  0  0  0  0  0999 V2000
    7.0770   -3.3360   19.2920 C   0  0  0  0  0  0  0  0  0  0  0  0
    6.3280   -4.1290   20.2980 C   0  0  0  0  0  0  0  0  0  0  0  0
    5.2870   -4.6540   19.9210 O   0  0  0  0  0  0  0  0  0  0  0  0
    6.8380   -4.2970   21.5850 N   0  0  0  0  0  0  0  0  0  0  0  0
    6.6040   -5.4910   22.3600 C   0  0  0  0  0  0  0  0  0  0  0  0
    5.8710   -5.1420   23.6320 C   0  0  0  0  0  0  0  0  0  0  0  0
    6.5550   -3.9470   24.3030 C   0  0  0  0  0  0  0  0  0  0  0  0
    5.7390   -3.5580   25.4730 C   0  0  0  0  0  0  0  0  0  0  0  0
    4.5010   -3.4580   25.3960 O   0  0  0  0  0  0  0  0  0  0  0  0
    6.3540   -3.2900   26.7050 N   0  0  0  0  0  0  0  0  0  0  0  0
    6.7030   -4.4080   27.5630 C   0  0  0  0  0  0  0  0  0  0  0  0
    5.4790   -5.2450   27.8040 C   0  0  1  0  0  0  0  0  0  0  0  0
    5.4420   -6.5690   27.5130 C   0  0  0  0  0  0  0  0  0  0  0  0
    5.2010   -5.1860   29.1530 O   0  0  0  0  0  0  0  0  0  0  0  0
    6.3470   -1.9690   27.2500 C   0  0  0  0  0  0  0  0  0  0  0  0
    5.9500   -0.8030   26.4410 N   0  0  0  0  0  0  0  0  0  0  0  0
    6.0170    0.4100   27.1990 C   0  0  0  0  0  0  0  0  0  0  0  0
    5.6940    1.8070   26.7320 C   0  0  0  0  0  0  0  0  0  0  0  0
    5.8920    2.8150   27.8410 C   0  0  0  0  0  0  0  0  0  0  0  0
    6.3600    2.3980   29.2300 C   0  0  0  0  0  0  0  0  0  0  0  0
    6.6380    0.9580   29.5250 C   0  0  0  0  0  0  0  0  0  0  0  0
    6.4640   -0.0770   28.4810 C   0  0  0  0  0  0  0  0  0  0  0  0
    6.6660   -1.5220   28.5110 N   0  0  0  0  0  0  0  0  0  0  0  0
    6.8380   -2.8230   23.3850 C   0  0  0  0  0  0  0  0  0  0  0  0
    7.6230   -3.2480   22.2060 C   0  0  0  0  0  0  0  0  0  0  0  0
  1  2  1  0
  2  3  2  0
  2  4  1  0
  4  5  1  0
  5  6  1  0
  6  7  1  0
  7  8  1  0
  8  9  2  0
  8 10  1  0
 10 11  1  0
 11 12  1  0
 12 13  1  1
 12 14  1  0
 10 15  1  0
 15 16  2  0
 16 17  1  0
 17 18  2  0
 18 19  1  0
 19 20  2  0
 20 21  1  0
 17 22  1  0
 21 22  2  0
 15 23  1  0
 22 23  1  0
  7 24  1  0
  4 25  1  0
 24 25  1  0
M  END
