piperidine-amides-24024-covalent
     RDKit          3D

 24 26  0  0  0  0  0  0  0  0999 V2000
    7.0930   -3.3930   19.4120 C   0  0  0  0  0  0  0  0  0  0  0  0
    6.4300   -4.2550   20.3990 C   0  0  0  0  0  0  0  0  0  0  0  0
    5.4000   -4.8560   19.9980 O   0  0  0  0  0  0  0  0  0  0  0  0
    6.9670   -4.4470   21.7100 N   0  0  0  0  0  0  0  0  0  0  0  0
    6.4410   -5.4710   22.5310 C   0  0  0  0  0  0  0  0  0  0  0  0
    5.9260   -5.0270   23.8380 C   0  0  0  0  0  0  0  0  0  0  0  0
    6.3340   -3.6930   24.3820 C   0  0  0  0  0  0  0  0  0  0  0  0
    5.2600   -3.1220   25.3020 C   0  0  0  0  0  0  0  0  0  0  0  0
    4.1610   -2.8450   24.8030 O   0  0  0  0  0  0  0  0  0  0  0  0
    5.4250   -2.8980   26.7020 N   0  0  0  0  0  0  0  0  0  0  0  0
    6.5020   -3.3570   27.3950 C   0  0  0  0  0  0  0  0  0  0  0  0
    6.3550   -4.6140   28.1630 C   0  0  0  0  0  0  0  0  0  0  0  0
    5.1780   -4.8010   28.7690 N   0  0  0  0  0  0  0  0  0  0  0  0
    4.6900   -5.8230   29.6750 C   0  0  0  0  0  0  0  0  0  0  0  0
    5.5520   -6.8340   30.0160 C   0  0  0  0  0  0  0  0  0  0  0  0
    4.8070   -6.9100   31.3570 C   0  0  0  0  0  0  0  0  0  0  0  0
    3.8030   -7.8510   30.7660 C   0  0  0  0  0  0  0  0  0  0  0  0
    5.6330   -7.7420   32.3530 C   0  0  0  0  0  0  0  0  0  0  0  0
    3.3870   -5.4710   29.9670 N   0  0  0  0  0  0  0  0  0  0  0  0
    3.1350   -4.3630   29.2940 N   0  0  0  0  0  0  0  0  0  0  0  0
    4.2140   -3.8790   28.5080 C   0  0  0  0  0  0  0  0  0  0  0  0
    4.3460   -2.6830   27.5920 C   0  0  0  0  0  0  0  0  0  0  0  0
    6.6710   -2.6740   23.2730 C   0  0  0  0  0  0  0  0  0  0  0  0
    7.6430   -3.3050   22.3440 C   0  0  0  0  0  0  0  0  0  0  0  0
  1  2  1  0
  2  3  2  0
  2  4  1  0
  4  5  1  0
  5  6  1  0
  6  7  1  0
  7  8  1  0
  8  9  2  0
  8 10  1  0
 10 11  1  0
 11 12  1  0
 12 13  1  0
 13 14  1  0
 14 15  1  0
 15 16  1  0
 16 17  1  0
 16 18  1  0
 14 19  2  0
 19 20  1  0
 13 21  1  0
 20 21  2  0
 10 22  1  0
 21 22  1  0
  7 23  1  0
  4 24  1  0
 23 24  1  0
M  END
