piperidine-amides-32418-covalent
     RDKit          3D

 28 30  0  0  0  0  0  0  0  0999 V2000
    7.1040   -3.3660   19.3830 C   0  0  0  0  0  0  0  0  0  0  0  0
    6.3750   -4.2230   20.3500 C   0  0  0  0  0  0  0  0  0  0  0  0
    5.3420   -4.7990   19.9710 O   0  0  0  0  0  0  0  0  0  0  0  0
    6.9040   -4.4080   21.6430 N   0  0  0  0  0  0  0  0  0  0  0  0
    6.3900   -5.4460   22.4850 C   0  0  0  0  0  0  0  0  0  0  0  0
    5.3200   -4.7720   23.3600 C   0  0  0  0  0  0  0  0  0  0  0  0
    5.9480   -3.6470   24.1450 C   0  0  0  0  0  0  0  0  0  0  0  0
    4.9750   -2.9410   25.0590 C   0  0  0  0  0  0  0  0  0  0  0  0
    3.9550   -2.4940   24.5570 O   0  0  0  0  0  0  0  0  0  0  0  0
    5.2860   -2.8610   26.4140 N   0  0  0  0  0  0  0  0  0  0  0  0
    4.4630   -2.7240   27.5730 C   0  0  0  0  0  0  0  0  0  0  0  0
    4.6080   -3.4890   28.7280 C   0  0  2  0  0  0  0  0  0  0  0  0
    3.9610   -3.0300   29.8810 C   0  0  0  0  0  0  0  0  0  0  0  0
    2.6470   -2.6650   29.7230 C   0  0  0  0  0  0  0  0  0  0  0  0
    4.6340   -1.7500   30.2140 C   0  0  0  0  0  0  0  0  0  0  0  0
    5.8870   -3.8680   29.0600 C   0  0  0  0  0  0  0  0  0  0  0  0
    6.5630   -4.3280   27.8180 C   0  0  0  0  0  0  0  0  0  0  0  0
    7.4900   -5.2190   27.8300 C   0  0  0  0  0  0  0  0  0  0  0  0
    8.1260   -5.6290   26.6070 C   0  0  0  0  0  0  0  0  0  0  0  0
    8.9540   -6.4380   27.3150 C   0  0  0  0  0  0  0  0  0  0  0  0
    9.8400   -5.8820   28.1150 F   0  0  0  0  0  0  0  0  0  0  0  0
    9.7420   -7.2050   26.5640 F   0  0  0  0  0  0  0  0  0  0  0  0
    8.0790   -6.8490   28.2660 F   0  0  0  0  0  0  0  0  0  0  0  0
    7.8940   -5.2310   25.2410 C   0  0  0  0  0  0  0  0  0  0  0  0
    6.8330   -4.2090   25.2550 C   0  0  0  0  0  0  0  0  0  0  0  0
    6.2570   -3.8410   26.6060 C   0  0  0  0  0  0  0  0  0  0  0  0
    6.6310   -2.6120   23.2590 C   0  0  0  0  0  0  0  0  0  0  0  0
    7.5590   -3.2910   22.3110 C   0  0  0  0  0  0  0  0  0  0  0  0
  1  2  1  0
  2  3  2  0
  2  4  1  0
  4  5  1  0
  5  6  1  0
  6  7  1  0
  7  8  1  0
  8  9  2  0
  8 10  1  0
 10 11  1  0
 11 12  1  0
 12 13  1  1
 13 14  1  0
 13 15  1  0
 12 16  1  0
 16 17  1  0
 17 18  2  0
 18 19  1  0
 19 20  1  0
 20 21  1  0
 20 22  1  0
 20 23  1  0
 19 24  2  0
 24 25  1  0
 10 26  1  0
 17 26  1  0
 25 26  2  0
  7 27  1  0
  4 28  1  0
 27 28  1  0
M  END
