piperidine-amides-7044-covalent
     RDKit          3D

 22 23  0  0  0  0  0  0  0  0999 V2000
    7.1010   -3.2880   19.2820 C   0  0  0  0  0  0  0  0  0  0  0  0
    6.3390   -4.0590   20.2770 C   0  0  0  0  0  0  0  0  0  0  0  0
    5.3200   -4.6940   19.9350 O   0  0  0  0  0  0  0  0  0  0  0  0
    6.7750   -4.1190   21.6080 N   0  0  0  0  0  0  0  0  0  0  0  0
    6.6500   -5.3820   22.3060 C   0  0  0  0  0  0  0  0  0  0  0  0
    6.0370   -5.1010   23.6870 C   0  0  0  0  0  0  0  0  0  0  0  0
    6.1160   -3.6070   23.9090 C   0  0  0  0  0  0  0  0  0  0  0  0
    5.6250   -3.2850   25.2640 C   0  0  0  0  0  0  0  0  0  0  0  0
    4.3900   -3.2900   25.4450 O   0  0  0  0  0  0  0  0  0  0  0  0
    6.5240   -2.9780   26.3100 N   0  0  0  0  0  0  0  0  0  0  0  0
    6.2130   -3.3970   27.6510 C   0  0  0  0  0  0  0  0  0  0  0  0
    5.9930   -2.1570   28.4920 C   0  0  0  0  0  0  0  0  0  0  0  0
    4.7500   -1.4630   28.2670 N   0  0  0  0  0  0  0  0  0  0  0  0
    4.8430   -0.4130   29.1600 O   0  0  0  0  0  0  0  0  0  0  0  0
    6.0570   -0.5410   29.8130 C   0  0  0  0  0  0  0  0  0  0  0  0
    6.6360    0.2310   30.7900 C   0  0  0  0  0  0  0  0  0  0  0  0
    5.9320    0.1670   31.9940 C   0  0  0  0  0  0  0  0  0  0  0  0
    7.9520   -0.0770   31.0210 C   0  0  0  0  0  0  0  0  0  0  0  0
    6.7880    1.5250   30.3260 C   0  0  0  0  0  0  0  0  0  0  0  0
    6.7900   -1.6110   29.4230 N   0  0  0  0  0  0  0  0  0  0  0  0
    7.4570   -3.0530   23.6030 C   0  0  0  0  0  0  0  0  0  0  0  0
    7.7100   -3.1340   22.1360 C   0  0  0  0  0  0  0  0  0  0  0  0
  1  2  1  0
  2  3  2  0
  2  4  1  0
  4  5  1  0
  5  6  1  0
  6  7  1  0
  7  8  1  0
  8  9  2  0
  8 10  1  0
 10 11  1  0
 11 12  1  0
 12 13  2  0
 13 14  1  0
 14 15  1  0
 15 16  1  0
 16 17  1  0
 16 18  1  0
 16 19  1  0
 12 20  1  0
 15 20  2  0
  7 21  1  0
  4 22  1  0
 21 22  1  0
M  END
