piperidine-amides-27763-covalent
     RDKit          3D

 24 26  0  0  0  0  0  0  0  0999 V2000
    7.0710   -3.3390   19.3170 C   0  0  0  0  0  0  0  0  0  0  0  0
    6.4220   -4.1850   20.3410 C   0  0  0  0  0  0  0  0  0  0  0  0
    5.4080   -4.8220   19.9790 O   0  0  0  0  0  0  0  0  0  0  0  0
    6.9640   -4.2880   21.6340 N   0  0  0  0  0  0  0  0  0  0  0  0
    6.7030   -5.4610   22.4090 C   0  0  0  0  0  0  0  0  0  0  0  0
    6.2590   -5.1540   23.7690 C   0  0  0  0  0  0  0  0  0  0  0  0
    6.2630   -3.7020   24.0390 C   0  0  0  0  0  0  0  0  0  0  0  0
    5.7290   -3.3150   25.3800 C   0  0  0  0  0  0  0  0  0  0  0  0
    4.5140   -3.0450   25.3990 O   0  0  0  0  0  0  0  0  0  0  0  0
    6.4510   -3.2170   26.6000 N   0  0  0  0  0  0  0  0  0  0  0  0
    6.0320   -2.1500   27.5320 C   0  0  0  0  0  0  0  0  0  0  0  0
    5.3660   -2.7260   28.7690 C   0  0  0  0  0  0  0  0  0  0  0  0
    4.0190   -3.7800   28.1920 S   0  0  0  0  0  0  0  0  0  0  0  0
    3.2770   -4.4470   29.2870 O   0  0  0  0  0  0  0  0  0  0  0  0
    3.1950   -3.0270   27.2190 O   0  0  0  0  0  0  0  0  0  0  0  0
    4.9670   -4.9200   27.3870 N   0  0  0  0  0  0  0  0  0  0  0  0
    4.7390   -6.3180   27.6280 C   0  0  0  0  0  0  0  0  0  0  0  0
    5.1610   -6.5690   28.9050 C   0  0  0  0  0  0  0  0  0  0  0  0
    6.5010   -6.6180   29.2240 C   0  0  0  0  0  0  0  0  0  0  0  0
    7.4710   -5.9570   28.4940 C   0  0  0  0  0  0  0  0  0  0  0  0
    7.1840   -5.3320   27.3370 C   0  0  0  0  0  0  0  0  0  0  0  0
    6.3250   -4.3360   27.5070 C   0  0  1  0  0  0  0  0  0  0  0  0
    7.5910   -3.1220   23.6720 C   0  0  0  0  0  0  0  0  0  0  0  0
    7.8070   -3.2340   22.2080 C   0  0  0  0  0  0  0  0  0  0  0  0
  1  2  1  0
  2  3  2  0
  2  4  1  0
  4  5  1  0
  5  6  1  0
  6  7  1  0
  7  8  1  0
  8  9  2  0
  8 10  1  0
 10 11  1  0
 11 12  1  0
 13 12  1  0
 13 14  2  0
 13 15  2  0
 13 16  1  0
 16 17  1  0
 17 18  1  0
 18 19  1  0
 19 20  1  0
 20 21  1  0
 10 22  1  0
 16 22  1  0
 22 21  1  6
  7 23  1  0
  4 24  1  0
 23 24  1  0
M  END
