piperidine-amides-3375-covalent
     RDKit          3D

 21 22  0  0  0  0  0  0  0  0999 V2000
    7.0990   -3.3030   19.2460 C   0  0  0  0  0  0  0  0  0  0  0  0
    6.3240   -4.0290   20.2460 C   0  0  0  0  0  0  0  0  0  0  0  0
    5.2820   -4.5940   19.9080 O   0  0  0  0  0  0  0  0  0  0  0  0
    6.7960   -4.1370   21.6050 N   0  0  0  0  0  0  0  0  0  0  0  0
    7.6890   -3.1310   22.1370 C   0  0  0  0  0  0  0  0  0  0  0  0
    7.4460   -2.9670   23.6070 C   0  0  0  0  0  0  0  0  0  0  0  0
    6.1210   -3.6420   23.8820 C   0  0  0  0  0  0  0  0  0  0  0  0
    5.5940   -3.3550   25.2500 C   0  0  0  0  0  0  0  0  0  0  0  0
    4.3960   -3.5380   25.5330 O   0  0  0  0  0  0  0  0  0  0  0  0
    6.4570   -2.8650   26.2610 N   0  0  0  0  0  0  0  0  0  0  0  0
    6.7130   -1.4440   26.3660 C   0  0  0  0  0  0  0  0  0  0  0  0
    5.4200   -0.7170   26.6840 C   0  0  2  0  0  0  0  0  0  0  0  0
    4.8210   -0.0290   25.6480 C   0  0  0  0  0  0  0  0  0  0  0  0
    5.3940    1.0390   25.3200 O   0  0  0  0  0  0  0  0  0  0  0  0
    5.9270    0.4420   27.5900 C   0  0  0  0  0  0  0  0  0  0  0  0
    4.8770    1.2240   28.0460 C   0  0  0  0  0  0  0  0  0  0  0  0
    3.6960    0.5860   28.5890 C   0  0  0  0  0  0  0  0  0  0  0  0
    3.6100   -0.7500   28.3160 O   0  0  0  0  0  0  0  0  0  0  0  0
    4.5240   -1.4010   27.4810 C   0  0  0  0  0  0  0  0  0  0  0  0
    6.3440   -5.1330   23.6940 C   0  0  0  0  0  0  0  0  0  0  0  0
    6.4350   -5.3610   22.3130 C   0  0  0  0  0  0  0  0  0  0  0  0
  1  2  1  0
  2  3  2  0
  2  4  1  0
  4  5  1  0
  5  6  1  0
  6  7  1  0
  7  8  1  0
  8  9  2  0
  8 10  1  0
 10 11  1  0
 12 11  1  6
 12 13  1  0
 13 14  1  0
 12 15  1  0
 15 16  1  0
 16 17  1  0
 17 18  1  0
 12 19  1  0
 18 19  1  0
  7 20  1  0
  4 21  1  0
 20 21  1  0
M  END
