piperidine-amides-19264-covalent
     RDKit          3D

 22 23  0  0  0  0  0  0  0  0999 V2000
    7.0450   -3.3750   19.3050 C   0  0  0  0  0  0  0  0  0  0  0  0
    6.3570   -4.1250   20.3360 C   0  0  0  0  0  0  0  0  0  0  0  0
    5.3450   -4.8000   19.9680 O   0  0  0  0  0  0  0  0  0  0  0  0
    6.7730   -4.1930   21.6880 N   0  0  0  0  0  0  0  0  0  0  0  0
    7.7750   -3.1740   22.1390 C   0  0  0  0  0  0  0  0  0  0  0  0
    7.5170   -3.0500   23.6910 C   0  0  0  0  0  0  0  0  0  0  0  0
    6.2570   -3.8320   23.9010 C   0  0  0  0  0  0  0  0  0  0  0  0
    5.4230   -3.4790   25.1960 C   0  0  0  0  0  0  0  0  0  0  0  0
    4.2350   -3.6620   24.9810 O   0  0  0  0  0  0  0  0  0  0  0  0
    6.1560   -3.0820   26.1520 N   0  0  0  0  0  0  0  0  0  0  0  0
    6.5050   -2.1640   27.1040 C   0  0  0  0  0  0  0  0  0  0  0  0
    7.2360   -1.9310   28.3000 C   0  0  0  0  0  0  0  0  0  0  0  0
    7.3940   -0.7550   29.1500 C   0  0  0  0  0  0  0  0  0  0  0  0
    6.7820    0.5760   28.9410 C   0  0  0  0  0  0  0  0  0  0  0  0
    6.0820    0.2180   27.6990 C   0  0  0  0  0  0  0  0  0  0  0  0
    5.3100    1.1760   27.0320 C   0  0  0  0  0  0  0  0  0  0  0  0
    5.8020   -0.8410   26.7280 C   0  0  0  0  0  0  0  0  0  0  0  0
    6.8570   -4.2500   26.6860 C   0  0  0  0  0  0  0  0  0  0  0  0
    8.3570   -4.4290   26.2970 C   0  0  0  0  0  0  0  0  0  0  0  0
    6.6510   -4.6060   28.1160 C   0  0  0  0  0  0  0  0  0  0  0  0
    6.3830   -5.3190   23.6500 C   0  0  0  0  0  0  0  0  0  0  0  0
    6.6840   -5.4840   22.3420 C   0  0  0  0  0  0  0  0  0  0  0  0
  1  2  1  0
  2  3  2  0
  2  4  1  0
  4  5  1  0
  5  6  1  0
  6  7  1  0
  7  8  1  0
  8  9  2  0
  8 10  1  0
 10 11  1  0
 11 12  2  0
 12 13  1  0
 13 14  2  0
 14 15  1  0
 15 16  1  0
 11 17  1  0
 15 17  2  0
 10 18  1  0
 18 19  1  0
 18 20  1  0
  7 21  1  0
  4 22  1  0
 21 22  1  0
M  END
