piperidine-amides-663-covalent
     RDKit          3D

 26 28  0  0  0  0  0  0  0  0999 V2000
    7.0600   -3.2780   19.1360 C   0  0  0  0  0  0  0  0  0  0  0  0
    6.2840   -3.9550   20.1500 C   0  0  0  0  0  0  0  0  0  0  0  0
    5.1670   -4.4370   19.8170 O   0  0  0  0  0  0  0  0  0  0  0  0
    6.7270   -4.1690   21.4610 N   0  0  0  0  0  0  0  0  0  0  0  0
    7.5860   -3.1330   22.0950 C   0  0  0  0  0  0  0  0  0  0  0  0
    6.6280   -2.6310   23.2460 C   0  0  0  0  0  0  0  0  0  0  0  0
    6.3460   -3.8950   24.0020 C   0  0  0  0  0  0  0  0  0  0  0  0
    5.8740   -3.6930   25.4970 C   0  0  0  0  0  0  0  0  0  0  0  0
    4.9910   -2.8510   25.6460 O   0  0  0  0  0  0  0  0  0  0  0  0
    6.6110   -4.5270   26.0870 N   0  0  0  0  0  0  0  0  0  0  0  0
    7.4500   -5.4710   26.5910 C   0  0  0  0  0  0  0  0  0  0  0  0
    8.7560   -5.8690   26.5080 C   0  0  0  0  0  0  0  0  0  0  0  0
    9.4450   -5.4490   25.3270 C   0  0  0  0  0  0  0  0  0  0  0  0
    9.3750   -4.0500   25.0700 O   0  0  0  0  0  0  0  0  0  0  0  0
   10.6610   -3.5210   25.0640 C   0  0  0  0  0  0  0  0  0  0  0  0
   11.6230   -4.2160   25.9580 C   0  0  0  0  0  0  0  0  0  0  0  0
   12.9070   -3.6460   25.9080 C   0  0  0  0  0  0  0  0  0  0  0  0
   13.5720   -2.5810   25.2510 C   0  0  0  0  0  0  0  0  0  0  0  0
   12.3910   -2.0290   24.4210 C   0  0  0  0  0  0  0  0  0  0  0  0
   12.6870   -0.7900   23.5210 C   0  0  0  0  0  0  0  0  0  0  0  0
   11.7380   -0.2160   22.7520 C   0  0  0  0  0  0  0  0  0  0  0  0
   10.4870   -0.7330   22.7570 C   0  0  0  0  0  0  0  0  0  0  0  0
   10.1810   -1.8120   23.5240 C   0  0  0  0  0  0  0  0  0  0  0  0
   11.0820   -2.4710   24.3510 C   0  0  0  0  0  0  0  0  0  0  0  0
    5.5990   -4.9790   23.3200 C   0  0  0  0  0  0  0  0  0  0  0  0
    6.3740   -5.4010   22.1190 C   0  0  0  0  0  0  0  0  0  0  0  0
  1  2  1  0
  2  3  2  0
  2  4  1  0
  4  5  1  0
  5  6  1  0
  6  7  1  0
  7  8  1  0
  8  9  2  0
  8 10  1  0
 10 11  1  0
 11 12  1  0
 12 13  1  0
 13 14  1  0
 14 15  1  0
 15 16  2  0
 16 17  1  0
 17 18  2  0
 18 19  1  0
 19 20  1  0
 20 21  2  0
 21 22  1  0
 22 23  2  0
 15 24  1  0
 19 24  2  0
 23 24  1  0
  7 25  1  0
  4 26  1  0
 25 26  1  0
M  END
