piperidine-amides-13631-covalent
     RDKit          3D

 29 31  0  0  0  0  0  0  0  0999 V2000
    7.1260   -3.2590   19.2220 C   0  0  0  0  0  0  0  0  0  0  0  0
    6.3700   -4.0400   20.2430 C   0  0  0  0  0  0  0  0  0  0  0  0
    5.3080   -4.5890   19.9050 O   0  0  0  0  0  0  0  0  0  0  0  0
    6.8950   -4.1830   21.5460 N   0  0  0  0  0  0  0  0  0  0  0  0
    6.5490   -5.3060   22.3730 C   0  0  0  0  0  0  0  0  0  0  0  0
    5.6450   -4.7970   23.5140 C   0  0  0  0  0  0  0  0  0  0  0  0
    5.9320   -3.3450   23.8320 C   0  0  0  0  0  0  0  0  0  0  0  0
    5.3030   -2.9150   25.1110 C   0  0  0  0  0  0  0  0  0  0  0  0
    4.0700   -2.9000   25.1130 O   0  0  0  0  0  0  0  0  0  0  0  0
    6.0500   -2.5630   26.2440 N   0  0  0  0  0  0  0  0  0  0  0  0
    6.2630   -3.4200   27.3440 C   0  0  1  0  0  0  0  0  0  0  0  0
    5.2410   -4.0940   27.9390 C   0  0  0  0  0  0  0  0  0  0  0  0
    5.7260   -4.4670   29.2530 O   0  0  0  0  0  0  0  0  0  0  0  0
    4.7730   -5.1560   29.9720 C   0  0  0  0  0  0  0  0  0  0  0  0
    3.7300   -4.4980   30.5800 C   0  0  0  0  0  0  0  0  0  0  0  0
    3.5250   -3.0280   30.5350 C   0  0  0  0  0  0  0  0  0  0  0  0
    2.7660   -5.1980   31.3040 C   0  0  0  0  0  0  0  0  0  0  0  0
    2.8150   -6.7240   31.4610 C   0  0  0  0  0  0  0  0  0  0  0  0
    3.8680   -7.3580   30.8440 C   0  0  0  0  0  0  0  0  0  0  0  0
    4.8240   -6.5130   30.1090 C   0  0  0  0  0  0  0  0  0  0  0  0
    5.8730   -7.4400   29.5350 C   0  0  0  0  0  0  0  0  0  0  0  0
    7.2190   -4.2720   26.9890 C   0  0  0  0  0  0  0  0  0  0  0  0
    8.1640   -4.7470   28.0570 C   0  0  0  0  0  0  0  0  0  0  0  0
    9.2350   -5.6810   27.7550 C   0  0  0  0  0  0  0  0  0  0  0  0
    9.3740   -6.1610   26.3540 C   0  0  0  0  0  0  0  0  0  0  0  0
    8.4060   -5.6610   25.3490 C   0  0  0  0  0  0  0  0  0  0  0  0
    7.3850   -4.7810   25.5800 C   0  0  0  0  0  0  0  0  0  0  0  0
    7.3350   -2.8730   23.5570 C   0  0  0  0  0  0  0  0  0  0  0  0
    7.6230   -3.0990   22.1060 C   0  0  0  0  0  0  0  0  0  0  0  0
  1  2  1  0
  2  3  2  0
  2  4  1  0
  4  5  1  0
  5  6  1  0
  6  7  1  0
  7  8  1  0
  8  9  2  0
  8 10  1  0
 10 11  1  0
 11 12  1  6
 12 13  1  0
 13 14  1  0
 14 15  2  0
 15 16  1  0
 15 17  1  0
 17 18  2  0
 18 19  1  0
 14 20  1  0
 19 20  2  0
 20 21  1  0
 11 22  1  0
 22 23  2  0
 23 24  1  0
 24 25  2  0
 25 26  1  0
 22 27  1  0
 26 27  2  0
  7 28  1  0
  4 29  1  0
 28 29  1  0
M  END
