piperidine-amides-2964-covalent
     RDKit          3D

 23 24  0  0  0  0  0  0  0  0999 V2000
    7.0930   -3.2830   19.1900 C   0  0  0  0  0  0  0  0  0  0  0  0
    6.3350   -4.0300   20.1840 C   0  0  0  0  0  0  0  0  0  0  0  0
    5.2610   -4.5440   19.8820 O   0  0  0  0  0  0  0  0  0  0  0  0
    6.8720   -4.2220   21.4980 N   0  0  0  0  0  0  0  0  0  0  0  0
    7.6080   -3.1350   22.1040 C   0  0  0  0  0  0  0  0  0  0  0  0
    7.4100   -3.0960   23.5940 C   0  0  0  0  0  0  0  0  0  0  0  0
    6.0240   -3.5980   23.9070 C   0  0  0  0  0  0  0  0  0  0  0  0
    5.7050   -3.2960   25.3250 C   0  0  0  0  0  0  0  0  0  0  0  0
    4.5500   -3.0340   25.7080 O   0  0  0  0  0  0  0  0  0  0  0  0
    6.7760   -3.2900   26.2390 N   0  0  0  0  0  0  0  0  0  0  0  0
    6.5380   -3.6860   27.6090 C   0  0  0  0  0  0  0  0  0  0  0  0
    6.8990   -5.1440   27.7660 C   0  0  0  0  0  0  0  0  0  0  0  0
    6.1330   -5.9210   28.6280 C   0  0  0  0  0  0  0  0  0  0  0  0
    4.7340   -5.9680   28.2690 N   0  0  0  0  0  0  0  0  0  0  0  0
    4.4750   -6.4850   26.9280 C   0  0  0  0  0  0  0  0  0  0  0  0
    3.2630   -7.0990   26.9450 C   0  0  0  0  0  0  0  0  0  0  0  0
    2.8430   -7.0560   28.2950 C   0  0  0  0  0  0  0  0  0  0  0  0
    3.6610   -6.4310   29.1940 C   0  0  1  0  0  0  0  0  0  0  0  0
    4.1290   -7.0360   30.3430 C   0  0  0  0  0  0  0  0  0  0  0  0
    5.3230   -6.7910   30.9010 N   0  0  0  0  0  0  0  0  0  0  0  0
    3.2280   -7.9260   30.9030 O   0  0  0  0  0  0  0  0  0  0  0  0
    5.7850   -5.0080   23.5140 C   0  0  0  0  0  0  0  0  0  0  0  0
    6.4270   -5.3420   22.2440 C   0  0  0  0  0  0  0  0  0  0  0  0
  1  2  1  0
  2  3  2  0
  2  4  1  0
  4  5  1  0
  5  6  1  0
  6  7  1  0
  7  8  1  0
  8  9  2  0
  8 10  1  0
 10 11  1  0
 11 12  1  0
 12 13  1  0
 13 14  1  0
 14 15  1  0
 15 16  1  0
 16 17  1  0
 14 18  1  0
 17 18  1  0
 18 19  1  1
 19 20  1  0
 19 21  2  0
  7 22  1  0
  4 23  1  0
 22 23  1  0
M  END
