piperidine-amides-29197-covalent
     RDKit          3D

 26 28  0  0  0  0  0  0  0  0999 V2000
    7.0500   -3.3620   19.3740 C   0  0  0  0  0  0  0  0  0  0  0  0
    6.4070   -4.2420   20.3460 C   0  0  0  0  0  0  0  0  0  0  0  0
    5.3870   -4.8560   19.9840 O   0  0  0  0  0  0  0  0  0  0  0  0
    6.9690   -4.4190   21.6380 N   0  0  0  0  0  0  0  0  0  0  0  0
    6.6100   -5.5960   22.3860 C   0  0  0  0  0  0  0  0  0  0  0  0
    6.2590   -5.2390   23.8130 C   0  0  0  0  0  0  0  0  0  0  0  0
    5.9680   -3.7560   23.8440 C   0  0  0  0  0  0  0  0  0  0  0  0
    5.3280   -3.3010   25.1290 C   0  0  0  0  0  0  0  0  0  0  0  0
    4.5790   -2.3390   25.0360 O   0  0  0  0  0  0  0  0  0  0  0  0
    5.5830   -3.9620   26.3200 N   0  0  0  0  0  0  0  0  0  0  0  0
    4.5760   -4.4590   27.1710 C   0  0  0  0  0  0  0  0  0  0  0  0
    5.1870   -4.6130   28.3980 C   0  0  0  0  0  0  0  0  0  0  0  0
    6.3510   -4.2050   28.2870 O   0  0  0  0  0  0  0  0  0  0  0  0
    6.5710   -3.4030   27.1970 C   0  0  0  0  0  0  0  0  0  0  0  0
    7.7060   -3.0220   26.6100 C   0  0  0  0  0  0  0  0  0  0  0  0
    7.7550   -2.0020   27.4820 N   0  0  0  0  0  0  0  0  0  0  0  0
    8.6170   -2.3740   28.5200 C   0  0  0  0  0  0  0  0  0  0  0  0
    8.9500   -1.4330   29.5020 O   0  0  0  0  0  0  0  0  0  0  0  0
    9.0760   -3.6940   28.5730 O   0  0  0  0  0  0  0  0  0  0  0  0
    8.5690   -4.8280   27.8320 C   0  0  0  0  0  0  0  0  0  0  0  0
    9.7670   -5.5750   27.6780 C   0  0  0  0  0  0  0  0  0  0  0  0
    7.5820   -5.7730   28.4590 C   0  0  0  0  0  0  0  0  0  0  0  0
    8.0180   -4.5830   26.5740 C   0  0  0  0  0  0  0  0  0  0  0  0
    6.3670   -2.0750   27.8740 C   0  0  0  0  0  0  0  0  0  0  0  0
    7.2760   -3.0730   23.6140 C   0  0  0  0  0  0  0  0  0  0  0  0
    7.6960   -3.2980   22.1980 C   0  0  0  0  0  0  0  0  0  0  0  0
  1  2  1  0
  2  3  2  0
  2  4  1  0
  4  5  1  0
  5  6  1  0
  6  7  1  0
  7  8  1  0
  8  9  2  0
  8 10  1  0
 10 11  1  0
 11 12  1  0
 12 13  1  0
 10 14  1  0
 14 13  1  0
 14 15  1  0
 15 16  1  0
 16 17  1  0
 17 18  2  0
 17 19  1  0
 20 19  1  0
 20 21  1  0
 20 22  1  0
 20 23  1  0
 14 24  1  0
 16 24  1  0
  7 25  1  0
  4 26  1  0
 25 26  1  0
M  END
