piperidine-amides-13327-covalent
     RDKit          3D

 21 22  0  0  0  0  0  0  0  0999 V2000
    7.1170   -3.2450   19.1880 C   0  0  0  0  0  0  0  0  0  0  0  0
    6.3390   -3.9960   20.1980 C   0  0  0  0  0  0  0  0  0  0  0  0
    5.2400   -4.4530   19.8370 O   0  0  0  0  0  0  0  0  0  0  0  0
    6.8500   -4.2350   21.4780 N   0  0  0  0  0  0  0  0  0  0  0  0
    7.5660   -3.1980   22.1500 C   0  0  0  0  0  0  0  0  0  0  0  0
    7.0540   -2.8580   23.4840 C   0  0  0  0  0  0  0  0  0  0  0  0
    6.4320   -3.9690   24.2390 C   0  0  0  0  0  0  0  0  0  0  0  0
    5.6450   -3.4690   25.4000 C   0  0  0  0  0  0  0  0  0  0  0  0
    4.4060   -3.5740   25.3530 O   0  0  0  0  0  0  0  0  0  0  0  0
    6.2590   -2.8720   26.5200 N   0  0  0  0  0  0  0  0  0  0  0  0
    6.5910   -1.4340   26.5150 C   0  0  0  0  0  0  0  0  0  0  0  0
    6.5290   -0.7820   27.8590 C   0  0  2  0  0  0  0  0  0  0  0  0
    6.2340   -1.6270   28.9950 C   0  0  0  0  0  0  0  0  0  0  0  0
    6.2740   -1.0060   30.2180 C   0  0  0  0  0  0  0  0  0  0  0  0
    6.2360    0.3750   30.2810 C   0  0  0  0  0  0  0  0  0  0  0  0
    5.7990    1.0770   29.1970 C   0  0  2  0  0  0  0  0  0  0  0  0
    4.6600    1.8040   29.3960 C   0  0  0  0  0  0  0  0  0  0  0  0
    4.4390    2.9310   28.5870 F   0  0  0  0  0  0  0  0  0  0  0  0
    5.8900    0.4680   27.9470 C   0  0  0  0  0  0  0  0  0  0  0  0
    5.6100   -4.8600   23.3480 C   0  0  0  0  0  0  0  0  0  0  0  0
    6.4500   -5.3790   22.2510 C   0  0  0  0  0  0  0  0  0  0  0  0
  1  2  1  0
  2  3  2  0
  2  4  1  0
  4  5  1  0
  5  6  1  0
  6  7  1  0
  7  8  1  0
  8  9  2  0
  8 10  1  0
 10 11  1  0
 12 11  1  6
 12 13  1  0
 13 14  1  0
 14 15  1  0
 15 16  1  0
 16 17  1  1
 17 18  1  0
 12 19  1  0
 16 19  1  0
  7 20  1  0
  4 21  1  0
 20 21  1  0
M  END
