piperidine-amides-30123-covalent
     RDKit          3D

 27 29  0  0  0  0  0  0  0  0999 V2000
    7.1310   -3.2980   19.2530 C   0  0  0  0  0  0  0  0  0  0  0  0
    6.3440   -4.0510   20.2190 C   0  0  0  0  0  0  0  0  0  0  0  0
    5.2760   -4.5590   19.8890 O   0  0  0  0  0  0  0  0  0  0  0  0
    6.8550   -4.2500   21.5460 N   0  0  0  0  0  0  0  0  0  0  0  0
    7.6180   -3.2060   22.1750 C   0  0  0  0  0  0  0  0  0  0  0  0
    6.8750   -2.7200   23.3800 C   0  0  0  0  0  0  0  0  0  0  0  0
    6.6180   -3.9240   24.2670 C   0  0  0  0  0  0  0  0  0  0  0  0
    5.7390   -3.5360   25.3960 C   0  0  0  0  0  0  0  0  0  0  0  0
    4.5510   -3.2000   25.2220 O   0  0  0  0  0  0  0  0  0  0  0  0
    6.2610   -3.5400   26.7070 N   0  0  0  0  0  0  0  0  0  0  0  0
    6.8930   -4.7250   27.2570 C   0  0  0  0  0  0  0  0  0  0  0  0
    5.8560   -5.7780   27.4770 C   0  0  0  0  0  0  0  0  0  0  0  0
    6.2910   -2.3300   27.4700 C   0  0  1  0  0  0  0  0  0  0  0  0
    6.8270   -1.1290   27.0260 C   0  0  0  0  0  0  0  0  0  0  0  0
    4.9780   -1.9710   28.2060 C   0  0  0  0  0  0  0  0  0  0  0  0
    3.8810   -1.3000   27.5460 C   0  0  0  0  0  0  0  0  0  0  0  0
    2.7250   -0.9770   28.1820 C   0  0  0  0  0  0  0  0  0  0  0  0
    2.5130   -1.2660   29.5070 C   0  0  0  0  0  0  0  0  0  0  0  0
    3.5290   -1.9230   30.2340 C   0  0  0  0  0  0  0  0  0  0  0  0
    4.7920   -2.2780   29.5440 C   0  0  0  0  0  0  0  0  0  0  0  0
    3.3090   -2.2100   31.5580 O   0  0  0  0  0  0  0  0  0  0  0  0
    2.3690   -1.5690   32.3090 C   0  0  0  0  0  0  0  0  0  0  0  0
    1.0330   -1.9050   32.1610 C   0  0  0  0  0  0  0  0  0  0  0  0
    0.5400   -1.8500   30.7580 C   0  0  0  0  0  0  0  0  0  0  0  0
    1.4770   -0.9980   30.1650 O   0  0  0  0  0  0  0  0  0  0  0  0
    5.8940   -5.0450   23.5800 C   0  0  0  0  0  0  0  0  0  0  0  0
    6.5500   -5.4400   22.2720 C   0  0  0  0  0  0  0  0  0  0  0  0
  1  2  1  0
  2  3  2  0
  2  4  1  0
  4  5  1  0
  5  6  1  0
  6  7  1  0
  7  8  1  0
  8  9  2  0
  8 10  1  0
 10 11  1  0
 11 12  1  0
 10 13  1  0
 13 14  1  6
 13 15  1  0
 15 16  2  0
 16 17  1  0
 17 18  2  0
 18 19  1  0
 15 20  1  0
 19 20  2  0
 19 21  1  0
 21 22  1  0
 22 23  1  0
 23 24  1  0
 18 25  1  0
 24 25  1  0
  7 26  1  0
  4 27  1  0
 26 27  1  0
M  END
