piperidine-amides-28036-covalent
     RDKit          3D

 26 28  0  0  0  0  0  0  0  0999 V2000
    7.0740   -3.4090   19.3360 C   0  0  0  0  0  0  0  0  0  0  0  0
    6.4200   -4.2480   20.3560 C   0  0  0  0  0  0  0  0  0  0  0  0
    5.3910   -4.8530   19.9930 O   0  0  0  0  0  0  0  0  0  0  0  0
    6.9910   -4.3830   21.6380 N   0  0  0  0  0  0  0  0  0  0  0  0
    6.6810   -5.5290   22.4400 C   0  0  0  0  0  0  0  0  0  0  0  0
    6.0480   -5.1440   23.6950 C   0  0  0  0  0  0  0  0  0  0  0  0
    5.9860   -3.6800   23.7810 C   0  0  0  0  0  0  0  0  0  0  0  0
    5.2710   -3.1400   24.9540 C   0  0  0  0  0  0  0  0  0  0  0  0
    4.5390   -2.1640   24.7650 O   0  0  0  0  0  0  0  0  0  0  0  0
    5.3680   -3.6540   26.2400 N   0  0  0  0  0  0  0  0  0  0  0  0
    6.4590   -3.1680   27.0370 C   0  0  0  0  0  0  0  0  0  0  0  0
    6.6270   -4.0910   28.1810 C   0  0  0  0  0  0  0  0  0  0  0  0
    5.5070   -4.0390   28.9980 C   0  0  1  0  0  0  0  0  0  0  0  0
    5.1940   -2.7520   29.3970 C   0  0  0  0  0  0  0  0  0  0  0  0
    6.1930   -1.8220   29.6310 C   0  0  0  0  0  0  0  0  0  0  0  0
    4.3080   -4.4080   28.2840 C   0  0  0  0  0  0  0  0  0  0  0  0
    3.2270   -4.9460   28.9340 C   0  0  0  0  0  0  0  0  0  0  0  0
    2.0720   -5.3030   28.3040 C   0  0  0  0  0  0  0  0  0  0  0  0
    1.9870   -5.1120   26.9290 C   0  0  0  0  0  0  0  0  0  0  0  0
    0.8500   -5.4410   26.1740 N   0  0  0  0  0  0  0  0  0  0  0  0
    0.0030   -4.6360   25.6100 O   0  0  0  0  0  0  0  0  0  0  0  0
    0.3920   -6.7640   26.3000 O   0  0  0  0  0  0  0  0  0  0  0  0
    3.0700   -4.5440   26.0920 C   0  0  0  0  0  0  0  0  0  0  0  0
    4.2820   -4.1990   26.9310 C   0  0  0  0  0  0  0  0  0  0  0  0
    7.3820   -3.0970   23.5740 C   0  0  0  0  0  0  0  0  0  0  0  0
    7.7730   -3.2970   22.2320 C   0  0  0  0  0  0  0  0  0  0  0  0
  1  2  1  0
  2  3  2  0
  2  4  1  0
  4  5  1  0
  5  6  1  0
  6  7  1  0
  7  8  1  0
  8  9  2  0
  8 10  1  0
 10 11  1  0
 11 12  1  0
 12 13  1  0
 13 14  1  6
 14 15  1  0
 13 16  1  0
 16 17  2  0
 17 18  1  0
 18 19  2  0
 19 20  1  0
 20 21  2  0
 20 22  1  0
 19 23  1  0
 10 24  1  0
 16 24  1  0
 23 24  2  0
  7 25  1  0
  4 26  1  0
 25 26  1  0
M  CHG  2  20   1  22  -1
M  END
