piperidine-amides-24286-covalent
     RDKit          3D

 24 25  0  0  0  0  0  0  0  0999 V2000
    7.1390   -3.3420   19.3300 C   0  0  0  0  0  0  0  0  0  0  0  0
    6.4150   -4.1660   20.2980 C   0  0  0  0  0  0  0  0  0  0  0  0
    5.3650   -4.7670   19.9660 O   0  0  0  0  0  0  0  0  0  0  0  0
    6.9440   -4.3270   21.5830 N   0  0  0  0  0  0  0  0  0  0  0  0
    7.7600   -3.2770   22.1500 C   0  0  0  0  0  0  0  0  0  0  0  0
    6.8930   -2.6460   23.2200 C   0  0  0  0  0  0  0  0  0  0  0  0
    6.4840   -3.7970   24.1010 C   0  0  0  0  0  0  0  0  0  0  0  0
    5.7140   -3.2790   25.2320 C   0  0  0  0  0  0  0  0  0  0  0  0
    4.5550   -2.8570   25.0400 O   0  0  0  0  0  0  0  0  0  0  0  0
    6.3110   -3.2830   26.5000 N   0  0  0  0  0  0  0  0  0  0  0  0
    6.4050   -2.0140   27.2230 C   0  0  0  0  0  0  0  0  0  0  0  0
    5.8550   -0.7410   26.5970 C   0  0  0  0  0  0  0  0  0  0  0  0
    5.9530    0.4300   27.3060 C   0  0  0  0  0  0  0  0  0  0  0  0
    6.5310    0.4630   28.5520 C   0  0  0  0  0  0  0  0  0  0  0  0
    6.5250    1.7380   29.0980 F   0  0  0  0  0  0  0  0  0  0  0  0
    7.0600   -0.6670   29.1810 C   0  0  0  0  0  0  0  0  0  0  0  0
    7.0240   -1.9040   28.5740 C   0  0  0  0  0  0  0  0  0  0  0  0
    6.6370   -4.6510   27.0050 C   0  0  2  0  0  0  0  0  0  0  0  0
    5.8320   -5.6030   26.1940 C   0  0  0  0  0  0  0  0  0  0  0  0
    6.3990   -4.8810   28.4010 C   0  0  0  0  0  0  0  0  0  0  0  0
    6.3320   -5.4580   29.5680 N   0  0  0  0  0  0  0  0  0  0  0  0
    5.7500   -3.8230   28.8030 O   0  0  0  0  0  0  0  0  0  0  0  0
    5.6480   -4.7920   23.3200 C   0  0  0  0  0  0  0  0  0  0  0  0
    6.5350   -5.4170   22.4340 C   0  0  0  0  0  0  0  0  0  0  0  0
  1  2  1  0
  2  3  2  0
  2  4  1  0
  4  5  1  0
  5  6  1  0
  6  7  1  0
  7  8  1  0
  8  9  2  0
  8 10  1  0
 10 11  1  0
 11 12  2  0
 12 13  1  0
 13 14  2  0
 14 15  1  0
 14 16  1  0
 11 17  1  0
 16 17  2  0
 10 18  1  0
 18 19  1  6
 18 20  1  0
 20 21  1  0
 20 22  2  0
  7 23  1  0
  4 24  1  0
 23 24  1  0
M  END
