piperidine-amides-195-covalent
     RDKit          3D

 25 26  0  0  0  0  0  0  0  0999 V2000
    7.1480   -3.1980   19.2770 C   0  0  0  0  0  0  0  0  0  0  0  0
    6.3240   -3.8980   20.2380 C   0  0  0  0  0  0  0  0  0  0  0  0
    5.2540   -4.4490   19.8360 O   0  0  0  0  0  0  0  0  0  0  0  0
    6.6570   -4.0300   21.5960 N   0  0  0  0  0  0  0  0  0  0  0  0
    5.9790   -5.1150   22.3150 C   0  0  0  0  0  0  0  0  0  0  0  0
    4.8420   -4.3100   23.0780 C   0  0  0  0  0  0  0  0  0  0  0  0
    5.4960   -3.1340   23.7790 C   0  0  0  0  0  0  0  0  0  0  0  0
    4.8400   -2.7370   25.2130 C   0  0  0  0  0  0  0  0  0  0  0  0
    4.1270   -1.7650   25.0660 O   0  0  0  0  0  0  0  0  0  0  0  0
    5.2060   -3.5280   26.1550 N   0  0  0  0  0  0  0  0  0  0  0  0
    5.7010   -4.4240   27.0550 C   0  0  2  0  0  0  0  0  0  0  0  0
    5.3370   -5.5040   27.8080 C   0  0  0  0  0  0  0  0  0  0  0  0
    6.4810   -3.5810   28.0200 C   0  0  0  0  0  0  0  0  0  0  0  0
    5.4800   -2.8560   28.8380 C   0  0  0  0  0  0  0  0  0  0  0  0
    4.5480   -3.7800   29.3080 F   0  0  0  0  0  0  0  0  0  0  0  0
    4.8770   -1.9460   27.9840 F   0  0  0  0  0  0  0  0  0  0  0  0
    6.0230   -2.0240   29.8040 F   0  0  0  0  0  0  0  0  0  0  0  0
    6.5550   -5.0490   26.0790 C   0  0  0  0  0  0  0  0  0  0  0  0
    5.9180   -5.1710   24.8410 C   0  0  0  0  0  0  0  0  0  0  0  0
    6.2960   -5.6690   23.5650 C   0  0  0  0  0  0  0  0  0  0  0  0
    7.7180   -6.0530   23.9450 C   0  0  0  0  0  0  0  0  0  0  0  0
    8.4740   -5.9460   25.3170 C   0  0  0  0  0  0  0  0  0  0  0  0
    7.8050   -5.4600   26.2880 C   0  0  0  0  0  0  0  0  0  0  0  0
    7.0060   -3.0100   23.6200 C   0  0  0  0  0  0  0  0  0  0  0  0
    7.4170   -3.0270   22.3130 C   0  0  0  0  0  0  0  0  0  0  0  0
  1  2  1  0
  2  3  2  0
  2  4  1  0
  4  5  1  0
  5  6  1  0
  6  7  1  0
  7  8  1  0
  8  9  2  0
  8 10  1  0
 11 10  1  0
 11 12  1  1
 11 13  1  0
 13 14  1  0
 14 15  1  0
 14 16  1  0
 14 17  1  0
 11 18  1  0
 18 19  2  0
 19 20  1  0
 20 21  2  0
 21 22  1  0
 18 23  1  0
 22 23  2  0
  7 24  1  0
  4 25  1  0
 24 25  1  0
M  END
