piperidine-amides-33580-covalent
     RDKit          3D

 29 32  0  0  0  0  0  0  0  0999 V2000
    7.0300   -3.3420   19.3740 C   0  0  0  0  0  0  0  0  0  0  0  0
    6.3780   -4.2280   20.3550 C   0  0  0  0  0  0  0  0  0  0  0  0
    5.3260   -4.7830   19.9600 O   0  0  0  0  0  0  0  0  0  0  0  0
    6.8950   -4.5230   21.6480 N   0  0  0  0  0  0  0  0  0  0  0  0
    6.2220   -5.5400   22.3600 C   0  0  0  0  0  0  0  0  0  0  0  0
    5.4630   -5.0360   23.4970 C   0  0  0  0  0  0  0  0  0  0  0  0
    6.2550   -4.1810   24.3970 C   0  0  0  0  0  0  0  0  0  0  0  0
    5.4680   -3.6190   25.5570 C   0  0  0  0  0  0  0  0  0  0  0  0
    4.5240   -2.8570   25.2830 O   0  0  0  0  0  0  0  0  0  0  0  0
    5.7170   -3.8830   26.9480 N   0  0  0  0  0  0  0  0  0  0  0  0
    5.2130   -3.1680   28.0370 C   0  0  0  0  0  0  0  0  0  0  0  0
    5.1740   -3.8720   29.3010 C   0  0  0  0  0  0  0  0  0  0  0  0
    5.2940   -5.2050   29.3940 N   0  0  0  0  0  0  0  0  0  0  0  0
    4.5670   -6.1100   30.3360 C   0  0  0  0  0  0  0  0  0  0  0  0
    5.3130   -7.2640   30.5620 C   0  0  0  0  0  0  0  0  0  0  0  0
    5.3550   -7.8840   29.2650 C   0  0  0  0  0  0  0  0  0  0  0  0
    6.2400   -9.0490   29.6440 C   0  0  0  0  0  0  0  0  0  0  0  0
    6.7430   -9.2000   31.0330 C   0  0  0  0  0  0  0  0  0  0  0  0
    7.7220  -10.4680   31.1740 C   0  0  0  0  0  0  0  0  0  0  0  0
    8.5320  -10.7430   29.9270 C   0  0  0  0  0  0  0  0  0  0  0  0
    9.5810  -11.8510   29.8540 C   0  0  0  0  0  0  0  0  0  0  0  0
    9.7020  -12.6150   31.1170 C   0  0  0  0  0  0  0  0  0  0  0  0
    8.9170  -12.3410   32.2320 C   0  0  0  0  0  0  0  0  0  0  0  0
    7.9770  -11.3340   32.2800 C   0  0  0  0  0  0  0  0  0  0  0  0
    6.0800   -7.9120   32.0150 S   0  0  0  0  0  0  0  0  0  0  0  0
    6.0940   -5.8180   28.3590 C   0  0  0  0  0  0  0  0  0  0  0  0
    6.6270   -4.9160   27.4210 C   0  0  0  0  0  0  0  0  0  0  0  0
    6.8720   -3.0450   23.5820 C   0  0  0  0  0  0  0  0  0  0  0  0
    7.6790   -3.5480   22.3870 C   0  0  0  0  0  0  0  0  0  0  0  0
  1  2  1  0
  2  3  2  0
  2  4  1  0
  4  5  1  0
  5  6  1  0
  6  7  1  0
  7  8  1  0
  8  9  2  0
  8 10  1  0
 10 11  1  0
 11 12  1  0
 12 13  1  0
 13 14  1  0
 14 15  1  0
 15 16  2  0
 16 17  1  0
 17 18  2  0
 18 19  1  0
 19 20  2  0
 20 21  1  0
 21 22  2  0
 22 23  1  0
 19 24  1  0
 23 24  2  0
 15 25  1  0
 18 25  1  0
 13 26  1  0
 10 27  1  0
 26 27  1  0
  7 28  1  0
  4 29  1  0
 28 29  1  0
M  END
