piperidine-amides-24996-covalent
     RDKit          3D

 24 25  0  0  0  0  0  0  0  0999 V2000
    6.9570   -3.3810   19.4190 C   0  0  0  0  0  0  0  0  0  0  0  0
    6.3230   -4.2860   20.3980 C   0  0  0  0  0  0  0  0  0  0  0  0
    5.3980   -5.0350   20.0130 O   0  0  0  0  0  0  0  0  0  0  0  0
    6.7500   -4.3380   21.7440 N   0  0  0  0  0  0  0  0  0  0  0  0
    6.6410   -5.6000   22.4710 C   0  0  0  0  0  0  0  0  0  0  0  0
    6.1000   -5.3080   23.8900 C   0  0  0  0  0  0  0  0  0  0  0  0
    6.0640   -3.8080   24.0010 C   0  0  0  0  0  0  0  0  0  0  0  0
    5.4860   -3.2130   25.2530 C   0  0  0  0  0  0  0  0  0  0  0  0
    5.0750   -2.0500   25.1130 O   0  0  0  0  0  0  0  0  0  0  0  0
    5.3090   -3.8280   26.5440 N   0  0  0  0  0  0  0  0  0  0  0  0
    6.3440   -3.7130   27.4780 C   0  0  0  0  0  0  0  0  0  0  0  0
    6.5880   -5.0850   28.0860 C   0  0  0  0  0  0  0  0  0  0  0  0
    5.3460   -5.3510   28.7230 N   0  0  0  0  0  0  0  0  0  0  0  0
    4.8340   -6.6750   29.0390 C   0  0  1  0  0  0  0  0  0  0  0  0
    5.8120   -7.1910   29.8420 C   0  0  0  0  0  0  0  0  0  0  0  0
    5.5010   -7.4050   31.1810 C   0  0  0  0  0  0  0  0  0  0  0  0
    3.5220   -6.6120   29.5060 C   0  0  0  0  0  0  0  0  0  0  0  0
    2.7130   -7.0440   28.5160 O   0  0  0  0  0  0  0  0  0  0  0  0
    3.1960   -6.1670   30.7670 O   0  0  0  0  0  0  0  0  0  0  0  0
    1.9440   -6.4960   31.3660 C   0  0  0  0  0  0  0  0  0  0  0  0
    4.5970   -4.1880   28.9570 C   0  0  0  0  0  0  0  0  0  0  0  0
    4.4500   -3.4250   27.6570 C   0  0  0  0  0  0  0  0  0  0  0  0
    7.4270   -3.2510   23.6850 C   0  0  0  0  0  0  0  0  0  0  0  0
    7.5780   -3.2710   22.2910 C   0  0  0  0  0  0  0  0  0  0  0  0
  1  2  1  0
  2  3  2  0
  2  4  1  0
  4  5  1  0
  5  6  1  0
  6  7  1  0
  7  8  1  0
  8  9  2  0
  8 10  1  0
 10 11  1  0
 11 12  1  0
 12 13  1  0
 13 14  1  0
 14 15  1  1
 15 16  1  0
 14 17  1  0
 17 18  2  0
 17 19  1  0
 19 20  1  0
 13 21  1  0
 10 22  1  0
 21 22  1  0
  7 23  1  0
  4 24  1  0
 23 24  1  0
M  END
