piperidine-amides-27407-covalent
     RDKit          3D

 25 26  0  0  0  0  0  0  0  0999 V2000
    6.9800   -3.3710   19.4550 C   0  0  0  0  0  0  0  0  0  0  0  0
    6.3670   -4.2580   20.4530 C   0  0  0  0  0  0  0  0  0  0  0  0
    5.4310   -4.9800   20.0140 O   0  0  0  0  0  0  0  0  0  0  0  0
    6.8130   -4.3110   21.7940 N   0  0  0  0  0  0  0  0  0  0  0  0
    6.6900   -5.5230   22.5790 C   0  0  0  0  0  0  0  0  0  0  0  0
    6.0730   -5.1740   23.9110 C   0  0  0  0  0  0  0  0  0  0  0  0
    5.9310   -3.6810   24.0490 C   0  0  0  0  0  0  0  0  0  0  0  0
    5.0680   -3.2540   25.2260 C   0  0  0  0  0  0  0  0  0  0  0  0
    3.8800   -3.0600   24.9310 O   0  0  0  0  0  0  0  0  0  0  0  0
    5.3710   -3.0420   26.6140 N   0  0  0  0  0  0  0  0  0  0  0  0
    4.3400   -2.8870   27.6070 C   0  0  0  0  0  0  0  0  0  0  0  0
    4.5950   -3.7130   28.8790 C   0  0  0  0  0  0  0  0  0  0  0  0
    5.2950   -4.9410   28.5090 N   0  0  0  0  0  0  0  0  0  0  0  0
    4.6390   -5.9150   27.8880 C   0  0  0  0  0  0  0  0  0  0  0  0
    3.7760   -6.7180   28.5990 C   0  0  0  0  0  0  0  0  0  0  0  0
    2.5990   -6.1390   28.6250 O   0  0  0  0  0  0  0  0  0  0  0  0
    4.1310   -7.8860   29.1500 N   0  0  0  0  0  0  0  0  0  0  0  0
    5.0930   -7.6710   30.1700 C   0  0  0  0  0  0  0  0  0  0  0  0
    6.3490   -8.2480   29.9830 C   0  0  0  0  0  0  0  0  0  0  0  0
    6.5740   -9.3950   29.3980 O   0  0  0  0  0  0  0  0  0  0  0  0
    7.7020  -10.3270   29.6140 C   0  0  0  0  0  0  0  0  0  0  0  0
    6.4800   -4.7370   27.9900 C   0  0  0  0  0  0  0  0  0  0  0  0
    6.5440   -3.4160   27.1930 C   0  0  0  0  0  0  0  0  0  0  0  0
    7.2870   -2.9930   23.8340 C   0  0  0  0  0  0  0  0  0  0  0  0
    7.6330   -3.2190   22.3500 C   0  0  0  0  0  0  0  0  0  0  0  0
  1  2  1  0
  2  3  2  0
  2  4  1  0
  4  5  1  0
  5  6  1  0
  6  7  1  0
  7  8  1  0
  8  9  2  0
  8 10  1  0
 10 11  1  0
 11 12  1  0
 12 13  1  0
 13 14  1  0
 14 15  1  0
 15 16  2  0
 15 17  1  0
 17 18  1  0
 18 19  1  0
 19 20  1  0
 20 21  1  0
 13 22  1  0
 10 23  1  0
 22 23  1  0
  7 24  1  0
  4 25  1  0
 24 25  1  0
M  END
