piperidine-amides-162-covalent
     RDKit          3D

 23 25  0  0  0  0  0  0  0  0999 V2000
    7.1710   -3.3650   19.4310 C   0  0  0  0  0  0  0  0  0  0  0  0
    6.4260   -4.1680   20.3700 C   0  0  0  0  0  0  0  0  0  0  0  0
    5.3760   -4.7620   19.9660 O   0  0  0  0  0  0  0  0  0  0  0  0
    6.8690   -4.3340   21.6930 N   0  0  0  0  0  0  0  0  0  0  0  0
    7.7820   -3.2910   22.2090 C   0  0  0  0  0  0  0  0  0  0  0  0
    6.8000   -2.6140   23.2240 C   0  0  0  0  0  0  0  0  0  0  0  0
    6.7000   -3.6160   24.3420 C   0  0  0  0  0  0  0  0  0  0  0  0
    5.5800   -3.2430   25.4130 C   0  0  0  0  0  0  0  0  0  0  0  0
    4.5890   -3.9330   25.2230 O   0  0  0  0  0  0  0  0  0  0  0  0
    5.9710   -2.2980   26.2270 N   0  0  0  0  0  0  0  0  0  0  0  0
    6.2400   -1.2550   27.1210 C   0  0  0  0  0  0  0  0  0  0  0  0
    6.9940   -1.2400   27.9770 C   0  0  0  0  0  0  0  0  0  0  0  0
    6.3600   -2.1130   26.7700 N   0  0  0  0  0  0  0  0  0  0  0  0
    5.2720   -1.4290   25.9390 O   0  0  0  0  0  0  0  0  0  0  0  0
    5.3660   -0.3610   26.6660 C   0  0  0  0  0  0  0  0  0  0  0  0
    4.7790    1.0100   26.8360 C   0  0  0  0  0  0  0  0  0  0  0  0
    6.1700    1.6940   26.7170 C   0  0  0  0  0  0  0  0  0  0  0  0
    6.3700    1.4430   25.3470 C   0  0  0  0  0  0  0  0  0  0  0  0
    5.3350    1.8830   24.5280 O   0  0  0  0  0  0  0  0  0  0  0  0
    4.1480    1.2360   24.4980 C   0  0  0  0  0  0  0  0  0  0  0  0
    3.6820    1.4030   25.9360 C   0  0  0  0  0  0  0  0  0  0  0  0
    6.7550   -5.0420   23.8460 C   0  0  0  0  0  0  0  0  0  0  0  0
    6.1230   -5.1210   22.6260 C   0  0  0  0  0  0  0  0  0  0  0  0
  1  2  1  0
  2  3  2  0
  2  4  1  0
  4  5  1  0
  5  6  1  0
  6  7  1  0
  7  8  1  0
  8  9  2  0
  8 10  1  0
 10 11  1  0
 11 12  1  0
 12 13  2  0
 13 14  1  0
 11 15  2  0
 14 15  1  0
 15 16  1  0
 16 17  1  0
 17 18  1  0
 18 19  1  0
 19 20  1  0
 16 21  1  0
 20 21  1  0
  7 22  1  0
  4 23  1  0
 22 23  1  0
M  END
