piperidine-amides-23969-covalent
     RDKit          3D

 24 26  0  0  0  0  0  0  0  0999 V2000
    7.0460   -3.3910   19.3820 C   0  0  0  0  0  0  0  0  0  0  0  0
    6.4180   -4.2670   20.3840 C   0  0  0  0  0  0  0  0  0  0  0  0
    5.4010   -4.8980   20.0030 O   0  0  0  0  0  0  0  0  0  0  0  0
    6.9780   -4.4270   21.6880 N   0  0  0  0  0  0  0  0  0  0  0  0
    6.5670   -5.5270   22.5040 C   0  0  0  0  0  0  0  0  0  0  0  0
    6.0860   -5.1100   23.8220 C   0  0  0  0  0  0  0  0  0  0  0  0
    6.1330   -3.6470   23.9800 C   0  0  0  0  0  0  0  0  0  0  0  0
    5.5120   -3.0580   25.2300 C   0  0  0  0  0  0  0  0  0  0  0  0
    4.8800   -2.0040   25.1030 O   0  0  0  0  0  0  0  0  0  0  0  0
    5.5460   -3.6000   26.5260 N   0  0  0  0  0  0  0  0  0  0  0  0
    4.4410   -4.1180   27.1890 C   0  0  0  0  0  0  0  0  0  0  0  0
    4.6560   -5.0740   28.2570 C   0  0  0  0  0  0  0  0  0  0  0  0
    5.5380   -4.4830   29.3720 C   0  0  0  0  0  0  0  0  0  0  0  0
    5.5920   -5.6410   30.2500 N   0  0  0  0  0  0  0  0  0  0  0  0
    6.1300   -6.6790   29.4670 C   0  0  0  0  0  0  0  0  0  0  0  0
    7.2870   -6.7740   28.7480 O   0  0  0  0  0  0  0  0  0  0  0  0
    5.2020   -7.8630   29.4320 C   0  0  0  0  0  0  0  0  0  0  0  0
    4.0480   -7.4650   30.2780 C   0  0  0  0  0  0  0  0  0  0  0  0
    4.4050   -6.0420   30.7480 C   0  0  0  0  0  0  0  0  0  0  0  0
    3.6800   -5.3550   31.4960 O   0  0  0  0  0  0  0  0  0  0  0  0
    6.6700   -4.2530   28.4420 C   0  0  0  0  0  0  0  0  0  0  0  0
    6.3560   -3.0830   27.5220 C   0  0  0  0  0  0  0  0  0  0  0  0
    7.5450   -3.1350   23.7050 C   0  0  0  0  0  0  0  0  0  0  0  0
    7.7160   -3.2590   22.2300 C   0  0  0  0  0  0  0  0  0  0  0  0
  1  2  1  0
  2  3  2  0
  2  4  1  0
  4  5  1  0
  5  6  1  0
  6  7  1  0
  7  8  1  0
  8  9  2  0
  8 10  1  0
 10 11  1  0
 11 12  1  0
 12 13  1  0
 13 14  1  0
 14 15  1  0
 15 16  2  0
 15 17  1  0
 17 18  2  0
 14 19  1  0
 18 19  1  0
 19 20  2  0
 13 21  1  0
 10 22  1  0
 21 22  1  0
  7 23  1  0
  4 24  1  0
 23 24  1  0
M  END
