piperidine-amides-19686-covalent
     RDKit          3D

 22 24  0  0  0  0  0  0  0  0999 V2000
    7.0590   -3.3440   19.3200 C   0  0  0  0  0  0  0  0  0  0  0  0
    6.3930   -4.2060   20.3300 C   0  0  0  0  0  0  0  0  0  0  0  0
    5.3710   -4.7880   19.9690 O   0  0  0  0  0  0  0  0  0  0  0  0
    6.9480   -4.3760   21.6080 N   0  0  0  0  0  0  0  0  0  0  0  0
    6.6890   -5.5600   22.3830 C   0  0  0  0  0  0  0  0  0  0  0  0
    5.9230   -5.1900   23.6260 C   0  0  0  0  0  0  0  0  0  0  0  0
    6.5450   -3.9640   24.3060 C   0  0  0  0  0  0  0  0  0  0  0  0
    5.5800   -3.5420   25.3440 C   0  0  0  0  0  0  0  0  0  0  0  0
    4.6960   -2.7320   25.0380 O   0  0  0  0  0  0  0  0  0  0  0  0
    5.6250   -4.0380   26.6620 N   0  0  0  0  0  0  0  0  0  0  0  0
    6.8590   -4.5290   27.1150 C   0  0  0  0  0  0  0  0  0  0  0  0
    6.6050   -5.6840   28.0010 C   0  0  0  0  0  0  0  0  0  0  0  0
    5.3510   -5.5120   28.5320 O   0  0  0  0  0  0  0  0  0  0  0  0
    4.6780   -4.3560   28.6510 C   0  0  0  0  0  0  0  0  0  0  0  0
    4.9000   -3.4020   27.6960 C   0  0  1  0  0  0  0  0  0  0  0  0
    5.4310   -2.2440   28.1920 C   0  0  0  0  0  0  0  0  0  0  0  0
    6.7540   -1.8660   28.8560 C   0  0  0  0  0  0  0  0  0  0  0  0
    6.5740   -0.4010   29.1190 C   0  0  0  0  0  0  0  0  0  0  0  0
    5.2200   -0.0160   28.6200 C   0  0  0  0  0  0  0  0  0  0  0  0
    4.6210   -1.1410   28.0990 O   0  0  0  0  0  0  0  0  0  0  0  0
    6.8710   -2.8490   23.3920 C   0  0  0  0  0  0  0  0  0  0  0  0
    7.6770   -3.3040   22.2320 C   0  0  0  0  0  0  0  0  0  0  0  0
  1  2  1  0
  2  3  2  0
  2  4  1  0
  4  5  1  0
  5  6  1  0
  6  7  1  0
  7  8  1  0
  8  9  2  0
  8 10  1  0
 10 11  1  0
 11 12  1  0
 12 13  1  0
 13 14  1  0
 10 15  1  0
 14 15  1  0
 15 16  1  1
 16 17  2  0
 17 18  1  0
 18 19  2  0
 16 20  1  0
 19 20  1  0
  7 21  1  0
  4 22  1  0
 21 22  1  0
M  END
