piperidine-amides-11510-covalent
     RDKit          3D

 22 24  0  0  0  0  0  0  0  0999 V2000
    7.0770   -3.3340   19.2760 C   0  0  0  0  0  0  0  0  0  0  0  0
    6.3900   -4.1360   20.2900 C   0  0  0  0  0  0  0  0  0  0  0  0
    5.3850   -4.7940   19.9710 O   0  0  0  0  0  0  0  0  0  0  0  0
    6.8920   -4.1950   21.5970 N   0  0  0  0  0  0  0  0  0  0  0  0
    7.7920   -3.1950   22.1130 C   0  0  0  0  0  0  0  0  0  0  0  0
    7.2300   -2.7980   23.4320 C   0  0  0  0  0  0  0  0  0  0  0  0
    6.7140   -3.9720   24.2120 C   0  0  0  0  0  0  0  0  0  0  0  0
    6.0480   -3.4760   25.4280 C   0  0  0  0  0  0  0  0  0  0  0  0
    4.7870   -3.5600   25.5700 O   0  0  0  0  0  0  0  0  0  0  0  0
    6.7990   -2.8770   26.4590 N   0  0  0  0  0  0  0  0  0  0  0  0
    6.1350   -1.9640   27.4290 C   0  0  2  0  0  0  0  0  0  0  0  0
    5.8750   -0.5810   26.7980 C   0  0  0  0  0  0  0  0  0  0  0  0
    6.0560    0.6430   27.7250 C   0  0  0  0  0  0  0  0  0  0  0  0
    6.5160    1.2370   29.0570 C   0  0  0  0  0  0  0  0  0  0  0  0
    6.9270   -0.2720   29.4270 C   0  0  0  0  0  0  0  0  0  0  0  0
    6.7190   -1.4250   28.4660 C   0  0  0  0  0  0  0  0  0  0  0  0
    6.1850   -0.9830   27.3680 C   0  0  0  0  0  0  0  0  0  0  0  0
    6.5300   -0.2440   28.4760 C   0  0  0  0  0  0  0  0  0  0  0  0
    6.8270   -1.6740   28.6000 C   0  0  2  0  0  0  0  0  0  0  0  0
    8.3050   -2.0650   28.7350 C   0  0  0  0  0  0  0  0  0  0  0  0
    5.8030   -4.8440   23.3210 C   0  0  0  0  0  0  0  0  0  0  0  0
    6.4800   -5.3140   22.4400 C   0  0  0  0  0  0  0  0  0  0  0  0
  1  2  1  0
  2  3  2  0
  2  4  1  0
  4  5  1  0
  5  6  1  0
  6  7  1  0
  7  8  1  0
  8  9  2  0
  8 10  1  0
 11 10  1  6
 11 12  1  0
 12 13  1  0
 13 14  1  0
 14 15  2  0
 15 16  1  0
 16 17  2  0
 13 18  2  0
 17 18  1  0
 11 19  1  0
 18 19  1  0
 19 20  1  6
  7 21  1  0
  4 22  1  0
 21 22  1  0
M  END
