piperidine-amides-2131-covalent
     RDKit          3D

 28 30  0  0  0  0  0  0  0  0999 V2000
    7.0260   -3.3130   19.3410 C   0  0  0  0  0  0  0  0  0  0  0  0
    6.3380   -4.1610   20.3510 C   0  0  0  0  0  0  0  0  0  0  0  0
    5.3710   -4.8140   19.9690 O   0  0  0  0  0  0  0  0  0  0  0  0
    6.8080   -4.2280   21.6670 N   0  0  0  0  0  0  0  0  0  0  0  0
    7.6820   -3.2200   22.2280 C   0  0  0  0  0  0  0  0  0  0  0  0
    7.3910   -3.0400   23.6910 C   0  0  0  0  0  0  0  0  0  0  0  0
    6.0440   -3.6900   24.0160 C   0  0  0  0  0  0  0  0  0  0  0  0
    5.6180   -3.2970   25.3790 C   0  0  0  0  0  0  0  0  0  0  0  0
    4.4050   -3.2720   25.6480 O   0  0  0  0  0  0  0  0  0  0  0  0
    6.5490   -2.9470   26.3730 N   0  0  0  0  0  0  0  0  0  0  0  0
    6.4500   -1.6520   27.0140 C   0  0  0  0  0  0  0  0  0  0  0  0
    6.9680   -1.5810   28.4000 C   0  0  0  0  0  0  0  0  0  0  0  0
    6.9760   -0.4860   29.1820 C   0  0  0  0  0  0  0  0  0  0  0  0
    6.4530    0.6600   28.6400 C   0  0  0  0  0  0  0  0  0  0  0  0
    5.9390    0.6960   27.3360 C   0  0  0  0  0  0  0  0  0  0  0  0
    5.3620    1.9530   26.7250 C   0  0  0  0  0  0  0  0  0  0  0  0
    6.4060    2.9930   26.9760 C   0  0  0  0  0  0  0  0  0  0  0  0
    6.0500    4.3670   26.4440 C   0  0  0  0  0  0  0  0  0  0  0  0
    4.7330    4.5490   25.7420 C   0  0  0  0  0  0  0  0  0  0  0  0
    3.7290    3.4660   25.5200 C   0  0  0  0  0  0  0  0  0  0  0  0
    2.3850    3.5860   24.8190 C   0  0  0  0  0  0  0  0  0  0  0  0
    2.3570    3.0450   23.5370 O   0  0  0  0  0  0  0  0  0  0  0  0
    1.3420    4.1590   25.4030 O   0  0  0  0  0  0  0  0  0  0  0  0
    0.0050    3.8780   25.0220 C   0  0  0  0  0  0  0  0  0  0  0  0
    4.0330    2.0740   26.0330 C   0  0  0  0  0  0  0  0  0  0  0  0
    5.9460   -0.4510   26.5540 C   0  0  0  0  0  0  0  0  0  0  0  0
    6.1110   -5.1690   23.7850 C   0  0  0  0  0  0  0  0  0  0  0  0
    6.6950   -5.4920   22.4060 C   0  0  0  0  0  0  0  0  0  0  0  0
  1  2  1  0
  2  3  2  0
  2  4  1  0
  4  5  1  0
  5  6  1  0
  6  7  1  0
  7  8  1  0
  8  9  2  0
  8 10  1  0
 10 11  1  0
 11 12  2  0
 12 13  1  0
 13 14  2  0
 14 15  1  0
 15 16  1  0
 16 17  2  0
 17 18  1  0
 18 19  2  0
 19 20  1  0
 20 21  1  0
 21 22  2  0
 21 23  1  0
 23 24  1  0
 16 25  1  0
 20 25  2  0
 11 26  1  0
 15 26  2  0
  7 27  1  0
  4 28  1  0
 27 28  1  0
M  END
