piperidine-amides-14956-covalent
     RDKit          3D

 21 22  0  0  0  0  0  0  0  0999 V2000
    7.1320   -3.2720   19.2050 C   0  0  0  0  0  0  0  0  0  0  0  0
    6.3910   -4.0310   20.2080 C   0  0  0  0  0  0  0  0  0  0  0  0
    5.3040   -4.5450   19.8860 O   0  0  0  0  0  0  0  0  0  0  0  0
    6.9480   -4.2110   21.4930 N   0  0  0  0  0  0  0  0  0  0  0  0
    6.5520   -5.3410   22.2660 C   0  0  0  0  0  0  0  0  0  0  0  0
    5.7400   -4.8490   23.4250 C   0  0  0  0  0  0  0  0  0  0  0  0
    6.6400   -4.0060   24.3180 C   0  0  0  0  0  0  0  0  0  0  0  0
    5.8370   -3.4870   25.4660 C   0  0  0  0  0  0  0  0  0  0  0  0
    4.8980   -2.7410   25.1870 O   0  0  0  0  0  0  0  0  0  0  0  0
    6.2010   -3.8920   26.7450 N   0  0  0  0  0  0  0  0  0  0  0  0
    5.5160   -4.9490   27.4230 C   0  0  2  0  0  0  0  0  0  0  0  0
    4.1140   -5.0570   27.3350 C   0  0  0  0  0  0  0  0  0  0  0  0
    3.4280   -4.5690   26.4140 O   0  0  0  0  0  0  0  0  0  0  0  0
    3.4270   -5.7390   28.3140 O   0  0  0  0  0  0  0  0  0  0  0  0
    3.1190   -7.0750   28.4520 C   0  0  0  0  0  0  0  0  0  0  0  0
    5.9360   -4.9180   28.8570 C   0  0  0  0  0  0  0  0  0  0  0  0
    6.5350   -6.2680   28.6640 C   0  0  1  0  0  0  0  0  0  0  0  0
    6.0230   -7.3520   29.6480 C   0  0  0  0  0  0  0  0  0  0  0  0
    6.1340   -6.2300   27.3510 C   0  0  0  0  0  0  0  0  0  0  0  0
    7.3150   -2.9130   23.5640 C   0  0  0  0  0  0  0  0  0  0  0  0
    7.6510   -3.1000   22.0780 C   0  0  0  0  0  0  0  0  0  0  0  0
  1  2  1  0
  2  3  2  0
  2  4  1  0
  4  5  1  0
  5  6  1  0
  6  7  1  0
  7  8  1  0
  8  9  2  0
  8 10  1  0
 11 10  1  6
 11 12  1  0
 12 13  2  0
 12 14  1  0
 14 15  1  0
 11 16  1  0
 16 17  1  0
 17 18  1  1
 11 19  1  0
 17 19  1  0
  7 20  1  0
  4 21  1  0
 20 21  1  0
M  END
