piperidine-amides-31723-covalent
     RDKit          3D

 28 31  0  0  0  0  0  0  0  0999 V2000
    7.2030   -4.1230   19.7050 C   0  0  0  0  0  0  0  0  0  0  0  0
    6.0540   -3.9600   20.4090 C   0  0  0  0  0  0  0  0  0  0  0  0
    5.0140   -4.1020   19.7030 O   0  0  0  0  0  0  0  0  0  0  0  0
    6.0910   -3.8100   21.7830 N   0  0  0  0  0  0  0  0  0  0  0  0
    5.8610   -5.0840   22.4720 C   0  0  0  0  0  0  0  0  0  0  0  0
    4.8290   -4.4720   23.4490 C   0  0  0  0  0  0  0  0  0  0  0  0
    5.6690   -3.5630   24.3060 C   0  0  0  0  0  0  0  0  0  0  0  0
    5.5970   -4.2790   25.7090 C   0  0  0  0  0  0  0  0  0  0  0  0
    5.9460   -5.4140   25.5400 O   0  0  0  0  0  0  0  0  0  0  0  0
    5.1860   -3.5520   26.6710 N   0  0  0  0  0  0  0  0  0  0  0  0
    4.3950   -2.9120   27.5330 C   0  0  0  0  0  0  0  0  0  0  0  0
    4.3430   -2.8960   28.8800 C   0  0  0  0  0  0  0  0  0  0  0  0
    5.6450   -2.3820   29.2040 N   0  0  0  0  0  0  0  0  0  0  0  0
    6.0510   -1.1520   28.8280 C   0  0  0  0  0  0  0  0  0  0  0  0
    6.4960   -0.5740   30.1200 C   0  0  0  0  0  0  0  0  0  0  0  0
    7.8210   -0.5330   30.1260 N   0  0  0  0  0  0  0  0  0  0  0  0
    8.1700    0.0080   31.3220 N   0  0  0  0  0  0  0  0  0  0  0  0
    6.8970    0.2770   32.0220 C   0  0  0  0  0  0  0  0  0  0  0  0
    5.8900   -0.1050   31.2220 N   0  0  0  0  0  0  0  0  0  0  0  0
    4.6200    0.0340   31.6190 C   0  0  0  0  0  0  0  0  0  0  0  0
    4.3040    1.3990   31.7740 C   0  0  0  0  0  0  0  0  0  0  0  0
    4.4130    0.5900   33.0750 C   0  0  0  0  0  0  0  0  0  0  0  0
    5.6540    0.9690   33.9600 C   0  0  0  0  0  0  0  0  0  0  0  0
    6.8540    0.8430   33.3130 C   0  0  0  0  0  0  0  0  0  0  0  0
    6.5590   -3.3570   28.7240 C   0  0  0  0  0  0  0  0  0  0  0  0
    6.4120   -3.6570   27.4080 C   0  0  0  0  0  0  0  0  0  0  0  0
    7.0520   -3.2070   23.7970 C   0  0  0  0  0  0  0  0  0  0  0  0
    7.0810   -2.9710   22.4100 C   0  0  0  0  0  0  0  0  0  0  0  0
  1  2  1  0
  2  3  2  0
  2  4  1  0
  4  5  1  0
  5  6  1  0
  6  7  1  0
  7  8  1  0
  8  9  2  0
  8 10  1  0
 10 11  1  0
 11 12  1  0
 12 13  1  0
 13 14  1  0
 14 15  1  0
 15 16  2  0
 16 17  1  0
 17 18  2  0
 15 19  1  0
 18 19  1  0
 19 20  1  0
 20 21  1  0
 21 22  1  0
 22 23  1  0
 18 24  1  0
 23 24  1  0
 13 25  1  0
 10 26  1  0
 25 26  1  0
  7 27  1  0
  4 28  1  0
 27 28  1  0
M  END
