piperidine-amides-19588-covalent
     RDKit          3D

 22 24  0  0  0  0  0  0  0  0999 V2000
    7.0090   -3.4000   19.3590 C   0  0  0  0  0  0  0  0  0  0  0  0
    6.3720   -4.1730   20.4040 C   0  0  0  0  0  0  0  0  0  0  0  0
    5.4270   -4.9360   20.0210 O   0  0  0  0  0  0  0  0  0  0  0  0
    6.7750   -4.1530   21.7740 N   0  0  0  0  0  0  0  0  0  0  0  0
    6.7150   -5.4850   22.4440 C   0  0  0  0  0  0  0  0  0  0  0  0
    6.1740   -5.1740   23.9040 C   0  0  0  0  0  0  0  0  0  0  0  0
    6.1480   -3.6750   24.0520 C   0  0  0  0  0  0  0  0  0  0  0  0
    4.9390   -3.2270   25.0250 C   0  0  0  0  0  0  0  0  0  0  0  0
    3.9260   -3.3470   24.3660 O   0  0  0  0  0  0  0  0  0  0  0  0
    5.1910   -2.8510   26.2360 N   0  0  0  0  0  0  0  0  0  0  0  0
    4.9470   -2.4230   27.4860 C   0  0  0  0  0  0  0  0  0  0  0  0
    5.6060   -2.7030   28.5950 C   0  0  0  0  0  0  0  0  0  0  0  0
    6.5560   -3.5760   28.1140 C   0  0  1  0  0  0  0  0  0  0  0  0
    6.1340   -4.9450   28.1830 C   0  0  0  0  0  0  0  0  0  0  0  0
    5.5170   -5.7080   27.2370 N   0  0  0  0  0  0  0  0  0  0  0  0
    5.3200   -6.9000   27.7420 N   0  0  0  0  0  0  0  0  0  0  0  0
    5.8040   -6.8780   28.9770 C   0  0  0  0  0  0  0  0  0  0  0  0
    5.7230   -7.9950   29.7230 C   0  0  0  0  0  0  0  0  0  0  0  0
    6.3040   -5.6700   29.2490 N   0  0  0  0  0  0  0  0  0  0  0  0
    6.5320   -2.8900   26.7290 C   0  0  0  0  0  0  0  0  0  0  0  0
    7.3780   -2.9900   23.8530 C   0  0  0  0  0  0  0  0  0  0  0  0
    7.6750   -3.1770   22.3160 C   0  0  0  0  0  0  0  0  0  0  0  0
  1  2  1  0
  2  3  2  0
  2  4  1  0
  4  5  1  0
  5  6  1  0
  6  7  1  0
  7  8  1  0
  8  9  2  0
  8 10  1  0
 10 11  1  0
 11 12  1  0
 12 13  1  0
 13 14  1  6
 14 15  2  0
 15 16  1  0
 16 17  1  0
 17 18  1  0
 14 19  1  0
 17 19  2  0
 10 20  1  0
 13 20  1  0
  7 21  1  0
  4 22  1  0
 21 22  1  0
M  END
