piperidine-amides-26025-covalent
     RDKit          3D

 25 27  0  0  0  0  0  0  0  0999 V2000
    7.1040   -3.2720   19.2120 C   0  0  0  0  0  0  0  0  0  0  0  0
    6.3500   -4.0230   20.2200 C   0  0  0  0  0  0  0  0  0  0  0  0
    5.2800   -4.5570   19.8890 O   0  0  0  0  0  0  0  0  0  0  0  0
    6.8330   -4.2080   21.5290 N   0  0  0  0  0  0  0  0  0  0  0  0
    6.5780   -5.4090   22.2890 C   0  0  0  0  0  0  0  0  0  0  0  0
    5.8480   -4.9520   23.5280 C   0  0  0  0  0  0  0  0  0  0  0  0
    6.5390   -3.8090   24.2250 C   0  0  0  0  0  0  0  0  0  0  0  0
    5.7810   -3.3020   25.3960 C   0  0  0  0  0  0  0  0  0  0  0  0
    4.5330   -3.1100   25.2940 O   0  0  0  0  0  0  0  0  0  0  0  0
    6.3650   -3.0050   26.6530 N   0  0  0  0  0  0  0  0  0  0  0  0
    6.6990   -1.6050   26.9790 C   0  0  0  0  0  0  0  0  0  0  0  0
    6.1690   -3.9330   27.7920 C   0  0  0  0  0  0  0  0  0  0  0  0
    5.2450   -3.4160   28.8160 C   0  0  0  0  0  0  0  0  0  0  0  0
    5.6580   -2.1550   29.5220 N   0  0  0  0  0  0  0  0  0  0  0  0
    4.6170   -1.8200   30.5160 C   0  0  0  0  0  0  0  0  0  0  0  0
    3.3940   -2.5540   30.7720 C   0  0  0  0  0  0  0  0  0  0  0  0
    2.7290   -1.8100   31.8400 C   0  0  0  0  0  0  0  0  0  0  0  0
    3.5660   -0.7900   32.0900 N   0  0  0  0  0  0  0  0  0  0  0  0
    4.6870   -0.7380   31.3500 N   0  0  0  0  0  0  0  0  0  0  0  0
    5.7430    0.1390   31.3330 C   0  0  0  0  0  0  0  0  0  0  0  0
    3.1340   -3.6540   30.0600 C   0  0  0  0  0  0  0  0  0  0  0  0
    1.9160   -4.2760   30.3510 O   0  0  0  0  0  0  0  0  0  0  0  0
    4.0620   -4.0530   29.1350 N   0  0  0  0  0  0  0  0  0  0  0  0
    6.7990   -2.6190   23.2990 C   0  0  0  0  0  0  0  0  0  0  0  0
    7.6230   -3.1590   22.1350 C   0  0  0  0  0  0  0  0  0  0  0  0
  1  2  1  0
  2  3  2  0
  2  4  1  0
  4  5  1  0
  5  6  1  0
  6  7  1  0
  7  8  1  0
  8  9  2  0
  8 10  1  0
 10 11  1  0
 10 12  1  0
 12 13  1  0
 13 14  2  0
 14 15  1  0
 15 16  2  0
 16 17  1  0
 17 18  2  0
 15 19  1  0
 18 19  1  0
 19 20  1  0
 16 21  1  0
 21 22  2  0
 13 23  1  0
 21 23  1  0
  7 24  1  0
  4 25  1  0
 24 25  1  0
M  END
