piperidine-amides-33660-covalent
     RDKit          3D

 25 26  0  0  0  0  0  0  0  0999 V2000
    7.1340   -3.2680   19.2140 C   0  0  0  0  0  0  0  0  0  0  0  0
    6.3860   -4.0360   20.2240 C   0  0  0  0  0  0  0  0  0  0  0  0
    5.2840   -4.5170   19.8690 O   0  0  0  0  0  0  0  0  0  0  0  0
    6.9100   -4.2790   21.5140 N   0  0  0  0  0  0  0  0  0  0  0  0
    7.6070   -3.2200   22.1580 C   0  0  0  0  0  0  0  0  0  0  0  0
    7.3120   -3.0320   23.5770 C   0  0  0  0  0  0  0  0  0  0  0  0
    6.4040   -4.0220   24.2120 C   0  0  0  0  0  0  0  0  0  0  0  0
    5.6570   -3.4000   25.3590 C   0  0  0  0  0  0  0  0  0  0  0  0
    4.4620   -3.0830   25.1990 O   0  0  0  0  0  0  0  0  0  0  0  0
    6.2610   -3.1470   26.6130 N   0  0  0  0  0  0  0  0  0  0  0  0
    6.7020   -1.8560   27.0140 C   0  0  0  0  0  0  0  0  0  0  0  0
    5.7770   -0.7330   27.0650 C   0  0  0  0  0  0  0  0  0  0  0  0
    6.3060    0.4110   27.2470 O   0  0  0  0  0  0  0  0  0  0  0  0
    6.1910   -4.1570   27.6740 C   0  0  0  0  0  0  0  0  0  0  0  0
    5.9930   -5.4730   27.2620 C   0  0  2  0  0  0  0  0  0  0  0  0
    5.2650   -5.5740   26.2690 O   0  0  0  0  0  0  0  0  0  0  0  0
    5.2740   -5.8880   28.5410 C   0  0  0  0  0  0  0  0  0  0  0  0
    6.2930   -6.6920   29.2520 C   0  0  0  0  0  0  0  0  0  0  0  0
    5.6050   -7.1530   30.5630 C   0  0  0  0  0  0  0  0  0  0  0  0
    4.2070   -6.9130   31.1320 C   0  0  0  0  0  0  0  0  0  0  0  0
    3.5850   -7.6000   32.7920 Br  0  0  0  0  0  0  0  0  0  0  0  0
    3.3110   -6.0570   30.2480 C   0  0  0  0  0  0  0  0  0  0  0  0
    3.8750   -5.5450   28.9310 C   0  0  0  0  0  0  0  0  0  0  0  0
    5.4970   -4.6640   23.2130 C   0  0  0  0  0  0  0  0  0  0  0  0
    6.3530   -5.3220   22.3340 C   0  0  0  0  0  0  0  0  0  0  0  0
  1  2  1  0
  2  3  2  0
  2  4  1  0
  4  5  1  0
  5  6  1  0
  6  7  1  0
  7  8  1  0
  8  9  2  0
  8 10  1  0
 10 11  1  0
 11 12  1  0
 12 13  1  0
 10 14  1  0
 14 15  1  0
 15 16  1  6
 15 17  1  0
 17 18  2  0
 18 19  1  0
 19 20  2  0
 20 21  1  0
 20 22  1  0
 17 23  1  0
 22 23  2  0
  7 24  1  0
  4 25  1  0
 24 25  1  0
M  END
