piperidine-amides-14813-covalent
     RDKit          3D

 22 23  0  0  0  0  0  0  0  0999 V2000
    7.0380   -3.3110   19.3200 C   0  0  0  0  0  0  0  0  0  0  0  0
    6.3560   -4.1280   20.3270 C   0  0  0  0  0  0  0  0  0  0  0  0
    5.3600   -4.7780   19.9610 O   0  0  0  0  0  0  0  0  0  0  0  0
    6.8320   -4.2090   21.6660 N   0  0  0  0  0  0  0  0  0  0  0  0
    7.7050   -3.1800   22.1870 C   0  0  0  0  0  0  0  0  0  0  0  0
    7.3810   -2.9260   23.6260 C   0  0  0  0  0  0  0  0  0  0  0  0
    6.0570   -3.6120   23.8340 C   0  0  0  0  0  0  0  0  0  0  0  0
    5.4860   -3.3400   25.1940 C   0  0  0  0  0  0  0  0  0  0  0  0
    4.2820   -3.1000   25.2160 O   0  0  0  0  0  0  0  0  0  0  0  0
    6.3070   -3.3650   26.3150 N   0  0  0  0  0  0  0  0  0  0  0  0
    6.1120   -4.2920   27.3930 C   0  0  0  0  0  0  0  0  0  0  0  0
    4.9390   -4.1610   28.0920 C   0  0  0  0  0  0  0  0  0  0  0  0
    4.8490   -3.0960   28.9560 C   0  0  0  0  0  0  0  0  0  0  0  0
    6.0830   -2.3830   29.2080 N   0  0  0  0  0  0  0  0  0  0  0  0
    6.1940   -1.2580   30.0780 C   0  0  0  0  0  0  0  0  0  0  0  0
    7.5390   -0.6260   30.2430 C   0  0  0  0  0  0  0  0  0  0  0  0
    5.0360   -0.8590   30.6890 C   0  0  0  0  0  0  0  0  0  0  0  0
    3.7300   -1.4960   30.5130 C   0  0  0  0  0  0  0  0  0  0  0  0
    2.4650   -1.0500   31.1890 C   0  0  0  0  0  0  0  0  0  0  0  0
    3.7670   -2.6240   29.6050 N   0  0  0  0  0  0  0  0  0  0  0  0
    6.0550   -5.0650   23.6120 C   0  0  0  0  0  0  0  0  0  0  0  0
    6.6890   -5.4280   22.4410 C   0  0  0  0  0  0  0  0  0  0  0  0
  1  2  1  0
  2  3  2  0
  2  4  1  0
  4  5  1  0
  5  6  1  0
  6  7  1  0
  7  8  1  0
  8  9  2  0
  8 10  1  0
 10 11  1  0
 11 12  1  0
 12 13  1  0
 13 14  2  0
 14 15  1  0
 15 16  1  0
 15 17  2  0
 17 18  1  0
 18 19  1  0
 13 20  1  0
 18 20  2  0
  7 21  1  0
  4 22  1  0
 21 22  1  0
M  END
