piperidine-amides-12191-covalent
     RDKit          3D

 24 25  0  0  0  0  0  0  0  0999 V2000
    7.1430   -3.2530   19.1960 C   0  0  0  0  0  0  0  0  0  0  0  0
    6.3730   -4.0050   20.1840 C   0  0  0  0  0  0  0  0  0  0  0  0
    5.2960   -4.5170   19.8750 O   0  0  0  0  0  0  0  0  0  0  0  0
    6.8980   -4.2070   21.5000 N   0  0  0  0  0  0  0  0  0  0  0  0
    6.5220   -5.3760   22.2380 C   0  0  0  0  0  0  0  0  0  0  0  0
    5.8130   -4.9590   23.4900 C   0  0  0  0  0  0  0  0  0  0  0  0
    6.6090   -3.8230   24.1220 C   0  0  0  0  0  0  0  0  0  0  0  0
    5.9020   -3.3130   25.3230 C   0  0  0  0  0  0  0  0  0  0  0  0
    4.8320   -2.6730   25.2530 O   0  0  0  0  0  0  0  0  0  0  0  0
    6.4750   -3.5760   26.5880 N   0  0  0  0  0  0  0  0  0  0  0  0
    6.7030   -4.9540   26.9520 C   0  0  2  0  0  0  0  0  0  0  0  0
    7.7210   -5.5140   25.9940 C   0  0  0  0  0  0  0  0  0  0  0  0
    5.4710   -5.7200   26.7010 C   0  0  0  0  0  0  0  0  0  0  0  0
    4.3680   -5.2750   27.0950 O   0  0  0  0  0  0  0  0  0  0  0  0
    7.0820   -5.1350   28.3580 C   0  0  0  0  0  0  0  0  0  0  0  0
    6.0790   -5.4520   29.2480 C   0  0  0  0  0  0  0  0  0  0  0  0
    5.9590   -6.7230   29.9290 C   0  0  0  0  0  0  0  0  0  0  0  0
    4.9510   -6.9980   30.8080 C   0  0  0  0  0  0  0  0  0  0  0  0
    3.9650   -6.0860   31.1090 C   0  0  0  0  0  0  0  0  0  0  0  0
    4.0060   -4.8350   30.4880 C   0  0  0  0  0  0  0  0  0  0  0  0
    5.0930   -4.5150   29.5380 C   0  0  0  0  0  0  0  0  0  0  0  0
    5.0310   -3.2620   29.0020 F   0  0  0  0  0  0  0  0  0  0  0  0
    6.8900   -2.6920   23.1570 C   0  0  0  0  0  0  0  0  0  0  0  0
    7.6930   -3.1950   22.1460 C   0  0  0  0  0  0  0  0  0  0  0  0
  1  2  1  0
  2  3  2  0
  2  4  1  0
  4  5  1  0
  5  6  1  0
  6  7  1  0
  7  8  1  0
  8  9  2  0
  8 10  1  0
 11 10  1  0
 11 12  1  6
 11 13  1  0
 13 14  1  0
 11 15  1  0
 15 16  1  0
 16 17  2  0
 17 18  1  0
 18 19  2  0
 19 20  1  0
 16 21  1  0
 20 21  2  0
 21 22  1  0
  7 23  1  0
  4 24  1  0
 23 24  1  0
M  END
