piperidine-amides-11958-covalent
     RDKit          3D

 26 27  0  0  0  0  0  0  0  0999 V2000
    7.0920   -3.3710   19.3310 C   0  0  0  0  0  0  0  0  0  0  0  0
    6.3790   -4.1660   20.3160 C   0  0  0  0  0  0  0  0  0  0  0  0
    5.3670   -4.7800   19.9790 O   0  0  0  0  0  0  0  0  0  0  0  0
    6.9020   -4.2890   21.6510 N   0  0  0  0  0  0  0  0  0  0  0  0
    7.7200   -3.2220   22.1980 C   0  0  0  0  0  0  0  0  0  0  0  0
    7.4570   -2.9900   23.6660 C   0  0  0  0  0  0  0  0  0  0  0  0
    6.1260   -3.6260   24.0190 C   0  0  0  0  0  0  0  0  0  0  0  0
    5.6810   -3.2390   25.3850 C   0  0  0  0  0  0  0  0  0  0  0  0
    4.4910   -3.3120   25.7360 O   0  0  0  0  0  0  0  0  0  0  0  0
    6.6350   -2.7650   26.3050 N   0  0  0  0  0  0  0  0  0  0  0  0
    6.4380   -1.4680   26.9170 C   0  0  0  0  0  0  0  0  0  0  0  0
    6.9940   -1.6290   28.3180 C   0  0  0  0  0  0  0  0  0  0  0  0
    7.0040   -0.6460   29.2150 C   0  0  0  0  0  0  0  0  0  0  0  0
    6.4580    0.4900   28.7460 C   0  0  0  0  0  0  0  0  0  0  0  0
    6.3900    1.6150   29.5890 O   0  0  0  0  0  0  0  0  0  0  0  0
    5.8190    1.5100   30.8840 C   0  0  0  0  0  0  0  0  0  0  0  0
    4.5080    2.1500   30.9310 C   0  0  0  0  0  0  0  0  0  0  0  0
    4.5330    2.9440   29.8180 F   0  0  0  0  0  0  0  0  0  0  0  0
    3.6490    1.1060   30.6500 F   0  0  0  0  0  0  0  0  0  0  0  0
    4.1110    2.8890   32.0220 C   0  0  0  0  0  0  0  0  0  0  0  0
    4.2510    4.2080   31.5650 F   0  0  0  0  0  0  0  0  0  0  0  0
    2.7920    2.7280   32.3470 F   0  0  0  0  0  0  0  0  0  0  0  0
    5.9780    0.5090   27.4220 N   0  0  0  0  0  0  0  0  0  0  0  0
    5.8450   -0.3680   26.2480 C   0  0  0  0  0  0  0  0  0  0  0  0
    6.0550   -5.0780   23.7420 C   0  0  0  0  0  0  0  0  0  0  0  0
    6.5630   -5.4350   22.4210 C   0  0  0  0  0  0  0  0  0  0  0  0
  1  2  1  0
  2  3  2  0
  2  4  1  0
  4  5  1  0
  5  6  1  0
  6  7  1  0
  7  8  1  0
  8  9  2  0
  8 10  1  0
 10 11  1  0
 11 12  2  0
 12 13  1  0
 13 14  2  0
 14 15  1  0
 15 16  1  0
 16 17  1  0
 17 18  1  0
 17 19  1  0
 17 20  1  0
 20 21  1  0
 20 22  1  0
 14 23  1  0
 11 24  1  0
 23 24  2  0
  7 25  1  0
  4 26  1  0
 25 26  1  0
M  END
