piperidine-amides-24790-covalent
     RDKit          3D

 24 25  0  0  0  0  0  0  0  0999 V2000
    7.0510   -3.3880   19.4360 C   0  0  0  0  0  0  0  0  0  0  0  0
    6.3680   -4.2560   20.4040 C   0  0  0  0  0  0  0  0  0  0  0  0
    5.3990   -4.9490   20.0100 O   0  0  0  0  0  0  0  0  0  0  0  0
    6.8130   -4.3530   21.7380 N   0  0  0  0  0  0  0  0  0  0  0  0
    6.5660   -5.5750   22.4940 C   0  0  0  0  0  0  0  0  0  0  0  0
    6.0870   -5.2300   23.9360 C   0  0  0  0  0  0  0  0  0  0  0  0
    5.9910   -3.7250   24.0390 C   0  0  0  0  0  0  0  0  0  0  0  0
    5.4290   -3.2080   25.3320 C   0  0  0  0  0  0  0  0  0  0  0  0
    4.8850   -2.0930   25.2730 O   0  0  0  0  0  0  0  0  0  0  0  0
    5.4530   -3.8910   26.5850 N   0  0  0  0  0  0  0  0  0  0  0  0
    6.4180   -3.5460   27.5370 C   0  0  1  0  0  0  0  0  0  0  0  0
    5.9720   -2.3670   28.3720 C   0  0  0  0  0  0  0  0  0  0  0  0
    6.6090   -4.7720   28.3910 C   0  0  0  0  0  0  0  0  0  0  0  0
    5.4940   -5.0550   29.2080 N   0  0  0  0  0  0  0  0  0  0  0  0
    5.3190   -6.3500   29.7570 C   0  0  0  0  0  0  0  0  0  0  0  0
    4.4030   -6.5620   30.7980 C   0  0  0  0  0  0  0  0  0  0  0  0
    4.1290   -7.8190   31.4560 N   0  0  0  0  0  0  0  0  0  0  0  0
    2.9050   -8.1000   31.8080 O   0  0  0  0  0  0  0  0  0  0  0  0
    5.0670   -8.0430   32.3160 O   0  0  0  0  0  0  0  0  0  0  0  0
    4.3510   -4.4070   28.6720 C   0  0  0  0  0  0  0  0  0  0  0  0
    4.1860   -4.3040   27.1670 C   0  0  1  0  0  0  0  0  0  0  0  0
    3.4690   -3.2630   27.9970 C   0  0  0  0  0  0  0  0  0  0  0  0
    7.2470   -3.0420   23.7000 C   0  0  0  0  0  0  0  0  0  0  0  0
    7.6210   -3.3280   22.3260 C   0  0  0  0  0  0  0  0  0  0  0  0
  1  2  1  0
  2  3  2  0
  2  4  1  0
  4  5  1  0
  5  6  1  0
  6  7  1  0
  7  8  1  0
  8  9  2  0
  8 10  1  0
 10 11  1  0
 11 12  1  1
 11 13  1  0
 13 14  1  0
 14 15  1  0
 15 16  2  3
 16 17  1  0
 17 18  2  0
 17 19  1  0
 14 20  1  0
 10 21  1  0
 20 21  1  0
 21 22  1  1
  7 23  1  0
  4 24  1  0
 23 24  1  0
M  CHG  2  17   1  19  -1
M  END
