piperidine-amides-25905-covalent
     RDKit          3D

 25 28  0  0  0  0  0  0  0  0999 V2000
    7.0190   -3.3650   19.4130 C   0  0  0  0  0  0  0  0  0  0  0  0
    6.3710   -4.2730   20.3980 C   0  0  0  0  0  0  0  0  0  0  0  0
    5.4010   -4.9120   19.9960 O   0  0  0  0  0  0  0  0  0  0  0  0
    6.8860   -4.4080   21.7010 N   0  0  0  0  0  0  0  0  0  0  0  0
    6.7000   -5.6210   22.4810 C   0  0  0  0  0  0  0  0  0  0  0  0
    6.0810   -5.3070   23.8250 C   0  0  0  0  0  0  0  0  0  0  0  0
    5.9620   -3.8000   23.9570 C   0  0  0  0  0  0  0  0  0  0  0  0
    5.2310   -3.3980   25.2060 C   0  0  0  0  0  0  0  0  0  0  0  0
    4.1980   -2.7370   25.0510 O   0  0  0  0  0  0  0  0  0  0  0  0
    5.5950   -3.7040   26.5440 N   0  0  0  0  0  0  0  0  0  0  0  0
    5.6230   -5.0610   26.9680 C   0  0  0  0  0  0  0  0  0  0  0  0
    6.0890   -4.9230   28.3650 C   0  0  2  0  0  0  0  0  0  0  0  0
    5.9130   -5.8610   29.2890 C   0  0  0  0  0  0  0  0  0  0  0  0
    4.7790   -5.5060   29.9310 C   0  0  0  0  0  0  0  0  0  0  0  0
    4.3660   -4.2420   29.5490 C   0  0  0  0  0  0  0  0  0  0  0  0
    5.2150   -3.8490   28.6080 N   0  0  0  0  0  0  0  0  0  0  0  0
    6.0260   -2.6690   28.9500 C   0  0  0  0  0  0  0  0  0  0  0  0
    6.1730   -2.6980   27.3710 C   0  0  0  0  0  0  0  0  0  0  0  0
    6.9770   -1.5320   26.9830 C   0  0  0  0  0  0  0  0  0  0  0  0
    7.1330   -1.4630   25.5110 C   0  0  0  0  0  0  0  0  0  0  0  0
    7.3420   -0.8750   28.0250 N   0  0  0  0  0  0  0  0  0  0  0  0
    6.8460   -1.4940   29.0610 N   0  0  0  0  0  0  0  0  0  0  0  0
    7.2500   -0.7880   30.2800 C   0  0  0  0  0  0  0  0  0  0  0  0
    7.2060   -3.0680   23.6280 C   0  0  0  0  0  0  0  0  0  0  0  0
    7.7220   -3.3640   22.2740 C   0  0  0  0  0  0  0  0  0  0  0  0
  1  2  1  0
  2  3  2  0
  2  4  1  0
  4  5  1  0
  5  6  1  0
  6  7  1  0
  7  8  1  0
  8  9  2  0
  8 10  1  0
 10 11  1  0
 12 11  1  6
 12 13  1  0
 13 14  1  0
 14 15  1  0
 12 16  1  0
 15 16  1  0
 16 17  1  0
 10 18  1  0
 17 18  2  0
 18 19  1  0
 19 20  1  0
 19 21  2  0
 17 22  1  0
 21 22  1  0
 22 23  1  0
  7 24  1  0
  4 25  1  0
 24 25  1  0
M  END
