piperidine-amides-179-covalent
     RDKit          3D

 22 23  0  0  0  0  0  0  0  0999 V2000
    7.1620   -3.2250   19.2070 C   0  0  0  0  0  0  0  0  0  0  0  0
    6.3170   -3.9200   20.1600 C   0  0  0  0  0  0  0  0  0  0  0  0
    5.2140   -4.4170   19.7940 O   0  0  0  0  0  0  0  0  0  0  0  0
    6.6990   -4.0810   21.4830 N   0  0  0  0  0  0  0  0  0  0  0  0
    6.6280   -5.4410   22.0570 C   0  0  0  0  0  0  0  0  0  0  0  0
    5.6110   -5.1660   23.2200 C   0  0  0  0  0  0  0  0  0  0  0  0
    5.8480   -3.7270   23.6050 C   0  0  0  0  0  0  0  0  0  0  0  0
    5.3280   -3.4410   25.0580 C   0  0  0  0  0  0  0  0  0  0  0  0
    4.1130   -3.4300   25.1940 O   0  0  0  0  0  0  0  0  0  0  0  0
    6.4090   -3.3080   25.6470 N   0  0  0  0  0  0  0  0  0  0  0  0
    7.6350   -3.1490   26.1260 C   0  0  0  0  0  0  0  0  0  0  0  0
    8.9470   -3.4560   25.9240 C   0  0  0  0  0  0  0  0  0  0  0  0
   10.0180   -2.7790   25.3300 C   0  0  0  0  0  0  0  0  0  0  0  0
   11.1800   -3.3960   25.3270 N   0  0  0  0  0  0  0  0  0  0  0  0
   12.2800   -2.7720   24.7630 C   0  0  0  0  0  0  0  0  0  0  0  0
   11.0120   -4.5770   25.9260 N   0  0  0  0  0  0  0  0  0  0  0  0
    9.7610   -4.6920   26.2970 C   0  0  0  0  0  0  0  0  0  0  0  0
    9.1520   -5.7540   26.9580 C   0  0  0  0  0  0  0  0  0  0  0  0
    7.8620   -5.8060   26.4690 F   0  0  0  0  0  0  0  0  0  0  0  0
    8.9850   -5.4730   28.3110 F   0  0  0  0  0  0  0  0  0  0  0  0
    7.3040   -3.2910   23.5240 C   0  0  0  0  0  0  0  0  0  0  0  0
    7.5830   -3.0900   22.0540 C   0  0  0  0  0  0  0  0  0  0  0  0
  1  2  1  0
  2  3  2  0
  2  4  1  0
  4  5  1  0
  5  6  1  0
  6  7  1  0
  7  8  1  0
  8  9  2  0
  8 10  1  0
 10 11  1  0
 11 12  1  0
 12 13  2  0
 13 14  1  0
 14 15  1  0
 14 16  1  0
 12 17  1  0
 16 17  2  0
 17 18  1  0
 18 19  1  0
 18 20  1  0
  7 21  1  0
  4 22  1  0
 21 22  1  0
M  END
