piperidine-amides-32810-covalent
     RDKit          3D

 28 29  0  0  0  0  0  0  0  0999 V2000
    7.1020   -3.2990   19.2720 C   0  0  0  0  0  0  0  0  0  0  0  0
    6.3110   -4.0910   20.2490 C   0  0  0  0  0  0  0  0  0  0  0  0
    5.2410   -4.5950   19.8880 O   0  0  0  0  0  0  0  0  0  0  0  0
    6.8150   -4.3000   21.5470 N   0  0  0  0  0  0  0  0  0  0  0  0
    7.2600   -3.1960   22.3200 C   0  0  0  0  0  0  0  0  0  0  0  0
    5.9830   -2.7920   23.0520 C   0  0  0  0  0  0  0  0  0  0  0  0
    5.7810   -3.7080   24.2230 C   0  0  0  0  0  0  0  0  0  0  0  0
    6.5570   -3.1070   25.3260 C   0  0  0  0  0  0  0  0  0  0  0  0
    7.5900   -2.6220   24.9250 O   0  0  0  0  0  0  0  0  0  0  0  0
    6.1860   -2.9860   26.6840 N   0  0  0  0  0  0  0  0  0  0  0  0
    6.3720   -1.7380   27.3240 C   0  0  0  0  0  0  0  0  0  0  0  0
    6.1540   -4.0660   27.6300 C   0  0  0  0  0  0  0  0  0  0  0  0
    6.0390   -5.3900   27.2070 C   0  0  0  0  0  0  0  0  0  0  0  0
    5.8160   -5.7960   25.9150 O   0  0  0  0  0  0  0  0  0  0  0  0
    6.1460   -6.4150   28.2250 N   0  0  0  0  0  0  0  0  0  0  0  0
    5.3880   -6.4940   29.3440 C   0  0  0  0  0  0  0  0  0  0  0  0
    5.7130   -7.4330   30.4260 C   0  0  0  0  0  0  0  0  0  0  0  0
    4.9100   -7.5770   31.7140 C   0  0  0  0  0  0  0  0  0  0  0  0
    3.6810   -6.6690   31.8630 C   0  0  0  0  0  0  0  0  0  0  0  0
    2.8220   -6.6450   32.9510 O   0  0  0  0  0  0  0  0  0  0  0  0
    2.7280   -7.7670   33.7970 C   0  0  0  0  0  0  0  0  0  0  0  0
    2.2080   -8.8250   33.0980 F   0  0  0  0  0  0  0  0  0  0  0  0
    3.9570   -8.2510   34.3320 F   0  0  0  0  0  0  0  0  0  0  0  0
    1.9690   -7.4310   34.9400 F   0  0  0  0  0  0  0  0  0  0  0  0
    3.3670   -5.7200   30.7440 C   0  0  0  0  0  0  0  0  0  0  0  0
    4.2840   -5.7020   29.5180 C   0  0  0  0  0  0  0  0  0  0  0  0
    6.0830   -5.1120   23.8150 C   0  0  0  0  0  0  0  0  0  0  0  0
    6.2920   -5.3940   22.3000 C   0  0  0  0  0  0  0  0  0  0  0  0
  1  2  1  0
  2  3  2  0
  2  4  1  0
  4  5  1  0
  5  6  1  0
  6  7  1  0
  7  8  1  0
  8  9  2  0
  8 10  1  0
 10 11  1  0
 10 12  1  0
 12 13  1  0
 13 14  2  0
 13 15  1  0
 15 16  1  0
 16 17  2  0
 17 18  1  0
 18 19  2  0
 19 20  1  0
 20 21  1  0
 21 22  1  0
 21 23  1  0
 21 24  1  0
 19 25  1  0
 16 26  1  0
 25 26  2  0
  7 27  1  0
  4 28  1  0
 27 28  1  0
M  END
