piperidine-amides-25879-covalent
     RDKit          3D

 25 28  0  0  0  0  0  0  0  0999 V2000
    7.0740   -3.3440   19.2910 C   0  0  0  0  0  0  0  0  0  0  0  0
    6.3590   -4.1440   20.3170 C   0  0  0  0  0  0  0  0  0  0  0  0
    5.3480   -4.7380   19.9530 O   0  0  0  0  0  0  0  0  0  0  0  0
    6.8730   -4.2400   21.6160 N   0  0  0  0  0  0  0  0  0  0  0  0
    6.7460   -5.4620   22.3810 C   0  0  0  0  0  0  0  0  0  0  0  0
    6.1910   -5.1590   23.7470 C   0  0  0  0  0  0  0  0  0  0  0  0
    6.1790   -3.6480   23.9440 C   0  0  0  0  0  0  0  0  0  0  0  0
    5.6860   -3.3020   25.2950 C   0  0  0  0  0  0  0  0  0  0  0  0
    4.8020   -2.4440   25.3960 O   0  0  0  0  0  0  0  0  0  0  0  0
    6.1600   -3.9210   26.4600 N   0  0  0  0  0  0  0  0  0  0  0  0
    5.8940   -5.3570   26.5440 C   0  0  0  0  0  0  0  0  0  0  0  0
    4.8380   -5.5500   27.6080 C   0  0  1  0  0  0  0  0  0  0  0  0
    4.6400   -6.7520   28.3070 C   0  0  0  0  0  0  0  0  0  0  0  0
    4.5920   -6.8990   29.7350 N   0  0  0  0  0  0  0  0  0  0  0  0
    5.5810   -7.5710   30.4830 C   0  0  0  0  0  0  0  0  0  0  0  0
    5.1960   -7.5090   31.7710 N   0  0  0  0  0  0  0  0  0  0  0  0
    4.0130   -6.8320   31.8520 N   0  0  0  0  0  0  0  0  0  0  0  0
    3.5710   -6.4160   30.6090 C   0  0  0  0  0  0  0  0  0  0  0  0
    5.0710   -4.4660   28.5730 C   0  0  0  0  0  0  0  0  0  0  0  0
    5.3100   -5.9080   28.6290 C   0  0  0  0  0  0  0  0  0  0  0  0
    6.6860   -5.6340   29.0500 C   0  0  0  0  0  0  0  0  0  0  0  0
    6.5270   -4.1640   28.7560 C   0  0  0  0  0  0  0  0  0  0  0  0
    5.8100   -3.4680   27.8130 C   0  0  0  0  0  0  0  0  0  0  0  0
    7.4210   -2.9700   23.5510 C   0  0  0  0  0  0  0  0  0  0  0  0
    7.7610   -3.1980   22.1280 C   0  0  0  0  0  0  0  0  0  0  0  0
  1  2  1  0
  2  3  2  0
  2  4  1  0
  4  5  1  0
  5  6  1  0
  6  7  1  0
  7  8  1  0
  8  9  2  0
  8 10  1  0
 10 11  1  0
 11 12  1  0
 12 13  1  1
 13 14  1  0
 14 15  1  0
 15 16  2  0
 16 17  1  0
 14 18  1  0
 17 18  2  0
 12 19  1  0
 19 20  1  0
 20 21  1  0
 19 22  1  0
 21 22  1  0
 10 23  1  0
 19 23  1  0
  7 24  1  0
  4 25  1  0
 24 25  1  0
M  END
