piperidine-amides-27579-covalent
     RDKit          3D

 26 29  0  0  0  0  0  0  0  0999 V2000
    7.0020   -3.3810   19.4230 C   0  0  0  0  0  0  0  0  0  0  0  0
    6.3830   -4.2670   20.4160 C   0  0  0  0  0  0  0  0  0  0  0  0
    5.4030   -4.9420   20.0040 O   0  0  0  0  0  0  0  0  0  0  0  0
    6.8980   -4.3720   21.7260 N   0  0  0  0  0  0  0  0  0  0  0  0
    6.7420   -5.6120   22.4730 C   0  0  0  0  0  0  0  0  0  0  0  0
    6.1400   -5.2710   23.8080 C   0  0  0  0  0  0  0  0  0  0  0  0
    5.9840   -3.7860   23.8750 C   0  0  0  0  0  0  0  0  0  0  0  0
    5.3460   -3.2780   25.1220 C   0  0  0  0  0  0  0  0  0  0  0  0
    4.5430   -2.3390   24.9660 O   0  0  0  0  0  0  0  0  0  0  0  0
    5.5060   -3.7060   26.4520 N   0  0  0  0  0  0  0  0  0  0  0  0
    4.4830   -3.2750   27.3780 C   0  0  0  0  0  0  0  0  0  0  0  0
    4.4190   -4.1280   28.6390 C   0  0  0  0  0  0  0  0  0  0  0  0
    5.5070   -4.6550   29.2340 C   0  0  0  0  0  0  0  0  0  0  0  0
    5.2770   -5.7920   29.9770 C   0  0  0  0  0  0  0  0  0  0  0  0
    6.2090   -6.7590   29.9770 N   0  0  0  0  0  0  0  0  0  0  0  0
    5.6890   -7.7250   30.7910 N   0  0  0  0  0  0  0  0  0  0  0  0
    4.4140   -7.2560   31.2470 C   0  0  0  0  0  0  0  0  0  0  0  0
    3.4650   -7.8370   32.0840 C   0  0  0  0  0  0  0  0  0  0  0  0
    2.3190   -7.1270   32.3330 C   0  0  0  0  0  0  0  0  0  0  0  0
    2.1730   -5.7800   31.6930 C   0  0  0  0  0  0  0  0  0  0  0  0
    3.1750   -5.2680   30.8650 N   0  0  0  0  0  0  0  0  0  0  0  0
    4.2270   -6.0630   30.7090 N   0  0  0  0  0  0  0  0  0  0  0  0
    6.5440   -4.5740   28.4050 C   0  0  0  0  0  0  0  0  0  0  0  0
    6.3740   -3.3570   27.5090 C   0  0  0  0  0  0  0  0  0  0  0  0
    7.3000   -3.1150   23.6300 C   0  0  0  0  0  0  0  0  0  0  0  0
    7.7310   -3.3060   22.3290 C   0  0  0  0  0  0  0  0  0  0  0  0
  1  2  1  0
  2  3  2  0
  2  4  1  0
  4  5  1  0
  5  6  1  0
  6  7  1  0
  7  8  1  0
  8  9  2  0
  8 10  1  0
 10 11  1  0
 11 12  1  0
 12 13  1  0
 13 14  1  0
 14 15  2  0
 15 16  1  0
 16 17  2  0
 17 18  1  0
 18 19  2  0
 19 20  1  0
 20 21  2  0
 14 22  1  0
 17 22  1  0
 21 22  1  0
 13 23  1  0
 10 24  1  0
 23 24  1  0
  7 25  1  0
  4 26  1  0
 25 26  1  0
M  END
