piperidine-amides-27560-covalent
     RDKit          3D

 25 27  0  0  0  0  0  0  0  0999 V2000
    7.1280   -3.3470   19.2840 C   0  0  0  0  0  0  0  0  0  0  0  0
    6.4560   -4.1760   20.2860 C   0  0  0  0  0  0  0  0  0  0  0  0
    5.3640   -4.7060   19.9450 O   0  0  0  0  0  0  0  0  0  0  0  0
    7.0580   -4.4030   21.5220 N   0  0  0  0  0  0  0  0  0  0  0  0
    6.7170   -5.5390   22.3390 C   0  0  0  0  0  0  0  0  0  0  0  0
    6.0130   -5.0200   23.5580 C   0  0  0  0  0  0  0  0  0  0  0  0
    6.6880   -3.8020   24.1480 C   0  0  0  0  0  0  0  0  0  0  0  0
    5.8760   -3.2750   25.2410 C   0  0  0  0  0  0  0  0  0  0  0  0
    4.9210   -2.5210   24.9670 O   0  0  0  0  0  0  0  0  0  0  0  0
    6.0930   -3.5970   26.5710 N   0  0  0  0  0  0  0  0  0  0  0  0
    6.4000   -2.5700   27.4880 C   0  0  0  0  0  0  0  0  0  0  0  0
    6.8110   -3.1730   28.8110 C   0  0  0  0  0  0  0  0  0  0  0  0
    6.7840   -4.4140   29.0180 O   0  0  0  0  0  0  0  0  0  0  0  0
    5.7300   -4.9940   28.3780 C   0  0  0  0  0  0  0  0  0  0  0  0
    5.3110   -4.6300   27.1170 C   0  0  0  0  0  0  0  0  0  0  0  0
    4.2490   -5.1690   26.3880 C   0  0  0  0  0  0  0  0  0  0  0  0
    3.5120   -6.1850   26.9630 C   0  0  0  0  0  0  0  0  0  0  0  0
    3.8440   -6.6170   28.2110 C   0  0  0  0  0  0  0  0  0  0  0  0
    4.9940   -6.0050   28.9580 C   0  0  0  0  0  0  0  0  0  0  0  0
    4.9690   -6.7930   30.2680 C   0  0  0  0  0  0  0  0  0  0  0  0
    4.4450   -8.0390   30.0540 F   0  0  0  0  0  0  0  0  0  0  0  0
    6.2700   -6.9950   30.6970 F   0  0  0  0  0  0  0  0  0  0  0  0
    4.2930   -6.1720   31.2800 F   0  0  0  0  0  0  0  0  0  0  0  0
    6.9190   -2.7020   23.1150 C   0  0  0  0  0  0  0  0  0  0  0  0
    7.8570   -3.3540   22.1480 C   0  0  0  0  0  0  0  0  0  0  0  0
  1  2  1  0
  2  3  2  0
  2  4  1  0
  4  5  1  0
  5  6  1  0
  6  7  1  0
  7  8  1  0
  8  9  2  0
  8 10  1  0
 10 11  1  0
 11 12  1  0
 12 13  1  0
 13 14  1  0
 10 15  1  0
 14 15  2  0
 15 16  1  0
 16 17  2  0
 17 18  1  0
 14 19  1  0
 18 19  2  0
 19 20  1  0
 20 21  1  0
 20 22  1  0
 20 23  1  0
  7 24  1  0
  4 25  1  0
 24 25  1  0
M  END
