piperidine-amides-28593-covalent
     RDKit          3D

 25 26  0  0  0  0  0  0  0  0999 V2000
    7.1330   -4.0100   19.6570 C   0  0  0  0  0  0  0  0  0  0  0  0
    5.8890   -3.8800   20.2530 C   0  0  0  0  0  0  0  0  0  0  0  0
    4.9210   -3.9100   19.5000 O   0  0  0  0  0  0  0  0  0  0  0  0
    5.8930   -3.8310   21.6300 N   0  0  0  0  0  0  0  0  0  0  0  0
    5.6860   -5.0750   22.2960 C   0  0  0  0  0  0  0  0  0  0  0  0
    5.1400   -4.7770   23.6490 C   0  0  0  0  0  0  0  0  0  0  0  0
    6.1160   -3.8700   24.3820 C   0  0  0  0  0  0  0  0  0  0  0  0
    5.4710   -3.3820   25.6240 C   0  0  0  0  0  0  0  0  0  0  0  0
    4.3210   -3.7500   25.8400 O   0  0  0  0  0  0  0  0  0  0  0  0
    6.2110   -2.5320   26.4130 N   0  0  0  0  0  0  0  0  0  0  0  0
    6.8610   -3.0850   27.5350 C   0  0  0  0  0  0  0  0  0  0  0  0
    7.8480   -3.9630   27.1700 C   0  0  0  0  0  0  0  0  0  0  0  0
    7.9760   -5.2280   27.5900 C   0  0  0  0  0  0  0  0  0  0  0  0
    7.2070   -5.9730   28.4490 C   0  0  0  0  0  0  0  0  0  0  0  0
    9.1870   -6.0060   27.0370 C   0  0  0  0  0  0  0  0  0  0  0  0
    6.5940   -1.2850   25.8330 C   0  0  0  0  0  0  0  0  0  0  0  0
    7.6890   -1.3960   24.8250 C   0  0  0  0  0  0  0  0  0  0  0  0
    8.5170   -2.6300   24.9360 C   0  0  0  0  0  0  0  0  0  0  0  0
    9.6370   -2.6810   23.8970 C   0  0  0  0  0  0  0  0  0  0  0  0
    9.8800   -1.7070   22.9610 C   0  0  0  0  0  0  0  0  0  0  0  0
   11.2510   -2.0030   21.9240 Cl  0  0  0  0  0  0  0  0  0  0  0  0
    9.0940   -0.5720   22.8590 C   0  0  0  0  0  0  0  0  0  0  0  0
    7.9490   -0.4330   23.8460 C   0  0  0  0  0  0  0  0  0  0  0  0
    6.5150   -2.6490   23.5440 C   0  0  0  0  0  0  0  0  0  0  0  0
    6.9440   -3.0820   22.1870 C   0  0  0  0  0  0  0  0  0  0  0  0
  1  2  1  0
  2  3  2  0
  2  4  1  0
  4  5  1  0
  5  6  1  0
  6  7  1  0
  7  8  1  0
  8  9  2  0
  8 10  1  0
 10 11  1  0
 11 12  1  0
 12 13  2  3
 13 14  1  0
 13 15  1  0
 10 16  1  0
 16 17  1  0
 17 18  2  0
 18 19  1  0
 19 20  2  0
 20 21  1  0
 20 22  1  0
 17 23  1  0
 22 23  2  0
  7 24  1  0
  4 25  1  0
 24 25  1  0
M  END
