piperidine-amides-12259-covalent
     RDKit          3D

 24 24  0  0  0  0  0  0  0  0999 V2000
    7.1110   -3.1410   19.0010 C   0  0  0  0  0  0  0  0  0  0  0  0
    6.2520   -3.7090   20.0350 C   0  0  0  0  0  0  0  0  0  0  0  0
    5.1940   -4.2570   19.7410 O   0  0  0  0  0  0  0  0  0  0  0  0
    6.6200   -3.6960   21.4110 N   0  0  0  0  0  0  0  0  0  0  0  0
    7.6170   -2.7930   21.9310 C   0  0  0  0  0  0  0  0  0  0  0  0
    7.3620   -2.4000   23.3760 C   0  0  0  0  0  0  0  0  0  0  0  0
    6.0900   -3.0410   23.9450 C   0  0  0  0  0  0  0  0  0  0  0  0
    6.0850   -2.8940   25.4310 C   0  0  0  0  0  0  0  0  0  0  0  0
    5.0240   -2.7130   26.0680 O   0  0  0  0  0  0  0  0  0  0  0  0
    7.3340   -2.9610   26.1190 N   0  0  0  0  0  0  0  0  0  0  0  0
    7.3750   -3.0510   27.5660 C   0  0  0  0  0  0  0  0  0  0  0  0
    7.8510   -4.4320   27.9610 C   0  0  0  0  0  0  0  0  0  0  0  0
    6.7380   -5.2260   28.1050 O   0  0  0  0  0  0  0  0  0  0  0  0
    5.9060   -5.5120   27.0770 C   0  0  0  0  0  0  0  0  0  0  0  0
    6.5940   -5.7200   25.8770 C   0  0  0  0  0  0  0  0  0  0  0  0
    7.8760   -6.1470   26.0220 O   0  0  0  0  0  0  0  0  0  0  0  0
    9.0240   -5.6130   25.3690 C   0  0  0  0  0  0  0  0  0  0  0  0
    8.6090   -4.9890   24.1200 C   0  0  0  0  0  0  0  0  0  0  0  0
    8.0970   -5.9110   23.3460 O   0  0  0  0  0  0  0  0  0  0  0  0
    7.8510   -7.2080   23.7790 C   0  0  0  0  0  0  0  0  0  0  0  0
    6.7200   -7.7550   23.2110 C   0  0  0  0  0  0  0  0  0  0  0  0
    6.0900   -6.8520   22.3530 O   0  0  0  0  0  0  0  0  0  0  0  0
    5.7480   -4.4210   23.4950 C   0  0  0  0  0  0  0  0  0  0  0  0
    6.2010   -4.7850   22.1660 C   0  0  0  0  0  0  0  0  0  0  0  0
  1  2  1  0
  2  3  2  0
  2  4  1  0
  4  5  1  0
  5  6  1  0
  6  7  1  0
  7  8  1  0
  8  9  2  0
  8 10  1  0
 10 11  1  0
 11 12  1  0
 12 13  1  0
 13 14  1  0
 14 15  1  0
 15 16  1  0
 16 17  1  0
 17 18  1  0
 18 19  1  0
 19 20  1  0
 20 21  1  0
 21 22  1  0
  7 23  1  0
  4 24  1  0
 23 24  1  0
M  END
