piperidine-amides-7078-covalent
     RDKit          3D

 22 23  0  0  0  0  0  0  0  0999 V2000
    7.0450   -3.2670   19.3080 C   0  0  0  0  0  0  0  0  0  0  0  0
    6.3120   -4.0750   20.3010 C   0  0  0  0  0  0  0  0  0  0  0  0
    5.3290   -4.7570   19.9450 O   0  0  0  0  0  0  0  0  0  0  0  0
    6.7040   -4.1280   21.6450 N   0  0  0  0  0  0  0  0  0  0  0  0
    7.6150   -3.1310   22.1690 C   0  0  0  0  0  0  0  0  0  0  0  0
    7.0540   -2.6550   23.5120 C   0  0  0  0  0  0  0  0  0  0  0  0
    5.8760   -3.5620   23.8170 C   0  0  0  0  0  0  0  0  0  0  0  0
    5.2020   -3.2720   25.1240 C   0  0  0  0  0  0  0  0  0  0  0  0
    4.0030   -3.5960   25.2190 O   0  0  0  0  0  0  0  0  0  0  0  0
    5.8510   -2.6520   26.2290 N   0  0  0  0  0  0  0  0  0  0  0  0
    6.2680   -3.4410   27.3580 C   0  0  1  0  0  0  0  0  0  0  0  0
    5.2080   -4.4570   27.7260 C   0  0  0  0  0  0  0  0  0  0  0  0
    5.6670   -5.1230   28.8950 O   0  0  0  0  0  0  0  0  0  0  0  0
    6.0420   -6.4450   28.9400 C   0  0  0  0  0  0  0  0  0  0  0  0
    7.4310   -4.1370   27.0170 C   0  0  0  0  0  0  0  0  0  0  0  0
    7.9200   -3.9360   25.7860 C   0  0  0  0  0  0  0  0  0  0  0  0
    9.0130   -4.5670   25.3500 C   0  0  0  0  0  0  0  0  0  0  0  0
    9.9620   -5.5760   25.9570 C   0  0  0  0  0  0  0  0  0  0  0  0
    9.2750   -5.6680   27.3110 C   0  0  0  0  0  0  0  0  0  0  0  0
    8.0830   -4.9750   27.7760 C   0  0  0  0  0  0  0  0  0  0  0  0
    6.2680   -5.0230   23.7330 C   0  0  0  0  0  0  0  0  0  0  0  0
    6.5160   -5.3560   22.3870 C   0  0  0  0  0  0  0  0  0  0  0  0
  1  2  1  0
  2  3  2  0
  2  4  1  0
  4  5  1  0
  5  6  1  0
  6  7  1  0
  7  8  1  0
  8  9  2  0
  8 10  1  0
 10 11  1  0
 11 12  1  6
 12 13  1  0
 13 14  1  0
 11 15  1  0
 15 16  2  0
 16 17  1  0
 17 18  2  0
 18 19  1  0
 15 20  1  0
 19 20  2  0
  7 21  1  0
  4 22  1  0
 21 22  1  0
M  END
