piperidine-amides-32335-covalent
     RDKit          3D

 28 30  0  0  0  0  0  0  0  0999 V2000
    7.0550   -3.3220   19.2810 C   0  0  0  0  0  0  0  0  0  0  0  0
    6.2680   -4.1240   20.2530 C   0  0  0  0  0  0  0  0  0  0  0  0
    5.2220   -4.6740   19.9010 O   0  0  0  0  0  0  0  0  0  0  0  0
    6.7750   -4.2640   21.5400 N   0  0  0  0  0  0  0  0  0  0  0  0
    6.6030   -5.4670   22.3120 C   0  0  0  0  0  0  0  0  0  0  0  0
    5.7540   -5.0850   23.5330 C   0  0  0  0  0  0  0  0  0  0  0  0
    6.3910   -3.9260   24.2500 C   0  0  0  0  0  0  0  0  0  0  0  0
    5.5510   -3.4560   25.3710 C   0  0  0  0  0  0  0  0  0  0  0  0
    4.5580   -2.8020   25.0440 O   0  0  0  0  0  0  0  0  0  0  0  0
    5.8400   -3.7290   26.7140 N   0  0  0  0  0  0  0  0  0  0  0  0
    5.0260   -3.3260   27.7780 C   0  0  0  0  0  0  0  0  0  0  0  0
    5.5280   -3.4890   29.0150 C   0  0  0  0  0  0  0  0  0  0  0  0
    6.9100   -3.7180   28.6620 O   0  0  0  0  0  0  0  0  0  0  0  0
    7.0420   -4.1400   27.3430 C   0  0  0  0  0  0  0  0  0  0  0  0
    8.0910   -3.6580   26.6610 C   0  0  0  0  0  0  0  0  0  0  0  0
    9.3770   -4.0590   27.2780 C   0  0  0  0  0  0  0  0  0  0  0  0
    9.5420   -5.2850   26.9150 N   0  0  0  0  0  0  0  0  0  0  0  0
    9.4550   -5.1960   25.5240 C   0  0  0  0  0  0  0  0  0  0  0  0
    8.4500   -5.7420   24.7390 O   0  0  0  0  0  0  0  0  0  0  0  0
   10.5520   -4.4410   25.0950 O   0  0  0  0  0  0  0  0  0  0  0  0
   10.3330   -3.2210   24.4450 C   0  0  0  0  0  0  0  0  0  0  0  0
   11.4610   -2.7340   23.8130 C   0  0  0  0  0  0  0  0  0  0  0  0
    9.8910   -2.0720   25.2340 C   0  0  0  0  0  0  0  0  0  0  0  0
    9.2330   -3.3070   23.4170 C   0  0  0  0  0  0  0  0  0  0  0  0
    8.6070   -6.0340   27.4100 C   0  0  0  0  0  0  0  0  0  0  0  0
    7.1670   -5.5350   27.4700 C   0  0  0  0  0  0  0  0  0  0  0  0
    6.7140   -2.7470   23.3800 C   0  0  0  0  0  0  0  0  0  0  0  0
    7.4830   -3.1770   22.1420 C   0  0  0  0  0  0  0  0  0  0  0  0
  1  2  1  0
  2  3  2  0
  2  4  1  0
  4  5  1  0
  5  6  1  0
  6  7  1  0
  7  8  1  0
  8  9  2  0
  8 10  1  0
 10 11  1  0
 11 12  1  0
 12 13  1  0
 10 14  1  0
 14 13  1  0
 14 15  1  0
 15 16  1  0
 16 17  1  0
 17 18  1  0
 18 19  2  0
 18 20  1  0
 21 20  1  0
 21 22  1  0
 21 23  1  0
 21 24  1  0
 17 25  1  0
 14 26  1  0
 25 26  1  0
  7 27  1  0
  4 28  1  0
 27 28  1  0
M  END
