piperidine-amides-4301-covalent
     RDKit          3D

 26 28  0  0  0  0  0  0  0  0999 V2000
    7.0730   -3.3110   19.2480 C   0  0  0  0  0  0  0  0  0  0  0  0
    6.3650   -4.1010   20.2710 C   0  0  0  0  0  0  0  0  0  0  0  0
    5.2910   -4.6410   19.9160 O   0  0  0  0  0  0  0  0  0  0  0  0
    6.8910   -4.2990   21.5680 N   0  0  0  0  0  0  0  0  0  0  0  0
    7.5990   -3.2210   22.1780 C   0  0  0  0  0  0  0  0  0  0  0  0
    7.3740   -3.0520   23.6080 C   0  0  0  0  0  0  0  0  0  0  0  0
    6.4930   -4.0530   24.2390 C   0  0  0  0  0  0  0  0  0  0  0  0
    5.7480   -3.4200   25.3780 C   0  0  0  0  0  0  0  0  0  0  0  0
    4.5130   -3.2820   25.2970 O   0  0  0  0  0  0  0  0  0  0  0  0
    6.4120   -2.9670   26.5370 N   0  0  0  0  0  0  0  0  0  0  0  0
    6.3470   -1.6690   27.1010 C   0  0  0  0  0  0  0  0  0  0  0  0
    5.7860   -0.4750   26.5250 C   0  0  0  0  0  0  0  0  0  0  0  0
    5.8030    0.8520   27.3170 C   0  0  0  0  0  0  0  0  0  0  0  0
    6.3250    1.0640   28.6010 C   0  0  0  0  0  0  0  0  0  0  0  0
    6.2960    2.2890   29.2360 O   0  0  0  0  0  0  0  0  0  0  0  0
    5.2140    3.0790   28.8800 C   0  0  0  0  0  0  0  0  0  0  0  0
    4.0440    2.1720   28.6720 C   0  0  0  0  0  0  0  0  0  0  0  0
    3.9990    1.2240   29.8650 C   0  0  0  0  0  0  0  0  0  0  0  0
    2.8350    0.3550   29.6100 C   0  0  0  0  0  0  0  0  0  0  0  0
    2.3030    0.8690   28.2940 C   0  0  0  0  0  0  0  0  0  0  0  0
    2.9990    1.9360   27.7250 O   0  0  0  0  0  0  0  0  0  0  0  0
    6.9140   -0.2570   29.1570 C   0  0  0  0  0  0  0  0  0  0  0  0
    7.6330   -0.2260   30.7700 Cl  0  0  0  0  0  0  0  0  0  0  0  0
    6.9280   -1.5600   28.4500 C   0  0  0  0  0  0  0  0  0  0  0  0
    5.5740   -4.7590   23.3000 C   0  0  0  0  0  0  0  0  0  0  0  0
    6.3980   -5.3700   22.3750 C   0  0  0  0  0  0  0  0  0  0  0  0
  1  2  1  0
  2  3  2  0
  2  4  1  0
  4  5  1  0
  5  6  1  0
  6  7  1  0
  7  8  1  0
  8  9  2  0
  8 10  1  0
 10 11  1  0
 11 12  2  0
 12 13  1  0
 13 14  2  0
 14 15  1  0
 15 16  1  0
 16 17  1  0
 17 18  2  0
 18 19  1  0
 19 20  2  0
 17 21  1  0
 20 21  1  0
 14 22  1  0
 22 23  1  0
 11 24  1  0
 22 24  2  0
  7 25  1  0
  4 26  1  0
 25 26  1  0
M  END
