piperidine-amides-76-covalent
     RDKit          3D

 19 19  0  0  0  0  0  0  0  0999 V2000
    7.1480   -3.3190   19.1410 C   0  0  0  0  0  0  0  0  0  0  0  0
    6.3990   -3.9920   20.1750 C   0  0  0  0  0  0  0  0  0  0  0  0
    5.2660   -4.4730   19.8630 O   0  0  0  0  0  0  0  0  0  0  0  0
    6.8970   -4.2070   21.4690 N   0  0  0  0  0  0  0  0  0  0  0  0
    7.7480   -3.1390   22.0600 C   0  0  0  0  0  0  0  0  0  0  0  0
    6.7110   -2.4890   23.0420 C   0  0  0  0  0  0  0  0  0  0  0  0
    6.2650   -3.6500   23.8850 C   0  0  0  0  0  0  0  0  0  0  0  0
    5.8160   -3.1590   25.3110 C   0  0  0  0  0  0  0  0  0  0  0  0
    5.3200   -2.0430   25.3370 O   0  0  0  0  0  0  0  0  0  0  0  0
    6.1160   -4.1430   26.0140 N   0  0  0  0  0  0  0  0  0  0  0  0
    6.3880   -5.2940   26.6410 C   0  0  2  0  0  0  0  0  0  0  0  0
    5.7920   -6.2600   27.3770 C   0  0  0  0  0  0  0  0  0  0  0  0
    4.4960   -6.6640   26.9710 C   0  0  0  0  0  0  0  0  0  0  0  0
    7.2390   -5.4450   27.8500 C   0  0  0  0  0  0  0  0  0  0  0  0
    8.4250   -4.6150   28.1760 C   0  0  0  0  0  0  0  0  0  0  0  0
    8.6590   -5.8770   27.4210 C   0  0  0  0  0  0  0  0  0  0  0  0
    6.6370   -6.2310   28.9830 C   0  0  0  0  0  0  0  0  0  0  0  0
    5.5090   -4.6920   23.2560 C   0  0  0  0  0  0  0  0  0  0  0  0
    6.5490   -5.3030   22.2770 C   0  0  0  0  0  0  0  0  0  0  0  0
  1  2  1  0
  2  3  2  0
  2  4  1  0
  4  5  1  0
  5  6  1  0
  6  7  1  0
  7  8  1  0
  8  9  2  0
  8 10  1  0
 10 11  1  0
 11 12  1  1
 12 13  3  0
 11 14  1  0
 14 15  1  0
 14 16  1  0
 14 17  1  0
  7 18  1  0
  4 19  1  0
 18 19  1  0
M  END
