piperidine-amides-32488-covalent
     RDKit          3D

 28 30  0  0  0  0  0  0  0  0999 V2000
    7.2330   -3.3440   19.2820 C   0  0  0  0  0  0  0  0  0  0  0  0
    6.5540   -4.2040   20.2680 C   0  0  0  0  0  0  0  0  0  0  0  0
    5.4850   -4.7540   19.9630 O   0  0  0  0  0  0  0  0  0  0  0  0
    7.1600   -4.4000   21.5180 N   0  0  0  0  0  0  0  0  0  0  0  0
    7.2130   -5.7270   22.0730 C   0  0  0  0  0  0  0  0  0  0  0  0
    5.9230   -6.0060   22.8170 C   0  0  0  0  0  0  0  0  0  0  0  0
    4.8680   -5.0890   22.3100 C   0  0  0  0  0  0  0  0  0  0  0  0
    3.7360   -5.0870   23.2040 C   0  0  0  0  0  0  0  0  0  0  0  0
    2.6420   -5.5660   22.8710 O   0  0  0  0  0  0  0  0  0  0  0  0
    4.0860   -4.5130   24.3890 N   0  0  0  0  0  0  0  0  0  0  0  0
    5.0160   -5.1050   25.1930 C   0  0  0  0  0  0  0  0  0  0  0  0
    5.8230   -4.0460   25.2030 C   0  0  0  0  0  0  0  0  0  0  0  0
    5.8510   -3.3250   26.3530 C   0  0  0  0  0  0  0  0  0  0  0  0
    4.9340   -3.4790   27.3590 O   0  0  0  0  0  0  0  0  0  0  0  0
    6.8430   -2.3220   26.4900 N   0  0  0  0  0  0  0  0  0  0  0  0
    6.6310   -1.1820   27.1340 C   0  0  0  0  0  0  0  0  0  0  0  0
    6.0230   -0.0530   26.4170 C   0  0  0  0  0  0  0  0  0  0  0  0
    5.7510    1.2560   27.1090 C   0  0  0  0  0  0  0  0  0  0  0  0
    6.1710    1.2390   28.5640 C   0  0  0  0  0  0  0  0  0  0  0  0
    6.7390    0.1520   29.1940 C   0  0  0  0  0  0  0  0  0  0  0  0
    7.1030    0.2580   30.6220 C   0  0  0  0  0  0  0  0  0  0  0  0
    8.2510   -0.3120   31.0110 F   0  0  0  0  0  0  0  0  0  0  0  0
    7.1430    1.5370   31.1010 F   0  0  0  0  0  0  0  0  0  0  0  0
    6.0900   -0.4090   31.2920 F   0  0  0  0  0  0  0  0  0  0  0  0
    6.9660   -1.0480   28.4750 C   0  0  0  0  0  0  0  0  0  0  0  0
    4.9080   -3.2630   24.1860 C   0  0  0  0  0  0  0  0  0  0  0  0
    5.2060   -3.6160   22.2460 C   0  0  0  0  0  0  0  0  0  0  0  0
    6.6760   -3.4500   22.4350 C   0  0  0  0  0  0  0  0  0  0  0  0
  1  2  1  0
  2  3  2  0
  2  4  1  0
  4  5  1  0
  5  6  1  0
  6  7  1  0
  7  8  1  0
  8  9  2  0
  8 10  1  0
 10 11  1  0
 11 12  1  0
 12 13  1  0
 13 14  2  0
 13 15  1  0
 15 16  1  0
 16 17  2  0
 17 18  1  0
 18 19  2  0
 19 20  1  0
 20 21  1  0
 21 22  1  0
 21 23  1  0
 21 24  1  0
 16 25  1  0
 20 25  2  0
 10 26  1  0
 12 26  1  0
  7 27  1  0
  4 28  1  0
 27 28  1  0
M  END
