piperidine-amides-12153-covalent
     RDKit          3D

 25 27  0  0  0  0  0  0  0  0999 V2000
    7.0870   -3.2710   19.2670 C   0  0  0  0  0  0  0  0  0  0  0  0
    6.3320   -4.0510   20.2470 C   0  0  0  0  0  0  0  0  0  0  0  0
    5.3050   -4.6360   19.9140 O   0  0  0  0  0  0  0  0  0  0  0  0
    6.8040   -4.1830   21.6000 N   0  0  0  0  0  0  0  0  0  0  0  0
    7.6990   -3.1920   22.1610 C   0  0  0  0  0  0  0  0  0  0  0  0
    7.4210   -2.9830   23.6220 C   0  0  0  0  0  0  0  0  0  0  0  0
    6.0490   -3.5680   23.8970 C   0  0  0  0  0  0  0  0  0  0  0  0
    5.5840   -3.2840   25.2830 C   0  0  0  0  0  0  0  0  0  0  0  0
    4.3860   -3.4050   25.6030 O   0  0  0  0  0  0  0  0  0  0  0  0
    6.5070   -2.8690   26.2680 N   0  0  0  0  0  0  0  0  0  0  0  0
    6.6640   -1.4530   26.5280 C   0  0  0  0  0  0  0  0  0  0  0  0
    5.4140   -0.9310   27.1930 C   0  0  0  0  0  0  0  0  0  0  0  0
    5.7210    0.1290   28.0370 C   0  0  0  0  0  0  0  0  0  0  0  0
    6.0170    1.3920   27.4720 C   0  0  0  0  0  0  0  0  0  0  0  0
    6.3280    2.4660   28.2830 C   0  0  0  0  0  0  0  0  0  0  0  0
    6.3490    2.2930   29.7100 C   0  0  0  0  0  0  0  0  0  0  0  0
    6.0660    1.0840   30.2590 C   0  0  0  0  0  0  0  0  0  0  0  0
    6.1060    0.9280   32.0170 Cl  0  0  0  0  0  0  0  0  0  0  0  0
    5.7590    0.0230   29.4290 C   0  0  0  0  0  0  0  0  0  0  0  0
    4.6890   -1.9230   27.8920 C   0  0  0  0  0  0  0  0  0  0  0  0
    3.2850   -1.8150   27.4970 C   0  0  0  0  0  0  0  0  0  0  0  0
    3.1670   -0.9600   26.4600 C   0  0  0  0  0  0  0  0  0  0  0  0
    4.4530   -0.5050   26.2630 C   0  0  0  0  0  0  0  0  0  0  0  0
    6.0530   -5.0630   23.6900 C   0  0  0  0  0  0  0  0  0  0  0  0
    6.6150   -5.4210   22.3090 C   0  0  0  0  0  0  0  0  0  0  0  0
  1  2  1  0
  2  3  2  0
  2  4  1  0
  4  5  1  0
  5  6  1  0
  6  7  1  0
  7  8  1  0
  8  9  2  0
  8 10  1  0
 10 11  1  0
 12 11  1  0
 12 13  1  0
 13 14  2  0
 14 15  1  0
 15 16  2  0
 16 17  1  0
 17 18  1  0
 13 19  1  0
 17 19  2  0
 12 20  1  0
 20 21  1  0
 21 22  1  0
 12 23  1  0
 22 23  1  0
  7 24  1  0
  4 25  1  0
 24 25  1  0
M  END
