piperidine-amides-25586-covalent
     RDKit          3D

 23 24  0  0  0  0  0  0  0  0999 V2000
    7.0280   -3.3430   19.3720 C   0  0  0  0  0  0  0  0  0  0  0  0
    6.3910   -4.2350   20.3780 C   0  0  0  0  0  0  0  0  0  0  0  0
    5.4170   -4.8850   19.9950 O   0  0  0  0  0  0  0  0  0  0  0  0
    6.9180   -4.3490   21.6790 N   0  0  0  0  0  0  0  0  0  0  0  0
    6.7400   -5.5560   22.4600 C   0  0  0  0  0  0  0  0  0  0  0  0
    6.1460   -5.2280   23.8130 C   0  0  0  0  0  0  0  0  0  0  0  0
    6.1740   -3.7160   23.9990 C   0  0  0  0  0  0  0  0  0  0  0  0
    5.6490   -3.3250   25.3320 C   0  0  0  0  0  0  0  0  0  0  0  0
    4.9410   -2.3190   25.3950 O   0  0  0  0  0  0  0  0  0  0  0  0
    5.8830   -4.0430   26.5220 N   0  0  0  0  0  0  0  0  0  0  0  0
    4.7810   -4.8020   26.9890 C   0  0  0  0  0  0  0  0  0  0  0  0
    4.5760   -4.3160   28.3990 C   0  0  0  0  0  0  0  0  0  0  0  0
    5.6220   -3.8820   29.1350 C   0  0  0  0  0  0  0  0  0  0  0  0
    5.7600   -2.5180   29.2210 C   0  0  0  0  0  0  0  0  0  0  0  0
    7.0790   -1.9230   29.3650 N   0  0  0  0  0  0  0  0  0  0  0  0
    6.8990   -0.3610   30.0650 S   0  0  0  0  0  0  0  0  0  0  0  0
    8.1550   -0.0910   31.1700 C   0  0  0  0  0  0  0  0  0  0  0  0
    5.3640   -0.1670   30.9330 C   0  0  0  0  0  0  0  0  0  0  0  0
    7.0980    0.6690   29.0120 O   0  0  0  0  0  0  0  0  0  0  0  0
    6.8800   -4.3970   28.6010 C   0  0  0  0  0  0  0  0  0  0  0  0
    6.3400   -3.3260   27.6620 C   0  0  0  0  0  0  0  0  0  0  0  0
    7.4370   -3.0700   23.6280 C   0  0  0  0  0  0  0  0  0  0  0  0
    7.7590   -3.2860   22.1920 C   0  0  0  0  0  0  0  0  0  0  0  0
  1  2  1  0
  2  3  2  0
  2  4  1  0
  4  5  1  0
  5  6  1  0
  6  7  1  0
  7  8  1  0
  8  9  2  0
  8 10  1  0
 10 11  1  0
 11 12  1  0
 12 13  1  0
 13 14  1  0
 14 15  1  0
 15 16  2  0
 16 17  1  0
 16 18  1  0
 16 19  2  0
 13 20  1  0
 10 21  1  0
 20 21  1  0
  7 22  1  0
  4 23  1  0
 22 23  1  0
M  END
