piperidine-amides-29680-covalent
     RDKit          3D

 27 29  0  0  0  0  0  0  0  0999 V2000
    7.0470   -3.3260   19.3430 C   0  0  0  0  0  0  0  0  0  0  0  0
    6.3470   -4.1550   20.3220 C   0  0  0  0  0  0  0  0  0  0  0  0
    5.3770   -4.8270   19.9760 O   0  0  0  0  0  0  0  0  0  0  0  0
    6.8150   -4.2200   21.6790 N   0  0  0  0  0  0  0  0  0  0  0  0
    7.7020   -3.1910   22.1820 C   0  0  0  0  0  0  0  0  0  0  0  0
    7.5420   -3.0160   23.6630 C   0  0  0  0  0  0  0  0  0  0  0  0
    6.1700   -3.5520   24.0150 C   0  0  0  0  0  0  0  0  0  0  0  0
    5.8130   -3.2560   25.4290 C   0  0  0  0  0  0  0  0  0  0  0  0
    4.6350   -3.3390   25.8280 O   0  0  0  0  0  0  0  0  0  0  0  0
    6.8290   -2.8650   26.3450 N   0  0  0  0  0  0  0  0  0  0  0  0
    7.6760   -3.9010   26.9010 C   0  0  0  0  0  0  0  0  0  0  0  0
    6.7850   -1.5160   26.8930 C   0  0  2  0  0  0  0  0  0  0  0  0
    7.4030   -1.3560   28.0760 C   0  0  0  0  0  0  0  0  0  0  0  0
    6.8150   -0.4820   28.9590 C   0  0  0  0  0  0  0  0  0  0  0  0
    5.9810    0.5450   29.4160 O   0  0  0  0  0  0  0  0  0  0  0  0
    6.1750   -0.0990   27.7150 N   0  0  0  0  0  0  0  0  0  0  0  0
    5.6760    1.2260   27.5570 C   0  0  0  0  0  0  0  0  0  0  0  0
    6.6710    2.3080   27.6070 C   0  0  0  0  0  0  0  0  0  0  0  0
    7.2270    2.9630   26.4980 C   0  0  0  0  0  0  0  0  0  0  0  0
    8.1530    3.9720   26.6260 C   0  0  0  0  0  0  0  0  0  0  0  0
    8.5860    4.3980   27.8480 C   0  0  0  0  0  0  0  0  0  0  0  0
    8.0220    3.7370   29.0080 C   0  0  0  0  0  0  0  0  0  0  0  0
    7.0860    2.7160   28.8860 C   0  0  0  0  0  0  0  0  0  0  0  0
    5.4620   -1.1480   26.9630 C   0  0  0  0  0  0  0  0  0  0  0  0
    4.4490   -0.4650   27.2760 O   0  0  0  0  0  0  0  0  0  0  0  0
    6.1120   -5.0490   23.8130 C   0  0  0  0  0  0  0  0  0  0  0  0
    6.6750   -5.4380   22.4390 C   0  0  0  0  0  0  0  0  0  0  0  0
  1  2  1  0
  2  3  2  0
  2  4  1  0
  4  5  1  0
  5  6  1  0
  6  7  1  0
  7  8  1  0
  8  9  2  0
  8 10  1  0
 10 11  1  0
 12 10  1  1
 12 13  1  0
 13 14  1  0
 14 15  2  0
 14 16  1  0
 16 17  1  0
 17 18  1  0
 18 19  2  0
 19 20  1  0
 20 21  2  0
 21 22  1  0
 18 23  1  0
 22 23  2  0
 12 24  1  0
 16 24  1  0
 24 25  2  0
  7 26  1  0
  4 27  1  0
 26 27  1  0
M  END
