piperidine-amides-10605-covalent
     RDKit          3D

 23 24  0  0  0  0  0  0  0  0999 V2000
    7.0920   -3.2650   19.1720 C   0  0  0  0  0  0  0  0  0  0  0  0
    6.3320   -3.9950   20.1950 C   0  0  0  0  0  0  0  0  0  0  0  0
    5.2340   -4.5000   19.8470 O   0  0  0  0  0  0  0  0  0  0  0  0
    6.8440   -4.1570   21.4720 N   0  0  0  0  0  0  0  0  0  0  0  0
    7.7200   -3.1700   22.0630 C   0  0  0  0  0  0  0  0  0  0  0  0
    7.1440   -2.7760   23.3780 C   0  0  0  0  0  0  0  0  0  0  0  0
    6.7730   -3.9780   24.2010 C   0  0  0  0  0  0  0  0  0  0  0  0
    6.1830   -3.5150   25.4600 C   0  0  0  0  0  0  0  0  0  0  0  0
    4.9330   -3.5090   25.5990 O   0  0  0  0  0  0  0  0  0  0  0  0
    7.0210   -3.0600   26.4910 N   0  0  0  0  0  0  0  0  0  0  0  0
    6.8690   -3.4790   27.8490 C   0  0  1  0  0  0  0  0  0  0  0  0
    7.9710   -4.4820   28.2030 C   0  0  0  0  0  0  0  0  0  0  0  0
    6.8620   -2.2690   28.7110 C   0  0  0  0  0  0  0  0  0  0  0  0
    7.6890   -1.1770   28.5930 N   0  0  0  0  0  0  0  0  0  0  0  0
    7.4930   -0.2230   29.4730 O   0  0  0  0  0  0  0  0  0  0  0  0
    6.4740   -0.7720   30.1630 C   0  0  0  0  0  0  0  0  0  0  0  0
    5.7930   -0.2370   31.2530 C   0  0  0  0  0  0  0  0  0  0  0  0
    6.5140    0.5740   32.1270 O   0  0  0  0  0  0  0  0  0  0  0  0
    6.5780    0.2960   33.4970 C   0  0  0  0  0  0  0  0  0  0  0  0
    7.8840    0.0500   33.8700 C   0  0  0  0  0  0  0  0  0  0  0  0
    6.0700   -1.9700   29.7550 N   0  0  0  0  0  0  0  0  0  0  0  0
    5.7880   -4.8860   23.4590 C   0  0  0  0  0  0  0  0  0  0  0  0
    6.5200   -5.3470   22.2060 C   0  0  0  0  0  0  0  0  0  0  0  0
  1  2  1  0
  2  3  2  0
  2  4  1  0
  4  5  1  0
  5  6  1  0
  6  7  1  0
  7  8  1  0
  8  9  2  0
  8 10  1  0
 10 11  1  0
 11 12  1  1
 11 13  1  0
 13 14  2  0
 14 15  1  0
 15 16  1  0
 16 17  1  0
 17 18  1  0
 18 19  1  0
 19 20  1  0
 13 21  1  0
 16 21  2  0
  7 22  1  0
  4 23  1  0
 22 23  1  0
M  END
