piperidine-amides-33953-covalent
     RDKit          3D

 29 31  0  0  0  0  0  0  0  0999 V2000
    6.9510   -3.3490   19.4950 C   0  0  0  0  0  0  0  0  0  0  0  0
    6.3230   -4.2640   20.4740 C   0  0  0  0  0  0  0  0  0  0  0  0
    5.4330   -5.0300   20.0320 O   0  0  0  0  0  0  0  0  0  0  0  0
    6.6910   -4.3370   21.8600 N   0  0  0  0  0  0  0  0  0  0  0  0
    7.4460   -3.2540   22.5090 C   0  0  0  0  0  0  0  0  0  0  0  0
    7.4390   -3.3630   24.0770 C   0  0  0  0  0  0  0  0  0  0  0  0
    6.3140   -4.2990   24.5000 C   0  0  0  0  0  0  0  0  0  0  0  0
    5.9810   -4.3700   26.0140 C   0  0  0  0  0  0  0  0  0  0  0  0
    4.8590   -3.8620   26.2620 O   0  0  0  0  0  0  0  0  0  0  0  0
    6.7900   -4.9000   27.1690 N   0  0  0  0  0  0  0  0  0  0  0  0
    7.5730   -3.9120   27.8760 C   0  0  0  0  0  0  0  0  0  0  0  0
    6.7540   -6.3510   27.7220 C   0  0  0  0  0  0  0  0  0  0  0  0
    6.1920   -6.6560   29.0240 C   0  0  0  0  0  0  0  0  0  0  0  0
    5.4640   -5.6730   29.5510 C   0  0  0  0  0  0  0  0  0  0  0  0
    4.8610   -5.8340   30.7400 C   0  0  0  0  0  0  0  0  0  0  0  0
    4.9810   -6.9810   31.4470 C   0  0  0  0  0  0  0  0  0  0  0  0
    5.7210   -8.2850   31.1640 C   0  0  0  0  0  0  0  0  0  0  0  0
    6.3410   -7.9760   29.7880 C   0  0  0  0  0  0  0  0  0  0  0  0
    6.9810   -9.2170   29.5350 O   0  0  0  0  0  0  0  0  0  0  0  0
    7.8960  -10.2940   30.2230 C   0  0  0  0  0  0  0  0  0  0  0  0
    8.9690  -10.9730   29.3760 C   0  0  0  0  0  0  0  0  0  0  0  0
    9.8620  -11.9500   29.8410 C   0  0  0  0  0  0  0  0  0  0  0  0
    9.8450  -12.3950   31.1130 C   0  0  0  0  0  0  0  0  0  0  0  0
   10.7010  -13.3370   31.5740 F   0  0  0  0  0  0  0  0  0  0  0  0
    8.8530  -11.8450   32.0370 C   0  0  0  0  0  0  0  0  0  0  0  0
    8.8000  -12.4130   33.6920 Cl  0  0  0  0  0  0  0  0  0  0  0  0
    7.9210  -10.8100   31.5160 C   0  0  0  0  0  0  0  0  0  0  0  0
    6.4340   -5.6350   23.8740 C   0  0  0  0  0  0  0  0  0  0  0  0
    6.4860   -5.6360   22.4870 C   0  0  0  0  0  0  0  0  0  0  0  0
  1  2  1  0
  2  3  2  0
  2  4  1  0
  4  5  1  0
  5  6  1  0
  6  7  1  0
  7  8  1  0
  8  9  2  0
  8 10  1  0
 10 11  1  0
 10 12  1  0
 12 13  1  0
 13 14  2  0
 14 15  1  0
 15 16  2  0
 16 17  1  0
 13 18  1  0
 17 18  2  0
 18 19  1  0
 19 20  1  0
 20 21  2  0
 21 22  1  0
 22 23  2  0
 23 24  1  0
 23 25  1  0
 25 26  1  0
 20 27  1  0
 25 27  2  0
  7 28  1  0
  4 29  1  0
 28 29  1  0
M  END
