piperidine-amides-5410-covalent
     RDKit          3D

 20 21  0  0  0  0  0  0  0  0999 V2000
    7.1480   -3.2800   19.1920 C   0  0  0  0  0  0  0  0  0  0  0  0
    6.3120   -3.9640   20.1750 C   0  0  0  0  0  0  0  0  0  0  0  0
    5.2210   -4.4400   19.8310 O   0  0  0  0  0  0  0  0  0  0  0  0
    6.7540   -4.1470   21.4860 N   0  0  0  0  0  0  0  0  0  0  0  0
    7.6480   -3.2000   22.1210 C   0  0  0  0  0  0  0  0  0  0  0  0
    6.9170   -2.6920   23.3250 C   0  0  0  0  0  0  0  0  0  0  0  0
    6.4870   -3.8380   24.1770 C   0  0  0  0  0  0  0  0  0  0  0  0
    5.8070   -3.3830   25.4060 C   0  0  0  0  0  0  0  0  0  0  0  0
    4.5490   -3.2320   25.4290 O   0  0  0  0  0  0  0  0  0  0  0  0
    6.5200   -3.1000   26.5900 N   0  0  0  0  0  0  0  0  0  0  0  0
    5.9740   -3.4740   27.9070 C   0  0  1  0  0  0  0  0  0  0  0  0
    6.6720   -4.6590   28.4730 C   0  0  0  0  0  0  0  0  0  0  0  0
    6.1700   -2.2980   28.8820 C   0  0  0  0  0  0  0  0  0  0  0  0
    7.3390   -1.4630   29.0890 N   0  0  0  0  0  0  0  0  0  0  0  0
    7.0460   -0.5870   30.0190 N   0  0  0  0  0  0  0  0  0  0  0  0
    5.7980   -0.8190   30.3940 N   0  0  0  0  0  0  0  0  0  0  0  0
    5.2510   -1.8360   29.7320 N   0  0  0  0  0  0  0  0  0  0  0  0
    3.8910   -2.3120   29.9390 C   0  0  0  0  0  0  0  0  0  0  0  0
    5.7690   -4.9370   23.4840 C   0  0  0  0  0  0  0  0  0  0  0  0
    6.4400   -5.3320   22.2280 C   0  0  0  0  0  0  0  0  0  0  0  0
  1  2  1  0
  2  3  2  0
  2  4  1  0
  4  5  1  0
  5  6  1  0
  6  7  1  0
  7  8  1  0
  8  9  2  0
  8 10  1  0
 10 11  1  0
 11 12  1  1
 11 13  1  0
 13 14  2  0
 14 15  1  0
 15 16  2  0
 13 17  1  0
 16 17  1  0
 17 18  1  0
  7 19  1  0
  4 20  1  0
 19 20  1  0
M  END
