piperidine-amides-8125-covalent
     RDKit          3D

 25 27  0  0  0  0  0  0  0  0999 V2000
    7.1070   -3.3420   19.3050 C   0  0  0  0  0  0  0  0  0  0  0  0
    6.3770   -4.1400   20.2780 C   0  0  0  0  0  0  0  0  0  0  0  0
    5.3130   -4.6760   19.9300 O   0  0  0  0  0  0  0  0  0  0  0  0
    6.9250   -4.3290   21.5630 N   0  0  0  0  0  0  0  0  0  0  0  0
    6.4410   -5.4240   22.3460 C   0  0  0  0  0  0  0  0  0  0  0  0
    5.6070   -4.8680   23.4630 C   0  0  0  0  0  0  0  0  0  0  0  0
    6.4980   -3.9040   24.2170 C   0  0  0  0  0  0  0  0  0  0  0  0
    5.7970   -3.3160   25.3960 C   0  0  0  0  0  0  0  0  0  0  0  0
    4.5730   -3.4250   25.4380 O   0  0  0  0  0  0  0  0  0  0  0  0
    6.5920   -2.6830   26.3350 N   0  0  0  0  0  0  0  0  0  0  0  0
    6.0730   -1.6800   27.2000 C   0  0  1  0  0  0  0  0  0  0  0  0
    6.8940   -1.3840   28.2280 C   0  0  0  0  0  0  0  0  0  0  0  0
    6.7190   -0.1770   28.9040 C   0  0  0  0  0  0  0  0  0  0  0  0
    6.0690    1.2250   28.6330 C   0  0  0  0  0  0  0  0  0  0  0  0
    6.0460    2.3770   29.6000 C   0  0  0  0  0  0  0  0  0  0  0  0
    6.7010    1.5080   30.3490 C   0  0  0  0  0  0  0  0  0  0  0  0
    7.2560    1.6030   31.7230 C   0  0  0  0  0  0  0  0  0  0  0  0
    8.0970    2.4920   32.0270 O   0  0  0  0  0  0  0  0  0  0  0  0
    6.8410    0.7120   32.6900 O   0  0  0  0  0  0  0  0  0  0  0  0
    5.5650    0.1130   32.6140 C   0  0  0  0  0  0  0  0  0  0  0  0
    6.6270    0.5320   29.3170 C   0  0  0  0  0  0  0  0  0  0  0  0
    6.0450    0.4370   27.8810 C   0  0  0  0  0  0  0  0  0  0  0  0
    5.9180   -0.4520   26.8130 C   0  0  0  0  0  0  0  0  0  0  0  0
    6.9740   -2.7720   23.3850 C   0  0  0  0  0  0  0  0  0  0  0  0
    7.6960   -3.2870   22.1900 C   0  0  0  0  0  0  0  0  0  0  0  0
  1  2  1  0
  2  3  2  0
  2  4  1  0
  4  5  1  0
  5  6  1  0
  6  7  1  0
  7  8  1  0
  8  9  2  0
  8 10  1  0
 11 10  1  6
 11 12  1  0
 12 13  1  0
 13 14  1  0
 14 15  2  0
 15 16  1  0
 16 17  1  0
 17 18  2  0
 17 19  1  0
 19 20  1  0
 16 21  2  0
 13 22  2  0
 21 22  1  0
 11 23  1  0
 22 23  1  0
  7 24  1  0
  4 25  1  0
 24 25  1  0
M  END
