piperidine-amides-10771-covalent
     RDKit          3D

 22 23  0  0  0  0  0  0  0  0999 V2000
    7.1580   -3.2980   19.2470 C   0  0  0  0  0  0  0  0  0  0  0  0
    6.3600   -4.0260   20.2290 C   0  0  0  0  0  0  0  0  0  0  0  0
    5.2750   -4.5250   19.8790 O   0  0  0  0  0  0  0  0  0  0  0  0
    6.8180   -4.2370   21.5340 N   0  0  0  0  0  0  0  0  0  0  0  0
    6.5070   -5.4210   22.2840 C   0  0  0  0  0  0  0  0  0  0  0  0
    5.8000   -4.9270   23.5160 C   0  0  0  0  0  0  0  0  0  0  0  0
    6.5530   -3.8120   24.2020 C   0  0  0  0  0  0  0  0  0  0  0  0
    5.8350   -3.2720   25.3780 C   0  0  0  0  0  0  0  0  0  0  0  0
    4.5720   -3.1540   25.3550 O   0  0  0  0  0  0  0  0  0  0  0  0
    6.4900   -2.8670   26.5620 N   0  0  0  0  0  0  0  0  0  0  0  0
    6.1830   -3.5290   27.8470 C   0  0  0  0  0  0  0  0  0  0  0  0
    5.6680   -2.4950   28.7720 C   0  0  0  0  0  0  0  0  0  0  0  0
    6.5930   -1.7290   29.3920 N   0  0  0  0  0  0  0  0  0  0  0  0
    6.0710   -0.7730   30.2540 C   0  0  0  0  0  0  0  0  0  0  0  0
    6.9370    0.1740   31.0460 C   0  0  0  0  0  0  0  0  0  0  0  0
    7.8750    0.8090   30.2680 O   0  0  0  0  0  0  0  0  0  0  0  0
    6.7700    0.3390   32.3870 O   0  0  0  0  0  0  0  0  0  0  0  0
    7.8630    0.2980   33.2970 C   0  0  0  0  0  0  0  0  0  0  0  0
    4.5590   -0.7290   30.3710 C   0  0  0  0  0  0  0  0  0  0  0  0
    4.0940   -1.9940   29.2910 S   0  0  0  0  0  0  0  0  0  0  0  0
    6.8380   -2.7030   23.2190 C   0  0  0  0  0  0  0  0  0  0  0  0
    7.6060   -3.2030   22.1710 C   0  0  0  0  0  0  0  0  0  0  0  0
  1  2  1  0
  2  3  2  0
  2  4  1  0
  4  5  1  0
  5  6  1  0
  6  7  1  0
  7  8  1  0
  8  9  2  0
  8 10  1  0
 10 11  1  0
 11 12  1  0
 12 13  2  0
 13 14  1  0
 14 15  1  0
 15 16  2  0
 15 17  1  0
 17 18  1  0
 14 19  2  0
 12 20  1  0
 19 20  1  0
  7 21  1  0
  4 22  1  0
 21 22  1  0
M  END
