piperidine-amides-33357-covalent
     RDKit          3D

 30 32  0  0  0  0  0  0  0  0999 V2000
    7.0900   -3.3280   19.2710 C   0  0  0  0  0  0  0  0  0  0  0  0
    6.3890   -4.1290   20.2850 C   0  0  0  0  0  0  0  0  0  0  0  0
    5.3200   -4.6790   19.9330 O   0  0  0  0  0  0  0  0  0  0  0  0
    6.9360   -4.3180   21.5750 N   0  0  0  0  0  0  0  0  0  0  0  0
    6.4020   -5.3540   22.3810 C   0  0  0  0  0  0  0  0  0  0  0  0
    5.7790   -4.8980   23.6270 C   0  0  0  0  0  0  0  0  0  0  0  0
    6.4860   -3.8130   24.3560 C   0  0  0  0  0  0  0  0  0  0  0  0
    5.5770   -3.1630   25.3580 C   0  0  0  0  0  0  0  0  0  0  0  0
    4.4080   -2.8800   25.0330 O   0  0  0  0  0  0  0  0  0  0  0  0
    6.0240   -2.8780   26.6580 N   0  0  0  0  0  0  0  0  0  0  0  0
    6.8210   -3.7110   27.4180 C   0  0  0  0  0  0  0  0  0  0  0  0
    8.0540   -4.0090   26.8070 C   0  0  0  0  0  0  0  0  0  0  0  0
    8.3340   -5.4560   27.1220 C   0  0  0  0  0  0  0  0  0  0  0  0
    9.4160   -6.0860   26.7090 C   0  0  0  0  0  0  0  0  0  0  0  0
   10.3630   -5.2530   25.9180 C   0  0  0  0  0  0  0  0  0  0  0  0
    9.9200   -3.8640   25.7010 C   0  0  0  0  0  0  0  0  0  0  0  0
    8.8410   -3.1950   26.0750 N   0  0  0  0  0  0  0  0  0  0  0  0
    5.7470   -1.6340   27.2830 C   0  0  0  0  0  0  0  0  0  0  0  0
    5.5940   -0.3440   26.4990 C   0  0  0  0  0  0  0  0  0  0  0  0
    5.2810    0.9150   27.2640 C   0  0  0  0  0  0  0  0  0  0  0  0
    5.1290    0.8600   28.7750 C   0  0  0  0  0  0  0  0  0  0  0  0
    4.8490    2.0580   29.2970 N   0  0  0  0  0  0  0  0  0  0  0  0
    5.4820    2.4460   30.5610 C   0  0  0  0  0  0  0  0  0  0  0  0
    6.6020    3.1240   30.0820 C   0  0  0  0  0  0  0  0  0  0  0  0
    4.1650    3.0020   28.4600 C   0  0  0  0  0  0  0  0  0  0  0  0
    5.1770    3.7870   27.6570 C   0  0  0  0  0  0  0  0  0  0  0  0
    5.2750   -0.2980   29.4820 C   0  0  0  0  0  0  0  0  0  0  0  0
    5.5960   -1.6210   28.7970 C   0  0  0  0  0  0  0  0  0  0  0  0
    7.0660   -2.7820   23.4710 C   0  0  0  0  0  0  0  0  0  0  0  0
    7.6970   -3.3060   22.2470 C   0  0  0  0  0  0  0  0  0  0  0  0
  1  2  1  0
  2  3  2  0
  2  4  1  0
  4  5  1  0
  5  6  1  0
  6  7  1  0
  7  8  1  0
  8  9  2  0
  8 10  1  0
 10 11  1  0
 11 12  1  0
 12 13  2  0
 13 14  1  0
 14 15  2  0
 15 16  1  0
 12 17  1  0
 16 17  2  0
 10 18  1  0
 18 19  2  0
 19 20  1  0
 20 21  2  0
 21 22  1  0
 22 23  1  0
 23 24  1  0
 22 25  1  0
 25 26  1  0
 21 27  1  0
 18 28  1  0
 27 28  2  0
  7 29  1  0
  4 30  1  0
 29 30  1  0
M  END
