piperidine-amides-189-covalent
     RDKit          3D

 25 26  0  0  0  0  0  0  0  0999 V2000
    7.1290   -3.3530   19.1860 C   0  0  0  0  0  0  0  0  0  0  0  0
    6.4210   -4.0500   20.2320 C   0  0  0  0  0  0  0  0  0  0  0  0
    5.3200   -4.6030   19.9200 O   0  0  0  0  0  0  0  0  0  0  0  0
    6.9420   -4.1920   21.5350 N   0  0  0  0  0  0  0  0  0  0  0  0
    6.4910   -5.3350   22.3440 C   0  0  0  0  0  0  0  0  0  0  0  0
    5.5500   -4.5550   23.3350 C   0  0  0  0  0  0  0  0  0  0  0  0
    6.4310   -3.5460   24.0530 C   0  0  0  0  0  0  0  0  0  0  0  0
    5.6610   -2.8740   25.2610 C   0  0  0  0  0  0  0  0  0  0  0  0
    5.0520   -1.8800   24.9020 O   0  0  0  0  0  0  0  0  0  0  0  0
    5.8670   -3.5610   26.2930 N   0  0  0  0  0  0  0  0  0  0  0  0
    5.9720   -4.3260   27.3910 C   0  0  0  0  0  0  0  0  0  0  0  0
    5.6700   -5.5740   27.8250 C   0  0  1  0  0  0  0  0  0  0  0  0
    5.9690   -5.7870   29.1800 C   0  0  0  0  0  0  0  0  0  0  0  0
    7.3040   -6.0420   29.4270 O   0  0  0  0  0  0  0  0  0  0  0  0
    4.9950   -5.7360   30.1770 O   0  0  0  0  0  0  0  0  0  0  0  0
    4.6430   -6.8330   30.9620 C   0  0  0  0  0  0  0  0  0  0  0  0
    5.6750   -7.6240   31.7750 C   0  0  0  0  0  0  0  0  0  0  0  0
    4.6060   -6.6360   32.4900 C   0  0  0  0  0  0  0  0  0  0  0  0
    3.5760   -7.7280   30.3950 C   0  0  0  0  0  0  0  0  0  0  0  0
    4.1600   -5.7390   27.8640 C   0  0  0  0  0  0  0  0  0  0  0  0
    4.3880   -7.1970   27.5940 C   0  0  0  0  0  0  0  0  0  0  0  0
    3.6060   -6.9870   26.5240 C   0  0  0  0  0  0  0  0  0  0  0  0
    3.3010   -5.6050   26.6430 C   0  0  0  0  0  0  0  0  0  0  0  0
    7.1260   -2.5410   23.1530 C   0  0  0  0  0  0  0  0  0  0  0  0
    7.7810   -3.1900   22.1520 C   0  0  0  0  0  0  0  0  0  0  0  0
  1  2  1  0
  2  3  2  0
  2  4  1  0
  4  5  1  0
  5  6  1  0
  6  7  1  0
  7  8  1  0
  8  9  2  0
  8 10  1  0
 10 11  1  0
 12 11  1  1
 12 13  1  0
 13 14  2  0
 13 15  1  0
 16 15  1  0
 16 17  1  0
 16 18  1  0
 16 19  1  0
 12 20  1  0
 20 21  1  0
 21 22  1  0
 20 23  1  0
 22 23  1  0
  7 24  1  0
  4 25  1  0
 24 25  1  0
M  END
