piperidine-amides-11488-covalent
     RDKit          3D

 23 25  0  0  0  0  0  0  0  0999 V2000
    7.1150   -3.2800   19.1970 C   0  0  0  0  0  0  0  0  0  0  0  0
    6.3560   -4.0080   20.2140 C   0  0  0  0  0  0  0  0  0  0  0  0
    5.3070   -4.5870   19.8980 O   0  0  0  0  0  0  0  0  0  0  0  0
    6.8290   -4.1030   21.5280 N   0  0  0  0  0  0  0  0  0  0  0  0
    7.7450   -3.1450   22.0900 C   0  0  0  0  0  0  0  0  0  0  0  0
    7.1120   -2.6750   23.3650 C   0  0  0  0  0  0  0  0  0  0  0  0
    6.6890   -3.8110   24.2540 C   0  0  0  0  0  0  0  0  0  0  0  0
    5.9360   -3.3100   25.4280 C   0  0  0  0  0  0  0  0  0  0  0  0
    4.6950   -3.0740   25.3140 O   0  0  0  0  0  0  0  0  0  0  0  0
    6.5190   -3.0550   26.6980 N   0  0  0  0  0  0  0  0  0  0  0  0
    7.8270   -3.6170   27.1050 C   0  0  0  0  0  0  0  0  0  0  0  0
    7.6770   -4.8010   28.0030 C   0  0  2  0  0  0  0  0  0  0  0  0
    7.6270   -5.9020   27.2400 N   0  0  0  0  0  0  0  0  0  0  0  0
    7.0390   -6.7320   28.0240 N   0  0  0  0  0  0  0  0  0  0  0  0
    6.2930   -6.1570   29.1410 C   0  0  2  0  0  0  0  0  0  0  0  0
    4.8940   -6.4990   29.0270 C   0  0  0  0  0  0  0  0  0  0  0  0
    5.0480   -7.7820   29.4750 O   0  0  0  0  0  0  0  0  0  0  0  0
    3.6550   -6.1630   28.7760 N   0  0  0  0  0  0  0  0  0  0  0  0
    3.9770   -4.7340   28.8860 C   0  0  0  0  0  0  0  0  0  0  0  0
    5.3250   -4.3720   28.2320 C   0  0  0  0  0  0  0  0  0  0  0  0
    6.4530   -4.8490   28.8940 N   0  0  0  0  0  0  0  0  0  0  0  0
    5.8390   -4.7950   23.4670 C   0  0  0  0  0  0  0  0  0  0  0  0
    6.4790   -5.2590   22.3080 C   0  0  0  0  0  0  0  0  0  0  0  0
  1  2  1  0
  2  3  2  0
  2  4  1  0
  4  5  1  0
  5  6  1  0
  6  7  1  0
  7  8  1  0
  8  9  2  0
  8 10  1  0
 10 11  1  0
 12 11  1  6
 12 13  1  0
 13 14  1  0
 15 14  1  6
 15 16  1  0
 16 17  2  0
 16 18  1  0
 18 19  1  0
 19 20  1  0
 12 21  1  0
 15 21  1  0
 20 21  1  0
  7 22  1  0
  4 23  1  0
 22 23  1  0
M  END
