piperidine-amides-14543-covalent
     RDKit          3D

 23 24  0  0  0  0  0  0  0  0999 V2000
    7.0680   -3.3100   19.2910 C   0  0  0  0  0  0  0  0  0  0  0  0
    6.3450   -4.0970   20.2870 C   0  0  0  0  0  0  0  0  0  0  0  0
    5.2990   -4.6600   19.9250 O   0  0  0  0  0  0  0  0  0  0  0  0
    6.8590   -4.2510   21.6060 N   0  0  0  0  0  0  0  0  0  0  0  0
    7.6180   -3.1990   22.2180 C   0  0  0  0  0  0  0  0  0  0  0  0
    6.9110   -2.7240   23.4570 C   0  0  0  0  0  0  0  0  0  0  0  0
    6.5600   -3.9490   24.2780 C   0  0  0  0  0  0  0  0  0  0  0  0
    5.7130   -3.5590   25.4690 C   0  0  0  0  0  0  0  0  0  0  0  0
    4.5730   -3.1790   25.2080 O   0  0  0  0  0  0  0  0  0  0  0  0
    6.2480   -3.6410   26.7620 N   0  0  0  0  0  0  0  0  0  0  0  0
    5.6760   -4.4240   27.8270 C   0  0  0  0  0  0  0  0  0  0  0  0
    6.2900   -5.6650   28.1590 C   0  0  0  0  0  0  0  0  0  0  0  0
    5.5750   -6.6930   28.7390 C   0  0  0  0  0  0  0  0  0  0  0  0
    6.4210   -7.6150   29.3560 O   0  0  0  0  0  0  0  0  0  0  0  0
    6.4990   -8.1150   30.5960 C   0  0  0  0  0  0  0  0  0  0  0  0
    7.1930   -9.5370   30.9980 C   0  0  0  0  0  0  0  0  0  0  0  0
    8.3850  -10.3800   30.8010 C   0  0  0  0  0  0  0  0  0  0  0  0
    8.5560  -11.5640   31.7240 C   0  0  0  0  0  0  0  0  0  0  0  0
    8.8470  -12.2200   30.6640 O   0  0  0  0  0  0  0  0  0  0  0  0
    8.7250  -11.1800   29.7200 C   0  0  0  0  0  0  0  0  0  0  0  0
    7.3210  -10.5410   30.1350 C   0  0  0  0  0  0  0  0  0  0  0  0
    5.7140   -4.8960   23.4500 C   0  0  0  0  0  0  0  0  0  0  0  0
    6.4890   -5.3770   22.4140 C   0  0  0  0  0  0  0  0  0  0  0  0
  1  2  1  0
  2  3  2  0
  2  4  1  0
  4  5  1  0
  5  6  1  0
  6  7  1  0
  7  8  1  0
  8  9  2  0
  8 10  1  0
 10 11  1  0
 11 12  1  0
 12 13  1  0
 13 14  1  0
 14 15  1  0
 15 16  1  0
 16 17  1  0
 17 18  1  0
 18 19  1  0
 19 20  1  0
 16 21  1  0
 20 21  1  0
  7 22  1  0
  4 23  1  0
 22 23  1  0
M  END
