piperidine-amides-32653-covalent
     RDKit          3D

 28 29  0  0  0  0  0  0  0  0999 V2000
    7.1110   -3.2610   19.2010 C   0  0  0  0  0  0  0  0  0  0  0  0
    6.3490   -4.0430   20.2100 C   0  0  0  0  0  0  0  0  0  0  0  0
    5.2730   -4.5720   19.8890 O   0  0  0  0  0  0  0  0  0  0  0  0
    6.8980   -4.2080   21.4880 N   0  0  0  0  0  0  0  0  0  0  0  0
    7.7080   -3.1940   22.1280 C   0  0  0  0  0  0  0  0  0  0  0  0
    6.8300   -2.5710   23.2080 C   0  0  0  0  0  0  0  0  0  0  0  0
    6.5440   -3.6810   24.1480 C   0  0  0  0  0  0  0  0  0  0  0  0
    5.7480   -3.2750   25.3210 C   0  0  0  0  0  0  0  0  0  0  0  0
    4.5180   -3.3910   25.2250 O   0  0  0  0  0  0  0  0  0  0  0  0
    6.3810   -2.7820   26.4620 N   0  0  0  0  0  0  0  0  0  0  0  0
    6.9020   -1.4570   26.5320 C   0  0  0  0  0  0  0  0  0  0  0  0
    6.1150   -0.3340   26.5820 C   0  0  0  0  0  0  0  0  0  0  0  0
    6.3540   -3.3770   27.7660 C   0  0  0  0  0  0  0  0  0  0  0  0
    6.7530   -2.5440   28.7750 C   0  0  0  0  0  0  0  0  0  0  0  0
    7.9350   -2.0440   29.0760 O   0  0  0  0  0  0  0  0  0  0  0  0
    5.8020   -2.1260   29.6520 N   0  0  0  0  0  0  0  0  0  0  0  0
    5.9560   -0.9400   30.2760 C   0  0  0  0  0  0  0  0  0  0  0  0
    7.3170   -0.3260   30.5960 C   0  0  0  0  0  0  0  0  0  0  0  0
    7.2420    0.9980   31.2940 C   0  0  0  0  0  0  0  0  0  0  0  0
    6.0830    1.6280   31.6300 C   0  0  0  0  0  0  0  0  0  0  0  0
    4.6760    1.1890   31.4020 C   0  0  0  0  0  0  0  0  0  0  0  0
    4.7110   -0.1810   30.6820 C   0  0  0  0  0  0  0  0  0  0  0  0
    3.5350   -0.8160   30.3570 C   0  0  0  0  0  0  0  0  0  0  0  0
    3.4740   -1.5430   29.2230 F   0  0  0  0  0  0  0  0  0  0  0  0
    3.1110   -1.6960   31.2740 F   0  0  0  0  0  0  0  0  0  0  0  0
    2.5430    0.1380   30.1910 F   0  0  0  0  0  0  0  0  0  0  0  0
    5.8640   -4.8640   23.5320 C   0  0  0  0  0  0  0  0  0  0  0  0
    6.5500   -5.3700   22.2830 C   0  0  0  0  0  0  0  0  0  0  0  0
  1  2  1  0
  2  3  2  0
  2  4  1  0
  4  5  1  0
  5  6  1  0
  6  7  1  0
  7  8  1  0
  8  9  2  0
  8 10  1  0
 10 11  1  0
 11 12  1  0
 10 13  1  0
 13 14  1  0
 14 15  2  0
 14 16  1  0
 16 17  1  0
 17 18  2  0
 18 19  1  0
 19 20  2  0
 20 21  1  0
 17 22  1  0
 21 22  2  0
 22 23  1  0
 23 24  1  0
 23 25  1  0
 23 26  1  0
  7 27  1  0
  4 28  1  0
 27 28  1  0
M  END
