piperidine-amides-29509-covalent
     RDKit          3D

 27 30  0  0  0  0  0  0  0  0999 V2000
    7.0400   -3.3240   19.3730 C   0  0  0  0  0  0  0  0  0  0  0  0
    6.3460   -4.1620   20.3480 C   0  0  0  0  0  0  0  0  0  0  0  0
    5.3960   -4.8570   19.9840 O   0  0  0  0  0  0  0  0  0  0  0  0
    6.7830   -4.2120   21.7230 N   0  0  0  0  0  0  0  0  0  0  0  0
    7.6540   -3.1740   22.2500 C   0  0  0  0  0  0  0  0  0  0  0  0
    7.5390   -3.0400   23.7520 C   0  0  0  0  0  0  0  0  0  0  0  0
    6.1740   -3.5760   24.1360 C   0  0  0  0  0  0  0  0  0  0  0  0
    5.7560   -3.2920   25.5620 C   0  0  0  0  0  0  0  0  0  0  0  0
    4.5470   -3.3880   25.8670 O   0  0  0  0  0  0  0  0  0  0  0  0
    6.6790   -2.8890   26.6010 N   0  0  0  0  0  0  0  0  0  0  0  0
    7.8110   -3.7160   26.9280 C   0  0  0  0  0  0  0  0  0  0  0  0
    7.3290   -5.1150   27.1750 C   0  0  0  0  0  0  0  0  0  0  0  0
    7.3480   -5.8020   28.2330 C   0  0  0  0  0  0  0  0  0  0  0  0
    8.6340   -5.9300   27.6210 C   0  0  0  0  0  0  0  0  0  0  0  0
    6.5200   -1.6240   27.3500 C   0  0  0  0  0  0  0  0  0  0  0  0
    6.4060   -0.0170   27.3000 C   0  0  0  0  0  0  0  0  0  0  0  0
    6.3360   -0.4340   28.4630 N   0  0  0  0  0  0  0  0  0  0  0  0
    6.4810   -1.5810   27.8370 C   0  0  0  0  0  0  0  0  0  0  0  0
    6.4210   -0.3880   27.5330 C   0  0  0  0  0  0  0  0  0  0  0  0
    6.5890   -1.0220   26.2150 C   0  0  0  0  0  0  0  0  0  0  0  0
    6.3020   -1.0280   29.3500 C   0  0  0  0  0  0  0  0  0  0  0  0
    6.1760    0.3590   29.5890 C   0  0  0  0  0  0  0  0  0  0  0  0
    6.4440   -2.4540   28.9660 N   0  0  0  0  0  0  0  0  0  0  0  0
    6.3620   -1.3610   28.9500 N   0  0  0  0  0  0  0  0  0  0  0  0
    6.2840    0.0490   28.6150 C   0  0  0  0  0  0  0  0  0  0  0  0
    6.1130   -5.0660   23.8790 C   0  0  0  0  0  0  0  0  0  0  0  0
    6.6400   -5.4330   22.4790 C   0  0  0  0  0  0  0  0  0  0  0  0
  1  2  1  0
  2  3  2  0
  2  4  1  0
  4  5  1  0
  5  6  1  0
  6  7  1  0
  7  8  1  0
  8  9  2  0
  8 10  1  0
 10 11  1  0
 11 12  1  0
 12 13  1  0
 12 14  1  0
 13 14  1  0
 10 15  1  0
 15 16  2  0
 16 17  1  0
 17 18  2  0
 18 19  1  0
 15 20  1  0
 19 20  2  0
 19 21  1  0
 21 22  1  0
 21 23  2  0
 18 24  1  0
 23 24  1  0
 24 25  1  0
  7 26  1  0
  4 27  1  0
 26 27  1  0
M  END
