piperidine-amides-19067-covalent
     RDKit          3D

 22 24  0  0  0  0  0  0  0  0999 V2000
    7.0970   -3.4110   19.3070 C   0  0  0  0  0  0  0  0  0  0  0  0
    6.4490   -4.1870   20.3360 C   0  0  0  0  0  0  0  0  0  0  0  0
    5.4070   -4.8350   19.9960 O   0  0  0  0  0  0  0  0  0  0  0  0
    6.9600   -4.3000   21.6530 N   0  0  0  0  0  0  0  0  0  0  0  0
    6.7100   -5.5320   22.4130 C   0  0  0  0  0  0  0  0  0  0  0  0
    5.7890   -4.9510   23.5520 C   0  0  0  0  0  0  0  0  0  0  0  0
    6.4230   -3.6760   24.1010 C   0  0  0  0  0  0  0  0  0  0  0  0
    5.3980   -2.9290   25.0440 C   0  0  0  0  0  0  0  0  0  0  0  0
    4.4590   -2.5270   24.3860 O   0  0  0  0  0  0  0  0  0  0  0  0
    5.7430   -2.9210   26.2610 N   0  0  0  0  0  0  0  0  0  0  0  0
    5.7370   -2.4390   27.4970 C   0  0  0  0  0  0  0  0  0  0  0  0
    5.1430   -2.8840   28.5480 C   0  0  0  0  0  0  0  0  0  0  0  0
    3.8340   -3.4190   28.5580 C   0  0  0  0  0  0  0  0  0  0  0  0
    5.5930   -2.1160   29.7880 C   0  0  0  0  0  0  0  0  0  0  0  0
    5.7130   -4.1860   28.2090 C   0  0  0  0  0  0  0  0  0  0  0  0
    5.8540   -5.3610   29.1740 C   0  0  0  0  0  0  0  0  0  0  0  0
    6.4040   -6.7640   29.1610 C   0  0  0  0  0  0  0  0  0  0  0  0
    6.7090   -6.3880   27.8100 C   0  0  0  0  0  0  0  0  0  0  0  0
    6.2060   -5.0860   27.7430 C   0  0  0  0  0  0  0  0  0  0  0  0
    6.1550   -4.2800   26.8180 C   0  0  0  0  0  0  0  0  0  0  0  0
    7.0330   -2.6780   23.1260 C   0  0  0  0  0  0  0  0  0  0  0  0
    7.8170   -3.3020   22.2360 C   0  0  0  0  0  0  0  0  0  0  0  0
  1  2  1  0
  2  3  2  0
  2  4  1  0
  4  5  1  0
  5  6  1  0
  6  7  1  0
  7  8  1  0
  8  9  2  0
  8 10  1  0
 10 11  1  0
 11 12  1  0
 12 13  1  0
 12 14  1  0
 12 15  1  0
 15 16  1  0
 16 17  2  0
 17 18  1  0
 18 19  2  0
 10 20  1  0
 15 20  2  0
 19 20  1  0
  7 21  1  0
  4 22  1  0
 21 22  1  0
M  END
