piperidine-amides-29171-covalent
     RDKit          3D

 22 23  0  0  0  0  0  0  0  0999 V2000
    7.0470   -3.3450   19.3130 C   0  0  0  0  0  0  0  0  0  0  0  0
    6.4050   -4.1880   20.3250 C   0  0  0  0  0  0  0  0  0  0  0  0
    5.3970   -4.8320   19.9820 O   0  0  0  0  0  0  0  0  0  0  0  0
    6.9620   -4.2890   21.6300 N   0  0  0  0  0  0  0  0  0  0  0  0
    7.6890   -3.1850   22.1800 C   0  0  0  0  0  0  0  0  0  0  0  0
    6.9000   -2.6350   23.3150 C   0  0  0  0  0  0  0  0  0  0  0  0
    6.6360   -3.8150   24.2140 C   0  0  0  0  0  0  0  0  0  0  0  0
    5.8200   -3.3680   25.3890 C   0  0  0  0  0  0  0  0  0  0  0  0
    4.6280   -3.1260   25.2130 O   0  0  0  0  0  0  0  0  0  0  0  0
    6.4390   -3.2730   26.6220 N   0  0  0  0  0  0  0  0  0  0  0  0
    6.4620   -1.9770   27.2790 C   0  0  0  0  0  0  0  0  0  0  0  0
    7.0150   -1.7230   28.5280 C   0  0  0  0  0  0  0  0  0  0  0  0
    7.0120   -0.4840   29.1270 C   0  0  0  0  0  0  0  0  0  0  0  0
    6.4640    0.6930   28.5890 C   0  0  0  0  0  0  0  0  0  0  0  0
    6.5150    2.3540   29.5310 Br  0  0  0  0  0  0  0  0  0  0  0  0
    5.8540    0.4740   27.2260 C   0  0  0  0  0  0  0  0  0  0  0  0
    5.8480   -0.9060   26.5370 C   0  0  0  0  0  0  0  0  0  0  0  0
    6.3890   -4.4900   27.4220 C   0  0  0  0  0  0  0  0  0  0  0  0
    7.1260   -4.3350   28.6870 C   0  0  0  0  0  0  0  0  0  0  0  0
    6.8240   -5.5340   26.6610 C   0  0  0  0  0  0  0  0  0  0  0  0
    5.7980   -4.8320   23.4510 C   0  0  0  0  0  0  0  0  0  0  0  0
    6.6360   -5.3930   22.5030 C   0  0  0  0  0  0  0  0  0  0  0  0
  1  2  1  0
  2  3  2  0
  2  4  1  0
  4  5  1  0
  5  6  1  0
  6  7  1  0
  7  8  1  0
  8  9  2  0
  8 10  1  0
 10 11  1  0
 11 12  2  0
 12 13  1  0
 13 14  2  0
 14 15  1  0
 14 16  1  0
 11 17  1  0
 16 17  2  0
 10 18  1  0
 18 19  1  0
 18 20  1  0
  7 21  1  0
  4 22  1  0
 21 22  1  0
M  END
