piperidine-amides-13563-covalent
     RDKit          3D

 32 34  0  0  0  0  0  0  0  0999 V2000
    7.0810   -3.2680   19.2550 C   0  0  0  0  0  0  0  0  0  0  0  0
    6.2940   -4.0460   20.2520 C   0  0  0  0  0  0  0  0  0  0  0  0
    5.2390   -4.5820   19.8880 O   0  0  0  0  0  0  0  0  0  0  0  0
    6.7780   -4.2100   21.5650 N   0  0  0  0  0  0  0  0  0  0  0  0
    6.5840   -5.4440   22.2770 C   0  0  0  0  0  0  0  0  0  0  0  0
    6.2030   -5.1310   23.7390 C   0  0  0  0  0  0  0  0  0  0  0  0
    6.1690   -3.6490   23.9770 C   0  0  0  0  0  0  0  0  0  0  0  0
    5.7520   -3.3200   25.3530 C   0  0  0  0  0  0  0  0  0  0  0  0
    4.5450   -3.1270   25.5400 O   0  0  0  0  0  0  0  0  0  0  0  0
    6.7270   -3.2410   26.3520 N   0  0  0  0  0  0  0  0  0  0  0  0
    6.5490   -3.0490   27.7460 C   0  0  0  0  0  0  0  0  0  0  0  0
    5.8590   -3.8790   28.5820 C   0  0  0  0  0  0  0  0  0  0  0  0
    4.6750   -3.4600   29.2200 C   0  0  0  0  0  0  0  0  0  0  0  0
    3.9750   -4.2930   30.0680 C   0  0  0  0  0  0  0  0  0  0  0  0
    4.4810   -5.6650   30.3160 C   0  0  0  0  0  0  0  0  0  0  0  0
    3.8440   -6.5020   31.1290 O   0  0  0  0  0  0  0  0  0  0  0  0
    4.0560   -7.8000   31.4200 C   0  0  0  0  0  0  0  0  0  0  0  0
    3.5680   -8.1290   32.8330 C   0  0  0  0  0  0  0  0  0  0  0  0
    4.3920   -7.6470   33.8360 C   0  0  0  0  0  0  0  0  0  0  0  0
    5.0670   -8.5970   34.5860 O   0  0  0  0  0  0  0  0  0  0  0  0
    4.5870   -9.8620   34.9500 C   0  0  0  0  0  0  0  0  0  0  0  0
    3.0580   -9.9340   34.9800 C   0  0  0  0  0  0  0  0  0  0  0  0
    2.0870  -10.9230   35.2680 C   0  0  0  0  0  0  0  0  0  0  0  0
    3.0660  -12.1180   35.6030 C   0  0  0  0  0  0  0  0  0  0  0  0
    2.2910  -13.6380   36.0350 Cl  0  0  0  0  0  0  0  0  0  0  0  0
    4.5670  -12.0900   35.5860 C   0  0  0  0  0  0  0  0  0  0  0  0
    5.3880  -10.9050   35.2440 C   0  0  0  0  0  0  0  0  0  0  0  0
    7.1540  -10.8680   35.2270 Cl  0  0  0  0  0  0  0  0  0  0  0  0
    5.6530   -6.0460   29.6670 C   0  0  0  0  0  0  0  0  0  0  0  0
    6.3000   -5.1630   28.8340 C   0  0  0  0  0  0  0  0  0  0  0  0
    7.3870   -2.9220   23.5010 C   0  0  0  0  0  0  0  0  0  0  0  0
    7.6700   -3.2230   22.0700 C   0  0  0  0  0  0  0  0  0  0  0  0
  1  2  1  0
  2  3  2  0
  2  4  1  0
  4  5  1  0
  5  6  1  0
  6  7  1  0
  7  8  1  0
  8  9  2  0
  8 10  1  0
 10 11  1  0
 11 12  1  0
 12 13  2  0
 13 14  1  0
 14 15  2  0
 15 16  1  0
 16 17  1  0
 17 18  1  0
 18 19  1  0
 19 20  1  0
 20 21  1  0
 21 22  2  0
 22 23  1  0
 23 24  2  0
 24 25  1  0
 24 26  1  0
 21 27  1  0
 26 27  2  0
 27 28  1  0
 15 29  1  0
 12 30  1  0
 29 30  2  0
  7 31  1  0
  4 32  1  0
 31 32  1  0
M  END
