piperidine-amides-14942-covalent
     RDKit          3D

 21 22  0  0  0  0  0  0  0  0999 V2000
    7.0660   -3.2850   19.2450 C   0  0  0  0  0  0  0  0  0  0  0  0
    6.2710   -4.0380   20.2230 C   0  0  0  0  0  0  0  0  0  0  0  0
    5.2040   -4.5470   19.8540 O   0  0  0  0  0  0  0  0  0  0  0  0
    6.7320   -4.2110   21.5410 N   0  0  0  0  0  0  0  0  0  0  0  0
    7.6290   -3.2470   22.0830 C   0  0  0  0  0  0  0  0  0  0  0  0
    7.1110   -2.8080   23.3970 C   0  0  0  0  0  0  0  0  0  0  0  0
    5.9070   -3.6470   23.7150 C   0  0  0  0  0  0  0  0  0  0  0  0
    5.5960   -3.4420   25.1630 C   0  0  0  0  0  0  0  0  0  0  0  0
    4.4480   -3.6860   25.5270 O   0  0  0  0  0  0  0  0  0  0  0  0
    6.6260   -2.9710   25.9720 N   0  0  0  0  0  0  0  0  0  0  0  0
    7.2480   -1.7240   25.6880 C   0  0  0  0  0  0  0  0  0  0  0  0
    8.3500   -1.7910   24.7980 C   0  0  0  0  0  0  0  0  0  0  0  0
    8.5920   -0.8210   23.8270 C   0  0  0  0  0  0  0  0  0  0  0  0
    9.6760   -0.8290   22.9410 C   0  0  0  0  0  0  0  0  0  0  0  0
   10.6200   -1.9760   23.0790 C   0  0  0  0  0  0  0  0  0  0  0  0
   11.8430   -2.0150   22.1300 C   0  0  0  0  0  0  0  0  0  0  0  0
   10.3970   -2.9410   24.0110 C   0  0  0  0  0  0  0  0  0  0  0  0
    9.2140   -2.8520   24.9080 C   0  0  0  0  0  0  0  0  0  0  0  0
    8.9080   -3.7840   25.8740 F   0  0  0  0  0  0  0  0  0  0  0  0
    5.9870   -5.0990   23.4810 C   0  0  0  0  0  0  0  0  0  0  0  0
    6.5610   -5.4490   22.2740 C   0  0  0  0  0  0  0  0  0  0  0  0
  1  2  1  0
  2  3  2  0
  2  4  1  0
  4  5  1  0
  5  6  1  0
  6  7  1  0
  7  8  1  0
  8  9  2  0
  8 10  1  0
 10 11  1  0
 11 12  1  0
 12 13  2  0
 13 14  1  0
 14 15  2  0
 15 16  1  0
 15 17  1  0
 12 18  1  0
 17 18  2  0
 18 19  1  0
  7 20  1  0
  4 21  1  0
 20 21  1  0
M  END
