piperidine-amides-876-covalent
     RDKit          3D

 25 27  0  0  0  0  0  0  0  0999 V2000
    7.0340   -3.3860   19.3160 C   0  0  0  0  0  0  0  0  0  0  0  0
    6.3760   -4.1510   20.3540 C   0  0  0  0  0  0  0  0  0  0  0  0
    5.3960   -4.8780   19.9980 O   0  0  0  0  0  0  0  0  0  0  0  0
    6.7840   -4.1760   21.7100 N   0  0  0  0  0  0  0  0  0  0  0  0
    6.7290   -5.4820   22.3980 C   0  0  0  0  0  0  0  0  0  0  0  0
    5.8330   -5.1150   23.6430 C   0  0  0  0  0  0  0  0  0  0  0  0
    6.2000   -3.7020   24.0620 C   0  0  0  0  0  0  0  0  0  0  0  0
    5.8260   -3.4710   25.5950 C   0  0  0  0  0  0  0  0  0  0  0  0
    5.1320   -4.3930   25.9860 O   0  0  0  0  0  0  0  0  0  0  0  0
    6.3130   -2.3780   26.0330 N   0  0  0  0  0  0  0  0  0  0  0  0
    6.7320   -1.1670   26.4970 C   0  0  1  0  0  0  0  0  0  0  0  0
    6.3080    0.1270   26.3380 C   0  0  0  0  0  0  0  0  0  0  0  0
    6.0280    0.6940   27.5870 C   0  0  0  0  0  0  0  0  0  0  0  0
    6.4290   -0.0880   28.5750 N   0  0  0  0  0  0  0  0  0  0  0  0
    6.6880    0.7020   29.6870 C   0  0  0  0  0  0  0  0  0  0  0  0
    5.4830    0.5620   30.6410 C   0  0  0  0  0  0  0  0  0  0  0  0
    5.7830    1.2390   31.7640 N   0  0  0  0  0  0  0  0  0  0  0  0
    4.6640    1.4070   32.4630 C   0  0  0  0  0  0  0  0  0  0  0  0
    4.6390    0.4280   33.4680 C   0  0  0  0  0  0  0  0  0  0  0  0
    5.5820    0.7430   34.3920 O   0  0  0  0  0  0  0  0  0  0  0  0
    6.8750    0.8160   33.9380 C   0  0  0  0  0  0  0  0  0  0  0  0
    7.0160    0.8070   32.3780 C   0  0  0  0  0  0  0  0  0  0  0  0
    6.9840   -1.2890   28.0290 C   0  0  0  0  0  0  0  0  0  0  0  0
    7.5690   -3.2090   23.6220 C   0  0  0  0  0  0  0  0  0  0  0  0
    7.6280   -3.1440   22.2630 C   0  0  0  0  0  0  0  0  0  0  0  0
  1  2  1  0
  2  3  2  0
  2  4  1  0
  4  5  1  0
  5  6  1  0
  6  7  1  0
  7  8  1  0
  8  9  2  0
  8 10  1  0
 11 10  1  1
 11 12  1  0
 12 13  1  0
 13 14  1  0
 14 15  1  0
 15 16  1  0
 16 17  1  0
 17 18  1  0
 18 19  1  0
 19 20  1  0
 20 21  1  0
 17 22  1  0
 21 22  1  0
 11 23  1  0
 14 23  1  0
  7 24  1  0
  4 25  1  0
 24 25  1  0
M  END
