piperidine-amides-3533-covalent
     RDKit          3D

 19 20  0  0  0  0  0  0  0  0999 V2000
    7.0410   -3.3280   19.3230 C   0  0  0  0  0  0  0  0  0  0  0  0
    6.3070   -4.1150   20.3160 C   0  0  0  0  0  0  0  0  0  0  0  0
    5.3370   -4.7820   19.9590 O   0  0  0  0  0  0  0  0  0  0  0  0
    6.7170   -4.1670   21.6950 N   0  0  0  0  0  0  0  0  0  0  0  0
    7.6080   -3.1370   22.2060 C   0  0  0  0  0  0  0  0  0  0  0  0
    7.4260   -2.9520   23.6780 C   0  0  0  0  0  0  0  0  0  0  0  0
    6.1620   -3.7010   24.0100 C   0  0  0  0  0  0  0  0  0  0  0  0
    5.6490   -3.3420   25.3660 C   0  0  0  0  0  0  0  0  0  0  0  0
    4.4540   -3.5150   25.6710 O   0  0  0  0  0  0  0  0  0  0  0  0
    6.5120   -2.7720   26.3400 N   0  0  0  0  0  0  0  0  0  0  0  0
    6.3680   -1.3590   26.6020 C   0  0  0  0  0  0  0  0  0  0  0  0
    5.9940   -0.3880   25.5650 C   0  0  0  0  0  0  0  0  0  0  0  0
    5.9030    0.8780   25.9860 N   0  0  0  0  0  0  0  0  0  0  0  0
    6.2100    0.7790   27.2940 N   0  0  0  0  0  0  0  0  0  0  0  0
    6.2200    1.9770   28.1170 C   0  0  0  0  0  0  0  0  0  0  0  0
    6.5200   -0.5620   27.8110 C   0  0  0  0  0  0  0  0  0  0  0  0
    7.0170   -1.0240   29.7810 I   0  0  0  0  0  0  0  0  0  0  0  0
    6.4590   -5.1510   23.8460 C   0  0  0  0  0  0  0  0  0  0  0  0
    6.5760   -5.4170   22.4070 C   0  0  0  0  0  0  0  0  0  0  0  0
  1  2  1  0
  2  3  2  0
  2  4  1  0
  4  5  1  0
  5  6  1  0
  6  7  1  0
  7  8  1  0
  8  9  2  0
  8 10  1  0
 10 11  1  0
 11 12  1  0
 12 13  2  0
 13 14  1  0
 14 15  1  0
 11 16  2  0
 14 16  1  0
 16 17  1  0
  7 18  1  0
  4 19  1  0
 18 19  1  0
M  END
