piperidine-amides-23738-covalent
     RDKit          3D

 24 26  0  0  0  0  0  0  0  0999 V2000
    7.0950   -3.2970   19.2330 C   0  0  0  0  0  0  0  0  0  0  0  0
    6.3720   -4.0660   20.2590 C   0  0  0  0  0  0  0  0  0  0  0  0
    5.2890   -4.5920   19.9020 O   0  0  0  0  0  0  0  0  0  0  0  0
    6.9030   -4.2520   21.5600 N   0  0  0  0  0  0  0  0  0  0  0  0
    6.4500   -5.3460   22.3410 C   0  0  0  0  0  0  0  0  0  0  0  0
    6.0600   -4.9960   23.7040 C   0  0  0  0  0  0  0  0  0  0  0  0
    6.5960   -3.7240   24.2570 C   0  0  0  0  0  0  0  0  0  0  0  0
    5.7580   -3.2870   25.4280 C   0  0  0  0  0  0  0  0  0  0  0  0
    4.5200   -3.2400   25.2900 O   0  0  0  0  0  0  0  0  0  0  0  0
    6.3070   -2.9230   26.6840 N   0  0  0  0  0  0  0  0  0  0  0  0
    6.2640   -3.7310   27.8570 C   0  0  0  0  0  0  0  0  0  0  0  0
    6.1030   -5.1900   27.7850 C   0  0  0  0  0  0  0  0  0  0  0  0
    6.5720   -1.5070   26.8920 C   0  0  0  0  0  0  0  0  0  0  0  0
    5.9830   -0.9020   27.9890 C   0  0  0  0  0  0  0  0  0  0  0  0
    7.1140   -1.1650   29.0240 C   0  0  0  0  0  0  0  0  0  0  0  0
    6.8560   -0.6190   30.4350 C   0  0  0  0  0  0  0  0  0  0  0  0
    5.4910    0.0960   30.5420 C   0  0  0  0  0  0  0  0  0  0  0  0
    4.4940    0.2910   29.5170 C   0  0  0  0  0  0  0  0  0  0  0  0
    4.8080   -0.2600   28.1830 C   0  0  0  0  0  0  0  0  0  0  0  0
    3.4060    0.9610   29.9380 O   0  0  0  0  0  0  0  0  0  0  0  0
    3.7800    1.2140   31.2900 C   0  0  0  0  0  0  0  0  0  0  0  0
    4.9540    0.6680   31.5570 O   0  0  0  0  0  0  0  0  0  0  0  0
    6.7180   -2.6690   23.2020 C   0  0  0  0  0  0  0  0  0  0  0  0
    7.5970   -3.1890   22.2550 C   0  0  0  0  0  0  0  0  0  0  0  0
  1  2  1  0
  2  3  2  0
  2  4  1  0
  4  5  1  0
  5  6  1  0
  6  7  1  0
  7  8  1  0
  8  9  2  0
  8 10  1  0
 10 11  1  0
 11 12  1  0
 10 13  1  0
 13 14  1  0
 14 15  2  0
 15 16  1  0
 16 17  2  0
 17 18  1  0
 14 19  1  0
 18 19  2  0
 18 20  1  0
 20 21  1  0
 17 22  1  0
 21 22  1  0
  7 23  1  0
  4 24  1  0
 23 24  1  0
M  END
