piperidine-amides-10918-covalent
     RDKit          3D

 21 22  0  0  0  0  0  0  0  0999 V2000
    7.1550   -3.2840   19.2060 C   0  0  0  0  0  0  0  0  0  0  0  0
    6.3450   -3.9850   20.1940 C   0  0  0  0  0  0  0  0  0  0  0  0
    5.2660   -4.4990   19.8640 O   0  0  0  0  0  0  0  0  0  0  0  0
    6.8140   -4.1310   21.5020 N   0  0  0  0  0  0  0  0  0  0  0  0
    7.6940   -3.1740   22.1250 C   0  0  0  0  0  0  0  0  0  0  0  0
    6.9470   -2.6810   23.3270 C   0  0  0  0  0  0  0  0  0  0  0  0
    6.5190   -3.8200   24.1930 C   0  0  0  0  0  0  0  0  0  0  0  0
    5.7570   -3.3410   25.3690 C   0  0  0  0  0  0  0  0  0  0  0  0
    4.4930   -3.2830   25.3180 O   0  0  0  0  0  0  0  0  0  0  0  0
    6.3740   -2.9260   26.5670 N   0  0  0  0  0  0  0  0  0  0  0  0
    6.4690   -1.4920   26.9090 C   0  0  0  0  0  0  0  0  0  0  0  0
    5.8490   -1.3170   28.2420 C   0  0  0  0  0  0  0  0  0  0  0  0
    4.9890   -2.1650   28.6190 O   0  0  0  0  0  0  0  0  0  0  0  0
    3.8900   -1.7730   29.3000 C   0  0  0  0  0  0  0  0  0  0  0  0
    2.8950   -2.8330   29.7130 C   0  0  0  0  0  0  0  0  0  0  0  0
    1.7110   -2.2180   29.9800 O   0  0  0  0  0  0  0  0  0  0  0  0
    6.8590   -1.2360   29.3460 C   0  0  0  0  0  0  0  0  0  0  0  0
    6.4400    0.1190   29.6300 C   0  0  0  0  0  0  0  0  0  0  0  0
    5.5520    0.0110   28.6130 C   0  0  0  0  0  0  0  0  0  0  0  0
    5.6890   -4.8340   23.4400 C   0  0  0  0  0  0  0  0  0  0  0  0
    6.4870   -5.3210   22.2500 C   0  0  0  0  0  0  0  0  0  0  0  0
  1  2  1  0
  2  3  2  0
  2  4  1  0
  4  5  1  0
  5  6  1  0
  6  7  1  0
  7  8  1  0
  8  9  2  0
  8 10  1  0
 10 11  1  0
 11 12  1  0
 12 13  1  0
 13 14  1  0
 14 15  1  0
 15 16  1  0
 12 17  1  0
 17 18  1  0
 12 19  1  0
 18 19  1  0
  7 20  1  0
  4 21  1  0
 20 21  1  0
M  END
