piperidine-amides-34949-covalent
     RDKit          3D

 32 35  0  0  0  0  0  0  0  0999 V2000
    7.0590   -3.2710   19.2400 C   0  0  0  0  0  0  0  0  0  0  0  0
    6.2990   -4.0880   20.2170 C   0  0  0  0  0  0  0  0  0  0  0  0
    5.2240   -4.5490   19.8620 O   0  0  0  0  0  0  0  0  0  0  0  0
    6.8340   -4.3590   21.4650 N   0  0  0  0  0  0  0  0  0  0  0  0
    6.3520   -5.4810   22.2200 C   0  0  0  0  0  0  0  0  0  0  0  0
    5.3550   -4.9530   23.2090 C   0  0  0  0  0  0  0  0  0  0  0  0
    6.0420   -3.8310   23.9810 C   0  0  0  0  0  0  0  0  0  0  0  0
    5.1550   -3.3080   25.0410 C   0  0  0  0  0  0  0  0  0  0  0  0
    4.1190   -2.6860   24.8040 O   0  0  0  0  0  0  0  0  0  0  0  0
    5.5670   -3.5760   26.3320 N   0  0  0  0  0  0  0  0  0  0  0  0
    5.4390   -2.5800   27.4000 C   0  0  0  0  0  0  0  0  0  0  0  0
    5.5400   -3.2520   28.7650 C   0  0  0  0  0  0  0  0  0  0  0  0
    5.8290   -4.5620   28.8630 C   0  0  0  0  0  0  0  0  0  0  0  0
    5.6620   -5.6850   29.6990 N   0  0  0  0  0  0  0  0  0  0  0  0
    6.2770   -6.8800   29.1240 C   0  0  0  0  0  0  0  0  0  0  0  0
    6.8090   -6.4760   27.9380 N   0  0  0  0  0  0  0  0  0  0  0  0
    6.5750   -5.0830   27.7180 C   0  0  0  0  0  0  0  0  0  0  0  0
    6.8570   -4.0060   26.6720 C   0  0  0  0  0  0  0  0  0  0  0  0
    7.2250   -4.9490   25.5500 C   0  0  0  0  0  0  0  0  0  0  0  0
    8.2870   -4.2320   24.7060 C   0  0  0  0  0  0  0  0  0  0  0  0
    8.9680   -3.0270   25.0680 N   0  0  0  0  0  0  0  0  0  0  0  0
    9.8740   -2.4090   24.1960 C   0  0  0  0  0  0  0  0  0  0  0  0
    9.4910   -2.2330   22.8640 O   0  0  0  0  0  0  0  0  0  0  0  0
   11.0210   -1.9710   24.5440 O   0  0  0  0  0  0  0  0  0  0  0  0
   12.1020   -1.8050   23.6340 C   0  0  0  0  0  0  0  0  0  0  0  0
   13.3360   -2.5300   24.1450 C   0  0  0  0  0  0  0  0  0  0  0  0
   11.8370   -2.3030   22.2190 C   0  0  0  0  0  0  0  0  0  0  0  0
   12.5250   -0.3550   23.4190 C   0  0  0  0  0  0  0  0  0  0  0  0
    8.4490   -2.2020   26.1380 C   0  0  0  0  0  0  0  0  0  0  0  0
    7.5230   -2.8730   27.1350 C   0  0  0  0  0  0  0  0  0  0  0  0
    6.5490   -2.6780   23.1090 C   0  0  0  0  0  0  0  0  0  0  0  0
    7.5430   -3.2850   22.1240 C   0  0  0  0  0  0  0  0  0  0  0  0
  1  2  1  0
  2  3  2  0
  2  4  1  0
  4  5  1  0
  5  6  1  0
  6  7  1  0
  7  8  1  0
  8  9  2  0
  8 10  1  0
 10 11  1  0
 11 12  1  0
 12 13  1  0
 13 14  1  0
 14 15  2  0
 15 16  1  0
 13 17  2  0
 16 17  1  0
 18 10  1  0
 17 18  1  0
 18 19  1  0
 19 20  1  0
 20 21  1  0
 21 22  1  0
 22 23  2  0
 22 24  1  0
 25 24  1  0
 25 26  1  0
 25 27  1  0
 25 28  1  0
 21 29  1  0
 18 30  1  0
 29 30  1  0
  7 31  1  0
  4 32  1  0
 31 32  1  0
M  END
