piperidine-amides-14073-covalent
     RDKit          3D

 25 27  0  0  0  0  0  0  0  0999 V2000
    7.0880   -3.3200   19.2670 C   0  0  0  0  0  0  0  0  0  0  0  0
    6.3720   -4.1500   20.2710 C   0  0  0  0  0  0  0  0  0  0  0  0
    5.3260   -4.7290   19.9440 O   0  0  0  0  0  0  0  0  0  0  0  0
    6.9240   -4.3110   21.5500 N   0  0  0  0  0  0  0  0  0  0  0  0
    6.5870   -5.4250   22.3950 C   0  0  0  0  0  0  0  0  0  0  0  0
    5.6800   -4.8770   23.5000 C   0  0  0  0  0  0  0  0  0  0  0  0
    6.4860   -3.8640   24.2410 C   0  0  0  0  0  0  0  0  0  0  0  0
    5.7610   -3.2370   25.3640 C   0  0  0  0  0  0  0  0  0  0  0  0
    4.5670   -2.9840   25.1800 O   0  0  0  0  0  0  0  0  0  0  0  0
    6.4300   -2.9670   26.5540 N   0  0  0  0  0  0  0  0  0  0  0  0
    6.4540   -1.7410   27.2730 C   0  0  0  0  0  0  0  0  0  0  0  0
    6.9930   -1.5960   28.5200 C   0  0  0  0  0  0  0  0  0  0  0  0
    6.9820   -0.3730   29.1940 C   0  0  0  0  0  0  0  0  0  0  0  0
    6.4240    0.7610   28.6350 C   0  0  0  0  0  0  0  0  0  0  0  0
    6.3050    1.9970   29.0980 O   0  0  0  0  0  0  0  0  0  0  0  0
    5.4350    2.0420   30.0820 C   0  0  0  0  0  0  0  0  0  0  0  0
    4.5330    0.8230   30.2700 C   0  0  0  0  0  0  0  0  0  0  0  0
    3.6270    1.0990   31.4520 C   0  0  0  0  0  0  0  0  0  0  0  0
    3.6780    2.2710   32.1700 C   0  0  0  0  0  0  0  0  0  0  0  0
    4.4890    3.3360   31.9800 N   0  0  0  0  0  0  0  0  0  0  0  0
    5.3880    3.1700   30.8790 C   0  0  0  0  0  0  0  0  0  0  0  0
    5.8900    0.5920   27.3730 C   0  0  0  0  0  0  0  0  0  0  0  0
    5.8970   -0.6040   26.7050 C   0  0  0  0  0  0  0  0  0  0  0  0
    7.0060   -2.7470   23.4080 C   0  0  0  0  0  0  0  0  0  0  0  0
    7.6860   -3.2300   22.1600 C   0  0  0  0  0  0  0  0  0  0  0  0
  1  2  1  0
  2  3  2  0
  2  4  1  0
  4  5  1  0
  5  6  1  0
  6  7  1  0
  7  8  1  0
  8  9  2  0
  8 10  1  0
 10 11  1  0
 11 12  2  0
 12 13  1  0
 13 14  2  0
 14 15  1  0
 15 16  1  0
 16 17  2  0
 17 18  1  0
 18 19  2  0
 19 20  1  0
 16 21  1  0
 20 21  2  0
 14 22  1  0
 11 23  1  0
 22 23  2  0
  7 24  1  0
  4 25  1  0
 24 25  1  0
M  END
