piperidine-amides-19572-covalent
     RDKit          3D

 22 24  0  0  0  0  0  0  0  0999 V2000
    7.0870   -3.2930   19.3580 C   0  0  0  0  0  0  0  0  0  0  0  0
    6.3180   -4.0920   20.2940 C   0  0  0  0  0  0  0  0  0  0  0  0
    5.2590   -4.6650   19.8990 O   0  0  0  0  0  0  0  0  0  0  0  0
    6.7240   -4.2880   21.6160 N   0  0  0  0  0  0  0  0  0  0  0  0
    6.7180   -5.7050   22.0500 C   0  0  0  0  0  0  0  0  0  0  0  0
    6.2550   -5.6320   23.5520 C   0  0  0  0  0  0  0  0  0  0  0  0
    6.0100   -4.1840   23.8630 C   0  0  0  0  0  0  0  0  0  0  0  0
    5.0470   -4.1300   25.1350 C   0  0  0  0  0  0  0  0  0  0  0  0
    3.9370   -4.5560   24.9030 O   0  0  0  0  0  0  0  0  0  0  0  0
    5.7130   -3.6340   26.0540 N   0  0  0  0  0  0  0  0  0  0  0  0
    6.7760   -3.0570   26.6150 C   0  0  0  0  0  0  0  0  0  0  0  0
    7.7130   -2.5370   25.8180 N   0  0  0  0  0  0  0  0  0  0  0  0
    8.6170   -2.0490   26.5880 C   0  0  0  0  0  0  0  0  0  0  0  0
    8.2470   -2.2490   27.8590 N   0  0  0  0  0  0  0  0  0  0  0  0
    7.1080   -2.8840   27.8720 N   0  0  0  0  0  0  0  0  0  0  0  0
    6.3050   -3.3300   28.9260 C   0  0  1  0  0  0  0  0  0  0  0  0
    5.9330   -2.1170   29.6980 C   0  0  0  0  0  0  0  0  0  0  0  0
    5.1450   -3.9640   28.3110 C   0  0  0  0  0  0  0  0  0  0  0  0
    4.9660   -3.0890   27.2140 C   0  0  1  0  0  0  0  0  0  0  0  0
    5.2750   -1.7240   27.3840 C   0  0  0  0  0  0  0  0  0  0  0  0
    7.1270   -3.2910   23.7330 C   0  0  0  0  0  0  0  0  0  0  0  0
    7.6010   -3.3870   22.2600 C   0  0  0  0  0  0  0  0  0  0  0  0
  1  2  1  0
  2  3  2  0
  2  4  1  0
  4  5  1  0
  5  6  1  0
  6  7  1  0
  7  8  1  0
  8  9  2  0
  8 10  1  0
 10 11  1  0
 11 12  2  0
 12 13  1  0
 13 14  2  0
 11 15  1  0
 14 15  1  0
 15 16  1  0
 16 17  1  1
 16 18  1  0
 10 19  1  0
 18 19  1  0
 19 20  1  1
  7 21  1  0
  4 22  1  0
 21 22  1  0
M  END
