piperidine-amides-2989-covalent
     RDKit          3D

 23 23  0  0  0  0  0  0  0  0999 V2000
    7.1220   -3.2860   19.1840 C   0  0  0  0  0  0  0  0  0  0  0  0
    6.3620   -4.0330   20.1780 C   0  0  0  0  0  0  0  0  0  0  0  0
    5.2800   -4.5310   19.8790 O   0  0  0  0  0  0  0  0  0  0  0  0
    6.9090   -4.2420   21.4880 N   0  0  0  0  0  0  0  0  0  0  0  0
    7.6760   -3.2040   22.1170 C   0  0  0  0  0  0  0  0  0  0  0  0
    6.9180   -2.6330   23.2790 C   0  0  0  0  0  0  0  0  0  0  0  0
    6.4730   -3.7660   24.1980 C   0  0  0  0  0  0  0  0  0  0  0  0
    5.5590   -3.2060   25.2250 C   0  0  0  0  0  0  0  0  0  0  0  0
    4.4660   -2.6820   24.9350 O   0  0  0  0  0  0  0  0  0  0  0  0
    5.9410   -3.2830   26.5760 N   0  0  0  0  0  0  0  0  0  0  0  0
    6.7170   -4.4220   26.9650 C   0  0  2  0  0  0  0  0  0  0  0  0
    5.9460   -5.4040   27.8040 C   0  0  0  0  0  0  0  0  0  0  0  0
    4.9180   -6.1280   27.2430 C   0  0  0  0  0  0  0  0  0  0  0  0
    3.6770   -6.2440   27.8800 C   0  0  0  0  0  0  0  0  0  0  0  0
    3.7400   -6.5190   29.2550 O   0  0  0  0  0  0  0  0  0  0  0  0
    4.1140   -7.8130   29.6890 C   0  0  0  0  0  0  0  0  0  0  0  0
    7.7730   -3.8630   27.8530 C   0  0  0  0  0  0  0  0  0  0  0  0
    7.7020   -2.5400   28.2310 O   0  0  0  0  0  0  0  0  0  0  0  0
    8.7290   -4.5950   28.2700 O   0  0  0  0  0  0  0  0  0  0  0  0
    9.1230   -5.7610   27.6150 C   0  0  0  0  0  0  0  0  0  0  0  0
    9.2010   -5.5840   26.2500 C   0  0  0  0  0  0  0  0  0  0  0  0
    5.8910   -4.9800   23.5530 C   0  0  0  0  0  0  0  0  0  0  0  0
    6.4330   -5.3330   22.2470 C   0  0  0  0  0  0  0  0  0  0  0  0
  1  2  1  0
  2  3  2  0
  2  4  1  0
  4  5  1  0
  5  6  1  0
  6  7  1  0
  7  8  1  0
  8  9  2  0
  8 10  1  0
 10 11  1  0
 11 12  1  1
 12 13  1  0
 13 14  1  0
 14 15  1  0
 15 16  1  0
 11 17  1  0
 17 18  2  0
 17 19  1  0
 19 20  1  0
 20 21  1  0
  7 22  1  0
  4 23  1  0
 22 23  1  0
M  END
