piperidine-amides-2501-covalent
     RDKit          3D

 26 28  0  0  0  0  0  0  0  0999 V2000
    7.0720   -3.3100   19.3000 C   0  0  0  0  0  0  0  0  0  0  0  0
    6.3840   -4.1600   20.3030 C   0  0  0  0  0  0  0  0  0  0  0  0
    5.3570   -4.7370   19.9510 O   0  0  0  0  0  0  0  0  0  0  0  0
    6.9380   -4.3130   21.5710 N   0  0  0  0  0  0  0  0  0  0  0  0
    7.7120   -3.2690   22.1930 C   0  0  0  0  0  0  0  0  0  0  0  0
    6.9430   -2.7320   23.3530 C   0  0  0  0  0  0  0  0  0  0  0  0
    6.5400   -3.8930   24.2600 C   0  0  0  0  0  0  0  0  0  0  0  0
    5.8130   -3.3280   25.4120 C   0  0  0  0  0  0  0  0  0  0  0  0
    4.5810   -3.2070   25.3560 O   0  0  0  0  0  0  0  0  0  0  0  0
    6.5010   -2.9210   26.5730 N   0  0  0  0  0  0  0  0  0  0  0  0
    6.3580   -1.5570   27.0240 C   0  0  0  0  0  0  0  0  0  0  0  0
    7.0540   -1.0790   28.2040 C   0  0  0  0  0  0  0  0  0  0  0  0
    7.1890    0.1450   28.9710 N   0  0  0  0  0  0  0  0  0  0  0  0
    6.3880    1.3390   28.4730 C   0  0  0  0  0  0  0  0  0  0  0  0
    6.3380    2.5780   29.0210 C   0  0  0  0  0  0  0  0  0  0  0  0
    5.0900    2.7850   29.5500 C   0  0  0  0  0  0  0  0  0  0  0  0
    3.7850    3.2490   28.9330 C   0  0  0  0  0  0  0  0  0  0  0  0
    2.6790    3.3120   29.9620 C   0  0  0  0  0  0  0  0  0  0  0  0
    2.9480    2.9360   31.4080 C   0  0  0  0  0  0  0  0  0  0  0  0
    1.9140    3.0100   32.2970 F   0  0  0  0  0  0  0  0  0  0  0  0
    4.3170    2.5020   31.8070 C   0  0  0  0  0  0  0  0  0  0  0  0
    5.5020    2.3860   30.9290 C   0  0  0  0  0  0  0  0  0  0  0  0
    5.7380    0.8400   27.3330 N   0  0  0  0  0  0  0  0  0  0  0  0
    5.6120   -0.3680   26.5660 C   0  0  0  0  0  0  0  0  0  0  0  0
    5.6880   -4.8930   23.5020 C   0  0  0  0  0  0  0  0  0  0  0  0
    6.5750   -5.4300   22.4100 C   0  0  0  0  0  0  0  0  0  0  0  0
  1  2  1  0
  2  3  2  0
  2  4  1  0
  4  5  1  0
  5  6  1  0
  6  7  1  0
  7  8  1  0
  8  9  2  0
  8 10  1  0
 10 11  1  0
 11 12  2  0
 12 13  1  0
 13 14  2  0
 14 15  1  0
 15 16  1  0
 16 17  2  0
 17 18  1  0
 18 19  2  0
 19 20  1  0
 19 21  1  0
 16 22  1  0
 21 22  2  0
 14 23  1  0
 11 24  1  0
 23 24  2  0
  7 25  1  0
  4 26  1  0
 25 26  1  0
M  END
