piperidine-amides-27300-covalent
     RDKit          3D

 25 26  0  0  0  0  0  0  0  0999 V2000
    7.0180   -3.3700   19.4060 C   0  0  0  0  0  0  0  0  0  0  0  0
    6.3850   -4.2480   20.3990 C   0  0  0  0  0  0  0  0  0  0  0  0
    5.3870   -4.9010   19.9910 O   0  0  0  0  0  0  0  0  0  0  0  0
    6.8970   -4.3760   21.7000 N   0  0  0  0  0  0  0  0  0  0  0  0
    6.6390   -5.5450   22.4970 C   0  0  0  0  0  0  0  0  0  0  0  0
    5.8720   -5.1240   23.7260 C   0  0  0  0  0  0  0  0  0  0  0  0
    6.3790   -3.8460   24.3680 C   0  0  0  0  0  0  0  0  0  0  0  0
    5.3140   -3.2870   25.2660 C   0  0  0  0  0  0  0  0  0  0  0  0
    4.3470   -2.7460   24.7070 O   0  0  0  0  0  0  0  0  0  0  0  0
    5.2920   -3.3190   26.6930 N   0  0  0  0  0  0  0  0  0  0  0  0
    4.1570   -3.7390   27.4630 C   0  0  0  0  0  0  0  0  0  0  0  0
    4.4350   -3.7250   28.9710 C   0  0  0  0  0  0  0  0  0  0  0  0
    5.6140   -4.5380   29.2390 N   0  0  0  0  0  0  0  0  0  0  0  0
    5.4900   -5.7520   29.7350 C   0  0  0  0  0  0  0  0  0  0  0  0
    6.5880   -6.6380   29.8110 O   0  0  0  0  0  0  0  0  0  0  0  0
    4.2660   -6.1570   30.1840 O   0  0  0  0  0  0  0  0  0  0  0  0
    4.0730   -6.8520   31.3920 C   0  0  0  0  0  0  0  0  0  0  0  0
    3.6630   -5.9570   32.3690 C   0  0  0  0  0  0  0  0  0  0  0  0
    3.0500   -7.9350   31.1630 C   0  0  0  0  0  0  0  0  0  0  0  0
    5.3610   -7.5150   31.8690 C   0  0  0  0  0  0  0  0  0  0  0  0
    6.6270   -4.3770   28.4270 C   0  0  0  0  0  0  0  0  0  0  0  0
    6.4310   -3.1970   27.4560 C   0  0  2  0  0  0  0  0  0  0  0  0
    6.4690   -1.8240   28.0800 C   0  0  0  0  0  0  0  0  0  0  0  0
    6.7380   -2.7970   23.3400 C   0  0  0  0  0  0  0  0  0  0  0  0
    7.6130   -3.3060   22.3990 C   0  0  0  0  0  0  0  0  0  0  0  0
  1  2  1  0
  2  3  2  0
  2  4  1  0
  4  5  1  0
  5  6  1  0
  6  7  1  0
  7  8  1  0
  8  9  2  0
  8 10  1  0
 10 11  1  0
 11 12  1  0
 12 13  1  0
 13 14  1  0
 14 15  2  0
 14 16  1  0
 17 16  1  0
 17 18  1  0
 17 19  1  0
 17 20  1  0
 13 21  1  0
 10 22  1  0
 21 22  1  0
 22 23  1  1
  7 24  1  0
  4 25  1  0
 24 25  1  0
M  END
