piperidine-amides-4989-covalent
     RDKit          3D

 23 24  0  0  0  0  0  0  0  0999 V2000
    7.1680   -3.8910   19.5800 C   0  0  0  0  0  0  0  0  0  0  0  0
    5.9200   -3.7270   20.2340 C   0  0  0  0  0  0  0  0  0  0  0  0
    4.9340   -3.8980   19.5040 O   0  0  0  0  0  0  0  0  0  0  0  0
    5.9430   -3.4960   21.5860 N   0  0  0  0  0  0  0  0  0  0  0  0
    5.4220   -4.5490   22.3980 C   0  0  0  0  0  0  0  0  0  0  0  0
    6.1630   -4.8300   23.6280 C   0  0  0  0  0  0  0  0  0  0  0  0
    6.7600   -3.6560   24.3020 C   0  0  0  0  0  0  0  0  0  0  0  0
    5.9650   -3.2540   25.4680 C   0  0  0  0  0  0  0  0  0  0  0  0
    4.8250   -2.7810   25.2860 O   0  0  0  0  0  0  0  0  0  0  0  0
    6.4890   -3.4180   26.7430 N   0  0  0  0  0  0  0  0  0  0  0  0
    6.4620   -4.7480   27.3610 C   0  0  1  0  0  0  0  0  0  0  0  0
    7.4810   -5.6930   26.8650 C   0  0  0  0  0  0  0  0  0  0  0  0
    6.5080   -4.6660   28.8050 C   0  0  0  0  0  0  0  0  0  0  0  0
    5.3460   -4.9820   29.4600 C   0  0  0  0  0  0  0  0  0  0  0  0
    4.9260   -6.2830   29.6300 C   0  0  0  0  0  0  0  0  0  0  0  0
    3.7600   -6.5300   30.2800 C   0  0  0  0  0  0  0  0  0  0  0  0
    3.3380   -7.8150   30.4440 C   0  0  0  0  0  0  0  0  0  0  0  0
    2.9890   -5.4920   30.7780 C   0  0  0  0  0  0  0  0  0  0  0  0
    3.4000   -4.1690   30.6150 C   0  0  0  0  0  0  0  0  0  0  0  0
    2.6090   -3.0310   31.1290 C   0  0  0  0  0  0  0  0  0  0  0  0
    4.5840   -3.9510   29.9470 C   0  0  0  0  0  0  0  0  0  0  0  0
    6.9000   -2.4710   23.3560 C   0  0  0  0  0  0  0  0  0  0  0  0
    7.1700   -2.8920   22.0640 C   0  0  0  0  0  0  0  0  0  0  0  0
  1  2  1  0
  2  3  2  0
  2  4  1  0
  4  5  1  0
  5  6  1  0
  6  7  1  0
  7  8  1  0
  8  9  2  0
  8 10  1  0
 10 11  1  0
 11 12  1  6
 11 13  1  0
 13 14  1  0
 14 15  2  0
 15 16  1  0
 16 17  1  0
 16 18  2  0
 18 19  1  0
 19 20  1  0
 14 21  1  0
 19 21  2  0
  7 22  1  0
  4 23  1  0
 22 23  1  0
M  END
