piperidine-amides-13255-covalent
     RDKit          3D

 18 19  0  0  0  0  0  0  0  0999 V2000
    7.0940   -3.2900   19.2000 C   0  0  0  0  0  0  0  0  0  0  0  0
    6.3760   -4.0630   20.2460 C   0  0  0  0  0  0  0  0  0  0  0  0
    5.2900   -4.5700   19.8950 O   0  0  0  0  0  0  0  0  0  0  0  0
    6.9110   -4.2660   21.5340 N   0  0  0  0  0  0  0  0  0  0  0  0
    6.4780   -5.3900   22.2740 C   0  0  0  0  0  0  0  0  0  0  0  0
    5.8830   -5.0380   23.5710 C   0  0  0  0  0  0  0  0  0  0  0  0
    6.3040   -3.7430   24.1820 C   0  0  0  0  0  0  0  0  0  0  0  0
    5.1860   -3.2330   25.0160 C   0  0  0  0  0  0  0  0  0  0  0  0
    4.1130   -2.9690   24.4580 O   0  0  0  0  0  0  0  0  0  0  0  0
    5.3130   -3.0490   26.4000 N   0  0  0  0  0  0  0  0  0  0  0  0
    6.5760   -2.6150   26.9750 C   0  0  0  0  0  0  0  0  0  0  0  0
    6.4490   -1.5300   27.9800 C   0  0  0  0  0  0  0  0  0  0  0  0
    6.4020   -1.9380   29.3580 C   0  0  0  0  0  0  0  0  0  0  0  0
    6.2710   -0.5430   30.2430 S   0  0  0  0  0  0  0  0  0  0  0  0
    6.2640    0.5770   28.9930 N   0  0  0  0  0  0  0  0  0  0  0  0
    6.3670   -0.1460   27.8700 N   0  0  0  0  0  0  0  0  0  0  0  0
    6.7910   -2.7070   23.2430 C   0  0  0  0  0  0  0  0  0  0  0  0
    7.5490   -3.1590   22.1850 C   0  0  0  0  0  0  0  0  0  0  0  0
  1  2  1  0
  2  3  2  0
  2  4  1  0
  4  5  1  0
  5  6  1  0
  6  7  1  0
  7  8  1  0
  8  9  2  0
  8 10  1  0
 10 11  1  0
 11 12  1  0
 12 13  2  0
 13 14  1  0
 14 15  1  0
 12 16  1  0
 15 16  2  0
  7 17  1  0
  4 18  1  0
 17 18  1  0
M  END
