piperidine-amides-27192-covalent
     RDKit          3D

 24 25  0  0  0  0  0  0  0  0999 V2000
    7.0170   -3.3470   19.3590 C   0  0  0  0  0  0  0  0  0  0  0  0
    6.3700   -4.1790   20.3830 C   0  0  0  0  0  0  0  0  0  0  0  0
    5.3970   -4.8760   19.9880 O   0  0  0  0  0  0  0  0  0  0  0  0
    6.8450   -4.2120   21.7050 N   0  0  0  0  0  0  0  0  0  0  0  0
    7.7330   -3.1810   22.2180 C   0  0  0  0  0  0  0  0  0  0  0  0
    7.3680   -2.9130   23.6500 C   0  0  0  0  0  0  0  0  0  0  0  0
    6.0020   -3.4690   23.9370 C   0  0  0  0  0  0  0  0  0  0  0  0
    5.5100   -3.1400   25.3080 C   0  0  0  0  0  0  0  0  0  0  0  0
    4.2860   -2.9140   25.4150 O   0  0  0  0  0  0  0  0  0  0  0  0
    6.2810   -3.0630   26.4970 N   0  0  0  0  0  0  0  0  0  0  0  0
    6.3770   -4.2480   27.3120 C   0  0  0  0  0  0  0  0  0  0  0  0
    7.8290   -4.5470   27.4560 C   0  0  0  0  0  0  0  0  0  0  0  0
    8.5010   -4.0940   26.5250 O   0  0  0  0  0  0  0  0  0  0  0  0
    8.8720   -5.0950   25.7060 C   0  0  0  0  0  0  0  0  0  0  0  0
    9.7290   -5.9510   26.3060 C   0  0  0  0  0  0  0  0  0  0  0  0
    6.3610   -1.7840   27.1690 C   0  0  0  0  0  0  0  0  0  0  0  0
    5.7920   -0.6350   26.6330 C   0  0  0  0  0  0  0  0  0  0  0  0
    5.8110    0.6210   27.2310 C   0  0  0  0  0  0  0  0  0  0  0  0
    6.4540    0.9520   28.5690 C   0  0  0  0  0  0  0  0  0  0  0  0
    6.5020    2.5380   29.3740 Cl  0  0  0  0  0  0  0  0  0  0  0  0
    7.0570   -0.3530   29.0820 C   0  0  0  0  0  0  0  0  0  0  0  0
    6.9980   -1.6730   28.3770 C   0  0  0  0  0  0  0  0  0  0  0  0
    5.9520   -4.9640   23.7200 C   0  0  0  0  0  0  0  0  0  0  0  0
    6.6260   -5.3750   22.5770 C   0  0  0  0  0  0  0  0  0  0  0  0
  1  2  1  0
  2  3  2  0
  2  4  1  0
  4  5  1  0
  5  6  1  0
  6  7  1  0
  7  8  1  0
  8  9  2  0
  8 10  1  0
 10 11  1  0
 11 12  1  0
 12 13  1  0
 13 14  1  0
 14 15  1  0
 10 16  1  0
 16 17  2  0
 17 18  1  0
 18 19  2  0
 19 20  1  0
 19 21  1  0
 16 22  1  0
 21 22  2  0
  7 23  1  0
  4 24  1  0
 23 24  1  0
M  END
