piperidine-amides-7164-covalent
     RDKit          3D

 21 22  0  0  0  0  0  0  0  0999 V2000
    7.1100   -3.2790   19.2410 C   0  0  0  0  0  0  0  0  0  0  0  0
    6.3690   -4.0410   20.2530 C   0  0  0  0  0  0  0  0  0  0  0  0
    5.2810   -4.5520   19.8840 O   0  0  0  0  0  0  0  0  0  0  0  0
    6.8940   -4.2120   21.5350 N   0  0  0  0  0  0  0  0  0  0  0  0
    7.7000   -3.2050   22.1840 C   0  0  0  0  0  0  0  0  0  0  0  0
    6.9830   -2.7430   23.4200 C   0  0  0  0  0  0  0  0  0  0  0  0
    6.4810   -3.8920   24.2500 C   0  0  0  0  0  0  0  0  0  0  0  0
    5.7310   -3.3770   25.4210 C   0  0  0  0  0  0  0  0  0  0  0  0
    4.4880   -3.2870   25.3220 O   0  0  0  0  0  0  0  0  0  0  0  0
    6.3340   -2.9710   26.6260 N   0  0  0  0  0  0  0  0  0  0  0  0
    6.5460   -1.5720   26.9050 C   0  0  0  0  0  0  0  0  0  0  0  0
    6.2160   -1.1770   28.3400 C   0  0  0  0  0  0  0  0  0  0  0  0
    4.9460   -0.9220   28.8160 C   0  0  0  0  0  0  0  0  0  0  0  0
    4.6710   -0.5620   30.1160 C   0  0  0  0  0  0  0  0  0  0  0  0
    5.6970   -0.4370   31.0220 C   0  0  0  0  0  0  0  0  0  0  0  0
    5.4690   -0.0750   32.3400 C   0  0  0  0  0  0  0  0  0  0  0  0
    4.8750    1.1240   32.6620 C   0  0  0  0  0  0  0  0  0  0  0  0
    6.9760   -0.6850   30.5830 C   0  0  0  0  0  0  0  0  0  0  0  0
    7.3640   -1.0910   29.1610 C   0  0  0  0  0  0  0  0  0  0  0  0
    5.6250   -4.8640   23.4220 C   0  0  0  0  0  0  0  0  0  0  0  0
    6.5230   -5.3810   22.3130 C   0  0  0  0  0  0  0  0  0  0  0  0
  1  2  1  0
  2  3  2  0
  2  4  1  0
  4  5  1  0
  5  6  1  0
  6  7  1  0
  7  8  1  0
  8  9  2  0
  8 10  1  0
 10 11  1  0
 11 12  1  0
 12 13  2  0
 13 14  1  0
 14 15  2  0
 15 16  1  0
 16 17  3  0
 15 18  1  0
 12 19  1  0
 18 19  2  0
  7 20  1  0
  4 21  1  0
 20 21  1  0
M  END
