piperidine-amides-28145-covalent
     RDKit          3D

 25 26  0  0  0  0  0  0  0  0999 V2000
    7.1090   -3.2670   19.1470 C   0  0  0  0  0  0  0  0  0  0  0  0
    6.3420   -3.9890   20.1810 C   0  0  0  0  0  0  0  0  0  0  0  0
    5.2460   -4.4650   19.8420 O   0  0  0  0  0  0  0  0  0  0  0  0
    6.8640   -4.1720   21.4600 N   0  0  0  0  0  0  0  0  0  0  0  0
    6.4540   -5.2910   22.2380 C   0  0  0  0  0  0  0  0  0  0  0  0
    5.8770   -4.9340   23.5390 C   0  0  0  0  0  0  0  0  0  0  0  0
    6.5620   -3.8150   24.2200 C   0  0  0  0  0  0  0  0  0  0  0  0
    5.8060   -3.3560   25.4130 C   0  0  0  0  0  0  0  0  0  0  0  0
    4.5620   -3.4210   25.3790 O   0  0  0  0  0  0  0  0  0  0  0  0
    6.4590   -2.8380   26.5510 N   0  0  0  0  0  0  0  0  0  0  0  0
    6.9020   -1.4320   26.5660 C   0  0  0  0  0  0  0  0  0  0  0  0
    6.1500   -3.4070   27.8080 C   0  0  0  0  0  0  0  0  0  0  0  0
    5.4610   -2.5370   28.7590 C   0  0  0  0  0  0  0  0  0  0  0  0
    4.1220   -2.6300   29.0590 C   0  0  0  0  0  0  0  0  0  0  0  0
    3.4290   -1.8240   29.9500 C   0  0  0  0  0  0  0  0  0  0  0  0
    2.1030   -2.0350   30.1440 F   0  0  0  0  0  0  0  0  0  0  0  0
    4.1400   -0.8460   30.5930 C   0  0  0  0  0  0  0  0  0  0  0  0
    5.4760   -0.6990   30.3400 C   0  0  0  0  0  0  0  0  0  0  0  0
    6.3210    0.2260   30.8950 C   0  0  0  0  0  0  0  0  0  0  0  0
    7.6450    0.0370   30.5570 F   0  0  0  0  0  0  0  0  0  0  0  0
    6.2810    0.1030   32.2840 F   0  0  0  0  0  0  0  0  0  0  0  0
    5.8690    1.4950   30.5650 F   0  0  0  0  0  0  0  0  0  0  0  0
    6.1150   -1.5410   29.4330 C   0  0  0  0  0  0  0  0  0  0  0  0
    6.9300   -2.6820   23.3550 C   0  0  0  0  0  0  0  0  0  0  0  0
    7.6540   -3.1460   22.1300 C   0  0  0  0  0  0  0  0  0  0  0  0
  1  2  1  0
  2  3  2  0
  2  4  1  0
  4  5  1  0
  5  6  1  0
  6  7  1  0
  7  8  1  0
  8  9  2  0
  8 10  1  0
 10 11  1  0
 10 12  1  0
 12 13  1  0
 13 14  2  0
 14 15  1  0
 15 16  1  0
 15 17  2  0
 17 18  1  0
 18 19  1  0
 19 20  1  0
 19 21  1  0
 19 22  1  0
 13 23  1  0
 18 23  2  0
  7 24  1  0
  4 25  1  0
 24 25  1  0
M  END
