piperidine-amides-10395-covalent
     RDKit          3D

 25 26  0  0  0  0  0  0  0  0999 V2000
    7.0810   -3.2960   19.2820 C   0  0  0  0  0  0  0  0  0  0  0  0
    6.3770   -4.0960   20.2930 C   0  0  0  0  0  0  0  0  0  0  0  0
    5.3120   -4.6500   19.9190 O   0  0  0  0  0  0  0  0  0  0  0  0
    6.9050   -4.2570   21.5790 N   0  0  0  0  0  0  0  0  0  0  0  0
    7.7630   -3.2660   22.1860 C   0  0  0  0  0  0  0  0  0  0  0  0
    7.1820   -2.8270   23.4960 C   0  0  0  0  0  0  0  0  0  0  0  0
    5.9690   -3.6140   23.9020 C   0  0  0  0  0  0  0  0  0  0  0  0
    5.6270   -3.2920   25.3050 C   0  0  0  0  0  0  0  0  0  0  0  0
    4.4630   -3.5280   25.6920 O   0  0  0  0  0  0  0  0  0  0  0  0
    6.5400   -2.7250   26.2150 N   0  0  0  0  0  0  0  0  0  0  0  0
    6.3860   -1.3710   26.6930 C   0  0  0  0  0  0  0  0  0  0  0  0
    6.2330   -0.3500   25.5650 C   0  0  0  0  0  0  0  0  0  0  0  0
    6.9870   -0.3290   24.4070 C   0  0  0  0  0  0  0  0  0  0  0  0
    6.8630    0.5760   23.3950 C   0  0  0  0  0  0  0  0  0  0  0  0
    5.9260    1.5590   23.5050 C   0  0  0  0  0  0  0  0  0  0  0  0
    5.7490    2.5120   22.5160 C   0  0  0  0  0  0  0  0  0  0  0  0
    5.1250    1.6320   24.6100 C   0  0  0  0  0  0  0  0  0  0  0  0
    5.1150    0.7200   25.8310 C   0  0  0  0  0  0  0  0  0  0  0  0
    4.2990    0.8180   26.9320 O   0  0  0  0  0  0  0  0  0  0  0  0
    3.1120    1.4830   27.1050 C   0  0  0  0  0  0  0  0  0  0  0  0
    3.1440    2.7690   27.9040 C   0  0  0  0  0  0  0  0  0  0  0  0
    2.8650    2.4880   29.2160 O   0  0  0  0  0  0  0  0  0  0  0  0
    3.1820    3.4260   30.1420 C   0  0  0  0  0  0  0  0  0  0  0  0
    6.1260   -5.0850   23.7170 C   0  0  0  0  0  0  0  0  0  0  0  0
    6.5880   -5.4450   22.3220 C   0  0  0  0  0  0  0  0  0  0  0  0
  1  2  1  0
  2  3  2  0
  2  4  1  0
  4  5  1  0
  5  6  1  0
  6  7  1  0
  7  8  1  0
  8  9  2  0
  8 10  1  0
 10 11  1  0
 11 12  1  0
 12 13  2  0
 13 14  1  0
 14 15  2  0
 15 16  1  0
 15 17  1  0
 12 18  1  0
 17 18  2  0
 18 19  1  0
 19 20  1  0
 20 21  1  0
 21 22  1  0
 22 23  1  0
  7 24  1  0
  4 25  1  0
 24 25  1  0
M  END
