piperidine-amides-11825-covalent
     RDKit          3D

 27 29  0  0  0  0  0  0  0  0999 V2000
    7.0960   -3.3040   19.2090 C   0  0  0  0  0  0  0  0  0  0  0  0
    6.3680   -4.0600   20.2230 C   0  0  0  0  0  0  0  0  0  0  0  0
    5.3220   -4.6360   19.9210 O   0  0  0  0  0  0  0  0  0  0  0  0
    6.8940   -4.1810   21.5570 N   0  0  0  0  0  0  0  0  0  0  0  0
    7.7920   -3.1670   22.0730 C   0  0  0  0  0  0  0  0  0  0  0  0
    7.4510   -2.8380   23.4930 C   0  0  0  0  0  0  0  0  0  0  0  0
    6.0540   -3.3690   23.7280 C   0  0  0  0  0  0  0  0  0  0  0  0
    5.5570   -2.9780   25.0610 C   0  0  0  0  0  0  0  0  0  0  0  0
    4.4350   -3.3160   25.4830 O   0  0  0  0  0  0  0  0  0  0  0  0
    6.3830   -2.1770   25.8810 N   0  0  0  0  0  0  0  0  0  0  0  0
    6.1800   -2.2630   27.2920 C   0  0  0  0  0  0  0  0  0  0  0  0
    6.5720   -3.6410   27.6390 C   0  0  0  0  0  0  0  0  0  0  0  0
    7.8570   -3.8400   28.0590 C   0  0  0  0  0  0  0  0  0  0  0  0
    8.3140   -5.0910   28.3920 C   0  0  0  0  0  0  0  0  0  0  0  0
    7.4670   -6.1400   28.3120 C   0  0  0  0  0  0  0  0  0  0  0  0
    6.1020   -5.9980   27.8760 C   0  0  0  0  0  0  0  0  0  0  0  0
    5.3220   -7.0120   27.8010 O   0  0  0  0  0  0  0  0  0  0  0  0
    4.1590   -6.8710   28.5620 C   0  0  0  0  0  0  0  0  0  0  0  0
    4.3240   -6.1190   29.7060 C   0  0  0  0  0  0  0  0  0  0  0  0
    3.2730   -5.8760   30.5750 C   0  0  0  0  0  0  0  0  0  0  0  0
    1.9920   -6.4610   30.2060 C   0  0  0  0  0  0  0  0  0  0  0  0
    1.7860   -7.2210   29.0680 C   0  0  0  0  0  0  0  0  0  0  0  0
    0.5720   -7.7040   28.8310 F   0  0  0  0  0  0  0  0  0  0  0  0
    2.9080   -7.4140   28.2510 C   0  0  0  0  0  0  0  0  0  0  0  0
    5.6970   -4.7040   27.5450 C   0  0  0  0  0  0  0  0  0  0  0  0
    5.9510   -4.8570   23.6220 C   0  0  0  0  0  0  0  0  0  0  0  0
    6.5960   -5.3450   22.3440 C   0  0  0  0  0  0  0  0  0  0  0  0
  1  2  1  0
  2  3  2  0
  2  4  1  0
  4  5  1  0
  5  6  1  0
  6  7  1  0
  7  8  1  0
  8  9  2  0
  8 10  1  0
 10 11  1  0
 11 12  1  0
 12 13  2  0
 13 14  1  0
 14 15  2  0
 15 16  1  0
 16 17  1  0
 17 18  1  0
 18 19  2  0
 19 20  1  0
 20 21  2  0
 21 22  1  0
 22 23  1  0
 18 24  1  0
 22 24  2  0
 12 25  1  0
 16 25  2  0
  7 26  1  0
  4 27  1  0
 26 27  1  0
M  END
