piperidine-amides-35410-covalent
     RDKit          3D

 33 35  0  0  0  0  0  0  0  0999 V2000
    7.0430   -3.3240   19.3410 C   0  0  0  0  0  0  0  0  0  0  0  0
    6.3760   -4.1750   20.3630 C   0  0  0  0  0  0  0  0  0  0  0  0
    5.4150   -4.8470   19.9830 O   0  0  0  0  0  0  0  0  0  0  0  0
    6.8570   -4.2200   21.6820 N   0  0  0  0  0  0  0  0  0  0  0  0
    6.5590   -5.3400   22.5350 C   0  0  0  0  0  0  0  0  0  0  0  0
    5.7930   -4.8470   23.7380 C   0  0  0  0  0  0  0  0  0  0  0  0
    5.9570   -3.3250   23.8330 C   0  0  0  0  0  0  0  0  0  0  0  0
    5.4590   -2.8230   25.1480 C   0  0  0  0  0  0  0  0  0  0  0  0
    4.2380   -2.7000   25.3020 O   0  0  0  0  0  0  0  0  0  0  0  0
    6.3160   -2.4960   26.2280 N   0  0  0  0  0  0  0  0  0  0  0  0
    6.8410   -3.6460   26.8440 C   0  0  0  0  0  0  0  0  0  0  0  0
    6.0720   -4.0560   28.0850 C   0  0  0  0  0  0  0  0  0  0  0  0
    6.5510   -5.2680   28.7960 N   0  0  0  0  0  0  0  0  0  0  0  0
    7.7260   -5.9620   28.2370 C   0  0  0  0  0  0  0  0  0  0  0  0
    8.2350   -5.4050   27.1310 C   0  0  0  0  0  0  0  0  0  0  0  0
    9.6040   -6.1180   26.3760 Cl  0  0  0  0  0  0  0  0  0  0  0  0
    7.8440   -4.3550   26.4910 N   0  0  0  0  0  0  0  0  0  0  0  0
    6.2970   -1.3810   27.1030 C   0  0  1  0  0  0  0  0  0  0  0  0
    7.6270   -1.1940   27.8210 C   0  0  0  0  0  0  0  0  0  0  0  0
    6.8670   -0.5880   28.9710 C   0  0  0  0  0  0  0  0  0  0  0  0
    6.7250    0.8450   28.4980 C   0  0  2  0  0  0  0  0  0  0  0  0
    6.1060    1.7040   29.4350 N   0  0  0  0  0  0  0  0  0  0  0  0
    6.8090    2.3870   30.3980 C   0  0  0  0  0  0  0  0  0  0  0  0
    8.1920    2.5430   30.2400 O   0  0  0  0  0  0  0  0  0  0  0  0
    6.2490    2.8760   31.4130 O   0  0  0  0  0  0  0  0  0  0  0  0
    6.4640    4.2110   31.7870 C   0  0  0  0  0  0  0  0  0  0  0  0
    7.6420    4.3260   32.7410 C   0  0  0  0  0  0  0  0  0  0  0  0
    5.2740    4.8370   32.5140 C   0  0  0  0  0  0  0  0  0  0  0  0
    6.7480    5.0850   30.5680 C   0  0  0  0  0  0  0  0  0  0  0  0
    5.9950    1.0110   27.3290 C   0  0  0  0  0  0  0  0  0  0  0  0
    5.8620   -0.2360   26.5000 C   0  0  0  0  0  0  0  0  0  0  0  0
    7.4010   -2.8720   23.6170 C   0  0  0  0  0  0  0  0  0  0  0  0
    7.7120   -3.1340   22.1450 C   0  0  0  0  0  0  0  0  0  0  0  0
  1  2  1  0
  2  3  2  0
  2  4  1  0
  4  5  1  0
  5  6  1  0
  6  7  1  0
  7  8  1  0
  8  9  2  0
  8 10  1  0
 10 11  1  0
 11 12  2  0
 12 13  1  0
 13 14  2  0
 14 15  1  0
 15 16  1  0
 11 17  1  0
 15 17  2  0
 18 10  1  6
 18 19  1  0
 19 20  1  0
 20 21  1  0
 21 22  1  1
 22 23  1  0
 23 24  2  0
 23 25  1  0
 26 25  1  0
 26 27  1  0
 26 28  1  0
 26 29  1  0
 21 30  1  0
 18 31  1  0
 30 31  1  0
  7 32  1  0
  4 33  1  0
 32 33  1  0
M  END
