piperidine-amides-1046-covalent
     RDKit          3D

 24 26  0  0  0  0  0  0  0  0999 V2000
    7.0790   -3.3380   19.3100 C   0  0  0  0  0  0  0  0  0  0  0  0
    6.4010   -4.2070   20.3060 C   0  0  0  0  0  0  0  0  0  0  0  0
    5.3720   -4.8140   19.9740 O   0  0  0  0  0  0  0  0  0  0  0  0
    6.9740   -4.3620   21.5840 N   0  0  0  0  0  0  0  0  0  0  0  0
    7.7050   -3.2960   22.2130 C   0  0  0  0  0  0  0  0  0  0  0  0
    6.7450   -2.6990   23.2320 C   0  0  0  0  0  0  0  0  0  0  0  0
    6.3950   -3.7780   24.2000 C   0  0  0  0  0  0  0  0  0  0  0  0
    5.7590   -3.1900   25.3960 C   0  0  0  0  0  0  0  0  0  0  0  0
    4.5300   -3.0560   25.3560 O   0  0  0  0  0  0  0  0  0  0  0  0
    6.5420   -2.8160   26.4880 N   0  0  0  0  0  0  0  0  0  0  0  0
    6.4670   -1.6260   27.2610 C   0  0  0  0  0  0  0  0  0  0  0  0
    5.8410   -0.5130   26.7200 C   0  0  0  0  0  0  0  0  0  0  0  0
    5.6850    0.6960   27.3430 C   0  0  0  0  0  0  0  0  0  0  0  0
    6.1720    0.8120   28.5680 C   0  0  0  0  0  0  0  0  0  0  0  0
    6.1180    1.9230   29.3530 N   0  0  0  0  0  0  0  0  0  0  0  0
    7.2100    2.6300   29.6830 C   0  0  0  0  0  0  0  0  0  0  0  0
    7.0000    3.3310   31.0370 C   0  0  0  0  0  0  0  0  0  0  0  0
    5.5600    2.8880   31.3060 C   0  0  0  0  0  0  0  0  0  0  0  0
    5.1390    2.0990   30.2570 C   0  0  0  0  0  0  0  0  0  0  0  0
    6.8060   -0.2200   29.1940 C   0  0  0  0  0  0  0  0  0  0  0  0
    7.3950    0.0850   30.8140 Cl  0  0  0  0  0  0  0  0  0  0  0  0
    7.0790   -1.6430   28.6540 C   0  0  0  0  0  0  0  0  0  0  0  0
    5.6040   -4.8000   23.4840 C   0  0  0  0  0  0  0  0  0  0  0  0
    6.5440   -5.4300   22.4340 C   0  0  0  0  0  0  0  0  0  0  0  0
  1  2  1  0
  2  3  2  0
  2  4  1  0
  4  5  1  0
  5  6  1  0
  6  7  1  0
  7  8  1  0
  8  9  2  0
  8 10  1  0
 10 11  1  0
 11 12  2  0
 12 13  1  0
 13 14  2  0
 14 15  1  0
 15 16  1  0
 16 17  1  0
 17 18  1  0
 15 19  1  0
 18 19  1  0
 14 20  1  0
 20 21  1  0
 11 22  1  0
 20 22  2  0
  7 23  1  0
  4 24  1  0
 23 24  1  0
M  END
