piperidine-amides-23653-covalent
     RDKit          3D

 22 23  0  0  0  0  0  0  0  0999 V2000
    7.0850   -3.3940   19.3550 C   0  0  0  0  0  0  0  0  0  0  0  0
    6.3950   -4.2150   20.3540 C   0  0  0  0  0  0  0  0  0  0  0  0
    5.3500   -4.7990   19.9760 O   0  0  0  0  0  0  0  0  0  0  0  0
    6.9370   -4.3860   21.6530 N   0  0  0  0  0  0  0  0  0  0  0  0
    6.4570   -5.4490   22.4590 C   0  0  0  0  0  0  0  0  0  0  0  0
    5.8480   -5.0360   23.7320 C   0  0  0  0  0  0  0  0  0  0  0  0
    6.3770   -3.8090   24.3920 C   0  0  0  0  0  0  0  0  0  0  0  0
    5.4370   -3.2540   25.4490 C   0  0  0  0  0  0  0  0  0  0  0  0
    4.5990   -2.4150   25.0860 O   0  0  0  0  0  0  0  0  0  0  0  0
    5.4420   -3.6290   26.8260 N   0  0  0  0  0  0  0  0  0  0  0  0
    6.2250   -4.5370   27.4500 C   0  0  0  0  0  0  0  0  0  0  0  0
    5.7360   -5.2070   28.5760 C   0  0  0  0  0  0  0  0  0  0  0  0
    4.4660   -5.5910   28.5820 N   0  0  0  0  0  0  0  0  0  0  0  0
    4.3140   -6.7140   29.8320 S   0  0  0  0  0  0  0  0  0  0  0  0
    5.9420   -6.7800   30.4810 C   0  0  0  0  0  0  0  0  0  0  0  0
    4.0820   -8.0950   29.3070 O   0  0  0  0  0  0  0  0  0  0  0  0
    3.2940   -6.3650   30.8580 O   0  0  0  0  0  0  0  0  0  0  0  0
    4.0000   -4.2100   28.7490 C   0  0  1  0  0  0  0  0  0  0  0  0
    4.1150   -3.8270   30.2200 C   0  0  0  0  0  0  0  0  0  0  0  0
    4.6460   -3.0650   27.8720 C   0  0  0  0  0  0  0  0  0  0  0  0
    6.7210   -2.7350   23.3590 C   0  0  0  0  0  0  0  0  0  0  0  0
    7.6500   -3.3430   22.3450 C   0  0  0  0  0  0  0  0  0  0  0  0
  1  2  1  0
  2  3  2  0
  2  4  1  0
  4  5  1  0
  5  6  1  0
  6  7  1  0
  7  8  1  0
  8  9  2  0
  8 10  1  0
 10 11  1  0
 11 12  1  0
 12 13  1  0
 13 14  1  0
 14 15  1  0
 14 16  2  0
 14 17  2  0
 13 18  1  0
 18 19  1  1
 10 20  1  0
 18 20  1  0
  7 21  1  0
  4 22  1  0
 21 22  1  0
M  END
