piperidine-amides-31852-covalent
     RDKit          3D

 28 29  0  0  0  0  0  0  0  0999 V2000
    7.1780   -3.2870   19.3290 C   0  0  0  0  0  0  0  0  0  0  0  0
    6.3940   -4.0290   20.2840 C   0  0  0  0  0  0  0  0  0  0  0  0
    5.3190   -4.5910   19.8990 O   0  0  0  0  0  0  0  0  0  0  0  0
    6.8110   -4.1830   21.6150 N   0  0  0  0  0  0  0  0  0  0  0  0
    6.5480   -5.4740   22.2690 C   0  0  0  0  0  0  0  0  0  0  0  0
    5.5520   -4.9540   23.3670 C   0  0  0  0  0  0  0  0  0  0  0  0
    6.3540   -3.9580   24.1770 C   0  0  0  0  0  0  0  0  0  0  0  0
    5.5050   -3.5410   25.4650 C   0  0  0  0  0  0  0  0  0  0  0  0
    4.3930   -4.0390   25.4220 O   0  0  0  0  0  0  0  0  0  0  0  0
    6.2000   -2.7730   26.1990 N   0  0  0  0  0  0  0  0  0  0  0  0
    6.9440   -1.6760   26.4950 C   0  0  0  0  0  0  0  0  0  0  0  0
    6.0840   -3.2770   27.5250 C   0  0  0  0  0  0  0  0  0  0  0  0
    5.3680   -4.4820   27.7950 C   0  0  0  0  0  0  0  0  0  0  0  0
    5.7600   -5.9080   27.7900 C   0  0  0  0  0  0  0  0  0  0  0  0
    4.5580   -6.8310   28.1800 C   0  0  0  0  0  0  0  0  0  0  0  0
    3.3460   -6.1440   28.4580 C   0  0  0  0  0  0  0  0  0  0  0  0
    2.1800   -6.8570   28.8240 N   0  0  0  0  0  0  0  0  0  0  0  0
    1.5820   -6.8240   30.1530 C   0  0  0  0  0  0  0  0  0  0  0  0
    2.1390   -6.0740   31.1410 O   0  0  0  0  0  0  0  0  0  0  0  0
    0.4330   -7.5340   30.4660 O   0  0  0  0  0  0  0  0  0  0  0  0
    0.3550   -8.9530   30.4270 C   0  0  0  0  0  0  0  0  0  0  0  0
    1.2260   -9.3910   29.2090 C   0  0  0  0  0  0  0  0  0  0  0  0
    0.9740   -9.5330   31.6490 C   0  0  0  0  0  0  0  0  0  0  0  0
   -1.0030   -9.4840   30.2990 C   0  0  0  0  0  0  0  0  0  0  0  0
    3.0910   -4.8290   28.4330 N   0  0  0  0  0  0  0  0  0  0  0  0
    4.0190   -3.9290   28.1200 C   0  0  0  0  0  0  0  0  0  0  0  0
    6.9710   -2.8050   23.4470 C   0  0  0  0  0  0  0  0  0  0  0  0
    7.6250   -3.2110   22.2820 C   0  0  0  0  0  0  0  0  0  0  0  0
  1  2  1  0
  2  3  2  0
  2  4  1  0
  4  5  1  0
  5  6  1  0
  6  7  1  0
  7  8  1  0
  8  9  2  0
  8 10  1  0
 10 11  1  0
 10 12  1  0
 12 13  1  0
 13 14  2  0
 14 15  1  0
 15 16  2  0
 16 17  1  0
 17 18  1  0
 18 19  2  0
 18 20  1  0
 21 20  1  0
 21 22  1  0
 21 23  1  0
 21 24  1  0
 16 25  1  0
 13 26  1  0
 25 26  2  0
  7 27  1  0
  4 28  1  0
 27 28  1  0
M  END
