piperidine-amides-2744-covalent
     RDKit          3D

 25 26  0  0  0  0  0  0  0  0999 V2000
    7.0640   -3.3500   19.2990 C   0  0  0  0  0  0  0  0  0  0  0  0
    6.3830   -4.1760   20.2870 C   0  0  0  0  0  0  0  0  0  0  0  0
    5.3640   -4.7860   19.9700 O   0  0  0  0  0  0  0  0  0  0  0  0
    6.9260   -4.3270   21.6130 N   0  0  0  0  0  0  0  0  0  0  0  0
    6.5600   -5.4730   22.3970 C   0  0  0  0  0  0  0  0  0  0  0  0
    5.8360   -5.0190   23.6340 C   0  0  0  0  0  0  0  0  0  0  0  0
    6.5720   -3.8200   24.2150 C   0  0  0  0  0  0  0  0  0  0  0  0
    5.8000   -3.2480   25.3480 C   0  0  0  0  0  0  0  0  0  0  0  0
    4.5740   -3.0380   25.2870 O   0  0  0  0  0  0  0  0  0  0  0  0
    6.4910   -2.9450   26.5390 N   0  0  0  0  0  0  0  0  0  0  0  0
    6.4000   -1.6210   27.1080 C   0  0  0  0  0  0  0  0  0  0  0  0
    6.9880   -1.6170   28.4840 C   0  0  0  0  0  0  0  0  0  0  0  0
    7.0090   -0.4720   29.2280 C   0  0  0  0  0  0  0  0  0  0  0  0
    6.4680    0.6920   28.6710 C   0  0  0  0  0  0  0  0  0  0  0  0
    6.4940    1.8600   29.4480 O   0  0  0  0  0  0  0  0  0  0  0  0
    6.1560    1.7950   30.8210 C   0  0  0  0  0  0  0  0  0  0  0  0
    5.2990    2.9150   31.1960 C   0  0  0  0  0  0  0  0  0  0  0  0
    5.8050    4.1530   31.5270 O   0  0  0  0  0  0  0  0  0  0  0  0
    3.9880    2.6310   31.1890 N   0  0  0  0  0  0  0  0  0  0  0  0
    3.0030    3.1630   32.1000 C   0  0  0  0  0  0  0  0  0  0  0  0
    5.9310    0.6690   27.3970 C   0  0  0  0  0  0  0  0  0  0  0  0
    5.8860   -0.4780   26.5900 C   0  0  0  0  0  0  0  0  0  0  0  0
    5.2960   -0.4100   25.2460 C   0  0  0  0  0  0  0  0  0  0  0  0
    6.8790   -2.7440   23.1980 C   0  0  0  0  0  0  0  0  0  0  0  0
    7.7030   -3.2920   22.2320 C   0  0  0  0  0  0  0  0  0  0  0  0
  1  2  1  0
  2  3  2  0
  2  4  1  0
  4  5  1  0
  5  6  1  0
  6  7  1  0
  7  8  1  0
  8  9  2  0
  8 10  1  0
 10 11  1  0
 11 12  2  0
 12 13  1  0
 13 14  2  0
 14 15  1  0
 15 16  1  0
 16 17  1  0
 17 18  2  0
 17 19  1  0
 19 20  1  0
 14 21  1  0
 11 22  1  0
 21 22  2  0
 22 23  1  0
  7 24  1  0
  4 25  1  0
 24 25  1  0
M  END
