piperidine-amides-25960-covalent
     RDKit          3D

 23 24  0  0  0  0  0  0  0  0999 V2000
    7.1200   -3.3220   19.2510 C   0  0  0  0  0  0  0  0  0  0  0  0
    6.4160   -4.1260   20.2480 C   0  0  0  0  0  0  0  0  0  0  0  0
    5.3510   -4.6900   19.9370 O   0  0  0  0  0  0  0  0  0  0  0  0
    6.9510   -4.3300   21.5240 N   0  0  0  0  0  0  0  0  0  0  0  0
    6.6330   -5.4780   22.3320 C   0  0  0  0  0  0  0  0  0  0  0  0
    5.8730   -4.9240   23.5050 C   0  0  0  0  0  0  0  0  0  0  0  0
    6.6340   -3.8160   24.1770 C   0  0  0  0  0  0  0  0  0  0  0  0
    5.9290   -3.2720   25.3510 C   0  0  0  0  0  0  0  0  0  0  0  0
    4.9340   -2.4920   25.2490 O   0  0  0  0  0  0  0  0  0  0  0  0
    6.3580   -3.6600   26.6120 N   0  0  0  0  0  0  0  0  0  0  0  0
    6.8730   -5.0350   26.5990 C   0  0  0  0  0  0  0  0  0  0  0  0
    6.4950   -5.8150   27.7760 C   0  0  1  0  0  0  0  0  0  0  0  0
    7.4970   -5.8840   28.8020 C   0  0  0  0  0  0  0  0  0  0  0  0
    5.3940   -5.3080   28.3640 N   0  0  0  0  0  0  0  0  0  0  0  0
    4.7550   -6.1950   29.5000 S   0  0  0  0  0  0  0  0  0  0  0  0
    4.5690   -7.8540   28.9810 C   0  0  0  0  0  0  0  0  0  0  0  0
    5.6130   -6.1240   30.6980 O   0  0  0  0  0  0  0  0  0  0  0  0
    3.3910   -5.6150   29.8160 O   0  0  0  0  0  0  0  0  0  0  0  0
    5.6300   -3.9740   28.8710 C   0  0  0  0  0  0  0  0  0  0  0  0
    5.8190   -3.0220   27.7680 C   0  0  1  0  0  0  0  0  0  0  0  0
    6.6170   -1.9390   28.0280 C   0  0  0  0  0  0  0  0  0  0  0  0
    6.9510   -2.6980   23.2330 C   0  0  0  0  0  0  0  0  0  0  0  0
    7.7750   -3.2910   22.1260 C   0  0  0  0  0  0  0  0  0  0  0  0
  1  2  1  0
  2  3  2  0
  2  4  1  0
  4  5  1  0
  5  6  1  0
  6  7  1  0
  7  8  1  0
  8  9  2  0
  8 10  1  0
 10 11  1  0
 11 12  1  0
 12 13  1  1
 12 14  1  0
 14 15  1  0
 15 16  1  0
 15 17  2  0
 15 18  2  0
 14 19  1  0
 10 20  1  0
 19 20  1  0
 20 21  1  1
  7 22  1  0
  4 23  1  0
 22 23  1  0
M  END
