piperidine-amides-8227-covalent
     RDKit          3D

 25 27  0  0  0  0  0  0  0  0999 V2000
    7.0490   -3.2890   19.2600 C   0  0  0  0  0  0  0  0  0  0  0  0
    6.3270   -4.0790   20.2570 C   0  0  0  0  0  0  0  0  0  0  0  0
    5.2750   -4.6360   19.9100 O   0  0  0  0  0  0  0  0  0  0  0  0
    6.8530   -4.2370   21.5660 N   0  0  0  0  0  0  0  0  0  0  0  0
    7.5470   -3.1280   22.1630 C   0  0  0  0  0  0  0  0  0  0  0  0
    7.3420   -3.1310   23.6500 C   0  0  0  0  0  0  0  0  0  0  0  0
    5.9520   -3.6720   23.9190 C   0  0  0  0  0  0  0  0  0  0  0  0
    5.5210   -3.3920   25.3320 C   0  0  0  0  0  0  0  0  0  0  0  0
    4.3250   -3.5770   25.6120 O   0  0  0  0  0  0  0  0  0  0  0  0
    6.4750   -2.9100   26.2230 N   0  0  0  0  0  0  0  0  0  0  0  0
    6.9100   -1.5590   26.1450 C   0  0  0  0  0  0  0  0  0  0  0  0
    6.0070   -0.7190   25.4790 C   0  0  0  0  0  0  0  0  0  0  0  0
    5.7460    0.5900   25.8350 C   0  0  0  0  0  0  0  0  0  0  0  0
    4.7840    1.3160   25.0580 N   0  0  0  0  0  0  0  0  0  0  0  0
    4.2360    0.5440   24.0120 C   0  0  0  0  0  0  0  0  0  0  0  0
    3.2010    1.1160   23.0920 C   0  0  0  0  0  0  0  0  0  0  0  0
    3.4470    1.2210   21.5710 C   0  0  0  0  0  0  0  0  0  0  0  0
    2.4880    1.7720   20.5780 C   0  0  0  0  0  0  0  0  0  0  0  0
    1.1770    2.2560   21.1510 C   0  0  0  0  0  0  0  0  0  0  0  0
   -0.1070    2.9510   20.1860 Cl  0  0  0  0  0  0  0  0  0  0  0  0
    1.0120    2.1110   22.6840 C   0  0  0  0  0  0  0  0  0  0  0  0
    1.8770    1.6070   23.6180 C   0  0  0  0  0  0  0  0  0  0  0  0
    5.0230   -1.0380   24.1300 S   0  0  0  0  0  0  0  0  0  0  0  0
    6.0210   -5.1460   23.6740 C   0  0  0  0  0  0  0  0  0  0  0  0
    6.4970   -5.4440   22.2780 C   0  0  0  0  0  0  0  0  0  0  0  0
  1  2  1  0
  2  3  2  0
  2  4  1  0
  4  5  1  0
  5  6  1  0
  6  7  1  0
  7  8  1  0
  8  9  2  0
  8 10  1  0
 10 11  1  0
 11 12  1  0
 12 13  2  0
 13 14  1  0
 14 15  2  0
 15 16  1  0
 16 17  2  0
 17 18  1  0
 18 19  2  0
 19 20  1  0
 19 21  1  0
 16 22  1  0
 21 22  2  0
 12 23  1  0
 15 23  1  0
  7 24  1  0
  4 25  1  0
 24 25  1  0
M  END
