piperidine-amides-13140-covalent
     RDKit          3D

 20 20  0  0  0  0  0  0  0  0999 V2000
    7.1070   -3.3040   19.1920 C   0  0  0  0  0  0  0  0  0  0  0  0
    6.3550   -4.0340   20.2400 C   0  0  0  0  0  0  0  0  0  0  0  0
    5.2820   -4.5590   19.8860 O   0  0  0  0  0  0  0  0  0  0  0  0
    6.8590   -4.1530   21.5440 N   0  0  0  0  0  0  0  0  0  0  0  0
    7.6410   -3.1000   22.0910 C   0  0  0  0  0  0  0  0  0  0  0  0
    7.5070   -2.8880   23.5330 C   0  0  0  0  0  0  0  0  0  0  0  0
    6.5730   -3.7710   24.2810 C   0  0  0  0  0  0  0  0  0  0  0  0
    5.7500   -2.9110   25.1810 C   0  0  0  0  0  0  0  0  0  0  0  0
    4.6070   -3.2990   25.4960 O   0  0  0  0  0  0  0  0  0  0  0  0
    6.2440   -1.6650   25.6540 N   0  0  0  0  0  0  0  0  0  0  0  0
    6.6090   -1.3930   27.0690 C   0  0  0  0  0  0  0  0  0  0  0  0
    7.8510   -2.0820   27.4220 C   0  0  0  0  0  0  0  0  0  0  0  0
    7.7380   -3.4680   27.1670 C   0  0  0  0  0  0  0  0  0  0  0  0
    7.7850   -4.3370   28.1800 C   0  0  0  0  0  0  0  0  0  0  0  0
    7.7070   -6.0030   27.5650 S   0  0  0  0  0  0  0  0  0  0  0  0
    9.2770   -6.1690   26.7300 C   0  0  0  0  0  0  0  0  0  0  0  0
    7.5000   -6.9140   28.6910 O   0  0  0  0  0  0  0  0  0  0  0  0
    6.6160   -6.0560   26.5670 O   0  0  0  0  0  0  0  0  0  0  0  0
    5.7630   -4.7340   23.4570 C   0  0  0  0  0  0  0  0  0  0  0  0
    6.4430   -5.2190   22.3770 C   0  0  0  0  0  0  0  0  0  0  0  0
  1  2  1  0
  2  3  2  0
  2  4  1  0
  4  5  1  0
  5  6  1  0
  6  7  1  0
  7  8  1  0
  8  9  2  0
  8 10  1  0
 10 11  1  0
 11 12  1  0
 12 13  1  0
 13 14  1  0
 15 14  1  0
 15 16  1  0
 15 17  2  0
 15 18  2  0
  7 19  1  0
  4 20  1  0
 19 20  1  0
M  END
