piperidine-amides-31863-covalent
     RDKit          3D

 27 29  0  0  0  0  0  0  0  0999 V2000
    7.0580   -3.3340   19.2540 C   0  0  0  0  0  0  0  0  0  0  0  0
    6.3580   -4.0560   20.2940 C   0  0  0  0  0  0  0  0  0  0  0  0
    5.3250   -4.7090   19.9490 O   0  0  0  0  0  0  0  0  0  0  0  0
    6.7900   -4.1130   21.6380 N   0  0  0  0  0  0  0  0  0  0  0  0
    7.6040   -2.9830   22.1750 C   0  0  0  0  0  0  0  0  0  0  0  0
    7.6060   -3.2270   23.7440 C   0  0  0  0  0  0  0  0  0  0  0  0
    6.2130   -3.6790   24.1100 C   0  0  0  0  0  0  0  0  0  0  0  0
    5.9700   -3.7860   25.6770 C   0  0  0  0  0  0  0  0  0  0  0  0
    5.9250   -4.9560   25.9820 O   0  0  0  0  0  0  0  0  0  0  0  0
    5.8380   -2.6590   26.2500 N   0  0  0  0  0  0  0  0  0  0  0  0
    6.0140   -1.4070   26.7640 C   0  0  0  0  0  0  0  0  0  0  0  0
    5.7450   -0.0690   26.3810 C   0  0  0  0  0  0  0  0  0  0  0  0
    6.0100    1.1340   27.1490 C   0  0  0  0  0  0  0  0  0  0  0  0
    6.6230    1.0200   28.4630 C   0  0  0  0  0  0  0  0  0  0  0  0
    7.0530    1.9990   29.5690 C   0  0  0  0  0  0  0  0  0  0  0  0
    6.9460   -0.3490   28.9220 C   0  0  0  0  0  0  0  0  0  0  0  0
    7.4690   -1.1770   29.9080 C   0  0  0  0  0  0  0  0  0  0  0  0
    6.6570   -1.5310   28.1070 C   0  0  0  0  0  0  0  0  0  0  0  0
    4.5340   -2.6800   26.8870 C   0  0  1  0  0  0  0  0  0  0  0  0
    4.6290   -3.3010   28.1100 C   0  0  0  0  0  0  0  0  0  0  0  0
    3.8000   -2.9850   29.0800 C   0  0  0  0  0  0  0  0  0  0  0  0
    2.7520   -1.8080   28.6120 S   0  0  0  0  0  0  0  0  0  0  0  0
    1.4910   -2.3280   28.0540 O   0  0  0  0  0  0  0  0  0  0  0  0
    2.5930   -0.7990   29.7060 O   0  0  0  0  0  0  0  0  0  0  0  0
    3.9000   -1.3330   27.3960 C   0  0  0  0  0  0  0  0  0  0  0  0
    5.7340   -4.9250   23.4360 C   0  0  0  0  0  0  0  0  0  0  0  0
    6.6060   -5.2880   22.4230 C   0  0  0  0  0  0  0  0  0  0  0  0
  1  2  1  0
  2  3  2  0
  2  4  1  0
  4  5  1  0
  5  6  1  0
  6  7  1  0
  7  8  1  0
  8  9  2  0
  8 10  1  0
 10 11  1  0
 11 12  2  0
 12 13  1  0
 13 14  2  0
 14 15  1  0
 14 16  1  0
 16 17  1  0
 11 18  1  0
 16 18  2  0
 19 10  1  1
 19 20  1  0
 20 21  2  0
 22 21  1  0
 22 23  2  0
 22 24  2  0
 19 25  1  0
 22 25  1  0
  7 26  1  0
  4 27  1  0
 26 27  1  0
M  END
