piperidine-amides-7419-covalent
     RDKit          3D

 18 18  0  0  0  0  0  0  0  0999 V2000
    7.1220   -3.2950   19.2280 C   0  0  0  0  0  0  0  0  0  0  0  0
    6.3530   -4.0280   20.2330 C   0  0  0  0  0  0  0  0  0  0  0  0
    5.2530   -4.5110   19.8640 O   0  0  0  0  0  0  0  0  0  0  0  0
    6.8690   -4.2130   21.5130 N   0  0  0  0  0  0  0  0  0  0  0  0
    7.6540   -3.1870   22.1610 C   0  0  0  0  0  0  0  0  0  0  0  0
    6.9150   -2.7330   23.3840 C   0  0  0  0  0  0  0  0  0  0  0  0
    6.4740   -3.9060   24.2200 C   0  0  0  0  0  0  0  0  0  0  0  0
    5.7300   -3.4410   25.4150 C   0  0  0  0  0  0  0  0  0  0  0  0
    4.5250   -3.1430   25.2680 O   0  0  0  0  0  0  0  0  0  0  0  0
    6.2990   -3.3100   26.7070 N   0  0  0  0  0  0  0  0  0  0  0  0
    6.2840   -4.3980   27.6700 C   0  0  2  0  0  0  0  0  0  0  0  0
    6.1090   -5.7470   26.9850 C   0  0  0  0  0  0  0  0  0  0  0  0
    5.2810   -4.2690   28.7100 C   0  0  0  0  0  0  0  0  0  0  0  0
    4.6070   -3.0560   29.0160 O   0  0  0  0  0  0  0  0  0  0  0  0
    5.0460   -5.4550   29.3630 O   0  0  0  0  0  0  0  0  0  0  0  0
    6.0230   -6.4720   29.4500 C   0  0  0  0  0  0  0  0  0  0  0  0
    5.6080   -4.8160   23.3740 C   0  0  0  0  0  0  0  0  0  0  0  0
    6.3510   -5.2990   22.3170 C   0  0  0  0  0  0  0  0  0  0  0  0
  1  2  1  0
  2  3  2  0
  2  4  1  0
  4  5  1  0
  5  6  1  0
  6  7  1  0
  7  8  1  0
  8  9  2  0
  8 10  1  0
 10 11  1  0
 11 12  1  6
 11 13  1  0
 13 14  2  0
 13 15  1  0
 15 16  1  0
  7 17  1  0
  4 18  1  0
 17 18  1  0
M  END
