piperidine-amides-7415-covalent
     RDKit          3D

 19 20  0  0  0  0  0  0  0  0999 V2000
    7.1340   -3.2760   19.1710 C   0  0  0  0  0  0  0  0  0  0  0  0
    6.4240   -4.0100   20.2230 C   0  0  0  0  0  0  0  0  0  0  0  0
    5.3330   -4.5540   19.8940 O   0  0  0  0  0  0  0  0  0  0  0  0
    7.0010   -4.1240   21.4950 N   0  0  0  0  0  0  0  0  0  0  0  0
    7.7880   -3.0610   22.0650 C   0  0  0  0  0  0  0  0  0  0  0  0
    6.9800   -2.4640   23.1750 C   0  0  0  0  0  0  0  0  0  0  0  0
    6.4990   -3.5100   24.1420 C   0  0  0  0  0  0  0  0  0  0  0  0
    5.5460   -2.9040   25.0900 C   0  0  0  0  0  0  0  0  0  0  0  0
    4.8780   -1.9180   24.7350 O   0  0  0  0  0  0  0  0  0  0  0  0
    5.3340   -3.4040   26.3710 N   0  0  0  0  0  0  0  0  0  0  0  0
    5.2540   -4.8160   26.5370 C   0  0  0  0  0  0  0  0  0  0  0  0
    6.6130   -5.3640   26.7920 C   0  0  0  0  0  0  0  0  0  0  0  0
    7.7070   -5.4740   25.4270 S   0  0  0  0  0  0  0  0  0  0  0  0
    9.0050   -6.1270   26.4330 C   0  0  0  0  0  0  0  0  0  0  0  0
    8.4470   -6.1760   27.7040 C   0  0  0  0  0  0  0  0  0  0  0  0
    7.1420   -5.7870   27.9450 C   0  0  0  0  0  0  0  0  0  0  0  0
    6.5170   -5.8250   29.1610 C   0  0  0  0  0  0  0  0  0  0  0  0
    5.7270   -4.6720   23.4930 C   0  0  0  0  0  0  0  0  0  0  0  0
    6.5300   -5.2090   22.3370 C   0  0  0  0  0  0  0  0  0  0  0  0
  1  2  1  0
  2  3  2  0
  2  4  1  0
  4  5  1  0
  5  6  1  0
  6  7  1  0
  7  8  1  0
  8  9  2  0
  8 10  1  0
 10 11  1  0
 11 12  1  0
 12 13  1  0
 13 14  1  0
 14 15  2  0
 12 16  2  0
 15 16  1  0
 16 17  1  0
  7 18  1  0
  4 19  1  0
 18 19  1  0
M  END
