piperidine-amides-5149-covalent
     RDKit          3D

 22 23  0  0  0  0  0  0  0  0999 V2000
    7.0830   -3.2210   19.1710 C   0  0  0  0  0  0  0  0  0  0  0  0
    6.2750   -3.9570   20.1710 C   0  0  0  0  0  0  0  0  0  0  0  0
    5.1830   -4.4020   19.7920 O   0  0  0  0  0  0  0  0  0  0  0  0
    6.7170   -4.1950   21.4710 N   0  0  0  0  0  0  0  0  0  0  0  0
    6.0070   -5.1910   22.1890 C   0  0  0  0  0  0  0  0  0  0  0  0
    5.2430   -4.6920   23.3470 C   0  0  0  0  0  0  0  0  0  0  0  0
    5.8750   -3.5970   24.1430 C   0  0  0  0  0  0  0  0  0  0  0  0
    4.8720   -2.9770   25.0870 C   0  0  0  0  0  0  0  0  0  0  0  0
    3.7420   -2.7660   24.6280 O   0  0  0  0  0  0  0  0  0  0  0  0
    5.1310   -2.6360   26.4490 N   0  0  0  0  0  0  0  0  0  0  0  0
    4.9300   -3.6130   27.5510 C   0  0  0  0  0  0  0  0  0  0  0  0
    5.8930   -4.6730   27.3140 C   0  0  0  0  0  0  0  0  0  0  0  0
    6.2880   -5.8910   27.9690 C   0  0  0  0  0  0  0  0  0  0  0  0
    5.8730   -6.5360   29.1070 C   0  0  0  0  0  0  0  0  0  0  0  0
    7.3710   -6.4650   27.1610 N   0  0  0  0  0  0  0  0  0  0  0  0
    7.5580   -5.6340   26.1320 N   0  0  0  0  0  0  0  0  0  0  0  0
    8.4160   -5.7620   25.1500 C   0  0  0  0  0  0  0  0  0  0  0  0
    7.8080   -5.8830   23.9350 C   0  0  0  0  0  0  0  0  0  0  0  0
    6.7230   -4.5170   26.1290 C   0  0  0  0  0  0  0  0  0  0  0  0
    6.8580   -3.6040   25.1270 C   0  0  0  0  0  0  0  0  0  0  0  0
    6.5250   -2.5770   23.2230 C   0  0  0  0  0  0  0  0  0  0  0  0
    7.4440   -3.2000   22.2380 C   0  0  0  0  0  0  0  0  0  0  0  0
  1  2  1  0
  2  3  2  0
  2  4  1  0
  4  5  1  0
  5  6  1  0
  6  7  1  0
  7  8  1  0
  8  9  2  0
  8 10  1  0
 10 11  1  0
 11 12  1  0
 12 13  1  0
 13 14  1  0
 13 15  2  0
 15 16  1  0
 16 17  1  0
 17 18  1  0
 12 19  2  0
 16 19  1  0
 19 20  1  0
  7 21  1  0
  4 22  1  0
 21 22  1  0
M  END
