piperidine-amides-35671-covalent
     RDKit          3D

 38 42  0  0  0  0  0  0  0  0999 V2000
    8.0250   -3.9870   20.3960 C   0  0  0  0  0  0  0  0  0  0  0  0
    6.5520   -4.0930   20.6380 C   0  0  0  0  0  0  0  0  0  0  0  0
    5.6550   -4.2310   19.7910 O   0  0  0  0  0  0  0  0  0  0  0  0
    6.2930   -4.0710   21.9990 N   0  0  0  0  0  0  0  0  0  0  0  0
    6.1350   -5.3850   22.6190 C   0  0  0  0  0  0  0  0  0  0  0  0
    5.5020   -5.3080   23.9980 C   0  0  0  0  0  0  0  0  0  0  0  0
    5.9950   -4.1030   24.8150 C   0  0  0  0  0  0  0  0  0  0  0  0
    4.7850   -3.7080   25.6480 C   0  0  0  0  0  0  0  0  0  0  0  0
    3.6960   -3.8890   25.1150 O   0  0  0  0  0  0  0  0  0  0  0  0
    4.7980   -3.1900   26.9700 N   0  0  0  0  0  0  0  0  0  0  0  0
    5.4480   -3.8130   28.0800 C   0  0  0  0  0  0  0  0  0  0  0  0
    6.7460   -4.2000   27.4900 C   0  0  0  0  0  0  0  0  0  0  0  0
    7.0800   -5.5190   27.6430 C   0  0  0  0  0  0  0  0  0  0  0  0
    8.1390   -6.0430   27.1720 C   0  0  0  0  0  0  0  0  0  0  0  0
    8.9000   -5.1780   26.5090 C   0  0  0  0  0  0  0  0  0  0  0  0
   10.4520   -5.8390   25.7340 Br  0  0  0  0  0  0  0  0  0  0  0  0
    8.7170   -3.7220   26.2530 C   0  0  0  0  0  0  0  0  0  0  0  0
    7.4640   -3.0940   26.7950 C   0  0  0  0  0  0  0  0  0  0  0  0
    4.9540   -1.7790   27.0190 C   0  0  1  0  0  0  0  0  0  0  0  0
    4.0220   -0.9940   26.1810 C   0  0  0  0  0  0  0  0  0  0  0  0
    4.9930   -0.1850   25.3600 C   0  0  0  0  0  0  0  0  0  0  0  0
    6.1980    0.3820   26.1450 C   0  0  0  0  0  0  0  0  0  0  0  0
    6.3140   -0.0170   27.6160 C   0  0  0  0  0  0  0  0  0  0  0  0
    5.6100   -1.1420   27.9820 C   0  0  0  0  0  0  0  0  0  0  0  0
    5.7960   -1.2360   29.2120 N   0  0  0  0  0  0  0  0  0  0  0  0
    6.6660   -0.1050   29.3280 C   0  0  0  0  0  0  0  0  0  0  0  0
    7.6160    1.0800   29.6010 C   0  0  0  0  0  0  0  0  0  0  0  0
    7.7430    1.8350   27.8220 C   0  0  0  0  0  0  0  0  0  0  0  0
    6.7850    0.8900   26.9500 C   0  0  0  0  0  0  0  0  0  0  0  0
    6.6780    1.2260   25.6770 O   0  0  0  0  0  0  0  0  0  0  0  0
    6.2990    2.4900   25.1370 C   0  0  0  0  0  0  0  0  0  0  0  0
    5.0080    2.4360   24.5670 F   0  0  0  0  0  0  0  0  0  0  0  0
    7.2160    2.8840   24.1970 F   0  0  0  0  0  0  0  0  0  0  0  0
    6.2930    3.5070   26.0980 F   0  0  0  0  0  0  0  0  0  0  0  0
    7.4440    1.4390   27.8530 C   0  0  0  0  0  0  0  0  0  0  0  0
    7.0490    0.6560   28.6010 C   0  0  0  0  0  0  0  0  0  0  0  0
    6.5470   -2.9300   24.0890 C   0  0  0  0  0  0  0  0  0  0  0  0
    7.1330   -3.1620   22.7270 C   0  0  0  0  0  0  0  0  0  0  0  0
  1  2  1  0
  2  3  2  0
  2  4  1  0
  4  5  1  0
  5  6  1  0
  6  7  1  0
  7  8  1  0
  8  9  2  0
  8 10  1  0
 10 11  1  0
 11 12  1  0
 12 13  2  0
 13 14  1  0
 14 15  2  0
 15 16  1  0
 15 17  1  0
 12 18  1  0
 17 18  2  0
 19 10  1  1
 19 20  1  0
 20 21  1  0
 21 22  1  0
 22 23  1  0
 19 24  1  0
 23 24  2  0
 24 25  1  0
 25 26  1  0
 26 27  1  0
 27 28  2  0
 28 29  1  0
 29 30  1  0
 30 31  1  0
 31 32  1  0
 31 33  1  0
 31 34  1  0
 29 35  2  0
 23 36  1  0
 26 36  2  0
 35 36  1  0
  7 37  1  0
  4 38  1  0
 37 38  1  0
M  END
