piperidine-amides-10492-covalent
     RDKit          3D

 24 25  0  0  0  0  0  0  0  0999 V2000
    7.1480   -3.2980   19.2440 C   0  0  0  0  0  0  0  0  0  0  0  0
    6.3650   -4.0330   20.2370 C   0  0  0  0  0  0  0  0  0  0  0  0
    5.2590   -4.4940   19.8600 O   0  0  0  0  0  0  0  0  0  0  0  0
    6.8820   -4.2450   21.5090 N   0  0  0  0  0  0  0  0  0  0  0  0
    7.7370   -3.2720   22.1400 C   0  0  0  0  0  0  0  0  0  0  0  0
    7.0290   -2.7620   23.3490 C   0  0  0  0  0  0  0  0  0  0  0  0
    6.5930   -3.8750   24.2700 C   0  0  0  0  0  0  0  0  0  0  0  0
    5.7820   -3.2840   25.3420 C   0  0  0  0  0  0  0  0  0  0  0  0
    4.5420   -3.4530   25.3310 O   0  0  0  0  0  0  0  0  0  0  0  0
    6.3600   -2.5270   26.3680 N   0  0  0  0  0  0  0  0  0  0  0  0
    6.6300   -3.1040   27.6450 C   0  0  1  0  0  0  0  0  0  0  0  0
    7.8930   -3.9160   27.5070 C   0  0  0  0  0  0  0  0  0  0  0  0
    7.9150   -5.2290   27.1690 C   0  0  0  0  0  0  0  0  0  0  0  0
    8.9690   -5.7020   26.4030 C   0  0  0  0  0  0  0  0  0  0  0  0
    7.6610   -5.9620   28.2830 C   0  0  0  0  0  0  0  0  0  0  0  0
    6.5800   -2.2330   28.7380 C   0  0  0  0  0  0  0  0  0  0  0  0
    7.7030   -1.5260   29.1700 C   0  0  0  0  0  0  0  0  0  0  0  0
    7.8610   -0.5380   30.3100 C   0  0  0  0  0  0  0  0  0  0  0  0
    6.5470   -0.3580   31.0220 C   0  0  0  0  0  0  0  0  0  0  0  0
    5.2880   -1.0650   30.6470 C   0  0  0  0  0  0  0  0  0  0  0  0
    5.2610   -2.0390   29.4840 C   0  0  0  0  0  0  0  0  0  0  0  0
    4.1160   -2.7090   29.1140 C   0  0  0  0  0  0  0  0  0  0  0  0
    5.7480   -4.8950   23.5110 C   0  0  0  0  0  0  0  0  0  0  0  0
    6.5260   -5.3950   22.3050 C   0  0  0  0  0  0  0  0  0  0  0  0
  1  2  1  0
  2  3  2  0
  2  4  1  0
  4  5  1  0
  5  6  1  0
  6  7  1  0
  7  8  1  0
  8  9  2  0
  8 10  1  0
 10 11  1  0
 11 12  1  6
 12 13  1  0
 13 14  1  0
 13 15  1  0
 11 16  1  0
 16 17  2  0
 17 18  1  0
 18 19  2  0
 19 20  1  0
 16 21  1  0
 20 21  2  0
 21 22  1  0
  7 23  1  0
  4 24  1  0
 23 24  1  0
M  END
