piperidine-amides-30259-covalent
     RDKit          3D

 27 30  0  0  0  0  0  0  0  0999 V2000
    7.0770   -3.3770   19.2830 C   0  0  0  0  0  0  0  0  0  0  0  0
    6.3830   -4.1760   20.2810 C   0  0  0  0  0  0  0  0  0  0  0  0
    5.3580   -4.7830   19.9710 O   0  0  0  0  0  0  0  0  0  0  0  0
    6.9370   -4.3020   21.5960 N   0  0  0  0  0  0  0  0  0  0  0  0
    7.7790   -3.2530   22.1200 C   0  0  0  0  0  0  0  0  0  0  0  0
    7.1120   -2.6150   23.2860 C   0  0  0  0  0  0  0  0  0  0  0  0
    6.8050   -3.7160   24.2730 C   0  0  0  0  0  0  0  0  0  0  0  0
    6.0030   -3.1410   25.3890 C   0  0  0  0  0  0  0  0  0  0  0  0
    5.3160   -2.1150   25.2480 O   0  0  0  0  0  0  0  0  0  0  0  0
    5.9620   -3.7820   26.6400 N   0  0  0  0  0  0  0  0  0  0  0  0
    6.3960   -3.0760   27.8270 C   0  0  0  0  0  0  0  0  0  0  0  0
    6.5260   -4.1190   28.9240 C   0  0  0  0  0  0  0  0  0  0  0  0
    5.5750   -5.0930   28.8380 C   0  0  0  0  0  0  0  0  0  0  0  0
    5.2110   -5.5900   27.6300 C   0  0  0  0  0  0  0  0  0  0  0  0
    4.7850   -4.5520   26.8550 C   0  0  0  0  0  0  0  0  0  0  0  0
    4.2970   -4.7700   29.7160 C   0  0  0  0  0  0  0  0  0  0  0  0
    4.8020   -5.8900   29.7440 C   0  0  2  0  0  0  0  0  0  0  0  0
    5.3430   -6.5570   30.8190 C   0  0  0  0  0  0  0  0  0  0  0  0
    6.5440   -7.1060   30.5130 O   0  0  0  0  0  0  0  0  0  0  0  0
    4.7550   -6.7380   32.0810 N   0  0  0  0  0  0  0  0  0  0  0  0
    3.4330   -6.4770   32.1760 C   0  0  0  0  0  0  0  0  0  0  0  0
    2.5630   -7.2570   33.0650 C   0  0  0  0  0  0  0  0  0  0  0  0
    3.0730   -8.4850   33.4480 C   0  0  0  0  0  0  0  0  0  0  0  0
    4.3950   -8.4130   33.8750 C   0  0  0  0  0  0  0  0  0  0  0  0
    5.3410   -7.6010   33.0410 C   0  0  0  0  0  0  0  0  0  0  0  0
    6.0190   -4.8800   23.7240 C   0  0  0  0  0  0  0  0  0  0  0  0
    6.6130   -5.4110   22.4350 C   0  0  0  0  0  0  0  0  0  0  0  0
  1  2  1  0
  2  3  2  0
  2  4  1  0
  4  5  1  0
  5  6  1  0
  6  7  1  0
  7  8  1  0
  8  9  2  0
  8 10  1  0
 10 11  1  0
 11 12  1  0
 13 12  1  0
 13 14  1  0
 10 15  1  0
 14 15  1  0
 13 16  1  0
 13 17  1  0
 16 17  1  0
 17 18  1  1
 18 19  2  0
 18 20  1  0
 20 21  1  0
 21 22  1  0
 22 23  1  0
 23 24  1  0
 20 25  1  0
 24 25  1  0
  7 26  1  0
  4 27  1  0
 26 27  1  0
M  END
