piperidine-amides-31601-covalent
     RDKit          3D

 28 30  0  0  0  0  0  0  0  0999 V2000
    7.7580   -2.8850   18.3400 C   0  0  0  0  0  0  0  0  0  0  0  0
    6.6480   -2.5640   19.1660 C   0  0  0  0  0  0  0  0  0  0  0  0
    5.6130   -3.3190   19.0870 O   0  0  0  0  0  0  0  0  0  0  0  0
    6.6060   -1.4250   19.9790 N   0  0  0  0  0  0  0  0  0  0  0  0
    5.2390   -1.1350   20.4220 C   0  0  0  0  0  0  0  0  0  0  0  0
    5.1760   -2.0320   21.7290 C   0  0  0  0  0  0  0  0  0  0  0  0
    6.2730   -3.0530   21.6420 C   0  0  0  0  0  0  0  0  0  0  0  0
    5.9910   -4.4610   20.8320 C   0  0  0  0  0  0  0  0  0  0  0  0
    5.5360   -3.9120   19.8480 O   0  0  0  0  0  0  0  0  0  0  0  0
    6.4700   -4.8180   21.9030 N   0  0  0  0  0  0  0  0  0  0  0  0
    6.6150   -5.4930   23.0430 C   0  0  0  0  0  0  0  0  0  0  0  0
    6.2800   -5.1530   24.3110 C   0  0  0  0  0  0  0  0  0  0  0  0
    6.6540   -3.8200   24.6760 C   0  0  0  0  0  0  0  0  0  0  0  0
    5.9290   -3.1740   25.7500 C   0  0  0  0  0  0  0  0  0  0  0  0
    4.6350   -2.7640   25.4430 O   0  0  0  0  0  0  0  0  0  0  0  0
    6.3450   -2.9350   27.0470 N   0  0  0  0  0  0  0  0  0  0  0  0
    6.4150   -1.6330   27.6810 C   0  0  0  0  0  0  0  0  0  0  0  0
    5.9090   -0.6030   26.8530 C   0  0  0  0  0  0  0  0  0  0  0  0
    5.7700    0.8250   27.0680 C   0  0  0  0  0  0  0  0  0  0  0  0
    6.3480    0.9310   28.5140 C   0  0  0  0  0  0  0  0  0  0  0  0
    6.9150   -0.1440   29.4730 C   0  0  0  0  0  0  0  0  0  0  0  0
    7.3360    0.1200   30.6270 O   0  0  0  0  0  0  0  0  0  0  0  0
    8.7020    0.2310   30.9950 C   0  0  0  0  0  0  0  0  0  0  0  0
    6.8930   -1.4380   28.9060 C   0  0  0  0  0  0  0  0  0  0  0  0
    6.3100   -3.2520   23.3690 C   0  0  0  0  0  0  0  0  0  0  0  0
    7.1090   -3.6150   22.3200 C   0  0  0  0  0  0  0  0  0  0  0  0
    7.6620   -2.4530   21.7090 C   0  0  0  0  0  0  0  0  0  0  0  0
    7.6890   -1.2160   20.8900 C   0  0  0  0  0  0  0  0  0  0  0  0
  1  2  1  0
  2  3  2  0
  2  4  1  0
  4  5  1  0
  5  6  1  0
  6  7  1  0
  7  8  1  0
  8  9  2  0
  8 10  1  0
 10 11  1  0
 11 12  1  0
 12 13  1  0
 13 14  1  0
 14 15  2  0
 14 16  1  0
 16 17  1  0
 17 18  2  0
 18 19  1  0
 19 20  2  0
 20 21  1  0
 21 22  1  0
 22 23  1  0
 17 24  1  0
 21 24  2  0
 13 25  1  0
 10 26  1  0
 25 26  1  0
  7 27  1  0
  4 28  1  0
 27 28  1  0
M  END
