piperidine-amides-10990-covalent
     RDKit          3D

 21 21  0  0  0  0  0  0  0  0999 V2000
    7.1330   -3.2830   19.2250 C   0  0  0  0  0  0  0  0  0  0  0  0
    6.3870   -4.0450   20.2290 C   0  0  0  0  0  0  0  0  0  0  0  0
    5.3100   -4.5720   19.9010 O   0  0  0  0  0  0  0  0  0  0  0  0
    6.8840   -4.2510   21.5290 N   0  0  0  0  0  0  0  0  0  0  0  0
    6.5330   -5.3990   22.3250 C   0  0  0  0  0  0  0  0  0  0  0  0
    5.7430   -4.8520   23.4880 C   0  0  0  0  0  0  0  0  0  0  0  0
    6.4120   -3.6800   24.1590 C   0  0  0  0  0  0  0  0  0  0  0  0
    5.5800   -3.0390   25.1990 C   0  0  0  0  0  0  0  0  0  0  0  0
    5.1560   -1.8620   25.0470 O   0  0  0  0  0  0  0  0  0  0  0  0
    5.1780   -3.6800   26.3830 N   0  0  0  0  0  0  0  0  0  0  0  0
    6.0330   -3.7410   27.5760 C   0  0  0  0  0  0  0  0  0  0  0  0
    5.8650   -5.1200   28.0610 C   0  0  0  0  0  0  0  0  0  0  0  0
    5.8110   -6.1500   27.0180 C   0  0  0  0  0  0  0  0  0  0  0  0
    6.9770   -5.5320   28.9720 C   0  0  0  0  0  0  0  0  0  0  0  0
    4.5940   -5.2730   28.8290 C   0  0  2  0  0  0  0  0  0  0  0  0
    4.4150   -4.5060   30.0010 O   0  0  0  0  0  0  0  0  0  0  0  0
    4.2830   -6.6530   29.2900 C   0  0  0  0  0  0  0  0  0  0  0  0
    5.0470   -7.7550   29.0520 C   0  0  0  0  0  0  0  0  0  0  0  0
    5.1600   -7.0810   30.4600 C   0  0  0  0  0  0  0  0  0  0  0  0
    6.8340   -2.5680   23.1910 C   0  0  0  0  0  0  0  0  0  0  0  0
    7.7060   -3.2250   22.1330 C   0  0  0  0  0  0  0  0  0  0  0  0
  1  2  1  0
  2  3  2  0
  2  4  1  0
  4  5  1  0
  5  6  1  0
  6  7  1  0
  7  8  1  0
  8  9  2  0
  8 10  1  0
 10 11  1  0
 12 11  1  0
 12 13  1  0
 12 14  1  0
 12 15  1  0
 15 16  1  1
 15 17  1  0
 17 18  1  0
 17 19  1  0
  7 20  1  0
  4 21  1  0
 20 21  1  0
M  END
