piperidine-amides-2396-covalent
     RDKit          3D

 27 29  0  0  0  0  0  0  0  0999 V2000
    7.0440   -3.3240   19.3420 C   0  0  0  0  0  0  0  0  0  0  0  0
    6.3630   -4.1760   20.3530 C   0  0  0  0  0  0  0  0  0  0  0  0
    5.3880   -4.8240   19.9750 O   0  0  0  0  0  0  0  0  0  0  0  0
    6.8590   -4.2430   21.6600 N   0  0  0  0  0  0  0  0  0  0  0  0
    7.7080   -3.2140   22.2030 C   0  0  0  0  0  0  0  0  0  0  0  0
    7.3760   -2.9930   23.6440 C   0  0  0  0  0  0  0  0  0  0  0  0
    5.9700   -3.5220   23.9320 C   0  0  0  0  0  0  0  0  0  0  0  0
    5.6000   -3.0710   25.2890 C   0  0  0  0  0  0  0  0  0  0  0  0
    4.4120   -2.9520   25.6080 O   0  0  0  0  0  0  0  0  0  0  0  0
    6.6240   -2.7920   26.1990 N   0  0  0  0  0  0  0  0  0  0  0  0
    6.5460   -1.7180   27.1690 C   0  0  0  0  0  0  0  0  0  0  0  0
    5.9230   -0.4500   26.6710 C   0  0  0  0  0  0  0  0  0  0  0  0
    5.6970    0.7350   27.2710 C   0  0  0  0  0  0  0  0  0  0  0  0
    6.0750    0.8860   28.5570 C   0  0  0  0  0  0  0  0  0  0  0  0
    6.0300    1.9240   29.5310 N   0  0  0  0  0  0  0  0  0  0  0  0
    6.6040    1.4930   30.7840 C   0  0  0  0  0  0  0  0  0  0  0  0
    6.6110    2.4030   31.7660 N   0  0  0  0  0  0  0  0  0  0  0  0
    5.3530    2.3100   32.5220 C   0  0  0  0  0  0  0  0  0  0  0  0
    4.6510    1.1490   32.3170 O   0  0  0  0  0  0  0  0  0  0  0  0
    4.7340    3.2830   33.4760 C   0  0  0  0  0  0  0  0  0  0  0  0
    3.4270    3.4640   32.7470 C   0  0  0  0  0  0  0  0  0  0  0  0
    2.7310    4.4400   33.6390 C   0  0  0  0  0  0  0  0  0  0  0  0
    7.1430   -0.1390   30.6510 S   0  0  0  0  0  0  0  0  0  0  0  0
    6.7040   -0.4400   29.0190 C   0  0  0  0  0  0  0  0  0  0  0  0
    7.0710   -1.8660   28.5970 C   0  0  0  0  0  0  0  0  0  0  0  0
    5.9720   -5.0340   23.8070 C   0  0  0  0  0  0  0  0  0  0  0  0
    6.6230   -5.4080   22.4930 C   0  0  0  0  0  0  0  0  0  0  0  0
  1  2  1  0
  2  3  2  0
  2  4  1  0
  4  5  1  0
  5  6  1  0
  6  7  1  0
  7  8  1  0
  8  9  2  0
  8 10  1  0
 10 11  1  0
 11 12  2  0
 12 13  1  0
 13 14  2  0
 14 15  1  0
 15 16  2  0
 16 17  1  0
 17 18  1  0
 18 19  2  0
 18 20  1  0
 20 21  1  0
 21 22  1  0
 16 23  1  0
 14 24  1  0
 23 24  1  0
 11 25  1  0
 24 25  2  0
  7 26  1  0
  4 27  1  0
 26 27  1  0
M  END
