piperidine-amides-18876-covalent
     RDKit          3D

 21 22  0  0  0  0  0  0  0  0999 V2000
    7.1290   -3.3560   19.4500 C   0  0  0  0  0  0  0  0  0  0  0  0
    6.4650   -4.2170   20.3980 C   0  0  0  0  0  0  0  0  0  0  0  0
    5.4530   -4.8880   20.0010 O   0  0  0  0  0  0  0  0  0  0  0  0
    6.9380   -4.3600   21.7260 N   0  0  0  0  0  0  0  0  0  0  0  0
    6.5410   -5.5640   22.4700 C   0  0  0  0  0  0  0  0  0  0  0  0
    5.4960   -4.8980   23.4460 C   0  0  0  0  0  0  0  0  0  0  0  0
    6.2280   -3.8400   24.2590 C   0  0  0  0  0  0  0  0  0  0  0  0
    5.1960   -3.3330   25.3720 C   0  0  0  0  0  0  0  0  0  0  0  0
    4.2330   -2.8340   24.8170 O   0  0  0  0  0  0  0  0  0  0  0  0
    5.6100   -3.5620   26.5570 N   0  0  0  0  0  0  0  0  0  0  0  0
    6.3200   -3.5480   27.6620 C   0  0  0  0  0  0  0  0  0  0  0  0
    6.7200   -4.5300   28.5110 C   0  0  0  0  0  0  0  0  0  0  0  0
    5.6830   -4.6500   29.3860 O   0  0  0  0  0  0  0  0  0  0  0  0
    4.5720   -4.0920   28.8020 C   0  0  2  0  0  0  0  0  0  0  0  0
    3.4370   -4.7310   29.5070 C   0  0  0  0  0  0  0  0  0  0  0  0
    4.1270   -6.1060   29.4510 C   0  0  0  0  0  0  0  0  0  0  0  0
    5.1990   -6.2820   30.0960 O   0  0  0  0  0  0  0  0  0  0  0  0
    5.9490   -7.3670   29.6730 C   0  0  0  0  0  0  0  0  0  0  0  0
    4.7260   -4.4330   27.3170 C   0  0  0  0  0  0  0  0  0  0  0  0
    7.0180   -2.8320   23.5800 C   0  0  0  0  0  0  0  0  0  0  0  0
    7.8070   -3.4820   22.4030 C   0  0  0  0  0  0  0  0  0  0  0  0
  1  2  1  0
  2  3  2  0
  2  4  1  0
  4  5  1  0
  5  6  1  0
  6  7  1  0
  7  8  1  0
  8  9  2  0
  8 10  1  0
 10 11  1  0
 11 12  1  0
 12 13  1  0
 13 14  1  0
 14 15  1  1
 15 16  1  0
 16 17  1  0
 17 18  1  0
 10 19  1  0
 14 19  1  0
  7 20  1  0
  4 21  1  0
 20 21  1  0
M  END
