piperidine-amides-19222-covalent
     RDKit          3D

 21 21  0  0  0  0  0  0  0  0999 V2000
    7.1750   -3.3030   19.3580 C   0  0  0  0  0  0  0  0  0  0  0  0
    6.4500   -4.1090   20.3130 C   0  0  0  0  0  0  0  0  0  0  0  0
    5.3680   -4.6660   19.9360 O   0  0  0  0  0  0  0  0  0  0  0  0
    6.9410   -4.3290   21.6180 N   0  0  0  0  0  0  0  0  0  0  0  0
    6.4360   -5.4830   22.3860 C   0  0  0  0  0  0  0  0  0  0  0  0
    5.4350   -4.7090   23.3170 C   0  0  0  0  0  0  0  0  0  0  0  0
    6.2910   -3.7990   24.1720 C   0  0  0  0  0  0  0  0  0  0  0  0
    5.4190   -3.2180   25.3740 C   0  0  0  0  0  0  0  0  0  0  0  0
    4.4170   -2.7080   24.8990 O   0  0  0  0  0  0  0  0  0  0  0  0
    5.9530   -3.4270   26.5210 N   0  0  0  0  0  0  0  0  0  0  0  0
    6.2710   -4.1010   27.6720 C   0  0  0  0  0  0  0  0  0  0  0  0
    6.3430   -5.4130   28.0730 C   0  0  0  0  0  0  0  0  0  0  0  0
    6.2790   -6.3080   27.0080 O   0  0  0  0  0  0  0  0  0  0  0  0
    6.2880   -2.0400   26.8740 C   0  0  0  0  0  0  0  0  0  0  0  0
    5.2390   -1.2420   27.5550 C   0  0  0  0  0  0  0  0  0  0  0  0
    4.9980   -0.0840   26.8570 O   0  0  0  0  0  0  0  0  0  0  0  0
    4.3400   -0.4220   25.6530 C   0  0  0  0  0  0  0  0  0  0  0  0
    5.4740   -1.1010   28.9100 O   0  0  0  0  0  0  0  0  0  0  0  0
    4.4590   -1.6980   29.6500 C   0  0  0  0  0  0  0  0  0  0  0  0
    6.9560   -2.6840   23.3850 C   0  0  0  0  0  0  0  0  0  0  0  0
    7.7790   -3.3370   22.2780 C   0  0  0  0  0  0  0  0  0  0  0  0
  1  2  1  0
  2  3  2  0
  2  4  1  0
  4  5  1  0
  5  6  1  0
  6  7  1  0
  7  8  1  0
  8  9  2  0
  8 10  1  0
 10 11  1  0
 11 12  1  0
 12 13  1  0
 10 14  1  0
 14 15  1  0
 15 16  1  0
 16 17  1  0
 15 18  1  0
 18 19  1  0
  7 20  1  0
  4 21  1  0
 20 21  1  0
M  END
