piperidine-amides-25324-covalent
     RDKit          3D

 25 28  0  0  0  0  0  0  0  0999 V2000
    7.0640   -3.3140   19.3140 C   0  0  0  0  0  0  0  0  0  0  0  0
    6.3800   -4.1800   20.3090 C   0  0  0  0  0  0  0  0  0  0  0  0
    5.3480   -4.7400   19.9490 O   0  0  0  0  0  0  0  0  0  0  0  0
    6.9330   -4.3790   21.5780 N   0  0  0  0  0  0  0  0  0  0  0  0
    6.6720   -5.5750   22.3210 C   0  0  0  0  0  0  0  0  0  0  0  0
    5.9240   -5.2030   23.5650 C   0  0  0  0  0  0  0  0  0  0  0  0
    6.6320   -4.0410   24.2730 C   0  0  0  0  0  0  0  0  0  0  0  0
    5.7040   -3.5090   25.2930 C   0  0  0  0  0  0  0  0  0  0  0  0
    4.8940   -2.6210   24.9950 O   0  0  0  0  0  0  0  0  0  0  0  0
    5.7260   -4.0220   26.5990 N   0  0  0  0  0  0  0  0  0  0  0  0
    4.4530   -4.0280   27.3160 C   0  0  0  0  0  0  0  0  0  0  0  0
    4.4760   -5.0770   28.4390 C   0  0  0  0  0  0  0  0  0  0  0  0
    5.6420   -5.5400   28.9280 C   0  0  0  0  0  0  0  0  0  0  0  0
    6.5660   -4.7700   28.4510 C   0  0  2  0  0  0  0  0  0  0  0  0
    6.6810   -4.8970   27.1110 C   0  0  0  0  0  0  0  0  0  0  0  0
    7.8240   -5.0820   28.8500 O   0  0  0  0  0  0  0  0  0  0  0  0
    8.4720   -3.9730   28.4110 C   0  0  0  0  0  0  0  0  0  0  0  0
    7.4960   -2.9050   28.6910 C   0  0  0  0  0  0  0  0  0  0  0  0
    8.0050   -1.5100   28.8920 C   0  0  0  0  0  0  0  0  0  0  0  0
    6.8910   -0.5280   29.1990 C   0  0  0  0  0  0  0  0  0  0  0  0
    5.4700   -1.0040   29.2740 C   0  0  0  0  0  0  0  0  0  0  0  0
    5.1670   -2.4560   29.0410 C   0  0  0  0  0  0  0  0  0  0  0  0
    6.3010   -3.3440   28.7450 C   0  0  0  0  0  0  0  0  0  0  0  0
    6.9620   -2.9110   23.3030 C   0  0  0  0  0  0  0  0  0  0  0  0
    7.7210   -3.3490   22.2410 C   0  0  0  0  0  0  0  0  0  0  0  0
  1  2  1  0
  2  3  2  0
  2  4  1  0
  4  5  1  0
  5  6  1  0
  6  7  1  0
  7  8  1  0
  8  9  2  0
  8 10  1  0
 10 11  1  0
 11 12  1  0
 12 13  1  0
 14 13  1  1
 10 15  1  0
 14 15  1  0
 14 16  1  0
 16 17  1  0
 17 18  1  0
 18 19  1  0
 19 20  2  0
 20 21  1  0
 21 22  2  0
 14 23  1  0
 18 23  2  0
 22 23  1  0
  7 24  1  0
  4 25  1  0
 24 25  1  0
M  END
