piperidine-amides-29828-covalent
     RDKit          3D

 27 30  0  0  0  0  0  0  0  0999 V2000
    7.1040   -3.3620   19.2890 C   0  0  0  0  0  0  0  0  0  0  0  0
    6.4180   -4.2030   20.2550 C   0  0  0  0  0  0  0  0  0  0  0  0
    5.3560   -4.7460   19.9590 O   0  0  0  0  0  0  0  0  0  0  0  0
    7.0250   -4.4610   21.5270 N   0  0  0  0  0  0  0  0  0  0  0  0
    7.7440   -3.4150   22.2000 C   0  0  0  0  0  0  0  0  0  0  0  0
    6.8500   -2.7810   23.2160 C   0  0  0  0  0  0  0  0  0  0  0  0
    6.3410   -3.8870   24.1170 C   0  0  0  0  0  0  0  0  0  0  0  0
    5.3190   -3.3430   25.0400 C   0  0  0  0  0  0  0  0  0  0  0  0
    4.3070   -2.7360   24.6570 O   0  0  0  0  0  0  0  0  0  0  0  0
    5.5420   -3.5470   26.3970 N   0  0  0  0  0  0  0  0  0  0  0  0
    6.5860   -2.6820   26.7780 C   0  0  0  0  0  0  0  0  0  0  0  0
    6.4920   -3.4610   27.9040 C   0  0  0  0  0  0  0  0  0  0  0  0
    6.2800   -3.3860   29.1210 C   0  0  0  0  0  0  0  0  0  0  0  0
    6.9430   -2.2060   28.8440 C   0  0  0  0  0  0  0  0  0  0  0  0
    5.1290   -3.4910   27.4860 O   0  0  0  0  0  0  0  0  0  0  0  0
    4.6990   -4.5780   28.1140 C   0  0  0  0  0  0  0  0  0  0  0  0
    4.4390   -6.0560   28.5000 C   0  0  0  0  0  0  0  0  0  0  0  0
    3.9610   -7.1630   29.2140 C   0  0  0  0  0  0  0  0  0  0  0  0
    2.6940   -7.6720   28.9480 O   0  0  0  0  0  0  0  0  0  0  0  0
    4.7250   -7.7620   30.1960 O   0  0  0  0  0  0  0  0  0  0  0  0
    6.0450   -7.3290   30.3480 C   0  0  0  0  0  0  0  0  0  0  0  0
    3.7210   -5.4940   29.5630 C   0  0  0  0  0  0  0  0  0  0  0  0
    4.4250   -4.9430   28.4820 C   0  0  0  0  0  0  0  0  0  0  0  0
    5.0330   -5.9600   27.7300 C   0  0  0  0  0  0  0  0  0  0  0  0
    5.4100   -4.9870   26.9340 C   0  0  0  0  0  0  0  0  0  0  0  0
    5.6950   -5.0280   23.3670 C   0  0  0  0  0  0  0  0  0  0  0  0
    6.6280   -5.6000   22.3000 C   0  0  0  0  0  0  0  0  0  0  0  0
  1  2  1  0
  2  3  2  0
  2  4  1  0
  4  5  1  0
  5  6  1  0
  6  7  1  0
  7  8  1  0
  8  9  2  0
  8 10  1  0
 10 11  1  0
 11 12  1  0
 12 13  1  0
 12 14  1  0
 13 14  1  0
 12 15  1  0
 15 16  1  0
 16 17  2  0
 17 18  1  0
 18 19  2  0
 18 20  1  0
 20 21  1  0
 17 22  1  0
 22 23  2  0
 23 24  1  0
 10 25  1  0
 16 25  1  0
 24 25  2  0
  7 26  1  0
  4 27  1  0
 26 27  1  0
M  END
