piperidine-amides-302-covalent
     RDKit          3D

 29 32  0  0  0  0  0  0  0  0999 V2000
    7.1460   -3.2610   19.3010 C   0  0  0  0  0  0  0  0  0  0  0  0
    6.3540   -4.0180   20.2540 C   0  0  0  0  0  0  0  0  0  0  0  0
    5.2750   -4.5620   19.8710 O   0  0  0  0  0  0  0  0  0  0  0  0
    6.7510   -4.2020   21.5820 N   0  0  0  0  0  0  0  0  0  0  0  0
    7.6810   -3.1740   22.1330 C   0  0  0  0  0  0  0  0  0  0  0  0
    7.5330   -3.3590   23.6860 C   0  0  0  0  0  0  0  0  0  0  0  0
    6.1300   -3.8590   23.9060 C   0  0  0  0  0  0  0  0  0  0  0  0
    5.5870   -3.5660   25.3600 C   0  0  0  0  0  0  0  0  0  0  0  0
    4.8500   -4.4400   25.7800 O   0  0  0  0  0  0  0  0  0  0  0  0
    6.0750   -2.4610   25.6780 N   0  0  0  0  0  0  0  0  0  0  0  0
    6.5880   -1.2590   25.9420 C   0  0  0  0  0  0  0  0  0  0  0  0
    7.2990   -0.2480   25.3960 C   0  0  0  0  0  0  0  0  0  0  0  0
    6.6190    0.9520   25.0530 C   0  0  0  0  0  0  0  0  0  0  0  0
    7.2150    2.1890   24.4700 C   0  0  0  0  0  0  0  0  0  0  0  0
    8.7290    1.9020   24.3220 C   0  0  0  0  0  0  0  0  0  0  0  0
    9.2670    3.0750   23.8560 C   0  0  0  0  0  0  0  0  0  0  0  0
    8.4190    4.2570   24.0050 C   0  0  0  0  0  0  0  0  0  0  0  0
    9.2620    5.4790   23.4840 C   0  0  0  0  0  0  0  0  0  0  0  0
   10.6970    5.3040   22.9410 C   0  0  0  0  0  0  0  0  0  0  0  0
   11.5150    6.2820   22.4860 C   0  0  0  0  0  0  0  0  0  0  0  0
   12.7950    6.0560   22.0050 C   0  0  0  0  0  0  0  0  0  0  0  0
   13.2230    4.7720   22.0020 C   0  0  0  0  0  0  0  0  0  0  0  0
   12.4450    3.7580   22.4580 C   0  0  0  0  0  0  0  0  0  0  0  0
   11.2180    4.1310   22.8990 C   0  0  0  0  0  0  0  0  0  0  0  0
   10.5200    2.9830   23.3540 C   0  0  0  0  0  0  0  0  0  0  0  0
    9.4310    0.7350   24.6230 C   0  0  0  0  0  0  0  0  0  0  0  0
    8.6440   -0.3740   25.1840 C   0  0  0  0  0  0  0  0  0  0  0  0
    5.9910   -5.3190   23.5240 C   0  0  0  0  0  0  0  0  0  0  0  0
    6.6430   -5.5050   22.1870 C   0  0  0  0  0  0  0  0  0  0  0  0
  1  2  1  0
  2  3  2  0
  2  4  1  0
  4  5  1  0
  5  6  1  0
  6  7  1  0
  7  8  1  0
  8  9  2  0
  8 10  1  0
 10 11  1  0
 11 12  1  0
 12 13  2  0
 13 14  1  0
 14 15  2  0
 15 16  1  0
 16 17  2  0
 17 18  1  0
 18 19  2  0
 19 20  1  0
 20 21  2  0
 21 22  1  0
 22 23  2  0
 19 24  1  0
 23 24  1  0
 16 25  1  0
 24 25  2  0
 15 26  1  0
 12 27  1  0
 26 27  2  0
  7 28  1  0
  4 29  1  0
 28 29  1  0
M  END
