piperidine-amides-25414-covalent
     RDKit          3D

 25 27  0  0  0  0  0  0  0  0999 V2000
    7.0430   -3.3990   19.4410 C   0  0  0  0  0  0  0  0  0  0  0  0
    6.3820   -4.2830   20.4340 C   0  0  0  0  0  0  0  0  0  0  0  0
    5.4240   -4.9340   20.0140 O   0  0  0  0  0  0  0  0  0  0  0  0
    6.8730   -4.3840   21.7550 N   0  0  0  0  0  0  0  0  0  0  0  0
    6.5680   -5.5440   22.5710 C   0  0  0  0  0  0  0  0  0  0  0  0
    6.0410   -5.1160   23.9310 C   0  0  0  0  0  0  0  0  0  0  0  0
    5.8670   -3.5910   23.9560 C   0  0  0  0  0  0  0  0  0  0  0  0
    5.1200   -3.0590   25.1470 C   0  0  0  0  0  0  0  0  0  0  0  0
    4.1190   -2.3960   24.8960 O   0  0  0  0  0  0  0  0  0  0  0  0
    5.4050   -3.2200   26.5300 N   0  0  0  0  0  0  0  0  0  0  0  0
    6.7050   -3.2290   26.9750 C   0  0  0  0  0  0  0  0  0  0  0  0
    6.5620   -4.3810   27.9370 C   0  0  0  0  0  0  0  0  0  0  0  0
    5.2580   -4.5980   28.2220 C   0  0  0  0  0  0  0  0  0  0  0  0
    4.4830   -3.7270   27.4880 C   0  0  2  0  0  0  0  0  0  0  0  0
    3.3120   -4.1500   26.9100 C   0  0  0  0  0  0  0  0  0  0  0  0
    2.3050   -3.1010   26.3870 C   0  0  0  0  0  0  0  0  0  0  0  0
    1.0530   -3.6710   25.7540 C   0  0  0  0  0  0  0  0  0  0  0  0
    0.9120   -5.1570   25.6970 C   0  0  0  0  0  0  0  0  0  0  0  0
   -0.3600   -5.5750   25.0470 C   0  0  0  0  0  0  0  0  0  0  0  0
   -0.3350   -5.4710   23.5540 C   0  0  0  0  0  0  0  0  0  0  0  0
   -1.4600   -4.7420   25.6290 C   0  0  0  0  0  0  0  0  0  0  0  0
    1.8640   -6.1560   26.1960 C   0  0  0  0  0  0  0  0  0  0  0  0
    3.1050   -5.6300   26.8230 C   0  0  0  0  0  0  0  0  0  0  0  0
    7.2090   -2.9540   23.7060 C   0  0  0  0  0  0  0  0  0  0  0  0
    7.6330   -3.2790   22.2960 C   0  0  0  0  0  0  0  0  0  0  0  0
  1  2  1  0
  2  3  2  0
  2  4  1  0
  4  5  1  0
  5  6  1  0
  6  7  1  0
  7  8  1  0
  8  9  2  0
  8 10  1  0
 10 11  1  0
 11 12  1  0
 12 13  1  0
 10 14  1  0
 13 14  1  0
 14 15  1  6
 15 16  2  0
 16 17  1  0
 17 18  2  0
 18 19  1  0
 19 20  1  0
 19 21  1  0
 18 22  1  0
 15 23  1  0
 22 23  2  0
  7 24  1  0
  4 25  1  0
 24 25  1  0
M  END
