piperidine-amides-19259-covalent
     RDKit          3D

 22 23  0  0  0  0  0  0  0  0999 V2000
    7.1660   -3.3060   19.3820 C   0  0  0  0  0  0  0  0  0  0  0  0
    6.4350   -4.0990   20.3430 C   0  0  0  0  0  0  0  0  0  0  0  0
    5.3900   -4.7130   19.9530 O   0  0  0  0  0  0  0  0  0  0  0  0
    6.8750   -4.2410   21.6780 N   0  0  0  0  0  0  0  0  0  0  0  0
    6.5620   -5.4840   22.4030 C   0  0  0  0  0  0  0  0  0  0  0  0
    5.5690   -4.8870   23.4670 C   0  0  0  0  0  0  0  0  0  0  0  0
    6.3070   -3.7730   24.1930 C   0  0  0  0  0  0  0  0  0  0  0  0
    5.3520   -3.1710   25.3250 C   0  0  0  0  0  0  0  0  0  0  0  0
    4.2620   -2.9350   24.8280 O   0  0  0  0  0  0  0  0  0  0  0  0
    5.9190   -3.0800   26.4750 N   0  0  0  0  0  0  0  0  0  0  0  0
    6.1810   -3.3990   27.7810 C   0  0  0  0  0  0  0  0  0  0  0  0
    6.5090   -1.8010   26.4530 C   0  0  0  0  0  0  0  0  0  0  0  0
    6.3700   -0.9690   27.5940 C   0  0  0  0  0  0  0  0  0  0  0  0
    7.1760   -1.2500   28.8330 C   0  0  0  0  0  0  0  0  0  0  0  0
    6.7510   -0.1700   29.7690 C   0  0  0  0  0  0  0  0  0  0  0  0
    7.2830   -0.0760   31.0520 C   0  0  0  0  0  0  0  0  0  0  0  0
    5.8730    0.9960   29.8940 C   0  0  0  0  0  0  0  0  0  0  0  0
    5.1450    1.1320   28.5800 C   0  0  0  0  0  0  0  0  0  0  0  0
    5.3380    0.1650   27.3340 C   0  0  0  0  0  0  0  0  0  0  0  0
    4.7250    0.2120   26.1060 C   0  0  0  0  0  0  0  0  0  0  0  0
    6.9270   -2.6770   23.3210 C   0  0  0  0  0  0  0  0  0  0  0  0
    7.6720   -3.2370   22.3310 C   0  0  0  0  0  0  0  0  0  0  0  0
  1  2  1  0
  2  3  2  0
  2  4  1  0
  4  5  1  0
  5  6  1  0
  6  7  1  0
  7  8  1  0
  8  9  2  0
  8 10  1  0
 10 11  1  0
 10 12  1  0
 12 13  1  0
 13 14  2  0
 14 15  1  0
 15 16  1  0
 15 17  2  0
 17 18  1  0
 13 19  1  0
 18 19  2  0
 19 20  1  0
  7 21  1  0
  4 22  1  0
 21 22  1  0
M  END
