piperidine-amides-10671-covalent
     RDKit          3D

 23 24  0  0  0  0  0  0  0  0999 V2000
    7.1140   -3.2890   19.2160 C   0  0  0  0  0  0  0  0  0  0  0  0
    6.3860   -4.0450   20.2410 C   0  0  0  0  0  0  0  0  0  0  0  0
    5.2960   -4.5670   19.8930 O   0  0  0  0  0  0  0  0  0  0  0  0
    6.9390   -4.1970   21.5090 N   0  0  0  0  0  0  0  0  0  0  0  0
    7.7450   -3.1730   22.1190 C   0  0  0  0  0  0  0  0  0  0  0  0
    6.9550   -2.6500   23.2670 C   0  0  0  0  0  0  0  0  0  0  0  0
    6.5890   -3.7660   24.2030 C   0  0  0  0  0  0  0  0  0  0  0  0
    5.8630   -3.1940   25.3470 C   0  0  0  0  0  0  0  0  0  0  0  0
    4.6160   -3.1050   25.2780 O   0  0  0  0  0  0  0  0  0  0  0  0
    6.5190   -2.7420   26.4960 N   0  0  0  0  0  0  0  0  0  0  0  0
    6.4350   -3.4980   27.7110 C   0  0  0  0  0  0  0  0  0  0  0  0
    6.5710   -4.9990   27.5040 C   0  0  0  0  0  0  0  0  0  0  0  0
    5.7880   -5.8360   28.2370 C   0  0  0  0  0  0  0  0  0  0  0  0
    6.3080   -6.4710   29.3350 C   0  0  0  0  0  0  0  0  0  0  0  0
    5.5670   -7.3250   30.1480 C   0  0  0  0  0  0  0  0  0  0  0  0
    4.2280   -7.6120   29.9160 C   0  0  0  0  0  0  0  0  0  0  0  0
    3.5200   -8.4690   30.7640 O   0  0  0  0  0  0  0  0  0  0  0  0
    3.4730   -8.1460   32.1410 C   0  0  0  0  0  0  0  0  0  0  0  0
    3.5820   -6.9480   28.7010 C   0  0  0  0  0  0  0  0  0  0  0  0
    2.2840   -7.1580   28.3790 F   0  0  0  0  0  0  0  0  0  0  0  0
    4.4880   -6.0440   27.8990 C   0  0  0  0  0  0  0  0  0  0  0  0
    5.7600   -4.8480   23.4850 C   0  0  0  0  0  0  0  0  0  0  0  0
    6.5960   -5.3600   22.3210 C   0  0  0  0  0  0  0  0  0  0  0  0
  1  2  1  0
  2  3  2  0
  2  4  1  0
  4  5  1  0
  5  6  1  0
  6  7  1  0
  7  8  1  0
  8  9  2  0
  8 10  1  0
 10 11  1  0
 11 12  1  0
 12 13  1  0
 13 14  2  0
 14 15  1  0
 15 16  2  0
 16 17  1  0
 17 18  1  0
 16 19  1  0
 19 20  1  0
 13 21  1  0
 19 21  2  0
  7 22  1  0
  4 23  1  0
 22 23  1  0
M  END
