piperidine-amides-19431-covalent
     RDKit          3D

 22 24  0  0  0  0  0  0  0  0999 V2000
    7.1830   -3.3980   19.4940 C   0  0  0  0  0  0  0  0  0  0  0  0
    6.4780   -4.2540   20.4040 C   0  0  0  0  0  0  0  0  0  0  0  0
    5.4140   -4.8320   19.9930 O   0  0  0  0  0  0  0  0  0  0  0  0
    6.9850   -4.5050   21.6990 N   0  0  0  0  0  0  0  0  0  0  0  0
    6.4680   -5.6630   22.4300 C   0  0  0  0  0  0  0  0  0  0  0  0
    5.4480   -4.8820   23.3300 C   0  0  0  0  0  0  0  0  0  0  0  0
    6.2550   -3.8920   24.1530 C   0  0  0  0  0  0  0  0  0  0  0  0
    5.3050   -3.2540   25.2580 C   0  0  0  0  0  0  0  0  0  0  0  0
    4.3770   -2.6920   24.7060 O   0  0  0  0  0  0  0  0  0  0  0  0
    5.7090   -3.4630   26.4450 N   0  0  0  0  0  0  0  0  0  0  0  0
    6.4390   -3.6100   27.5460 C   0  0  0  0  0  0  0  0  0  0  0  0
    6.7740   -4.6580   28.3370 C   0  0  0  0  0  0  0  0  0  0  0  0
    5.6410   -4.8250   29.0630 C   0  0  0  0  0  0  0  0  0  0  0  0
    4.4700   -4.6710   28.2020 C   0  0  2  0  0  0  0  0  0  0  0  0
    4.0140   -5.7980   27.4830 N   0  0  0  0  0  0  0  0  0  0  0  0
    4.4810   -6.2520   26.1690 C   0  0  0  0  0  0  0  0  0  0  0  0
    3.7380   -7.3630   25.8980 C   0  0  0  0  0  0  0  0  0  0  0  0
    2.8480   -7.6910   26.8930 C   0  0  0  0  0  0  0  0  0  0  0  0
    3.0480   -6.6550   27.9080 N   0  0  0  0  0  0  0  0  0  0  0  0
    4.5680   -3.4850   27.3330 C   0  0  0  0  0  0  0  0  0  0  0  0
    7.0510   -2.9180   23.3280 C   0  0  0  0  0  0  0  0  0  0  0  0
    7.8140   -3.5620   22.3910 C   0  0  0  0  0  0  0  0  0  0  0  0
  1  2  1  0
  2  3  2  0
  2  4  1  0
  4  5  1  0
  5  6  1  0
  6  7  1  0
  7  8  1  0
  8  9  2  0
  8 10  1  0
 10 11  1  0
 11 12  1  0
 12 13  1  0
 13 14  1  0
 14 15  1  6
 15 16  1  0
 16 17  2  0
 17 18  1  0
 15 19  1  0
 18 19  2  0
 10 20  1  0
 14 20  1  0
  7 21  1  0
  4 22  1  0
 21 22  1  0
M  END
