piperidine-amides-33355-covalent
     RDKit          3D

 29 31  0  0  0  0  0  0  0  0999 V2000
    7.1650   -3.3630   19.2790 C   0  0  0  0  0  0  0  0  0  0  0  0
    6.4370   -4.1560   20.2690 C   0  0  0  0  0  0  0  0  0  0  0  0
    5.3240   -4.6170   19.9210 O   0  0  0  0  0  0  0  0  0  0  0  0
    7.0300   -4.4440   21.5180 N   0  0  0  0  0  0  0  0  0  0  0  0
    6.4890   -5.5180   22.2440 C   0  0  0  0  0  0  0  0  0  0  0  0
    5.7840   -5.0910   23.4440 C   0  0  0  0  0  0  0  0  0  0  0  0
    6.3680   -3.9600   24.2140 C   0  0  0  0  0  0  0  0  0  0  0  0
    5.3460   -3.4310   25.1550 C   0  0  0  0  0  0  0  0  0  0  0  0
    4.4080   -2.7630   24.7000 O   0  0  0  0  0  0  0  0  0  0  0  0
    5.4030   -3.6530   26.5240 N   0  0  0  0  0  0  0  0  0  0  0  0
    4.3440   -4.1690   27.3030 C   0  0  0  0  0  0  0  0  0  0  0  0
    4.5250   -4.5960   28.6780 C   0  0  0  0  0  0  0  0  0  0  0  0
    5.7120   -3.8410   29.2360 C   0  0  0  0  0  0  0  0  0  0  0  0
    5.4320   -2.4980   29.5390 C   0  0  2  0  0  0  0  0  0  0  0  0
    6.4380   -1.7750   30.1310 O   0  0  0  0  0  0  0  0  0  0  0  0
    4.3460   -2.8330   30.5880 C   0  0  0  0  0  0  0  0  0  0  0  0
    3.6250   -1.9990   29.6300 C   0  0  1  0  0  0  0  0  0  0  0  0
    3.3780   -1.0200   30.7940 C   0  0  0  0  0  0  0  0  0  0  0  0
    2.5570   -1.2720   31.7000 O   0  0  0  0  0  0  0  0  0  0  0  0
    4.0760    0.1780   30.8450 O   0  0  0  0  0  0  0  0  0  0  0  0
    4.6240    0.7460   32.0000 C   0  0  0  0  0  0  0  0  0  0  0  0
    4.6250    2.2600   31.9180 C   0  0  0  0  0  0  0  0  0  0  0  0
    6.0330    0.2760   32.2800 C   0  0  0  0  0  0  0  0  0  0  0  0
    3.7660    0.3640   33.1920 C   0  0  0  0  0  0  0  0  0  0  0  0
    4.5440   -1.6960   28.6410 C   0  0  0  0  0  0  0  0  0  0  0  0
    6.7470   -3.8680   28.3920 C   0  0  0  0  0  0  0  0  0  0  0  0
    6.4050   -2.9720   27.2330 C   0  0  0  0  0  0  0  0  0  0  0  0
    6.9490   -2.8580   23.3830 C   0  0  0  0  0  0  0  0  0  0  0  0
    7.7030   -3.3840   22.1930 C   0  0  0  0  0  0  0  0  0  0  0  0
  1  2  1  0
  2  3  2  0
  2  4  1  0
  4  5  1  0
  5  6  1  0
  6  7  1  0
  7  8  1  0
  8  9  2  0
  8 10  1  0
 10 11  1  0
 11 12  1  0
 12 13  1  0
 13 14  1  0
 14 15  1  1
 14 16  1  0
 16 17  1  0
 17 18  1  1
 18 19  2  0
 18 20  1  0
 21 20  1  0
 21 22  1  0
 21 23  1  0
 21 24  1  0
 14 25  1  0
 17 25  1  0
 13 26  1  0
 10 27  1  0
 26 27  1  0
  7 28  1  0
  4 29  1  0
 28 29  1  0
M  END
