piperidine-amides-1666-covalent
     RDKit          3D

 20 21  0  0  0  0  0  0  0  0999 V2000
    7.0770   -3.2620   19.2410 C   0  0  0  0  0  0  0  0  0  0  0  0
    6.3170   -4.0490   20.2550 C   0  0  0  0  0  0  0  0  0  0  0  0
    5.2730   -4.6220   19.9030 O   0  0  0  0  0  0  0  0  0  0  0  0
    6.8120   -4.1670   21.5740 N   0  0  0  0  0  0  0  0  0  0  0  0
    6.6540   -5.4080   22.3050 C   0  0  0  0  0  0  0  0  0  0  0  0
    6.2010   -5.1180   23.7520 C   0  0  0  0  0  0  0  0  0  0  0  0
    6.1060   -3.6460   23.9670 C   0  0  0  0  0  0  0  0  0  0  0  0
    5.5960   -3.2650   25.3030 C   0  0  0  0  0  0  0  0  0  0  0  0
    4.3740   -3.1110   25.3880 O   0  0  0  0  0  0  0  0  0  0  0  0
    6.4590   -3.1000   26.3910 N   0  0  0  0  0  0  0  0  0  0  0  0
    6.1820   -3.3990   27.7550 C   0  0  0  0  0  0  0  0  0  0  0  0
    6.0610   -2.4450   28.7350 C   0  0  0  0  0  0  0  0  0  0  0  0
    7.0300   -1.5750   29.2200 C   0  0  0  0  0  0  0  0  0  0  0  0
    6.5130   -0.7890   30.1910 C   0  0  0  0  0  0  0  0  0  0  0  0
    6.9850    0.1740   30.9610 O   0  0  0  0  0  0  0  0  0  0  0  0
    8.2940    0.1370   31.0360 C   0  0  0  0  0  0  0  0  0  0  0  0
    5.2190   -1.1510   30.3260 N   0  0  0  0  0  0  0  0  0  0  0  0
    4.8830   -2.1680   29.4560 O   0  0  0  0  0  0  0  0  0  0  0  0
    7.4200   -3.0080   23.6320 C   0  0  0  0  0  0  0  0  0  0  0  0
    7.6650   -3.1690   22.1440 C   0  0  0  0  0  0  0  0  0  0  0  0
  1  2  1  0
  2  3  2  0
  2  4  1  0
  4  5  1  0
  5  6  1  0
  6  7  1  0
  7  8  1  0
  8  9  2  0
  8 10  1  0
 10 11  1  0
 11 12  1  0
 12 13  2  0
 13 14  1  0
 14 15  1  0
 15 16  1  0
 14 17  2  0
 12 18  1  0
 17 18  1  0
  7 19  1  0
  4 20  1  0
 19 20  1  0
M  END
