piperidine-amides-33726-covalent
     RDKit          3D

 29 31  0  0  0  0  0  0  0  0999 V2000
    7.1410   -3.3440   19.2970 C   0  0  0  0  0  0  0  0  0  0  0  0
    6.4140   -4.1410   20.2950 C   0  0  0  0  0  0  0  0  0  0  0  0
    5.3320   -4.6590   19.9310 O   0  0  0  0  0  0  0  0  0  0  0  0
    6.9600   -4.3600   21.5820 N   0  0  0  0  0  0  0  0  0  0  0  0
    6.4630   -5.4440   22.3550 C   0  0  0  0  0  0  0  0  0  0  0  0
    5.9440   -5.0660   23.6700 C   0  0  0  0  0  0  0  0  0  0  0  0
    6.6000   -3.9070   24.3290 C   0  0  0  0  0  0  0  0  0  0  0  0
    5.7740   -3.4100   25.4700 C   0  0  0  0  0  0  0  0  0  0  0  0
    4.6170   -3.0020   25.2490 O   0  0  0  0  0  0  0  0  0  0  0  0
    6.2720   -3.3960   26.7850 N   0  0  0  0  0  0  0  0  0  0  0  0
    6.7260   -4.5470   27.4900 C   0  0  0  0  0  0  0  0  0  0  0  0
    5.8320   -5.6370   27.8300 C   0  0  0  0  0  0  0  0  0  0  0  0
    5.6200   -6.8630   28.7400 C   0  0  0  0  0  0  0  0  0  0  0  0
    6.3540   -2.1030   27.4330 C   0  0  0  0  0  0  0  0  0  0  0  0
    6.0010   -0.9020   26.8080 N   0  0  0  0  0  0  0  0  0  0  0  0
    6.1660    0.2080   27.6460 C   0  0  0  0  0  0  0  0  0  0  0  0
    5.8620    1.6060   27.2050 C   0  0  0  0  0  0  0  0  0  0  0  0
    4.7450    1.9420   28.1800 C   0  0  0  0  0  0  0  0  0  0  0  0
    4.1390    3.3140   28.0690 C   0  0  0  0  0  0  0  0  0  0  0  0
    4.6840    4.2550   26.9990 C   0  0  0  0  0  0  0  0  0  0  0  0
    4.0040    5.5470   27.0080 N   0  0  0  0  0  0  0  0  0  0  0  0
    3.1580    5.8270   26.0330 O   0  0  0  0  0  0  0  0  0  0  0  0
    4.3600    6.5270   27.8850 O   0  0  0  0  0  0  0  0  0  0  0  0
    5.8270    3.8540   26.0310 C   0  0  0  0  0  0  0  0  0  0  0  0
    6.3410    2.4660   26.2470 C   0  0  0  0  0  0  0  0  0  0  0  0
    6.6180    0.1170   28.9320 C   0  0  0  0  0  0  0  0  0  0  0  0
    6.8700   -1.5730   29.1030 S   0  0  0  0  0  0  0  0  0  0  0  0
    6.9650   -2.7980   23.4050 C   0  0  0  0  0  0  0  0  0  0  0  0
    7.7090   -3.3030   22.2050 C   0  0  0  0  0  0  0  0  0  0  0  0
  1  2  1  0
  2  3  2  0
  2  4  1  0
  4  5  1  0
  5  6  1  0
  6  7  1  0
  7  8  1  0
  8  9  2  0
  8 10  1  0
 10 11  1  0
 11 12  1  0
 12 13  2  3
 10 14  1  0
 14 15  2  0
 15 16  1  0
 16 17  1  0
 17 18  2  0
 18 19  1  0
 19 20  2  0
 20 21  1  0
 21 22  2  0
 21 23  1  0
 20 24  1  0
 17 25  1  0
 24 25  2  0
 16 26  2  0
 14 27  1  0
 26 27  1  0
  7 28  1  0
  4 29  1  0
 28 29  1  0
M  CHG  2  21   1  23  -1
M  END
