piperidine-amides-10069-covalent
     RDKit          3D

 26 28  0  0  0  0  0  0  0  0999 V2000
    7.0450   -3.3280   19.3410 C   0  0  0  0  0  0  0  0  0  0  0  0
    6.3770   -4.1630   20.3460 C   0  0  0  0  0  0  0  0  0  0  0  0
    5.3500   -4.7820   19.9630 O   0  0  0  0  0  0  0  0  0  0  0  0
    6.8920   -4.2920   21.6380 N   0  0  0  0  0  0  0  0  0  0  0  0
    7.7250   -3.2640   22.2310 C   0  0  0  0  0  0  0  0  0  0  0  0
    7.5090   -3.2960   23.7110 C   0  0  0  0  0  0  0  0  0  0  0  0
    6.0760   -3.6420   23.9960 C   0  0  0  0  0  0  0  0  0  0  0  0
    5.6640   -3.3480   25.3860 C   0  0  0  0  0  0  0  0  0  0  0  0
    4.4400   -3.4200   25.6450 O   0  0  0  0  0  0  0  0  0  0  0  0
    6.5490   -2.9930   26.4270 N   0  0  0  0  0  0  0  0  0  0  0  0
    6.7510   -1.6080   26.8110 C   0  0  2  0  0  0  0  0  0  0  0  0
    7.3060   -1.5990   28.2220 C   0  0  0  0  0  0  0  0  0  0  0  0
    6.9420   -0.6310   29.1170 C   0  0  0  0  0  0  0  0  0  0  0  0
    6.3270    0.5220   28.6640 C   0  0  0  0  0  0  0  0  0  0  0  0
    5.9190    0.5650   27.3280 C   0  0  0  0  0  0  0  0  0  0  0  0
    5.7310   -0.6400   26.6520 C   0  0  1  0  0  0  0  0  0  0  0  0
    5.1610   -0.5100   25.3680 O   0  0  0  0  0  0  0  0  0  0  0  0
    5.8500    0.1370   24.3040 C   0  0  0  0  0  0  0  0  0  0  0  0
    7.2920   -0.2680   23.9940 C   0  0  0  0  0  0  0  0  0  0  0  0
    7.9190    0.4940   22.8270 C   0  0  0  0  0  0  0  0  0  0  0  0
    7.2110    1.5460   22.0410 C   0  0  0  0  0  0  0  0  0  0  0  0
    7.8330    2.1730   21.0260 F   0  0  0  0  0  0  0  0  0  0  0  0
    5.8020    1.8020   22.4990 C   0  0  0  0  0  0  0  0  0  0  0  0
    5.2100    1.1290   23.5490 C   0  0  0  0  0  0  0  0  0  0  0  0
    5.9000   -5.1180   23.6750 C   0  0  0  0  0  0  0  0  0  0  0  0
    6.6840   -5.4970   22.4240 C   0  0  0  0  0  0  0  0  0  0  0  0
  1  2  1  0
  2  3  2  0
  2  4  1  0
  4  5  1  0
  5  6  1  0
  6  7  1  0
  7  8  1  0
  8  9  2  0
  8 10  1  0
 11 10  1  1
 11 12  1  0
 12 13  1  0
 13 14  1  0
 14 15  1  0
 11 16  1  0
 15 16  1  0
 16 17  1  6
 17 18  1  0
 18 19  2  0
 19 20  1  0
 20 21  2  0
 21 22  1  0
 21 23  1  0
 18 24  1  0
 23 24  2  0
  7 25  1  0
  4 26  1  0
 25 26  1  0
M  END
