piperidine-amides-17130-covalent
     RDKit          3D

 20 21  0  0  0  0  0  0  0  0999 V2000
    7.0910   -3.2810   19.2360 C   0  0  0  0  0  0  0  0  0  0  0  0
    6.3600   -4.0410   20.2670 C   0  0  0  0  0  0  0  0  0  0  0  0
    5.2870   -4.5730   19.9000 O   0  0  0  0  0  0  0  0  0  0  0  0
    6.8590   -4.2260   21.5880 N   0  0  0  0  0  0  0  0  0  0  0  0
    7.6280   -3.1920   22.2040 C   0  0  0  0  0  0  0  0  0  0  0  0
    7.2580   -2.9480   23.5910 C   0  0  0  0  0  0  0  0  0  0  0  0
    6.0570   -3.7060   23.9870 C   0  0  0  0  0  0  0  0  0  0  0  0
    5.5430   -3.3560   25.3580 C   0  0  0  0  0  0  0  0  0  0  0  0
    4.3120   -3.3320   25.5250 O   0  0  0  0  0  0  0  0  0  0  0  0
    6.3640   -3.0300   26.4600 N   0  0  0  0  0  0  0  0  0  0  0  0
    6.7810   -1.7120   26.7610 C   0  0  0  0  0  0  0  0  0  0  0  0
    6.2110   -3.8740   27.6460 C   0  0  0  0  0  0  0  0  0  0  0  0
    6.1900   -5.4130   27.4930 C   0  0  0  0  0  0  0  0  0  0  0  0
    5.0610   -6.0830   27.9280 C   0  0  1  0  0  0  0  0  0  0  0  0
    5.7800   -6.5010   29.2260 C   0  0  0  0  0  0  0  0  0  0  0  0
    4.5780   -7.2670   29.7480 C   0  0  0  0  0  0  0  0  0  0  0  0
    3.7170   -6.0270   29.4720 C   0  0  0  0  0  0  0  0  0  0  0  0
    3.9240   -5.4080   28.2670 O   0  0  0  0  0  0  0  0  0  0  0  0
    6.1920   -5.1940   23.7600 C   0  0  0  0  0  0  0  0  0  0  0  0
    6.5950   -5.4580   22.3110 C   0  0  0  0  0  0  0  0  0  0  0  0
  1  2  1  0
  2  3  2  0
  2  4  1  0
  4  5  1  0
  5  6  1  0
  6  7  1  0
  7  8  1  0
  8  9  2  0
  8 10  1  0
 10 11  1  0
 10 12  1  0
 12 13  1  0
 14 13  1  6
 14 15  1  0
 15 16  1  0
 16 17  1  0
 14 18  1  0
 17 18  1  0
  7 19  1  0
  4 20  1  0
 19 20  1  0
M  END
