piperidine-amides-33900-covalent
     RDKit          3D

 29 31  0  0  0  0  0  0  0  0999 V2000
    7.1360   -3.3560   19.2720 C   0  0  0  0  0  0  0  0  0  0  0  0
    6.4010   -4.1260   20.2760 C   0  0  0  0  0  0  0  0  0  0  0  0
    5.3040   -4.6170   19.9170 O   0  0  0  0  0  0  0  0  0  0  0  0
    6.9610   -4.3660   21.5490 N   0  0  0  0  0  0  0  0  0  0  0  0
    6.5040   -5.4860   22.2770 C   0  0  0  0  0  0  0  0  0  0  0  0
    5.8980   -5.1480   23.5590 C   0  0  0  0  0  0  0  0  0  0  0  0
    6.4780   -3.9840   24.2800 C   0  0  0  0  0  0  0  0  0  0  0  0
    5.5610   -3.5780   25.3910 C   0  0  0  0  0  0  0  0  0  0  0  0
    4.7100   -2.6890   25.2120 O   0  0  0  0  0  0  0  0  0  0  0  0
    5.6920   -4.2110   26.6310 N   0  0  0  0  0  0  0  0  0  0  0  0
    6.9150   -4.5710   27.0900 C   0  0  0  0  0  0  0  0  0  0  0  0
    7.0460   -5.5030   28.1520 C   0  0  0  0  0  0  0  0  0  0  0  0
    6.1900   -4.8030   29.1970 C   0  0  0  0  0  0  0  0  0  0  0  0
    4.8360   -4.7860   28.9160 C   0  0  0  0  0  0  0  0  0  0  0  0
    4.9440   -3.7060   27.7960 C   0  0  2  0  0  0  0  0  0  0  0  0
    3.4620   -3.7300   27.5100 C   0  0  1  0  0  0  0  0  0  0  0  0
    3.5950   -5.1190   26.8620 C   0  0  0  0  0  0  0  0  0  0  0  0
    2.4600   -6.1080   27.0040 C   0  0  0  0  0  0  0  0  0  0  0  0
    1.4850   -5.6360   28.0770 C   0  0  0  0  0  0  0  0  0  0  0  0
    1.3890   -4.3030   28.2310 N   0  0  0  0  0  0  0  0  0  0  0  0
    0.1380   -3.6340   28.1920 C   0  0  0  0  0  0  0  0  0  0  0  0
   -0.2130   -2.4560   27.8360 O   0  0  0  0  0  0  0  0  0  0  0  0
   -1.1000   -4.3430   28.6240 C   0  0  0  0  0  0  0  0  0  0  0  0
   -2.0020   -3.3920   29.0490 F   0  0  0  0  0  0  0  0  0  0  0  0
   -0.8210   -5.2500   29.6500 F   0  0  0  0  0  0  0  0  0  0  0  0
   -1.7080   -4.9770   27.5480 F   0  0  0  0  0  0  0  0  0  0  0  0
    2.5540   -3.5640   28.5670 C   0  0  0  0  0  0  0  0  0  0  0  0
    6.8870   -2.8380   23.4200 C   0  0  0  0  0  0  0  0  0  0  0  0
    7.6600   -3.3000   22.2180 C   0  0  0  0  0  0  0  0  0  0  0  0
  1  2  1  0
  2  3  2  0
  2  4  1  0
  4  5  1  0
  5  6  1  0
  6  7  1  0
  7  8  1  0
  8  9  2  0
  8 10  1  0
 10 11  1  0
 11 12  1  0
 12 13  1  0
 13 14  1  0
 10 15  1  0
 15 14  1  1
 15 16  1  0
 16 17  1  1
 17 18  1  0
 18 19  1  0
 19 20  1  0
 20 21  1  0
 21 22  2  0
 21 23  1  0
 23 24  1  0
 23 25  1  0
 23 26  1  0
 16 27  1  0
 20 27  1  0
  7 28  1  0
  4 29  1  0
 28 29  1  0
M  END
