piperidine-amides-34891-covalent
     RDKit          3D

 32 34  0  0  0  0  0  0  0  0999 V2000
    7.1010   -3.3560   19.3340 C   0  0  0  0  0  0  0  0  0  0  0  0
    6.3830   -4.1830   20.3310 C   0  0  0  0  0  0  0  0  0  0  0  0
    5.3400   -4.7150   19.9510 O   0  0  0  0  0  0  0  0  0  0  0  0
    6.9190   -4.3860   21.6110 N   0  0  0  0  0  0  0  0  0  0  0  0
    6.6140   -5.5580   22.3740 C   0  0  0  0  0  0  0  0  0  0  0  0
    5.8770   -5.1430   23.6160 C   0  0  0  0  0  0  0  0  0  0  0  0
    6.4930   -3.8700   24.2190 C   0  0  0  0  0  0  0  0  0  0  0  0
    5.5380   -3.3670   25.2290 C   0  0  0  0  0  0  0  0  0  0  0  0
    4.6650   -2.5700   24.8770 O   0  0  0  0  0  0  0  0  0  0  0  0
    5.5750   -3.7630   26.5750 N   0  0  0  0  0  0  0  0  0  0  0  0
    6.3820   -3.0160   27.4480 C   0  0  0  0  0  0  0  0  0  0  0  0
    6.7570   -4.0530   28.4690 C   0  0  0  0  0  0  0  0  0  0  0  0
    5.9400   -4.3630   29.4480 C   0  0  0  0  0  0  0  0  0  0  0  0
    4.7410   -5.0160   29.2640 N   0  0  0  0  0  0  0  0  0  0  0  0
    4.3380   -5.9500   30.2890 C   0  0  0  0  0  0  0  0  0  0  0  0
    5.2530   -6.9490   30.5650 O   0  0  0  0  0  0  0  0  0  0  0  0
    3.1540   -5.8520   30.9670 C   0  0  0  0  0  0  0  0  0  0  0  0
    3.4340   -6.3530   32.2150 O   0  0  0  0  0  0  0  0  0  0  0  0
    2.6050   -6.1400   33.3310 C   0  0  0  0  0  0  0  0  0  0  0  0
    2.6400   -4.7260   33.8750 C   0  0  0  0  0  0  0  0  0  0  0  0
    1.8140   -4.2960   35.0740 C   0  0  0  0  0  0  0  0  0  0  0  0
    0.9480   -5.3160   35.7200 C   0  0  0  0  0  0  0  0  0  0  0  0
    0.9380   -6.6770   35.1700 C   0  0  0  0  0  0  0  0  0  0  0  0
    1.7240   -7.1830   33.9910 C   0  0  0  0  0  0  0  0  0  0  0  0
    1.6400   -8.5900   33.5140 C   0  0  0  0  0  0  0  0  0  0  0  0
    2.1350   -8.7650   32.1040 C   0  0  0  0  0  0  0  0  0  0  0  0
    2.2680   -9.6090   34.3930 C   0  0  0  0  0  0  0  0  0  0  0  0
    0.1880   -9.0140   33.4910 C   0  0  0  0  0  0  0  0  0  0  0  0
    4.4910   -5.4230   27.9330 C   0  0  0  0  0  0  0  0  0  0  0  0
    4.3040   -4.1100   27.1680 C   0  0  0  0  0  0  0  0  0  0  0  0
    6.8730   -2.7490   23.2870 C   0  0  0  0  0  0  0  0  0  0  0  0
    7.7480   -3.3500   22.1920 C   0  0  0  0  0  0  0  0  0  0  0  0
  1  2  1  0
  2  3  2  0
  2  4  1  0
  4  5  1  0
  5  6  1  0
  6  7  1  0
  7  8  1  0
  8  9  2  0
  8 10  1  0
 10 11  1  0
 11 12  1  0
 12 13  1  0
 13 14  1  0
 14 15  1  0
 15 16  2  0
 15 17  1  0
 17 18  1  0
 18 19  1  0
 19 20  2  0
 20 21  1  0
 21 22  2  0
 22 23  1  0
 19 24  1  0
 23 24  2  0
 24 25  1  0
 25 26  1  0
 25 27  1  0
 25 28  1  0
 14 29  1  0
 10 30  1  0
 29 30  1  0
  7 31  1  0
  4 32  1  0
 31 32  1  0
M  END
