piperidine-amides-29476-covalent
     RDKit          3D

 27 29  0  0  0  0  0  0  0  0999 V2000
    7.0830   -3.3620   19.3390 C   0  0  0  0  0  0  0  0  0  0  0  0
    6.4350   -4.2050   20.3350 C   0  0  0  0  0  0  0  0  0  0  0  0
    5.4040   -4.8180   19.9870 O   0  0  0  0  0  0  0  0  0  0  0  0
    7.0060   -4.3620   21.6280 N   0  0  0  0  0  0  0  0  0  0  0  0
    7.7220   -3.2700   22.2180 C   0  0  0  0  0  0  0  0  0  0  0  0
    6.9070   -2.7050   23.3370 C   0  0  0  0  0  0  0  0  0  0  0  0
    6.5750   -3.8240   24.3060 C   0  0  0  0  0  0  0  0  0  0  0  0
    5.8010   -3.2280   25.4420 C   0  0  0  0  0  0  0  0  0  0  0  0
    4.6570   -2.8560   25.1790 O   0  0  0  0  0  0  0  0  0  0  0  0
    6.4090   -3.1460   26.6880 N   0  0  0  0  0  0  0  0  0  0  0  0
    6.8310   -4.3450   27.3620 C   0  0  0  0  0  0  0  0  0  0  0  0
    5.8360   -5.2190   27.8210 C   0  0  0  0  0  0  0  0  0  0  0  0
    5.8510   -5.6600   29.1360 C   0  0  0  0  0  0  0  0  0  0  0  0
    4.9440   -6.5250   29.7680 C   0  0  0  0  0  0  0  0  0  0  0  0
    3.8420   -7.0130   28.8760 C   0  0  0  0  0  0  0  0  0  0  0  0
    2.9210   -7.8490   29.4140 F   0  0  0  0  0  0  0  0  0  0  0  0
    3.8250   -6.5370   27.4240 C   0  0  0  0  0  0  0  0  0  0  0  0
    4.8600   -5.6250   26.9350 C   0  0  0  0  0  0  0  0  0  0  0  0
    6.5240   -1.8270   27.3370 C   0  0  0  0  0  0  0  0  0  0  0  0
    7.3740   -1.7570   28.6200 C   0  0  0  0  0  0  0  0  0  0  0  0
    7.1070   -0.3610   28.7540 N   0  0  0  0  0  0  0  0  0  0  0  0
    6.4880    0.9590   28.3440 C   0  0  0  0  0  0  0  0  0  0  0  0
    5.8510    0.5080   27.2200 C   0  0  0  0  0  0  0  0  0  0  0  0
    5.0210    1.3690   26.3060 C   0  0  0  0  0  0  0  0  0  0  0  0
    5.8760   -0.8510   26.7420 C   0  0  0  0  0  0  0  0  0  0  0  0
    5.7390   -4.8880   23.5900 C   0  0  0  0  0  0  0  0  0  0  0  0
    6.5590   -5.4710   22.4310 C   0  0  0  0  0  0  0  0  0  0  0  0
  1  2  1  0
  2  3  2  0
  2  4  1  0
  4  5  1  0
  5  6  1  0
  6  7  1  0
  7  8  1  0
  8  9  2  0
  8 10  1  0
 10 11  1  0
 11 12  1  0
 12 13  2  0
 13 14  1  0
 14 15  2  0
 15 16  1  0
 15 17  1  0
 12 18  1  0
 17 18  2  0
 10 19  1  0
 19 20  2  0
 20 21  1  0
 21 22  2  0
 22 23  1  0
 23 24  1  0
 19 25  1  0
 23 25  2  0
  7 26  1  0
  4 27  1  0
 26 27  1  0
M  END
