piperidine-amides-9084-covalent
     RDKit          3D

 21 22  0  0  0  0  0  0  0  0999 V2000
    7.1060   -3.2880   19.2540 C   0  0  0  0  0  0  0  0  0  0  0  0
    6.3520   -4.0610   20.2490 C   0  0  0  0  0  0  0  0  0  0  0  0
    5.2910   -4.6010   19.9030 O   0  0  0  0  0  0  0  0  0  0  0  0
    6.8210   -4.2550   21.5590 N   0  0  0  0  0  0  0  0  0  0  0  0
    7.7870   -3.3990   22.2040 C   0  0  0  0  0  0  0  0  0  0  0  0
    7.0520   -2.7530   23.3320 C   0  0  0  0  0  0  0  0  0  0  0  0
    5.9520   -3.6250   23.8560 C   0  0  0  0  0  0  0  0  0  0  0  0
    5.6520   -3.2820   25.2620 C   0  0  0  0  0  0  0  0  0  0  0  0
    4.5060   -3.5060   25.7540 O   0  0  0  0  0  0  0  0  0  0  0  0
    6.6220   -2.6930   26.0910 N   0  0  0  0  0  0  0  0  0  0  0  0
    6.3510   -1.4560   26.8590 C   0  0  0  0  0  0  0  0  0  0  0  0
    5.5560   -0.5170   26.0240 C   0  0  0  0  0  0  0  0  0  0  0  0
    6.1080   -0.0580   24.7220 C   0  0  0  0  0  0  0  0  0  0  0  0
    7.2220   -0.5390   24.4770 O   0  0  0  0  0  0  0  0  0  0  0  0
    5.2860    0.8920   23.8960 C   0  0  0  0  0  0  0  0  0  0  0  0
    3.9530    1.3280   24.4320 C   0  0  0  0  0  0  0  0  0  0  0  0
    3.5750    0.7680   25.7450 C   0  0  0  0  0  0  0  0  0  0  0  0
    4.3300   -0.0980   26.4910 C   0  0  0  0  0  0  0  0  0  0  0  0
    3.8690   -0.5460   27.6970 F   0  0  0  0  0  0  0  0  0  0  0  0
    6.2830   -5.0960   23.7370 C   0  0  0  0  0  0  0  0  0  0  0  0
    6.4680   -5.4640   22.2740 C   0  0  0  0  0  0  0  0  0  0  0  0
  1  2  1  0
  2  3  2  0
  2  4  1  0
  4  5  1  0
  5  6  1  0
  6  7  1  0
  7  8  1  0
  8  9  2  0
  8 10  1  0
 10 11  1  0
 11 12  1  0
 12 13  2  0
 13 14  1  0
 13 15  1  0
 15 16  2  0
 16 17  1  0
 12 18  1  0
 17 18  2  0
 18 19  1  0
  7 20  1  0
  4 21  1  0
 20 21  1  0
M  END
