piperidine-amides-6996-covalent
     RDKit          3D

 22 23  0  0  0  0  0  0  0  0999 V2000
    7.0530   -3.3310   19.3240 C   0  0  0  0  0  0  0  0  0  0  0  0
    6.3880   -4.1820   20.3250 C   0  0  0  0  0  0  0  0  0  0  0  0
    5.4050   -4.8810   19.9930 O   0  0  0  0  0  0  0  0  0  0  0  0
    6.8720   -4.2480   21.6410 N   0  0  0  0  0  0  0  0  0  0  0  0
    7.7180   -3.1770   22.1480 C   0  0  0  0  0  0  0  0  0  0  0  0
    7.4300   -2.9700   23.6370 C   0  0  0  0  0  0  0  0  0  0  0  0
    6.0700   -3.5670   23.8990 C   0  0  0  0  0  0  0  0  0  0  0  0
    5.6290   -3.2220   25.2610 C   0  0  0  0  0  0  0  0  0  0  0  0
    4.4080   -3.2550   25.5200 O   0  0  0  0  0  0  0  0  0  0  0  0
    6.5940   -2.8710   26.2270 N   0  0  0  0  0  0  0  0  0  0  0  0
    6.5080   -1.6640   27.0060 C   0  0  0  0  0  0  0  0  0  0  0  0
    7.0610   -1.5950   28.4120 C   0  0  0  0  0  0  0  0  0  0  0  0
    6.9870   -0.4370   29.1800 C   0  0  0  0  0  0  0  0  0  0  0  0
    6.3990    0.7490   28.7150 C   0  0  0  0  0  0  0  0  0  0  0  0
    6.3460    1.8920   29.5110 C   0  0  0  0  0  0  0  0  0  0  0  0
    5.8590    0.8090   27.4510 C   0  0  0  0  0  0  0  0  0  0  0  0
    5.9200   -0.4100   26.6020 C   0  0  0  0  0  0  0  0  0  0  0  0
    5.2090    0.3930   25.5340 C   0  0  0  0  0  0  0  0  0  0  0  0
    3.7930    0.7450   25.7950 N   0  0  0  0  0  0  0  0  0  0  0  0
    5.8930    0.6930   24.5180 O   0  0  0  0  0  0  0  0  0  0  0  0
    6.0330   -5.0260   23.7100 C   0  0  0  0  0  0  0  0  0  0  0  0
    6.6280   -5.4070   22.4350 C   0  0  0  0  0  0  0  0  0  0  0  0
  1  2  1  0
  2  3  2  0
  2  4  1  0
  4  5  1  0
  5  6  1  0
  6  7  1  0
  7  8  1  0
  8  9  2  0
  8 10  1  0
 10 11  1  0
 11 12  2  0
 12 13  1  0
 13 14  2  0
 14 15  1  0
 14 16  1  0
 11 17  1  0
 16 17  2  0
 17 18  1  0
 18 19  1  0
 18 20  2  0
  7 21  1  0
  4 22  1  0
 21 22  1  0
M  END
