piperidine-amides-9971-covalent
     RDKit          3D

 26 28  0  0  0  0  0  0  0  0999 V2000
    7.1390   -3.2840   19.2140 C   0  0  0  0  0  0  0  0  0  0  0  0
    6.3300   -4.0020   20.1990 C   0  0  0  0  0  0  0  0  0  0  0  0
    5.2110   -4.4250   19.8210 O   0  0  0  0  0  0  0  0  0  0  0  0
    6.8320   -4.2470   21.4700 N   0  0  0  0  0  0  0  0  0  0  0  0
    7.6650   -3.2800   22.1440 C   0  0  0  0  0  0  0  0  0  0  0  0
    6.9380   -2.8190   23.3650 C   0  0  0  0  0  0  0  0  0  0  0  0
    6.5020   -3.9820   24.2100 C   0  0  0  0  0  0  0  0  0  0  0  0
    5.7790   -3.4990   25.3940 C   0  0  0  0  0  0  0  0  0  0  0  0
    4.5270   -3.4730   25.3800 O   0  0  0  0  0  0  0  0  0  0  0  0
    6.4750   -3.0490   26.5180 N   0  0  0  0  0  0  0  0  0  0  0  0
    6.0260   -3.2130   27.8690 C   0  0  2  0  0  0  0  0  0  0  0  0
    6.8750   -2.2000   28.5970 C   0  0  0  0  0  0  0  0  0  0  0  0
    6.4960   -1.4060   29.6450 C   0  0  0  0  0  0  0  0  0  0  0  0
    7.4280   -0.7280   30.4000 C   0  0  0  0  0  0  0  0  0  0  0  0
    7.0320    0.0590   31.4420 C   0  0  0  0  0  0  0  0  0  0  0  0
    5.7040    0.1710   31.7340 C   0  0  0  0  0  0  0  0  0  0  0  0
    4.7330   -0.4800   31.0160 C   0  0  0  0  0  0  0  0  0  0  0  0
    5.1660   -1.2510   29.9870 N   0  0  0  0  0  0  0  0  0  0  0  0
    6.0050   -4.5120   28.4130 C   0  0  0  0  0  0  0  0  0  0  0  0
    4.7880   -4.0640   29.1810 C   0  0  0  0  0  0  0  0  0  0  0  0
    4.2010   -5.1130   30.0690 C   0  0  0  0  0  0  0  0  0  0  0  0
    4.8770   -6.4780   30.0980 C   0  0  0  0  0  0  0  0  0  0  0  0
    6.0090   -6.7120   29.3110 C   0  0  0  0  0  0  0  0  0  0  0  0
    6.6070   -5.7990   28.4710 N   0  0  0  0  0  0  0  0  0  0  0  0
    5.6240   -4.9030   23.3880 C   0  0  0  0  0  0  0  0  0  0  0  0
    6.4430   -5.4200   22.2210 C   0  0  0  0  0  0  0  0  0  0  0  0
  1  2  1  0
  2  3  2  0
  2  4  1  0
  4  5  1  0
  5  6  1  0
  6  7  1  0
  7  8  1  0
  8  9  2  0
  8 10  1  0
 10 11  1  0
 11 12  1  1
 12 13  1  0
 13 14  2  0
 14 15  1  0
 15 16  2  0
 16 17  1  0
 13 18  1  0
 17 18  2  0
 11 19  1  0
 19 20  2  0
 20 21  1  0
 21 22  2  0
 22 23  1  0
 19 24  1  0
 23 24  2  0
  7 25  1  0
  4 26  1  0
 25 26  1  0
M  END
