piperidine-amides-10635-covalent
     RDKit          3D

 23 24  0  0  0  0  0  0  0  0999 V2000
    7.0970   -3.2960   19.2810 C   0  0  0  0  0  0  0  0  0  0  0  0
    6.3090   -4.0400   20.2690 C   0  0  0  0  0  0  0  0  0  0  0  0
    5.2230   -4.5250   19.8660 O   0  0  0  0  0  0  0  0  0  0  0  0
    6.7760   -4.2360   21.5700 N   0  0  0  0  0  0  0  0  0  0  0  0
    6.5040   -5.4640   22.2650 C   0  0  0  0  0  0  0  0  0  0  0  0
    6.2770   -5.0980   23.7010 C   0  0  0  0  0  0  0  0  0  0  0  0
    5.9600   -3.6330   23.8670 C   0  0  0  0  0  0  0  0  0  0  0  0
    5.8470   -3.2910   25.3020 C   0  0  0  0  0  0  0  0  0  0  0  0
    4.6970   -3.1330   25.7700 O   0  0  0  0  0  0  0  0  0  0  0  0
    6.9680   -3.1220   26.1540 N   0  0  0  0  0  0  0  0  0  0  0  0
    7.4790   -4.1970   26.9840 C   0  0  1  0  0  0  0  0  0  0  0  0
    6.3020   -4.7620   27.7510 C   0  0  0  0  0  0  0  0  0  0  0  0
    5.8980   -6.0610   27.7220 C   0  0  0  0  0  0  0  0  0  0  0  0
    4.8360   -6.2560   28.4950 C   0  0  0  0  0  0  0  0  0  0  0  0
    4.1330   -7.4220   28.7400 C   0  0  0  0  0  0  0  0  0  0  0  0
    4.2220   -4.9310   29.3130 S   0  0  0  0  0  0  0  0  0  0  0  0
    5.4770   -3.9500   28.6070 C   0  0  0  0  0  0  0  0  0  0  0  0
    5.9130   -2.6430   28.6230 C   0  0  0  0  0  0  0  0  0  0  0  0
    8.2280   -5.2240   26.3830 C   0  0  0  0  0  0  0  0  0  0  0  0
    8.5410   -3.9130   25.6740 C   0  0  0  0  0  0  0  0  0  0  0  0
    8.9820   -5.8150   27.3670 C   0  0  0  0  0  0  0  0  0  0  0  0
    6.9900   -2.7010   23.2580 C   0  0  0  0  0  0  0  0  0  0  0  0
    7.6920   -3.3170   22.2430 C   0  0  0  0  0  0  0  0  0  0  0  0
  1  2  1  0
  2  3  2  0
  2  4  1  0
  4  5  1  0
  5  6  1  0
  6  7  1  0
  7  8  1  0
  8  9  2  0
  8 10  1  0
 11 10  1  6
 11 12  1  0
 12 13  1  0
 13 14  2  0
 14 15  1  0
 14 16  1  0
 12 17  2  0
 16 17  1  0
 17 18  1  0
 11 19  1  0
 19 20  1  0
 19 21  1  0
  7 22  1  0
  4 23  1  0
 22 23  1  0
M  END
