piperidine-amides-10109-covalent
     RDKit          3D

 25 26  0  0  0  0  0  0  0  0999 V2000
    7.0310   -3.3400   19.3630 C   0  0  0  0  0  0  0  0  0  0  0  0
    6.3730   -4.1840   20.3670 C   0  0  0  0  0  0  0  0  0  0  0  0
    5.3640   -4.8280   19.9760 O   0  0  0  0  0  0  0  0  0  0  0  0
    6.8840   -4.2870   21.6670 N   0  0  0  0  0  0  0  0  0  0  0  0
    6.7020   -5.4980   22.4420 C   0  0  0  0  0  0  0  0  0  0  0  0
    6.0160   -5.1300   23.7290 C   0  0  0  0  0  0  0  0  0  0  0  0
    6.0030   -3.6380   23.9000 C   0  0  0  0  0  0  0  0  0  0  0  0
    5.6620   -3.2400   25.2860 C   0  0  0  0  0  0  0  0  0  0  0  0
    4.4640   -3.2990   25.6370 O   0  0  0  0  0  0  0  0  0  0  0  0
    6.6190   -2.7960   26.2110 N   0  0  0  0  0  0  0  0  0  0  0  0
    6.4590   -1.5600   26.9410 C   0  0  0  0  0  0  0  0  0  0  0  0
    6.8910   -1.4620   28.3920 C   0  0  0  0  0  0  0  0  0  0  0  0
    6.7500   -0.2990   29.1220 C   0  0  0  0  0  0  0  0  0  0  0  0
    7.1270   -0.1570   30.4310 C   0  0  0  0  0  0  0  0  0  0  0  0
    8.3310    0.3380   30.4730 O   0  0  0  0  0  0  0  0  0  0  0  0
    6.3910   -0.4330   31.5700 O   0  0  0  0  0  0  0  0  0  0  0  0
    6.4420    0.3860   32.7080 C   0  0  0  0  0  0  0  0  0  0  0  0
    7.6960    0.2500   33.2790 C   0  0  0  0  0  0  0  0  0  0  0  0
    6.2030    0.8500   28.5650 C   0  0  0  0  0  0  0  0  0  0  0  0
    6.0880    2.0840   29.4290 C   0  0  0  0  0  0  0  0  0  0  0  0
    5.7740    0.8920   27.2650 C   0  0  0  0  0  0  0  0  0  0  0  0
    5.8750   -0.3130   26.3690 C   0  0  0  0  0  0  0  0  0  0  0  0
    5.4410   -0.2410   25.0940 F   0  0  0  0  0  0  0  0  0  0  0  0
    7.3470   -3.0600   23.5730 C   0  0  0  0  0  0  0  0  0  0  0  0
    7.7220   -3.2260   22.2570 C   0  0  0  0  0  0  0  0  0  0  0  0
  1  2  1  0
  2  3  2  0
  2  4  1  0
  4  5  1  0
  5  6  1  0
  6  7  1  0
  7  8  1  0
  8  9  2  0
  8 10  1  0
 10 11  1  0
 11 12  2  0
 12 13  1  0
 13 14  1  0
 14 15  2  0
 14 16  1  0
 16 17  1  0
 17 18  1  0
 13 19  2  0
 19 20  1  0
 19 21  1  0
 11 22  1  0
 21 22  2  0
 22 23  1  0
  7 24  1  0
  4 25  1  0
 24 25  1  0
M  END
