piperidine-amides-18843-covalent
     RDKit          3D

 21 22  0  0  0  0  0  0  0  0999 V2000
    7.1170   -3.3310   19.4040 C   0  0  0  0  0  0  0  0  0  0  0  0
    6.4240   -4.1510   20.3690 C   0  0  0  0  0  0  0  0  0  0  0  0
    5.4260   -4.8430   19.9830 O   0  0  0  0  0  0  0  0  0  0  0  0
    6.8520   -4.2230   21.7120 N   0  0  0  0  0  0  0  0  0  0  0  0
    6.7810   -5.5640   22.3400 C   0  0  0  0  0  0  0  0  0  0  0  0
    5.9130   -5.2650   23.6210 C   0  0  0  0  0  0  0  0  0  0  0  0
    6.2770   -3.8690   24.0620 C   0  0  0  0  0  0  0  0  0  0  0  0
    5.4170   -3.4930   25.3500 C   0  0  0  0  0  0  0  0  0  0  0  0
    4.2500   -3.3480   25.0210 O   0  0  0  0  0  0  0  0  0  0  0  0
    6.1310   -3.4290   26.4040 N   0  0  0  0  0  0  0  0  0  0  0  0
    7.0600   -3.1770   27.3370 C   0  0  2  0  0  0  0  0  0  0  0  0
    8.0010   -2.2100   27.4570 C   0  0  0  0  0  0  0  0  0  0  0  0
    8.5880   -2.1910   28.7250 O   0  0  0  0  0  0  0  0  0  0  0  0
    7.7130   -4.4990   27.6740 C   0  0  0  0  0  0  0  0  0  0  0  0
    6.8790   -5.0820   28.7470 C   0  0  0  0  0  0  0  0  0  0  0  0
    5.6410   -5.1560   27.8450 C   0  0  0  0  0  0  0  0  0  0  0  0
    5.5730   -3.7600   27.7290 C   0  0  2  0  0  0  0  0  0  0  0  0
    4.3080   -3.1720   27.9200 C   0  0  0  0  0  0  0  0  0  0  0  0
    3.2390   -3.9600   28.3200 O   0  0  0  0  0  0  0  0  0  0  0  0
    7.6240   -3.4340   23.8510 C   0  0  0  0  0  0  0  0  0  0  0  0
    7.7120   -3.2600   22.3030 C   0  0  0  0  0  0  0  0  0  0  0  0
  1  2  1  0
  2  3  2  0
  2  4  1  0
  4  5  1  0
  5  6  1  0
  6  7  1  0
  7  8  1  0
  8  9  2  0
  8 10  1  0
 10 11  1  0
 11 12  1  6
 12 13  1  0
 11 14  1  0
 14 15  1  0
 15 16  1  0
 10 17  1  0
 16 17  1  0
 17 18  1  6
 18 19  1  0
  7 20  1  0
  4 21  1  0
 20 21  1  0
M  END
