piperidine-amides-19331-covalent
     RDKit          3D

 22 23  0  0  0  0  0  0  0  0999 V2000
    7.0730   -3.3760   19.2870 C   0  0  0  0  0  0  0  0  0  0  0  0
    6.3800   -4.1370   20.2970 C   0  0  0  0  0  0  0  0  0  0  0  0
    5.3090   -4.7200   19.9490 O   0  0  0  0  0  0  0  0  0  0  0  0
    6.8690   -4.3220   21.6060 N   0  0  0  0  0  0  0  0  0  0  0  0
    7.7400   -3.2890   22.2180 C   0  0  0  0  0  0  0  0  0  0  0  0
    6.7820   -2.7960   23.3560 C   0  0  0  0  0  0  0  0  0  0  0  0
    6.5010   -4.0260   24.1880 C   0  0  0  0  0  0  0  0  0  0  0  0
    5.5970   -3.6880   25.4410 C   0  0  0  0  0  0  0  0  0  0  0  0
    4.4570   -4.1140   25.2850 O   0  0  0  0  0  0  0  0  0  0  0  0
    6.2710   -3.0420   26.2910 N   0  0  0  0  0  0  0  0  0  0  0  0
    6.5520   -1.9450   27.0880 C   0  0  0  0  0  0  0  0  0  0  0  0
    6.2060   -0.6180   26.8880 C   0  0  0  0  0  0  0  0  0  0  0  0
    6.3980    0.6180   27.6150 C   0  0  0  0  0  0  0  0  0  0  0  0
    7.0910    0.2490   28.7260 N   0  0  0  0  0  0  0  0  0  0  0  0
    7.5420   -0.9810   29.1510 C   0  0  0  0  0  0  0  0  0  0  0  0
    7.3020   -2.2340   28.3360 C   0  0  0  0  0  0  0  0  0  0  0  0
    7.3970   -3.7510   26.9900 C   0  0  0  0  0  0  0  0  0  0  0  0
    7.1980   -5.1440   27.1550 C   0  0  0  0  0  0  0  0  0  0  0  0
    8.3410   -4.6180   26.1880 C   0  0  0  0  0  0  0  0  0  0  0  0
    7.9060   -3.2880   28.3070 C   0  0  0  0  0  0  0  0  0  0  0  0
    5.8140   -5.1400   23.3720 C   0  0  0  0  0  0  0  0  0  0  0  0
    6.6190   -5.5380   22.3470 C   0  0  0  0  0  0  0  0  0  0  0  0
  1  2  1  0
  2  3  2  0
  2  4  1  0
  4  5  1  0
  5  6  1  0
  6  7  1  0
  7  8  1  0
  8  9  2  0
  8 10  1  0
 10 11  1  0
 11 12  2  0
 12 13  1  0
 13 14  2  0
 14 15  1  0
 11 16  1  0
 15 16  2  0
 17 10  1  0
 17 18  1  0
 17 19  1  0
 17 20  1  0
  7 21  1  0
  4 22  1  0
 21 22  1  0
M  END
