piperidine-amides-28884-covalent
     RDKit          3D

 22 24  0  0  0  0  0  0  0  0999 V2000
    7.0270   -3.3000   19.3260 C   0  0  0  0  0  0  0  0  0  0  0  0
    6.3300   -4.1250   20.3160 C   0  0  0  0  0  0  0  0  0  0  0  0
    5.3220   -4.7480   19.9470 O   0  0  0  0  0  0  0  0  0  0  0  0
    6.8120   -4.2460   21.6470 N   0  0  0  0  0  0  0  0  0  0  0  0
    6.7050   -5.5230   22.2980 C   0  0  0  0  0  0  0  0  0  0  0  0
    6.1430   -5.3300   23.6730 C   0  0  0  0  0  0  0  0  0  0  0  0
    6.0060   -3.8430   23.8570 C   0  0  0  0  0  0  0  0  0  0  0  0
    5.5610   -3.5040   25.2550 C   0  0  0  0  0  0  0  0  0  0  0  0
    5.3890   -2.3140   25.4880 O   0  0  0  0  0  0  0  0  0  0  0  0
    5.3430   -4.5290   26.1880 N   0  0  0  0  0  0  0  0  0  0  0  0
    6.0480   -4.5710   27.3840 C   0  0  0  0  0  0  0  0  0  0  0  0
    4.8510   -4.5530   28.0190 C   0  0  0  0  0  0  0  0  0  0  0  0
    4.0150   -4.5280   26.8910 C   0  0  2  0  0  0  0  0  0  0  0  0
    3.1050   -5.5300   26.5880 C   0  0  0  0  0  0  0  0  0  0  0  0
    3.7890   -6.6670   25.9300 C   0  0  0  0  0  0  0  0  0  0  0  0
    2.9240   -7.8820   25.5200 C   0  0  0  0  0  0  0  0  0  0  0  0
    1.4550   -7.8800   25.8000 C   0  0  0  0  0  0  0  0  0  0  0  0
    0.3430   -9.3520   25.3210 Br  0  0  0  0  0  0  0  0  0  0  0  0
    0.8470   -6.6710   26.4800 C   0  0  0  0  0  0  0  0  0  0  0  0
    1.7540   -5.4800   26.8680 C   0  0  0  0  0  0  0  0  0  0  0  0
    7.3530   -3.1950   23.6110 C   0  0  0  0  0  0  0  0  0  0  0  0
    7.6110   -3.2010   22.2520 C   0  0  0  0  0  0  0  0  0  0  0  0
  1  2  1  0
  2  3  2  0
  2  4  1  0
  4  5  1  0
  5  6  1  0
  6  7  1  0
  7  8  1  0
  8  9  2  0
  8 10  1  0
 10 11  1  0
 11 12  1  0
 10 13  1  0
 12 13  1  0
 13 14  1  6
 14 15  2  0
 15 16  1  0
 16 17  2  0
 17 18  1  0
 17 19  1  0
 14 20  1  0
 19 20  2  0
  7 21  1  0
  4 22  1  0
 21 22  1  0
M  END
