piperidine-amides-26082-covalent
     RDKit          3D

 25 27  0  0  0  0  0  0  0  0999 V2000
    7.1000   -3.3370   19.2900 C   0  0  0  0  0  0  0  0  0  0  0  0
    6.4110   -4.1640   20.2780 C   0  0  0  0  0  0  0  0  0  0  0  0
    5.3600   -4.7410   19.9560 O   0  0  0  0  0  0  0  0  0  0  0  0
    6.9490   -4.3770   21.5600 N   0  0  0  0  0  0  0  0  0  0  0  0
    6.6120   -5.5330   22.3360 C   0  0  0  0  0  0  0  0  0  0  0  0
    5.8450   -4.9710   23.5060 C   0  0  0  0  0  0  0  0  0  0  0  0
    6.5880   -3.8960   24.2690 C   0  0  0  0  0  0  0  0  0  0  0  0
    5.7680   -3.4180   25.4000 C   0  0  0  0  0  0  0  0  0  0  0  0
    4.8900   -2.5250   25.2480 O   0  0  0  0  0  0  0  0  0  0  0  0
    5.9290   -3.9570   26.6750 N   0  0  0  0  0  0  0  0  0  0  0  0
    6.7970   -5.1600   26.6970 C   0  0  0  0  0  0  0  0  0  0  0  0
    6.9880   -5.7750   28.0110 C   0  0  0  0  0  0  0  0  0  0  0  0
    5.9520   -5.5780   29.0040 C   0  0  0  0  0  0  0  0  0  0  0  0
    5.9200   -6.5530   30.1350 C   0  0  0  0  0  0  0  0  0  0  0  0
    4.8630   -6.4280   31.2110 C   0  0  0  0  0  0  0  0  0  0  0  0
    4.8190   -7.3340   32.2930 O   0  0  0  0  0  0  0  0  0  0  0  0
    3.8270   -5.3510   31.1840 C   0  0  0  0  0  0  0  0  0  0  0  0
    2.8980   -5.1150   31.9840 O   0  0  0  0  0  0  0  0  0  0  0  0
    1.6760   -5.7800   31.9820 C   0  0  0  0  0  0  0  0  0  0  0  0
    3.9920   -4.4450   29.9690 C   0  0  0  0  0  0  0  0  0  0  0  0
    5.0530   -4.5800   28.9030 C   0  0  0  0  0  0  0  0  0  0  0  0
    5.0070   -3.5600   27.7700 C   0  0  1  0  0  0  0  0  0  0  0  0
    5.2060   -2.1030   28.1270 C   0  0  0  0  0  0  0  0  0  0  0  0
    7.0080   -2.7670   23.3840 C   0  0  0  0  0  0  0  0  0  0  0  0
    7.6470   -3.2860   22.1580 C   0  0  0  0  0  0  0  0  0  0  0  0
  1  2  1  0
  2  3  2  0
  2  4  1  0
  4  5  1  0
  5  6  1  0
  6  7  1  0
  7  8  1  0
  8  9  2  0
  8 10  1  0
 10 11  1  0
 11 12  1  0
 12 13  1  0
 13 14  2  0
 14 15  1  0
 15 16  1  0
 15 17  2  0
 17 18  1  0
 18 19  1  0
 17 20  1  0
 13 21  1  0
 20 21  2  0
 10 22  1  0
 21 22  1  0
 22 23  1  1
  7 24  1  0
  4 25  1  0
 24 25  1  0
M  END
