piperidine-amides-10460-covalent
     RDKit          3D

 24 25  0  0  0  0  0  0  0  0999 V2000
    7.1290   -3.2930   19.2130 C   0  0  0  0  0  0  0  0  0  0  0  0
    6.3300   -4.0120   20.2050 C   0  0  0  0  0  0  0  0  0  0  0  0
    5.2250   -4.4800   19.8400 O   0  0  0  0  0  0  0  0  0  0  0  0
    6.8420   -4.1940   21.4800 N   0  0  0  0  0  0  0  0  0  0  0  0
    7.6630   -3.1740   22.0830 C   0  0  0  0  0  0  0  0  0  0  0  0
    7.3200   -3.1210   23.5300 C   0  0  0  0  0  0  0  0  0  0  0  0
    5.9110   -3.5290   23.7930 C   0  0  0  0  0  0  0  0  0  0  0  0
    5.5940   -3.2040   25.1930 C   0  0  0  0  0  0  0  0  0  0  0  0
    4.4190   -2.8820   25.4630 O   0  0  0  0  0  0  0  0  0  0  0  0
    6.5500   -3.2280   26.2230 N   0  0  0  0  0  0  0  0  0  0  0  0
    6.3530   -4.0380   27.3920 C   0  0  2  0  0  0  0  0  0  0  0  0
    6.8330   -5.4580   27.1380 C   0  0  0  0  0  0  0  0  0  0  0  0
    6.0810   -6.3080   28.0750 N   0  0  0  0  0  0  0  0  0  0  0  0
    6.5150   -6.4240   29.2990 C   0  0  0  0  0  0  0  0  0  0  0  0
    5.0100   -7.0220   27.6850 C   0  0  0  0  0  0  0  0  0  0  0  0
    4.9460   -3.8900   27.8690 C   0  0  0  0  0  0  0  0  0  0  0  0
    4.8040   -3.1370   29.0200 C   0  0  0  0  0  0  0  0  0  0  0  0
    3.6230   -2.8520   29.6660 C   0  0  0  0  0  0  0  0  0  0  0  0
    2.2710   -3.3320   29.2020 C   0  0  0  0  0  0  0  0  0  0  0  0
    2.4810   -4.1540   27.9340 C   0  0  0  0  0  0  0  0  0  0  0  0
    3.8160   -4.4290   27.2740 C   0  0  0  0  0  0  0  0  0  0  0  0
    3.8380   -5.2740   26.0080 C   0  0  0  0  0  0  0  0  0  0  0  0
    5.7090   -4.9690   23.4910 C   0  0  0  0  0  0  0  0  0  0  0  0
    6.4590   -5.3540   22.2350 C   0  0  0  0  0  0  0  0  0  0  0  0
  1  2  1  0
  2  3  2  0
  2  4  1  0
  4  5  1  0
  5  6  1  0
  6  7  1  0
  7  8  1  0
  8  9  2  0
  8 10  1  0
 10 11  1  0
 11 12  1  6
 12 13  1  0
 13 14  1  0
 13 15  1  0
 11 16  1  0
 16 17  2  0
 17 18  1  0
 18 19  2  0
 19 20  1  0
 16 21  1  0
 20 21  2  0
 21 22  1  0
  7 23  1  0
  4 24  1  0
 23 24  1  0
M  END
