piperidine-amides-29385-covalent
     RDKit          3D

 26 27  0  0  0  0  0  0  0  0999 V2000
    7.0450   -3.3170   19.3320 C   0  0  0  0  0  0  0  0  0  0  0  0
    6.3920   -4.1620   20.3280 C   0  0  0  0  0  0  0  0  0  0  0  0
    5.3930   -4.8180   19.9760 O   0  0  0  0  0  0  0  0  0  0  0  0
    6.9010   -4.2670   21.6490 N   0  0  0  0  0  0  0  0  0  0  0  0
    6.6260   -5.4750   22.3670 C   0  0  0  0  0  0  0  0  0  0  0  0
    6.1790   -5.1470   23.7710 C   0  0  0  0  0  0  0  0  0  0  0  0
    6.1800   -3.6350   23.9200 C   0  0  0  0  0  0  0  0  0  0  0  0
    5.6420   -3.1570   25.2550 C   0  0  0  0  0  0  0  0  0  0  0  0
    4.5850   -2.5410   25.2000 O   0  0  0  0  0  0  0  0  0  0  0  0
    6.3130   -3.4320   26.4460 N   0  0  0  0  0  0  0  0  0  0  0  0
    5.8420   -2.9290   27.6930 C   0  0  0  0  0  0  0  0  0  0  0  0
    5.7840   -4.0310   28.5380 C   0  0  0  0  0  0  0  0  0  0  0  0
    6.0850   -5.1300   27.7780 C   0  0  2  0  0  0  0  0  0  0  0  0
    5.0770   -6.0790   27.6330 C   0  0  0  0  0  0  0  0  0  0  0  0
    4.8060   -6.3220   26.2910 O   0  0  0  0  0  0  0  0  0  0  0  0
    3.7570   -7.1860   26.1060 C   0  0  0  0  0  0  0  0  0  0  0  0
    7.0280   -5.9950   28.5070 C   0  0  0  0  0  0  0  0  0  0  0  0
    6.8340   -6.3400   29.7550 O   0  0  0  0  0  0  0  0  0  0  0  0
    8.1240   -6.4230   27.7540 O   0  0  0  0  0  0  0  0  0  0  0  0
    8.8630   -5.5400   26.9170 C   0  0  0  0  0  0  0  0  0  0  0  0
    9.3900   -4.6610   28.0040 C   0  0  0  0  0  0  0  0  0  0  0  0
    8.2310   -4.8510   25.9280 C   0  0  0  0  0  0  0  0  0  0  0  0
    9.7210   -6.2820   26.1480 C   0  0  0  0  0  0  0  0  0  0  0  0
    6.7030   -4.7910   26.6080 C   0  0  0  0  0  0  0  0  0  0  0  0
    7.5090   -3.0290   23.6140 C   0  0  0  0  0  0  0  0  0  0  0  0
    7.8650   -3.3360   22.1890 C   0  0  0  0  0  0  0  0  0  0  0  0
  1  2  1  0
  2  3  2  0
  2  4  1  0
  4  5  1  0
  5  6  1  0
  6  7  1  0
  7  8  1  0
  8  9  2  0
  8 10  1  0
 10 11  1  0
 11 12  1  0
 12 13  1  0
 13 14  1  6
 14 15  1  0
 15 16  1  0
 13 17  1  0
 17 18  2  0
 17 19  1  0
 20 19  1  0
 20 21  1  0
 20 22  1  0
 20 23  1  0
 10 24  1  0
 13 24  1  0
  7 25  1  0
  4 26  1  0
 25 26  1  0
M  END
