piperidine-amides-31075-covalent
     RDKit          3D

 25 27  0  0  0  0  0  0  0  0999 V2000
    7.1230   -3.3230   19.2480 C   0  0  0  0  0  0  0  0  0  0  0  0
    6.3960   -4.1130   20.2410 C   0  0  0  0  0  0  0  0  0  0  0  0
    5.3210   -4.6480   19.9230 O   0  0  0  0  0  0  0  0  0  0  0  0
    6.9220   -4.3370   21.5180 N   0  0  0  0  0  0  0  0  0  0  0  0
    6.6410   -5.5390   22.2600 C   0  0  0  0  0  0  0  0  0  0  0  0
    5.9320   -5.0750   23.5010 C   0  0  0  0  0  0  0  0  0  0  0  0
    6.6610   -3.9520   24.1780 C   0  0  0  0  0  0  0  0  0  0  0  0
    5.9660   -3.4630   25.3750 C   0  0  0  0  0  0  0  0  0  0  0  0
    4.8930   -2.7990   25.2930 O   0  0  0  0  0  0  0  0  0  0  0  0
    6.4680   -3.7450   26.6400 N   0  0  0  0  0  0  0  0  0  0  0  0
    6.9710   -5.0800   26.8450 C   0  0  0  0  0  0  0  0  0  0  0  0
    6.7830   -5.6910   28.3970 S   0  0  0  0  0  0  0  0  0  0  0  0
    5.8890   -4.3070   28.9090 C   0  0  0  0  0  0  0  0  0  0  0  0
    5.6400   -3.3670   27.7790 C   0  0  1  0  0  0  0  0  0  0  0  0
    5.8640   -1.9350   28.2230 C   0  0  0  0  0  0  0  0  0  0  0  0
    7.1420   -1.4890   28.0350 O   0  0  0  0  0  0  0  0  0  0  0  0
    4.8830   -1.0630   28.7950 N   0  0  0  0  0  0  0  0  0  0  0  0
    5.4300   -0.6120   30.0790 C   0  0  0  0  0  0  0  0  0  0  0  0
    4.7800   -0.2610   31.1750 N   0  0  0  0  0  0  0  0  0  0  0  0
    5.5930    0.1060   32.1810 C   0  0  0  0  0  0  0  0  0  0  0  0
    6.9750    0.0820   31.9850 C   0  0  0  0  0  0  0  0  0  0  0  0
    7.8720    0.4500   32.9990 C   0  0  0  0  0  0  0  0  0  0  0  0
    7.2090   -0.4570   30.3690 S   0  0  0  0  0  0  0  0  0  0  0  0
    6.8800   -2.7500   23.2670 C   0  0  0  0  0  0  0  0  0  0  0  0
    7.7230   -3.2900   22.1280 C   0  0  0  0  0  0  0  0  0  0  0  0
  1  2  1  0
  2  3  2  0
  2  4  1  0
  4  5  1  0
  5  6  1  0
  6  7  1  0
  7  8  1  0
  8  9  2  0
  8 10  1  0
 10 11  1  0
 11 12  1  0
 12 13  1  0
 10 14  1  0
 13 14  1  0
 14 15  1  1
 15 16  2  0
 15 17  1  0
 17 18  1  0
 18 19  2  0
 19 20  1  0
 20 21  2  0
 21 22  1  0
 18 23  1  0
 21 23  1  0
  7 24  1  0
  4 25  1  0
 24 25  1  0
M  END
