piperidine-amides-12582-covalent
     RDKit          3D

 23 24  0  0  0  0  0  0  0  0999 V2000
    7.1390   -3.2580   19.1050 C   0  0  0  0  0  0  0  0  0  0  0  0
    6.3620   -3.9740   20.1400 C   0  0  0  0  0  0  0  0  0  0  0  0
    5.2400   -4.4010   19.8120 O   0  0  0  0  0  0  0  0  0  0  0  0
    6.8960   -4.2140   21.4030 N   0  0  0  0  0  0  0  0  0  0  0  0
    7.6440   -3.1900   22.0670 C   0  0  0  0  0  0  0  0  0  0  0  0
    7.1600   -2.8360   23.3950 C   0  0  0  0  0  0  0  0  0  0  0  0
    6.5120   -3.9320   24.1360 C   0  0  0  0  0  0  0  0  0  0  0  0
    5.7440   -3.3730   25.2640 C   0  0  0  0  0  0  0  0  0  0  0  0
    4.5420   -3.0920   25.0880 O   0  0  0  0  0  0  0  0  0  0  0  0
    6.3570   -3.1550   26.4970 N   0  0  0  0  0  0  0  0  0  0  0  0
    5.8560   -3.7400   27.7490 C   0  0  2  0  0  0  0  0  0  0  0  0
    6.5480   -3.0790   28.8830 C   0  0  0  0  0  0  0  0  0  0  0  0
    6.7560   -1.6130   28.8850 C   0  0  0  0  0  0  0  0  0  0  0  0
    5.8070   -0.8740   28.4590 O   0  0  0  0  0  0  0  0  0  0  0  0
    7.9230   -1.0260   29.3430 O   0  0  0  0  0  0  0  0  0  0  0  0
    8.0170   -0.3170   30.5810 C   0  0  0  0  0  0  0  0  0  0  0  0
    5.8380   -5.2210   27.7540 C   0  0  0  0  0  0  0  0  0  0  0  0
    6.4220   -5.8540   28.8360 C   0  0  0  0  0  0  0  0  0  0  0  0
    5.5000   -6.6420   29.4620 C   0  0  0  0  0  0  0  0  0  0  0  0
    4.3490   -6.5720   28.7690 C   0  0  0  0  0  0  0  0  0  0  0  0
    4.5290   -5.6810   27.7280 C   0  0  0  0  0  0  0  0  0  0  0  0
    5.7080   -4.8810   23.3390 C   0  0  0  0  0  0  0  0  0  0  0  0
    6.5210   -5.3820   22.1820 C   0  0  0  0  0  0  0  0  0  0  0  0
  1  2  1  0
  2  3  2  0
  2  4  1  0
  4  5  1  0
  5  6  1  0
  6  7  1  0
  7  8  1  0
  8  9  2  0
  8 10  1  0
 10 11  1  0
 11 12  1  1
 12 13  1  0
 13 14  2  0
 13 15  1  0
 15 16  1  0
 11 17  1  0
 17 18  1  0
 18 19  1  0
 19 20  1  0
 17 21  1  0
 20 21  1  0
  7 22  1  0
  4 23  1  0
 22 23  1  0
M  END
