piperidine-amides-6883-covalent
     RDKit          3D

 22 24  0  0  0  0  0  0  0  0999 V2000
    7.0010   -3.3140   19.3250 C   0  0  0  0  0  0  0  0  0  0  0  0
    6.3190   -4.1450   20.3360 C   0  0  0  0  0  0  0  0  0  0  0  0
    5.3700   -4.8770   19.9820 O   0  0  0  0  0  0  0  0  0  0  0  0
    6.7140   -4.1770   21.6870 N   0  0  0  0  0  0  0  0  0  0  0  0
    7.7070   -3.2230   22.1630 C   0  0  0  0  0  0  0  0  0  0  0  0
    7.2850   -2.7420   23.5480 C   0  0  0  0  0  0  0  0  0  0  0  0
    6.1350   -3.6260   23.9300 C   0  0  0  0  0  0  0  0  0  0  0  0
    5.6610   -3.3110   25.3000 C   0  0  0  0  0  0  0  0  0  0  0  0
    4.4550   -3.5270   25.5810 O   0  0  0  0  0  0  0  0  0  0  0  0
    6.5520   -2.7450   26.2520 N   0  0  0  0  0  0  0  0  0  0  0  0
    6.0600   -1.7120   27.1360 C   0  0  1  0  0  0  0  0  0  0  0  0
    7.0160   -1.4180   28.1190 C   0  0  0  0  0  0  0  0  0  0  0  0
    6.4240   -0.4170   28.5900 C   0  0  0  0  0  0  0  0  0  0  0  0
    6.0740    0.5400   27.6600 C   0  0  0  0  0  0  0  0  0  0  0  0
    6.4020    1.0410   28.8720 C   0  0  0  0  0  0  0  0  0  0  0  0
    6.1430    2.2360   28.2640 C   0  0  0  0  0  0  0  0  0  0  0  0
    6.3730    3.7440   29.3750 Br  0  0  0  0  0  0  0  0  0  0  0  0
    5.6980    2.5610   26.8310 C   0  0  0  0  0  0  0  0  0  0  0  0
    5.5990    1.1560   26.1850 C   0  0  0  0  0  0  0  0  0  0  0  0
    5.7850   -0.3250   26.4960 C   0  0  0  0  0  0  0  0  0  0  0  0
    6.5450   -5.0710   23.8050 C   0  0  0  0  0  0  0  0  0  0  0  0
    6.4660   -5.3980   22.4340 C   0  0  0  0  0  0  0  0  0  0  0  0
  1  2  1  0
  2  3  2  0
  2  4  1  0
  4  5  1  0
  5  6  1  0
  6  7  1  0
  7  8  1  0
  8  9  2  0
  8 10  1  0
 11 10  1  6
 11 12  1  0
 12 13  1  0
 13 14  1  0
 14 15  1  0
 15 16  2  0
 16 17  1  0
 16 18  1  0
 18 19  2  0
 11 20  1  0
 14 20  2  0
 19 20  1  0
  7 21  1  0
  4 22  1  0
 21 22  1  0
M  END
