piperidine-amides-19461-covalent
     RDKit          3D

 22 24  0  0  0  0  0  0  0  0999 V2000
    7.0080   -3.4170   19.3760 C   0  0  0  0  0  0  0  0  0  0  0  0
    6.3550   -4.2130   20.3900 C   0  0  0  0  0  0  0  0  0  0  0  0
    5.3770   -4.9260   20.0030 O   0  0  0  0  0  0  0  0  0  0  0  0
    6.7770   -4.2830   21.7430 N   0  0  0  0  0  0  0  0  0  0  0  0
    6.6980   -5.6400   22.3630 C   0  0  0  0  0  0  0  0  0  0  0  0
    6.2430   -5.3470   23.8520 C   0  0  0  0  0  0  0  0  0  0  0  0
    6.2590   -3.8570   23.9940 C   0  0  0  0  0  0  0  0  0  0  0  0
    5.3880   -3.2750   25.1950 C   0  0  0  0  0  0  0  0  0  0  0  0
    4.6400   -2.4190   24.7590 O   0  0  0  0  0  0  0  0  0  0  0  0
    5.6400   -3.8160   26.3180 N   0  0  0  0  0  0  0  0  0  0  0  0
    5.5300   -4.6490   27.3750 C   0  0  0  0  0  0  0  0  0  0  0  0
    5.9050   -4.4940   28.6340 C   0  0  0  0  0  0  0  0  0  0  0  0
    6.6010   -3.3080   28.5270 C   0  0  2  0  0  0  0  0  0  0  0  0
    6.2720   -2.2550   29.2890 N   0  0  0  0  0  0  0  0  0  0  0  0
    4.9570   -2.0430   29.7110 C   0  0  0  0  0  0  0  0  0  0  0  0
    5.3560   -0.8330   30.4200 C   0  0  0  0  0  0  0  0  0  0  0  0
    4.6050    0.0750   31.1780 C   0  0  0  0  0  0  0  0  0  0  0  0
    6.7180   -0.3010   30.4760 C   0  0  0  0  0  0  0  0  0  0  0  0
    7.3130   -1.3810   29.6330 N   0  0  0  0  0  0  0  0  0  0  0  0
    6.4160   -2.8480   27.0810 C   0  0  0  0  0  0  0  0  0  0  0  0
    7.5860   -3.2890   23.6480 C   0  0  0  0  0  0  0  0  0  0  0  0
    7.6630   -3.2670   22.2790 C   0  0  0  0  0  0  0  0  0  0  0  0
  1  2  1  0
  2  3  2  0
  2  4  1  0
  4  5  1  0
  5  6  1  0
  6  7  1  0
  7  8  1  0
  8  9  2  0
  8 10  1  0
 10 11  1  0
 11 12  1  0
 12 13  1  0
 13 14  1  1
 14 15  1  0
 15 16  2  0
 16 17  1  0
 16 18  1  0
 14 19  1  0
 18 19  2  0
 10 20  1  0
 13 20  1  0
  7 21  1  0
  4 22  1  0
 21 22  1  0
M  END
