piperidine-amides-5559-covalent
     RDKit          3D

 18 19  0  0  0  0  0  0  0  0999 V2000
    7.0580   -3.3370   19.2980 C   0  0  0  0  0  0  0  0  0  0  0  0
    6.3690   -4.1510   20.2980 C   0  0  0  0  0  0  0  0  0  0  0  0
    5.3630   -4.7970   19.9670 O   0  0  0  0  0  0  0  0  0  0  0  0
    6.8600   -4.2500   21.6100 N   0  0  0  0  0  0  0  0  0  0  0  0
    7.6530   -3.2080   22.2180 C   0  0  0  0  0  0  0  0  0  0  0  0
    6.8280   -2.7050   23.3700 C   0  0  0  0  0  0  0  0  0  0  0  0
    6.4230   -3.8260   24.2680 C   0  0  0  0  0  0  0  0  0  0  0  0
    5.6660   -3.3880   25.4820 C   0  0  0  0  0  0  0  0  0  0  0  0
    4.3960   -3.3570   25.4910 O   0  0  0  0  0  0  0  0  0  0  0  0
    6.2820   -2.9800   26.6900 N   0  0  0  0  0  0  0  0  0  0  0  0
    6.7080   -1.5710   26.9110 C   0  0  1  0  0  0  0  0  0  0  0  0
    5.6170   -0.6150   26.6350 C   0  0  0  0  0  0  0  0  0  0  0  0
    5.8590    0.6950   27.2370 C   0  0  0  0  0  0  0  0  0  0  0  0
    6.3050    0.7720   28.6530 C   0  0  0  0  0  0  0  0  0  0  0  0
    6.4200   -0.5960   29.2840 C   0  0  0  0  0  0  0  0  0  0  0  0
    7.1700   -1.4750   28.3410 C   0  0  0  0  0  0  0  0  0  0  0  0
    5.6780   -4.8830   23.4760 C   0  0  0  0  0  0  0  0  0  0  0  0
    6.4540   -5.3710   22.4160 C   0  0  0  0  0  0  0  0  0  0  0  0
  1  2  1  0
  2  3  2  0
  2  4  1  0
  4  5  1  0
  5  6  1  0
  6  7  1  0
  7  8  1  0
  8  9  2  0
  8 10  1  0
 11 10  1  1
 11 12  1  0
 12 13  1  0
 13 14  2  0
 14 15  1  0
 11 16  1  0
 15 16  1  0
  7 17  1  0
  4 18  1  0
 17 18  1  0
M  END
