piperidine-amides-19019-covalent
     RDKit          3D

 22 23  0  0  0  0  0  0  0  0999 V2000
    7.1040   -3.4200   19.3150 C   0  0  0  0  0  0  0  0  0  0  0  0
    6.4540   -4.2050   20.3370 C   0  0  0  0  0  0  0  0  0  0  0  0
    5.3960   -4.8230   19.9940 O   0  0  0  0  0  0  0  0  0  0  0  0
    6.9800   -4.3660   21.6460 N   0  0  0  0  0  0  0  0  0  0  0  0
    7.8780   -3.3310   22.1950 C   0  0  0  0  0  0  0  0  0  0  0  0
    6.8610   -2.6640   23.1680 C   0  0  0  0  0  0  0  0  0  0  0  0
    6.4400   -3.7450   24.1390 C   0  0  0  0  0  0  0  0  0  0  0  0
    5.6430   -3.0260   25.3040 C   0  0  0  0  0  0  0  0  0  0  0  0
    4.7220   -2.3760   24.8450 O   0  0  0  0  0  0  0  0  0  0  0  0
    6.1530   -3.3000   26.4170 N   0  0  0  0  0  0  0  0  0  0  0  0
    6.6320   -4.0480   27.4480 C   0  0  0  0  0  0  0  0  0  0  0  0
    6.1430   -4.9670   28.3330 C   0  0  0  0  0  0  0  0  0  0  0  0
    5.6760   -6.1340   27.6830 C   0  0  0  0  0  0  0  0  0  0  0  0
    4.4000   -6.4660   27.4840 N   0  0  0  0  0  0  0  0  0  0  0  0
    6.3030   -1.9730   27.1430 C   0  0  0  0  0  0  0  0  0  0  0  0
    6.9240   -2.2020   28.5380 C   0  0  0  0  0  0  0  0  0  0  0  0
    7.0530   -1.0070   29.2080 C   0  0  0  0  0  0  0  0  0  0  0  0
    6.6770    0.2130   28.7010 C   0  0  0  0  0  0  0  0  0  0  0  0
    6.1140    0.2850   27.3890 N   0  0  0  0  0  0  0  0  0  0  0  0
    5.8390   -0.7580   26.4080 C   0  0  0  0  0  0  0  0  0  0  0  0
    5.7720   -4.9270   23.4760 C   0  0  0  0  0  0  0  0  0  0  0  0
    6.5850   -5.4450   22.4940 C   0  0  0  0  0  0  0  0  0  0  0  0
  1  2  1  0
  2  3  2  0
  2  4  1  0
  4  5  1  0
  5  6  1  0
  6  7  1  0
  7  8  1  0
  8  9  2  0
  8 10  1  0
 10 11  1  0
 11 12  1  0
 12 13  1  0
 13 14  3  0
 10 15  1  0
 15 16  2  0
 16 17  1  0
 17 18  2  0
 18 19  1  0
 15 20  1  0
 19 20  2  0
  7 21  1  0
  4 22  1  0
 21 22  1  0
M  END
