piperidine-amides-11585-covalent
     RDKit          3D

 26 28  0  0  0  0  0  0  0  0999 V2000
    7.0730   -3.3330   19.2700 C   0  0  0  0  0  0  0  0  0  0  0  0
    6.3910   -4.1260   20.2990 C   0  0  0  0  0  0  0  0  0  0  0  0
    5.4100   -4.8220   19.9790 O   0  0  0  0  0  0  0  0  0  0  0  0
    6.8610   -4.1320   21.6230 N   0  0  0  0  0  0  0  0  0  0  0  0
    7.8080   -3.1360   22.0810 C   0  0  0  0  0  0  0  0  0  0  0  0
    7.5700   -3.1110   23.5390 C   0  0  0  0  0  0  0  0  0  0  0  0
    6.1940   -3.6240   23.7740 C   0  0  0  0  0  0  0  0  0  0  0  0
    5.6970   -3.2320   25.0960 C   0  0  0  0  0  0  0  0  0  0  0  0
    4.5150   -3.5080   25.4570 O   0  0  0  0  0  0  0  0  0  0  0  0
    6.5060   -2.5150   25.9870 N   0  0  0  0  0  0  0  0  0  0  0  0
    5.8810   -1.6840   27.0190 C   0  0  2  0  0  0  0  0  0  0  0  0
    5.9910   -0.2730   26.5470 C   0  0  0  0  0  0  0  0  0  0  0  0
    6.0500    0.8130   27.5410 C   0  0  0  0  0  0  0  0  0  0  0  0
    6.0800    0.2730   28.9270 C   0  0  0  0  0  0  0  0  0  0  0  0
    6.6430    1.1210   29.8480 O   0  0  0  0  0  0  0  0  0  0  0  0
    5.5800   -1.0050   29.2860 N   0  0  0  0  0  0  0  0  0  0  0  0
    6.2820   -1.8910   28.3580 C   0  0  1  0  0  0  0  0  0  0  0  0
    5.9930   -3.3270   28.6630 C   0  0  0  0  0  0  0  0  0  0  0  0
    6.7050   -4.4060   28.9430 C   0  0  0  0  0  0  0  0  0  0  0  0
    6.0700   -5.5450   29.1550 N   0  0  0  0  0  0  0  0  0  0  0  0
    4.7510   -5.3080   29.0210 N   0  0  0  0  0  0  0  0  0  0  0  0
    3.6390   -6.2550   29.1580 C   0  0  0  0  0  0  0  0  0  0  0  0
    4.2630   -7.6230   29.3750 C   0  0  0  0  0  0  0  0  0  0  0  0
    4.6200   -3.9410   28.7130 C   0  0  0  0  0  0  0  0  0  0  0  0
    6.1700   -5.1410   23.5060 C   0  0  0  0  0  0  0  0  0  0  0  0
    6.6460   -5.3640   22.4030 C   0  0  0  0  0  0  0  0  0  0  0  0
  1  2  1  0
  2  3  2  0
  2  4  1  0
  4  5  1  0
  5  6  1  0
  6  7  1  0
  7  8  1  0
  8  9  2  0
  8 10  1  0
 11 10  1  6
 11 12  1  0
 12 13  1  0
 13 14  1  0
 14 15  2  0
 14 16  1  0
 11 17  1  0
 16 17  1  0
 17 18  1  1
 18 19  1  0
 19 20  2  0
 20 21  1  0
 21 22  1  0
 22 23  1  0
 18 24  2  0
 21 24  1  0
  7 25  1  0
  4 26  1  0
 25 26  1  0
M  END
