piperidine-amides-13343-covalent
     RDKit          3D

 17 18  0  0  0  0  0  0  0  0999 V2000
    7.1390   -3.2930   19.2200 C   0  0  0  0  0  0  0  0  0  0  0  0
    6.3500   -4.0260   20.2330 C   0  0  0  0  0  0  0  0  0  0  0  0
    5.2610   -4.5020   19.8610 O   0  0  0  0  0  0  0  0  0  0  0  0
    6.8490   -4.2150   21.5240 N   0  0  0  0  0  0  0  0  0  0  0  0
    6.3670   -5.3000   22.3060 C   0  0  0  0  0  0  0  0  0  0  0  0
    5.9250   -4.8950   23.6470 C   0  0  0  0  0  0  0  0  0  0  0  0
    6.5840   -3.6810   24.1920 C   0  0  0  0  0  0  0  0  0  0  0  0
    5.8210   -3.1600   25.3610 C   0  0  0  0  0  0  0  0  0  0  0  0
    4.5920   -3.3730   25.3970 O   0  0  0  0  0  0  0  0  0  0  0  0
    6.4490   -2.4440   26.4030 N   0  0  0  0  0  0  0  0  0  0  0  0
    6.2000   -2.7050   27.8420 C   0  0  1  0  0  0  0  0  0  0  0  0
    6.6920   -1.6230   28.6850 C   0  0  0  0  0  0  0  0  0  0  0  0
    5.3400   -1.3040   29.0130 C   0  0  1  0  0  0  0  0  0  0  0  0
    4.7900    0.5040   28.6330 Br  0  0  0  0  0  0  0  0  0  0  0  0
    4.8170   -2.3140   28.1770 C   0  0  0  0  0  0  0  0  0  0  0  0
    6.8500   -2.6180   23.1840 C   0  0  0  0  0  0  0  0  0  0  0  0
    7.5320   -3.1120   22.1220 C   0  0  0  0  0  0  0  0  0  0  0  0
  1  2  1  0
  2  3  2  0
  2  4  1  0
  4  5  1  0
  5  6  1  0
  6  7  1  0
  7  8  1  0
  8  9  2  0
  8 10  1  0
 11 10  1  6
 11 12  1  0
 12 13  1  0
 13 14  1  6
 11 15  1  0
 13 15  1  0
  7 16  1  0
  4 17  1  0
 16 17  1  0
M  END
