piperidine-amides-1056-covalent
     RDKit          3D

 24 25  0  0  0  0  0  0  0  0999 V2000
    7.1660   -3.2890   19.2230 C   0  0  0  0  0  0  0  0  0  0  0  0
    6.3420   -4.0400   20.2070 C   0  0  0  0  0  0  0  0  0  0  0  0
    5.2490   -4.5100   19.8610 O   0  0  0  0  0  0  0  0  0  0  0  0
    6.8620   -4.2390   21.4930 N   0  0  0  0  0  0  0  0  0  0  0  0
    7.7230   -3.2530   22.0990 C   0  0  0  0  0  0  0  0  0  0  0  0
    6.8280   -2.4950   23.0580 C   0  0  0  0  0  0  0  0  0  0  0  0
    6.2780   -3.5350   23.9610 C   0  0  0  0  0  0  0  0  0  0  0  0
    5.4880   -2.9310   25.0530 C   0  0  0  0  0  0  0  0  0  0  0  0
    4.2650   -3.1150   25.0370 O   0  0  0  0  0  0  0  0  0  0  0  0
    6.1470   -2.1880   26.0410 N   0  0  0  0  0  0  0  0  0  0  0  0
    6.2390   -2.5520   27.4000 C   0  0  0  0  0  0  0  0  0  0  0  0
    5.4630   -3.5510   27.9370 C   0  0  0  0  0  0  0  0  0  0  0  0
    6.4970   -4.7810   28.7090 S   0  0  0  0  0  0  0  0  0  0  0  0
    5.9720   -5.3510   30.0080 O   0  0  0  0  0  0  0  0  0  0  0  0
    7.7650   -4.0430   28.8870 O   0  0  0  0  0  0  0  0  0  0  0  0
    6.9580   -6.0280   27.6060 C   0  0  0  0  0  0  0  0  0  0  0  0
    7.8480   -5.4650   26.7670 C   0  0  0  0  0  0  0  0  0  0  0  0
    7.4610   -4.2550   26.0110 C   0  0  0  0  0  0  0  0  0  0  0  0
    8.3930   -3.5150   25.0550 C   0  0  0  0  0  0  0  0  0  0  0  0
    9.7280   -4.1780   24.9850 C   0  0  0  0  0  0  0  0  0  0  0  0
   10.0160   -5.3050   25.7150 C   0  0  0  0  0  0  0  0  0  0  0  0
    9.0950   -5.9690   26.6140 C   0  0  0  0  0  0  0  0  0  0  0  0
    5.5050   -4.6250   23.2800 C   0  0  0  0  0  0  0  0  0  0  0  0
    6.3090   -5.2440   22.3530 C   0  0  0  0  0  0  0  0  0  0  0  0
  1  2  1  0
  2  3  2  0
  2  4  1  0
  4  5  1  0
  5  6  1  0
  6  7  1  0
  7  8  1  0
  8  9  2  0
  8 10  1  0
 10 11  1  0
 11 12  1  0
 13 12  1  0
 13 14  2  0
 13 15  2  0
 13 16  1  0
 16 17  1  0
 17 18  2  0
 18 19  1  0
 19 20  2  0
 20 21  1  0
 17 22  1  0
 21 22  2  0
  7 23  1  0
  4 24  1  0
 23 24  1  0
M  END
