piperidine-amides-11743-covalent
     RDKit          3D

 29 31  0  0  0  0  0  0  0  0999 V2000
    7.0620   -3.2980   19.2670 C   0  0  0  0  0  0  0  0  0  0  0  0
    6.3340   -4.0540   20.2820 C   0  0  0  0  0  0  0  0  0  0  0  0
    5.3400   -4.7000   19.9470 O   0  0  0  0  0  0  0  0  0  0  0  0
    6.7900   -4.0900   21.6490 N   0  0  0  0  0  0  0  0  0  0  0  0
    7.6710   -3.0650   22.1660 C   0  0  0  0  0  0  0  0  0  0  0  0
    7.4600   -2.8780   23.6450 C   0  0  0  0  0  0  0  0  0  0  0  0
    6.1430   -3.5440   23.9830 C   0  0  0  0  0  0  0  0  0  0  0  0
    5.7430   -3.3040   25.4050 C   0  0  0  0  0  0  0  0  0  0  0  0
    4.7220   -3.8310   25.8800 O   0  0  0  0  0  0  0  0  0  0  0  0
    6.5120   -2.4510   26.2430 N   0  0  0  0  0  0  0  0  0  0  0  0
    6.0940   -1.0680   26.3760 C   0  0  2  0  0  0  0  0  0  0  0  0
    6.4760   -0.5860   27.7580 C   0  0  0  0  0  0  0  0  0  0  0  0
    6.1380    0.7250   28.1180 C   0  0  0  0  0  0  0  0  0  0  0  0
    6.4480    1.2620   29.3830 C   0  0  0  0  0  0  0  0  0  0  0  0
    7.1040    0.4740   30.2830 C   0  0  0  0  0  0  0  0  0  0  0  0
    7.4470   -0.8610   29.9050 C   0  0  0  0  0  0  0  0  0  0  0  0
    7.1370   -1.3780   28.6730 C   0  0  0  0  0  0  0  0  0  0  0  0
    4.8190   -0.6180   26.1260 C   0  0  0  0  0  0  0  0  0  0  0  0
    3.6560   -1.3720   26.3360 C   0  0  0  0  0  0  0  0  0  0  0  0
    2.3330   -0.8160   26.0650 C   0  0  0  0  0  0  0  0  0  0  0  0
    2.0700    0.4440   25.5980 C   0  0  0  0  0  0  0  0  0  0  0  0
    0.8100    0.9100   25.3700 O   0  0  0  0  0  0  0  0  0  0  0  0
    0.3230    2.1590   25.0770 C   0  0  0  0  0  0  0  0  0  0  0  0
    3.1780    1.1960   25.3790 C   0  0  0  0  0  0  0  0  0  0  0  0
    4.5970    0.6740   25.6410 C   0  0  0  0  0  0  0  0  0  0  0  0
    5.6740    1.5090   25.3950 O   0  0  0  0  0  0  0  0  0  0  0  0
    6.4780    1.3570   24.2300 C   0  0  0  0  0  0  0  0  0  0  0  0
    6.1020   -5.0120   23.6970 C   0  0  0  0  0  0  0  0  0  0  0  0
    6.5730   -5.2850   22.4080 C   0  0  0  0  0  0  0  0  0  0  0  0
  1  2  1  0
  2  3  2  0
  2  4  1  0
  4  5  1  0
  5  6  1  0
  6  7  1  0
  7  8  1  0
  8  9  2  0
  8 10  1  0
 11 10  1  1
 11 12  1  0
 12 13  2  0
 13 14  1  0
 14 15  2  0
 15 16  1  0
 12 17  1  0
 16 17  2  0
 11 18  1  0
 18 19  2  0
 19 20  1  0
 20 21  2  0
 21 22  1  0
 22 23  1  0
 21 24  1  0
 18 25  1  0
 24 25  2  0
 25 26  1  0
 26 27  1  0
  7 28  1  0
  4 29  1  0
 28 29  1  0
M  END
