piperidine-amides-34153-covalent
     RDKit          3D

 29 31  0  0  0  0  0  0  0  0999 V2000
    7.0950   -3.3110   19.3050 C   0  0  0  0  0  0  0  0  0  0  0  0
    6.4030   -4.1420   20.2960 C   0  0  0  0  0  0  0  0  0  0  0  0
    5.3980   -4.8180   19.9780 O   0  0  0  0  0  0  0  0  0  0  0  0
    6.9070   -4.2080   21.5970 N   0  0  0  0  0  0  0  0  0  0  0  0
    6.6620   -5.3770   22.4050 C   0  0  0  0  0  0  0  0  0  0  0  0
    5.9080   -4.8970   23.6540 C   0  0  0  0  0  0  0  0  0  0  0  0
    6.6250   -3.6630   24.1860 C   0  0  0  0  0  0  0  0  0  0  0  0
    5.7550   -3.0120   25.1800 C   0  0  0  0  0  0  0  0  0  0  0  0
    4.6630   -2.5940   24.7470 O   0  0  0  0  0  0  0  0  0  0  0  0
    6.0960   -2.8750   26.5610 N   0  0  0  0  0  0  0  0  0  0  0  0
    5.0640   -3.3360   27.4340 C   0  0  0  0  0  0  0  0  0  0  0  0
    5.1600   -4.7800   27.8440 C   0  0  0  0  0  0  0  0  0  0  0  0
    6.1880   -5.3680   28.5520 C   0  0  0  0  0  0  0  0  0  0  0  0
    7.2080   -4.5650   28.8950 F   0  0  0  0  0  0  0  0  0  0  0  0
    6.2070   -6.6850   28.9130 C   0  0  0  0  0  0  0  0  0  0  0  0
    5.1740   -7.5170   28.5760 C   0  0  0  0  0  0  0  0  0  0  0  0
    4.1060   -7.0900   27.8830 C   0  0  0  0  0  0  0  0  0  0  0  0
    3.9780   -5.6670   27.4370 C   0  0  0  0  0  0  0  0  0  0  0  0
    2.6010   -5.0810   26.5430 Cl  0  0  0  0  0  0  0  0  0  0  0  0
    6.4650   -1.5910   27.1840 C   0  0  2  0  0  0  0  0  0  0  0  0
    6.2620   -1.8280   28.6750 C   0  0  0  0  0  0  0  0  0  0  0  0
    7.2340   -0.7900   28.4440 C   0  0  0  0  0  0  0  0  0  0  0  0
    6.5430    0.4130   28.5920 C   0  0  0  0  0  0  0  0  0  0  0  0
    5.7820    0.6060   27.4920 C   0  0  1  0  0  0  0  0  0  0  0  0
    6.1730    1.7490   26.5850 C   0  0  0  0  0  0  0  0  0  0  0  0
    5.7220   -0.5870   26.5480 C   0  0  2  0  0  0  0  0  0  0  0  0
    4.2640   -1.0030   26.2750 C   0  0  0  0  0  0  0  0  0  0  0  0
    6.9900   -2.6250   23.1910 C   0  0  0  0  0  0  0  0  0  0  0  0
    7.6900   -3.1440   22.1640 C   0  0  0  0  0  0  0  0  0  0  0  0
  1  2  1  0
  2  3  2  0
  2  4  1  0
  4  5  1  0
  5  6  1  0
  6  7  1  0
  7  8  1  0
  8  9  2  0
  8 10  1  0
 10 11  1  0
 11 12  1  0
 12 13  2  0
 13 14  1  0
 13 15  1  0
 15 16  2  0
 16 17  1  0
 12 18  1  0
 17 18  2  0
 18 19  1  0
 20 10  1  6
 20 21  1  0
 21 22  1  0
 22 23  1  0
 23 24  1  0
 24 25  1  6
 20 26  1  0
 24 26  1  0
 26 27  1  1
  7 28  1  0
  4 29  1  0
 28 29  1  0
M  END
