piperidine-amides-1088-covalent
     RDKit          3D

 24 25  0  0  0  0  0  0  0  0999 V2000
    7.2120   -3.9330   19.6050 C   0  0  0  0  0  0  0  0  0  0  0  0
    5.9560   -3.8320   20.2490 C   0  0  0  0  0  0  0  0  0  0  0  0
    4.9550   -3.9310   19.5390 O   0  0  0  0  0  0  0  0  0  0  0  0
    6.0400   -3.7420   21.6190 N   0  0  0  0  0  0  0  0  0  0  0  0
    7.1820   -3.0310   22.1270 C   0  0  0  0  0  0  0  0  0  0  0  0
    6.7770   -2.4800   23.4750 C   0  0  0  0  0  0  0  0  0  0  0  0
    6.4440   -3.6480   24.3310 C   0  0  0  0  0  0  0  0  0  0  0  0
    5.7600   -3.2230   25.5450 C   0  0  0  0  0  0  0  0  0  0  0  0
    4.5310   -3.0930   25.4690 O   0  0  0  0  0  0  0  0  0  0  0  0
    6.5020   -2.9980   26.6890 N   0  0  0  0  0  0  0  0  0  0  0  0
    6.4110   -3.7240   27.8930 C   0  0  0  0  0  0  0  0  0  0  0  0
    5.3010   -3.7010   28.6500 C   0  0  0  0  0  0  0  0  0  0  0  0
    4.8340   -2.4810   29.1680 C   0  0  0  0  0  0  0  0  0  0  0  0
    5.8470   -1.4560   28.9480 N   0  0  0  0  0  0  0  0  0  0  0  0
    6.1160   -0.7360   27.8340 C   0  0  0  0  0  0  0  0  0  0  0  0
    6.0910    0.7480   27.9010 C   0  0  0  0  0  0  0  0  0  0  0  0
    6.1570   -0.8010   30.1860 C   0  0  0  0  0  0  0  0  0  0  0  0
    7.6020   -0.5380   30.5450 C   0  0  0  0  0  0  0  0  0  0  0  0
    7.9030    0.0890   31.7210 C   0  0  0  0  0  0  0  0  0  0  0  0
    6.9490    0.5720   32.7520 C   0  0  0  0  0  0  0  0  0  0  0  0
    5.5120    0.2600   32.3030 C   0  0  0  0  0  0  0  0  0  0  0  0
    5.1240   -0.3660   31.1350 C   0  0  0  0  0  0  0  0  0  0  0  0
    5.5570   -4.7070   23.7630 C   0  0  0  0  0  0  0  0  0  0  0  0
    5.8110   -4.9920   22.3210 C   0  0  0  0  0  0  0  0  0  0  0  0
  1  2  1  0
  2  3  2  0
  2  4  1  0
  4  5  1  0
  5  6  1  0
  6  7  1  0
  7  8  1  0
  8  9  2  0
  8 10  1  0
 10 11  1  0
 11 12  1  0
 12 13  1  0
 13 14  1  0
 14 15  1  0
 15 16  1  0
 14 17  1  0
 17 18  2  0
 18 19  1  0
 19 20  2  0
 20 21  1  0
 17 22  1  0
 21 22  2  0
  7 23  1  0
  4 24  1  0
 23 24  1  0
M  END
