piperidine-amides-29542-covalent
     RDKit          3D

 27 30  0  0  0  0  0  0  0  0999 V2000
    7.0320   -3.3640   19.3450 C   0  0  0  0  0  0  0  0  0  0  0  0
    6.3690   -4.2040   20.3380 C   0  0  0  0  0  0  0  0  0  0  0  0
    5.4000   -4.8840   19.9970 O   0  0  0  0  0  0  0  0  0  0  0  0
    6.8700   -4.2770   21.6920 N   0  0  0  0  0  0  0  0  0  0  0  0
    7.7630   -3.2380   22.1800 C   0  0  0  0  0  0  0  0  0  0  0  0
    7.6280   -3.0770   23.6640 C   0  0  0  0  0  0  0  0  0  0  0  0
    6.2590   -3.5990   24.0020 C   0  0  0  0  0  0  0  0  0  0  0  0
    5.7590   -3.0400   25.2950 C   0  0  0  0  0  0  0  0  0  0  0  0
    5.1820   -1.9450   25.3330 O   0  0  0  0  0  0  0  0  0  0  0  0
    5.8740   -3.7300   26.5100 N   0  0  0  0  0  0  0  0  0  0  0  0
    6.3810   -3.0110   27.6380 C   0  0  0  0  0  0  0  0  0  0  0  0
    6.5940   -4.0370   28.7340 C   0  0  0  0  0  0  0  0  0  0  0  0
    5.7510   -5.1240   28.7590 C   0  0  0  0  0  0  0  0  0  0  0  0
    5.2100   -5.5010   27.5640 C   0  0  0  0  0  0  0  0  0  0  0  0
    4.7080   -4.4290   26.8970 C   0  0  0  0  0  0  0  0  0  0  0  0
    4.6760   -5.1380   29.8070 C   0  0  0  0  0  0  0  0  0  0  0  0
    5.3240   -6.0330   30.3840 N   0  0  0  0  0  0  0  0  0  0  0  0
    4.8690   -7.3070   30.8830 C   0  0  0  0  0  0  0  0  0  0  0  0
    3.8480   -7.1150   31.7990 C   0  0  0  0  0  0  0  0  0  0  0  0
    3.4410   -5.8320   32.1970 C   0  0  0  0  0  0  0  0  0  0  0  0
    2.3590   -5.6050   33.1660 C   0  0  0  0  0  0  0  0  0  0  0  0
    1.6890   -6.6660   33.7330 C   0  0  0  0  0  0  0  0  0  0  0  0
    2.0780   -7.9350   33.3510 C   0  0  0  0  0  0  0  0  0  0  0  0
    3.1770   -8.1530   32.3680 C   0  0  0  0  0  0  0  0  0  0  0  0
    6.2410   -6.2950   29.4610 C   0  0  0  0  0  0  0  0  0  0  0  0
    6.2010   -5.0810   23.8250 C   0  0  0  0  0  0  0  0  0  0  0  0
    6.6900   -5.4950   22.4640 C   0  0  0  0  0  0  0  0  0  0  0  0
  1  2  1  0
  2  3  2  0
  2  4  1  0
  4  5  1  0
  5  6  1  0
  6  7  1  0
  7  8  1  0
  8  9  2  0
  8 10  1  0
 10 11  1  0
 11 12  1  0
 13 12  1  0
 13 14  1  0
 10 15  1  0
 14 15  1  0
 13 16  1  0
 16 17  1  0
 17 18  1  0
 18 19  1  0
 19 20  2  0
 20 21  1  0
 21 22  2  0
 22 23  1  0
 19 24  1  0
 23 24  2  0
 13 25  1  0
 17 25  1  0
  7 26  1  0
  4 27  1  0
 26 27  1  0
M  END
