piperidine-amides-31478-covalent
     RDKit          3D

 27 29  0  0  0  0  0  0  0  0999 V2000
    7.1450   -3.3760   19.4650 C   0  0  0  0  0  0  0  0  0  0  0  0
    6.4840   -4.2610   20.3940 C   0  0  0  0  0  0  0  0  0  0  0  0
    5.4360   -4.8730   19.9980 O   0  0  0  0  0  0  0  0  0  0  0  0
    7.0000   -4.5000   21.6920 N   0  0  0  0  0  0  0  0  0  0  0  0
    7.7920   -3.4330   22.3340 C   0  0  0  0  0  0  0  0  0  0  0  0
    6.6720   -2.8050   23.2410 C   0  0  0  0  0  0  0  0  0  0  0  0
    6.1690   -3.9110   24.1510 C   0  0  0  0  0  0  0  0  0  0  0  0
    5.1010   -3.3310   25.1850 C   0  0  0  0  0  0  0  0  0  0  0  0
    4.0640   -3.0700   24.6090 O   0  0  0  0  0  0  0  0  0  0  0  0
    5.5960   -3.2850   26.3450 N   0  0  0  0  0  0  0  0  0  0  0  0
    6.4360   -3.0640   27.3320 C   0  0  0  0  0  0  0  0  0  0  0  0
    6.6370   -3.7210   28.4770 C   0  0  0  0  0  0  0  0  0  0  0  0
    5.3510   -4.1610   28.6350 C   0  0  0  0  0  0  0  0  0  0  0  0
    4.6140   -3.7980   27.3870 C   0  0  1  0  0  0  0  0  0  0  0  0
    3.9140   -2.5790   28.0270 C   0  0  0  0  0  0  0  0  0  0  0  0
    2.6730   -2.6510   27.3650 C   0  0  0  0  0  0  0  0  0  0  0  0
    1.4680   -1.8480   27.4240 C   0  0  0  0  0  0  0  0  0  0  0  0
    1.9260   -0.7920   28.4980 C   0  0  0  0  0  0  0  0  0  0  0  0
    3.2970   -0.6980   29.2390 C   0  0  0  0  0  0  0  0  0  0  0  0
    3.6010    0.2720   30.1640 C   0  0  0  0  0  0  0  0  0  0  0  0
    4.8220    0.8500   29.9600 F   0  0  0  0  0  0  0  0  0  0  0  0
    2.7250    1.3520   30.2430 F   0  0  0  0  0  0  0  0  0  0  0  0
    3.5320   -0.2830   31.4100 F   0  0  0  0  0  0  0  0  0  0  0  0
    4.2870   -1.6720   28.9350 C   0  0  0  0  0  0  0  0  0  0  0  0
    5.4870   -1.6150   29.5620 F   0  0  0  0  0  0  0  0  0  0  0  0
    5.6980   -5.1960   23.4650 C   0  0  0  0  0  0  0  0  0  0  0  0
    6.5870   -5.6080   22.4980 C   0  0  0  0  0  0  0  0  0  0  0  0
  1  2  1  0
  2  3  2  0
  2  4  1  0
  4  5  1  0
  5  6  1  0
  6  7  1  0
  7  8  1  0
  8  9  2  0
  8 10  1  0
 10 11  1  0
 11 12  1  0
 12 13  1  0
 10 14  1  0
 13 14  1  0
 14 15  1  1
 15 16  2  0
 16 17  1  0
 17 18  2  0
 18 19  1  0
 19 20  1  0
 20 21  1  0
 20 22  1  0
 20 23  1  0
 15 24  1  0
 19 24  2  0
 24 25  1  0
  7 26  1  0
  4 27  1  0
 26 27  1  0
M  END
