piperidine-amides-1992-covalent
     RDKit          3D

 27 29  0  0  0  0  0  0  0  0999 V2000
    7.0630   -3.3230   19.3910 C   0  0  0  0  0  0  0  0  0  0  0  0
    6.3270   -4.1450   20.3860 C   0  0  0  0  0  0  0  0  0  0  0  0
    5.3490   -4.7630   19.9620 O   0  0  0  0  0  0  0  0  0  0  0  0
    6.7660   -4.2300   21.7190 N   0  0  0  0  0  0  0  0  0  0  0  0
    7.6190   -3.2150   22.3060 C   0  0  0  0  0  0  0  0  0  0  0  0
    7.1970   -2.9460   23.7270 C   0  0  0  0  0  0  0  0  0  0  0  0
    5.9260   -3.7480   24.0080 C   0  0  0  0  0  0  0  0  0  0  0  0
    5.2460   -3.2750   25.2560 C   0  0  0  0  0  0  0  0  0  0  0  0
    4.1960   -2.6450   25.1100 O   0  0  0  0  0  0  0  0  0  0  0  0
    5.6890   -3.4750   26.5950 N   0  0  0  0  0  0  0  0  0  0  0  0
    6.0360   -4.7900   27.0800 C   0  0  0  0  0  0  0  0  0  0  0  0
    4.9560   -5.5220   27.8370 C   0  0  0  0  0  0  0  0  0  0  0  0
    3.7390   -5.9650   27.4550 C   0  0  0  0  0  0  0  0  0  0  0  0
    2.9800   -6.6350   28.3900 N   0  0  0  0  0  0  0  0  0  0  0  0
    1.6900   -7.2080   28.2710 C   0  0  0  0  0  0  0  0  0  0  0  0
    1.3820   -7.7670   29.4660 C   0  0  0  0  0  0  0  0  0  0  0  0
    0.3280   -8.5360   30.2460 C   0  0  0  0  0  0  0  0  0  0  0  0
    0.6890   -9.8210   30.6720 F   0  0  0  0  0  0  0  0  0  0  0  0
   -0.1680   -7.8910   31.3910 F   0  0  0  0  0  0  0  0  0  0  0  0
   -0.7610   -8.6700   29.4130 F   0  0  0  0  0  0  0  0  0  0  0  0
    2.0620   -7.8880   30.7600 C   0  0  0  0  0  0  0  0  0  0  0  0
    3.4500   -7.2400   30.8210 C   0  0  0  0  0  0  0  0  0  0  0  0
    4.5690   -7.2440   32.3920 Br  0  0  0  0  0  0  0  0  0  0  0  0
    3.8610   -6.6000   29.5220 C   0  0  0  0  0  0  0  0  0  0  0  0
    5.0150   -5.9270   29.1520 N   0  0  0  0  0  0  0  0  0  0  0  0
    6.1560   -5.2240   23.8770 C   0  0  0  0  0  0  0  0  0  0  0  0
    6.5810   -5.4860   22.4310 C   0  0  0  0  0  0  0  0  0  0  0  0
  1  2  1  0
  2  3  2  0
  2  4  1  0
  4  5  1  0
  5  6  1  0
  6  7  1  0
  7  8  1  0
  8  9  2  0
  8 10  1  0
 10 11  1  0
 11 12  1  0
 12 13  2  0
 13 14  1  0
 14 15  1  0
 15 16  2  0
 16 17  1  0
 17 18  1  0
 17 19  1  0
 17 20  1  0
 16 21  1  0
 21 22  2  0
 22 23  1  0
 14 24  1  0
 22 24  1  0
 12 25  1  0
 24 25  2  0
  7 26  1  0
  4 27  1  0
 26 27  1  0
M  END
