piperidine-amides-5261-covalent
     RDKit          3D

 21 23  0  0  0  0  0  0  0  0999 V2000
    7.1170   -3.2630   19.2070 C   0  0  0  0  0  0  0  0  0  0  0  0
    6.3810   -4.0280   20.2420 C   0  0  0  0  0  0  0  0  0  0  0  0
    5.3060   -4.5510   19.8860 O   0  0  0  0  0  0  0  0  0  0  0  0
    6.8990   -4.1950   21.5370 N   0  0  0  0  0  0  0  0  0  0  0  0
    7.7020   -3.1770   22.1410 C   0  0  0  0  0  0  0  0  0  0  0  0
    7.3530   -2.9190   23.5310 C   0  0  0  0  0  0  0  0  0  0  0  0
    6.0810   -3.5490   23.9340 C   0  0  0  0  0  0  0  0  0  0  0  0
    5.7860   -3.2770   25.3570 C   0  0  0  0  0  0  0  0  0  0  0  0
    4.6000   -3.3800   25.7250 O   0  0  0  0  0  0  0  0  0  0  0  0
    6.7890   -2.9060   26.2800 N   0  0  0  0  0  0  0  0  0  0  0  0
    6.4280   -2.3290   27.5940 C   0  0  0  0  0  0  0  0  0  0  0  0
    7.4870   -1.4610   28.1730 C   0  0  1  0  0  0  0  0  0  0  0  0
    7.9300   -0.3110   27.4080 C   0  0  0  0  0  0  0  0  0  0  0  0
    7.9360    0.8130   28.2010 C   0  0  2  0  0  0  0  0  0  0  0  0
    8.6910    0.6270   29.3490 C   0  0  0  0  0  0  0  0  0  0  0  0
    8.2000   -0.4510   30.0270 C   0  0  0  0  0  0  0  0  0  0  0  0
    7.0200   -0.8900   29.5050 C   0  0  1  0  0  0  0  0  0  0  0  0
    6.1070    0.1080   29.3480 C   0  0  0  0  0  0  0  0  0  0  0  0
    6.6580    1.1400   28.5910 C   0  0  0  0  0  0  0  0  0  0  0  0
    5.9370   -4.9920   23.6100 C   0  0  0  0  0  0  0  0  0  0  0  0
    6.6520   -5.3900   22.3360 C   0  0  0  0  0  0  0  0  0  0  0  0
  1  2  1  0
  2  3  2  0
  2  4  1  0
  4  5  1  0
  5  6  1  0
  6  7  1  0
  7  8  1  0
  8  9  2  0
  8 10  1  0
 10 11  1  0
 12 11  1  6
 12 13  1  0
 14 13  1  1
 14 15  1  0
 15 16  1  0
 12 17  1  0
 17 16  1  6
 17 18  1  0
 14 19  1  0
 18 19  1  0
  7 20  1  0
  4 21  1  0
 20 21  1  0
M  END
