piperidine-amides-28961-covalent
     RDKit          3D

 27 29  0  0  0  0  0  0  0  0999 V2000
    7.0800   -3.3070   19.2960 C   0  0  0  0  0  0  0  0  0  0  0  0
    6.4020   -4.1240   20.2980 C   0  0  0  0  0  0  0  0  0  0  0  0
    5.3700   -4.7340   19.9580 O   0  0  0  0  0  0  0  0  0  0  0  0
    6.9490   -4.2480   21.6020 N   0  0  0  0  0  0  0  0  0  0  0  0
    6.5830   -5.3620   22.4140 C   0  0  0  0  0  0  0  0  0  0  0  0
    5.6890   -4.8850   23.5210 C   0  0  0  0  0  0  0  0  0  0  0  0
    6.4270   -3.8280   24.3360 C   0  0  0  0  0  0  0  0  0  0  0  0
    5.4890   -3.3010   25.3860 C   0  0  0  0  0  0  0  0  0  0  0  0
    4.3410   -3.1160   25.0030 O   0  0  0  0  0  0  0  0  0  0  0  0
    5.9340   -3.0600   26.6890 N   0  0  0  0  0  0  0  0  0  0  0  0
    6.4690   -1.7840   27.0450 C   0  0  0  0  0  0  0  0  0  0  0  0
    5.5830   -0.6940   26.9760 C   0  0  0  0  0  0  0  0  0  0  0  0
    5.9960    0.5600   27.4020 C   0  0  0  0  0  0  0  0  0  0  0  0
    5.2460    1.7350   27.4010 C   0  0  0  0  0  0  0  0  0  0  0  0
    3.8720    1.5280   26.8740 C   0  0  0  0  0  0  0  0  0  0  0  0
    3.4480    0.3360   26.4580 N   0  0  0  0  0  0  0  0  0  0  0  0
    4.2610   -0.7160   26.5070 C   0  0  0  0  0  0  0  0  0  0  0  0
    6.0280   -4.1280   27.6640 C   0  0  0  0  0  0  0  0  0  0  0  0
    4.8310   -4.3490   28.5240 C   0  0  0  0  0  0  0  0  0  0  0  0
    3.8170   -3.1620   28.5330 C   0  0  0  0  0  0  0  0  0  0  0  0
    2.6680   -3.2400   29.2870 C   0  0  0  0  0  0  0  0  0  0  0  0
    2.3230   -4.3120   30.0620 C   0  0  0  0  0  0  0  0  0  0  0  0
    3.2610   -5.4790   30.0910 C   0  0  0  0  0  0  0  0  0  0  0  0
    4.5350   -5.4680   29.2950 C   0  0  0  0  0  0  0  0  0  0  0  0
    5.5000   -6.6520   29.3200 C   0  0  0  0  0  0  0  0  0  0  0  0
    6.9220   -2.6900   23.4510 C   0  0  0  0  0  0  0  0  0  0  0  0
    7.7170   -3.2190   22.2540 C   0  0  0  0  0  0  0  0  0  0  0  0
  1  2  1  0
  2  3  2  0
  2  4  1  0
  4  5  1  0
  5  6  1  0
  6  7  1  0
  7  8  1  0
  8  9  2  0
  8 10  1  0
 10 11  1  0
 11 12  1  0
 12 13  2  0
 13 14  1  0
 14 15  2  0
 15 16  1  0
 12 17  1  0
 16 17  2  0
 10 18  1  0
 18 19  1  0
 19 20  2  0
 20 21  1  0
 21 22  2  0
 22 23  1  0
 19 24  1  0
 23 24  2  0
 24 25  1  0
  7 26  1  0
  4 27  1  0
 26 27  1  0
M  END
