piperidine-amides-29839-covalent
     RDKit          3D

 27 29  0  0  0  0  0  0  0  0999 V2000
    7.0650   -3.3410   19.3460 C   0  0  0  0  0  0  0  0  0  0  0  0
    6.3640   -4.1840   20.3070 C   0  0  0  0  0  0  0  0  0  0  0  0
    5.3580   -4.8070   19.9680 O   0  0  0  0  0  0  0  0  0  0  0  0
    6.8800   -4.3250   21.6380 N   0  0  0  0  0  0  0  0  0  0  0  0
    7.7340   -3.2800   22.1820 C   0  0  0  0  0  0  0  0  0  0  0  0
    7.4960   -3.1130   23.6480 C   0  0  0  0  0  0  0  0  0  0  0  0
    6.1450   -3.7360   23.8750 C   0  0  0  0  0  0  0  0  0  0  0  0
    5.5520   -3.3600   25.1820 C   0  0  0  0  0  0  0  0  0  0  0  0
    4.4980   -2.7050   25.2280 O   0  0  0  0  0  0  0  0  0  0  0  0
    6.1320   -3.7390   26.4110 N   0  0  0  0  0  0  0  0  0  0  0  0
    5.1570   -3.8450   27.4870 C   0  0  0  0  0  0  0  0  0  0  0  0
    5.5700   -4.9720   28.3650 C   0  0  0  0  0  0  0  0  0  0  0  0
    6.8480   -4.8870   28.7770 C   0  0  0  0  0  0  0  0  0  0  0  0
    7.7030   -4.0280   28.1020 C   0  0  2  0  0  0  0  0  0  0  0  0
    7.7760   -2.6780   28.4520 C   0  0  0  0  0  0  0  0  0  0  0  0
    8.7980   -2.2700   28.9940 O   0  0  0  0  0  0  0  0  0  0  0  0
    6.7370   -1.7270   28.2350 N   0  0  0  0  0  0  0  0  0  0  0  0
    6.4780   -1.3040   26.8940 C   0  0  0  0  0  0  0  0  0  0  0  0
    6.5060   -0.8960   29.3840 C   0  0  0  0  0  0  0  0  0  0  0  0
    5.4100   -1.2510   30.1380 C   0  0  0  0  0  0  0  0  0  0  0  0
    5.0480   -0.5690   31.2680 C   0  0  0  0  0  0  0  0  0  0  0  0
    5.8660    0.5580   31.6570 C   0  0  0  0  0  0  0  0  0  0  0  0
    6.9710    0.9260   30.9050 C   0  0  0  0  0  0  0  0  0  0  0  0
    7.3290    0.1820   29.7080 N   0  0  0  0  0  0  0  0  0  0  0  0
    7.4820   -4.2670   26.6370 C   0  0  0  0  0  0  0  0  0  0  0  0
    6.2210   -5.2350   23.7500 C   0  0  0  0  0  0  0  0  0  0  0  0
    6.7460   -5.5790   22.3480 C   0  0  0  0  0  0  0  0  0  0  0  0
  1  2  1  0
  2  3  2  0
  2  4  1  0
  4  5  1  0
  5  6  1  0
  6  7  1  0
  7  8  1  0
  8  9  2  0
  8 10  1  0
 10 11  1  0
 11 12  1  0
 12 13  1  0
 13 14  1  0
 14 15  1  6
 15 16  2  0
 15 17  1  0
 17 18  1  0
 17 19  1  0
 19 20  2  0
 20 21  1  0
 21 22  2  0
 22 23  1  0
 19 24  1  0
 23 24  2  0
 10 25  1  0
 14 25  1  0
  7 26  1  0
  4 27  1  0
 26 27  1  0
M  END
