piperidine-amides-238-covalent
     RDKit          3D

 20 21  0  0  0  0  0  0  0  0999 V2000
    7.0730   -3.3720   19.3030 C   0  0  0  0  0  0  0  0  0  0  0  0
    6.3340   -4.0710   20.3210 C   0  0  0  0  0  0  0  0  0  0  0  0
    5.3080   -4.7110   19.9480 O   0  0  0  0  0  0  0  0  0  0  0  0
    6.7300   -4.1320   21.6750 N   0  0  0  0  0  0  0  0  0  0  0  0
    7.5730   -3.0210   22.2010 C   0  0  0  0  0  0  0  0  0  0  0  0
    7.5120   -3.2590   23.7660 C   0  0  0  0  0  0  0  0  0  0  0  0
    6.1350   -3.8160   24.0370 C   0  0  0  0  0  0  0  0  0  0  0  0
    5.6610   -3.7810   25.5580 C   0  0  0  0  0  0  0  0  0  0  0  0
    5.2490   -4.8730   25.8750 O   0  0  0  0  0  0  0  0  0  0  0  0
    5.7870   -2.6340   26.0750 N   0  0  0  0  0  0  0  0  0  0  0  0
    5.8370   -1.4380   26.7090 C   0  0  2  0  0  0  0  0  0  0  0  0
    5.8980   -0.0880   26.3220 C   0  0  0  0  0  0  0  0  0  0  0  0
    5.5100    0.8520   27.3120 C   0  0  0  0  0  0  0  0  0  0  0  0
    6.1420    0.1140   28.7010 S   0  0  0  0  0  0  0  0  0  0  0  0
    5.0980   -0.4190   29.5990 O   0  0  0  0  0  0  0  0  0  0  0  0
    7.2090    0.9270   29.3600 O   0  0  0  0  0  0  0  0  0  0  0  0
    6.8700   -1.2280   27.8580 C   0  0  1  0  0  0  0  0  0  0  0  0
    7.0140   -2.3470   28.8710 C   0  0  0  0  0  0  0  0  0  0  0  0
    5.7960   -5.1540   23.4130 C   0  0  0  0  0  0  0  0  0  0  0  0
    6.6830   -5.3910   22.3680 C   0  0  0  0  0  0  0  0  0  0  0  0
  1  2  1  0
  2  3  2  0
  2  4  1  0
  4  5  1  0
  5  6  1  0
  6  7  1  0
  7  8  1  0
  8  9  2  0
  8 10  1  0
 11 10  1  6
 11 12  1  0
 12 13  1  0
 14 13  1  0
 14 15  2  0
 14 16  2  0
 11 17  1  0
 14 17  1  0
 17 18  1  1
  7 19  1  0
  4 20  1  0
 19 20  1  0
M  END
