piperidine-amides-19395-covalent
     RDKit          3D

 22 24  0  0  0  0  0  0  0  0999 V2000
    7.0570   -3.3870   19.3000 C   0  0  0  0  0  0  0  0  0  0  0  0
    6.3930   -4.1600   20.3280 C   0  0  0  0  0  0  0  0  0  0  0  0
    5.3560   -4.8040   19.9770 O   0  0  0  0  0  0  0  0  0  0  0  0
    6.8650   -4.2800   21.6610 N   0  0  0  0  0  0  0  0  0  0  0  0
    6.4510   -5.4440   22.4620 C   0  0  0  0  0  0  0  0  0  0  0  0
    5.4210   -4.7130   23.3960 C   0  0  0  0  0  0  0  0  0  0  0  0
    6.1680   -3.6580   24.1990 C   0  0  0  0  0  0  0  0  0  0  0  0
    5.1560   -2.6400   24.8780 C   0  0  0  0  0  0  0  0  0  0  0  0
    4.9400   -1.7340   24.1050 O   0  0  0  0  0  0  0  0  0  0  0  0
    4.7830   -2.9630   26.0430 N   0  0  0  0  0  0  0  0  0  0  0  0
    4.0810   -3.0110   27.1590 C   0  0  0  0  0  0  0  0  0  0  0  0
    4.7610   -3.5570   28.0720 C   0  0  0  0  0  0  0  0  0  0  0  0
    4.6750   -4.9460   28.2160 C   0  0  0  0  0  0  0  0  0  0  0  0
    3.6560   -5.8060   27.5900 C   0  0  0  0  0  0  0  0  0  0  0  0
    3.8330   -7.2810   27.9580 C   0  0  0  0  0  0  0  0  0  0  0  0
    4.8790   -7.6720   28.8050 C   0  0  0  0  0  0  0  0  0  0  0  0
    5.9400   -7.0830   29.5020 C   0  0  0  0  0  0  0  0  0  0  0  0
    5.6550   -5.6650   29.0590 C   0  0  0  0  0  0  0  0  0  0  0  0
    6.4660   -4.6980   29.5020 F   0  0  0  0  0  0  0  0  0  0  0  0
    5.7580   -3.7220   26.9250 C   0  0  0  0  0  0  0  0  0  0  0  0
    7.1570   -2.7680   23.3950 C   0  0  0  0  0  0  0  0  0  0  0  0
    7.7500   -3.3300   22.3000 C   0  0  0  0  0  0  0  0  0  0  0  0
  1  2  1  0
  2  3  2  0
  2  4  1  0
  4  5  1  0
  5  6  1  0
  6  7  1  0
  7  8  1  0
  8  9  2  0
  8 10  1  0
 10 11  1  0
 11 12  1  0
 12 13  1  0
 13 14  2  0
 14 15  1  0
 15 16  2  0
 16 17  1  0
 13 18  1  0
 17 18  2  0
 18 19  1  0
 10 20  1  0
 12 20  1  0
  7 21  1  0
  4 22  1  0
 21 22  1  0
M  END
