piperidine-amides-18890-covalent
     RDKit          3D

 21 21  0  0  0  0  0  0  0  0999 V2000
    7.1410   -3.3640   19.2220 C   0  0  0  0  0  0  0  0  0  0  0  0
    6.3830   -4.0270   20.2520 C   0  0  0  0  0  0  0  0  0  0  0  0
    5.2930   -4.5850   19.9110 O   0  0  0  0  0  0  0  0  0  0  0  0
    6.8460   -4.1270   21.5780 N   0  0  0  0  0  0  0  0  0  0  0  0
    6.5170   -5.3540   22.3220 C   0  0  0  0  0  0  0  0  0  0  0  0
    5.6010   -4.7220   23.4360 C   0  0  0  0  0  0  0  0  0  0  0  0
    6.4490   -3.6770   24.1470 C   0  0  0  0  0  0  0  0  0  0  0  0
    5.7190   -3.3220   25.5070 C   0  0  0  0  0  0  0  0  0  0  0  0
    4.5040   -3.4600   25.4050 O   0  0  0  0  0  0  0  0  0  0  0  0
    6.5990   -2.9700   26.3580 N   0  0  0  0  0  0  0  0  0  0  0  0
    7.5540   -2.1700   26.9260 C   0  0  0  0  0  0  0  0  0  0  0  0
    6.4890   -3.9650   27.3570 C   0  0  0  0  0  0  0  0  0  0  0  0
    5.7130   -3.7150   28.5110 C   0  0  0  0  0  0  0  0  0  0  0  0
    6.1490   -5.3720   26.8330 C   0  0  0  0  0  0  0  0  0  0  0  0
    7.6300   -4.1980   28.3130 C   0  0  0  0  0  0  0  0  0  0  0  0
    8.9020   -4.5190   28.7620 O   0  0  0  0  0  0  0  0  0  0  0  0
    8.3200   -4.4800   27.3180 O   0  0  0  0  0  0  0  0  0  0  0  0
    8.8440   -5.7450   27.3310 C   0  0  0  0  0  0  0  0  0  0  0  0
    9.3330   -5.9040   26.0500 C   0  0  0  0  0  0  0  0  0  0  0  0
    6.9920   -2.5920   23.3760 C   0  0  0  0  0  0  0  0  0  0  0  0
    7.7520   -3.2380   22.1880 C   0  0  0  0  0  0  0  0  0  0  0  0
  1  2  1  0
  2  3  2  0
  2  4  1  0
  4  5  1  0
  5  6  1  0
  6  7  1  0
  7  8  1  0
  8  9  2  0
  8 10  1  0
 10 11  1  0
 10 12  1  0
 12 13  1  0
 12 14  1  0
 12 15  1  0
 15 16  2  0
 15 17  1  0
 17 18  1  0
 18 19  1  0
  7 20  1  0
  4 21  1  0
 20 21  1  0
M  END
