piperidine-amides-3227-covalent
     RDKit          3D

 22 23  0  0  0  0  0  0  0  0999 V2000
    7.0900   -3.3030   19.2950 C   0  0  0  0  0  0  0  0  0  0  0  0
    6.3770   -4.1140   20.2750 C   0  0  0  0  0  0  0  0  0  0  0  0
    5.3510   -4.7120   19.9460 O   0  0  0  0  0  0  0  0  0  0  0  0
    6.8990   -4.2590   21.6070 N   0  0  0  0  0  0  0  0  0  0  0  0
    7.6810   -3.1820   22.1920 C   0  0  0  0  0  0  0  0  0  0  0  0
    7.3550   -2.9470   23.6510 C   0  0  0  0  0  0  0  0  0  0  0  0
    6.0490   -3.6470   23.9750 C   0  0  0  0  0  0  0  0  0  0  0  0
    5.5400   -3.2950   25.3320 C   0  0  0  0  0  0  0  0  0  0  0  0
    4.3630   -2.9350   25.5100 O   0  0  0  0  0  0  0  0  0  0  0  0
    6.4030   -3.3580   26.4480 N   0  0  0  0  0  0  0  0  0  0  0  0
    5.9870   -4.0860   27.6400 C   0  0  0  0  0  0  0  0  0  0  0  0
    6.0000   -5.5800   27.3590 C   0  0  0  0  0  0  0  0  0  0  0  0
    4.8560   -6.3320   27.4820 C   0  0  0  0  0  0  0  0  0  0  0  0
    4.1670   -6.6960   26.2820 C   0  0  0  0  0  0  0  0  0  0  0  0
    3.0030   -7.4550   26.3090 C   0  0  0  0  0  0  0  0  0  0  0  0
    2.1060   -7.9460   24.8850 Cl  0  0  0  0  0  0  0  0  0  0  0  0
    2.5650   -7.8290   27.6170 C   0  0  0  0  0  0  0  0  0  0  0  0
    3.2040   -7.4950   28.7440 C   0  0  0  0  0  0  0  0  0  0  0  0
    4.3500   -6.7530   28.7220 C   0  0  0  0  0  0  0  0  0  0  0  0
    5.1190   -6.3660   30.2280 Cl  0  0  0  0  0  0  0  0  0  0  0  0
    6.0450   -5.0980   23.6840 C   0  0  0  0  0  0  0  0  0  0  0  0
    6.5560   -5.4140   22.3600 C   0  0  0  0  0  0  0  0  0  0  0  0
  1  2  1  0
  2  3  2  0
  2  4  1  0
  4  5  1  0
  5  6  1  0
  6  7  1  0
  7  8  1  0
  8  9  2  0
  8 10  1  0
 10 11  1  0
 11 12  1  0
 12 13  1  0
 13 14  2  0
 14 15  1  0
 15 16  1  0
 15 17  2  0
 17 18  1  0
 13 19  1  0
 18 19  2  0
 19 20  1  0
  7 21  1  0
  4 22  1  0
 21 22  1  0
M  END
