piperidine-amides-4269-covalent
     RDKit          3D

 26 28  0  0  0  0  0  0  0  0999 V2000
    7.1570   -3.2430   19.1490 C   0  0  0  0  0  0  0  0  0  0  0  0
    6.3880   -3.9680   20.1780 C   0  0  0  0  0  0  0  0  0  0  0  0
    5.2800   -4.4440   19.8400 O   0  0  0  0  0  0  0  0  0  0  0  0
    6.9070   -4.1730   21.4710 N   0  0  0  0  0  0  0  0  0  0  0  0
    7.6740   -3.1300   22.0450 C   0  0  0  0  0  0  0  0  0  0  0  0
    7.3770   -2.9000   23.4420 C   0  0  0  0  0  0  0  0  0  0  0  0
    6.0940   -3.4710   23.9060 C   0  0  0  0  0  0  0  0  0  0  0  0
    5.8830   -3.1160   25.3400 C   0  0  0  0  0  0  0  0  0  0  0  0
    4.7220   -3.0660   25.7950 O   0  0  0  0  0  0  0  0  0  0  0  0
    6.9820   -2.8230   26.1780 N   0  0  0  0  0  0  0  0  0  0  0  0
    7.4640   -3.5570   27.2830 C   0  0  0  0  0  0  0  0  0  0  0  0
    7.8440   -4.9590   27.1890 C   0  0  0  0  0  0  0  0  0  0  0  0
    8.1510   -5.3430   25.7380 C   0  0  0  0  0  0  0  0  0  0  0  0
    8.8390   -5.5720   28.0240 C   0  0  0  0  0  0  0  0  0  0  0  0
    6.5080   -5.6930   27.6080 C   0  0  0  0  0  0  0  0  0  0  0  0
    5.5030   -5.9800   26.5030 C   0  0  0  0  0  0  0  0  0  0  0  0
    4.3050   -6.6800   27.1630 C   0  0  0  0  0  0  0  0  0  0  0  0
    4.1590   -7.0090   28.6050 C   0  0  0  0  0  0  0  0  0  0  0  0
    2.8780   -7.7000   29.0410 C   0  0  0  0  0  0  0  0  0  0  0  0
    2.6970   -8.0500   30.5290 C   0  0  0  0  0  0  0  0  0  0  0  0
    3.8590   -7.6470   31.3680 C   0  0  0  0  0  0  0  0  0  0  0  0
    4.9720   -7.0200   30.8300 C   0  0  0  0  0  0  0  0  0  0  0  0
    5.1360   -6.7010   29.5020 C   0  0  0  0  0  0  0  0  0  0  0  0
    6.3500   -6.0160   28.9510 C   0  0  0  0  0  0  0  0  0  0  0  0
    5.9770   -4.9480   23.6180 C   0  0  0  0  0  0  0  0  0  0  0  0
    6.4740   -5.3050   22.2250 C   0  0  0  0  0  0  0  0  0  0  0  0
  1  2  1  0
  2  3  2  0
  2  4  1  0
  4  5  1  0
  5  6  1  0
  6  7  1  0
  7  8  1  0
  8  9  2  0
  8 10  1  0
 10 11  1  0
 12 11  1  0
 12 13  1  0
 12 14  1  0
 12 15  1  0
 15 16  2  0
 16 17  1  0
 17 18  2  0
 18 19  1  0
 19 20  2  0
 20 21  1  0
 21 22  2  0
 18 23  1  0
 22 23  1  0
 15 24  1  0
 23 24  2  0
  7 25  1  0
  4 26  1  0
 25 26  1  0
M  END
