piperidine-amides-29604-covalent
     RDKit          3D

 26 27  0  0  0  0  0  0  0  0999 V2000
    7.0610   -3.3340   19.3390 C   0  0  0  0  0  0  0  0  0  0  0  0
    6.3780   -4.1800   20.3150 C   0  0  0  0  0  0  0  0  0  0  0  0
    5.3810   -4.8190   19.9760 O   0  0  0  0  0  0  0  0  0  0  0  0
    6.8940   -4.3060   21.6510 N   0  0  0  0  0  0  0  0  0  0  0  0
    7.7170   -3.2670   22.2080 C   0  0  0  0  0  0  0  0  0  0  0  0
    7.1130   -2.7170   23.4670 C   0  0  0  0  0  0  0  0  0  0  0  0
    6.5020   -3.8460   24.2960 C   0  0  0  0  0  0  0  0  0  0  0  0
    5.6340   -3.2440   25.3640 C   0  0  0  0  0  0  0  0  0  0  0  0
    4.4260   -3.0060   25.1660 O   0  0  0  0  0  0  0  0  0  0  0  0
    6.1820   -2.9310   26.6520 N   0  0  0  0  0  0  0  0  0  0  0  0
    6.0000   -3.8860   27.7260 C   0  0  0  0  0  0  0  0  0  0  0  0
    6.1020   -5.2740   27.1510 C   0  0  0  0  0  0  0  0  0  0  0  0
    4.9380   -6.0200   27.2500 O   0  0  0  0  0  0  0  0  0  0  0  0
    7.1950   -5.8170   26.5790 O   0  0  0  0  0  0  0  0  0  0  0  0
    8.4020   -5.1980   26.8020 C   0  0  0  0  0  0  0  0  0  0  0  0
    8.8290   -5.3650   28.1030 C   0  0  0  0  0  0  0  0  0  0  0  0
    9.5990   -5.6530   25.9810 C   0  0  0  0  0  0  0  0  0  0  0  0
    8.2960   -3.7510   26.4320 C   0  0  0  0  0  0  0  0  0  0  0  0
    6.7050   -1.6090   26.9070 C   0  0  2  0  0  0  0  0  0  0  0  0
    7.3070   -1.3360   28.1280 C   0  0  0  0  0  0  0  0  0  0  0  0
    7.0980   -0.0530   28.5300 O   0  0  0  0  0  0  0  0  0  0  0  0
    6.1390    0.4990   27.6840 C   0  0  0  0  0  0  0  0  0  0  0  0
    5.6550   -0.5130   26.7110 C   0  0  1  0  0  0  0  0  0  0  0  0
    5.7030    0.0480   25.4590 O   0  0  0  0  0  0  0  0  0  0  0  0
    5.6980   -4.8530   23.4730 C   0  0  0  0  0  0  0  0  0  0  0  0
    6.5220   -5.4020   22.4930 C   0  0  0  0  0  0  0  0  0  0  0  0
  1  2  1  0
  2  3  2  0
  2  4  1  0
  4  5  1  0
  5  6  1  0
  6  7  1  0
  7  8  1  0
  8  9  2  0
  8 10  1  0
 10 11  1  0
 11 12  1  0
 12 13  2  0
 12 14  1  0
 15 14  1  0
 15 16  1  0
 15 17  1  0
 15 18  1  0
 19 10  1  1
 19 20  1  0
 20 21  1  0
 21 22  1  0
 19 23  1  0
 22 23  1  0
 23 24  1  6
  7 25  1  0
  4 26  1  0
 25 26  1  0
M  END
