piperidine-amides-10907-covalent
     RDKit          3D

 22 23  0  0  0  0  0  0  0  0999 V2000
    7.1230   -3.2540   19.1700 C   0  0  0  0  0  0  0  0  0  0  0  0
    6.3420   -3.9740   20.1780 C   0  0  0  0  0  0  0  0  0  0  0  0
    5.2630   -4.4950   19.8590 O   0  0  0  0  0  0  0  0  0  0  0  0
    6.8160   -4.1380   21.4830 N   0  0  0  0  0  0  0  0  0  0  0  0
    6.5940   -5.3470   22.2350 C   0  0  0  0  0  0  0  0  0  0  0  0
    5.8880   -4.9030   23.4860 C   0  0  0  0  0  0  0  0  0  0  0  0
    6.6060   -3.7750   24.1620 C   0  0  0  0  0  0  0  0  0  0  0  0
    5.8810   -3.2990   25.3590 C   0  0  0  0  0  0  0  0  0  0  0  0
    5.0620   -2.3320   25.2990 O   0  0  0  0  0  0  0  0  0  0  0  0
    6.0660   -3.9380   26.5990 N   0  0  0  0  0  0  0  0  0  0  0  0
    5.9660   -3.2470   27.8940 C   0  0  0  0  0  0  0  0  0  0  0  0
    5.2630   -4.2080   28.7770 C   0  0  2  0  0  0  0  0  0  0  0  0
    6.1210   -5.3420   29.1670 C   0  0  0  0  0  0  0  0  0  0  0  0
    5.6740   -6.4260   28.2670 C   0  0  0  0  0  0  0  0  0  0  0  0
    4.4650   -5.8890   27.7730 N   0  0  0  0  0  0  0  0  0  0  0  0
    3.6220   -7.0450   27.4710 C   0  0  1  0  0  0  0  0  0  0  0  0
    2.3480   -6.9430   28.2210 C   0  0  0  0  0  0  0  0  0  0  0  0
    3.2150   -7.0180   25.9840 C   0  0  0  0  0  0  0  0  0  0  0  0
    2.7530   -8.1820   25.3560 C   0  0  0  0  0  0  0  0  0  0  0  0
    4.0350   -4.7010   28.2980 C   0  0  0  0  0  0  0  0  0  0  0  0
    6.9120   -2.5990   23.2840 C   0  0  0  0  0  0  0  0  0  0  0  0
    7.6550   -3.1230   22.0890 C   0  0  0  0  0  0  0  0  0  0  0  0
  1  2  1  0
  2  3  2  0
  2  4  1  0
  4  5  1  0
  5  6  1  0
  6  7  1  0
  7  8  1  0
  8  9  2  0
  8 10  1  0
 10 11  1  0
 12 11  1  6
 12 13  1  0
 13 14  1  0
 14 15  1  0
 15 16  1  0
 16 17  1  1
 16 18  1  0
 18 19  1  0
 12 20  1  0
 15 20  1  0
  7 21  1  0
  4 22  1  0
 21 22  1  0
M  END
