piperidine-amides-723-covalent
     RDKit          3D

 25 26  0  0  0  0  0  0  0  0999 V2000
    7.2480   -3.2880   19.2930 C   0  0  0  0  0  0  0  0  0  0  0  0
    6.4380   -3.9910   20.2510 C   0  0  0  0  0  0  0  0  0  0  0  0
    5.3330   -4.5080   19.8780 O   0  0  0  0  0  0  0  0  0  0  0  0
    6.8800   -4.1590   21.5710 N   0  0  0  0  0  0  0  0  0  0  0  0
    6.5160   -5.3770   22.3010 C   0  0  0  0  0  0  0  0  0  0  0  0
    5.5590   -4.7090   23.3510 C   0  0  0  0  0  0  0  0  0  0  0  0
    6.3970   -3.6700   24.0690 C   0  0  0  0  0  0  0  0  0  0  0  0
    5.5690   -2.9360   25.2030 C   0  0  0  0  0  0  0  0  0  0  0  0
    4.8500   -2.0820   24.7160 O   0  0  0  0  0  0  0  0  0  0  0  0
    5.8520   -3.4280   26.3320 N   0  0  0  0  0  0  0  0  0  0  0  0
    6.0250   -3.9480   27.5650 C   0  0  0  0  0  0  0  0  0  0  0  0
    5.6100   -4.9350   28.4010 C   0  0  1  0  0  0  0  0  0  0  0  0
    4.2300   -5.3190   28.3000 C   0  0  0  0  0  0  0  0  0  0  0  0
    3.8160   -6.2340   27.1960 C   0  0  0  0  0  0  0  0  0  0  0  0
    2.8560   -7.2390   27.6780 C   0  0  0  0  0  0  0  0  0  0  0  0
    2.5460   -8.0370   26.5150 C   0  0  0  0  0  0  0  0  0  0  0  0
    2.9060   -8.1120   25.0750 C   0  0  0  0  0  0  0  0  0  0  0  0
    3.9340   -6.9270   24.8720 C   0  0  0  0  0  0  0  0  0  0  0  0
    4.4080   -5.9510   25.9680 C   0  0  0  0  0  0  0  0  0  0  0  0
    6.0440   -6.3350   28.1960 C   0  0  0  0  0  0  0  0  0  0  0  0
    7.1070   -6.5920   28.9930 F   0  0  0  0  0  0  0  0  0  0  0  0
    5.0440   -7.2260   28.5700 F   0  0  0  0  0  0  0  0  0  0  0  0
    6.2990   -6.5110   26.8850 F   0  0  0  0  0  0  0  0  0  0  0  0
    7.1180   -2.6480   23.2070 C   0  0  0  0  0  0  0  0  0  0  0  0
    7.7720   -3.1980   22.1680 C   0  0  0  0  0  0  0  0  0  0  0  0
  1  2  1  0
  2  3  2  0
  2  4  1  0
  4  5  1  0
  5  6  1  0
  6  7  1  0
  7  8  1  0
  8  9  2  0
  8 10  1  0
 10 11  1  0
 12 11  1  6
 12 13  1  0
 13 14  1  0
 14 15  2  0
 15 16  1  0
 16 17  2  0
 17 18  1  0
 14 19  1  0
 18 19  2  0
 12 20  1  0
 20 21  1  0
 20 22  1  0
 20 23  1  0
  7 24  1  0
  4 25  1  0
 24 25  1  0
M  END
