piperidine-amides-24860-covalent
     RDKit          3D

 24 25  0  0  0  0  0  0  0  0999 V2000
    6.9940   -3.3220   19.3600 C   0  0  0  0  0  0  0  0  0  0  0  0
    6.3130   -4.1820   20.3420 C   0  0  0  0  0  0  0  0  0  0  0  0
    5.3620   -4.9060   19.9860 O   0  0  0  0  0  0  0  0  0  0  0  0
    6.7360   -4.2280   21.6780 N   0  0  0  0  0  0  0  0  0  0  0  0
    6.5660   -5.4620   22.4140 C   0  0  0  0  0  0  0  0  0  0  0  0
    6.3120   -5.1100   23.8950 C   0  0  0  0  0  0  0  0  0  0  0  0
    5.8690   -3.6570   23.9580 C   0  0  0  0  0  0  0  0  0  0  0  0
    5.3420   -3.2880   25.3090 C   0  0  0  0  0  0  0  0  0  0  0  0
    4.1260   -3.5020   25.4830 O   0  0  0  0  0  0  0  0  0  0  0  0
    6.0980   -2.7110   26.3800 N   0  0  0  0  0  0  0  0  0  0  0  0
    5.3550   -2.4210   27.5930 C   0  0  0  0  0  0  0  0  0  0  0  0
    5.6210   -3.4580   28.6820 C   0  0  0  0  0  0  0  0  0  0  0  0
    6.5670   -4.3990   28.4630 C   0  0  0  0  0  0  0  0  0  0  0  0
    7.2600   -4.2650   27.3070 C   0  0  2  0  0  0  0  0  0  0  0  0
    8.3340   -5.0310   27.1780 C   0  0  0  0  0  0  0  0  0  0  0  0
    9.0370   -5.3760   28.2360 C   0  0  0  0  0  0  0  0  0  0  0  0
    7.5900   -6.2620   27.0090 C   0  0  0  0  0  0  0  0  0  0  0  0
    9.1440   -4.8920   25.9390 C   0  0  0  0  0  0  0  0  0  0  0  0
    9.6580   -5.9780   25.6190 O   0  0  0  0  0  0  0  0  0  0  0  0
    9.2200   -3.7340   25.4130 O   0  0  0  0  0  0  0  0  0  0  0  0
    9.1940   -3.5330   24.0180 C   0  0  0  0  0  0  0  0  0  0  0  0
    7.4050   -3.0170   26.8360 C   0  0  0  0  0  0  0  0  0  0  0  0
    6.9730   -2.7630   23.5030 C   0  0  0  0  0  0  0  0  0  0  0  0
    7.3690   -3.0740   22.2290 C   0  0  0  0  0  0  0  0  0  0  0  0
  1  2  1  0
  2  3  2  0
  2  4  1  0
  4  5  1  0
  5  6  1  0
  6  7  1  0
  7  8  1  0
  8  9  2  0
  8 10  1  0
 10 11  1  0
 11 12  1  0
 12 13  1  0
 13 14  1  0
 14 15  1  1
 15 16  1  0
 15 17  1  0
 15 18  1  0
 18 19  2  0
 18 20  1  0
 20 21  1  0
 10 22  1  0
 14 22  1  0
  7 23  1  0
  4 24  1  0
 23 24  1  0
M  END
