piperidine-amides-29486-covalent
     RDKit          3D

 27 30  0  0  0  0  0  0  0  0999 V2000
    7.1140   -3.3750   19.3080 C   0  0  0  0  0  0  0  0  0  0  0  0
    6.3840   -4.1750   20.2780 C   0  0  0  0  0  0  0  0  0  0  0  0
    5.3320   -4.7210   19.9510 O   0  0  0  0  0  0  0  0  0  0  0  0
    6.9340   -4.3830   21.5880 N   0  0  0  0  0  0  0  0  0  0  0  0
    7.7280   -3.3640   22.2170 C   0  0  0  0  0  0  0  0  0  0  0  0
    7.0130   -2.8210   23.4140 C   0  0  0  0  0  0  0  0  0  0  0  0
    6.4270   -3.9700   24.2210 C   0  0  0  0  0  0  0  0  0  0  0  0
    5.4190   -3.4080   25.1580 C   0  0  0  0  0  0  0  0  0  0  0  0
    4.5490   -2.6100   24.7780 O   0  0  0  0  0  0  0  0  0  0  0  0
    5.4310   -3.7730   26.5140 N   0  0  0  0  0  0  0  0  0  0  0  0
    6.3830   -3.1540   27.3230 C   0  0  0  0  0  0  0  0  0  0  0  0
    6.6080   -4.1840   28.4070 C   0  0  0  0  0  0  0  0  0  0  0  0
    5.4690   -4.5490   29.0400 C   0  0  0  0  0  0  0  0  0  0  0  0
    4.5210   -4.9580   28.1270 C   0  0  0  0  0  0  0  0  0  0  0  0
    4.2140   -3.9650   27.2280 C   0  0  0  0  0  0  0  0  0  0  0  0
    5.4190   -5.6500   30.0590 C   0  0  0  0  0  0  0  0  0  0  0  0
    6.3970   -6.4360   30.2500 O   0  0  0  0  0  0  0  0  0  0  0  0
    4.2500   -5.7120   30.7120 N   0  0  0  0  0  0  0  0  0  0  0  0
    3.2840   -4.6430   30.7460 C   0  0  0  0  0  0  0  0  0  0  0  0
    3.9840   -3.4650   30.5640 C   0  0  0  0  0  0  0  0  0  0  0  0
    3.6310   -2.2890   31.2270 C   0  0  0  0  0  0  0  0  0  0  0  0
    4.3510   -1.0300   31.0730 C   0  0  0  0  0  0  0  0  0  0  0  0
    5.4410   -0.9380   30.2510 C   0  0  0  0  0  0  0  0  0  0  0  0
    5.8190   -2.0880   29.5780 C   0  0  0  0  0  0  0  0  0  0  0  0
    5.0770   -3.3930   29.7280 C   0  0  0  0  0  0  0  0  0  0  0  0
    5.6910   -5.0360   23.4640 C   0  0  0  0  0  0  0  0  0  0  0  0
    6.5750   -5.5320   22.3450 C   0  0  0  0  0  0  0  0  0  0  0  0
  1  2  1  0
  2  3  2  0
  2  4  1  0
  4  5  1  0
  5  6  1  0
  6  7  1  0
  7  8  1  0
  8  9  2  0
  8 10  1  0
 10 11  1  0
 11 12  1  0
 12 13  1  0
 13 14  1  0
 10 15  1  0
 14 15  1  0
 13 16  1  0
 16 17  2  0
 16 18  1  0
 18 19  1  0
 19 20  1  0
 20 21  2  0
 21 22  1  0
 22 23  2  0
 23 24  1  0
 13 25  1  0
 20 25  1  0
 24 25  2  0
  7 26  1  0
  4 27  1  0
 26 27  1  0
M  END
