piperidine-amides-7280-covalent
     RDKit          3D

 20 21  0  0  0  0  0  0  0  0999 V2000
    7.0610   -3.3430   19.2960 C   0  0  0  0  0  0  0  0  0  0  0  0
    6.3980   -4.1750   20.3040 C   0  0  0  0  0  0  0  0  0  0  0  0
    5.3370   -4.7480   19.9510 O   0  0  0  0  0  0  0  0  0  0  0  0
    6.9720   -4.3520   21.5650 N   0  0  0  0  0  0  0  0  0  0  0  0
    7.7330   -3.3060   22.2060 C   0  0  0  0  0  0  0  0  0  0  0  0
    6.9650   -2.8320   23.4010 C   0  0  0  0  0  0  0  0  0  0  0  0
    6.4770   -3.9790   24.2460 C   0  0  0  0  0  0  0  0  0  0  0  0
    5.6370   -3.4860   25.3690 C   0  0  0  0  0  0  0  0  0  0  0  0
    4.3970   -3.5110   25.2190 O   0  0  0  0  0  0  0  0  0  0  0  0
    6.1460   -2.9790   26.5860 N   0  0  0  0  0  0  0  0  0  0  0  0
    6.0800   -1.5620   26.8660 C   0  0  2  0  0  0  0  0  0  0  0  0
    6.4670   -0.8600   25.5720 C   0  0  0  0  0  0  0  0  0  0  0  0
    6.2870    0.5040   25.4800 C   0  0  0  0  0  0  0  0  0  0  0  0
    4.9990    0.9580   25.0910 O   0  0  0  0  0  0  0  0  0  0  0  0
    7.0710   -1.3340   28.0150 C   0  0  0  0  0  0  0  0  0  0  0  0
    6.5140   -0.4610   28.8870 C   0  0  0  0  0  0  0  0  0  0  0  0
    5.2150   -0.2770   28.5240 O   0  0  0  0  0  0  0  0  0  0  0  0
    4.8730   -0.9950   27.3650 C   0  0  0  0  0  0  0  0  0  0  0  0
    5.6110   -4.9620   23.4690 C   0  0  0  0  0  0  0  0  0  0  0  0
    6.4580   -5.4810   22.3370 C   0  0  0  0  0  0  0  0  0  0  0  0
  1  2  1  0
  2  3  2  0
  2  4  1  0
  4  5  1  0
  5  6  1  0
  6  7  1  0
  7  8  1  0
  8  9  2  0
  8 10  1  0
 11 10  1  0
 11 12  1  6
 12 13  1  0
 13 14  1  0
 11 15  1  0
 15 16  1  0
 16 17  1  0
 11 18  1  0
 17 18  1  0
  7 19  1  0
  4 20  1  0
 19 20  1  0
M  END
