piperidine-amides-27702-covalent
     RDKit          3D

 26 28  0  0  0  0  0  0  0  0999 V2000
    7.2040   -4.0620   19.6740 C   0  0  0  0  0  0  0  0  0  0  0  0
    6.0200   -3.9440   20.4020 C   0  0  0  0  0  0  0  0  0  0  0  0
    5.0060   -4.1430   19.7150 O   0  0  0  0  0  0  0  0  0  0  0  0
    6.1350   -3.7430   21.7570 N   0  0  0  0  0  0  0  0  0  0  0  0
    5.9160   -4.8950   22.5510 C   0  0  0  0  0  0  0  0  0  0  0  0
    5.7740   -4.6120   23.9760 C   0  0  0  0  0  0  0  0  0  0  0  0
    6.5060   -3.4210   24.5120 C   0  0  0  0  0  0  0  0  0  0  0  0
    5.6850   -2.7820   25.5860 C   0  0  0  0  0  0  0  0  0  0  0  0
    4.5390   -2.4040   25.2880 O   0  0  0  0  0  0  0  0  0  0  0  0
    6.1690   -2.6420   26.9100 N   0  0  0  0  0  0  0  0  0  0  0  0
    5.3830   -2.1280   28.0240 C   0  0  0  0  0  0  0  0  0  0  0  0
    5.2330   -3.4250   28.7390 C   0  0  0  0  0  0  0  0  0  0  0  0
    5.3120   -4.4960   27.7530 C   0  0  2  0  0  0  0  0  0  0  0  0
    5.5820   -5.7650   27.9470 C   0  0  0  0  0  0  0  0  0  0  0  0
    6.7140   -5.7440   27.2690 C   0  0  0  0  0  0  0  0  0  0  0  0
    6.7820   -5.8000   25.9250 C   0  0  0  0  0  0  0  0  0  0  0  0
    8.0080   -5.7370   25.3130 C   0  0  0  0  0  0  0  0  0  0  0  0
    9.1120   -5.6070   26.0730 C   0  0  0  0  0  0  0  0  0  0  0  0
   10.3850   -5.5370   25.6580 F   0  0  0  0  0  0  0  0  0  0  0  0
    8.9670   -5.5260   27.3940 C   0  0  0  0  0  0  0  0  0  0  0  0
   10.0570   -5.3170   28.2060 C   0  0  0  0  0  0  0  0  0  0  0  0
    9.5750   -4.4340   28.7220 N   0  0  0  0  0  0  0  0  0  0  0  0
    7.8010   -5.6050   27.9950 C   0  0  0  0  0  0  0  0  0  0  0  0
    6.5490   -3.9170   27.3130 C   0  0  0  0  0  0  0  0  0  0  0  0
    6.9430   -2.4080   23.5410 C   0  0  0  0  0  0  0  0  0  0  0  0
    7.2870   -2.9870   22.1980 C   0  0  0  0  0  0  0  0  0  0  0  0
  1  2  1  0
  2  3  2  0
  2  4  1  0
  4  5  1  0
  5  6  1  0
  6  7  1  0
  7  8  1  0
  8  9  2  0
  8 10  1  0
 10 11  1  0
 11 12  1  0
 12 13  1  0
 13 14  1  1
 14 15  1  0
 15 16  2  0
 16 17  1  0
 17 18  2  0
 18 19  1  0
 18 20  1  0
 20 21  1  0
 21 22  3  0
 15 23  1  0
 20 23  2  0
 10 24  1  0
 13 24  1  0
  7 25  1  0
  4 26  1  0
 25 26  1  0
M  END
