piperidine-amides-8157-covalent
     RDKit          3D

 25 27  0  0  0  0  0  0  0  0999 V2000
    7.0310   -3.3380   19.3470 C   0  0  0  0  0  0  0  0  0  0  0  0
    6.3630   -4.1730   20.3470 C   0  0  0  0  0  0  0  0  0  0  0  0
    5.3780   -4.8350   19.9800 O   0  0  0  0  0  0  0  0  0  0  0  0
    6.8550   -4.2520   21.6810 N   0  0  0  0  0  0  0  0  0  0  0  0
    6.6040   -5.4500   22.4280 C   0  0  0  0  0  0  0  0  0  0  0  0
    6.1650   -5.1150   23.8320 C   0  0  0  0  0  0  0  0  0  0  0  0
    6.1920   -3.6060   23.9860 C   0  0  0  0  0  0  0  0  0  0  0  0
    5.6900   -3.1990   25.3430 C   0  0  0  0  0  0  0  0  0  0  0  0
    4.5130   -3.4620   25.5730 O   0  0  0  0  0  0  0  0  0  0  0  0
    6.5550   -2.5530   26.2300 N   0  0  0  0  0  0  0  0  0  0  0  0
    6.0730   -1.7330   27.3040 C   0  0  1  0  0  0  0  0  0  0  0  0
    6.9660   -1.5760   28.3690 C   0  0  0  0  0  0  0  0  0  0  0  0
    6.8900   -0.4810   29.1810 C   0  0  0  0  0  0  0  0  0  0  0  0
    5.9430    0.5070   29.0280 C   0  0  2  0  0  0  0  0  0  0  0  0
    5.0410    0.0450   30.1330 C   0  0  0  0  0  0  0  0  0  0  0  0
    4.5960    1.1000   31.1780 C   0  0  0  0  0  0  0  0  0  0  0  0
    3.7120    0.6570   32.2850 C   0  0  0  0  0  0  0  0  0  0  0  0
    3.3800   -0.8020   32.2040 C   0  0  0  0  0  0  0  0  0  0  0  0
    2.4680   -1.4030   33.3000 C   0  0  0  0  0  0  0  0  0  0  0  0
    3.8130   -1.6780   31.2420 C   0  0  0  0  0  0  0  0  0  0  0  0
    4.6310   -1.2700   30.2180 C   0  0  0  0  0  0  0  0  0  0  0  0
    5.4310    0.7450   27.7730 C   0  0  0  0  0  0  0  0  0  0  0  0
    5.7070   -0.3770   26.7980 C   0  0  0  0  0  0  0  0  0  0  0  0
    7.6030   -3.1420   23.6960 C   0  0  0  0  0  0  0  0  0  0  0  0
    7.7110   -3.1780   22.1680 C   0  0  0  0  0  0  0  0  0  0  0  0
  1  2  1  0
  2  3  2  0
  2  4  1  0
  4  5  1  0
  5  6  1  0
  6  7  1  0
  7  8  1  0
  8  9  2  0
  8 10  1  0
 11 10  1  6
 11 12  1  0
 12 13  1  0
 13 14  1  0
 14 15  1  1
 15 16  2  0
 16 17  1  0
 17 18  2  0
 18 19  1  0
 18 20  1  0
 15 21  1  0
 20 21  2  0
 14 22  1  0
 11 23  1  0
 22 23  1  0
  7 24  1  0
  4 25  1  0
 24 25  1  0
M  END
