piperidine-amides-35051-covalent
     RDKit          3D

 33 36  0  0  0  0  0  0  0  0999 V2000
    7.0030   -3.3640   19.3830 C   0  0  0  0  0  0  0  0  0  0  0  0
    6.3740   -4.2530   20.3960 C   0  0  0  0  0  0  0  0  0  0  0  0
    5.4190   -4.9240   20.0020 O   0  0  0  0  0  0  0  0  0  0  0  0
    6.8740   -4.3380   21.7110 N   0  0  0  0  0  0  0  0  0  0  0  0
    6.6940   -5.5300   22.5150 C   0  0  0  0  0  0  0  0  0  0  0  0
    6.1630   -5.1840   23.8910 C   0  0  0  0  0  0  0  0  0  0  0  0
    6.0970   -3.6640   24.0510 C   0  0  0  0  0  0  0  0  0  0  0  0
    5.5980   -3.2400   25.3940 C   0  0  0  0  0  0  0  0  0  0  0  0
    5.0030   -2.1650   25.4620 O   0  0  0  0  0  0  0  0  0  0  0  0
    5.7210   -3.9850   26.5920 N   0  0  0  0  0  0  0  0  0  0  0  0
    6.3550   -3.3880   27.7070 C   0  0  0  0  0  0  0  0  0  0  0  0
    6.6800   -4.5910   28.5710 C   0  0  0  0  0  0  0  0  0  0  0  0
    5.4700   -4.7870   29.3420 N   0  0  0  0  0  0  0  0  0  0  0  0
    5.3470   -6.2400   29.5050 C   0  0  0  0  0  0  0  0  0  0  0  0
    4.5230   -6.4690   30.5620 C   0  0  0  0  0  0  0  0  0  0  0  0
    3.2770   -6.9480   30.2000 O   0  0  0  0  0  0  0  0  0  0  0  0
    2.5560   -7.4520   31.2620 C   0  0  0  0  0  0  0  0  0  0  0  0
    1.6070   -6.4060   31.8020 C   0  0  0  0  0  0  0  0  0  0  0  0
    1.7350   -6.4350   33.3020 C   0  0  0  0  0  0  0  0  0  0  0  0
    0.8780   -5.4690   34.1080 C   0  0  0  0  0  0  0  0  0  0  0  0
   -0.0320   -4.5600   33.3390 C   0  0  0  0  0  0  0  0  0  0  0  0
   -0.1110   -4.5830   31.8580 C   0  0  0  0  0  0  0  0  0  0  0  0
    0.7080   -5.5110   31.0090 C   0  0  0  0  0  0  0  0  0  0  0  0
    1.7900   -8.5930   31.1120 C   0  0  0  0  0  0  0  0  0  0  0  0
    1.4210   -9.4640   32.2950 C   0  0  0  0  0  0  0  0  0  0  0  0
    0.6630  -10.6070   32.1880 C   0  0  0  0  0  0  0  0  0  0  0  0
    0.1440  -11.0670   30.8580 C   0  0  0  0  0  0  0  0  0  0  0  0
    0.5080  -10.1970   29.6580 C   0  0  0  0  0  0  0  0  0  0  0  0
    1.3540   -8.9420   29.8610 C   0  0  0  0  0  0  0  0  0  0  0  0
    4.3520   -4.3700   28.5300 C   0  0  0  0  0  0  0  0  0  0  0  0
    4.5680   -4.7280   27.0320 C   0  0  0  0  0  0  0  0  0  0  0  0
    7.4600   -3.1200   23.7410 C   0  0  0  0  0  0  0  0  0  0  0  0
    7.7000   -3.2530   22.2480 C   0  0  0  0  0  0  0  0  0  0  0  0
  1  2  1  0
  2  3  2  0
  2  4  1  0
  4  5  1  0
  5  6  1  0
  6  7  1  0
  7  8  1  0
  8  9  2  0
  8 10  1  0
 10 11  1  0
 11 12  1  0
 12 13  1  0
 13 14  1  0
 14 15  1  0
 15 16  1  0
 16 17  1  0
 17 18  1  0
 18 19  2  0
 19 20  1  0
 20 21  2  0
 21 22  1  0
 18 23  1  0
 22 23  2  0
 17 24  1  0
 24 25  2  0
 25 26  1  0
 26 27  2  0
 27 28  1  0
 24 29  1  0
 28 29  2  0
 13 30  1  0
 10 31  1  0
 30 31  1  0
  7 32  1  0
  4 33  1  0
 32 33  1  0
M  END
