piperidine-amides-31422-covalent
     RDKit          3D

 28 30  0  0  0  0  0  0  0  0999 V2000
    7.0170   -3.3530   19.3270 C   0  0  0  0  0  0  0  0  0  0  0  0
    6.3210   -4.1080   20.3520 C   0  0  0  0  0  0  0  0  0  0  0  0
    5.3140   -4.7710   19.9630 O   0  0  0  0  0  0  0  0  0  0  0  0
    6.7090   -4.2010   21.7200 N   0  0  0  0  0  0  0  0  0  0  0  0
    7.6040   -3.1280   22.2640 C   0  0  0  0  0  0  0  0  0  0  0  0
    7.1480   -2.9230   23.7840 C   0  0  0  0  0  0  0  0  0  0  0  0
    5.9930   -3.8660   24.0060 C   0  0  0  0  0  0  0  0  0  0  0  0
    5.0370   -3.6140   25.2810 C   0  0  0  0  0  0  0  0  0  0  0  0
    3.8860   -3.8290   24.9450 O   0  0  0  0  0  0  0  0  0  0  0  0
    5.6690   -3.2420   26.3250 N   0  0  0  0  0  0  0  0  0  0  0  0
    6.2800   -2.3790   27.1850 C   0  0  1  0  0  0  0  0  0  0  0  0
    7.0260   -1.2760   26.9840 C   0  0  0  0  0  0  0  0  0  0  0  0
    5.2450   -1.8010   28.1260 C   0  0  0  0  0  0  0  0  0  0  0  0
    5.1730   -2.0480   29.4670 N   0  0  0  0  0  0  0  0  0  0  0  0
    4.1370   -1.3610   29.9720 N   0  0  0  0  0  0  0  0  0  0  0  0
    3.6540   -0.7440   28.9070 C   0  0  0  0  0  0  0  0  0  0  0  0
    2.4630    0.1580   29.0190 C   0  0  0  0  0  0  0  0  0  0  0  0
    2.1750    0.6840   27.7270 C   0  0  0  0  0  0  0  0  0  0  0  0
    2.7270    0.5640   26.3820 C   0  0  0  0  0  0  0  0  0  0  0  0
    3.9060   -0.4210   26.6500 C   0  0  0  0  0  0  0  0  0  0  0  0
    4.2460   -0.9530   27.8080 N   0  0  0  0  0  0  0  0  0  0  0  0
    5.8820   -4.3470   27.2680 C   0  0  1  0  0  0  0  0  0  0  0  0
    6.5330   -4.0460   28.4490 C   0  0  0  0  0  0  0  0  0  0  0  0
    4.8240   -5.3230   27.4980 C   0  0  0  0  0  0  0  0  0  0  0  0
    4.4100   -6.0020   26.3940 C   0  0  0  0  0  0  0  0  0  0  0  0
    5.1720   -6.1620   28.5350 C   0  0  0  0  0  0  0  0  0  0  0  0
    6.2330   -5.3000   23.7540 C   0  0  0  0  0  0  0  0  0  0  0  0
    6.6520   -5.5110   22.3350 C   0  0  0  0  0  0  0  0  0  0  0  0
  1  2  1  0
  2  3  2  0
  2  4  1  0
  4  5  1  0
  5  6  1  0
  6  7  1  0
  7  8  1  0
  8  9  2  0
  8 10  1  0
 10 11  1  0
 11 12  1  6
 11 13  1  0
 13 14  2  0
 14 15  1  0
 15 16  2  0
 16 17  1  0
 17 18  2  0
 18 19  1  0
 19 20  2  0
 13 21  1  0
 16 21  1  0
 20 21  1  0
 10 22  1  0
 22 23  1  1
 22 24  1  0
 24 25  1  0
 24 26  1  0
  7 27  1  0
  4 28  1  0
 27 28  1  0
M  END
