piperidine-amides-33268-covalent
     RDKit          3D

 29 31  0  0  0  0  0  0  0  0999 V2000
    7.0830   -3.3490   19.2610 C   0  0  0  0  0  0  0  0  0  0  0  0
    6.3440   -4.0920   20.2860 C   0  0  0  0  0  0  0  0  0  0  0  0
    5.2960   -4.6760   19.9270 O   0  0  0  0  0  0  0  0  0  0  0  0
    6.8410   -4.1810   21.6050 N   0  0  0  0  0  0  0  0  0  0  0  0
    6.5080   -5.3110   22.3980 C   0  0  0  0  0  0  0  0  0  0  0  0
    6.1970   -5.0080   23.7960 C   0  0  0  0  0  0  0  0  0  0  0  0
    6.5890   -3.6610   24.2840 C   0  0  0  0  0  0  0  0  0  0  0  0
    5.7020   -3.2210   25.4120 C   0  0  0  0  0  0  0  0  0  0  0  0
    4.5020   -2.9850   25.1760 O   0  0  0  0  0  0  0  0  0  0  0  0
    6.1820   -3.0760   26.7390 N   0  0  0  0  0  0  0  0  0  0  0  0
    6.3610   -4.0880   27.7210 C   0  0  0  0  0  0  0  0  0  0  0  0
    6.5010   -1.7230   27.1730 C   0  0  0  0  0  0  0  0  0  0  0  0
    5.6060   -0.5490   26.7140 C   0  0  0  0  0  0  0  0  0  0  0  0
    5.5830    0.5560   27.5560 C   0  0  0  0  0  0  0  0  0  0  0  0
    5.6930    0.2920   28.9360 N   0  0  0  0  0  0  0  0  0  0  0  0
    4.5880   -0.2260   29.6660 C   0  0  0  0  0  0  0  0  0  0  0  0
    4.8670   -0.2700   31.1420 C   0  0  0  0  0  0  0  0  0  0  0  0
    4.2780   -1.3170   31.8610 O   0  0  0  0  0  0  0  0  0  0  0  0
    5.6600    0.7040   31.6290 N   0  0  0  0  0  0  0  0  0  0  0  0
    6.0110    0.2950   32.9930 C   0  0  0  0  0  0  0  0  0  0  0  0
    5.6700    1.4600   33.9050 C   0  0  0  0  0  0  0  0  0  0  0  0
    5.7420    2.7870   33.6120 N   0  0  0  0  0  0  0  0  0  0  0  0
    6.1300    3.7180   34.4920 C   0  0  0  0  0  0  0  0  0  0  0  0
    5.4020    3.0940   32.3580 C   0  0  0  0  0  0  0  0  0  0  0  0
    5.1330    2.0440   31.3460 C   0  0  0  0  0  0  0  0  0  0  0  0
    6.7800   -0.5540   29.2530 C   0  0  0  0  0  0  0  0  0  0  0  0
    6.7610   -1.7300   28.5480 C   0  0  0  0  0  0  0  0  0  0  0  0
    6.6120   -2.6470   23.2070 C   0  0  0  0  0  0  0  0  0  0  0  0
    7.4910   -3.0590   22.2250 C   0  0  0  0  0  0  0  0  0  0  0  0
  1  2  1  0
  2  3  2  0
  2  4  1  0
  4  5  1  0
  5  6  1  0
  6  7  1  0
  7  8  1  0
  8  9  2  0
  8 10  1  0
 10 11  1  0
 10 12  1  0
 12 13  1  0
 13 14  1  0
 14 15  1  0
 15 16  1  0
 16 17  1  0
 17 18  2  0
 17 19  1  0
 19 20  1  0
 20 21  1  0
 21 22  1  0
 22 23  1  0
 22 24  1  0
 19 25  1  0
 24 25  1  0
 15 26  1  0
 12 27  1  0
 26 27  1  0
  7 28  1  0
  4 29  1  0
 28 29  1  0
M  END
