piperidine-amides-33396-covalent
     RDKit          3D

 25 26  0  0  0  0  0  0  0  0999 V2000
    7.1200   -3.3590   19.2450 C   0  0  0  0  0  0  0  0  0  0  0  0
    6.4010   -4.1260   20.2680 C   0  0  0  0  0  0  0  0  0  0  0  0
    5.3160   -4.6540   19.9280 O   0  0  0  0  0  0  0  0  0  0  0  0
    6.9660   -4.3060   21.5550 N   0  0  0  0  0  0  0  0  0  0  0  0
    6.4640   -5.3500   22.3740 C   0  0  0  0  0  0  0  0  0  0  0  0
    5.9490   -4.9070   23.6750 C   0  0  0  0  0  0  0  0  0  0  0  0
    6.5620   -3.6840   24.2550 C   0  0  0  0  0  0  0  0  0  0  0  0
    5.7230   -3.1580   25.3760 C   0  0  0  0  0  0  0  0  0  0  0  0
    4.5630   -2.7760   25.1300 O   0  0  0  0  0  0  0  0  0  0  0  0
    6.1930   -3.0900   26.7020 N   0  0  0  0  0  0  0  0  0  0  0  0
    6.2410   -4.2050   27.5830 C   0  0  0  0  0  0  0  0  0  0  0  0
    5.1350   -4.6140   28.3940 C   0  0  0  0  0  0  0  0  0  0  0  0
    5.3410   -6.1090   28.6880 C   0  0  0  0  0  0  0  0  0  0  0  0
    4.3010   -6.9020   28.2540 C   0  0  0  0  0  0  0  0  0  0  0  0
    3.4540   -6.4920   29.4570 C   0  0  0  0  0  0  0  0  0  0  0  0
    3.7340   -7.8360   30.0350 C   0  0  0  0  0  0  0  0  0  0  0  0
    6.3030   -1.7820   27.3100 C   0  0  0  0  0  0  0  0  0  0  0  0
    5.7860   -0.6610   26.4500 C   0  0  0  0  0  0  0  0  0  0  0  0
    5.8750    0.7030   27.0650 C   0  0  0  0  0  0  0  0  0  0  0  0
    6.4550    0.8830   28.4570 C   0  0  0  0  0  0  0  0  0  0  0  0
    6.9290   -0.3360   29.1740 C   0  0  0  0  0  0  0  0  0  0  0  0
    7.6470   -0.0980   30.9190 Br  0  0  0  0  0  0  0  0  0  0  0  0
    6.8500   -1.6270   28.6030 C   0  0  0  0  0  0  0  0  0  0  0  0
    6.9280   -2.6280   23.2870 C   0  0  0  0  0  0  0  0  0  0  0  0
    7.6850   -3.2090   22.1320 C   0  0  0  0  0  0  0  0  0  0  0  0
  1  2  1  0
  2  3  2  0
  2  4  1  0
  4  5  1  0
  5  6  1  0
  6  7  1  0
  7  8  1  0
  8  9  2  0
  8 10  1  0
 10 11  1  0
 11 12  1  0
 12 13  1  0
 13 14  1  0
 14 15  1  0
 15 16  1  0
 10 17  1  0
 17 18  2  0
 18 19  1  0
 19 20  2  0
 20 21  1  0
 21 22  1  0
 17 23  1  0
 21 23  2  0
  7 24  1  0
  4 25  1  0
 24 25  1  0
M  END
