piperidine-amides-25750-covalent
     RDKit          3D

 25 27  0  0  0  0  0  0  0  0999 V2000
    7.0540   -3.3740   19.4140 C   0  0  0  0  0  0  0  0  0  0  0  0
    6.3640   -4.2420   20.4010 C   0  0  0  0  0  0  0  0  0  0  0  0
    5.3890   -4.8740   19.9930 O   0  0  0  0  0  0  0  0  0  0  0  0
    6.8540   -4.3540   21.7130 N   0  0  0  0  0  0  0  0  0  0  0  0
    6.7160   -5.5800   22.4660 C   0  0  0  0  0  0  0  0  0  0  0  0
    6.1380   -5.2660   23.8180 C   0  0  0  0  0  0  0  0  0  0  0  0
    6.0770   -3.7470   23.9410 C   0  0  0  0  0  0  0  0  0  0  0  0
    5.5660   -3.3020   25.2650 C   0  0  0  0  0  0  0  0  0  0  0  0
    4.6240   -2.5040   25.2680 O   0  0  0  0  0  0  0  0  0  0  0  0
    6.0650   -3.7200   26.5130 N   0  0  0  0  0  0  0  0  0  0  0  0
    6.4540   -2.6820   27.4170 C   0  0  0  0  0  0  0  0  0  0  0  0
    6.6060   -3.5360   28.6270 C   0  0  0  0  0  0  0  0  0  0  0  0
    5.9570   -4.7000   28.4950 C   0  0  0  0  0  0  0  0  0  0  0  0
    5.3750   -4.7400   27.2560 C   0  0  1  0  0  0  0  0  0  0  0  0
    4.0160   -4.5980   27.2700 C   0  0  0  0  0  0  0  0  0  0  0  0
    3.0470   -5.7310   27.5180 C   0  0  0  0  0  0  0  0  0  0  0  0
    3.5720   -6.6690   28.5320 C   0  0  0  0  0  0  0  0  0  0  0  0
    2.6450   -7.8300   28.8350 C   0  0  0  0  0  0  0  0  0  0  0  0
    1.3200   -7.9200   28.0970 C   0  0  0  0  0  0  0  0  0  0  0  0
    0.7860   -6.9640   27.0600 C   0  0  0  0  0  0  0  0  0  0  0  0
   -0.3540   -7.1630   26.5170 O   0  0  0  0  0  0  0  0  0  0  0  0
   -0.8220   -6.1700   25.7060 C   0  0  0  0  0  0  0  0  0  0  0  0
    1.7290   -5.8160   26.7800 C   0  0  0  0  0  0  0  0  0  0  0  0
    7.4300   -3.1330   23.6300 C   0  0  0  0  0  0  0  0  0  0  0  0
    7.6970   -3.2950   22.2830 C   0  0  0  0  0  0  0  0  0  0  0  0
  1  2  1  0
  2  3  2  0
  2  4  1  0
  4  5  1  0
  5  6  1  0
  6  7  1  0
  7  8  1  0
  8  9  2  0
  8 10  1  0
 10 11  1  0
 11 12  1  0
 12 13  1  0
 10 14  1  0
 13 14  1  0
 14 15  1  1
 15 16  1  0
 16 17  2  0
 17 18  1  0
 18 19  2  0
 19 20  1  0
 20 21  1  0
 21 22  1  0
 16 23  1  0
 20 23  2  0
  7 24  1  0
  4 25  1  0
 24 25  1  0
M  END
