piperidine-amides-10228-covalent
     RDKit          3D

 25 26  0  0  0  0  0  0  0  0999 V2000
    7.1280   -3.2950   19.2510 C   0  0  0  0  0  0  0  0  0  0  0  0
    6.3520   -4.0160   20.2620 C   0  0  0  0  0  0  0  0  0  0  0  0
    5.2770   -4.5420   19.8820 O   0  0  0  0  0  0  0  0  0  0  0  0
    6.8400   -4.1320   21.5660 N   0  0  0  0  0  0  0  0  0  0  0  0
    7.7420   -3.1400   22.1200 C   0  0  0  0  0  0  0  0  0  0  0  0
    7.4790   -2.9810   23.5920 C   0  0  0  0  0  0  0  0  0  0  0  0
    6.1550   -3.5660   23.9890 C   0  0  0  0  0  0  0  0  0  0  0  0
    5.8980   -3.2990   25.4200 C   0  0  0  0  0  0  0  0  0  0  0  0
    4.7470   -3.5220   25.8530 O   0  0  0  0  0  0  0  0  0  0  0  0
    6.8810   -2.7940   26.3050 N   0  0  0  0  0  0  0  0  0  0  0  0
    7.0510   -1.3670   26.4710 C   0  0  0  0  0  0  0  0  0  0  0  0
    7.1590   -0.9380   27.9310 C   0  0  0  0  0  0  0  0  0  0  0  0
    8.3490   -0.9800   28.6200 C   0  0  0  0  0  0  0  0  0  0  0  0
    8.4750   -0.6020   29.9390 C   0  0  0  0  0  0  0  0  0  0  0  0
    7.3560   -0.1590   30.6070 C   0  0  0  0  0  0  0  0  0  0  0  0
    6.1570   -0.1040   29.9430 C   0  0  0  0  0  0  0  0  0  0  0  0
    6.0450   -0.4820   28.6240 C   0  0  0  0  0  0  0  0  0  0  0  0
    4.8040   -0.4030   27.9830 O   0  0  0  0  0  0  0  0  0  0  0  0
    3.9690    0.3200   27.2230 C   0  0  0  0  0  0  0  0  0  0  0  0
    2.4650    0.0850   27.3600 C   0  0  0  0  0  0  0  0  0  0  0  0
    1.7630    1.1630   27.9280 N   0  0  0  0  0  0  0  0  0  0  0  0
    1.9160    2.4530   27.2900 C   0  0  0  0  0  0  0  0  0  0  0  0
    1.5580    1.0600   29.3800 C   0  0  0  0  0  0  0  0  0  0  0  0
    6.0530   -5.0220   23.6940 C   0  0  0  0  0  0  0  0  0  0  0  0
    6.5750   -5.3350   22.3070 C   0  0  0  0  0  0  0  0  0  0  0  0
  1  2  1  0
  2  3  2  0
  2  4  1  0
  4  5  1  0
  5  6  1  0
  6  7  1  0
  7  8  1  0
  8  9  2  0
  8 10  1  0
 10 11  1  0
 11 12  1  0
 12 13  2  0
 13 14  1  0
 14 15  2  0
 15 16  1  0
 12 17  1  0
 16 17  2  0
 17 18  1  0
 18 19  1  0
 19 20  1  0
 20 21  1  0
 21 22  1  0
 21 23  1  0
  7 24  1  0
  4 25  1  0
 24 25  1  0
M  END
