piperidine-amides-8096-covalent
     RDKit          3D

 26 27  0  0  0  0  0  0  0  0999 V2000
    7.0860   -3.3470   19.3030 C   0  0  0  0  0  0  0  0  0  0  0  0
    6.4380   -4.1970   20.2960 C   0  0  0  0  0  0  0  0  0  0  0  0
    5.3870   -4.7810   19.9710 O   0  0  0  0  0  0  0  0  0  0  0  0
    7.0450   -4.4020   21.5630 N   0  0  0  0  0  0  0  0  0  0  0  0
    7.7240   -3.3000   22.1710 C   0  0  0  0  0  0  0  0  0  0  0  0
    6.8450   -2.7550   23.2490 C   0  0  0  0  0  0  0  0  0  0  0  0
    6.6020   -3.8760   24.2320 C   0  0  0  0  0  0  0  0  0  0  0  0
    5.8210   -3.3360   25.3880 C   0  0  0  0  0  0  0  0  0  0  0  0
    4.6160   -3.1720   25.2050 O   0  0  0  0  0  0  0  0  0  0  0  0
    6.4880   -3.0590   26.5680 N   0  0  0  0  0  0  0  0  0  0  0  0
    6.4420   -1.7700   27.1660 C   0  0  0  0  0  0  0  0  0  0  0  0
    5.8790   -0.5440   26.7340 C   0  0  0  0  0  0  0  0  0  0  0  0
    5.8750    0.6760   27.3960 C   0  0  0  0  0  0  0  0  0  0  0  0
    6.4420    0.9560   28.6340 C   0  0  0  0  0  0  0  0  0  0  0  0
    7.0960   -0.2230   29.2560 C   0  0  0  0  0  0  0  0  0  0  0  0
    7.6770   -0.0530   30.4650 N   0  0  0  0  0  0  0  0  0  0  0  0
    6.9660    0.6370   31.3610 C   0  0  0  0  0  0  0  0  0  0  0  0
    7.0210    1.8920   31.3580 O   0  0  0  0  0  0  0  0  0  0  0  0
    6.2700   -0.1410   32.1540 O   0  0  0  0  0  0  0  0  0  0  0  0
    5.8380    0.5510   33.2750 C   0  0  0  0  0  0  0  0  0  0  0  0
    4.5440    0.1260   33.9070 C   0  0  0  0  0  0  0  0  0  0  0  0
    4.0140    0.9420   34.8850 O   0  0  0  0  0  0  0  0  0  0  0  0
    3.9610    0.4500   36.2060 C   0  0  0  0  0  0  0  0  0  0  0  0
    7.0720   -1.5160   28.5060 C   0  0  0  0  0  0  0  0  0  0  0  0
    5.7800   -4.9390   23.5600 C   0  0  0  0  0  0  0  0  0  0  0  0
    6.5040   -5.4720   22.3530 C   0  0  0  0  0  0  0  0  0  0  0  0
  1  2  1  0
  2  3  2  0
  2  4  1  0
  4  5  1  0
  5  6  1  0
  6  7  1  0
  7  8  1  0
  8  9  2  0
  8 10  1  0
 10 11  1  0
 11 12  2  0
 12 13  1  0
 13 14  2  0
 14 15  1  0
 15 16  1  0
 16 17  1  0
 17 18  2  0
 17 19  1  0
 19 20  1  0
 20 21  1  0
 21 22  1  0
 22 23  1  0
 11 24  1  0
 15 24  2  0
  7 25  1  0
  4 26  1  0
 25 26  1  0
M  END
