piperidine-amides-10645-covalent
     RDKit          3D

 23 24  0  0  0  0  0  0  0  0999 V2000
    7.1010   -3.2760   19.2240 C   0  0  0  0  0  0  0  0  0  0  0  0
    6.3730   -4.0360   20.2510 C   0  0  0  0  0  0  0  0  0  0  0  0
    5.2950   -4.5770   19.8920 O   0  0  0  0  0  0  0  0  0  0  0  0
    6.8960   -4.1760   21.5380 N   0  0  0  0  0  0  0  0  0  0  0  0
    7.7440   -3.1790   22.1380 C   0  0  0  0  0  0  0  0  0  0  0  0
    7.0800   -2.7030   23.3910 C   0  0  0  0  0  0  0  0  0  0  0  0
    6.5770   -3.8330   24.2560 C   0  0  0  0  0  0  0  0  0  0  0  0
    5.8420   -3.2480   25.4010 C   0  0  0  0  0  0  0  0  0  0  0  0
    4.5860   -3.2490   25.3610 O   0  0  0  0  0  0  0  0  0  0  0  0
    6.4890   -2.6680   26.5190 N   0  0  0  0  0  0  0  0  0  0  0  0
    7.7550   -3.1630   26.9910 C   0  0  0  0  0  0  0  0  0  0  0  0
    7.6750   -4.5880   27.5080 C   0  0  2  0  0  0  0  0  0  0  0  0
    7.9710   -5.5030   26.7090 O   0  0  0  0  0  0  0  0  0  0  0  0
    6.5410   -5.0780   28.1090 C   0  0  0  0  0  0  0  0  0  0  0  0
    5.9080   -4.4160   29.1560 C   0  0  0  0  0  0  0  0  0  0  0  0
    4.7450   -4.8980   29.7920 C   0  0  0  0  0  0  0  0  0  0  0  0
    4.1210   -6.0870   29.4320 C   0  0  0  0  0  0  0  0  0  0  0  0
    3.0930   -6.5210   30.0000 O   0  0  0  0  0  0  0  0  0  0  0  0
    2.9560   -7.9230   30.1120 C   0  0  0  0  0  0  0  0  0  0  0  0
    4.7780   -6.8390   28.2870 C   0  0  0  0  0  0  0  0  0  0  0  0
    6.0160   -6.2440   27.6670 C   0  0  0  0  0  0  0  0  0  0  0  0
    5.6900   -4.8210   23.4670 C   0  0  0  0  0  0  0  0  0  0  0  0
    6.5620   -5.3380   22.3390 C   0  0  0  0  0  0  0  0  0  0  0  0
  1  2  1  0
  2  3  2  0
  2  4  1  0
  4  5  1  0
  5  6  1  0
  6  7  1  0
  7  8  1  0
  8  9  2  0
  8 10  1  0
 10 11  1  0
 11 12  1  0
 12 13  1  6
 12 14  1  0
 14 15  2  0
 15 16  1  0
 16 17  2  0
 17 18  1  0
 18 19  1  0
 17 20  1  0
 14 21  1  0
 20 21  2  0
  7 22  1  0
  4 23  1  0
 22 23  1  0
M  END
