piperidine-amides-2405-covalent
     RDKit          3D

 27 29  0  0  0  0  0  0  0  0999 V2000
    7.0820   -3.2640   19.2570 C   0  0  0  0  0  0  0  0  0  0  0  0
    6.3270   -4.0520   20.2670 C   0  0  0  0  0  0  0  0  0  0  0  0
    5.2840   -4.5850   19.8930 O   0  0  0  0  0  0  0  0  0  0  0  0
    6.8240   -4.1970   21.5630 N   0  0  0  0  0  0  0  0  0  0  0  0
    7.6950   -3.2120   22.1600 C   0  0  0  0  0  0  0  0  0  0  0  0
    7.3990   -3.0950   23.6240 C   0  0  0  0  0  0  0  0  0  0  0  0
    6.0210   -3.6900   23.9110 C   0  0  0  0  0  0  0  0  0  0  0  0
    5.6650   -3.3350   25.2930 C   0  0  0  0  0  0  0  0  0  0  0  0
    4.4880   -3.4200   25.6660 O   0  0  0  0  0  0  0  0  0  0  0  0
    6.6620   -2.8990   26.1720 N   0  0  0  0  0  0  0  0  0  0  0  0
    6.3200   -1.9870   27.2320 C   0  0  0  0  0  0  0  0  0  0  0  0
    5.8060   -0.7150   26.5600 C   0  0  0  0  0  0  0  0  0  0  0  0
    5.5280   -0.8060   25.1980 C   0  0  0  0  0  0  0  0  0  0  0  0
    5.0740    0.2030   24.4630 C   0  0  0  0  0  0  0  0  0  0  0  0
    4.8970    1.3260   25.1160 C   0  0  0  0  0  0  0  0  0  0  0  0
    5.1200    1.6640   26.5420 C   0  0  0  0  0  0  0  0  0  0  0  0
    5.6410    0.5370   27.4190 C   0  0  0  0  0  0  0  0  0  0  0  0
    5.9020    0.7840   28.8800 C   0  0  0  0  0  0  0  0  0  0  0  0
    5.3100    2.0320   29.0470 O   0  0  0  0  0  0  0  0  0  0  0  0
    6.0870    3.1910   29.2500 C   0  0  0  0  0  0  0  0  0  0  0  0
    7.1080    3.3790   28.1750 C   0  0  0  0  0  0  0  0  0  0  0  0
    7.0540    4.6330   27.3200 C   0  0  0  0  0  0  0  0  0  0  0  0
    6.3520    5.8170   27.8860 C   0  0  0  0  0  0  0  0  0  0  0  0
    5.7060    5.5550   29.2260 C   0  0  0  0  0  0  0  0  0  0  0  0
    5.2660    4.2710   29.4770 C   0  0  0  0  0  0  0  0  0  0  0  0
    6.0400   -5.1590   23.6340 C   0  0  0  0  0  0  0  0  0  0  0  0
    6.6670   -5.4760   22.2720 C   0  0  0  0  0  0  0  0  0  0  0  0
  1  2  1  0
  2  3  2  0
  2  4  1  0
  4  5  1  0
  5  6  1  0
  6  7  1  0
  7  8  1  0
  8  9  2  0
  8 10  1  0
 10 11  1  0
 11 12  1  0
 12 13  2  0
 13 14  1  0
 14 15  2  0
 15 16  1  0
 12 17  1  0
 16 17  2  0
 17 18  1  0
 18 19  1  0
 19 20  1  0
 20 21  1  0
 21 22  1  0
 22 23  1  0
 23 24  1  0
 20 25  1  0
 24 25  1  0
  7 26  1  0
  4 27  1  0
 26 27  1  0
M  END
