piperidine-amides-17266-covalent
     RDKit          3D

 20 20  0  0  0  0  0  0  0  0999 V2000
    7.1350   -3.2930   19.1890 C   0  0  0  0  0  0  0  0  0  0  0  0
    6.4030   -4.0450   20.2210 C   0  0  0  0  0  0  0  0  0  0  0  0
    5.3010   -4.5460   19.8900 O   0  0  0  0  0  0  0  0  0  0  0  0
    6.9570   -4.2550   21.5110 N   0  0  0  0  0  0  0  0  0  0  0  0
    7.6200   -3.1630   22.1230 C   0  0  0  0  0  0  0  0  0  0  0  0
    7.1960   -2.8700   23.4900 C   0  0  0  0  0  0  0  0  0  0  0  0
    6.5270   -3.9480   24.2650 C   0  0  0  0  0  0  0  0  0  0  0  0
    5.7450   -3.3450   25.3860 C   0  0  0  0  0  0  0  0  0  0  0  0
    4.5880   -2.9500   25.1510 O   0  0  0  0  0  0  0  0  0  0  0  0
    6.2390   -3.2000   26.6920 N   0  0  0  0  0  0  0  0  0  0  0  0
    6.5970   -1.9480   27.2610 C   0  0  0  0  0  0  0  0  0  0  0  0
    5.5120   -4.0290   27.6300 C   0  0  0  0  0  0  0  0  0  0  0  0
    6.2020   -5.0910   28.5290 C   0  0  2  0  0  0  0  0  0  0  0  0
    6.5250   -6.3480   28.1040 C   0  0  0  0  0  0  0  0  0  0  0  0
    5.3310   -6.3570   28.7460 C   0  0  0  0  0  0  0  0  0  0  0  0
    4.8020   -5.0790   29.2880 C   0  0  0  0  0  0  0  0  0  0  0  0
    5.5270   -7.3210   29.9500 C   0  0  0  0  0  0  0  0  0  0  0  0
    4.4260   -6.9140   27.6860 C   0  0  0  0  0  0  0  0  0  0  0  0
    5.6500   -4.8590   23.4230 C   0  0  0  0  0  0  0  0  0  0  0  0
    6.5150   -5.3730   22.2720 C   0  0  0  0  0  0  0  0  0  0  0  0
  1  2  1  0
  2  3  2  0
  2  4  1  0
  4  5  1  0
  5  6  1  0
  6  7  1  0
  7  8  1  0
  8  9  2  0
  8 10  1  0
 10 11  1  0
 10 12  1  0
 12 13  1  0
 13 14  1  6
 13 15  1  0
 15 16  1  0
 15 17  1  0
 15 18  1  0
  7 19  1  0
  4 20  1  0
 19 20  1  0
M  END
