piperidine-amides-1736-covalent
     RDKit          3D

 20 20  0  0  0  0  0  0  0  0999 V2000
    7.0760   -3.3260   19.3240 C   0  0  0  0  0  0  0  0  0  0  0  0
    6.3430   -4.1210   20.3510 C   0  0  0  0  0  0  0  0  0  0  0  0
    5.3730   -4.8060   19.9780 O   0  0  0  0  0  0  0  0  0  0  0  0
    6.7910   -4.1000   21.6960 N   0  0  0  0  0  0  0  0  0  0  0  0
    7.7190   -3.0860   22.1680 C   0  0  0  0  0  0  0  0  0  0  0  0
    7.5780   -2.9970   23.6870 C   0  0  0  0  0  0  0  0  0  0  0  0
    6.2070   -3.4800   23.9680 C   0  0  0  0  0  0  0  0  0  0  0  0
    5.6610   -3.1230   25.3150 C   0  0  0  0  0  0  0  0  0  0  0  0
    4.6820   -2.3740   25.3000 O   0  0  0  0  0  0  0  0  0  0  0  0
    6.2080   -3.6010   26.5220 N   0  0  0  0  0  0  0  0  0  0  0  0
    5.8140   -4.7900   27.2050 C   0  0  1  0  0  0  0  0  0  0  0  0
    6.1690   -5.1420   28.4880 C   0  0  0  0  0  0  0  0  0  0  0  0
    6.1150   -6.5240   28.7270 C   0  0  0  0  0  0  0  0  0  0  0  0
    5.1790   -7.2560   28.0460 C   0  0  0  0  0  0  0  0  0  0  0  0
    5.7930   -6.8420   30.1290 C   0  0  0  0  0  0  0  0  0  0  0  0
    4.4820   -5.0620   26.9800 C   0  0  0  0  0  0  0  0  0  0  0  0
    3.5830   -4.7390   28.0480 N   0  0  0  0  0  0  0  0  0  0  0  0
    4.1530   -5.6160   25.7490 O   0  0  0  0  0  0  0  0  0  0  0  0
    5.9990   -4.9430   23.6910 C   0  0  0  0  0  0  0  0  0  0  0  0
    6.6190   -5.2940   22.4930 C   0  0  0  0  0  0  0  0  0  0  0  0
  1  2  1  0
  2  3  2  0
  2  4  1  0
  4  5  1  0
  5  6  1  0
  6  7  1  0
  7  8  1  0
  8  9  2  0
  8 10  1  0
 10 11  1  0
 11 12  1  1
 12 13  1  0
 13 14  1  0
 13 15  1  0
 11 16  1  0
 16 17  1  0
 16 18  2  0
  7 19  1  0
  4 20  1  0
 19 20  1  0
M  END
