piperidine-amides-8844-covalent
     RDKit          3D

 22 23  0  0  0  0  0  0  0  0999 V2000
    7.0590   -3.3070   19.3180 C   0  0  0  0  0  0  0  0  0  0  0  0
    6.3050   -4.0670   20.3190 C   0  0  0  0  0  0  0  0  0  0  0  0
    5.2940   -4.6750   19.9280 O   0  0  0  0  0  0  0  0  0  0  0  0
    6.7310   -4.1430   21.6750 N   0  0  0  0  0  0  0  0  0  0  0  0
    7.6550   -3.1570   22.1840 C   0  0  0  0  0  0  0  0  0  0  0  0
    7.3340   -2.8480   23.6160 C   0  0  0  0  0  0  0  0  0  0  0  0
    6.0530   -3.5960   23.8850 C   0  0  0  0  0  0  0  0  0  0  0  0
    5.5360   -3.3310   25.2740 C   0  0  0  0  0  0  0  0  0  0  0  0
    4.3350   -3.0800   25.3490 O   0  0  0  0  0  0  0  0  0  0  0  0
    6.4040   -3.3710   26.3640 N   0  0  0  0  0  0  0  0  0  0  0  0
    6.0410   -3.8890   27.6560 C   0  0  0  0  0  0  0  0  0  0  0  0
    5.6850   -5.2600   27.7170 C   0  0  0  0  0  0  0  0  0  0  0  0
    6.5260   -6.1470   28.3380 C   0  0  0  0  0  0  0  0  0  0  0  0
    5.4110   -5.9350   26.4510 C   0  0  0  0  0  0  0  0  0  0  0  0
    4.4080   -5.2880   28.5770 C   0  0  0  0  0  0  0  0  0  0  0  0
    3.0600   -4.8190   28.0350 C   0  0  0  0  0  0  0  0  0  0  0  0
    1.8980   -4.8460   28.8130 N   0  0  0  0  0  0  0  0  0  0  0  0
    2.1780   -5.3620   30.1360 C   0  0  0  0  0  0  0  0  0  0  0  0
    3.5320   -5.8210   30.6510 C   0  0  0  0  0  0  0  0  0  0  0  0
    4.5760   -5.7490   29.8090 N   0  0  0  0  0  0  0  0  0  0  0  0
    6.1120   -5.0480   23.6590 C   0  0  0  0  0  0  0  0  0  0  0  0
    6.6130   -5.3860   22.4150 C   0  0  0  0  0  0  0  0  0  0  0  0
  1  2  1  0
  2  3  2  0
  2  4  1  0
  4  5  1  0
  5  6  1  0
  6  7  1  0
  7  8  1  0
  8  9  2  0
  8 10  1  0
 10 11  1  0
 12 11  1  0
 12 13  1  0
 12 14  1  0
 12 15  1  0
 15 16  2  0
 16 17  1  0
 17 18  2  0
 18 19  1  0
 15 20  1  0
 19 20  2  0
  7 21  1  0
  4 22  1  0
 21 22  1  0
M  END
