piperidine-amides-13376-covalent
     RDKit          3D

 20 20  0  0  0  0  0  0  0  0999 V2000
    7.1340   -3.2770   19.2100 C   0  0  0  0  0  0  0  0  0  0  0  0
    6.3190   -3.9930   20.2130 C   0  0  0  0  0  0  0  0  0  0  0  0
    5.2320   -4.4630   19.8380 O   0  0  0  0  0  0  0  0  0  0  0  0
    6.7920   -4.1670   21.5160 N   0  0  0  0  0  0  0  0  0  0  0  0
    7.5650   -3.1290   22.1100 C   0  0  0  0  0  0  0  0  0  0  0  0
    7.1850   -2.7900   23.4830 C   0  0  0  0  0  0  0  0  0  0  0  0
    6.5160   -3.8700   24.2460 C   0  0  0  0  0  0  0  0  0  0  0  0
    5.8470   -3.2840   25.4360 C   0  0  0  0  0  0  0  0  0  0  0  0
    4.6010   -3.1790   25.4320 O   0  0  0  0  0  0  0  0  0  0  0  0
    6.6060   -2.8450   26.5460 N   0  0  0  0  0  0  0  0  0  0  0  0
    6.4210   -3.3840   27.9170 C   0  0  0  0  0  0  0  0  0  0  0  0
    7.3010   -4.5380   28.2590 C   0  0  0  0  0  0  0  0  0  0  0  0
    7.0510   -5.8150   27.6130 C   0  0  0  0  0  0  0  0  0  0  0  0
    8.0890   -6.5400   27.6170 O   0  0  0  0  0  0  0  0  0  0  0  0
    9.1120   -6.0020   26.8460 C   0  0  0  0  0  0  0  0  0  0  0  0
    8.9020   -5.1220   25.8090 C   0  0  0  0  0  0  0  0  0  0  0  0
    9.9800   -4.5950   25.2050 F   0  0  0  0  0  0  0  0  0  0  0  0
    8.2250   -4.0570   26.3460 F   0  0  0  0  0  0  0  0  0  0  0  0
    5.6550   -4.7800   23.4260 C   0  0  0  0  0  0  0  0  0  0  0  0
    6.2940   -5.2300   22.3090 C   0  0  0  0  0  0  0  0  0  0  0  0
  1  2  1  0
  2  3  2  0
  2  4  1  0
  4  5  1  0
  5  6  1  0
  6  7  1  0
  7  8  1  0
  8  9  2  0
  8 10  1  0
 10 11  1  0
 11 12  1  0
 12 13  1  0
 13 14  1  0
 14 15  1  0
 15 16  1  0
 16 17  1  0
 16 18  1  0
  7 19  1  0
  4 20  1  0
 19 20  1  0
M  END
