piperidine-amides-2902-covalent
     RDKit          3D

 24 26  0  0  0  0  0  0  0  0999 V2000
    7.0860   -3.2920   19.2970 C   0  0  0  0  0  0  0  0  0  0  0  0
    6.3420   -4.0780   20.2780 C   0  0  0  0  0  0  0  0  0  0  0  0
    5.3290   -4.6840   19.9360 O   0  0  0  0  0  0  0  0  0  0  0  0
    6.8130   -4.1830   21.6340 N   0  0  0  0  0  0  0  0  0  0  0  0
    6.6100   -5.4200   22.3520 C   0  0  0  0  0  0  0  0  0  0  0  0
    5.9980   -5.1270   23.6880 C   0  0  0  0  0  0  0  0  0  0  0  0
    6.0870   -3.6290   23.8790 C   0  0  0  0  0  0  0  0  0  0  0  0
    5.6310   -3.2230   25.2360 C   0  0  0  0  0  0  0  0  0  0  0  0
    4.4310   -3.0370   25.5070 O   0  0  0  0  0  0  0  0  0  0  0  0
    6.6060   -3.0310   26.2350 N   0  0  0  0  0  0  0  0  0  0  0  0
    6.2400   -3.0750   27.6360 C   0  0  0  0  0  0  0  0  0  0  0  0
    5.2900   -4.2140   27.9100 C   0  0  0  0  0  0  0  0  0  0  0  0
    5.7200   -5.5070   28.1860 C   0  0  0  0  0  0  0  0  0  0  0  0
    4.7920   -6.5240   28.4470 C   0  0  0  0  0  0  0  0  0  0  0  0
    3.4380   -6.2550   28.4350 C   0  0  0  0  0  0  0  0  0  0  0  0
    2.6200   -7.1560   28.6730 O   0  0  0  0  0  0  0  0  0  0  0  0
    2.6530   -8.1300   29.6490 C   0  0  0  0  0  0  0  0  0  0  0  0
    2.1400   -7.6540   30.8390 C   0  0  0  0  0  0  0  0  0  0  0  0
    2.0510   -8.1930   31.9460 C   0  0  0  0  0  0  0  0  0  0  0  0
    3.2920   -7.4670   31.9230 C   0  0  0  0  0  0  0  0  0  0  0  0
    3.0120   -4.9320   28.1460 N   0  0  0  0  0  0  0  0  0  0  0  0
    3.9340   -3.9770   27.8990 C   0  0  0  0  0  0  0  0  0  0  0  0
    7.4740   -3.1080   23.5650 C   0  0  0  0  0  0  0  0  0  0  0  0
    7.6760   -3.1630   22.1870 C   0  0  0  0  0  0  0  0  0  0  0  0
  1  2  1  0
  2  3  2  0
  2  4  1  0
  4  5  1  0
  5  6  1  0
  6  7  1  0
  7  8  1  0
  8  9  2  0
  8 10  1  0
 10 11  1  0
 11 12  1  0
 12 13  2  0
 13 14  1  0
 14 15  2  0
 15 16  1  0
 16 17  1  0
 17 18  1  0
 18 19  1  0
 18 20  1  0
 19 20  1  0
 15 21  1  0
 12 22  1  0
 21 22  2  0
  7 23  1  0
  4 24  1  0
 23 24  1  0
M  END
