piperidine-amides-30617-covalent
     RDKit          3D

 27 29  0  0  0  0  0  0  0  0999 V2000
    7.0850   -3.3890   19.4270 C   0  0  0  0  0  0  0  0  0  0  0  0
    6.3990   -4.2280   20.4040 C   0  0  0  0  0  0  0  0  0  0  0  0
    5.4320   -4.9110   20.0140 O   0  0  0  0  0  0  0  0  0  0  0  0
    6.8560   -4.3060   21.7390 N   0  0  0  0  0  0  0  0  0  0  0  0
    7.6260   -3.2350   22.3510 C   0  0  0  0  0  0  0  0  0  0  0  0
    7.0890   -3.0190   23.7580 C   0  0  0  0  0  0  0  0  0  0  0  0
    5.7550   -3.6860   23.9510 C   0  0  0  0  0  0  0  0  0  0  0  0
    4.9000   -3.2130   25.1010 C   0  0  0  0  0  0  0  0  0  0  0  0
    3.6790   -3.0050   24.9050 O   0  0  0  0  0  0  0  0  0  0  0  0
    5.3270   -2.9690   26.4220 N   0  0  0  0  0  0  0  0  0  0  0  0
    4.4940   -2.5140   27.5110 C   0  0  0  0  0  0  0  0  0  0  0  0
    5.2850   -2.8140   28.7310 C   0  0  1  0  0  0  0  0  0  0  0  0
    4.4730   -3.4740   29.7560 C   0  0  0  0  0  0  0  0  0  0  0  0
    5.0190   -4.7990   29.9670 N   0  0  0  0  0  0  0  0  0  0  0  0
    3.7530   -5.5760   29.9310 C   0  0  0  0  0  0  0  0  0  0  0  0
    3.1290   -5.9150   31.1060 O   0  0  0  0  0  0  0  0  0  0  0  0
    3.1690   -5.9730   28.7870 O   0  0  0  0  0  0  0  0  0  0  0  0
    3.4750   -7.2520   28.3020 C   0  0  0  0  0  0  0  0  0  0  0  0
    3.3800   -7.4940   26.8410 C   0  0  0  0  0  0  0  0  0  0  0  0
    4.9590   -7.5120   28.6070 C   0  0  0  0  0  0  0  0  0  0  0  0
    2.7030   -8.0400   29.1280 C   0  0  0  0  0  0  0  0  0  0  0  0
    6.1060   -4.9450   29.1730 C   0  0  0  0  0  0  0  0  0  0  0  0
    6.9140   -6.0400   29.0530 O   0  0  0  0  0  0  0  0  0  0  0  0
    6.4290   -3.7020   28.3510 C   0  0  1  0  0  0  0  0  0  0  0  0
    6.3760   -3.7130   26.8360 C   0  0  0  0  0  0  0  0  0  0  0  0
    5.9590   -5.1620   23.8310 C   0  0  0  0  0  0  0  0  0  0  0  0
    6.4920   -5.4760   22.4820 C   0  0  0  0  0  0  0  0  0  0  0  0
  1  2  1  0
  2  3  2  0
  2  4  1  0
  4  5  1  0
  5  6  1  0
  6  7  1  0
  7  8  1  0
  8  9  2  0
  8 10  1  0
 10 11  1  0
 12 11  1  6
 12 13  1  0
 13 14  1  0
 14 15  1  0
 15 16  2  0
 15 17  1  0
 18 17  1  0
 18 19  1  0
 18 20  1  0
 18 21  1  0
 14 22  1  0
 22 23  2  0
 12 24  1  0
 22 24  1  0
 10 25  1  0
 24 25  1  6
  7 26  1  0
  4 27  1  0
 26 27  1  0
M  END
