piperidine-amides-453-covalent
     RDKit          3D

 27 29  0  0  0  0  0  0  0  0999 V2000
    7.1600   -3.3370   19.3920 C   0  0  0  0  0  0  0  0  0  0  0  0
    6.4650   -4.1570   20.3550 C   0  0  0  0  0  0  0  0  0  0  0  0
    5.4290   -4.8000   19.9790 O   0  0  0  0  0  0  0  0  0  0  0  0
    6.9460   -4.2800   21.6720 N   0  0  0  0  0  0  0  0  0  0  0  0
    7.7480   -3.1680   22.2160 C   0  0  0  0  0  0  0  0  0  0  0  0
    6.6820   -2.5930   23.2070 C   0  0  0  0  0  0  0  0  0  0  0  0
    6.4120   -3.7470   24.1300 C   0  0  0  0  0  0  0  0  0  0  0  0
    5.4470   -3.3140   25.3070 C   0  0  0  0  0  0  0  0  0  0  0  0
    4.3490   -3.8150   25.1350 O   0  0  0  0  0  0  0  0  0  0  0  0
    6.0080   -2.5470   26.1550 N   0  0  0  0  0  0  0  0  0  0  0  0
    6.3640   -1.6970   27.1510 C   0  0  0  0  0  0  0  0  0  0  0  0
    7.0600   -1.6720   28.3300 C   0  0  0  0  0  0  0  0  0  0  0  0
    7.1940   -0.5320   29.1450 C   0  0  0  0  0  0  0  0  0  0  0  0
    6.6280    0.8040   28.8840 C   0  0  0  0  0  0  0  0  0  0  0  0
    5.8420    0.8740   27.5920 C   0  0  0  0  0  0  0  0  0  0  0  0
    5.7660   -0.3130   26.8520 C   0  0  0  0  0  0  0  0  0  0  0  0
    5.2320    2.1430   27.2250 N   0  0  0  0  0  0  0  0  0  0  0  0
    3.8720    2.2380   26.7200 C   0  0  0  0  0  0  0  0  0  0  0  0
    3.0000    1.1990   26.8420 O   0  0  0  0  0  0  0  0  0  0  0  0
    3.5630    3.5930   26.0770 C   0  0  0  0  0  0  0  0  0  0  0  0
    2.8080    3.5510   24.9270 O   0  0  0  0  0  0  0  0  0  0  0  0
    2.6800    2.4350   24.0850 C   0  0  0  0  0  0  0  0  0  0  0  0
    5.3540    3.1690   28.2300 C   0  0  0  0  0  0  0  0  0  0  0  0
    6.5600    3.0510   28.8970 C   0  0  0  0  0  0  0  0  0  0  0  0
    6.7720    2.0030   29.7470 C   0  0  0  0  0  0  0  0  0  0  0  0
    5.9480   -5.0600   23.5500 C   0  0  0  0  0  0  0  0  0  0  0  0
    6.7520   -5.4420   22.4790 C   0  0  0  0  0  0  0  0  0  0  0  0
  1  2  1  0
  2  3  2  0
  2  4  1  0
  4  5  1  0
  5  6  1  0
  6  7  1  0
  7  8  1  0
  8  9  2  0
  8 10  1  0
 10 11  1  0
 11 12  2  0
 12 13  1  0
 13 14  2  0
 14 15  1  0
 11 16  1  0
 15 16  2  0
 15 17  1  0
 17 18  1  0
 18 19  2  0
 18 20  1  0
 20 21  1  0
 21 22  1  0
 17 23  1  0
 23 24  1  0
 14 25  1  0
 24 25  1  0
  7 26  1  0
  4 27  1  0
 26 27  1  0
M  END
