piperidine-amides-14169-covalent
     RDKit          3D

 24 25  0  0  0  0  0  0  0  0999 V2000
    7.1220   -3.2620   19.2350 C   0  0  0  0  0  0  0  0  0  0  0  0
    6.3530   -4.0430   20.2430 C   0  0  0  0  0  0  0  0  0  0  0  0
    5.2870   -4.5800   19.8980 O   0  0  0  0  0  0  0  0  0  0  0  0
    6.8740   -4.2030   21.5460 N   0  0  0  0  0  0  0  0  0  0  0  0
    6.5670   -5.3490   22.3610 C   0  0  0  0  0  0  0  0  0  0  0  0
    5.5790   -4.8810   23.4410 C   0  0  0  0  0  0  0  0  0  0  0  0
    5.7240   -3.3940   23.5780 C   0  0  0  0  0  0  0  0  0  0  0  0
    5.0040   -2.8170   24.7400 C   0  0  0  0  0  0  0  0  0  0  0  0
    3.9070   -2.3260   24.5130 O   0  0  0  0  0  0  0  0  0  0  0  0
    5.5120   -2.8450   26.0200 N   0  0  0  0  0  0  0  0  0  0  0  0
    5.3620   -3.9370   26.8790 C   0  0  0  0  0  0  0  0  0  0  0  0
    6.3810   -4.7710   26.9900 C   0  0  0  0  0  0  0  0  0  0  0  0
    7.2060   -4.9320   25.8690 C   0  0  0  0  0  0  0  0  0  0  0  0
    8.2980   -5.7260   25.8520 C   0  0  0  0  0  0  0  0  0  0  0  0
    8.6290   -6.3920   26.9420 N   0  0  0  0  0  0  0  0  0  0  0  0
    7.8850   -6.2900   28.0260 C   0  0  0  0  0  0  0  0  0  0  0  0
    6.6490   -5.4490   28.1560 C   0  0  0  0  0  0  0  0  0  0  0  0
    5.7890   -5.2680   29.2370 O   0  0  0  0  0  0  0  0  0  0  0  0
    5.2420   -6.3930   29.9040 C   0  0  0  0  0  0  0  0  0  0  0  0
    3.8720   -6.5040   29.7440 C   0  0  0  0  0  0  0  0  0  0  0  0
    3.1700   -5.5190   29.1000 F   0  0  0  0  0  0  0  0  0  0  0  0
    3.2980   -6.4830   31.0500 F   0  0  0  0  0  0  0  0  0  0  0  0
    7.1230   -2.8870   23.5210 C   0  0  0  0  0  0  0  0  0  0  0  0
    7.6750   -3.1450   22.1350 C   0  0  0  0  0  0  0  0  0  0  0  0
  1  2  1  0
  2  3  2  0
  2  4  1  0
  4  5  1  0
  5  6  1  0
  6  7  1  0
  7  8  1  0
  8  9  2  0
  8 10  1  0
 10 11  1  0
 11 12  1  0
 12 13  2  0
 13 14  1  0
 14 15  2  0
 15 16  1  0
 12 17  1  0
 16 17  2  0
 17 18  1  0
 18 19  1  0
 19 20  1  0
 20 21  1  0
 20 22  1  0
  7 23  1  0
  4 24  1  0
 23 24  1  0
M  END
