piperidine-amides-7214-covalent
     RDKit          3D

 21 22  0  0  0  0  0  0  0  0999 V2000
    7.0280   -3.3400   19.3410 C   0  0  0  0  0  0  0  0  0  0  0  0
    6.3770   -4.1790   20.3590 C   0  0  0  0  0  0  0  0  0  0  0  0
    5.3680   -4.8270   19.9750 O   0  0  0  0  0  0  0  0  0  0  0  0
    6.8910   -4.2730   21.6600 N   0  0  0  0  0  0  0  0  0  0  0  0
    6.7090   -5.4740   22.4500 C   0  0  0  0  0  0  0  0  0  0  0  0
    6.0490   -5.0900   23.7450 C   0  0  0  0  0  0  0  0  0  0  0  0
    6.0550   -3.6000   23.9410 C   0  0  0  0  0  0  0  0  0  0  0  0
    5.6500   -3.2210   25.3120 C   0  0  0  0  0  0  0  0  0  0  0  0
    4.4310   -3.2590   25.5890 O   0  0  0  0  0  0  0  0  0  0  0  0
    6.5550   -2.8200   26.3090 N   0  0  0  0  0  0  0  0  0  0  0  0
    6.4340   -1.5450   26.9700 C   0  0  0  0  0  0  0  0  0  0  0  0
    6.9710   -1.5560   28.3950 C   0  0  0  0  0  0  0  0  0  0  0  0
    6.9210   -0.4290   29.1580 C   0  0  0  0  0  0  0  0  0  0  0  0
    7.3940   -0.4170   30.4340 F   0  0  0  0  0  0  0  0  0  0  0  0
    6.3800    0.7040   28.6090 C   0  0  0  0  0  0  0  0  0  0  0  0
    5.8820    0.7640   27.3160 C   0  0  0  0  0  0  0  0  0  0  0  0
    5.3420    1.9240   26.7850 C   0  0  0  0  0  0  0  0  0  0  0  0
    4.0170    2.1120   26.9530 N   0  0  0  0  0  0  0  0  0  0  0  0
    5.9130   -0.3590   26.5070 C   0  0  0  0  0  0  0  0  0  0  0  0
    7.4440   -3.0360   23.6590 C   0  0  0  0  0  0  0  0  0  0  0  0
    7.7270   -3.2020   22.1710 C   0  0  0  0  0  0  0  0  0  0  0  0
  1  2  1  0
  2  3  2  0
  2  4  1  0
  4  5  1  0
  5  6  1  0
  6  7  1  0
  7  8  1  0
  8  9  2  0
  8 10  1  0
 10 11  1  0
 11 12  2  0
 12 13  1  0
 13 14  1  0
 13 15  2  0
 15 16  1  0
 16 17  1  0
 17 18  3  0
 11 19  1  0
 16 19  2  0
  7 20  1  0
  4 21  1  0
 20 21  1  0
M  END
