piperidine-amides-33192-covalent
     RDKit          3D

 24 25  0  0  0  0  0  0  0  0999 V2000
    7.0840   -3.3650   19.3190 C   0  0  0  0  0  0  0  0  0  0  0  0
    6.3750   -4.1470   20.3400 C   0  0  0  0  0  0  0  0  0  0  0  0
    5.3410   -4.7550   19.9620 O   0  0  0  0  0  0  0  0  0  0  0  0
    6.8850   -4.2500   21.6640 N   0  0  0  0  0  0  0  0  0  0  0  0
    6.5570   -5.4000   22.4330 C   0  0  0  0  0  0  0  0  0  0  0  0
    6.1520   -5.0620   23.7910 C   0  0  0  0  0  0  0  0  0  0  0  0
    6.1720   -3.6060   24.0540 C   0  0  0  0  0  0  0  0  0  0  0  0
    5.6200   -3.2370   25.4020 C   0  0  0  0  0  0  0  0  0  0  0  0
    4.4040   -2.9960   25.4830 O   0  0  0  0  0  0  0  0  0  0  0  0
    6.3880   -3.1490   26.5800 N   0  0  0  0  0  0  0  0  0  0  0  0
    6.4240   -4.1600   27.5810 C   0  0  0  0  0  0  0  0  0  0  0  0
    6.4020   -1.8310   27.2040 C   0  0  0  0  0  0  0  0  0  0  0  0
    6.9050   -1.4380   28.6270 C   0  0  0  0  0  0  0  0  0  0  0  0
    6.9450   -0.1830   29.3390 C   0  0  0  0  0  0  0  0  0  0  0  0
    7.5950    0.1290   31.1130 Br  0  0  0  0  0  0  0  0  0  0  0  0
    6.3630    1.0200   28.4990 C   0  0  0  0  0  0  0  0  0  0  0  0
    5.9700    0.4270   27.2370 C   0  0  0  0  0  0  0  0  0  0  0  0
    5.3620    1.4300   26.2350 C   0  0  0  0  0  0  0  0  0  0  0  0
    5.7380    1.4560   24.9230 F   0  0  0  0  0  0  0  0  0  0  0  0
    4.0090    1.1160   26.2920 F   0  0  0  0  0  0  0  0  0  0  0  0
    5.5050    2.6950   26.7950 F   0  0  0  0  0  0  0  0  0  0  0  0
    5.8760   -0.6850   26.4580 C   0  0  0  0  0  0  0  0  0  0  0  0
    7.5220   -3.0310   23.7130 C   0  0  0  0  0  0  0  0  0  0  0  0
    7.6540   -3.1380   22.1850 C   0  0  0  0  0  0  0  0  0  0  0  0
  1  2  1  0
  2  3  2  0
  2  4  1  0
  4  5  1  0
  5  6  1  0
  6  7  1  0
  7  8  1  0
  8  9  2  0
  8 10  1  0
 10 11  1  0
 10 12  1  0
 12 13  2  0
 13 14  1  0
 14 15  1  0
 14 16  2  0
 16 17  1  0
 17 18  1  0
 18 19  1  0
 18 20  1  0
 18 21  1  0
 12 22  1  0
 17 22  2  0
  7 23  1  0
  4 24  1  0
 23 24  1  0
M  END
