piperidine-amides-13058-covalent
     RDKit          3D

 20 20  0  0  0  0  0  0  0  0999 V2000
    7.1290   -3.2310   19.1700 C   0  0  0  0  0  0  0  0  0  0  0  0
    6.3430   -3.9550   20.1950 C   0  0  0  0  0  0  0  0  0  0  0  0
    5.2580   -4.4460   19.8340 O   0  0  0  0  0  0  0  0  0  0  0  0
    6.8250   -4.1210   21.4990 N   0  0  0  0  0  0  0  0  0  0  0  0
    7.4930   -3.0250   22.1430 C   0  0  0  0  0  0  0  0  0  0  0  0
    6.8340   -2.5730   23.3680 C   0  0  0  0  0  0  0  0  0  0  0  0
    6.3680   -3.6850   24.2150 C   0  0  0  0  0  0  0  0  0  0  0  0
    5.7120   -3.1920   25.4550 C   0  0  0  0  0  0  0  0  0  0  0  0
    4.4750   -3.0180   25.4400 O   0  0  0  0  0  0  0  0  0  0  0  0
    6.4710   -2.9190   26.6220 N   0  0  0  0  0  0  0  0  0  0  0  0
    6.2700   -3.5580   27.9570 C   0  0  0  0  0  0  0  0  0  0  0  0
    6.1820   -5.0580   27.9660 C   0  0  2  0  0  0  0  0  0  0  0  0
    6.3780   -5.6420   26.6560 C   0  0  0  0  0  0  0  0  0  0  0  0
    7.5170   -5.2720   26.0070 C   0  0  0  0  0  0  0  0  0  0  0  0
    7.8220   -5.5820   24.7100 C   0  0  0  0  0  0  0  0  0  0  0  0
    5.2280   -5.7480   28.6810 C   0  0  0  0  0  0  0  0  0  0  0  0
    5.6560   -6.9520   29.1830 C   0  0  0  0  0  0  0  0  0  0  0  0
    5.1560   -7.2710   30.2910 O   0  0  0  0  0  0  0  0  0  0  0  0
    5.6090   -4.7120   23.4550 C   0  0  0  0  0  0  0  0  0  0  0  0
    6.2740   -5.1810   22.3110 C   0  0  0  0  0  0  0  0  0  0  0  0
  1  2  1  0
  2  3  2  0
  2  4  1  0
  4  5  1  0
  5  6  1  0
  6  7  1  0
  7  8  1  0
  8  9  2  0
  8 10  1  0
 10 11  1  0
 12 11  1  6
 12 13  1  0
 13 14  1  0
 14 15  1  0
 12 16  1  0
 16 17  1  0
 17 18  1  0
  7 19  1  0
  4 20  1  0
 19 20  1  0
M  END
