piperidine-amides-10944-covalent
     RDKit          3D

 21 22  0  0  0  0  0  0  0  0999 V2000
    7.1340   -3.3330   19.3000 C   0  0  0  0  0  0  0  0  0  0  0  0
    6.3640   -4.1200   20.2550 C   0  0  0  0  0  0  0  0  0  0  0  0
    5.2820   -4.6120   19.9090 O   0  0  0  0  0  0  0  0  0  0  0  0
    6.8570   -4.3900   21.5350 N   0  0  0  0  0  0  0  0  0  0  0  0
    6.4150   -5.5520   22.2580 C   0  0  0  0  0  0  0  0  0  0  0  0
    5.6980   -4.9810   23.4520 C   0  0  0  0  0  0  0  0  0  0  0  0
    6.5280   -3.9440   24.1520 C   0  0  0  0  0  0  0  0  0  0  0  0
    5.8680   -3.3060   25.3160 C   0  0  0  0  0  0  0  0  0  0  0  0
    4.6110   -3.4150   25.5200 O   0  0  0  0  0  0  0  0  0  0  0  0
    6.6060   -2.5210   26.2280 N   0  0  0  0  0  0  0  0  0  0  0  0
    5.9120   -1.7070   27.2440 C   0  0  1  0  0  0  0  0  0  0  0  0
    6.8390   -1.3290   28.3000 C   0  0  0  0  0  0  0  0  0  0  0  0
    6.3930    0.0740   29.0670 S   0  0  0  0  0  0  0  0  0  0  0  0
    7.5120    0.8490   29.6210 O   0  0  0  0  0  0  0  0  0  0  0  0
    5.3180   -0.1130   30.1200 O   0  0  0  0  0  0  0  0  0  0  0  0
    5.8060    0.6680   27.4980 C   0  0  0  0  0  0  0  0  0  0  0  0
    5.1350   -0.4810   26.7180 C   0  0  1  0  0  0  0  0  0  0  0  0
    5.3100   -0.4160   25.3380 O   0  0  0  0  0  0  0  0  0  0  0  0
    6.5730   -0.2070   24.6960 C   0  0  0  0  0  0  0  0  0  0  0  0
    6.9260   -2.8550   23.2260 C   0  0  0  0  0  0  0  0  0  0  0  0
    7.6010   -3.3450   22.1560 C   0  0  0  0  0  0  0  0  0  0  0  0
  1  2  1  0
  2  3  2  0
  2  4  1  0
  4  5  1  0
  5  6  1  0
  6  7  1  0
  7  8  1  0
  8  9  2  0
  8 10  1  0
 11 10  1  6
 11 12  1  0
 13 12  1  0
 13 14  2  0
 13 15  2  0
 13 16  1  0
 11 17  1  0
 16 17  1  0
 17 18  1  6
 18 19  1  0
  7 20  1  0
  4 21  1  0
 20 21  1  0
M  END
