piperidine-amides-32263-covalent
     RDKit          3D

 28 30  0  0  0  0  0  0  0  0999 V2000
    7.1040   -3.2580   19.2460 C   0  0  0  0  0  0  0  0  0  0  0  0
    6.3380   -4.0260   20.2640 C   0  0  0  0  0  0  0  0  0  0  0  0
    5.2940   -4.6010   19.9110 O   0  0  0  0  0  0  0  0  0  0  0  0
    6.8370   -4.1270   21.5870 N   0  0  0  0  0  0  0  0  0  0  0  0
    6.6540   -5.3440   22.3490 C   0  0  0  0  0  0  0  0  0  0  0  0
    6.0580   -5.0000   23.7260 C   0  0  0  0  0  0  0  0  0  0  0  0
    6.1430   -3.5230   23.9490 C   0  0  0  0  0  0  0  0  0  0  0  0
    5.6300   -3.1440   25.2860 C   0  0  0  0  0  0  0  0  0  0  0  0
    4.7750   -3.9030   25.7510 O   0  0  0  0  0  0  0  0  0  0  0  0
    6.0550   -1.9990   25.9800 N   0  0  0  0  0  0  0  0  0  0  0  0
    6.4250   -2.0050   27.3050 C   0  0  0  0  0  0  0  0  0  0  0  0
    5.4500   -1.1970   27.6980 C   0  0  0  0  0  0  0  0  0  0  0  0
    6.0000   -0.1120   28.4960 N   0  0  0  0  0  0  0  0  0  0  0  0
    5.6860    1.2190   28.2870 C   0  0  0  0  0  0  0  0  0  0  0  0
    5.8670    1.9040   29.4730 C   0  0  0  0  0  0  0  0  0  0  0  0
    5.4880    1.2150   30.6650 N   0  0  0  0  0  0  0  0  0  0  0  0
    4.6640    1.9200   31.5910 C   0  0  0  0  0  0  0  0  0  0  0  0
    4.9460    3.2020   31.8170 O   0  0  0  0  0  0  0  0  0  0  0  0
    3.5970    1.3450   32.2620 O   0  0  0  0  0  0  0  0  0  0  0  0
    2.2790    1.3880   31.7400 C   0  0  0  0  0  0  0  0  0  0  0  0
    1.5760    0.0940   32.1550 C   0  0  0  0  0  0  0  0  0  0  0  0
    2.4470    1.6250   30.3660 C   0  0  0  0  0  0  0  0  0  0  0  0
    1.3480    2.4700   32.2340 C   0  0  0  0  0  0  0  0  0  0  0  0
    5.4470   -0.2250   30.5540 C   0  0  0  0  0  0  0  0  0  0  0  0
    6.4330   -0.5780   29.6680 C   0  0  0  0  0  0  0  0  0  0  0  0
    5.0390   -0.9290   26.2580 C   0  0  0  0  0  0  0  0  0  0  0  0
    7.4780   -2.9530   23.6370 C   0  0  0  0  0  0  0  0  0  0  0  0
    7.7120   -3.1000   22.1390 C   0  0  0  0  0  0  0  0  0  0  0  0
  1  2  1  0
  2  3  2  0
  2  4  1  0
  4  5  1  0
  5  6  1  0
  6  7  1  0
  7  8  1  0
  8  9  2  0
  8 10  1  0
 10 11  1  0
 11 12  1  0
 12 13  1  0
 13 14  1  0
 14 15  1  0
 15 16  1  0
 16 17  1  0
 17 18  2  0
 17 19  1  0
 20 19  1  0
 20 21  1  0
 20 22  1  0
 20 23  1  0
 16 24  1  0
 13 25  1  0
 24 25  1  0
 10 26  1  0
 12 26  1  0
  7 27  1  0
  4 28  1  0
 27 28  1  0
M  END
