piperidine-amides-665-covalent
     RDKit          3D

 26 28  0  0  0  0  0  0  0  0999 V2000
    7.0170   -3.3840   19.3190 C   0  0  0  0  0  0  0  0  0  0  0  0
    6.3550   -4.1460   20.3600 C   0  0  0  0  0  0  0  0  0  0  0  0
    5.3790   -4.8690   19.9910 O   0  0  0  0  0  0  0  0  0  0  0  0
    6.7520   -4.1700   21.7250 N   0  0  0  0  0  0  0  0  0  0  0  0
    7.6880   -3.0930   22.1840 C   0  0  0  0  0  0  0  0  0  0  0  0
    7.4380   -2.9850   23.7500 C   0  0  0  0  0  0  0  0  0  0  0  0
    6.1780   -3.7680   23.9960 C   0  0  0  0  0  0  0  0  0  0  0  0
    5.3920   -3.4900   25.3570 C   0  0  0  0  0  0  0  0  0  0  0  0
    4.3480   -4.1180   25.3470 O   0  0  0  0  0  0  0  0  0  0  0  0
    5.9990   -2.6820   26.1290 N   0  0  0  0  0  0  0  0  0  0  0  0
    6.5000   -1.7950   27.0280 C   0  0  2  0  0  0  0  0  0  0  0  0
    6.6820   -1.7110   28.3920 C   0  0  0  0  0  0  0  0  0  0  0  0
    6.9900   -0.3820   28.8290 C   0  0  0  0  0  0  0  0  0  0  0  0
    6.8510    1.0020   29.0000 O   0  0  0  0  0  0  0  0  0  0  0  0
    5.8270   -0.0690   28.1930 N   0  0  0  0  0  0  0  0  0  0  0  0
    4.9890    0.6560   29.0450 C   0  0  0  0  0  0  0  0  0  0  0  0
    3.9220   -0.3510   29.5260 C   0  0  0  0  0  0  0  0  0  0  0  0
    2.7510    0.2380   29.2370 N   0  0  0  0  0  0  0  0  0  0  0  0
    2.5960    1.2800   30.0410 C   0  0  0  0  0  0  0  0  0  0  0  0
    1.4730    1.9670   29.5540 C   0  0  0  0  0  0  0  0  0  0  0  0
    0.7310    1.4570   28.4980 O   0  0  0  0  0  0  0  0  0  0  0  0
    0.5780    0.0670   28.2630 C   0  0  0  0  0  0  0  0  0  0  0  0
    1.6820   -0.7130   29.0440 C   0  0  0  0  0  0  0  0  0  0  0  0
    5.7870   -0.4790   26.8270 C   0  0  0  0  0  0  0  0  0  0  0  0
    6.2980   -5.2430   23.6930 C   0  0  0  0  0  0  0  0  0  0  0  0
    6.7050   -5.4390   22.4180 C   0  0  0  0  0  0  0  0  0  0  0  0
  1  2  1  0
  2  3  2  0
  2  4  1  0
  4  5  1  0
  5  6  1  0
  6  7  1  0
  7  8  1  0
  8  9  2  0
  8 10  1  0
 11 10  1  1
 11 12  1  0
 12 13  1  0
 13 14  2  0
 13 15  1  0
 15 16  1  0
 16 17  1  0
 17 18  1  0
 18 19  1  0
 19 20  1  0
 20 21  1  0
 21 22  1  0
 18 23  1  0
 22 23  1  0
 11 24  1  0
 15 24  1  0
  7 25  1  0
  4 26  1  0
 25 26  1  0
M  END
