piperidine-amides-19233-covalent
     RDKit          3D

 20 21  0  0  0  0  0  0  0  0999 V2000
    7.0590   -3.4230   19.3140 C   0  0  0  0  0  0  0  0  0  0  0  0
    6.3530   -4.1610   20.3410 C   0  0  0  0  0  0  0  0  0  0  0  0
    5.3360   -4.8260   19.9760 O   0  0  0  0  0  0  0  0  0  0  0  0
    6.7790   -4.2060   21.6880 N   0  0  0  0  0  0  0  0  0  0  0  0
    6.7630   -5.5670   22.3120 C   0  0  0  0  0  0  0  0  0  0  0  0
    6.2120   -5.2960   23.7720 C   0  0  0  0  0  0  0  0  0  0  0  0
    6.5090   -3.8490   24.0120 C   0  0  0  0  0  0  0  0  0  0  0  0
    5.7950   -3.1640   25.2660 C   0  0  0  0  0  0  0  0  0  0  0  0
    4.8820   -2.5010   24.7980 O   0  0  0  0  0  0  0  0  0  0  0  0
    6.2070   -3.4010   26.4720 N   0  0  0  0  0  0  0  0  0  0  0  0
    6.0290   -3.3520   27.8250 C   0  0  0  0  0  0  0  0  0  0  0  0
    5.8180   -4.3150   28.7270 C   0  0  0  0  0  0  0  0  0  0  0  0
    6.3730   -5.7790   28.2120 S   0  0  0  0  0  0  0  0  0  0  0  0
    5.2520   -6.5210   27.6050 O   0  0  0  0  0  0  0  0  0  0  0  0
    6.9600   -6.4500   29.3980 O   0  0  0  0  0  0  0  0  0  0  0  0
    7.5630   -5.4210   27.0270 C   0  0  0  0  0  0  0  0  0  0  0  0
    7.6270   -3.9330   26.7750 C   0  0  1  0  0  0  0  0  0  0  0  0
    8.4780   -4.2290   25.5380 C   0  0  0  0  0  0  0  0  0  0  0  0
    7.8160   -3.2890   23.5280 C   0  0  0  0  0  0  0  0  0  0  0  0
    7.7190   -3.1850   22.1410 C   0  0  0  0  0  0  0  0  0  0  0  0
  1  2  1  0
  2  3  2  0
  2  4  1  0
  4  5  1  0
  5  6  1  0
  6  7  1  0
  7  8  1  0
  8  9  2  0
  8 10  1  0
 10 11  1  0
 11 12  1  0
 13 12  1  0
 13 14  2  0
 13 15  2  0
 13 16  1  0
 10 17  1  0
 16 17  1  0
 17 18  1  6
  7 19  1  0
  4 20  1  0
 19 20  1  0
M  END
