piperidine-amides-6327-covalent
     RDKit          3D

 25 27  0  0  0  0  0  0  0  0999 V2000
    7.1200   -3.2780   19.2100 C   0  0  0  0  0  0  0  0  0  0  0  0
    6.3740   -4.0530   20.2120 C   0  0  0  0  0  0  0  0  0  0  0  0
    5.2920   -4.5960   19.9020 O   0  0  0  0  0  0  0  0  0  0  0  0
    6.8980   -4.2510   21.4930 N   0  0  0  0  0  0  0  0  0  0  0  0
    7.6820   -3.2150   22.1250 C   0  0  0  0  0  0  0  0  0  0  0  0
    6.8160   -2.6610   23.2490 C   0  0  0  0  0  0  0  0  0  0  0  0
    6.5610   -3.8280   24.1750 C   0  0  0  0  0  0  0  0  0  0  0  0
    5.7220   -3.4110   25.3090 C   0  0  0  0  0  0  0  0  0  0  0  0
    4.4840   -3.3970   25.1500 O   0  0  0  0  0  0  0  0  0  0  0  0
    6.3180   -3.0370   26.5330 N   0  0  0  0  0  0  0  0  0  0  0  0
    6.4110   -1.6460   26.8590 C   0  0  0  0  0  0  0  0  0  0  0  0
    6.2890   -1.4800   28.3630 C   0  0  0  0  0  0  0  0  0  0  0  0
    5.4520   -2.3500   29.0190 C   0  0  0  0  0  0  0  0  0  0  0  0
    4.3860   -1.9090   29.8010 C   0  0  0  0  0  0  0  0  0  0  0  0
    3.5620   -2.8340   30.4480 C   0  0  0  0  0  0  0  0  0  0  0  0
    3.8150   -4.1540   30.3030 C   0  0  0  0  0  0  0  0  0  0  0  0
    4.9580   -4.6240   29.4650 C   0  0  0  0  0  0  0  0  0  0  0  0
    5.7490   -3.7400   28.8460 N   0  0  0  0  0  0  0  0  0  0  0  0
    5.5840   -0.0590   28.3840 C   0  0  0  0  0  0  0  0  0  0  0  0
    5.9790    0.8410   29.5270 C   0  0  0  0  0  0  0  0  0  0  0  0
    7.2250    0.6930   29.8850 O   0  0  0  0  0  0  0  0  0  0  0  0
    7.3400   -0.6580   30.1900 C   0  0  0  0  0  0  0  0  0  0  0  0
    7.4910   -1.3510   28.9960 C   0  0  0  0  0  0  0  0  0  0  0  0
    5.7510   -4.8900   23.4320 C   0  0  0  0  0  0  0  0  0  0  0  0
    6.5330   -5.4170   22.2600 C   0  0  0  0  0  0  0  0  0  0  0  0
  1  2  1  0
  2  3  2  0
  2  4  1  0
  4  5  1  0
  5  6  1  0
  6  7  1  0
  7  8  1  0
  8  9  2  0
  8 10  1  0
 10 11  1  0
 12 11  1  0
 12 13  1  0
 13 14  2  0
 14 15  1  0
 15 16  2  0
 16 17  1  0
 13 18  1  0
 17 18  2  0
 12 19  1  0
 19 20  1  0
 20 21  1  0
 21 22  1  0
 12 23  1  0
 22 23  1  0
  7 24  1  0
  4 25  1  0
 24 25  1  0
M  END
