piperidine-amides-24592-covalent
     RDKit          3D

 23 24  0  0  0  0  0  0  0  0999 V2000
    7.0890   -3.3260   19.3230 C   0  0  0  0  0  0  0  0  0  0  0  0
    6.3530   -4.1170   20.3180 C   0  0  0  0  0  0  0  0  0  0  0  0
    5.3380   -4.7570   19.9640 O   0  0  0  0  0  0  0  0  0  0  0  0
    6.8070   -4.2030   21.6450 N   0  0  0  0  0  0  0  0  0  0  0  0
    7.6440   -3.1340   22.1760 C   0  0  0  0  0  0  0  0  0  0  0  0
    7.4120   -3.0370   23.6940 C   0  0  0  0  0  0  0  0  0  0  0  0
    6.0530   -3.6490   23.9450 C   0  0  0  0  0  0  0  0  0  0  0  0
    5.5370   -3.4360   25.3180 C   0  0  0  0  0  0  0  0  0  0  0  0
    4.3150   -3.6120   25.4950 O   0  0  0  0  0  0  0  0  0  0  0  0
    6.3680   -3.0360   26.3920 N   0  0  0  0  0  0  0  0  0  0  0  0
    6.8530   -1.6860   26.3990 C   0  0  0  0  0  0  0  0  0  0  0  0
    5.7360   -0.7510   25.9920 C   0  0  0  0  0  0  0  0  0  0  0  0
    4.7200   -0.8410   24.6490 S   0  0  0  0  0  0  0  0  0  0  0  0
    3.8780    0.5830   25.0750 C   0  0  0  0  0  0  0  0  0  0  0  0
    4.4250    1.0380   26.2150 C   0  0  0  0  0  0  0  0  0  0  0  0
    5.5180    0.4260   26.9290 C   0  0  0  0  0  0  0  0  0  0  0  0
    6.1590    0.7890   28.0890 C   0  0  0  0  0  0  0  0  0  0  0  0
    6.0870   -3.6520   27.7060 C   0  0  0  0  0  0  0  0  0  0  0  0
    5.9650   -5.1640   27.6320 C   0  0  0  0  0  0  0  0  0  0  0  0
    6.4860   -5.9380   28.8060 C   0  0  0  0  0  0  0  0  0  0  0  0
    5.0390   -5.8750   28.6020 C   0  0  0  0  0  0  0  0  0  0  0  0
    6.1490   -5.1190   23.6650 C   0  0  0  0  0  0  0  0  0  0  0  0
    6.5330   -5.3940   22.3880 C   0  0  0  0  0  0  0  0  0  0  0  0
  1  2  1  0
  2  3  2  0
  2  4  1  0
  4  5  1  0
  5  6  1  0
  6  7  1  0
  7  8  1  0
  8  9  2  0
  8 10  1  0
 10 11  1  0
 11 12  1  0
 12 13  1  0
 13 14  1  0
 14 15  2  0
 12 16  2  0
 15 16  1  0
 16 17  1  0
 10 18  1  0
 18 19  1  0
 19 20  1  0
 19 21  1  0
  7 22  1  0
  4 23  1  0
 22 23  1  0
M  END
