piperidine-amides-14030-covalent
     RDKit          3D

 25 27  0  0  0  0  0  0  0  0999 V2000
    7.0790   -3.2770   19.2440 C   0  0  0  0  0  0  0  0  0  0  0  0
    6.3340   -4.0900   20.2470 C   0  0  0  0  0  0  0  0  0  0  0  0
    5.2760   -4.6410   19.9070 O   0  0  0  0  0  0  0  0  0  0  0  0
    6.8630   -4.2600   21.5420 N   0  0  0  0  0  0  0  0  0  0  0  0
    7.6760   -3.2340   22.1650 C   0  0  0  0  0  0  0  0  0  0  0  0
    7.4620   -3.3260   23.6780 C   0  0  0  0  0  0  0  0  0  0  0  0
    6.0330   -3.6940   23.8700 C   0  0  0  0  0  0  0  0  0  0  0  0
    5.4160   -3.3050   25.1700 C   0  0  0  0  0  0  0  0  0  0  0  0
    4.1830   -3.2620   25.1760 O   0  0  0  0  0  0  0  0  0  0  0  0
    6.1680   -3.0120   26.3110 N   0  0  0  0  0  0  0  0  0  0  0  0
    7.4450   -2.4350   26.3910 C   0  0  0  0  0  0  0  0  0  0  0  0
    7.7650   -1.1150   26.1970 C   0  0  0  0  0  0  0  0  0  0  0  0
    9.1200   -0.8780   26.2910 C   0  0  0  0  0  0  0  0  0  0  0  0
    9.6980    0.0370   25.4930 C   0  0  0  0  0  0  0  0  0  0  0  0
    9.3490    0.2650   24.2380 N   0  0  0  0  0  0  0  0  0  0  0  0
   10.0640    1.2410   23.6750 C   0  0  0  0  0  0  0  0  0  0  0  0
    9.5570    2.5910   23.1980 C   0  0  0  0  0  0  0  0  0  0  0  0
   10.6410    3.4650   22.6340 C   0  0  0  0  0  0  0  0  0  0  0  0
   11.9600    3.1130   22.5390 C   0  0  0  0  0  0  0  0  0  0  0  0
   12.6160    1.8400   22.9500 C   0  0  0  0  0  0  0  0  0  0  0  0
   11.5240    0.9440   23.5300 C   0  0  0  0  0  0  0  0  0  0  0  0
    8.1210   -0.0660   23.8360 C   0  0  0  0  0  0  0  0  0  0  0  0
    7.1470   -0.5680   24.9480 C   0  0  0  0  0  0  0  0  0  0  0  0
    5.7780   -5.1230   23.5380 C   0  0  0  0  0  0  0  0  0  0  0  0
    6.5870   -5.4730   22.2870 C   0  0  0  0  0  0  0  0  0  0  0  0
  1  2  1  0
  2  3  2  0
  2  4  1  0
  4  5  1  0
  5  6  1  0
  6  7  1  0
  7  8  1  0
  8  9  2  0
  8 10  1  0
 10 11  1  0
 11 12  1  0
 12 13  1  0
 13 14  1  0
 14 15  1  0
 15 16  1  0
 16 17  2  0
 17 18  1  0
 18 19  2  0
 19 20  1  0
 16 21  1  0
 20 21  2  0
 15 22  1  0
 12 23  1  0
 22 23  1  0
  7 24  1  0
  4 25  1  0
 24 25  1  0
M  END
