piperidine-amides-24868-covalent
     RDKit          3D

 24 26  0  0  0  0  0  0  0  0999 V2000
    7.0550   -3.3360   19.3880 C   0  0  0  0  0  0  0  0  0  0  0  0
    6.3970   -4.2300   20.3560 C   0  0  0  0  0  0  0  0  0  0  0  0
    5.4040   -4.9020   19.9970 O   0  0  0  0  0  0  0  0  0  0  0  0
    6.8910   -4.3790   21.6680 N   0  0  0  0  0  0  0  0  0  0  0  0
    6.6070   -5.6180   22.3670 C   0  0  0  0  0  0  0  0  0  0  0  0
    6.2970   -5.2920   23.8440 C   0  0  0  0  0  0  0  0  0  0  0  0
    6.1170   -3.7950   23.9320 C   0  0  0  0  0  0  0  0  0  0  0  0
    5.6040   -3.3210   25.2440 C   0  0  0  0  0  0  0  0  0  0  0  0
    4.7400   -2.4260   25.2060 O   0  0  0  0  0  0  0  0  0  0  0  0
    6.0220   -3.8370   26.4980 N   0  0  0  0  0  0  0  0  0  0  0  0
    6.4560   -2.8730   27.4540 C   0  0  0  0  0  0  0  0  0  0  0  0
    6.6270   -3.7030   28.6820 C   0  0  0  0  0  0  0  0  0  0  0  0
    5.7430   -4.7060   28.6410 C   0  0  1  0  0  0  0  0  0  0  0  0
    6.3100   -5.9210   28.9600 C   0  0  0  0  0  0  0  0  0  0  0  0
    6.2070   -6.3110   30.2880 O   0  0  0  0  0  0  0  0  0  0  0  0
    4.6210   -4.3490   29.3610 C   0  0  0  0  0  0  0  0  0  0  0  0
    3.9110   -5.4080   29.9070 C   0  0  0  0  0  0  0  0  0  0  0  0
    2.4720   -5.2330   30.3420 C   0  0  0  0  0  0  0  0  0  0  0  0
    1.7210   -4.9330   29.2730 O   0  0  0  0  0  0  0  0  0  0  0  0
    2.5860   -4.7520   28.2290 C   0  0  0  0  0  0  0  0  0  0  0  0
    3.6380   -3.7270   28.5760 C   0  0  0  0  0  0  0  0  0  0  0  0
    5.4080   -4.9260   27.2800 C   0  0  0  0  0  0  0  0  0  0  0  0
    7.4090   -3.1360   23.5770 C   0  0  0  0  0  0  0  0  0  0  0  0
    7.6610   -3.3180   22.2530 C   0  0  0  0  0  0  0  0  0  0  0  0
  1  2  1  0
  2  3  2  0
  2  4  1  0
  4  5  1  0
  5  6  1  0
  6  7  1  0
  7  8  1  0
  8  9  2  0
  8 10  1  0
 10 11  1  0
 11 12  1  0
 12 13  1  0
 13 14  1  1
 14 15  1  0
 13 16  1  0
 16 17  1  0
 17 18  1  0
 18 19  1  0
 19 20  1  0
 16 21  1  0
 20 21  1  0
 10 22  1  0
 13 22  1  0
  7 23  1  0
  4 24  1  0
 23 24  1  0
M  END
