piperidine-amides-6791-covalent
     RDKit          3D

 23 24  0  0  0  0  0  0  0  0999 V2000
    7.0600   -3.2740   19.2290 C   0  0  0  0  0  0  0  0  0  0  0  0
    6.3230   -4.0510   20.2390 C   0  0  0  0  0  0  0  0  0  0  0  0
    5.2880   -4.6730   19.9220 O   0  0  0  0  0  0  0  0  0  0  0  0
    6.7830   -4.1470   21.5600 N   0  0  0  0  0  0  0  0  0  0  0  0
    6.6300   -5.4040   22.2610 C   0  0  0  0  0  0  0  0  0  0  0  0
    6.1000   -5.0860   23.6670 C   0  0  0  0  0  0  0  0  0  0  0  0
    5.7880   -3.6070   23.6900 C   0  0  0  0  0  0  0  0  0  0  0  0
    5.1560   -3.1930   24.9620 C   0  0  0  0  0  0  0  0  0  0  0  0
    3.9460   -2.8920   24.9440 O   0  0  0  0  0  0  0  0  0  0  0  0
    5.8830   -3.1470   26.1660 N   0  0  0  0  0  0  0  0  0  0  0  0
    5.6000   -4.1020   27.1930 C   0  0  0  0  0  0  0  0  0  0  0  0
    5.4770   -5.4530   26.5160 C   0  0  0  0  0  0  0  0  0  0  0  0
    4.3340   -3.7090   27.8560 C   0  0  0  0  0  0  0  0  0  0  0  0
    6.6660   -4.1680   28.1230 C   0  0  1  0  0  0  0  0  0  0  0  0
    6.4650   -5.1160   29.1170 C   0  0  0  0  0  0  0  0  0  0  0  0
    7.6740   -4.3900   27.2950 C   0  0  0  0  0  0  0  0  0  0  0  0
    7.9610   -3.4850   26.1060 C   0  0  0  0  0  0  0  0  0  0  0  0
    9.1570   -4.2000   25.5370 C   0  0  0  0  0  0  0  0  0  0  0  0
   10.0350   -5.3780   25.7760 C   0  0  0  0  0  0  0  0  0  0  0  0
    9.4700   -5.9590   26.9170 C   0  0  0  0  0  0  0  0  0  0  0  0
    8.4130   -5.5080   27.5930 C   0  0  0  0  0  0  0  0  0  0  0  0
    7.0930   -2.8410   23.5110 C   0  0  0  0  0  0  0  0  0  0  0  0
    7.6190   -3.1100   22.1310 C   0  0  0  0  0  0  0  0  0  0  0  0
  1  2  1  0
  2  3  2  0
  2  4  1  0
  4  5  1  0
  5  6  1  0
  6  7  1  0
  7  8  1  0
  8  9  2  0
  8 10  1  0
 11 10  1  0
 11 12  1  0
 11 13  1  0
 11 14  1  0
 14 15  1  1
 14 16  1  0
 16 17  2  0
 17 18  1  0
 18 19  2  0
 19 20  1  0
 16 21  1  0
 20 21  2  0
  7 22  1  0
  4 23  1  0
 22 23  1  0
M  END
