piperidine-amides-34851-covalent
     RDKit          3D

 31 34  0  0  0  0  0  0  0  0999 V2000
    7.0510   -3.3430   19.3210 C   0  0  0  0  0  0  0  0  0  0  0  0
    6.3770   -4.2020   20.3280 C   0  0  0  0  0  0  0  0  0  0  0  0
    5.3620   -4.7940   19.9670 O   0  0  0  0  0  0  0  0  0  0  0  0
    6.9240   -4.3570   21.6050 N   0  0  0  0  0  0  0  0  0  0  0  0
    7.7260   -3.3390   22.2400 C   0  0  0  0  0  0  0  0  0  0  0  0
    7.0000   -2.8030   23.4360 C   0  0  0  0  0  0  0  0  0  0  0  0
    6.3640   -3.9400   24.2410 C   0  0  0  0  0  0  0  0  0  0  0  0
    5.3220   -3.3490   25.1110 C   0  0  0  0  0  0  0  0  0  0  0  0
    4.3980   -2.7270   24.5870 O   0  0  0  0  0  0  0  0  0  0  0  0
    5.3290   -3.4620   26.5100 N   0  0  0  0  0  0  0  0  0  0  0  0
    6.5100   -3.1360   27.1760 C   0  0  0  0  0  0  0  0  0  0  0  0
    6.5650   -4.1390   28.3250 C   0  0  0  0  0  0  0  0  0  0  0  0
    5.4190   -4.3270   29.0250 C   0  0  0  0  0  0  0  0  0  0  0  0
    4.4100   -4.5450   28.1760 C   0  0  0  0  0  0  0  0  0  0  0  0
    4.2500   -3.4480   27.3910 C   0  0  0  0  0  0  0  0  0  0  0  0
    5.3600   -5.5410   29.8540 C   0  0  0  0  0  0  0  0  0  0  0  0
    6.2730   -6.5090   29.5220 N   0  0  0  0  0  0  0  0  0  0  0  0
    6.0420   -7.5440   30.4010 C   0  0  0  0  0  0  0  0  0  0  0  0
    5.0680   -7.3700   31.2950 N   0  0  0  0  0  0  0  0  0  0  0  0
    4.6040   -6.1220   30.9870 C   0  0  0  0  0  0  0  0  0  0  0  0
    3.5740   -5.1180   31.4050 C   0  0  0  0  0  0  0  0  0  0  0  0
    3.7710   -3.7980   30.6840 C   0  0  0  0  0  0  0  0  0  0  0  0
    4.8240   -3.4470   29.8820 N   0  0  0  0  0  0  0  0  0  0  0  0
    5.1770   -2.0530   30.1010 C   0  0  0  0  0  0  0  0  0  0  0  0
    6.4140   -1.5020   29.7850 O   0  0  0  0  0  0  0  0  0  0  0  0
    4.1960   -1.0950   30.7060 C   0  0  0  0  0  0  0  0  0  0  0  0
    2.9820   -1.3530   30.1720 F   0  0  0  0  0  0  0  0  0  0  0  0
    4.1650   -1.1840   32.0880 F   0  0  0  0  0  0  0  0  0  0  0  0
    4.5550    0.1790   30.3190 F   0  0  0  0  0  0  0  0  0  0  0  0
    5.7020   -4.9970   23.3580 C   0  0  0  0  0  0  0  0  0  0  0  0
    6.5770   -5.4980   22.4210 C   0  0  0  0  0  0  0  0  0  0  0  0
  1  2  1  0
  2  3  2  0
  2  4  1  0
  4  5  1  0
  5  6  1  0
  6  7  1  0
  7  8  1  0
  8  9  2  0
  8 10  1  0
 10 11  1  0
 11 12  1  0
 12 13  1  0
 13 14  1  0
 10 15  1  0
 14 15  1  0
 13 16  1  0
 16 17  1  0
 17 18  2  0
 18 19  1  0
 16 20  2  0
 19 20  1  0
 20 21  1  0
 21 22  1  0
 13 23  1  0
 22 23  1  0
 23 24  1  0
 24 25  2  0
 24 26  1  0
 26 27  1  0
 26 28  1  0
 26 29  1  0
  7 30  1  0
  4 31  1  0
 30 31  1  0
M  END
