piperidine-amides-14821-covalent
     RDKit          3D

 22 23  0  0  0  0  0  0  0  0999 V2000
    7.0660   -3.3870   19.4110 C   0  0  0  0  0  0  0  0  0  0  0  0
    6.3960   -4.2230   20.4020 C   0  0  0  0  0  0  0  0  0  0  0  0
    5.4310   -4.9100   20.0080 O   0  0  0  0  0  0  0  0  0  0  0  0
    6.8740   -4.2640   21.7470 N   0  0  0  0  0  0  0  0  0  0  0  0
    7.6940   -3.2000   22.2470 C   0  0  0  0  0  0  0  0  0  0  0  0
    6.9570   -2.5010   23.3490 C   0  0  0  0  0  0  0  0  0  0  0  0
    6.6320   -3.5270   24.4040 C   0  0  0  0  0  0  0  0  0  0  0  0
    5.6080   -2.9640   25.3900 C   0  0  0  0  0  0  0  0  0  0  0  0
    4.4400   -3.0240   24.9590 O   0  0  0  0  0  0  0  0  0  0  0  0
    5.9730   -2.4360   26.7080 N   0  0  0  0  0  0  0  0  0  0  0  0
    6.5600   -1.1090   26.9510 C   0  0  0  0  0  0  0  0  0  0  0  0
    6.9590   -1.8670   27.9780 C   0  0  0  0  0  0  0  0  0  0  0  0
    6.2170   -3.0710   27.5160 N   0  0  0  0  0  0  0  0  0  0  0  0
    6.0940   -4.3790   28.0630 C   0  0  0  0  0  0  0  0  0  0  0  0
    5.5700   -2.6970   26.3260 N   0  0  0  0  0  0  0  0  0  0  0  0
    5.7380   -1.4070   25.8720 C   0  0  0  0  0  0  0  0  0  0  0  0
    5.3600   -0.4200   24.7910 C   0  0  0  0  0  0  0  0  0  0  0  0
    6.2900   -0.1730   23.8120 O   0  0  0  0  0  0  0  0  0  0  0  0
    4.2370    0.3060   24.6570 N   0  0  0  0  0  0  0  0  0  0  0  0
    3.9650    1.4020   25.3790 C   0  0  0  0  0  0  0  0  0  0  0  0
    6.0140   -4.8130   23.9010 C   0  0  0  0  0  0  0  0  0  0  0  0
    6.4820   -5.3500   22.5620 C   0  0  0  0  0  0  0  0  0  0  0  0
  1  2  1  0
  2  3  2  0
  2  4  1  0
  4  5  1  0
  5  6  1  0
  6  7  1  0
  7  8  1  0
  8  9  2  0
  8 10  1  0
 10 11  1  0
 11 12  2  0
 12 13  1  0
 13 14  1  0
 13 15  1  0
 11 16  1  0
 15 16  2  0
 16 17  1  0
 17 18  2  0
 17 19  1  0
 19 20  1  0
  7 21  1  0
  4 22  1  0
 21 22  1  0
M  END
