piperidine-amides-3025-covalent
     RDKit          3D

 23 24  0  0  0  0  0  0  0  0999 V2000
    7.0970   -3.3580   19.2620 C   0  0  0  0  0  0  0  0  0  0  0  0
    6.3600   -4.1330   20.2490 C   0  0  0  0  0  0  0  0  0  0  0  0
    5.3070   -4.6810   19.9350 O   0  0  0  0  0  0  0  0  0  0  0  0
    6.9020   -4.3110   21.5610 N   0  0  0  0  0  0  0  0  0  0  0  0
    7.6600   -3.2430   22.1640 C   0  0  0  0  0  0  0  0  0  0  0  0
    6.9010   -2.6680   23.3250 C   0  0  0  0  0  0  0  0  0  0  0  0
    6.5530   -3.8110   24.2590 C   0  0  0  0  0  0  0  0  0  0  0  0
    5.7420   -3.2950   25.3930 C   0  0  0  0  0  0  0  0  0  0  0  0
    4.5230   -3.0630   25.2890 O   0  0  0  0  0  0  0  0  0  0  0  0
    6.3830   -3.0790   26.6300 N   0  0  0  0  0  0  0  0  0  0  0  0
    6.3730   -1.7560   27.2150 C   0  0  0  0  0  0  0  0  0  0  0  0
    5.4790   -0.7850   26.4830 C   0  0  0  0  0  0  0  0  0  0  0  0
    5.2920    0.5460   26.8530 C   0  0  0  0  0  0  0  0  0  0  0  0
    4.5400    1.3360   26.2340 O   0  0  0  0  0  0  0  0  0  0  0  0
    3.8610    0.8570   25.1040 C   0  0  0  0  0  0  0  0  0  0  0  0
    6.1210    0.9200   28.1130 C   0  0  0  0  0  0  0  0  0  0  0  0
    6.0570    2.5430   28.7770 Cl  0  0  0  0  0  0  0  0  0  0  0  0
    6.9620   -0.0440   28.7700 C   0  0  0  0  0  0  0  0  0  0  0  0
    7.6680    0.3680   29.8550 O   0  0  0  0  0  0  0  0  0  0  0  0
    8.4200   -0.4470   30.6800 C   0  0  0  0  0  0  0  0  0  0  0  0
    7.0330   -1.2890   28.2970 C   0  0  0  0  0  0  0  0  0  0  0  0
    5.9380   -5.0170   23.6430 C   0  0  0  0  0  0  0  0  0  0  0  0
    6.4580   -5.4070   22.3350 C   0  0  0  0  0  0  0  0  0  0  0  0
  1  2  1  0
  2  3  2  0
  2  4  1  0
  4  5  1  0
  5  6  1  0
  6  7  1  0
  7  8  1  0
  8  9  2  0
  8 10  1  0
 10 11  1  0
 11 12  2  0
 12 13  1  0
 13 14  1  0
 14 15  1  0
 13 16  2  0
 16 17  1  0
 16 18  1  0
 18 19  1  0
 19 20  1  0
 11 21  1  0
 18 21  2  0
  7 22  1  0
  4 23  1  0
 22 23  1  0
M  END
