piperidine-amides-7373-covalent
     RDKit          3D

 19 19  0  0  0  0  0  0  0  0999 V2000
    7.0930   -3.2700   19.2220 C   0  0  0  0  0  0  0  0  0  0  0  0
    6.3530   -4.0210   20.2410 C   0  0  0  0  0  0  0  0  0  0  0  0
    5.2710   -4.5510   19.8810 O   0  0  0  0  0  0  0  0  0  0  0  0
    6.8700   -4.1670   21.5260 N   0  0  0  0  0  0  0  0  0  0  0  0
    7.6850   -3.1480   22.1410 C   0  0  0  0  0  0  0  0  0  0  0  0
    7.0120   -2.7220   23.4110 C   0  0  0  0  0  0  0  0  0  0  0  0
    6.5530   -3.8940   24.2410 C   0  0  0  0  0  0  0  0  0  0  0  0
    5.7390   -3.3780   25.3610 C   0  0  0  0  0  0  0  0  0  0  0  0
    4.7330   -2.6800   25.0960 O   0  0  0  0  0  0  0  0  0  0  0  0
    6.0470   -3.6460   26.7030 N   0  0  0  0  0  0  0  0  0  0  0  0
    6.6510   -4.9040   27.0460 C   0  0  2  0  0  0  0  0  0  0  0  0
    5.9100   -5.6120   28.1620 C   0  0  0  0  0  0  0  0  0  0  0  0
    5.0610   -6.6900   28.1040 C   0  0  0  0  0  0  0  0  0  0  0  0
    8.0700   -4.6570   27.4300 C   0  0  0  0  0  0  0  0  0  0  0  0
    8.4180   -4.3570   28.6470 O   0  0  0  0  0  0  0  0  0  0  0  0
    9.0410   -4.7410   26.4840 O   0  0  0  0  0  0  0  0  0  0  0  0
    9.5150   -5.9630   26.0620 C   0  0  0  0  0  0  0  0  0  0  0  0
    5.7850   -4.8630   23.3830 C   0  0  0  0  0  0  0  0  0  0  0  0
    6.5280   -5.3000   22.3120 C   0  0  0  0  0  0  0  0  0  0  0  0
  1  2  1  0
  2  3  2  0
  2  4  1  0
  4  5  1  0
  5  6  1  0
  6  7  1  0
  7  8  1  0
  8  9  2  0
  8 10  1  0
 10 11  1  0
 11 12  1  1
 12 13  2  3
 11 14  1  0
 14 15  2  0
 14 16  1  0
 16 17  1  0
  7 18  1  0
  4 19  1  0
 18 19  1  0
M  END
