piperidine-amides-32536-covalent
     RDKit          3D

 27 29  0  0  0  0  0  0  0  0999 V2000
    7.0250   -3.3600   19.3910 C   0  0  0  0  0  0  0  0  0  0  0  0
    6.3660   -4.2510   20.3860 C   0  0  0  0  0  0  0  0  0  0  0  0
    5.4030   -4.9370   20.0040 O   0  0  0  0  0  0  0  0  0  0  0  0
    6.8670   -4.3320   21.7130 N   0  0  0  0  0  0  0  0  0  0  0  0
    7.6850   -3.3100   22.3160 C   0  0  0  0  0  0  0  0  0  0  0  0
    6.8630   -2.6580   23.4380 C   0  0  0  0  0  0  0  0  0  0  0  0
    6.2180   -3.7180   24.2900 C   0  0  0  0  0  0  0  0  0  0  0  0
    5.1540   -3.1380   25.1920 C   0  0  0  0  0  0  0  0  0  0  0  0
    4.4200   -2.2910   24.6900 O   0  0  0  0  0  0  0  0  0  0  0  0
    5.0260   -3.5550   26.5300 N   0  0  0  0  0  0  0  0  0  0  0  0
    4.9270   -2.7430   27.7070 C   0  0  0  0  0  0  0  0  0  0  0  0
    5.5050   -3.0990   28.9350 C   0  0  0  0  0  0  0  0  0  0  0  0
    6.1020   -4.3570   29.1130 C   0  0  0  0  0  0  0  0  0  0  0  0
    5.9300   -5.1720   28.0710 C   0  0  1  0  0  0  0  0  0  0  0  0
    4.8240   -6.1520   28.1720 C   0  0  0  0  0  0  0  0  0  0  0  0
    3.8800   -6.1540   27.1650 N   0  0  0  0  0  0  0  0  0  0  0  0
    3.0030   -7.0470   27.4070 N   0  0  0  0  0  0  0  0  0  0  0  0
    3.4540   -7.6040   28.6220 C   0  0  0  0  0  0  0  0  0  0  0  0
    4.7710   -7.0120   29.2460 C   0  0  0  0  0  0  0  0  0  0  0  0
    5.4950   -7.2570   30.3420 N   0  0  0  0  0  0  0  0  0  0  0  0
    4.8830   -7.1490   31.9050 S   0  0  0  0  0  0  0  0  0  0  0  0
    3.5320   -5.9660   32.1040 C   0  0  0  0  0  0  0  0  0  0  0  0
    6.0710   -6.8530   32.7990 O   0  0  0  0  0  0  0  0  0  0  0  0
    4.3420   -8.4870   32.2620 O   0  0  0  0  0  0  0  0  0  0  0  0
    6.0030   -4.4200   26.9420 C   0  0  0  0  0  0  0  0  0  0  0  0
    5.6270   -4.8970   23.5510 C   0  0  0  0  0  0  0  0  0  0  0  0
    6.4820   -5.3910   22.5920 C   0  0  0  0  0  0  0  0  0  0  0  0
  1  2  1  0
  2  3  2  0
  2  4  1  0
  4  5  1  0
  5  6  1  0
  6  7  1  0
  7  8  1  0
  8  9  2  0
  8 10  1  0
 10 11  1  0
 11 12  1  0
 12 13  1  0
 13 14  1  0
 14 15  1  1
 15 16  2  0
 16 17  1  0
 17 18  1  0
 15 19  1  0
 18 19  2  0
 19 20  1  0
 21 20  1  0
 21 22  1  0
 21 23  2  0
 21 24  2  0
 10 25  1  0
 14 25  1  0
  7 26  1  0
  4 27  1  0
 26 27  1  0
M  END
