piperidine-amides-30566-covalent
     RDKit          3D

 23 25  0  0  0  0  0  0  0  0999 V2000
    7.0410   -3.3680   19.4100 C   0  0  0  0  0  0  0  0  0  0  0  0
    6.3910   -4.2520   20.3790 C   0  0  0  0  0  0  0  0  0  0  0  0
    5.3910   -4.8910   19.9980 O   0  0  0  0  0  0  0  0  0  0  0  0
    6.8820   -4.4590   21.6920 N   0  0  0  0  0  0  0  0  0  0  0  0
    6.5610   -5.6180   22.4690 C   0  0  0  0  0  0  0  0  0  0  0  0
    5.8030   -5.0970   23.6730 C   0  0  0  0  0  0  0  0  0  0  0  0
    6.3430   -3.8110   24.2550 C   0  0  0  0  0  0  0  0  0  0  0  0
    5.3990   -3.2030   25.2580 C   0  0  0  0  0  0  0  0  0  0  0  0
    4.5830   -2.3280   24.8710 O   0  0  0  0  0  0  0  0  0  0  0  0
    5.3130   -3.5370   26.6440 N   0  0  0  0  0  0  0  0  0  0  0  0
    4.1130   -3.4420   27.4400 C   0  0  0  0  0  0  0  0  0  0  0  0
    4.0330   -4.7000   28.2250 C   0  0  0  0  0  0  0  0  0  0  0  0
    2.7210   -5.0630   28.7740 C   0  0  0  0  0  0  0  0  0  0  0  0
    2.5330   -6.3260   29.5780 C   0  0  0  0  0  0  0  0  0  0  0  0
    0.8190   -6.7980   30.2950 Br  0  0  0  0  0  0  0  0  0  0  0  0
    3.7550   -7.2080   29.7930 C   0  0  0  0  0  0  0  0  0  0  0  0
    5.0050   -6.6920   29.1710 C   0  0  0  0  0  0  0  0  0  0  0  0
    5.1010   -5.5280   28.4520 C   0  0  0  0  0  0  0  0  0  0  0  0
    6.2920   -5.1110   27.9070 C   0  0  2  0  0  0  0  0  0  0  0  0
    7.2600   -5.3380   28.9840 C   0  0  0  0  0  0  0  0  0  0  0  0
    6.4150   -3.6760   27.4840 C   0  0  0  0  0  0  0  0  0  0  0  0
    6.6870   -2.8250   23.1110 C   0  0  0  0  0  0  0  0  0  0  0  0
    7.5070   -3.3350   22.3860 C   0  0  0  0  0  0  0  0  0  0  0  0
  1  2  1  0
  2  3  2  0
  2  4  1  0
  4  5  1  0
  5  6  1  0
  6  7  1  0
  7  8  1  0
  8  9  2  0
  8 10  1  0
 10 11  1  0
 11 12  1  0
 12 13  2  0
 13 14  1  0
 14 15  1  0
 14 16  2  0
 16 17  1  0
 12 18  1  0
 17 18  2  0
 18 19  1  0
 19 20  1  1
 10 21  1  0
 19 21  1  0
  7 22  1  0
  4 23  1  0
 22 23  1  0
M  END
