piperidine-amides-32775-covalent
     RDKit          3D

 29 31  0  0  0  0  0  0  0  0999 V2000
    7.1490   -3.2820   19.2010 C   0  0  0  0  0  0  0  0  0  0  0  0
    6.3890   -4.0950   20.1910 C   0  0  0  0  0  0  0  0  0  0  0  0
    5.2840   -4.5600   19.8810 O   0  0  0  0  0  0  0  0  0  0  0  0
    6.9740   -4.3970   21.4330 N   0  0  0  0  0  0  0  0  0  0  0  0
    6.6260   -5.6190   22.0900 C   0  0  0  0  0  0  0  0  0  0  0  0
    5.6770   -5.1830   23.1860 C   0  0  0  0  0  0  0  0  0  0  0  0
    6.4780   -4.2820   24.0410 C   0  0  0  0  0  0  0  0  0  0  0  0
    5.6540   -3.6550   25.0730 C   0  0  0  0  0  0  0  0  0  0  0  0
    4.7100   -2.9640   24.6870 O   0  0  0  0  0  0  0  0  0  0  0  0
    5.9320   -3.8220   26.4080 N   0  0  0  0  0  0  0  0  0  0  0  0
    6.2740   -2.7140   27.1530 C   0  0  0  0  0  0  0  0  0  0  0  0
    6.2730   -1.4020   26.7140 C   0  0  0  0  0  0  0  0  0  0  0  0
    6.5990   -0.2990   27.5310 C   0  0  0  0  0  0  0  0  0  0  0  0
    6.9440   -0.4840   28.8440 C   0  0  0  0  0  0  0  0  0  0  0  0
    6.9640   -1.8550   29.3580 C   0  0  0  0  0  0  0  0  0  0  0  0
    6.6090   -3.0210   28.4330 C   0  0  0  0  0  0  0  0  0  0  0  0
    6.6380   -4.4220   29.0120 C   0  0  0  0  0  0  0  0  0  0  0  0
    5.8650   -5.2560   28.2770 C   0  0  0  0  0  0  0  0  0  0  0  0
    5.0100   -4.5400   27.3060 C   0  0  2  0  0  0  0  0  0  0  0  0
    4.3790   -5.8450   26.8260 C   0  0  0  0  0  0  0  0  0  0  0  0
    4.9950   -6.2410   25.6420 O   0  0  0  0  0  0  0  0  0  0  0  0
    3.3950   -6.6550   27.2760 N   0  0  0  0  0  0  0  0  0  0  0  0
    2.1720   -6.6030   26.7300 C   0  0  0  0  0  0  0  0  0  0  0  0
    1.8380   -7.0750   25.2960 C   0  0  0  0  0  0  0  0  0  0  0  0
    1.0030   -6.4840   24.3930 N   0  0  0  0  0  0  0  0  0  0  0  0
    1.4360   -6.1410   23.1520 C   0  0  0  0  0  0  0  0  0  0  0  0
    0.0090   -5.8090   25.0280 C   0  0  0  0  0  0  0  0  0  0  0  0
    7.0850   -3.0760   23.3540 C   0  0  0  0  0  0  0  0  0  0  0  0
    7.6400   -3.3350   22.1170 C   0  0  0  0  0  0  0  0  0  0  0  0
  1  2  1  0
  2  3  2  0
  2  4  1  0
  4  5  1  0
  5  6  1  0
  6  7  1  0
  7  8  1  0
  8  9  2  0
  8 10  1  0
 10 11  1  0
 11 12  2  0
 12 13  1  0
 13 14  2  0
 14 15  1  0
 11 16  1  0
 15 16  2  0
 16 17  1  0
 17 18  1  0
 10 19  1  0
 18 19  1  0
 19 20  1  6
 20 21  2  0
 20 22  1  0
 22 23  1  0
 23 24  1  0
 24 25  1  0
 25 26  1  0
 25 27  1  0
  7 28  1  0
  4 29  1  0
 28 29  1  0
M  END
