piperidine-amides-13336-covalent
     RDKit          3D

 23 24  0  0  0  0  0  0  0  0999 V2000
    7.1990   -3.2380   19.1470 C   0  0  0  0  0  0  0  0  0  0  0  0
    6.3510   -3.9560   20.1240 C   0  0  0  0  0  0  0  0  0  0  0  0
    5.2130   -4.2910   19.7600 O   0  0  0  0  0  0  0  0  0  0  0  0
    6.8390   -4.2940   21.3830 N   0  0  0  0  0  0  0  0  0  0  0  0
    7.5790   -3.3320   22.1270 C   0  0  0  0  0  0  0  0  0  0  0  0
    7.6870   -3.6390   23.5440 C   0  0  0  0  0  0  0  0  0  0  0  0
    6.4830   -4.2300   24.1680 C   0  0  0  0  0  0  0  0  0  0  0  0
    5.9000   -3.1790   24.9960 C   0  0  0  0  0  0  0  0  0  0  0  0
    4.6750   -2.9350   24.9420 O   0  0  0  0  0  0  0  0  0  0  0  0
    6.7600   -2.4660   25.8180 N   0  0  0  0  0  0  0  0  0  0  0  0
    6.3590   -1.9710   27.1190 C   0  0  0  0  0  0  0  0  0  0  0  0
    6.1620   -3.0200   28.1370 C   0  0  2  0  0  0  0  0  0  0  0  0
    6.9830   -3.1690   29.0620 O   0  0  0  0  0  0  0  0  0  0  0  0
    5.6660   -4.3630   27.8920 C   0  0  0  0  0  0  0  0  0  0  0  0
    5.0340   -4.9020   26.7910 C   0  0  0  0  0  0  0  0  0  0  0  0
    4.5940   -6.2120   26.7070 C   0  0  0  0  0  0  0  0  0  0  0  0
    3.7870   -6.8240   25.2670 Cl  0  0  0  0  0  0  0  0  0  0  0  0
    4.8060   -7.0020   27.7960 C   0  0  0  0  0  0  0  0  0  0  0  0
    5.4340   -6.4710   28.8820 C   0  0  0  0  0  0  0  0  0  0  0  0
    5.7600   -7.4830   30.4460 Br  0  0  0  0  0  0  0  0  0  0  0  0
    5.8500   -5.2070   28.9180 C   0  0  0  0  0  0  0  0  0  0  0  0
    5.5250   -4.7960   23.1660 C   0  0  0  0  0  0  0  0  0  0  0  0
    6.3240   -5.4260   22.1040 C   0  0  0  0  0  0  0  0  0  0  0  0
  1  2  1  0
  2  3  2  0
  2  4  1  0
  4  5  1  0
  5  6  1  0
  6  7  1  0
  7  8  1  0
  8  9  2  0
  8 10  1  0
 10 11  1  0
 11 12  1  0
 12 13  1  6
 12 14  1  0
 14 15  2  0
 15 16  1  0
 16 17  1  0
 16 18  2  0
 18 19  1  0
 19 20  1  0
 14 21  1  0
 19 21  2  0
  7 22  1  0
  4 23  1  0
 22 23  1  0
M  END
