piperidine-amides-29656-covalent
     RDKit          3D

 26 28  0  0  0  0  0  0  0  0999 V2000
    7.0700   -3.3520   19.3250 C   0  0  0  0  0  0  0  0  0  0  0  0
    6.4020   -4.1790   20.3190 C   0  0  0  0  0  0  0  0  0  0  0  0
    5.4090   -4.8350   19.9910 O   0  0  0  0  0  0  0  0  0  0  0  0
    6.9270   -4.2780   21.6590 N   0  0  0  0  0  0  0  0  0  0  0  0
    6.6780   -5.4680   22.4430 C   0  0  0  0  0  0  0  0  0  0  0  0
    6.0390   -5.1030   23.7580 C   0  0  0  0  0  0  0  0  0  0  0  0
    5.9640   -3.5890   23.7870 C   0  0  0  0  0  0  0  0  0  0  0  0
    5.3410   -3.0420   25.0210 C   0  0  0  0  0  0  0  0  0  0  0  0
    4.1630   -2.6470   25.0230 O   0  0  0  0  0  0  0  0  0  0  0  0
    6.0640   -2.9660   26.2210 N   0  0  0  0  0  0  0  0  0  0  0  0
    5.9430   -4.1460   27.0370 C   0  0  0  0  0  0  0  0  0  0  0  0
    4.5980   -4.1260   27.7260 C   0  0  0  0  0  0  0  0  0  0  0  0
    4.1910   -5.2180   28.4960 C   0  0  0  0  0  0  0  0  0  0  0  0
    2.9480   -5.2320   29.1570 C   0  0  0  0  0  0  0  0  0  0  0  0
    2.1210   -4.1470   29.0380 C   0  0  0  0  0  0  0  0  0  0  0  0
    2.5520   -3.0310   28.2430 C   0  0  0  0  0  0  0  0  0  0  0  0
    3.7610   -3.0330   27.6070 C   0  0  0  0  0  0  0  0  0  0  0  0
    6.2000   -1.6900   26.9160 C   0  0  0  0  0  0  0  0  0  0  0  0
    6.0680   -0.4140   26.3410 C   0  0  0  0  0  0  0  0  0  0  0  0
    6.2280    0.7770   27.1880 C   0  0  0  0  0  0  0  0  0  0  0  0
    6.5070    0.7190   28.5240 C   0  0  0  0  0  0  0  0  0  0  0  0
    6.6330   -0.5360   29.0670 C   0  0  0  0  0  0  0  0  0  0  0  0
    6.4700   -1.7670   28.2370 C   0  0  0  0  0  0  0  0  0  0  0  0
    6.6010   -3.3460   28.9340 Cl  0  0  0  0  0  0  0  0  0  0  0  0
    7.2730   -2.9230   23.5900 C   0  0  0  0  0  0  0  0  0  0  0  0
    7.7530   -3.2150   22.1930 C   0  0  0  0  0  0  0  0  0  0  0  0
  1  2  1  0
  2  3  2  0
  2  4  1  0
  4  5  1  0
  5  6  1  0
  6  7  1  0
  7  8  1  0
  8  9  2  0
  8 10  1  0
 10 11  1  0
 11 12  1  0
 12 13  2  0
 13 14  1  0
 14 15  2  0
 15 16  1  0
 12 17  1  0
 16 17  2  0
 10 18  1  0
 18 19  2  0
 19 20  1  0
 20 21  2  0
 21 22  1  0
 18 23  1  0
 22 23  2  0
 23 24  1  0
  7 25  1  0
  4 26  1  0
 25 26  1  0
M  END
