piperidine-amides-11233-covalent
     RDKit          3D

 19 20  0  0  0  0  0  0  0  0999 V2000
    7.1060   -3.2730   19.1790 C   0  0  0  0  0  0  0  0  0  0  0  0
    6.3540   -4.0140   20.1940 C   0  0  0  0  0  0  0  0  0  0  0  0
    5.2830   -4.5680   19.8860 O   0  0  0  0  0  0  0  0  0  0  0  0
    6.8450   -4.1570   21.4930 N   0  0  0  0  0  0  0  0  0  0  0  0
    7.7310   -3.1780   22.0880 C   0  0  0  0  0  0  0  0  0  0  0  0
    7.0090   -2.6840   23.2980 C   0  0  0  0  0  0  0  0  0  0  0  0
    6.5830   -3.8200   24.1710 C   0  0  0  0  0  0  0  0  0  0  0  0
    5.8890   -3.3420   25.3780 C   0  0  0  0  0  0  0  0  0  0  0  0
    4.6250   -3.3470   25.4540 O   0  0  0  0  0  0  0  0  0  0  0  0
    6.6190   -2.8490   26.4760 N   0  0  0  0  0  0  0  0  0  0  0  0
    6.0300   -2.7430   27.8200 C   0  0  0  0  0  0  0  0  0  0  0  0
    6.2840   -3.9700   28.6060 C   0  0  0  0  0  0  0  0  0  0  0  0
    5.4110   -5.1350   28.4350 C   0  0  1  0  0  0  0  0  0  0  0  0
    6.1080   -6.3440   28.9570 C   0  0  0  0  0  0  0  0  0  0  0  0
    5.3350   -6.9010   30.1170 C   0  0  0  0  0  0  0  0  0  0  0  0
    3.9470   -6.4980   29.8670 N   0  0  0  0  0  0  0  0  0  0  0  0
    3.9970   -5.2730   29.0760 C   0  0  0  0  0  0  0  0  0  0  0  0
    5.7260   -4.7840   23.3720 C   0  0  0  0  0  0  0  0  0  0  0  0
    6.4250   -5.2910   22.2710 C   0  0  0  0  0  0  0  0  0  0  0  0
  1  2  1  0
  2  3  2  0
  2  4  1  0
  4  5  1  0
  5  6  1  0
  6  7  1  0
  7  8  1  0
  8  9  2  0
  8 10  1  0
 10 11  1  0
 11 12  1  0
 13 12  1  1
 13 14  1  0
 14 15  1  0
 15 16  1  0
 13 17  1  0
 16 17  1  0
  7 18  1  0
  4 19  1  0
 18 19  1  0
M  END
