piperidine-amides-409-covalent
     RDKit          3D

 27 29  0  0  0  0  0  0  0  0999 V2000
    7.0940   -3.3770   19.2670 C   0  0  0  0  0  0  0  0  0  0  0  0
    6.3580   -4.0760   20.2990 C   0  0  0  0  0  0  0  0  0  0  0  0
    5.3060   -4.6820   19.9390 O   0  0  0  0  0  0  0  0  0  0  0  0
    6.7830   -4.1580   21.6500 N   0  0  0  0  0  0  0  0  0  0  0  0
    7.7940   -3.1380   22.0820 C   0  0  0  0  0  0  0  0  0  0  0  0
    7.6680   -3.1480   23.6500 C   0  0  0  0  0  0  0  0  0  0  0  0
    6.2920   -3.6840   23.8690 C   0  0  0  0  0  0  0  0  0  0  0  0
    5.5640   -3.0500   25.1260 C   0  0  0  0  0  0  0  0  0  0  0  0
    4.9050   -2.0920   24.7620 O   0  0  0  0  0  0  0  0  0  0  0  0
    5.8130   -3.6690   26.2070 N   0  0  0  0  0  0  0  0  0  0  0  0
    5.8900   -4.1880   27.4600 C   0  0  2  0  0  0  0  0  0  0  0  0
    6.4770   -3.9770   28.6660 C   0  0  0  0  0  0  0  0  0  0  0  0
    5.5530   -3.2810   29.4790 C   0  0  0  0  0  0  0  0  0  0  0  0
    4.1920   -3.7270   29.9520 C   0  0  0  0  0  0  0  0  0  0  0  0
    3.9600   -2.4310   30.7070 C   0  0  0  0  0  0  0  0  0  0  0  0
    2.7250   -2.3700   31.3690 C   0  0  0  0  0  0  0  0  0  0  0  0
    2.1630   -1.2950   32.1860 C   0  0  0  0  0  0  0  0  0  0  0  0
    3.3740   -0.2920   32.0590 C   0  0  0  0  0  0  0  0  0  0  0  0
    4.7240   -0.4270   31.3000 C   0  0  0  0  0  0  0  0  0  0  0  0
    4.9400   -1.5350   30.6460 C   0  0  0  0  0  0  0  0  0  0  0  0
    5.8870   -1.9680   29.9510 O   0  0  0  0  0  0  0  0  0  0  0  0
    6.0470   -5.6860   27.6100 C   0  0  0  0  0  0  0  0  0  0  0  0
    6.9300   -6.2530   28.2920 O   0  0  0  0  0  0  0  0  0  0  0  0
    5.1680   -6.5720   27.0060 O   0  0  0  0  0  0  0  0  0  0  0  0
    4.3460   -7.3900   27.8160 C   0  0  0  0  0  0  0  0  0  0  0  0
    6.1140   -5.1340   23.6290 C   0  0  0  0  0  0  0  0  0  0  0  0
    6.6540   -5.4100   22.3700 C   0  0  0  0  0  0  0  0  0  0  0  0
  1  2  1  0
  2  3  2  0
  2  4  1  0
  4  5  1  0
  5  6  1  0
  6  7  1  0
  7  8  1  0
  8  9  2  0
  8 10  1  0
 10 11  1  0
 11 12  1  6
 12 13  1  0
 13 14  2  0
 14 15  1  0
 15 16  2  0
 16 17  1  0
 17 18  2  0
 18 19  1  0
 15 20  1  0
 19 20  2  0
 13 21  1  0
 20 21  1  0
 11 22  1  0
 22 23  2  0
 22 24  1  0
 24 25  1  0
  7 26  1  0
  4 27  1  0
 26 27  1  0
M  END
