piperidine-amides-11019-covalent
     RDKit          3D

 21 23  0  0  0  0  0  0  0  0999 V2000
    7.1300   -3.3060   19.2640 C   0  0  0  0  0  0  0  0  0  0  0  0
    6.3460   -4.0280   20.2660 C   0  0  0  0  0  0  0  0  0  0  0  0
    5.3060   -4.6090   19.9130 O   0  0  0  0  0  0  0  0  0  0  0  0
    6.7810   -4.1160   21.6010 N   0  0  0  0  0  0  0  0  0  0  0  0
    7.7420   -3.1720   22.1440 C   0  0  0  0  0  0  0  0  0  0  0  0
    7.3680   -2.9150   23.5740 C   0  0  0  0  0  0  0  0  0  0  0  0
    6.0460   -3.5330   23.9040 C   0  0  0  0  0  0  0  0  0  0  0  0
    5.6170   -3.2720   25.2930 C   0  0  0  0  0  0  0  0  0  0  0  0
    4.3950   -3.3740   25.6040 O   0  0  0  0  0  0  0  0  0  0  0  0
    6.5090   -2.9060   26.3180 N   0  0  0  0  0  0  0  0  0  0  0  0
    6.3890   -1.5970   26.9900 C   0  0  0  0  0  0  0  0  0  0  0  0
    6.0730   -1.8610   28.4140 C   0  0  1  0  0  0  0  0  0  0  0  0
    6.5300   -1.0890   29.4120 C   0  0  0  0  0  0  0  0  0  0  0  0
    5.0340   -0.8730   29.0900 C   0  0  2  0  0  0  0  0  0  0  0  0
    3.9710   -1.5890   29.9060 C   0  0  0  0  0  0  0  0  0  0  0  0
    2.6730   -1.0700   29.3820 C   0  0  0  0  0  0  0  0  0  0  0  0
    1.9650   -0.7030   30.4860 C   0  0  0  0  0  0  0  0  0  0  0  0
    2.7410   -0.9530   31.6090 C   0  0  0  0  0  0  0  0  0  0  0  0
    4.0950   -1.5480   31.2800 C   0  0  0  0  0  0  0  0  0  0  0  0
    5.9780   -5.0140   23.6520 C   0  0  0  0  0  0  0  0  0  0  0  0
    6.6080   -5.3590   22.3270 C   0  0  0  0  0  0  0  0  0  0  0  0
  1  2  1  0
  2  3  2  0
  2  4  1  0
  4  5  1  0
  5  6  1  0
  6  7  1  0
  7  8  1  0
  8  9  2  0
  8 10  1  0
 10 11  1  0
 12 11  1  6
 12 13  1  0
 12 14  1  0
 13 14  1  0
 14 15  1  1
 15 16  1  0
 16 17  1  0
 17 18  1  0
 15 19  1  0
 18 19  1  0
  7 20  1  0
  4 21  1  0
 20 21  1  0
M  END
