piperidine-amides-12400-covalent
     RDKit          3D

 24 26  0  0  0  0  0  0  0  0999 V2000
    7.1460   -3.2660   19.1210 C   0  0  0  0  0  0  0  0  0  0  0  0
    6.3610   -3.9730   20.1290 C   0  0  0  0  0  0  0  0  0  0  0  0
    5.2660   -4.4500   19.8460 O   0  0  0  0  0  0  0  0  0  0  0  0
    6.8990   -4.1720   21.4380 N   0  0  0  0  0  0  0  0  0  0  0  0
    7.7670   -3.1750   22.0070 C   0  0  0  0  0  0  0  0  0  0  0  0
    7.2230   -2.6990   23.3080 C   0  0  0  0  0  0  0  0  0  0  0  0
    6.6500   -3.8820   24.0630 C   0  0  0  0  0  0  0  0  0  0  0  0
    5.8060   -3.2990   25.1120 C   0  0  0  0  0  0  0  0  0  0  0  0
    4.6460   -2.8880   24.9120 O   0  0  0  0  0  0  0  0  0  0  0  0
    6.3650   -3.2090   26.3800 N   0  0  0  0  0  0  0  0  0  0  0  0
    5.5390   -3.4660   27.5030 C   0  0  1  0  0  0  0  0  0  0  0  0
    4.5000   -4.5020   27.1250 C   0  0  0  0  0  0  0  0  0  0  0  0
    4.3090   -5.7830   27.4460 N   0  0  0  0  0  0  0  0  0  0  0  0
    3.1960   -6.2220   26.8180 C   0  0  0  0  0  0  0  0  0  0  0  0
    2.6900   -7.5150   26.9280 C   0  0  0  0  0  0  0  0  0  0  0  0
    1.4930   -7.7320   26.8030 C   0  0  0  0  0  0  0  0  0  0  0  0
    2.4010   -8.2050   25.6880 C   0  0  0  0  0  0  0  0  0  0  0  0
    2.7060   -5.1860   26.1030 N   0  0  0  0  0  0  0  0  0  0  0  0
    3.4870   -4.1310   26.2790 O   0  0  0  0  0  0  0  0  0  0  0  0
    6.1610   -3.6860   28.7080 C   0  0  0  0  0  0  0  0  0  0  0  0
    5.5490   -2.9290   29.6730 C   0  0  0  0  0  0  0  0  0  0  0  0
    6.2980   -5.1420   29.1270 C   0  0  0  0  0  0  0  0  0  0  0  0
    5.9210   -4.9030   23.3280 C   0  0  0  0  0  0  0  0  0  0  0  0
    6.6020   -5.3370   22.2120 C   0  0  0  0  0  0  0  0  0  0  0  0
  1  2  1  0
  2  3  2  0
  2  4  1  0
  4  5  1  0
  5  6  1  0
  6  7  1  0
  7  8  1  0
  8  9  2  0
  8 10  1  0
 11 10  1  6
 11 12  1  0
 12 13  2  0
 13 14  1  0
 14 15  1  0
 15 16  1  0
 15 17  1  0
 16 17  1  0
 14 18  2  0
 12 19  1  0
 18 19  1  0
 11 20  1  0
 20 21  1  0
 20 22  1  0
  7 23  1  0
  4 24  1  0
 23 24  1  0
M  END
