piperidine-amides-12284-covalent
     RDKit          3D

 24 26  0  0  0  0  0  0  0  0999 V2000
    7.0360   -3.3310   19.3480 C   0  0  0  0  0  0  0  0  0  0  0  0
    6.3520   -4.1670   20.3350 C   0  0  0  0  0  0  0  0  0  0  0  0
    5.3990   -4.8640   19.9840 O   0  0  0  0  0  0  0  0  0  0  0  0
    6.8070   -4.2060   21.7000 N   0  0  0  0  0  0  0  0  0  0  0  0
    7.6950   -3.1740   22.1840 C   0  0  0  0  0  0  0  0  0  0  0  0
    7.4760   -2.9950   23.6500 C   0  0  0  0  0  0  0  0  0  0  0  0
    6.1070   -3.5790   23.9210 C   0  0  0  0  0  0  0  0  0  0  0  0
    5.6280   -3.1970   25.2780 C   0  0  0  0  0  0  0  0  0  0  0  0
    4.4200   -3.1880   25.5810 O   0  0  0  0  0  0  0  0  0  0  0  0
    6.5850   -2.8370   26.2480 N   0  0  0  0  0  0  0  0  0  0  0  0
    6.4510   -1.5880   26.9630 C   0  0  0  0  0  0  0  0  0  0  0  0
    6.9830   -1.6060   28.3690 C   0  0  0  0  0  0  0  0  0  0  0  0
    6.9250   -0.4810   29.1770 C   0  0  0  0  0  0  0  0  0  0  0  0
    6.3550    0.7210   28.6900 C   0  0  0  0  0  0  0  0  0  0  0  0
    6.2930    1.8420   29.4990 C   0  0  2  0  0  0  0  0  0  0  0  0
    6.9000    1.8030   30.8230 C   0  0  0  0  0  0  0  0  0  0  0  0
    5.1590    2.4020   29.7640 C   0  0  0  0  0  0  0  0  0  0  0  0
    5.9570    3.1120   28.8820 C   0  0  0  0  0  0  0  0  0  0  0  0
    5.3370    3.2370   27.6810 F   0  0  0  0  0  0  0  0  0  0  0  0
    6.2270    4.3330   29.4550 F   0  0  0  0  0  0  0  0  0  0  0  0
    5.8570    0.7720   27.4030 C   0  0  0  0  0  0  0  0  0  0  0  0
    5.9030   -0.3890   26.5230 C   0  0  0  0  0  0  0  0  0  0  0  0
    6.0370   -5.0830   23.6980 C   0  0  0  0  0  0  0  0  0  0  0  0
    6.6580   -5.4100   22.4830 C   0  0  0  0  0  0  0  0  0  0  0  0
  1  2  1  0
  2  3  2  0
  2  4  1  0
  4  5  1  0
  5  6  1  0
  6  7  1  0
  7  8  1  0
  8  9  2  0
  8 10  1  0
 10 11  1  0
 11 12  2  0
 12 13  1  0
 13 14  2  0
 14 15  1  0
 15 16  1  1
 15 17  1  0
 15 18  1  0
 17 18  1  0
 18 19  1  0
 18 20  1  0
 14 21  1  0
 11 22  1  0
 21 22  2  0
  7 23  1  0
  4 24  1  0
 23 24  1  0
M  END
