piperidine-amides-2243-covalent
     RDKit          3D

 29 31  0  0  0  0  0  0  0  0999 V2000
    7.1280   -3.2960   19.2280 C   0  0  0  0  0  0  0  0  0  0  0  0
    6.3390   -4.0450   20.2350 C   0  0  0  0  0  0  0  0  0  0  0  0
    5.2670   -4.5200   19.8720 O   0  0  0  0  0  0  0  0  0  0  0  0
    6.8570   -4.2260   21.5180 N   0  0  0  0  0  0  0  0  0  0  0  0
    7.6960   -3.2470   22.1550 C   0  0  0  0  0  0  0  0  0  0  0  0
    6.9740   -2.7060   23.3470 C   0  0  0  0  0  0  0  0  0  0  0  0
    6.4750   -3.8610   24.2100 C   0  0  0  0  0  0  0  0  0  0  0  0
    5.7830   -3.2440   25.3580 C   0  0  0  0  0  0  0  0  0  0  0  0
    4.5850   -3.4940   25.5560 O   0  0  0  0  0  0  0  0  0  0  0  0
    6.4580   -2.3640   26.2260 N   0  0  0  0  0  0  0  0  0  0  0  0
    5.6680   -1.3560   26.9010 C   0  0  0  0  0  0  0  0  0  0  0  0
    6.1230    0.0060   26.4100 C   0  0  0  0  0  0  0  0  0  0  0  0
    6.3950    1.1460   27.1370 C   0  0  0  0  0  0  0  0  0  0  0  0
    6.8230    2.3160   26.5500 C   0  0  0  0  0  0  0  0  0  0  0  0
    7.0110    2.4350   25.1900 C   0  0  0  0  0  0  0  0  0  0  0  0
    7.4490    3.5400   24.5270 O   0  0  0  0  0  0  0  0  0  0  0  0
    8.7430    3.5400   24.1020 C   0  0  0  0  0  0  0  0  0  0  0  0
    9.0250    2.2630   23.3220 C   0  0  0  0  0  0  0  0  0  0  0  0
   10.4200    2.0510   22.7570 C   0  0  0  0  0  0  0  0  0  0  0  0
   11.4720    3.0800   22.9660 C   0  0  0  0  0  0  0  0  0  0  0  0
   11.1640    4.2990   23.7220 C   0  0  0  0  0  0  0  0  0  0  0  0
    9.8200    4.5900   24.3210 C   0  0  0  0  0  0  0  0  0  0  0  0
    9.5980    5.7020   25.0020 O   0  0  0  0  0  0  0  0  0  0  0  0
    9.9440    5.8040   26.3710 C   0  0  0  0  0  0  0  0  0  0  0  0
    9.1840    4.8510   27.2590 C   0  0  0  0  0  0  0  0  0  0  0  0
    6.7550    1.3940   24.4440 N   0  0  0  0  0  0  0  0  0  0  0  0
    6.3190    0.1660   24.9520 C   0  0  0  0  0  0  0  0  0  0  0  0
    5.6210   -4.7980   23.4030 C   0  0  0  0  0  0  0  0  0  0  0  0
    6.5010   -5.4060   22.3090 C   0  0  0  0  0  0  0  0  0  0  0  0
  1  2  1  0
  2  3  2  0
  2  4  1  0
  4  5  1  0
  5  6  1  0
  6  7  1  0
  7  8  1  0
  8  9  2  0
  8 10  1  0
 10 11  1  0
 11 12  1  0
 12 13  2  0
 13 14  1  0
 14 15  2  0
 15 16  1  0
 16 17  1  0
 17 18  2  0
 18 19  1  0
 19 20  2  0
 20 21  1  0
 17 22  1  0
 21 22  2  0
 22 23  1  0
 23 24  1  0
 24 25  1  0
 15 26  1  0
 12 27  1  0
 26 27  2  0
  7 28  1  0
  4 29  1  0
 28 29  1  0
M  END
