piperidine-amides-23306-covalent
     RDKit          3D

 22 23  0  0  0  0  0  0  0  0999 V2000
    7.0650   -3.3750   19.3320 C   0  0  0  0  0  0  0  0  0  0  0  0
    6.4220   -4.2330   20.3390 C   0  0  0  0  0  0  0  0  0  0  0  0
    5.3710   -4.8180   19.9790 O   0  0  0  0  0  0  0  0  0  0  0  0
    6.9980   -4.4450   21.6210 N   0  0  0  0  0  0  0  0  0  0  0  0
    6.5080   -5.5160   22.4070 C   0  0  0  0  0  0  0  0  0  0  0  0
    5.8690   -5.1080   23.6610 C   0  0  0  0  0  0  0  0  0  0  0  0
    6.3370   -3.8480   24.3030 C   0  0  0  0  0  0  0  0  0  0  0  0
    5.2960   -3.3530   25.2780 C   0  0  0  0  0  0  0  0  0  0  0  0
    4.3270   -2.7300   24.8260 O   0  0  0  0  0  0  0  0  0  0  0  0
    5.3640   -3.5540   26.6790 N   0  0  0  0  0  0  0  0  0  0  0  0
    6.4310   -3.2450   27.4650 C   0  0  0  0  0  0  0  0  0  0  0  0
    6.8370   -4.2660   28.4040 C   0  0  0  0  0  0  0  0  0  0  0  0
    5.6470   -4.5030   29.2490 C   0  0  0  0  0  0  0  0  0  0  0  0
    6.0280   -5.8160   29.7580 N   0  0  0  0  0  0  0  0  0  0  0  0
    4.9760   -6.4850   30.8580 S   0  0  0  0  0  0  0  0  0  0  0  0
    3.7390   -5.3150   31.3970 C   0  0  0  0  0  0  0  0  0  0  0  0
    4.1370   -7.8820   30.0780 C   0  0  0  0  0  0  0  0  0  0  0  0
    5.7760   -6.8920   32.0730 O   0  0  0  0  0  0  0  0  0  0  0  0
    4.3990   -4.6970   28.5160 C   0  0  0  0  0  0  0  0  0  0  0  0
    4.1560   -3.5970   27.4510 C   0  0  0  0  0  0  0  0  0  0  0  0
    6.7620   -2.7480   23.3490 C   0  0  0  0  0  0  0  0  0  0  0  0
    7.6720   -3.3750   22.3160 C   0  0  0  0  0  0  0  0  0  0  0  0
  1  2  1  0
  2  3  2  0
  2  4  1  0
  4  5  1  0
  5  6  1  0
  6  7  1  0
  7  8  1  0
  8  9  2  0
  8 10  1  0
 10 11  1  0
 11 12  1  0
 12 13  1  0
 13 14  1  0
 14 15  2  0
 15 16  1  0
 15 17  1  0
 15 18  2  0
 13 19  1  0
 10 20  1  0
 19 20  1  0
  7 21  1  0
  4 22  1  0
 21 22  1  0
M  END
