piperidine-amides-10134-covalent
     RDKit          3D

 25 27  0  0  0  0  0  0  0  0999 V2000
    7.0580   -3.3360   19.2830 C   0  0  0  0  0  0  0  0  0  0  0  0
    6.3930   -4.1690   20.2890 C   0  0  0  0  0  0  0  0  0  0  0  0
    5.3280   -4.7370   19.9440 O   0  0  0  0  0  0  0  0  0  0  0  0
    6.9680   -4.3480   21.5450 N   0  0  0  0  0  0  0  0  0  0  0  0
    6.5930   -5.4630   22.3780 C   0  0  0  0  0  0  0  0  0  0  0  0
    5.8740   -4.9090   23.5780 C   0  0  0  0  0  0  0  0  0  0  0  0
    6.6750   -3.8290   24.2570 C   0  0  0  0  0  0  0  0  0  0  0  0
    5.9460   -3.2370   25.3960 C   0  0  0  0  0  0  0  0  0  0  0  0
    4.7010   -3.1510   25.3200 O   0  0  0  0  0  0  0  0  0  0  0  0
    6.6000   -2.7700   26.5470 N   0  0  0  0  0  0  0  0  0  0  0  0
    6.0510   -1.7460   27.3920 C   0  0  1  0  0  0  0  0  0  0  0  0
    4.7610   -2.3290   27.9510 C   0  0  0  0  0  0  0  0  0  0  0  0
    6.9400   -1.4700   28.5470 C   0  0  0  0  0  0  0  0  0  0  0  0
    6.6940   -0.2880   29.1170 C   0  0  0  0  0  0  0  0  0  0  0  0
    6.1300    0.3650   28.1170 N   0  0  0  0  0  0  0  0  0  0  0  0
    5.4630    1.5040   28.2670 C   0  0  0  0  0  0  0  0  0  0  0  0
    5.1440    1.7880   29.5830 C   0  0  0  0  0  0  0  0  0  0  0  0
    6.1340    2.0620   30.5430 C   0  0  0  0  0  0  0  0  0  0  0  0
    5.9940    2.3910   32.0260 C   0  0  0  0  0  0  0  0  0  0  0  0
    4.5470    2.4130   32.4620 C   0  0  0  0  0  0  0  0  0  0  0  0
    3.4400    2.1340   31.5120 C   0  0  0  0  0  0  0  0  0  0  0  0
    3.6920    1.8200   30.0600 C   0  0  0  0  0  0  0  0  0  0  0  0
    5.9090   -0.4000   26.9220 C   0  0  0  0  0  0  0  0  0  0  0  0
    6.9880   -2.7340   23.2690 C   0  0  0  0  0  0  0  0  0  0  0  0
    7.8060   -3.3380   22.1540 C   0  0  0  0  0  0  0  0  0  0  0  0
  1  2  1  0
  2  3  2  0
  2  4  1  0
  4  5  1  0
  5  6  1  0
  6  7  1  0
  7  8  1  0
  8  9  2  0
  8 10  1  0
 11 10  1  0
 11 12  1  1
 11 13  1  0
 13 14  1  0
 14 15  1  0
 15 16  1  0
 16 17  1  0
 17 18  2  0
 18 19  1  0
 19 20  2  0
 20 21  1  0
 17 22  1  0
 21 22  2  0
 11 23  1  0
 15 23  1  0
  7 24  1  0
  4 25  1  0
 24 25  1  0
M  END
