piperidine-amides-1751-covalent
     RDKit          3D

 20 21  0  0  0  0  0  0  0  0999 V2000
    7.1710   -3.2760   19.1920 C   0  0  0  0  0  0  0  0  0  0  0  0
    6.3540   -3.9930   20.2010 C   0  0  0  0  0  0  0  0  0  0  0  0
    5.2690   -4.4970   19.8680 O   0  0  0  0  0  0  0  0  0  0  0  0
    6.8740   -4.1230   21.5020 N   0  0  0  0  0  0  0  0  0  0  0  0
    6.4210   -5.1610   22.3820 C   0  0  0  0  0  0  0  0  0  0  0  0
    5.4300   -4.4930   23.3490 C   0  0  0  0  0  0  0  0  0  0  0  0
    6.1480   -3.4450   24.1610 C   0  0  0  0  0  0  0  0  0  0  0  0
    5.2650   -2.7920   25.1630 C   0  0  0  0  0  0  0  0  0  0  0  0
    4.6160   -1.8300   24.7660 O   0  0  0  0  0  0  0  0  0  0  0  0
    5.1680   -3.2650   26.4750 N   0  0  0  0  0  0  0  0  0  0  0  0
    5.4520   -4.5740   26.8880 C   0  0  0  0  0  0  0  0  0  0  0  0
    6.6120   -5.1110   26.5160 C   0  0  0  0  0  0  0  0  0  0  0  0
    6.8330   -5.1430   25.0750 N   0  0  0  0  0  0  0  0  0  0  0  0
    8.0320   -5.6620   24.8980 N   0  0  0  0  0  0  0  0  0  0  0  0
    8.4740   -5.9270   26.2230 C   0  0  0  0  0  0  0  0  0  0  0  0
    9.6610   -6.4340   26.5530 C   0  0  0  0  0  0  0  0  0  0  0  0
    7.6250   -5.6120   27.1610 N   0  0  0  0  0  0  0  0  0  0  0  0
    7.7000   -5.7170   28.4820 C   0  0  0  0  0  0  0  0  0  0  0  0
    6.7880   -2.4340   23.2420 C   0  0  0  0  0  0  0  0  0  0  0  0
    7.6020   -3.0720   22.1240 C   0  0  0  0  0  0  0  0  0  0  0  0
  1  2  1  0
  2  3  2  0
  2  4  1  0
  4  5  1  0
  5  6  1  0
  6  7  1  0
  7  8  1  0
  8  9  2  0
  8 10  1  0
 10 11  1  0
 11 12  1  0
 12 13  2  0
 13 14  1  0
 14 15  2  0
 15 16  1  0
 12 17  1  0
 15 17  1  0
 17 18  1  0
  7 19  1  0
  4 20  1  0
 19 20  1  0
M  END
