piperidine-amides-10046-covalent
     RDKit          3D

 26 28  0  0  0  0  0  0  0  0999 V2000
    7.0920   -3.2710   19.2040 C   0  0  0  0  0  0  0  0  0  0  0  0
    6.3890   -4.0480   20.2340 C   0  0  0  0  0  0  0  0  0  0  0  0
    5.2980   -4.5690   19.8890 O   0  0  0  0  0  0  0  0  0  0  0  0
    6.9400   -4.2400   21.5030 N   0  0  0  0  0  0  0  0  0  0  0  0
    7.9050   -3.3310   22.0730 C   0  0  0  0  0  0  0  0  0  0  0  0
    7.5000   -3.0780   23.4900 C   0  0  0  0  0  0  0  0  0  0  0  0
    6.0340   -3.3600   23.6950 C   0  0  0  0  0  0  0  0  0  0  0  0
    5.6120   -2.9850   25.0610 C   0  0  0  0  0  0  0  0  0  0  0  0
    4.4030   -3.1320   25.3560 O   0  0  0  0  0  0  0  0  0  0  0  0
    6.4900   -2.4590   26.0280 N   0  0  0  0  0  0  0  0  0  0  0  0
    6.1650   -2.5140   27.4300 C   0  0  0  0  0  0  0  0  0  0  0  0
    5.0600   -3.5410   27.6920 C   0  0  0  0  0  0  0  0  0  0  0  0
    3.8430   -3.2380   27.5900 O   0  0  0  0  0  0  0  0  0  0  0  0
    5.3500   -4.8620   28.0720 O   0  0  0  0  0  0  0  0  0  0  0  0
    5.8290   -5.8050   27.1340 C   0  0  0  0  0  0  0  0  0  0  0  0
    7.1630   -5.5970   26.8520 C   0  0  0  0  0  0  0  0  0  0  0  0
    7.7400   -5.6240   25.5940 C   0  0  0  0  0  0  0  0  0  0  0  0
    9.0640   -5.4230   25.2990 C   0  0  0  0  0  0  0  0  0  0  0  0
    9.8990   -5.1670   26.3430 C   0  0  0  0  0  0  0  0  0  0  0  0
    9.4110   -5.0990   27.7780 C   0  0  0  0  0  0  0  0  0  0  0  0
    7.9150   -5.3470   27.9780 C   0  0  0  0  0  0  0  0  0  0  0  0
    7.4080   -2.7760   28.2780 C   0  0  0  0  0  0  0  0  0  0  0  0
    7.2110   -1.5330   29.0270 C   0  0  0  0  0  0  0  0  0  0  0  0
    6.1410   -1.3190   28.2380 C   0  0  0  0  0  0  0  0  0  0  0  0
    5.7350   -4.8400   23.4480 C   0  0  0  0  0  0  0  0  0  0  0  0
    6.6150   -5.3830   22.3240 C   0  0  0  0  0  0  0  0  0  0  0  0
  1  2  1  0
  2  3  2  0
  2  4  1  0
  4  5  1  0
  5  6  1  0
  6  7  1  0
  7  8  1  0
  8  9  2  0
  8 10  1  0
 10 11  1  0
 11 12  1  0
 12 13  2  0
 12 14  1  0
 14 15  1  0
 15 16  1  0
 16 17  2  0
 17 18  1  0
 18 19  2  0
 19 20  1  0
 16 21  1  0
 20 21  2  0
 11 22  1  0
 22 23  1  0
 11 24  1  0
 23 24  1  0
  7 25  1  0
  4 26  1  0
 25 26  1  0
M  END
