piperidine-amides-4916-covalent
     RDKit          3D

 23 24  0  0  0  0  0  0  0  0999 V2000
    7.1170   -3.2550   19.1490 C   0  0  0  0  0  0  0  0  0  0  0  0
    6.2920   -3.9330   20.1640 C   0  0  0  0  0  0  0  0  0  0  0  0
    5.2080   -4.4280   19.8120 O   0  0  0  0  0  0  0  0  0  0  0  0
    6.7690   -4.0340   21.4590 N   0  0  0  0  0  0  0  0  0  0  0  0
    7.2040   -2.8230   22.0580 C   0  0  0  0  0  0  0  0  0  0  0  0
    6.3480   -2.3640   23.1530 C   0  0  0  0  0  0  0  0  0  0  0  0
    5.6040   -3.4240   23.8710 C   0  0  0  0  0  0  0  0  0  0  0  0
    6.3740   -3.7680   25.0620 C   0  0  0  0  0  0  0  0  0  0  0  0
    5.7820   -3.7430   26.1610 O   0  0  0  0  0  0  0  0  0  0  0  0
    7.7390   -4.1000   24.8920 N   0  0  0  0  0  0  0  0  0  0  0  0
    8.5040   -3.6560   23.6670 C   0  0  0  0  0  0  0  0  0  0  0  0
    9.9430   -3.1780   23.8490 C   0  0  0  0  0  0  0  0  0  0  0  0
   10.9220   -3.7630   24.6610 C   0  0  0  0  0  0  0  0  0  0  0  0
   12.1060   -3.1390   24.7010 C   0  0  0  0  0  0  0  0  0  0  0  0
   13.2660   -3.4580   25.4490 C   0  0  0  0  0  0  0  0  0  0  0  0
   14.1920   -2.5570   25.4260 O   0  0  0  0  0  0  0  0  0  0  0  0
   13.3510   -4.7310   26.2110 O   0  0  0  0  0  0  0  0  0  0  0  0
   14.4060   -5.5550   25.5580 C   0  0  0  0  0  0  0  0  0  0  0  0
   15.0080   -8.0710   25.6520 C   0  0  0  0  0  0  0  0  0  0  0  0
   11.9220   -2.0320   23.8060 N   0  0  0  0  0  0  0  0  0  0  0  0
   10.6090   -2.0730   23.2990 O   0  0  0  0  0  0  0  0  0  0  0  0
    5.2360   -4.6340   23.0900 C   0  0  0  0  0  0  0  0  0  0  0  0
    6.2870   -5.1020   22.2960 C   0  0  0  0  0  0  0  0  0  0  0  0
  1  2  1  0
  2  3  2  0
  2  4  1  0
  4  5  1  0
  5  6  1  0
  6  7  1  0
  7  8  1  0
  8  9  2  0
  8 10  1  0
 10 11  1  0
 11 12  1  0
 12 13  2  0
 13 14  1  0
 14 15  1  0
 15 16  2  0
 15 17  1  0
 17 18  1  0
 18 19  1  0
 14 20  2  0
 12 21  1  0
 20 21  1  0
  7 22  1  0
  4 23  1  0
 22 23  1  0
M  END
