piperidine-amides-17201-covalent
     RDKit          3D

 20 21  0  0  0  0  0  0  0  0999 V2000
    7.1260   -3.3660   19.3450 C   0  0  0  0  0  0  0  0  0  0  0  0
    6.4150   -4.1760   20.3410 C   0  0  0  0  0  0  0  0  0  0  0  0
    5.3700   -4.7650   19.9680 O   0  0  0  0  0  0  0  0  0  0  0  0
    6.9490   -4.3120   21.6440 N   0  0  0  0  0  0  0  0  0  0  0  0
    6.6310   -5.4750   22.4100 C   0  0  0  0  0  0  0  0  0  0  0  0
    6.1730   -5.1460   23.7520 C   0  0  0  0  0  0  0  0  0  0  0  0
    6.2140   -3.6990   24.0020 C   0  0  0  0  0  0  0  0  0  0  0  0
    5.6470   -3.2950   25.3260 C   0  0  0  0  0  0  0  0  0  0  0  0
    4.7500   -2.4380   25.3400 O   0  0  0  0  0  0  0  0  0  0  0  0
    6.0440   -3.8440   26.5490 N   0  0  0  0  0  0  0  0  0  0  0  0
    5.8060   -5.1930   26.9250 C   0  0  0  0  0  0  0  0  0  0  0  0
    5.5650   -5.2870   28.3250 C   0  0  1  0  0  0  0  0  0  0  0  0
    6.4100   -6.3720   29.0030 C   0  0  0  0  0  0  0  0  0  0  0  0
    6.0530   -6.3460   30.3340 O   0  0  0  0  0  0  0  0  0  0  0  0
    5.7080   -3.9880   28.9130 C   0  0  0  0  0  0  0  0  0  0  0  0
    5.6730   -3.0220   27.7350 C   0  0  0  0  0  0  0  0  0  0  0  0
    6.7790   -2.2020   28.3060 C   0  0  0  0  0  0  0  0  0  0  0  0
    4.3760   -2.1820   27.7200 C   0  0  0  0  0  0  0  0  0  0  0  0
    7.5530   -3.0950   23.7010 C   0  0  0  0  0  0  0  0  0  0  0  0
    7.7640   -3.2410   22.2070 C   0  0  0  0  0  0  0  0  0  0  0  0
  1  2  1  0
  2  3  2  0
  2  4  1  0
  4  5  1  0
  5  6  1  0
  6  7  1  0
  7  8  1  0
  8  9  2  0
  8 10  1  0
 10 11  1  0
 11 12  1  0
 12 13  1  1
 13 14  1  0
 12 15  1  0
 10 16  1  0
 15 16  1  0
 16 17  1  0
 16 18  1  0
  7 19  1  0
  4 20  1  0
 19 20  1  0
M  END
