piperidine-amides-19248-covalent
     RDKit          3D

 22 23  0  0  0  0  0  0  0  0999 V2000
    7.0720   -3.3380   19.1840 C   0  0  0  0  0  0  0  0  0  0  0  0
    6.3470   -4.0340   20.2250 C   0  0  0  0  0  0  0  0  0  0  0  0
    5.2610   -4.5930   19.8990 O   0  0  0  0  0  0  0  0  0  0  0  0
    6.8130   -4.1770   21.5470 N   0  0  0  0  0  0  0  0  0  0  0  0
    6.5800   -5.4680   22.2190 C   0  0  0  0  0  0  0  0  0  0  0  0
    5.6890   -4.9500   23.4070 C   0  0  0  0  0  0  0  0  0  0  0  0
    6.5490   -3.9240   24.1100 C   0  0  0  0  0  0  0  0  0  0  0  0
    5.8920   -3.4760   25.4810 C   0  0  0  0  0  0  0  0  0  0  0  0
    4.7020   -3.2090   25.3400 O   0  0  0  0  0  0  0  0  0  0  0  0
    6.8040   -3.5240   26.3620 N   0  0  0  0  0  0  0  0  0  0  0  0
    7.7350   -4.0850   27.1930 C   0  0  0  0  0  0  0  0  0  0  0  0
    6.9680   -2.1750   26.7310 C   0  0  0  0  0  0  0  0  0  0  0  0
    6.2100   -1.7060   27.8380 C   0  0  0  0  0  0  0  0  0  0  0  0
    4.7330   -1.4870   27.6630 C   0  0  0  0  0  0  0  0  0  0  0  0
    3.9780   -0.9730   28.9150 C   0  0  0  0  0  0  0  0  0  0  0  0
    4.8300   -0.8070   29.9920 C   0  0  0  0  0  0  0  0  0  0  0  0
    4.8020   -0.4010   31.3320 C   0  0  0  0  0  0  0  0  0  0  0  0
    6.2660   -1.0010   30.2250 C   0  0  0  0  0  0  0  0  0  0  0  0
    7.1060   -1.5110   29.0430 C   0  0  0  0  0  0  0  0  0  0  0  0
    8.4350   -1.7860   28.9440 C   0  0  0  0  0  0  0  0  0  0  0  0
    6.9730   -2.7250   23.2720 C   0  0  0  0  0  0  0  0  0  0  0  0
    7.6320   -3.1760   22.1770 C   0  0  0  0  0  0  0  0  0  0  0  0
  1  2  1  0
  2  3  2  0
  2  4  1  0
  4  5  1  0
  5  6  1  0
  6  7  1  0
  7  8  1  0
  8  9  2  0
  8 10  1  0
 10 11  1  0
 10 12  1  0
 12 13  1  0
 13 14  2  0
 14 15  1  0
 15 16  2  0
 16 17  1  0
 16 18  1  0
 13 19  1  0
 18 19  2  0
 19 20  1  0
  7 21  1  0
  4 22  1  0
 21 22  1  0
M  END
