piperidine-amides-2789-covalent
     RDKit          3D

 24 26  0  0  0  0  0  0  0  0999 V2000
    7.1440   -3.2810   19.2480 C   0  0  0  0  0  0  0  0  0  0  0  0
    6.3330   -3.9950   20.2280 C   0  0  0  0  0  0  0  0  0  0  0  0
    5.2920   -4.5560   19.8890 O   0  0  0  0  0  0  0  0  0  0  0  0
    6.7820   -4.0750   21.5860 N   0  0  0  0  0  0  0  0  0  0  0  0
    6.5730   -5.2860   22.3410 C   0  0  0  0  0  0  0  0  0  0  0  0
    5.9590   -4.9610   23.6750 C   0  0  0  0  0  0  0  0  0  0  0  0
    6.1030   -3.4620   23.8950 C   0  0  0  0  0  0  0  0  0  0  0  0
    5.8070   -3.1020   25.3030 C   0  0  0  0  0  0  0  0  0  0  0  0
    4.6370   -2.9730   25.7200 O   0  0  0  0  0  0  0  0  0  0  0  0
    6.8960   -2.8810   26.1830 N   0  0  0  0  0  0  0  0  0  0  0  0
    7.0260   -3.7360   27.3330 C   0  0  0  0  0  0  0  0  0  0  0  0
    5.6920   -3.8000   28.0000 C   0  0  0  0  0  0  0  0  0  0  0  0
    7.9220   -3.0940   28.2960 C   0  0  0  0  0  0  0  0  0  0  0  0
    7.2870   -5.1070   26.9790 C   0  0  0  0  0  0  0  0  0  0  0  0
    6.3680   -5.9800   27.5030 C   0  0  0  0  0  0  0  0  0  0  0  0
    5.1690   -6.4620   26.8350 C   0  0  0  0  0  0  0  0  0  0  0  0
    4.2780   -7.3160   27.4440 C   0  0  0  0  0  0  0  0  0  0  0  0
    4.5470   -7.7240   28.7360 C   0  0  0  0  0  0  0  0  0  0  0  0
    5.6670   -7.3110   29.4300 C   0  0  0  0  0  0  0  0  0  0  0  0
    6.6170   -6.4040   28.7950 C   0  0  0  0  0  0  0  0  0  0  0  0
    8.5100   -5.5470   27.0660 C   0  0  0  0  0  0  0  0  0  0  0  0
    8.4020   -5.4160   25.7950 C   0  0  0  0  0  0  0  0  0  0  0  0
    7.5010   -2.9960   23.5830 C   0  0  0  0  0  0  0  0  0  0  0  0
    7.7370   -3.1100   22.0800 C   0  0  0  0  0  0  0  0  0  0  0  0
  1  2  1  0
  2  3  2  0
  2  4  1  0
  4  5  1  0
  5  6  1  0
  6  7  1  0
  7  8  1  0
  8  9  2  0
  8 10  1  0
 11 10  1  0
 11 12  1  0
 11 13  1  0
 11 14  1  0
 14 15  1  0
 15 16  2  0
 16 17  1  0
 17 18  2  0
 18 19  1  0
 15 20  1  0
 19 20  2  0
 14 21  1  0
 14 22  1  0
 21 22  1  0
  7 23  1  0
  4 24  1  0
 23 24  1  0
M  END
