piperidine-amides-19570-covalent
     RDKit          3D

 22 23  0  0  0  0  0  0  0  0999 V2000
    7.0370   -3.3560   19.4430 C   0  0  0  0  0  0  0  0  0  0  0  0
    6.3230   -4.1910   20.3950 C   0  0  0  0  0  0  0  0  0  0  0  0
    5.3960   -4.9520   19.9830 O   0  0  0  0  0  0  0  0  0  0  0  0
    6.6430   -4.1890   21.7600 N   0  0  0  0  0  0  0  0  0  0  0  0
    7.5630   -3.1010   22.1450 C   0  0  0  0  0  0  0  0  0  0  0  0
    7.3440   -3.0680   23.6870 C   0  0  0  0  0  0  0  0  0  0  0  0
    5.9930   -3.6120   23.9550 C   0  0  0  0  0  0  0  0  0  0  0  0
    5.3240   -2.8810   25.2160 C   0  0  0  0  0  0  0  0  0  0  0  0
    4.4310   -2.1530   24.8200 O   0  0  0  0  0  0  0  0  0  0  0  0
    5.8570   -3.2330   26.3280 N   0  0  0  0  0  0  0  0  0  0  0  0
    6.2170   -4.0170   27.3860 C   0  0  0  0  0  0  0  0  0  0  0  0
    6.6340   -5.3060   27.5590 C   0  0  0  0  0  0  0  0  0  0  0  0
    5.5110   -6.1670   27.6300 C   0  0  0  0  0  0  0  0  0  0  0  0
    4.9430   -6.0380   28.9070 O   0  0  0  0  0  0  0  0  0  0  0  0
    6.2610   -2.0370   27.1760 C   0  0  0  0  0  0  0  0  0  0  0  0
    5.9090   -0.6980   26.4640 C   0  0  0  0  0  0  0  0  0  0  0  0
    6.2950    0.4030   27.2770 C   0  0  0  0  0  0  0  0  0  0  0  0
    6.9170    0.3940   28.5470 N   0  0  0  0  0  0  0  0  0  0  0  0
    7.2320   -0.8380   29.1960 C   0  0  0  0  0  0  0  0  0  0  0  0
    6.8960   -2.1360   28.4950 C   0  0  0  0  0  0  0  0  0  0  0  0
    5.9550   -5.0990   23.7710 C   0  0  0  0  0  0  0  0  0  0  0  0
    6.5480   -5.3900   22.5490 C   0  0  0  0  0  0  0  0  0  0  0  0
  1  2  1  0
  2  3  2  0
  2  4  1  0
  4  5  1  0
  5  6  1  0
  6  7  1  0
  7  8  1  0
  8  9  2  0
  8 10  1  0
 10 11  1  0
 11 12  1  0
 12 13  1  0
 13 14  1  0
 10 15  1  0
 15 16  2  0
 16 17  1  0
 17 18  2  0
 18 19  1  0
 15 20  1  0
 19 20  2  0
  7 21  1  0
  4 22  1  0
 21 22  1  0
M  END
