piperidine-amides-24049-covalent
     RDKit          3D

 23 23  0  0  0  0  0  0  0  0999 V2000
    7.1970   -3.2700   19.1990 C   0  0  0  0  0  0  0  0  0  0  0  0
    6.3900   -3.9730   20.2020 C   0  0  0  0  0  0  0  0  0  0  0  0
    5.2770   -4.4250   19.8420 O   0  0  0  0  0  0  0  0  0  0  0  0
    6.9020   -4.1830   21.4990 N   0  0  0  0  0  0  0  0  0  0  0  0
    6.3780   -5.2570   22.2530 C   0  0  0  0  0  0  0  0  0  0  0  0
    5.8140   -4.8440   23.5320 C   0  0  0  0  0  0  0  0  0  0  0  0
    6.5370   -3.7450   24.2220 C   0  0  0  0  0  0  0  0  0  0  0  0
    5.7670   -3.2810   25.4300 C   0  0  0  0  0  0  0  0  0  0  0  0
    4.6170   -2.8300   25.2640 O   0  0  0  0  0  0  0  0  0  0  0  0
    6.2840   -3.3280   26.7490 N   0  0  0  0  0  0  0  0  0  0  0  0
    6.6120   -2.1760   27.5110 C   0  0  0  0  0  0  0  0  0  0  0  0
    5.7590   -4.4390   27.5580 C   0  0  2  0  0  0  0  0  0  0  0  0
    6.5630   -5.1460   28.6600 C   0  0  0  0  0  0  0  0  0  0  0  0
    5.7700   -5.8690   29.5330 C   0  0  0  0  0  0  0  0  0  0  0  0
    6.2750   -6.5780   30.6050 O   0  0  0  0  0  0  0  0  0  0  0  0
    4.5570   -5.8390   29.2780 O   0  0  0  0  0  0  0  0  0  0  0  0
    3.7160   -6.9100   29.6810 C   0  0  0  0  0  0  0  0  0  0  0  0
    2.4050   -6.3250   30.0900 C   0  0  0  0  0  0  0  0  0  0  0  0
    5.3080   -5.5080   26.6730 C   0  0  0  0  0  0  0  0  0  0  0  0
    6.1050   -5.6910   25.5940 F   0  0  0  0  0  0  0  0  0  0  0  0
    4.0230   -5.3040   26.1750 F   0  0  0  0  0  0  0  0  0  0  0  0
    6.9120   -2.5970   23.3230 C   0  0  0  0  0  0  0  0  0  0  0  0
    7.6950   -3.1660   22.1570 C   0  0  0  0  0  0  0  0  0  0  0  0
  1  2  1  0
  2  3  2  0
  2  4  1  0
  4  5  1  0
  5  6  1  0
  6  7  1  0
  7  8  1  0
  8  9  2  0
  8 10  1  0
 10 11  1  0
 10 12  1  0
 12 13  1  1
 13 14  1  0
 14 15  2  0
 14 16  1  0
 16 17  1  0
 17 18  1  0
 12 19  1  0
 19 20  1  0
 19 21  1  0
  7 22  1  0
  4 23  1  0
 22 23  1  0
M  END
