piperidine-amides-3729-covalent
     RDKit          3D

 25 26  0  0  0  0  0  0  0  0999 V2000
    7.1460   -3.2940   19.2150 C   0  0  0  0  0  0  0  0  0  0  0  0
    6.3570   -4.0120   20.2230 C   0  0  0  0  0  0  0  0  0  0  0  0
    5.2540   -4.4820   19.8600 O   0  0  0  0  0  0  0  0  0  0  0  0
    6.8610   -4.2210   21.5240 N   0  0  0  0  0  0  0  0  0  0  0  0
    7.5850   -3.1610   22.1390 C   0  0  0  0  0  0  0  0  0  0  0  0
    7.2500   -2.8960   23.5310 C   0  0  0  0  0  0  0  0  0  0  0  0
    6.4390   -3.9220   24.2220 C   0  0  0  0  0  0  0  0  0  0  0  0
    5.6990   -3.3050   25.3690 C   0  0  0  0  0  0  0  0  0  0  0  0
    4.4640   -3.1740   25.2900 O   0  0  0  0  0  0  0  0  0  0  0  0
    6.3700   -2.8690   26.5330 N   0  0  0  0  0  0  0  0  0  0  0  0
    6.4990   -1.5500   27.0470 C   0  0  0  0  0  0  0  0  0  0  0  0
    6.6050   -1.2970   28.4880 C   0  0  1  0  0  0  0  0  0  0  0  0
    7.7190   -0.9490   29.0190 O   0  0  0  0  0  0  0  0  0  0  0  0
    5.5430   -0.3530   28.9900 C   0  0  0  0  0  0  0  0  0  0  0  0
    5.0260   -1.0530   30.0270 C   0  0  1  0  0  0  0  0  0  0  0  0
    3.5960   -0.7510   29.5700 C   0  0  0  0  0  0  0  0  0  0  0  0
    2.9190   -1.6710   28.8070 O   0  0  0  0  0  0  0  0  0  0  0  0
    2.9760    0.4300   29.9230 O   0  0  0  0  0  0  0  0  0  0  0  0
    2.9230    0.9180   31.2520 C   0  0  0  0  0  0  0  0  0  0  0  0
    3.6380    2.2590   31.4840 C   0  0  0  0  0  0  0  0  0  0  0  0
    1.9470    1.8990   31.5810 C   0  0  0  0  0  0  0  0  0  0  0  0
    3.7220    0.2420   32.3180 C   0  0  0  0  0  0  0  0  0  0  0  0
    5.7330   -2.2570   29.3130 C   0  0  0  0  0  0  0  0  0  0  0  0
    5.5430   -4.6640   23.2820 C   0  0  0  0  0  0  0  0  0  0  0  0
    6.3660   -5.2900   22.3530 C   0  0  0  0  0  0  0  0  0  0  0  0
  1  2  1  0
  2  3  2  0
  2  4  1  0
  4  5  1  0
  5  6  1  0
  6  7  1  0
  7  8  1  0
  8  9  2  0
  8 10  1  0
 10 11  1  0
 11 12  1  0
 12 13  1  1
 12 14  1  0
 14 15  1  0
 15 16  1  6
 16 17  2  0
 16 18  1  0
 19 18  1  0
 19 20  1  0
 19 21  1  0
 19 22  1  0
 12 23  1  0
 15 23  1  0
  7 24  1  0
  4 25  1  0
 24 25  1  0
M  END
