piperidine-amides-11726-covalent
     RDKit          3D

 29 31  0  0  0  0  0  0  0  0999 V2000
    7.0490   -3.3460   19.2830 C   0  0  0  0  0  0  0  0  0  0  0  0
    6.3650   -4.1600   20.2810 C   0  0  0  0  0  0  0  0  0  0  0  0
    5.3530   -4.7810   19.9640 O   0  0  0  0  0  0  0  0  0  0  0  0
    6.9000   -4.2860   21.6080 N   0  0  0  0  0  0  0  0  0  0  0  0
    6.5470   -5.4130   22.4300 C   0  0  0  0  0  0  0  0  0  0  0  0
    5.7840   -4.9530   23.6450 C   0  0  0  0  0  0  0  0  0  0  0  0
    6.5190   -3.7690   24.2650 C   0  0  0  0  0  0  0  0  0  0  0  0
    5.7190   -3.2500   25.4230 C   0  0  0  0  0  0  0  0  0  0  0  0
    4.4820   -3.1820   25.3840 O   0  0  0  0  0  0  0  0  0  0  0  0
    6.3530   -2.8420   26.6280 N   0  0  0  0  0  0  0  0  0  0  0  0
    6.8450   -1.4850   26.8080 C   0  0  2  0  0  0  0  0  0  0  0  0
    7.1920   -1.3060   28.2810 C   0  0  0  0  0  0  0  0  0  0  0  0
    6.6040   -0.3340   29.0470 C   0  0  0  0  0  0  0  0  0  0  0  0
    6.0860    0.8020   28.4530 C   0  0  0  0  0  0  0  0  0  0  0  0
    5.4530    0.6420   27.2440 C   0  0  0  0  0  0  0  0  0  0  0  0
    5.7950   -0.4640   26.3500 C   0  0  2  0  0  0  0  0  0  0  0  0
    4.7530   -1.0700   25.9500 O   0  0  0  0  0  0  0  0  0  0  0  0
    3.7180   -0.2960   25.4040 C   0  0  0  0  0  0  0  0  0  0  0  0
    4.0050    0.1740   24.1310 C   0  0  0  0  0  0  0  0  0  0  0  0
    3.0970    0.9580   23.4000 C   0  0  0  0  0  0  0  0  0  0  0  0
    1.7780    1.3360   23.9320 C   0  0  0  0  0  0  0  0  0  0  0  0
    0.8610    2.1020   23.2330 O   0  0  0  0  0  0  0  0  0  0  0  0
   -0.4280    1.6450   22.9360 C   0  0  0  0  0  0  0  0  0  0  0  0
   -0.6310    1.4990   21.5690 C   0  0  0  0  0  0  0  0  0  0  0  0
    0.5400    1.7910   20.6950 C   0  0  0  0  0  0  0  0  0  0  0  0
    1.5400    0.8530   25.1900 C   0  0  0  0  0  0  0  0  0  0  0  0
    2.5130    0.0120   25.9770 C   0  0  0  0  0  0  0  0  0  0  0  0
    6.8450   -2.6720   23.3210 C   0  0  0  0  0  0  0  0  0  0  0  0
    7.5340   -3.1490   22.2120 C   0  0  0  0  0  0  0  0  0  0  0  0
  1  2  1  0
  2  3  2  0
  2  4  1  0
  4  5  1  0
  5  6  1  0
  6  7  1  0
  7  8  1  0
  8  9  2  0
  8 10  1  0
 11 10  1  1
 11 12  1  0
 12 13  1  0
 13 14  1  0
 14 15  1  0
 11 16  1  0
 15 16  1  0
 16 17  1  1
 17 18  1  0
 18 19  2  0
 19 20  1  0
 20 21  2  0
 21 22  1  0
 22 23  1  0
 23 24  1  0
 24 25  1  0
 21 26  1  0
 18 27  1  0
 26 27  2  0
  7 28  1  0
  4 29  1  0
 28 29  1  0
M  END
