piperidine-amides-33740-covalent
     RDKit          3D

 28 30  0  0  0  0  0  0  0  0999 V2000
    7.0760   -3.3360   19.2870 C   0  0  0  0  0  0  0  0  0  0  0  0
    6.3950   -4.1590   20.2960 C   0  0  0  0  0  0  0  0  0  0  0  0
    5.3260   -4.7120   19.9450 O   0  0  0  0  0  0  0  0  0  0  0  0
    6.9530   -4.3750   21.5800 N   0  0  0  0  0  0  0  0  0  0  0  0
    6.5460   -5.5300   22.2930 C   0  0  0  0  0  0  0  0  0  0  0  0
    6.0220   -5.2380   23.6200 C   0  0  0  0  0  0  0  0  0  0  0  0
    6.4900   -3.9740   24.2230 C   0  0  0  0  0  0  0  0  0  0  0  0
    5.5670   -3.5780   25.3460 C   0  0  0  0  0  0  0  0  0  0  0  0
    4.4670   -3.0910   25.0380 O   0  0  0  0  0  0  0  0  0  0  0  0
    5.8860   -3.7400   26.7190 N   0  0  0  0  0  0  0  0  0  0  0  0
    6.1350   -4.8480   27.5150 C   0  0  0  0  0  0  0  0  0  0  0  0
    6.6890   -4.3100   28.7510 C   0  0  0  0  0  0  0  0  0  0  0  0
    6.5720   -2.7520   28.4810 C   0  0  2  0  0  0  0  0  0  0  0  0
    6.6320   -1.8260   29.5250 C   0  0  0  0  0  0  0  0  0  0  0  0
    5.5850   -1.4840   30.3480 O   0  0  0  0  0  0  0  0  0  0  0  0
    7.7430   -1.2930   29.6660 O   0  0  0  0  0  0  0  0  0  0  0  0
    7.9350   -0.3130   30.6780 C   0  0  0  0  0  0  0  0  0  0  0  0
    7.1030    0.8870   30.3820 C   0  0  0  0  0  0  0  0  0  0  0  0
    5.2930   -2.9990   27.7740 C   0  0  0  0  0  0  0  0  0  0  0  0
    4.6570   -1.6930   27.3290 C   0  0  0  0  0  0  0  0  0  0  0  0
    3.8580   -1.0620   28.4720 C   0  0  0  0  0  0  0  0  0  0  0  0
    3.4330   -2.0420   29.8530 S   0  0  0  0  0  0  0  0  0  0  0  0
    2.0320   -2.5580   29.7000 O   0  0  0  0  0  0  0  0  0  0  0  0
    3.5950   -1.3440   31.1480 O   0  0  0  0  0  0  0  0  0  0  0  0
    4.5910   -3.3730   29.8350 C   0  0  0  0  0  0  0  0  0  0  0  0
    4.5230   -4.0460   28.5440 C   0  0  0  0  0  0  0  0  0  0  0  0
    6.7100   -2.8640   23.2500 C   0  0  0  0  0  0  0  0  0  0  0  0
    7.6000   -3.3060   22.2900 C   0  0  0  0  0  0  0  0  0  0  0  0
  1  2  1  0
  2  3  2  0
  2  4  1  0
  4  5  1  0
  5  6  1  0
  6  7  1  0
  7  8  1  0
  8  9  2  0
  8 10  1  0
 10 11  1  0
 11 12  1  0
 12 13  1  0
 13 14  1  1
 14 15  2  0
 14 16  1  0
 16 17  1  0
 17 18  1  0
 19 10  1  0
 13 19  1  0
 19 20  1  0
 20 21  1  0
 22 21  1  0
 22 23  2  0
 22 24  2  0
 22 25  1  0
 19 26  1  0
 25 26  1  0
  7 27  1  0
  4 28  1  0
 27 28  1  0
M  END
