piperidine-amides-32281-covalent
     RDKit          3D

 27 28  0  0  0  0  0  0  0  0999 V2000
    7.2110   -3.2900   19.2050 C   0  0  0  0  0  0  0  0  0  0  0  0
    6.3970   -4.0380   20.1890 C   0  0  0  0  0  0  0  0  0  0  0  0
    5.2820   -4.4810   19.8640 O   0  0  0  0  0  0  0  0  0  0  0  0
    6.9670   -4.2790   21.4440 N   0  0  0  0  0  0  0  0  0  0  0  0
    7.7490   -3.2760   22.1160 C   0  0  0  0  0  0  0  0  0  0  0  0
    6.8150   -2.6890   23.1550 C   0  0  0  0  0  0  0  0  0  0  0  0
    6.4670   -3.7980   24.0850 C   0  0  0  0  0  0  0  0  0  0  0  0
    5.5830   -3.3320   25.1480 C   0  0  0  0  0  0  0  0  0  0  0  0
    4.3990   -3.1390   24.8540 O   0  0  0  0  0  0  0  0  0  0  0  0
    6.0830   -3.1250   26.4120 N   0  0  0  0  0  0  0  0  0  0  0  0
    6.3940   -1.8040   26.8790 C   0  0  1  0  0  0  0  0  0  0  0  0
    5.9840   -0.7080   26.1700 C   0  0  0  0  0  0  0  0  0  0  0  0
    5.7140   -1.5420   28.2180 C   0  0  0  0  0  0  0  0  0  0  0  0
    4.3760   -1.8230   28.3710 C   0  0  0  0  0  0  0  0  0  0  0  0
    3.6820   -1.5730   29.6620 C   0  0  0  0  0  0  0  0  0  0  0  0
    4.4100   -0.9950   30.8810 C   0  0  0  0  0  0  0  0  0  0  0  0
    3.6880   -0.6560   32.4600 Cl  0  0  0  0  0  0  0  0  0  0  0  0
    5.8720   -0.7540   30.5170 C   0  0  0  0  0  0  0  0  0  0  0  0
    6.4200   -1.0230   29.2790 C   0  0  0  0  0  0  0  0  0  0  0  0
    5.7870   -4.0770   27.4770 C   0  0  2  0  0  0  0  0  0  0  0  0
    6.5720   -3.7210   28.6920 C   0  0  0  0  0  0  0  0  0  0  0  0
    6.9150   -4.8690   29.3610 O   0  0  0  0  0  0  0  0  0  0  0  0
    5.7190   -5.5760   27.2070 C   0  0  0  0  0  0  0  0  0  0  0  0
    4.4860   -5.9890   26.3800 C   0  0  0  0  0  0  0  0  0  0  0  0
    5.8540   -6.3880   28.3160 C   0  0  0  0  0  0  0  0  0  0  0  0
    5.7620   -4.9640   23.4140 C   0  0  0  0  0  0  0  0  0  0  0  0
    6.4990   -5.4170   22.2160 C   0  0  0  0  0  0  0  0  0  0  0  0
  1  2  1  0
  2  3  2  0
  2  4  1  0
  4  5  1  0
  5  6  1  0
  6  7  1  0
  7  8  1  0
  8  9  2  0
  8 10  1  0
 10 11  1  0
 11 12  1  6
 11 13  1  0
 13 14  2  0
 14 15  1  0
 15 16  2  0
 16 17  1  0
 16 18  1  0
 13 19  1  0
 18 19  2  0
 10 20  1  0
 20 21  1  1
 21 22  1  0
 20 23  1  0
 23 24  1  0
 23 25  1  0
  7 26  1  0
  4 27  1  0
 26 27  1  0
M  END
