piperidine-amides-27703-covalent
     RDKit          3D

 24 26  0  0  0  0  0  0  0  0999 V2000
    7.0920   -3.2780   19.2260 C   0  0  0  0  0  0  0  0  0  0  0  0
    6.3700   -4.0600   20.2580 C   0  0  0  0  0  0  0  0  0  0  0  0
    5.3020   -4.5980   19.9020 O   0  0  0  0  0  0  0  0  0  0  0  0
    6.9030   -4.2190   21.5490 N   0  0  0  0  0  0  0  0  0  0  0  0
    6.5190   -5.3120   22.3700 C   0  0  0  0  0  0  0  0  0  0  0  0
    6.1360   -4.9490   23.7460 C   0  0  0  0  0  0  0  0  0  0  0  0
    6.5370   -3.6010   24.2520 C   0  0  0  0  0  0  0  0  0  0  0  0
    5.5120   -3.1370   25.2310 C   0  0  0  0  0  0  0  0  0  0  0  0
    4.3680   -3.6170   25.1340 O   0  0  0  0  0  0  0  0  0  0  0  0
    5.7760   -2.1950   26.2550 N   0  0  0  0  0  0  0  0  0  0  0  0
    6.7100   -1.1150   26.1350 C   0  0  0  0  0  0  0  0  0  0  0  0
    5.8220   -0.3860   27.0330 C   0  0  0  0  0  0  0  0  0  0  0  0
    4.8130   -1.5030   27.0910 C   0  0  0  0  0  0  0  0  0  0  0  0
    5.0430   -0.7140   28.2570 C   0  0  1  0  0  0  0  0  0  0  0  0
    5.7400   -1.2680   29.3230 C   0  0  0  0  0  0  0  0  0  0  0  0
    6.8880   -0.6080   29.8910 N   0  0  0  0  0  0  0  0  0  0  0  0
    5.2790   -2.4010   29.7700 O   0  0  0  0  0  0  0  0  0  0  0  0
    4.9200    0.7550   28.5850 C   0  0  0  0  0  0  0  0  0  0  0  0
    4.2130    1.3700   27.5930 C   0  0  0  0  0  0  0  0  0  0  0  0
    4.8780    0.8140   26.1020 S   0  0  0  0  0  0  0  0  0  0  0  0
    3.8430    0.1380   25.2890 O   0  0  0  0  0  0  0  0  0  0  0  0
    5.7250    1.8250   25.4370 O   0  0  0  0  0  0  0  0  0  0  0  0
    6.8820   -2.5940   23.2230 C   0  0  0  0  0  0  0  0  0  0  0  0
    7.6140   -3.1350   22.1700 C   0  0  0  0  0  0  0  0  0  0  0  0
  1  2  1  0
  2  3  2  0
  2  4  1  0
  4  5  1  0
  5  6  1  0
  6  7  1  0
  7  8  1  0
  8  9  2  0
  8 10  1  0
 10 11  1  0
 12 11  1  0
 10 13  1  0
 12 13  1  0
 12 14  1  0
 14 15  1  1
 15 16  1  0
 15 17  2  0
 14 18  1  0
 18 19  1  0
 12 20  1  0
 20 19  1  0
 20 21  2  0
 20 22  2  0
  7 23  1  0
  4 24  1  0
 23 24  1  0
M  END
