piperidine-amides-34945-covalent
     RDKit          3D

 32 34  0  0  0  0  0  0  0  0999 V2000
    7.0190   -3.3400   19.3210 C   0  0  0  0  0  0  0  0  0  0  0  0
    6.3500   -4.1960   20.3350 C   0  0  0  0  0  0  0  0  0  0  0  0
    5.3560   -4.8190   19.9690 O   0  0  0  0  0  0  0  0  0  0  0  0
    6.8710   -4.3070   21.6290 N   0  0  0  0  0  0  0  0  0  0  0  0
    6.6490   -5.4960   22.4160 C   0  0  0  0  0  0  0  0  0  0  0  0
    6.0040   -5.1060   23.7160 C   0  0  0  0  0  0  0  0  0  0  0  0
    6.0400   -3.5830   23.8560 C   0  0  0  0  0  0  0  0  0  0  0  0
    5.4890   -3.2130   25.1780 C   0  0  0  0  0  0  0  0  0  0  0  0
    4.2630   -3.2500   25.3380 O   0  0  0  0  0  0  0  0  0  0  0  0
    6.3060   -2.8300   26.2530 N   0  0  0  0  0  0  0  0  0  0  0  0
    6.6300   -3.8510   27.2070 C   0  0  0  0  0  0  0  0  0  0  0  0
    7.9590   -4.3620   26.8000 C   0  0  0  0  0  0  0  0  0  0  0  0
    8.7870   -3.4450   26.1970 C   0  0  0  0  0  0  0  0  0  0  0  0
    9.9900   -3.7160   25.7800 C   0  0  0  0  0  0  0  0  0  0  0  0
   10.3640   -4.9440   25.9720 C   0  0  0  0  0  0  0  0  0  0  0  0
    9.5820   -6.0410   26.5970 C   0  0  0  0  0  0  0  0  0  0  0  0
    8.1870   -5.8100   27.1150 C   0  0  0  0  0  0  0  0  0  0  0  0
    6.0550   -1.5760   26.9020 C   0  0  2  0  0  0  0  0  0  0  0  0
    5.4270   -1.6960   28.2380 C   0  0  0  0  0  0  0  0  0  0  0  0
    4.9310   -0.3970   28.5590 N   0  0  0  0  0  0  0  0  0  0  0  0
    4.5710   -0.1460   29.9170 C   0  0  0  0  0  0  0  0  0  0  0  0
    3.4500    0.3400   30.2850 O   0  0  0  0  0  0  0  0  0  0  0  0
    5.3020   -0.3710   30.9150 O   0  0  0  0  0  0  0  0  0  0  0  0
    5.5610    0.7350   31.8070 C   0  0  0  0  0  0  0  0  0  0  0  0
    4.3770    0.7740   32.7050 C   0  0  0  0  0  0  0  0  0  0  0  0
    5.9540    1.9510   31.2530 C   0  0  0  0  0  0  0  0  0  0  0  0
    6.7130    0.3380   32.6950 C   0  0  0  0  0  0  0  0  0  0  0  0
    5.0540    0.3620   27.4500 C   0  0  0  0  0  0  0  0  0  0  0  0
    5.2040   -0.5450   26.2150 C   0  0  1  0  0  0  0  0  0  0  0  0
    5.7620    0.1900   25.1850 O   0  0  0  0  0  0  0  0  0  0  0  0
    7.4670   -3.1430   23.5840 C   0  0  0  0  0  0  0  0  0  0  0  0
    7.6530   -3.2450   22.2400 C   0  0  0  0  0  0  0  0  0  0  0  0
  1  2  1  0
  2  3  2  0
  2  4  1  0
  4  5  1  0
  5  6  1  0
  6  7  1  0
  7  8  1  0
  8  9  2  0
  8 10  1  0
 10 11  1  0
 11 12  1  0
 12 13  2  0
 13 14  1  0
 14 15  2  0
 15 16  1  0
 12 17  1  0
 16 17  2  0
 18 10  1  6
 18 19  1  0
 19 20  1  0
 20 21  1  0
 21 22  2  0
 21 23  1  0
 24 23  1  0
 24 25  1  0
 24 26  1  0
 24 27  1  0
 20 28  1  0
 18 29  1  0
 28 29  1  0
 29 30  1  6
  7 31  1  0
  4 32  1  0
 31 32  1  0
M  END
