piperidine-amides-31836-covalent
     RDKit          3D

 28 30  0  0  0  0  0  0  0  0999 V2000
    6.9980   -3.4080   19.3410 C   0  0  0  0  0  0  0  0  0  0  0  0
    6.3760   -4.2090   20.3740 C   0  0  0  0  0  0  0  0  0  0  0  0
    5.4030   -4.9400   20.0080 O   0  0  0  0  0  0  0  0  0  0  0  0
    6.8190   -4.2520   21.7230 N   0  0  0  0  0  0  0  0  0  0  0  0
    6.7550   -5.5890   22.3810 C   0  0  0  0  0  0  0  0  0  0  0  0
    6.1100   -5.2790   23.7990 C   0  0  0  0  0  0  0  0  0  0  0  0
    6.2490   -3.7950   23.9870 C   0  0  0  0  0  0  0  0  0  0  0  0
    5.5170   -3.1740   25.2610 C   0  0  0  0  0  0  0  0  0  0  0  0
    5.0330   -2.0970   24.9630 O   0  0  0  0  0  0  0  0  0  0  0  0
    5.5800   -3.9290   26.2820 N   0  0  0  0  0  0  0  0  0  0  0  0
    5.3080   -4.9360   27.1450 C   0  0  0  0  0  0  0  0  0  0  0  0
    4.9270   -5.0440   28.4630 C   0  0  0  0  0  0  0  0  0  0  0  0
    5.6800   -4.2530   29.3490 C   0  0  0  0  0  0  0  0  0  0  0  0
    5.1090   -2.9790   29.8650 C   0  0  0  0  0  0  0  0  0  0  0  0
    6.3270   -2.0280   29.5630 C   0  0  0  0  0  0  0  0  0  0  0  0
    5.9480   -0.7460   30.0100 C   0  0  0  0  0  0  0  0  0  0  0  0
    4.7030   -0.5580   30.5760 C   0  0  0  0  0  0  0  0  0  0  0  0
    5.0160    0.9270   30.7770 C   0  0  0  0  0  0  0  0  0  0  0  0
    5.5900    1.2190   31.8400 O   0  0  0  0  0  0  0  0  0  0  0  0
    4.6910    1.8830   29.8450 O   0  0  0  0  0  0  0  0  0  0  0  0
    3.3900    2.3320   29.5800 C   0  0  0  0  0  0  0  0  0  0  0  0
    3.6350   -1.5070   30.8120 C   0  0  0  0  0  0  0  0  0  0  0  0
    3.8530   -2.7910   30.4350 C   0  0  0  0  0  0  0  0  0  0  0  0
    2.9540   -3.7940   30.5900 F   0  0  0  0  0  0  0  0  0  0  0  0
    6.6230   -4.0230   28.2470 C   0  0  0  0  0  0  0  0  0  0  0  0
    6.3290   -3.1610   27.2120 C   0  0  0  0  0  0  0  0  0  0  0  0
    7.5600   -3.1780   23.6780 C   0  0  0  0  0  0  0  0  0  0  0  0
    7.7460   -3.2350   22.2020 C   0  0  0  0  0  0  0  0  0  0  0  0
  1  2  1  0
  2  3  2  0
  2  4  1  0
  4  5  1  0
  5  6  1  0
  6  7  1  0
  7  8  1  0
  8  9  2  0
  8 10  1  0
 10 11  1  0
 11 12  1  0
 12 13  1  0
 13 14  1  0
 14 15  2  0
 15 16  1  0
 16 17  2  0
 17 18  1  0
 18 19  2  0
 18 20  1  0
 20 21  1  0
 17 22  1  0
 14 23  1  0
 22 23  2  0
 23 24  1  0
 13 25  1  0
 10 26  1  0
 25 26  1  0
  7 27  1  0
  4 28  1  0
 27 28  1  0
M  END
