piperidine-amides-3402-covalent
     RDKit          3D

 21 22  0  0  0  0  0  0  0  0999 V2000
    7.0910   -3.3220   19.2880 C   0  0  0  0  0  0  0  0  0  0  0  0
    6.3760   -4.1440   20.2550 C   0  0  0  0  0  0  0  0  0  0  0  0
    5.3380   -4.7220   19.9440 O   0  0  0  0  0  0  0  0  0  0  0  0
    6.9300   -4.3210   21.5640 N   0  0  0  0  0  0  0  0  0  0  0  0
    6.4560   -5.4070   22.3790 C   0  0  0  0  0  0  0  0  0  0  0  0
    5.6650   -4.8570   23.5350 C   0  0  0  0  0  0  0  0  0  0  0  0
    6.5300   -3.8360   24.2630 C   0  0  0  0  0  0  0  0  0  0  0  0
    5.7840   -3.2700   25.4180 C   0  0  0  0  0  0  0  0  0  0  0  0
    4.5370   -3.2230   25.4490 O   0  0  0  0  0  0  0  0  0  0  0  0
    6.5240   -2.7670   26.5130 N   0  0  0  0  0  0  0  0  0  0  0  0
    6.0530   -1.5950   27.2130 C   0  0  1  0  0  0  0  0  0  0  0  0
    6.9630   -1.4610   28.3930 C   0  0  0  0  0  0  0  0  0  0  0  0
    6.6560   -0.4460   29.2410 C   0  0  0  0  0  0  0  0  0  0  0  0
    6.2360    0.7570   28.6730 C   0  0  0  0  0  0  0  0  0  0  0  0
    5.5170    0.7250   27.4790 C   0  0  1  0  0  0  0  0  0  0  0  0
    5.3410    2.0350   26.3920 S   0  0  0  0  0  0  0  0  0  0  0  0
    4.1460    2.9270   27.2030 C   0  0  0  0  0  0  0  0  0  0  0  0
    3.1060    2.0600   26.9470 C   0  0  0  0  0  0  0  0  0  0  0  0
    5.8320   -0.3550   26.6610 C   0  0  0  0  0  0  0  0  0  0  0  0
    7.1590   -2.7790   23.4380 C   0  0  0  0  0  0  0  0  0  0  0  0
    7.6280   -3.2300   22.1380 C   0  0  0  0  0  0  0  0  0  0  0  0
  1  2  1  0
  2  3  2  0
  2  4  1  0
  4  5  1  0
  5  6  1  0
  6  7  1  0
  7  8  1  0
  8  9  2  0
  8 10  1  0
 11 10  1  6
 11 12  1  0
 12 13  1  0
 13 14  1  0
 14 15  1  0
 15 16  1  6
 16 17  1  0
 17 18  1  0
 11 19  1  0
 15 19  1  0
  7 20  1  0
  4 21  1  0
 20 21  1  0
M  END
