piperidine-amides-1971-covalent
     RDKit          3D

 20 21  0  0  0  0  0  0  0  0999 V2000
    7.0550   -3.2940   19.2980 C   0  0  0  0  0  0  0  0  0  0  0  0
    6.3600   -4.1210   20.3190 C   0  0  0  0  0  0  0  0  0  0  0  0
    5.3600   -4.7360   19.9530 O   0  0  0  0  0  0  0  0  0  0  0  0
    6.8680   -4.2100   21.6200 N   0  0  0  0  0  0  0  0  0  0  0  0
    7.6650   -3.1490   22.2050 C   0  0  0  0  0  0  0  0  0  0  0  0
    7.2830   -2.9180   23.6450 C   0  0  0  0  0  0  0  0  0  0  0  0
    5.9680   -3.6430   23.9550 C   0  0  0  0  0  0  0  0  0  0  0  0
    5.5450   -3.3420   25.3440 C   0  0  0  0  0  0  0  0  0  0  0  0
    4.3730   -2.9950   25.5410 O   0  0  0  0  0  0  0  0  0  0  0  0
    6.4230   -3.4310   26.4420 N   0  0  0  0  0  0  0  0  0  0  0  0
    5.9800   -4.0270   27.6970 C   0  0  0  0  0  0  0  0  0  0  0  0
    6.1230   -5.5490   27.6440 C   0  0  0  0  0  0  0  0  0  0  0  0
    5.1170   -6.4570   27.8810 C   0  0  2  0  0  0  0  0  0  0  0  0
    3.9210   -6.1470   27.3400 C   0  0  0  0  0  0  0  0  0  0  0  0
    2.9550   -6.5460   28.1690 C   0  0  0  0  0  0  0  0  0  0  0  0
    3.3310   -7.1270   29.4980 C   0  0  0  0  0  0  0  0  0  0  0  0
    4.8000   -6.7730   29.3300 C   0  0  1  0  0  0  0  0  0  0  0  0
    5.6380   -7.7930   29.6940 O   0  0  0  0  0  0  0  0  0  0  0  0
    6.0400   -5.0960   23.7110 C   0  0  0  0  0  0  0  0  0  0  0  0
    6.5710   -5.4090   22.3600 C   0  0  0  0  0  0  0  0  0  0  0  0
  1  2  1  0
  2  3  2  0
  2  4  1  0
  4  5  1  0
  5  6  1  0
  6  7  1  0
  7  8  1  0
  8  9  2  0
  8 10  1  0
 10 11  1  0
 11 12  1  0
 13 12  1  1
 13 14  1  0
 14 15  1  0
 15 16  1  0
 13 17  1  0
 16 17  1  0
 17 18  1  6
  7 19  1  0
  4 20  1  0
 19 20  1  0
M  END
