piperidine-amides-35381-covalent
     RDKit          3D

 35 39  0  0  0  0  0  0  0  0999 V2000
    7.1060   -3.3340   19.3120 C   0  0  0  0  0  0  0  0  0  0  0  0
    6.4410   -4.2100   20.3060 C   0  0  0  0  0  0  0  0  0  0  0  0
    5.3930   -4.7580   19.9620 O   0  0  0  0  0  0  0  0  0  0  0  0
    7.0400   -4.4270   21.5500 N   0  0  0  0  0  0  0  0  0  0  0  0
    6.7750   -5.6380   22.2920 C   0  0  0  0  0  0  0  0  0  0  0  0
    6.1360   -5.2880   23.6040 C   0  0  0  0  0  0  0  0  0  0  0  0
    5.9610   -3.7760   23.6700 C   0  0  0  0  0  0  0  0  0  0  0  0
    5.2840   -3.4700   24.9160 C   0  0  0  0  0  0  0  0  0  0  0  0
    4.1720   -2.9330   24.9040 O   0  0  0  0  0  0  0  0  0  0  0  0
    5.8700   -3.7760   26.1190 N   0  0  0  0  0  0  0  0  0  0  0  0
    6.1980   -2.6280   26.8660 C   0  0  0  0  0  0  0  0  0  0  0  0
    5.9580   -3.0430   28.2330 C   0  0  0  0  0  0  0  0  0  0  0  0
    6.8350   -2.7620   29.1320 C   0  0  0  0  0  0  0  0  0  0  0  0
    7.1840   -1.4690   29.0040 C   0  0  0  0  0  0  0  0  0  0  0  0
    6.0140   -0.6710   29.1190 N   0  0  0  0  0  0  0  0  0  0  0  0
    6.2500    0.5180   29.8900 C   0  0  0  0  0  0  0  0  0  0  0  0
    7.4030    1.2260   29.7480 O   0  0  0  0  0  0  0  0  0  0  0  0
    5.3500    1.0000   30.8080 O   0  0  0  0  0  0  0  0  0  0  0  0
    5.7440    1.7400   31.9370 C   0  0  0  0  0  0  0  0  0  0  0  0
    6.2980    0.8680   33.0190 C   0  0  0  0  0  0  0  0  0  0  0  0
    7.8190    0.9970   32.9270 C   0  0  0  0  0  0  0  0  0  0  0  0
    8.5120    0.1660   33.9680 C   0  0  0  0  0  0  0  0  0  0  0  0
    7.7610   -0.6570   34.9410 C   0  0  0  0  0  0  0  0  0  0  0  0
    6.2690   -0.7030   34.9320 C   0  0  0  0  0  0  0  0  0  0  0  0
    5.5570    0.1020   33.9200 C   0  0  0  0  0  0  0  0  0  0  0  0
    4.7600   -1.0720   28.6160 C   0  0  0  0  0  0  0  0  0  0  0  0
    4.6790   -2.4500   28.7660 C   0  0  0  0  0  0  0  0  0  0  0  0
    5.7120   -4.3720   28.2810 C   0  0  0  0  0  0  0  0  0  0  0  0
    5.4730   -5.5430   29.4430 C   0  0  0  0  0  0  0  0  0  0  0  0
    5.2060   -7.0520   29.0210 C   0  0  0  0  0  0  0  0  0  0  0  0
    5.2590   -6.8850   27.7790 C   0  0  0  0  0  0  0  0  0  0  0  0
    5.5080   -5.5090   28.1970 C   0  0  0  0  0  0  0  0  0  0  0  0
    5.6400   -4.9280   26.9680 C   0  0  0  0  0  0  0  0  0  0  0  0
    7.2270   -3.0380   23.5090 C   0  0  0  0  0  0  0  0  0  0  0  0
    7.7810   -3.3330   22.1590 C   0  0  0  0  0  0  0  0  0  0  0  0
  1  2  1  0
  2  3  2  0
  2  4  1  0
  4  5  1  0
  5  6  1  0
  6  7  1  0
  7  8  1  0
  8  9  2  0
  8 10  1  0
 10 11  1  0
 12 11  1  0
 12 13  1  0
 13 14  1  0
 14 15  1  0
 15 16  1  0
 16 17  2  0
 16 18  1  0
 18 19  1  0
 19 20  1  0
 20 21  2  0
 21 22  1  0
 22 23  2  0
 23 24  1  0
 20 25  1  0
 24 25  2  0
 15 26  1  0
 12 27  1  0
 26 27  1  0
 12 28  1  0
 28 29  1  0
 29 30  2  0
 30 31  1  0
 31 32  2  0
 10 33  1  0
 28 33  2  0
 32 33  1  0
  7 34  1  0
  4 35  1  0
 34 35  1  0
M  END
