piperidine-amides-10229-covalent
     RDKit          3D

 25 26  0  0  0  0  0  0  0  0999 V2000
    7.0970   -3.2260   19.1840 C   0  0  0  0  0  0  0  0  0  0  0  0
    6.3170   -3.9260   20.2110 C   0  0  0  0  0  0  0  0  0  0  0  0
    5.2350   -4.4430   19.8370 O   0  0  0  0  0  0  0  0  0  0  0  0
    6.7830   -4.0490   21.5200 N   0  0  0  0  0  0  0  0  0  0  0  0
    6.3760   -5.1750   22.3140 C   0  0  0  0  0  0  0  0  0  0  0  0
    5.6050   -4.6160   23.4730 C   0  0  0  0  0  0  0  0  0  0  0  0
    6.4440   -3.6380   24.2480 C   0  0  0  0  0  0  0  0  0  0  0  0
    5.6290   -3.0150   25.3320 C   0  0  0  0  0  0  0  0  0  0  0  0
    4.4180   -2.8180   25.0920 O   0  0  0  0  0  0  0  0  0  0  0  0
    6.1250   -2.6290   26.6060 N   0  0  0  0  0  0  0  0  0  0  0  0
    6.3120   -3.5940   27.6730 C   0  0  1  0  0  0  0  0  0  0  0  0
    5.0410   -4.3110   28.0510 C   0  0  0  0  0  0  0  0  0  0  0  0
    7.2350   -4.6160   27.2880 C   0  0  0  0  0  0  0  0  0  0  0  0
    6.8780   -5.4540   26.2790 C   0  0  0  0  0  0  0  0  0  0  0  0
    5.5960   -5.8410   25.8980 C   0  0  0  0  0  0  0  0  0  0  0  0
    5.3690   -6.6990   24.8620 C   0  0  0  0  0  0  0  0  0  0  0  0
    6.4040   -7.2160   24.1540 C   0  0  0  0  0  0  0  0  0  0  0  0
    7.8460   -6.8760   24.4710 C   0  0  0  0  0  0  0  0  0  0  0  0
    8.0070   -5.8840   25.6660 C   0  0  0  0  0  0  0  0  0  0  0  0
    9.2910   -5.3120   26.2640 C   0  0  0  0  0  0  0  0  0  0  0  0
    9.4090   -5.3220   27.6110 F   0  0  0  0  0  0  0  0  0  0  0  0
    9.4770   -3.9740   25.9160 F   0  0  0  0  0  0  0  0  0  0  0  0
   10.3340   -5.9820   25.7730 F   0  0  0  0  0  0  0  0  0  0  0  0
    6.9300   -2.5650   23.3050 C   0  0  0  0  0  0  0  0  0  0  0  0
    7.6170   -3.0350   22.1930 C   0  0  0  0  0  0  0  0  0  0  0  0
  1  2  1  0
  2  3  2  0
  2  4  1  0
  4  5  1  0
  5  6  1  0
  6  7  1  0
  7  8  1  0
  8  9  2  0
  8 10  1  0
 10 11  1  0
 11 12  1  6
 11 13  1  0
 13 14  1  0
 14 15  2  0
 15 16  1  0
 16 17  2  0
 17 18  1  0
 14 19  1  0
 18 19  2  0
 19 20  1  0
 20 21  1  0
 20 22  1  0
 20 23  1  0
  7 24  1  0
  4 25  1  0
 24 25  1  0
M  END
