piperidine-amides-11528-covalent
     RDKit          3D

 20 21  0  0  0  0  0  0  0  0999 V2000
    7.1280   -3.2810   19.2010 C   0  0  0  0  0  0  0  0  0  0  0  0
    6.3750   -4.0280   20.2120 C   0  0  0  0  0  0  0  0  0  0  0  0
    5.3070   -4.5710   19.8970 O   0  0  0  0  0  0  0  0  0  0  0  0
    6.8780   -4.1820   21.5170 N   0  0  0  0  0  0  0  0  0  0  0  0
    7.7460   -3.2150   22.1320 C   0  0  0  0  0  0  0  0  0  0  0  0
    6.9790   -2.6730   23.2990 C   0  0  0  0  0  0  0  0  0  0  0  0
    6.4220   -3.7570   24.1830 C   0  0  0  0  0  0  0  0  0  0  0  0
    5.5230   -3.2010   25.2170 C   0  0  0  0  0  0  0  0  0  0  0  0
    4.2810   -3.4520   25.2020 O   0  0  0  0  0  0  0  0  0  0  0  0
    5.9790   -2.3700   26.2580 N   0  0  0  0  0  0  0  0  0  0  0  0
    6.2460   -2.9520   27.5760 C   0  0  0  0  0  0  0  0  0  0  0  0
    7.6810   -3.1710   27.5920 C   0  0  0  0  0  0  0  0  0  0  0  0
    8.1630   -4.4640   27.1670 C   0  0  0  0  0  0  0  0  0  0  0  0
    9.0920   -4.6510   26.0700 N   0  0  0  0  0  0  0  0  0  0  0  0
    9.2000   -6.1510   26.1920 C   0  0  0  0  0  0  0  0  0  0  0  0
    8.4540   -6.8160   27.1600 O   0  0  0  0  0  0  0  0  0  0  0  0
    7.8740   -5.7640   27.6810 C   0  0  0  0  0  0  0  0  0  0  0  0
    6.9030   -5.7080   28.7920 C   0  0  0  0  0  0  0  0  0  0  0  0
    5.6790   -4.7970   23.3510 C   0  0  0  0  0  0  0  0  0  0  0  0
    6.4440   -5.3090   22.2980 C   0  0  0  0  0  0  0  0  0  0  0  0
  1  2  1  0
  2  3  2  0
  2  4  1  0
  4  5  1  0
  5  6  1  0
  6  7  1  0
  7  8  1  0
  8  9  2  0
  8 10  1  0
 10 11  1  0
 11 12  1  0
 12 13  1  0
 13 14  1  0
 14 15  2  0
 15 16  1  0
 13 17  2  0
 16 17  1  0
 17 18  1  0
  7 19  1  0
  4 20  1  0
 19 20  1  0
M  END
