piperidine-amides-1819-covalent
     RDKit          3D

 19 19  0  0  0  0  0  0  0  0999 V2000
    7.1610   -3.2490   19.1690 C   0  0  0  0  0  0  0  0  0  0  0  0
    6.3860   -4.0120   20.1800 C   0  0  0  0  0  0  0  0  0  0  0  0
    5.2950   -4.4690   19.8500 O   0  0  0  0  0  0  0  0  0  0  0  0
    6.9420   -4.2270   21.4350 N   0  0  0  0  0  0  0  0  0  0  0  0
    7.7100   -3.1990   22.0830 C   0  0  0  0  0  0  0  0  0  0  0  0
    6.9250   -2.6810   23.2390 C   0  0  0  0  0  0  0  0  0  0  0  0
    6.5350   -3.8670   24.1090 C   0  0  0  0  0  0  0  0  0  0  0  0
    5.7220   -3.3330   25.1960 C   0  0  0  0  0  0  0  0  0  0  0  0
    4.5070   -3.1500   25.0440 O   0  0  0  0  0  0  0  0  0  0  0  0
    6.3260   -3.0320   26.4100 N   0  0  0  0  0  0  0  0  0  0  0  0
    5.9970   -3.8720   27.5210 C   0  0  0  0  0  0  0  0  0  0  0  0
    6.6240   -3.1990   28.6980 C   0  0  0  0  0  0  0  0  0  0  0  0
    7.0330   -1.8890   28.6820 C   0  0  0  0  0  0  0  0  0  0  0  0
    6.1580   -0.9880   29.1830 C   0  0  0  0  0  0  0  0  0  0  0  0
    6.4850   -0.5300   30.4270 C   0  0  0  0  0  0  0  0  0  0  0  0
    7.8550   -0.1850   30.9800 C   0  0  0  0  0  0  0  0  0  0  0  0
    6.8130    0.8610   30.6660 C   0  0  0  0  0  0  0  0  0  0  0  0
    5.8080   -4.9510   23.4230 C   0  0  0  0  0  0  0  0  0  0  0  0
    6.4580   -5.3640   22.1580 C   0  0  0  0  0  0  0  0  0  0  0  0
  1  2  1  0
  2  3  2  0
  2  4  1  0
  4  5  1  0
  5  6  1  0
  6  7  1  0
  7  8  1  0
  8  9  2  0
  8 10  1  0
 10 11  1  0
 11 12  1  0
 12 13  1  0
 13 14  1  0
 14 15  1  0
 15 16  1  0
 15 17  1  0
  7 18  1  0
  4 19  1  0
 18 19  1  0
M  END
