piperidine-amides-19267-covalent
     RDKit          3D

 22 23  0  0  0  0  0  0  0  0999 V2000
    7.0220   -3.4050   19.3960 C   0  0  0  0  0  0  0  0  0  0  0  0
    6.3770   -4.2020   20.4220 C   0  0  0  0  0  0  0  0  0  0  0  0
    5.4340   -4.9580   20.0210 O   0  0  0  0  0  0  0  0  0  0  0  0
    6.7600   -4.2150   21.7940 N   0  0  0  0  0  0  0  0  0  0  0  0
    6.6740   -5.5360   22.4850 C   0  0  0  0  0  0  0  0  0  0  0  0
    6.0910   -5.1670   23.9160 C   0  0  0  0  0  0  0  0  0  0  0  0
    6.2920   -3.6810   24.0400 C   0  0  0  0  0  0  0  0  0  0  0  0
    5.5620   -2.9480   25.2630 C   0  0  0  0  0  0  0  0  0  0  0  0
    4.6680   -2.2670   24.7900 O   0  0  0  0  0  0  0  0  0  0  0  0
    6.0300   -3.2260   26.4270 N   0  0  0  0  0  0  0  0  0  0  0  0
    6.3010   -3.9650   27.5470 C   0  0  0  0  0  0  0  0  0  0  0  0
    6.1620   -1.9420   27.0290 C   0  0  0  0  0  0  0  0  0  0  0  0
    5.9750   -0.6520   26.4750 C   0  0  0  0  0  0  0  0  0  0  0  0
    6.0710    0.7300   27.0300 C   0  0  0  0  0  0  0  0  0  0  0  0
    6.4520    0.8360   28.5370 C   0  0  0  0  0  0  0  0  0  0  0  0
    6.6660   -0.3830   29.2000 C   0  0  0  0  0  0  0  0  0  0  0  0
    6.9990   -0.4180   30.5650 C   0  0  0  0  0  0  0  0  0  0  0  0
    7.0760    0.9740   29.9590 C   0  0  0  0  0  0  0  0  0  0  0  0
    5.5840   -0.9780   30.7890 C   0  0  0  0  0  0  0  0  0  0  0  0
    6.5190   -1.6600   28.4380 C   0  0  0  0  0  0  0  0  0  0  0  0
    7.6600   -3.1860   23.6510 C   0  0  0  0  0  0  0  0  0  0  0  0
    7.6840   -3.1980   22.2910 C   0  0  0  0  0  0  0  0  0  0  0  0
  1  2  1  0
  2  3  2  0
  2  4  1  0
  4  5  1  0
  5  6  1  0
  6  7  1  0
  7  8  1  0
  8  9  2  0
  8 10  1  0
 10 11  1  0
 10 12  1  0
 12 13  2  0
 13 14  1  0
 14 15  2  0
 15 16  1  0
 16 17  1  0
 17 18  1  0
 17 19  1  0
 12 20  1  0
 16 20  2  0
  7 21  1  0
  4 22  1  0
 21 22  1  0
M  END
