piperidine-amides-25215-covalent
     RDKit          3D

 25 27  0  0  0  0  0  0  0  0999 V2000
    7.0630   -3.3580   19.3420 C   0  0  0  0  0  0  0  0  0  0  0  0
    6.3540   -4.1980   20.3350 C   0  0  0  0  0  0  0  0  0  0  0  0
    5.3240   -4.7520   19.9540 O   0  0  0  0  0  0  0  0  0  0  0  0
    6.8810   -4.3820   21.6150 N   0  0  0  0  0  0  0  0  0  0  0  0
    6.5840   -5.5400   22.4100 C   0  0  0  0  0  0  0  0  0  0  0  0
    5.7080   -5.1250   23.5600 C   0  0  0  0  0  0  0  0  0  0  0  0
    6.3120   -3.9100   24.2720 C   0  0  0  0  0  0  0  0  0  0  0  0
    5.2720   -3.4030   25.2080 C   0  0  0  0  0  0  0  0  0  0  0  0
    4.2980   -2.8130   24.7430 O   0  0  0  0  0  0  0  0  0  0  0  0
    5.3710   -3.5750   26.6040 N   0  0  0  0  0  0  0  0  0  0  0  0
    4.2110   -3.4940   27.4690 C   0  0  0  0  0  0  0  0  0  0  0  0
    4.5970   -3.0970   28.8990 C   0  0  0  0  0  0  0  0  0  0  0  0
    5.5980   -4.0300   29.3960 N   0  0  0  0  0  0  0  0  0  0  0  0
    4.8940   -5.3040   29.4710 C   0  0  0  0  0  0  0  0  0  0  0  0
    3.5810   -5.3300   29.8580 C   0  0  0  0  0  0  0  0  0  0  0  0
    3.0040   -6.5600   29.8990 C   0  0  0  0  0  0  0  0  0  0  0  0
    1.7660   -7.3920   30.1780 C   0  0  0  0  0  0  0  0  0  0  0  0
    0.4840   -6.8100   30.2700 N   0  0  0  0  0  0  0  0  0  0  0  0
    3.4870   -7.8730   29.6170 C   0  0  0  0  0  0  0  0  0  0  0  0
    4.9150   -7.7050   29.2130 C   0  0  0  0  0  0  0  0  0  0  0  0
    5.5550   -6.4490   29.1550 N   0  0  0  0  0  0  0  0  0  0  0  0
    6.6710   -4.1270   28.4550 C   0  0  0  0  0  0  0  0  0  0  0  0
    6.4610   -3.1160   27.3780 C   0  0  0  0  0  0  0  0  0  0  0  0
    6.8990   -2.8480   23.4160 C   0  0  0  0  0  0  0  0  0  0  0  0
    7.6800   -3.3570   22.2560 C   0  0  0  0  0  0  0  0  0  0  0  0
  1  2  1  0
  2  3  2  0
  2  4  1  0
  4  5  1  0
  5  6  1  0
  6  7  1  0
  7  8  1  0
  8  9  2  0
  8 10  1  0
 10 11  1  0
 11 12  1  0
 12 13  1  0
 13 14  1  0
 14 15  2  0
 15 16  1  0
 16 17  1  0
 17 18  3  0
 16 19  2  0
 19 20  1  0
 14 21  1  0
 20 21  2  0
 13 22  1  0
 10 23  1  0
 22 23  1  0
  7 24  1  0
  4 25  1  0
 24 25  1  0
M  END
