piperidine-amides-26126-covalent
     RDKit          3D

 25 27  0  0  0  0  0  0  0  0999 V2000
    7.0540   -3.3440   19.3340 C   0  0  0  0  0  0  0  0  0  0  0  0
    6.3760   -4.1950   20.3160 C   0  0  0  0  0  0  0  0  0  0  0  0
    5.3550   -4.8070   19.9700 O   0  0  0  0  0  0  0  0  0  0  0  0
    6.8830   -4.3860   21.6100 N   0  0  0  0  0  0  0  0  0  0  0  0
    6.6720   -5.6300   22.3350 C   0  0  0  0  0  0  0  0  0  0  0  0
    6.1880   -5.2920   23.7310 C   0  0  0  0  0  0  0  0  0  0  0  0
    5.9500   -3.8260   23.9370 C   0  0  0  0  0  0  0  0  0  0  0  0
    5.6640   -3.4590   25.3430 C   0  0  0  0  0  0  0  0  0  0  0  0
    4.5310   -2.9580   25.6090 O   0  0  0  0  0  0  0  0  0  0  0  0
    6.5210   -3.6160   26.4600 N   0  0  0  0  0  0  0  0  0  0  0  0
    5.9100   -3.3480   27.7840 C   0  0  0  0  0  0  0  0  0  0  0  0
    5.9960   -4.5560   28.6340 C   0  0  0  0  0  0  0  0  0  0  0  0
    7.2990   -5.2430   28.6270 C   0  0  0  0  0  0  0  0  0  0  0  0
    7.8470   -5.4680   27.2560 C   0  0  0  0  0  0  0  0  0  0  0  0
    7.8700   -4.1600   26.5090 C   0  0  1  0  0  0  0  0  0  0  0  0
    8.5710   -4.3670   25.2130 C   0  0  0  0  0  0  0  0  0  0  0  0
    9.7630   -3.6700   25.0810 C   0  0  0  0  0  0  0  0  0  0  0  0
   10.9860   -4.1380   25.7070 C   0  0  0  0  0  0  0  0  0  0  0  0
   12.3790   -3.4600   25.6320 C   0  0  0  0  0  0  0  0  0  0  0  0
   12.4020   -2.2040   24.8210 C   0  0  0  0  0  0  0  0  0  0  0  0
   11.0260   -2.0670   24.3720 C   0  0  0  0  0  0  0  0  0  0  0  0
    9.9320   -2.4740   24.3500 C   0  0  0  0  0  0  0  0  0  0  0  0
    9.0020   -1.7430   23.6280 F   0  0  0  0  0  0  0  0  0  0  0  0
    6.9760   -2.9150   23.4080 C   0  0  0  0  0  0  0  0  0  0  0  0
    7.6070   -3.3560   22.2840 C   0  0  0  0  0  0  0  0  0  0  0  0
  1  2  1  0
  2  3  2  0
  2  4  1  0
  4  5  1  0
  5  6  1  0
  6  7  1  0
  7  8  1  0
  8  9  2  0
  8 10  1  0
 10 11  1  0
 11 12  1  0
 12 13  1  0
 13 14  1  0
 10 15  1  0
 14 15  1  0
 15 16  1  6
 16 17  1  0
 17 18  2  0
 18 19  1  0
 19 20  2  0
 20 21  1  0
 17 22  1  0
 21 22  2  0
 22 23  1  0
  7 24  1  0
  4 25  1  0
 24 25  1  0
M  END
