piperidine-amides-22349-covalent
     RDKit          3D

 23 25  0  0  0  0  0  0  0  0999 V2000
    7.0070   -3.3560   19.3790 C   0  0  0  0  0  0  0  0  0  0  0  0
    6.3660   -4.2400   20.3690 C   0  0  0  0  0  0  0  0  0  0  0  0
    5.4060   -4.9570   20.0070 O   0  0  0  0  0  0  0  0  0  0  0  0
    6.8330   -4.3170   21.7000 N   0  0  0  0  0  0  0  0  0  0  0  0
    6.6810   -5.5700   22.4220 C   0  0  0  0  0  0  0  0  0  0  0  0
    6.0890   -5.2480   23.8080 C   0  0  0  0  0  0  0  0  0  0  0  0
    5.9890   -3.7470   23.8430 C   0  0  0  0  0  0  0  0  0  0  0  0
    5.2870   -3.1790   25.0260 C   0  0  0  0  0  0  0  0  0  0  0  0
    4.5710   -2.1880   24.8140 O   0  0  0  0  0  0  0  0  0  0  0  0
    5.3700   -3.6850   26.3440 N   0  0  0  0  0  0  0  0  0  0  0  0
    6.4250   -3.2030   27.1340 C   0  0  0  0  0  0  0  0  0  0  0  0
    6.4520   -4.1970   28.2610 C   0  0  0  0  0  0  0  0  0  0  0  0
    5.1680   -4.4310   28.4800 C   0  0  2  0  0  0  0  0  0  0  0  0
    4.8760   -5.8050   28.5450 N   0  0  0  0  0  0  0  0  0  0  0  0
    5.5960   -6.5480   29.4810 C   0  0  0  0  0  0  0  0  0  0  0  0
    4.7260   -7.5460   29.9010 C   0  0  0  0  0  0  0  0  0  0  0  0
    3.3210   -7.2400   29.8650 N   0  0  0  0  0  0  0  0  0  0  0  0
    2.3730   -8.1150   30.5340 C   0  0  0  0  0  0  0  0  0  0  0  0
    2.8060   -6.9790   28.6450 C   0  0  0  0  0  0  0  0  0  0  0  0
    3.8520   -6.3810   27.7400 C   0  0  0  0  0  0  0  0  0  0  0  0
    4.5300   -3.6620   27.5560 C   0  0  0  0  0  0  0  0  0  0  0  0
    7.3530   -3.1470   23.6300 C   0  0  0  0  0  0  0  0  0  0  0  0
    7.6610   -3.2550   22.2630 C   0  0  0  0  0  0  0  0  0  0  0  0
  1  2  1  0
  2  3  2  0
  2  4  1  0
  4  5  1  0
  5  6  1  0
  6  7  1  0
  7  8  1  0
  8  9  2  0
  8 10  1  0
 10 11  1  0
 11 12  1  0
 12 13  1  0
 13 14  1  6
 14 15  1  0
 15 16  1  0
 16 17  1  0
 17 18  1  0
 17 19  1  0
 14 20  1  0
 19 20  1  0
 10 21  1  0
 13 21  1  0
  7 22  1  0
  4 23  1  0
 22 23  1  0
M  END
