piperidine-amides-10563-covalent
     RDKit          3D

 23 25  0  0  0  0  0  0  0  0999 V2000
    7.0610   -3.3340   19.2920 C   0  0  0  0  0  0  0  0  0  0  0  0
    6.3970   -4.1590   20.3050 C   0  0  0  0  0  0  0  0  0  0  0  0
    5.3430   -4.7460   19.9510 O   0  0  0  0  0  0  0  0  0  0  0  0
    6.9590   -4.3110   21.5760 N   0  0  0  0  0  0  0  0  0  0  0  0
    7.7480   -3.2770   22.2030 C   0  0  0  0  0  0  0  0  0  0  0  0
    6.9980   -2.7700   23.3960 C   0  0  0  0  0  0  0  0  0  0  0  0
    6.4560   -3.8930   24.2330 C   0  0  0  0  0  0  0  0  0  0  0  0
    5.6970   -3.3390   25.3730 C   0  0  0  0  0  0  0  0  0  0  0  0
    4.4690   -3.1440   25.2240 O   0  0  0  0  0  0  0  0  0  0  0  0
    6.2850   -3.0160   26.6060 N   0  0  0  0  0  0  0  0  0  0  0  0
    6.1440   -1.7070   27.1930 C   0  0  0  0  0  0  0  0  0  0  0  0
    6.4810   -0.4660   26.4040 C   0  0  0  0  0  0  0  0  0  0  0  0
    6.3770    0.7830   26.9200 C   0  0  0  0  0  0  0  0  0  0  0  0
    5.9590    0.9500   28.1880 C   0  0  0  0  0  0  0  0  0  0  0  0
    5.5860   -0.0310   29.0690 C   0  0  0  0  0  0  0  0  0  0  0  0
    5.1390    0.2620   30.3550 C   0  0  0  0  0  0  0  0  0  0  0  0
    4.7430   -0.7390   31.1960 C   0  0  0  0  0  0  0  0  0  0  0  0
    4.1180   -0.3300   32.9510 Br  0  0  0  0  0  0  0  0  0  0  0  0
    4.8130   -2.1400   30.6910 C   0  0  0  0  0  0  0  0  0  0  0  0
    5.2760   -2.5340   29.4060 N   0  0  0  0  0  0  0  0  0  0  0  0
    5.6660   -1.4730   28.5660 C   0  0  0  0  0  0  0  0  0  0  0  0
    5.6100   -4.8800   23.4150 C   0  0  0  0  0  0  0  0  0  0  0  0
    6.5720   -5.4520   22.3900 C   0  0  0  0  0  0  0  0  0  0  0  0
  1  2  1  0
  2  3  2  0
  2  4  1  0
  4  5  1  0
  5  6  1  0
  6  7  1  0
  7  8  1  0
  8  9  2  0
  8 10  1  0
 10 11  1  0
 11 12  2  0
 12 13  1  0
 13 14  2  0
 14 15  1  0
 15 16  1  0
 16 17  2  0
 17 18  1  0
 17 19  1  0
 19 20  2  0
 11 21  1  0
 15 21  2  0
 20 21  1  0
  7 22  1  0
  4 23  1  0
 22 23  1  0
M  END
