piperidine-amides-27582-covalent
     RDKit          3D

 26 29  0  0  0  0  0  0  0  0999 V2000
    7.0830   -3.3840   19.3890 C   0  0  0  0  0  0  0  0  0  0  0  0
    6.3980   -4.2200   20.3750 C   0  0  0  0  0  0  0  0  0  0  0  0
    5.3640   -4.8200   19.9780 O   0  0  0  0  0  0  0  0  0  0  0  0
    6.9310   -4.3680   21.6640 N   0  0  0  0  0  0  0  0  0  0  0  0
    6.8070   -5.6360   22.3660 C   0  0  0  0  0  0  0  0  0  0  0  0
    6.2350   -5.3250   23.7150 C   0  0  0  0  0  0  0  0  0  0  0  0
    6.0570   -3.8520   23.7730 C   0  0  0  0  0  0  0  0  0  0  0  0
    5.4200   -3.3850   25.0130 C   0  0  0  0  0  0  0  0  0  0  0  0
    4.4480   -2.6230   24.8720 O   0  0  0  0  0  0  0  0  0  0  0  0
    5.7500   -3.6960   26.3230 N   0  0  0  0  0  0  0  0  0  0  0  0
    4.5640   -3.8780   27.1520 C   0  0  0  0  0  0  0  0  0  0  0  0
    4.7960   -4.5400   28.4900 C   0  0  0  0  0  0  0  0  0  0  0  0
    5.6840   -3.9660   29.2840 C   0  0  0  0  0  0  0  0  0  0  0  0
    5.2680   -2.8210   29.9470 C   0  0  0  0  0  0  0  0  0  0  0  0
    6.0670   -1.7400   29.8080 N   0  0  0  0  0  0  0  0  0  0  0  0
    5.4630   -0.7620   30.5360 N   0  0  0  0  0  0  0  0  0  0  0  0
    4.2790   -1.3300   31.0990 C   0  0  0  0  0  0  0  0  0  0  0  0
    3.3100   -0.7630   31.9190 C   0  0  0  0  0  0  0  0  0  0  0  0
    2.2710   -1.5630   32.3140 C   0  0  0  0  0  0  0  0  0  0  0  0
    2.2540   -2.9830   31.8310 C   0  0  0  0  0  0  0  0  0  0  0  0
    3.2660   -3.4780   31.0030 N   0  0  0  0  0  0  0  0  0  0  0  0
    4.2130   -2.6000   30.7000 N   0  0  0  0  0  0  0  0  0  0  0  0
    6.7180   -3.7760   28.5120 C   0  0  0  0  0  0  0  0  0  0  0  0
    6.3450   -2.8970   27.3500 C   0  0  0  0  0  0  0  0  0  0  0  0
    7.3570   -3.1480   23.5620 C   0  0  0  0  0  0  0  0  0  0  0  0
    7.7880   -3.3200   22.2650 C   0  0  0  0  0  0  0  0  0  0  0  0
  1  2  1  0
  2  3  2  0
  2  4  1  0
  4  5  1  0
  5  6  1  0
  6  7  1  0
  7  8  1  0
  8  9  2  0
  8 10  1  0
 10 11  1  0
 11 12  1  0
 12 13  1  0
 13 14  1  0
 14 15  2  0
 15 16  1  0
 16 17  2  0
 17 18  1  0
 18 19  2  0
 19 20  1  0
 20 21  2  0
 14 22  1  0
 17 22  1  0
 21 22  1  0
 13 23  1  0
 10 24  1  0
 23 24  1  0
  7 25  1  0
  4 26  1  0
 25 26  1  0
M  END
