piperidine-amides-10647-covalent
     RDKit          3D

 23 24  0  0  0  0  0  0  0  0999 V2000
    7.1630   -3.2830   19.2140 C   0  0  0  0  0  0  0  0  0  0  0  0
    6.3710   -3.9960   20.2100 C   0  0  0  0  0  0  0  0  0  0  0  0
    5.2490   -4.4410   19.8460 O   0  0  0  0  0  0  0  0  0  0  0  0
    6.9150   -4.2160   21.4690 N   0  0  0  0  0  0  0  0  0  0  0  0
    7.7540   -3.2410   22.1280 C   0  0  0  0  0  0  0  0  0  0  0  0
    7.0150   -2.7790   23.3360 C   0  0  0  0  0  0  0  0  0  0  0  0
    6.4890   -3.9510   24.1200 C   0  0  0  0  0  0  0  0  0  0  0  0
    5.7850   -3.4500   25.3020 C   0  0  0  0  0  0  0  0  0  0  0  0
    4.5420   -3.3370   25.2600 O   0  0  0  0  0  0  0  0  0  0  0  0
    6.4750   -3.0900   26.4590 N   0  0  0  0  0  0  0  0  0  0  0  0
    6.1470   -3.6420   27.7360 C   0  0  0  0  0  0  0  0  0  0  0  0
    6.1570   -2.5400   28.7550 C   0  0  1  0  0  0  0  0  0  0  0  0
    7.0400   -1.6650   28.6550 O   0  0  0  0  0  0  0  0  0  0  0  0
    5.0340   -1.7970   29.0180 C   0  0  0  0  0  0  0  0  0  0  0  0
    3.9080   -1.7400   28.2230 C   0  0  0  0  0  0  0  0  0  0  0  0
    2.8160   -0.9560   28.5810 C   0  0  0  0  0  0  0  0  0  0  0  0
    2.8050   -0.2000   29.7470 C   0  0  0  0  0  0  0  0  0  0  0  0
    3.9000   -0.2160   30.5790 C   0  0  0  0  0  0  0  0  0  0  0  0
    5.0780   -1.0630   30.1850 C   0  0  0  0  0  0  0  0  0  0  0  0
    6.1890   -1.1390   30.9390 O   0  0  0  0  0  0  0  0  0  0  0  0
    7.4320   -0.4870   30.5930 C   0  0  0  0  0  0  0  0  0  0  0  0
    5.6030   -4.8880   23.2870 C   0  0  0  0  0  0  0  0  0  0  0  0
    6.5330   -5.4050   22.2130 C   0  0  0  0  0  0  0  0  0  0  0  0
  1  2  1  0
  2  3  2  0
  2  4  1  0
  4  5  1  0
  5  6  1  0
  6  7  1  0
  7  8  1  0
  8  9  2  0
  8 10  1  0
 10 11  1  0
 11 12  1  0
 12 13  1  6
 12 14  1  0
 14 15  2  0
 15 16  1  0
 16 17  2  0
 17 18  1  0
 14 19  1  0
 18 19  2  0
 19 20  1  0
 20 21  1  0
  7 22  1  0
  4 23  1  0
 22 23  1  0
M  END
