piperidine-amides-31325-covalent
     RDKit          3D

 28 30  0  0  0  0  0  0  0  0999 V2000
    7.0530   -3.4410   19.3630 C   0  0  0  0  0  0  0  0  0  0  0  0
    6.3950   -4.2220   20.3830 C   0  0  0  0  0  0  0  0  0  0  0  0
    5.3910   -4.9070   20.0090 O   0  0  0  0  0  0  0  0  0  0  0  0
    6.8520   -4.2960   21.7230 N   0  0  0  0  0  0  0  0  0  0  0  0
    6.4540   -5.4970   22.5140 C   0  0  0  0  0  0  0  0  0  0  0  0
    6.5250   -4.9870   24.0220 C   0  0  0  0  0  0  0  0  0  0  0  0
    6.0360   -3.5620   23.9950 C   0  0  0  0  0  0  0  0  0  0  0  0
    5.3760   -3.0080   25.3420 C   0  0  0  0  0  0  0  0  0  0  0  0
    4.3440   -2.4150   25.0660 O   0  0  0  0  0  0  0  0  0  0  0  0
    6.0640   -3.3160   26.3710 N   0  0  0  0  0  0  0  0  0  0  0  0
    6.6700   -4.1580   27.2560 C   0  0  0  0  0  0  0  0  0  0  0  0
    6.2020   -2.0830   27.0880 C   0  0  0  0  0  0  0  0  0  0  0  0
    5.7860   -0.8350   26.5260 C   0  0  0  0  0  0  0  0  0  0  0  0
    5.9320    0.4100   27.2880 C   0  0  0  0  0  0  0  0  0  0  0  0
    5.3960    1.5540   26.4130 C   0  0  0  0  0  0  0  0  0  0  0  0
    4.5070    2.3330   27.2640 N   0  0  0  0  0  0  0  0  0  0  0  0
    3.2320    2.5700   26.6880 C   0  0  0  0  0  0  0  0  0  0  0  0
    4.9950    3.0720   28.4180 C   0  0  0  0  0  0  0  0  0  0  0  0
    6.3460    3.7060   28.0780 C   0  0  0  0  0  0  0  0  0  0  0  0
    7.7510    3.3590   28.5880 C   0  0  0  0  0  0  0  0  0  0  0  0
    8.5230    4.2340   27.9590 C   0  0  0  0  0  0  0  0  0  0  0  0
    7.7060    5.0090   27.1710 C   0  0  0  0  0  0  0  0  0  0  0  0
    6.4640    4.6790   27.2630 O   0  0  0  0  0  0  0  0  0  0  0  0
    6.5130    0.4050   28.6450 C   0  0  0  0  0  0  0  0  0  0  0  0
    6.8790   -0.8480   29.0790 C   0  0  0  0  0  0  0  0  0  0  0  0
    6.7280   -2.0090   28.3490 N   0  0  0  0  0  0  0  0  0  0  0  0
    6.8840   -2.5680   23.3080 C   0  0  0  0  0  0  0  0  0  0  0  0
    7.7010   -3.2600   22.2770 C   0  0  0  0  0  0  0  0  0  0  0  0
  1  2  1  0
  2  3  2  0
  2  4  1  0
  4  5  1  0
  5  6  1  0
  6  7  1  0
  7  8  1  0
  8  9  2  0
  8 10  1  0
 10 11  1  0
 10 12  1  0
 12 13  2  0
 13 14  1  0
 14 15  1  0
 15 16  1  0
 16 17  1  0
 16 18  1  0
 18 19  1  0
 19 20  2  0
 20 21  1  0
 21 22  2  0
 19 23  1  0
 22 23  1  0
 14 24  2  0
 24 25  1  0
 12 26  1  0
 25 26  2  0
  7 27  1  0
  4 28  1  0
 27 28  1  0
M  END
