piperidine-amides-11683-covalent
     RDKit          3D

 32 35  0  0  0  0  0  0  0  0999 V2000
    7.0590   -3.3540   19.2810 C   0  0  0  0  0  0  0  0  0  0  0  0
    6.3790   -4.1780   20.2740 C   0  0  0  0  0  0  0  0  0  0  0  0
    5.3530   -4.7840   19.9650 O   0  0  0  0  0  0  0  0  0  0  0  0
    6.9280   -4.3340   21.5950 N   0  0  0  0  0  0  0  0  0  0  0  0
    7.7100   -3.2770   22.1790 C   0  0  0  0  0  0  0  0  0  0  0  0
    6.9560   -2.6440   23.3040 C   0  0  0  0  0  0  0  0  0  0  0  0
    6.5270   -3.7460   24.2530 C   0  0  0  0  0  0  0  0  0  0  0  0
    5.7040   -3.1710   25.3480 C   0  0  0  0  0  0  0  0  0  0  0  0
    4.4800   -2.9710   25.2330 O   0  0  0  0  0  0  0  0  0  0  0  0
    6.3400   -2.8490   26.5660 N   0  0  0  0  0  0  0  0  0  0  0  0
    6.3170   -1.4940   27.0830 C   0  0  0  0  0  0  0  0  0  0  0  0
    5.8030   -0.3930   26.2080 C   0  0  0  0  0  0  0  0  0  0  0  0
    5.7690    0.9260   26.6620 C   0  0  0  0  0  0  0  0  0  0  0  0
    6.2160    1.2770   27.9570 C   0  0  0  0  0  0  0  0  0  0  0  0
    6.1530    2.6330   28.3330 N   0  0  0  0  0  0  0  0  0  0  0  0
    4.9780    3.3900   28.3180 C   0  0  0  0  0  0  0  0  0  0  0  0
    4.5140    3.9820   27.3300 O   0  0  0  0  0  0  0  0  0  0  0  0
    4.1820    3.5460   29.5250 C   0  0  0  0  0  0  0  0  0  0  0  0
    3.4830    4.7120   29.7620 N   0  0  0  0  0  0  0  0  0  0  0  0
    2.9500    4.4040   30.9010 N   0  0  0  0  0  0  0  0  0  0  0  0
    2.0960    5.3440   31.5740 C   0  0  0  0  0  0  0  0  0  0  0  0
    3.1970    3.1450   31.4910 C   0  0  0  0  0  0  0  0  0  0  0  0
    2.7880    2.5230   32.6700 C   0  0  0  0  0  0  0  0  0  0  0  0
    3.2930    1.1660   32.9050 C   0  0  0  0  0  0  0  0  0  0  0  0
    4.1340    0.5140   32.0200 C   0  0  0  0  0  0  0  0  0  0  0  0
    4.5020    1.1920   30.8660 C   0  0  0  0  0  0  0  0  0  0  0  0
    4.0120    2.5760   30.5820 C   0  0  0  0  0  0  0  0  0  0  0  0
    6.6840    0.2820   28.7690 C   0  0  0  0  0  0  0  0  0  0  0  0
    6.7390   -1.1400   28.3380 C   0  0  0  0  0  0  0  0  0  0  0  0
    7.2390   -2.1210   29.2630 C   0  0  0  0  0  0  0  0  0  0  0  0
    5.7520   -4.8710   23.5680 C   0  0  0  0  0  0  0  0  0  0  0  0
    6.5960   -5.4450   22.4470 C   0  0  0  0  0  0  0  0  0  0  0  0
  1  2  1  0
  2  3  2  0
  2  4  1  0
  4  5  1  0
  5  6  1  0
  6  7  1  0
  7  8  1  0
  8  9  2  0
  8 10  1  0
 10 11  1  0
 11 12  2  0
 12 13  1  0
 13 14  2  0
 14 15  1  0
 15 16  1  0
 16 17  2  0
 16 18  1  0
 18 19  2  0
 19 20  1  0
 20 21  1  0
 20 22  1  0
 22 23  1  0
 23 24  2  0
 24 25  1  0
 25 26  2  0
 18 27  1  0
 22 27  2  0
 26 27  1  0
 14 28  1  0
 11 29  1  0
 28 29  2  0
 29 30  1  0
  7 31  1  0
  4 32  1  0
 31 32  1  0
M  END
