piperidine-amides-28163-covalent
     RDKit          3D

 26 28  0  0  0  0  0  0  0  0999 V2000
    7.0510   -3.3440   19.3580 C   0  0  0  0  0  0  0  0  0  0  0  0
    6.3860   -4.2060   20.3600 C   0  0  0  0  0  0  0  0  0  0  0  0
    5.3750   -4.8260   19.9730 O   0  0  0  0  0  0  0  0  0  0  0  0
    6.8900   -4.3500   21.6640 N   0  0  0  0  0  0  0  0  0  0  0  0
    6.3300   -5.3400   22.5100 C   0  0  0  0  0  0  0  0  0  0  0  0
    5.6040   -4.7920   23.6720 C   0  0  0  0  0  0  0  0  0  0  0  0
    6.1670   -3.5440   24.2730 C   0  0  0  0  0  0  0  0  0  0  0  0
    5.2150   -2.8700   25.2480 C   0  0  0  0  0  0  0  0  0  0  0  0
    4.1400   -2.4010   24.8560 O   0  0  0  0  0  0  0  0  0  0  0  0
    5.6020   -2.8400   26.5990 N   0  0  0  0  0  0  0  0  0  0  0  0
    4.7070   -3.1980   27.6790 C   0  0  0  0  0  0  0  0  0  0  0  0
    5.2840   -4.4010   28.3370 C   0  0  2  0  0  0  0  0  0  0  0  0
    4.7400   -4.6900   29.6640 C   0  0  0  0  0  0  0  0  0  0  0  0
    6.5210   -4.3570   28.3850 O   0  0  0  0  0  0  0  0  0  0  0  0
    7.3970   -4.6590   27.3360 C   0  0  0  0  0  0  0  0  0  0  0  0
    8.1090   -5.6040   28.1280 C   0  0  0  0  0  0  0  0  0  0  0  0
    8.3250   -5.3000   26.9150 C   0  0  0  0  0  0  0  0  0  0  0  0
    9.2950   -6.0800   26.7850 C   0  0  0  0  0  0  0  0  0  0  0  0
    9.7720   -6.6060   25.6270 O   0  0  0  0  0  0  0  0  0  0  0  0
    9.7510   -6.1930   27.9770 O   0  0  0  0  0  0  0  0  0  0  0  0
    9.9120   -4.8970   28.2480 C   0  0  0  0  0  0  0  0  0  0  0  0
    7.3600   -4.7960   27.7340 C   0  0  0  0  0  0  0  0  0  0  0  0
    6.2680   -3.9540   27.9850 C   0  0  0  0  0  0  0  0  0  0  0  0
    6.5930   -3.6790   26.6430 C   0  0  0  0  0  0  0  0  0  0  0  0
    6.7080   -2.6100   23.1740 C   0  0  0  0  0  0  0  0  0  0  0  0
    7.6180   -3.2920   22.3320 C   0  0  0  0  0  0  0  0  0  0  0  0
  1  2  1  0
  2  3  2  0
  2  4  1  0
  4  5  1  0
  5  6  1  0
  6  7  1  0
  7  8  1  0
  8  9  2  0
  8 10  1  0
 10 11  1  0
 11 12  1  0
 12 13  1  1
 12 14  1  0
 14 15  1  0
 15 16  2  0
 16 17  1  0
 17 18  1  0
 18 19  2  0
 18 20  1  0
 20 21  1  0
 17 22  2  0
 22 23  1  0
 10 24  1  0
 15 24  1  0
 23 24  2  0
  7 25  1  0
  4 26  1  0
 25 26  1  0
M  END
