piperidine-amides-2487-covalent
     RDKit          3D

 26 28  0  0  0  0  0  0  0  0999 V2000
    7.1120   -3.2490   19.2140 C   0  0  0  0  0  0  0  0  0  0  0  0
    6.3400   -4.0130   20.2260 C   0  0  0  0  0  0  0  0  0  0  0  0
    5.2800   -4.5200   19.8680 O   0  0  0  0  0  0  0  0  0  0  0  0
    6.8460   -4.1670   21.5140 N   0  0  0  0  0  0  0  0  0  0  0  0
    7.6860   -3.1600   22.1210 C   0  0  0  0  0  0  0  0  0  0  0  0
    7.0230   -2.6630   23.3650 C   0  0  0  0  0  0  0  0  0  0  0  0
    6.5990   -3.8680   24.1870 C   0  0  0  0  0  0  0  0  0  0  0  0
    5.8110   -3.3980   25.3480 C   0  0  0  0  0  0  0  0  0  0  0  0
    4.6280   -3.0780   25.1820 O   0  0  0  0  0  0  0  0  0  0  0  0
    6.3980   -3.3000   26.6330 N   0  0  0  0  0  0  0  0  0  0  0  0
    5.7100   -3.8640   27.7770 C   0  0  1  0  0  0  0  0  0  0  0  0
    6.7130   -4.7960   28.4340 C   0  0  0  0  0  0  0  0  0  0  0  0
    7.0030   -5.8430   29.2760 O   0  0  0  0  0  0  0  0  0  0  0  0
    5.4770   -5.1910   28.8920 O   0  0  0  0  0  0  0  0  0  0  0  0
    5.0810   -6.5170   28.8480 C   0  0  0  0  0  0  0  0  0  0  0  0
    4.5620   -7.0700   29.9750 C   0  0  0  0  0  0  0  0  0  0  0  0
    5.3850   -7.2040   31.0360 C   0  0  0  0  0  0  0  0  0  0  0  0
    5.0390   -7.7800   32.3950 C   0  0  0  0  0  0  0  0  0  0  0  0
    3.6030   -8.2390   32.5080 C   0  0  0  0  0  0  0  0  0  0  0  0
    2.6730   -8.0930   31.3150 C   0  0  0  0  0  0  0  0  0  0  0  0
    3.2620   -7.4900   30.0850 C   0  0  0  0  0  0  0  0  0  0  0  0
    5.1330   -2.7980   28.6460 C   0  0  0  0  0  0  0  0  0  0  0  0
    4.1740   -3.6040   28.0650 C   0  0  0  0  0  0  0  0  0  0  0  0
    3.6680   -2.1960   28.3270 C   0  0  0  0  0  0  0  0  0  0  0  0
    5.7550   -4.8300   23.3600 C   0  0  0  0  0  0  0  0  0  0  0  0
    6.4990   -5.3270   22.3140 C   0  0  0  0  0  0  0  0  0  0  0  0
  1  2  1  0
  2  3  2  0
  2  4  1  0
  4  5  1  0
  5  6  1  0
  6  7  1  0
  7  8  1  0
  8  9  2  0
  8 10  1  0
 11 10  1  6
 11 12  1  0
 12 13  2  0
 12 14  1  0
 14 15  1  0
 15 16  1  0
 16 17  2  0
 17 18  1  0
 18 19  2  0
 19 20  1  0
 16 21  1  0
 20 21  2  0
 11 22  1  0
 22 23  1  0
 22 24  1  0
 23 24  1  0
  7 25  1  0
  4 26  1  0
 25 26  1  0
M  END
