piperidine-amides-19409-covalent
     RDKit          3D

 22 24  0  0  0  0  0  0  0  0999 V2000
    7.1910   -3.2760   19.3250 C   0  0  0  0  0  0  0  0  0  0  0  0
    6.4320   -4.0410   20.2780 C   0  0  0  0  0  0  0  0  0  0  0  0
    5.3390   -4.5800   19.9080 O   0  0  0  0  0  0  0  0  0  0  0  0
    6.9100   -4.2460   21.5830 N   0  0  0  0  0  0  0  0  0  0  0  0
    6.4960   -5.4650   22.2990 C   0  0  0  0  0  0  0  0  0  0  0  0
    5.4630   -4.8050   23.2790 C   0  0  0  0  0  0  0  0  0  0  0  0
    6.2870   -3.8720   24.1400 C   0  0  0  0  0  0  0  0  0  0  0  0
    5.4360   -3.3340   25.3720 C   0  0  0  0  0  0  0  0  0  0  0  0
    4.4720   -4.0550   25.5720 O   0  0  0  0  0  0  0  0  0  0  0  0
    5.9660   -2.2790   25.8390 N   0  0  0  0  0  0  0  0  0  0  0  0
    6.7600   -1.3870   26.3900 C   0  0  0  0  0  0  0  0  0  0  0  0
    6.1510   -0.2740   26.5360 C   0  0  0  0  0  0  0  0  0  0  0  0
    5.3470   -0.0660   27.6870 C   0  0  0  0  0  0  0  0  0  0  0  0
    4.7720    1.2550   28.0510 C   0  0  0  0  0  0  0  0  0  0  0  0
    3.9320    1.2530   29.3390 C   0  0  0  0  0  0  0  0  0  0  0  0
    3.7840    0.0570   30.0350 C   0  0  0  0  0  0  0  0  0  0  0  0
    2.9930    0.3750   31.1270 F   0  0  0  0  0  0  0  0  0  0  0  0
    4.2060   -1.2650   29.9040 C   0  0  0  0  0  0  0  0  0  0  0  0
    5.0300   -1.2100   28.6200 C   0  0  0  0  0  0  0  0  0  0  0  0
    5.0250   -1.0820   25.8910 C   0  0  0  0  0  0  0  0  0  0  0  0
    6.9130   -2.7390   23.3090 C   0  0  0  0  0  0  0  0  0  0  0  0
    7.6790   -3.2370   22.2930 C   0  0  0  0  0  0  0  0  0  0  0  0
  1  2  1  0
  2  3  2  0
  2  4  1  0
  4  5  1  0
  5  6  1  0
  6  7  1  0
  7  8  1  0
  8  9  2  0
  8 10  1  0
 10 11  1  0
 11 12  1  0
 12 13  1  0
 13 14  2  0
 14 15  1  0
 15 16  2  0
 16 17  1  0
 16 18  1  0
 13 19  1  0
 18 19  2  0
 10 20  1  0
 12 20  1  0
  7 21  1  0
  4 22  1  0
 21 22  1  0
M  END
