piperidine-amides-24079-covalent
     RDKit          3D

 23 24  0  0  0  0  0  0  0  0999 V2000
    7.0270   -3.3360   19.3240 C   0  0  0  0  0  0  0  0  0  0  0  0
    6.3270   -4.1640   20.3260 C   0  0  0  0  0  0  0  0  0  0  0  0
    5.2850   -4.7360   19.9400 O   0  0  0  0  0  0  0  0  0  0  0  0
    6.8200   -4.3590   21.6410 N   0  0  0  0  0  0  0  0  0  0  0  0
    7.5310   -3.3010   22.2570 C   0  0  0  0  0  0  0  0  0  0  0  0
    7.2580   -3.2420   23.6760 C   0  0  0  0  0  0  0  0  0  0  0  0
    5.9530   -3.7630   24.0500 C   0  0  0  0  0  0  0  0  0  0  0  0
    5.4880   -3.3370   25.4310 C   0  0  0  0  0  0  0  0  0  0  0  0
    4.2720   -3.1380   25.6020 O   0  0  0  0  0  0  0  0  0  0  0  0
    6.3200   -3.1640   26.5670 N   0  0  0  0  0  0  0  0  0  0  0  0
    6.6270   -4.2440   27.4410 C   0  0  0  0  0  0  0  0  0  0  0  0
    6.1050   -1.8930   27.3000 C   0  0  1  0  0  0  0  0  0  0  0  0
    7.0790   -1.4480   28.4260 C   0  0  0  0  0  0  0  0  0  0  0  0
    6.6900   -0.5360   29.4190 C   0  0  0  0  0  0  0  0  0  0  0  0
    5.5600    0.1640   28.6440 C   0  0  1  0  0  0  0  0  0  0  0  0
    5.7040    1.4310   29.4310 C   0  0  0  0  0  0  0  0  0  0  0  0
    4.6490    2.2700   29.0470 F   0  0  0  0  0  0  0  0  0  0  0  0
    6.9060    2.0100   29.2290 F   0  0  0  0  0  0  0  0  0  0  0  0
    5.6000    1.2220   30.7730 F   0  0  0  0  0  0  0  0  0  0  0  0
    5.9000    0.4380   27.1720 C   0  0  0  0  0  0  0  0  0  0  0  0
    6.0430   -0.7740   26.3010 C   0  0  0  0  0  0  0  0  0  0  0  0
    5.9320   -5.2540   23.7910 C   0  0  0  0  0  0  0  0  0  0  0  0
    6.4430   -5.5540   22.3550 C   0  0  0  0  0  0  0  0  0  0  0  0
  1  2  1  0
  2  3  2  0
  2  4  1  0
  4  5  1  0
  5  6  1  0
  6  7  1  0
  7  8  1  0
  8  9  2  0
  8 10  1  0
 10 11  1  0
 12 10  1  6
 12 13  1  0
 13 14  1  0
 14 15  1  0
 15 16  1  1
 16 17  1  0
 16 18  1  0
 16 19  1  0
 15 20  1  0
 12 21  1  0
 20 21  1  0
  7 22  1  0
  4 23  1  0
 22 23  1  0
M  END
