piperidine-amides-27121-covalent
     RDKit          3D

 26 29  0  0  0  0  0  0  0  0999 V2000
    6.9310   -3.4060   19.4180 C   0  0  0  0  0  0  0  0  0  0  0  0
    6.2860   -4.3120   20.3840 C   0  0  0  0  0  0  0  0  0  0  0  0
    5.3000   -4.9560   19.9710 O   0  0  0  0  0  0  0  0  0  0  0  0
    6.7700   -4.4700   21.6800 N   0  0  0  0  0  0  0  0  0  0  0  0
    6.3810   -5.5970   22.4990 C   0  0  0  0  0  0  0  0  0  0  0  0
    5.5000   -5.1280   23.6510 C   0  0  0  0  0  0  0  0  0  0  0  0
    6.0550   -3.9100   24.3540 C   0  0  0  0  0  0  0  0  0  0  0  0
    5.1740   -3.3920   25.4860 C   0  0  0  0  0  0  0  0  0  0  0  0
    4.0240   -3.0040   25.1930 O   0  0  0  0  0  0  0  0  0  0  0  0
    5.5840   -3.3250   26.8670 N   0  0  0  0  0  0  0  0  0  0  0  0
    4.6510   -3.3520   27.9510 C   0  0  0  0  0  0  0  0  0  0  0  0
    4.7780   -4.6910   28.6650 C   0  0  2  0  0  0  0  0  0  0  0  0
    4.1580   -4.8210   29.7470 O   0  0  0  0  0  0  0  0  0  0  0  0
    6.0370   -5.1590   28.9530 C   0  0  0  0  0  0  0  0  0  0  0  0
    6.9640   -5.0300   27.9930 C   0  0  0  0  0  0  0  0  0  0  0  0
    8.1220   -5.7540   27.9470 C   0  0  0  0  0  0  0  0  0  0  0  0
    8.9980   -5.5530   26.9150 C   0  0  0  0  0  0  0  0  0  0  0  0
    8.7030   -4.6150   25.9460 C   0  0  0  0  0  0  0  0  0  0  0  0
    9.6270   -4.4160   24.8780 C   0  0  0  0  0  0  0  0  0  0  0  0
    9.2560   -3.3630   23.8010 C   0  0  0  0  0  0  0  0  0  0  0  0
    8.0240   -2.5920   23.9070 C   0  0  0  0  0  0  0  0  0  0  0  0
    7.1830   -2.9130   25.0760 C   0  0  0  0  0  0  0  0  0  0  0  0
    7.6000   -3.8850   25.9590 C   0  0  0  0  0  0  0  0  0  0  0  0
    6.7120   -4.1320   27.0270 C   0  0  0  0  0  0  0  0  0  0  0  0
    6.2600   -2.8520   23.2970 C   0  0  0  0  0  0  0  0  0  0  0  0
    7.3520   -3.3200   22.3190 C   0  0  0  0  0  0  0  0  0  0  0  0
  1  2  1  0
  2  3  2  0
  2  4  1  0
  4  5  1  0
  5  6  1  0
  6  7  1  0
  7  8  1  0
  8  9  2  0
  8 10  1  0
 10 11  1  0
 11 12  1  0
 12 13  1  1
 12 14  1  0
 14 15  1  0
 15 16  2  0
 16 17  1  0
 17 18  2  0
 18 19  1  0
 19 20  2  0
 20 21  1  0
 21 22  2  0
 18 23  1  0
 22 23  1  0
 10 24  1  0
 15 24  1  0
 23 24  2  0
  7 25  1  0
  4 26  1  0
 25 26  1  0
M  END
