piperidine-amides-6670-covalent
     RDKit          3D

 24 25  0  0  0  0  0  0  0  0999 V2000
    7.1280   -3.2860   19.2230 C   0  0  0  0  0  0  0  0  0  0  0  0
    6.4080   -4.0730   20.2360 C   0  0  0  0  0  0  0  0  0  0  0  0
    5.3420   -4.6560   19.9340 O   0  0  0  0  0  0  0  0  0  0  0  0
    6.9380   -4.2310   21.5270 N   0  0  0  0  0  0  0  0  0  0  0  0
    6.6070   -5.4030   22.2900 C   0  0  0  0  0  0  0  0  0  0  0  0
    5.8290   -4.8980   23.5070 C   0  0  0  0  0  0  0  0  0  0  0  0
    6.6130   -3.7300   24.0930 C   0  0  0  0  0  0  0  0  0  0  0  0
    5.8540   -3.1550   25.2110 C   0  0  0  0  0  0  0  0  0  0  0  0
    4.6950   -2.7490   24.9840 O   0  0  0  0  0  0  0  0  0  0  0  0
    6.4200   -3.0780   26.5010 N   0  0  0  0  0  0  0  0  0  0  0  0
    5.6130   -3.5650   27.5690 C   0  0  2  0  0  0  0  0  0  0  0  0
    5.5640   -2.5540   28.7170 C   0  0  0  0  0  0  0  0  0  0  0  0
    4.5190   -2.1910   29.5610 C   0  0  0  0  0  0  0  0  0  0  0  0
    4.6160   -1.2320   30.5930 C   0  0  0  0  0  0  0  0  0  0  0  0
    5.7600   -0.4820   30.9560 C   0  0  0  0  0  0  0  0  0  0  0  0
    5.9490    0.4600   31.9410 C   0  0  0  0  0  0  0  0  0  0  0  0
    6.9580   -0.7990   30.0910 C   0  0  0  0  0  0  0  0  0  0  0  0
    6.8790   -1.7900   29.0090 C   0  0  0  0  0  0  0  0  0  0  0  0
    6.0290   -4.8470   28.2460 C   0  0  0  0  0  0  0  0  0  0  0  0
    6.2380   -5.8590   27.3900 F   0  0  0  0  0  0  0  0  0  0  0  0
    5.0710   -5.2410   29.1030 F   0  0  0  0  0  0  0  0  0  0  0  0
    7.1550   -4.6090   28.9730 F   0  0  0  0  0  0  0  0  0  0  0  0
    6.8270   -2.6450   23.0720 C   0  0  0  0  0  0  0  0  0  0  0  0
    7.7270   -3.2010   22.1660 C   0  0  0  0  0  0  0  0  0  0  0  0
  1  2  1  0
  2  3  2  0
  2  4  1  0
  4  5  1  0
  5  6  1  0
  6  7  1  0
  7  8  1  0
  8  9  2  0
  8 10  1  0
 11 10  1  6
 11 12  1  0
 12 13  2  0
 13 14  1  0
 14 15  2  0
 15 16  1  0
 15 17  1  0
 12 18  1  0
 17 18  2  0
 11 19  1  0
 19 20  1  0
 19 21  1  0
 19 22  1  0
  7 23  1  0
  4 24  1  0
 23 24  1  0
M  END
