piperidine-amides-12332-covalent
     RDKit          3D

 24 26  0  0  0  0  0  0  0  0999 V2000
    7.0490   -3.3520   19.2760 C   0  0  0  0  0  0  0  0  0  0  0  0
    6.3280   -4.1670   20.2510 C   0  0  0  0  0  0  0  0  0  0  0  0
    5.2810   -4.7180   19.9310 O   0  0  0  0  0  0  0  0  0  0  0  0
    6.8580   -4.3910   21.5590 N   0  0  0  0  0  0  0  0  0  0  0  0
    7.7400   -3.4090   22.1370 C   0  0  0  0  0  0  0  0  0  0  0  0
    7.0630   -2.7630   23.2770 C   0  0  0  0  0  0  0  0  0  0  0  0
    6.4740   -3.8790   24.1090 C   0  0  0  0  0  0  0  0  0  0  0  0
    5.9760   -3.2380   25.3430 C   0  0  0  0  0  0  0  0  0  0  0  0
    4.8490   -3.4120   25.8550 O   0  0  0  0  0  0  0  0  0  0  0  0
    6.9440   -2.3720   25.8930 N   0  0  0  0  0  0  0  0  0  0  0  0
    6.6750   -1.3860   26.9000 C   0  0  0  0  0  0  0  0  0  0  0  0
    6.9520   -1.6340   28.3520 C   0  0  0  0  0  0  0  0  0  0  0  0
    6.7090   -0.6700   29.3080 C   0  0  0  0  0  0  0  0  0  0  0  0
    6.1860    0.5810   28.9380 C   0  0  0  0  0  0  0  0  0  0  0  0
    5.9010    0.8880   27.6190 C   0  0  0  0  0  0  0  0  0  0  0  0
    6.1150   -0.0300   26.5190 C   0  0  0  0  0  0  0  0  0  0  0  0
    5.8630    0.2490   25.1900 C   0  0  0  0  0  0  0  0  0  0  0  0
    4.7880    1.0160   24.7850 N   0  0  0  0  0  0  0  0  0  0  0  0
    5.1330    0.9130   23.4250 C   0  0  0  0  0  0  0  0  0  0  0  0
    4.8190    1.2550   22.1110 C   0  0  0  0  0  0  0  0  0  0  0  0
    6.2800    0.1670   23.0510 C   0  0  0  0  0  0  0  0  0  0  0  0
    6.7720   -0.2790   24.2530 N   0  0  0  0  0  0  0  0  0  0  0  0
    5.4960   -4.7370   23.3420 C   0  0  0  0  0  0  0  0  0  0  0  0
    6.2790   -5.4100   22.4000 C   0  0  0  0  0  0  0  0  0  0  0  0
  1  2  1  0
  2  3  2  0
  2  4  1  0
  4  5  1  0
  5  6  1  0
  6  7  1  0
  7  8  1  0
  8  9  2  0
  8 10  1  0
 10 11  1  0
 11 12  2  0
 12 13  1  0
 13 14  2  0
 14 15  1  0
 11 16  1  0
 15 16  2  0
 16 17  1  0
 17 18  2  0
 18 19  1  0
 19 20  1  0
 19 21  2  0
 17 22  1  0
 21 22  1  0
  7 23  1  0
  4 24  1  0
 23 24  1  0
M  END
