piperidine-amides-13492-covalent
     RDKit          3D

 20 22  0  0  0  0  0  0  0  0999 V2000
    7.0340   -3.3220   19.3490 C   0  0  0  0  0  0  0  0  0  0  0  0
    6.3370   -4.1730   20.3550 C   0  0  0  0  0  0  0  0  0  0  0  0
    5.3680   -4.8570   19.9810 O   0  0  0  0  0  0  0  0  0  0  0  0
    6.8110   -4.2140   21.6860 N   0  0  0  0  0  0  0  0  0  0  0  0
    7.6950   -3.1760   22.1840 C   0  0  0  0  0  0  0  0  0  0  0  0
    7.4710   -3.0630   23.6860 C   0  0  0  0  0  0  0  0  0  0  0  0
    6.1510   -3.6910   23.9330 C   0  0  0  0  0  0  0  0  0  0  0  0
    5.5450   -3.3450   25.2440 C   0  0  0  0  0  0  0  0  0  0  0  0
    4.3100   -3.3510   25.2870 O   0  0  0  0  0  0  0  0  0  0  0  0
    6.3300   -3.0260   26.3540 N   0  0  0  0  0  0  0  0  0  0  0  0
    6.7780   -1.7400   26.7460 C   0  0  2  0  0  0  0  0  0  0  0  0
    6.6830   -1.1550   27.8450 C   0  0  0  0  0  0  0  0  0  0  0  0
    5.6180   -0.6780   27.0150 C   0  0  1  0  0  0  0  0  0  0  0  0
    5.5830    0.5980   26.5000 C   0  0  0  0  0  0  0  0  0  0  0  0
    6.1920    0.8410   25.1720 C   0  0  0  0  0  0  0  0  0  0  0  0
    6.0660    2.2770   24.7640 C   0  0  0  0  0  0  0  0  0  0  0  0
    5.3320    2.7970   25.9870 C   0  0  0  0  0  0  0  0  0  0  0  0
    5.0910    1.7830   26.9380 O   0  0  0  0  0  0  0  0  0  0  0  0
    6.2770   -5.2080   23.7880 C   0  0  0  0  0  0  0  0  0  0  0  0
    6.5960   -5.4840   22.3570 C   0  0  0  0  0  0  0  0  0  0  0  0
  1  2  1  0
  2  3  2  0
  2  4  1  0
  4  5  1  0
  5  6  1  0
  6  7  1  0
  7  8  1  0
  8  9  2  0
  8 10  1  0
 11 10  1  1
 11 12  1  0
 11 13  1  0
 12 13  1  0
 13 14  1  6
 14 15  2  0
 15 16  1  0
 16 17  2  0
 14 18  1  0
 17 18  1  0
  7 19  1  0
  4 20  1  0
 19 20  1  0
M  END
