piperidine-amides-25687-covalent
     RDKit          3D

 25 27  0  0  0  0  0  0  0  0999 V2000
    6.9840   -3.3970   19.4310 C   0  0  0  0  0  0  0  0  0  0  0  0
    6.3280   -4.2770   20.4380 C   0  0  0  0  0  0  0  0  0  0  0  0
    5.4050   -4.9730   20.0100 O   0  0  0  0  0  0  0  0  0  0  0  0
    6.7630   -4.3290   21.7790 N   0  0  0  0  0  0  0  0  0  0  0  0
    6.5470   -5.4950   22.6050 C   0  0  0  0  0  0  0  0  0  0  0  0
    5.8980   -5.0820   23.9080 C   0  0  0  0  0  0  0  0  0  0  0  0
    5.8060   -3.5510   23.9330 C   0  0  0  0  0  0  0  0  0  0  0  0
    5.2240   -2.9580   25.1990 C   0  0  0  0  0  0  0  0  0  0  0  0
    4.8490   -1.7920   25.1590 O   0  0  0  0  0  0  0  0  0  0  0  0
    5.0810   -3.6380   26.4350 N   0  0  0  0  0  0  0  0  0  0  0  0
    6.2730   -4.2270   26.7210 C   0  0  0  0  0  0  0  0  0  0  0  0
    6.2850   -4.3050   28.1950 C   0  0  0  0  0  0  0  0  0  0  0  0
    5.2350   -3.6280   28.6640 C   0  0  0  0  0  0  0  0  0  0  0  0
    4.5540   -3.0130   27.6290 C   0  0  2  0  0  0  0  0  0  0  0  0
    3.1900   -2.9770   27.8100 C   0  0  0  0  0  0  0  0  0  0  0  0
    2.6600   -2.7190   29.2500 C   0  0  0  0  0  0  0  0  0  0  0  0
    1.1600   -2.6800   29.4190 C   0  0  0  0  0  0  0  0  0  0  0  0
    0.5000   -2.4660   30.5930 O   0  0  0  0  0  0  0  0  0  0  0  0
   -0.2520   -1.2920   30.6410 C   0  0  0  0  0  0  0  0  0  0  0  0
    0.3040   -2.8860   28.2310 C   0  0  0  0  0  0  0  0  0  0  0  0
    0.8190   -3.1260   26.8920 C   0  0  0  0  0  0  0  0  0  0  0  0
    2.2890   -3.1890   26.5820 C   0  0  0  0  0  0  0  0  0  0  0  0
    2.7370   -3.4390   25.1810 C   0  0  0  0  0  0  0  0  0  0  0  0
    7.1830   -2.9590   23.6460 C   0  0  0  0  0  0  0  0  0  0  0  0
    7.5930   -3.2640   22.3550 C   0  0  0  0  0  0  0  0  0  0  0  0
  1  2  1  0
  2  3  2  0
  2  4  1  0
  4  5  1  0
  5  6  1  0
  6  7  1  0
  7  8  1  0
  8  9  2  0
  8 10  1  0
 10 11  1  0
 11 12  1  0
 12 13  1  0
 10 14  1  0
 13 14  1  0
 14 15  1  1
 15 16  2  0
 16 17  1  0
 17 18  1  0
 18 19  1  0
 17 20  2  0
 20 21  1  0
 15 22  1  0
 21 22  2  0
 22 23  1  0
  7 24  1  0
  4 25  1  0
 24 25  1  0
M  END
