piperidine-amides-33288-covalent
     RDKit          3D

 29 31  0  0  0  0  0  0  0  0999 V2000
    7.0670   -3.3760   19.3780 C   0  0  0  0  0  0  0  0  0  0  0  0
    6.4430   -4.2630   20.3710 C   0  0  0  0  0  0  0  0  0  0  0  0
    5.4150   -4.8840   19.9970 O   0  0  0  0  0  0  0  0  0  0  0  0
    7.0140   -4.4450   21.6610 N   0  0  0  0  0  0  0  0  0  0  0  0
    6.5840   -5.5650   22.4330 C   0  0  0  0  0  0  0  0  0  0  0  0
    6.1200   -5.2030   23.7750 C   0  0  0  0  0  0  0  0  0  0  0  0
    6.0200   -3.7420   23.9760 C   0  0  0  0  0  0  0  0  0  0  0  0
    5.2880   -3.3150   25.2210 C   0  0  0  0  0  0  0  0  0  0  0  0
    4.3780   -2.4820   25.0900 O   0  0  0  0  0  0  0  0  0  0  0  0
    5.5590   -3.7700   26.5210 N   0  0  0  0  0  0  0  0  0  0  0  0
    6.4420   -3.1760   27.3730 C   0  0  0  0  0  0  0  0  0  0  0  0
    6.8950   -4.0150   28.4540 C   0  0  0  0  0  0  0  0  0  0  0  0
    5.7010   -4.0360   29.3380 C   0  0  0  0  0  0  0  0  0  0  0  0
    4.5550   -4.0070   28.5860 C   0  0  2  0  0  0  0  0  0  0  0  0
    3.9600   -4.9340   29.6410 C   0  0  0  0  0  0  0  0  0  0  0  0
    2.5540   -5.0830   29.4700 N   0  0  0  0  0  0  0  0  0  0  0  0
    2.0780   -5.7400   30.6930 C   0  0  0  0  0  0  0  0  0  0  0  0
    0.7090   -5.8520   30.9580 O   0  0  0  0  0  0  0  0  0  0  0  0
    2.9790   -6.2690   31.6230 O   0  0  0  0  0  0  0  0  0  0  0  0
    3.6330   -7.4980   31.3570 C   0  0  0  0  0  0  0  0  0  0  0  0
    5.0820   -7.3000   31.7530 C   0  0  0  0  0  0  0  0  0  0  0  0
    3.5180   -7.9010   29.8920 C   0  0  0  0  0  0  0  0  0  0  0  0
    3.0030   -8.4760   32.2550 C   0  0  0  0  0  0  0  0  0  0  0  0
    1.8040   -4.6790   28.4390 C   0  0  0  0  0  0  0  0  0  0  0  0
    2.1410   -5.0050   27.1190 C   0  0  0  0  0  0  0  0  0  0  0  0
    3.2630   -4.4360   26.5400 C   0  0  0  0  0  0  0  0  0  0  0  0
    4.5780   -4.5120   27.2900 C   0  0  1  0  0  0  0  0  0  0  0  0
    7.3480   -3.1010   23.7250 C   0  0  0  0  0  0  0  0  0  0  0  0
    7.7080   -3.3350   22.2710 C   0  0  0  0  0  0  0  0  0  0  0  0
  1  2  1  0
  2  3  2  0
  2  4  1  0
  4  5  1  0
  5  6  1  0
  6  7  1  0
  7  8  1  0
  8  9  2  0
  8 10  1  0
 10 11  1  0
 11 12  1  0
 12 13  1  0
 14 13  1  1
 14 15  1  0
 15 16  1  0
 16 17  1  0
 17 18  2  0
 17 19  1  0
 20 19  1  0
 20 21  1  0
 20 22  1  0
 20 23  1  0
 16 24  1  0
 24 25  1  0
 25 26  1  0
 10 27  1  0
 14 27  1  0
 27 26  1  6
  7 28  1  0
  4 29  1  0
 28 29  1  0
M  END
