piperidine-amides-29562-covalent
     RDKit          3D

 24 26  0  0  0  0  0  0  0  0999 V2000
    7.1030   -3.3310   19.3130 C   0  0  0  0  0  0  0  0  0  0  0  0
    6.4020   -4.1650   20.2810 C   0  0  0  0  0  0  0  0  0  0  0  0
    5.3810   -4.7720   19.9640 O   0  0  0  0  0  0  0  0  0  0  0  0
    6.9530   -4.3120   21.5950 N   0  0  0  0  0  0  0  0  0  0  0  0
    6.6250   -5.4680   22.3780 C   0  0  0  0  0  0  0  0  0  0  0  0
    5.9480   -5.0370   23.6480 C   0  0  0  0  0  0  0  0  0  0  0  0
    6.6690   -3.8120   24.2000 C   0  0  0  0  0  0  0  0  0  0  0  0
    5.8660   -3.2620   25.3250 C   0  0  0  0  0  0  0  0  0  0  0  0
    5.0860   -2.3050   25.1840 O   0  0  0  0  0  0  0  0  0  0  0  0
    5.9570   -3.8630   26.5930 N   0  0  0  0  0  0  0  0  0  0  0  0
    6.2950   -3.0580   27.7240 C   0  0  0  0  0  0  0  0  0  0  0  0
    6.5210   -4.0230   28.8720 C   0  0  0  0  0  0  0  0  0  0  0  0
    6.0210   -5.2710   28.8890 N   0  0  0  0  0  0  0  0  0  0  0  0
    4.9480   -5.4210   29.6990 C   0  0  0  0  0  0  0  0  0  0  0  0
    4.9310   -6.2070   30.8580 C   0  0  0  0  0  0  0  0  0  0  0  0
    5.6870   -7.3140   31.1280 C   0  0  0  0  0  0  0  0  0  0  0  0
    5.4250   -7.8790   32.4220 C   0  0  0  0  0  0  0  0  0  0  0  0
    4.5000   -7.3230   33.2510 C   0  0  0  0  0  0  0  0  0  0  0  0
    4.1520   -7.9920   34.8470 Cl  0  0  0  0  0  0  0  0  0  0  0  0
    3.9250   -6.0040   32.3390 S   0  0  0  0  0  0  0  0  0  0  0  0
    5.6130   -5.8590   27.6910 C   0  0  0  0  0  0  0  0  0  0  0  0
    5.0330   -4.8890   26.8950 C   0  0  0  0  0  0  0  0  0  0  0  0
    7.0040   -2.7660   23.2630 C   0  0  0  0  0  0  0  0  0  0  0  0
    7.7260   -3.2670   22.2110 C   0  0  0  0  0  0  0  0  0  0  0  0
  1  2  1  0
  2  3  2  0
  2  4  1  0
  4  5  1  0
  5  6  1  0
  6  7  1  0
  7  8  1  0
  8  9  2  0
  8 10  1  0
 10 11  1  0
 11 12  1  0
 12 13  1  0
 13 14  1  0
 14 15  1  0
 15 16  2  0
 16 17  1  0
 17 18  2  0
 18 19  1  0
 15 20  1  0
 18 20  1  0
 13 21  1  0
 10 22  1  0
 21 22  1  0
  7 23  1  0
  4 24  1  0
 23 24  1  0
M  END
