piperidine-amides-24915-covalent
     RDKit          3D

 23 24  0  0  0  0  0  0  0  0999 V2000
    7.0220   -3.2670   19.1730 C   0  0  0  0  0  0  0  0  0  0  0  0
    6.2990   -4.0550   20.1880 C   0  0  0  0  0  0  0  0  0  0  0  0
    5.2530   -4.6620   19.9030 O   0  0  0  0  0  0  0  0  0  0  0  0
    6.8040   -4.1680   21.4750 N   0  0  0  0  0  0  0  0  0  0  0  0
    7.5890   -3.0760   21.9890 C   0  0  0  0  0  0  0  0  0  0  0  0
    6.7990   -2.6390   23.1950 C   0  0  0  0  0  0  0  0  0  0  0  0
    6.8950   -3.8560   24.0490 C   0  0  0  0  0  0  0  0  0  0  0  0
    6.5820   -3.5300   25.4380 C   0  0  0  0  0  0  0  0  0  0  0  0
    5.4460   -3.0520   25.7100 O   0  0  0  0  0  0  0  0  0  0  0  0
    7.5730   -3.7920   26.4190 N   0  0  0  0  0  0  0  0  0  0  0  0
    7.2460   -4.8510   27.3270 C   0  0  0  0  0  0  0  0  0  0  0  0
    9.0010   -3.7880   26.0820 C   0  0  0  0  0  0  0  0  0  0  0  0
    9.4250   -2.8270   25.1770 C   0  0  0  0  0  0  0  0  0  0  0  0
    8.6580   -1.9200   24.5660 C   0  0  0  0  0  0  0  0  0  0  0  0
    9.2380   -1.0490   23.6830 C   0  0  0  0  0  0  0  0  0  0  0  0
    8.2770    0.1690   22.8390 Cl  0  0  0  0  0  0  0  0  0  0  0  0
   10.5850   -1.1160   23.4480 C   0  0  0  0  0  0  0  0  0  0  0  0
   11.6810   -2.0320   24.0050 C   0  0  0  0  0  0  0  0  0  0  0  0
   10.7920   -2.8870   24.9370 C   0  0  0  0  0  0  0  0  0  0  0  0
   11.6300   -3.6870   25.4490 O   0  0  0  0  0  0  0  0  0  0  0  0
   12.9560   -3.1740   25.4400 C   0  0  0  0  0  0  0  0  0  0  0  0
    5.9900   -4.9170   23.4770 C   0  0  0  0  0  0  0  0  0  0  0  0
    6.5850   -5.3600   22.2760 C   0  0  0  0  0  0  0  0  0  0  0  0
  1  2  1  0
  2  3  2  0
  2  4  1  0
  4  5  1  0
  5  6  1  0
  6  7  1  0
  7  8  1  0
  8  9  2  0
  8 10  1  0
 10 11  1  0
 10 12  1  0
 12 13  1  0
 13 14  2  0
 14 15  1  0
 15 16  1  0
 15 17  2  0
 17 18  1  0
 13 19  1  0
 18 19  2  0
 19 20  1  0
 20 21  1  0
  7 22  1  0
  4 23  1  0
 22 23  1  0
M  END
