piperidine-amides-30578-covalent
     RDKit          3D

 23 25  0  0  0  0  0  0  0  0999 V2000
    7.0540   -3.4050   19.5030 C   0  0  0  0  0  0  0  0  0  0  0  0
    6.3810   -4.2780   20.4650 C   0  0  0  0  0  0  0  0  0  0  0  0
    5.4380   -4.9720   20.0240 O   0  0  0  0  0  0  0  0  0  0  0  0
    6.7820   -4.3960   21.8280 N   0  0  0  0  0  0  0  0  0  0  0  0
    6.6650   -5.6450   22.5590 C   0  0  0  0  0  0  0  0  0  0  0  0
    6.2120   -5.2780   23.9520 C   0  0  0  0  0  0  0  0  0  0  0  0
    6.1500   -3.7960   24.0950 C   0  0  0  0  0  0  0  0  0  0  0  0
    5.4960   -3.2470   25.3530 C   0  0  0  0  0  0  0  0  0  0  0  0
    4.3780   -2.6910   25.1760 O   0  0  0  0  0  0  0  0  0  0  0  0
    5.8890   -3.2390   26.7430 N   0  0  0  0  0  0  0  0  0  0  0  0
    5.0010   -2.4330   27.5960 C   0  0  0  0  0  0  0  0  0  0  0  0
    4.2280   -3.4470   28.3080 C   0  0  0  0  0  0  0  0  0  0  0  0
    3.0350   -4.0120   27.6470 C   0  0  0  0  0  0  0  0  0  0  0  0
    3.7660   -2.9170   29.6480 C   0  0  0  0  0  0  0  0  0  0  0  0
    5.1940   -4.5400   28.4200 C   0  0  0  0  0  0  0  0  0  0  0  0
    5.0360   -5.7370   29.5110 C   0  0  0  0  0  0  0  0  0  0  0  0
    5.9880   -6.7830   29.6630 C   0  0  0  0  0  0  0  0  0  0  0  0
    6.9240   -6.5400   28.8030 C   0  0  0  0  0  0  0  0  0  0  0  0
    6.1860   -5.4210   28.3750 C   0  0  0  0  0  0  0  0  0  0  0  0
    4.5440   -5.3180   29.3660 Br  0  0  0  0  0  0  0  0  0  0  0  0
    6.4060   -4.4530   27.4070 C   0  0  0  0  0  0  0  0  0  0  0  0
    7.5100   -3.2470   23.6460 C   0  0  0  0  0  0  0  0  0  0  0  0
    7.5410   -3.2570   22.4180 C   0  0  0  0  0  0  0  0  0  0  0  0
  1  2  1  0
  2  3  2  0
  2  4  1  0
  4  5  1  0
  5  6  1  0
  6  7  1  0
  7  8  1  0
  8  9  2  0
  8 10  1  0
 10 11  1  0
 11 12  1  0
 12 13  1  0
 12 14  1  0
 12 15  1  0
 15 16  1  0
 16 17  2  0
 17 18  1  0
 18 19  2  0
 19 20  1  0
 10 21  1  0
 15 21  2  0
 19 21  1  0
  7 22  1  0
  4 23  1  0
 22 23  1  0
M  END
