piperidine-amides-13953-covalent
     RDKit          3D

 26 28  0  0  0  0  0  0  0  0999 V2000
    7.1020   -3.3320   19.3120 C   0  0  0  0  0  0  0  0  0  0  0  0
    6.4050   -4.1970   20.2950 C   0  0  0  0  0  0  0  0  0  0  0  0
    5.3550   -4.7750   19.9640 O   0  0  0  0  0  0  0  0  0  0  0  0
    6.9880   -4.3870   21.5640 N   0  0  0  0  0  0  0  0  0  0  0  0
    7.7120   -3.3250   22.2140 C   0  0  0  0  0  0  0  0  0  0  0  0
    6.7490   -2.7610   23.2520 C   0  0  0  0  0  0  0  0  0  0  0  0
    6.4320   -3.8600   24.2120 C   0  0  0  0  0  0  0  0  0  0  0  0
    5.7750   -3.3100   25.4070 C   0  0  0  0  0  0  0  0  0  0  0  0
    4.5410   -3.2330   25.3760 O   0  0  0  0  0  0  0  0  0  0  0  0
    6.5430   -2.9060   26.4920 N   0  0  0  0  0  0  0  0  0  0  0  0
    6.4830   -1.6630   27.1620 C   0  0  0  0  0  0  0  0  0  0  0  0
    6.0960   -0.4780   26.5600 C   0  0  0  0  0  0  0  0  0  0  0  0
    6.0230    0.7690   27.2060 C   0  0  0  0  0  0  0  0  0  0  0  0
    6.3360    0.9360   28.5320 C   0  0  0  0  0  0  0  0  0  0  0  0
    6.3150    2.0330   29.2720 O   0  0  0  0  0  0  0  0  0  0  0  0
    5.5040    2.9260   28.7630 C   0  0  0  0  0  0  0  0  0  0  0  0
    6.7220   -0.2310   29.1520 C   0  0  0  0  0  0  0  0  0  0  0  0
    7.0680   -0.2510   30.5420 N   0  0  0  0  0  0  0  0  0  0  0  0
    7.7470    0.8510   31.1860 C   0  0  0  0  0  0  0  0  0  0  0  0
    7.0020    1.3170   32.2810 C   0  0  0  0  0  0  0  0  0  0  0  0
    5.8770    0.5470   32.3380 O   0  0  0  0  0  0  0  0  0  0  0  0
    5.9320   -0.4110   31.3610 C   0  0  0  0  0  0  0  0  0  0  0  0
    4.9340   -1.3560   31.3150 O   0  0  0  0  0  0  0  0  0  0  0  0
    6.8170   -1.4620   28.5810 C   0  0  0  0  0  0  0  0  0  0  0  0
    5.6780   -4.9140   23.5080 C   0  0  0  0  0  0  0  0  0  0  0  0
    6.5640   -5.4770   22.3800 C   0  0  0  0  0  0  0  0  0  0  0  0
  1  2  1  0
  2  3  2  0
  2  4  1  0
  4  5  1  0
  5  6  1  0
  6  7  1  0
  7  8  1  0
  8  9  2  0
  8 10  1  0
 10 11  1  0
 11 12  2  0
 12 13  1  0
 13 14  2  0
 14 15  1  0
 15 16  1  0
 14 17  1  0
 17 18  1  0
 18 19  1  0
 19 20  1  0
 20 21  1  0
 18 22  1  0
 21 22  1  0
 22 23  2  0
 11 24  1  0
 17 24  2  0
  7 25  1  0
  4 26  1  0
 25 26  1  0
M  END
