piperidine-amides-35113-covalent
     RDKit          3D

 31 33  0  0  0  0  0  0  0  0999 V2000
    6.9780   -3.3720   19.4910 C   0  0  0  0  0  0  0  0  0  0  0  0
    6.3490   -4.2930   20.4820 C   0  0  0  0  0  0  0  0  0  0  0  0
    5.4640   -5.0220   20.0270 O   0  0  0  0  0  0  0  0  0  0  0  0
    6.7660   -4.3280   21.8420 N   0  0  0  0  0  0  0  0  0  0  0  0
    7.6480   -3.3040   22.3780 C   0  0  0  0  0  0  0  0  0  0  0  0
    7.3340   -3.0790   23.8320 C   0  0  0  0  0  0  0  0  0  0  0  0
    6.0300   -3.8140   24.1170 C   0  0  0  0  0  0  0  0  0  0  0  0
    5.3870   -3.4040   25.4260 C   0  0  0  0  0  0  0  0  0  0  0  0
    4.5530   -2.5030   25.3180 O   0  0  0  0  0  0  0  0  0  0  0  0
    5.5790   -3.8860   26.7790 N   0  0  0  0  0  0  0  0  0  0  0  0
    5.7080   -2.8520   27.7830 C   0  0  0  0  0  0  0  0  0  0  0  0
    4.9620   -3.2740   29.0390 C   0  0  0  0  0  0  0  0  0  0  0  0
    5.3200   -4.5180   29.4810 O   0  0  0  0  0  0  0  0  0  0  0  0
    5.6320   -5.5190   28.6910 C   0  0  1  0  0  0  0  0  0  0  0  0
    4.5260   -6.2150   28.3200 C   0  0  0  0  0  0  0  0  0  0  0  0
    4.1950   -6.4540   27.0460 C   0  0  0  0  0  0  0  0  0  0  0  0
    2.9720   -7.2200   26.7630 C   0  0  0  0  0  0  0  0  0  0  0  0
    2.4250   -7.5920   25.4210 C   0  0  0  0  0  0  0  0  0  0  0  0
    1.3570   -6.7360   25.1260 F   0  0  0  0  0  0  0  0  0  0  0  0
    3.3870   -7.3750   24.4450 F   0  0  0  0  0  0  0  0  0  0  0  0
    2.0300   -8.9040   25.3390 F   0  0  0  0  0  0  0  0  0  0  0  0
    1.8900   -7.8740   27.5340 C   0  0  0  0  0  0  0  0  0  0  0  0
    2.3590   -7.5450   28.9510 C   0  0  0  0  0  0  0  0  0  0  0  0
    1.5510   -8.0140   30.1260 C   0  0  0  0  0  0  0  0  0  0  0  0
    0.9460   -9.2220   29.9380 F   0  0  0  0  0  0  0  0  0  0  0  0
    0.6040   -7.1060   30.5100 F   0  0  0  0  0  0  0  0  0  0  0  0
    2.3970   -8.1170   31.2020 F   0  0  0  0  0  0  0  0  0  0  0  0
    3.6450   -6.7370   29.2600 C   0  0  0  0  0  0  0  0  0  0  0  0
    6.2370   -4.9680   27.4260 C   0  0  0  0  0  0  0  0  0  0  0  0
    6.1970   -5.3140   23.9080 C   0  0  0  0  0  0  0  0  0  0  0  0
    6.6620   -5.5810   22.6050 C   0  0  0  0  0  0  0  0  0  0  0  0
  1  2  1  0
  2  3  2  0
  2  4  1  0
  4  5  1  0
  5  6  1  0
  6  7  1  0
  7  8  1  0
  8  9  2  0
  8 10  1  0
 10 11  1  0
 11 12  1  0
 12 13  1  0
 13 14  1  0
 14 15  1  6
 15 16  2  0
 16 17  1  0
 17 18  1  0
 18 19  1  0
 18 20  1  0
 18 21  1  0
 17 22  2  0
 22 23  1  0
 23 24  1  0
 24 25  1  0
 24 26  1  0
 24 27  1  0
 15 28  1  0
 23 28  2  0
 10 29  1  0
 14 29  1  0
  7 30  1  0
  4 31  1  0
 30 31  1  0
M  END
