piperidine-amides-27228-covalent
     RDKit          3D

 26 29  0  0  0  0  0  0  0  0999 V2000
    7.1060   -3.3410   19.3420 C   0  0  0  0  0  0  0  0  0  0  0  0
    6.3550   -4.1470   20.3060 C   0  0  0  0  0  0  0  0  0  0  0  0
    5.2680   -4.6240   19.9050 O   0  0  0  0  0  0  0  0  0  0  0  0
    6.8700   -4.4110   21.5760 N   0  0  0  0  0  0  0  0  0  0  0  0
    6.4060   -5.5520   22.3150 C   0  0  0  0  0  0  0  0  0  0  0  0
    5.5780   -5.0210   23.4520 C   0  0  0  0  0  0  0  0  0  0  0  0
    6.4200   -4.1400   24.3330 C   0  0  0  0  0  0  0  0  0  0  0  0
    5.6350   -3.5520   25.4780 C   0  0  0  0  0  0  0  0  0  0  0  0
    4.8220   -2.6550   25.1320 O   0  0  0  0  0  0  0  0  0  0  0  0
    5.7490   -3.8460   26.9150 N   0  0  0  0  0  0  0  0  0  0  0  0
    4.7400   -3.3180   27.8300 C   0  0  0  0  0  0  0  0  0  0  0  0
    4.6060   -4.6230   28.4290 C   0  0  0  0  0  0  0  0  0  0  0  0
    5.8520   -4.9180   27.6840 N   0  0  0  0  0  0  0  0  0  0  0  0
    6.0440   -6.1500   27.1860 C   0  0  0  0  0  0  0  0  0  0  0  0
    6.8090   -4.4700   28.4390 C   0  0  0  0  0  0  0  0  0  0  0  0
    6.1410   -5.5330   28.2080 N   0  0  0  0  0  0  0  0  0  0  0  0
    5.2650   -5.0000   27.0630 C   0  0  0  0  0  0  0  0  0  0  0  0
    4.3910   -6.0380   26.6130 C   0  0  0  0  0  0  0  0  0  0  0  0
    3.4480   -5.9270   25.5930 C   0  0  0  0  0  0  0  0  0  0  0  0
    3.2250   -4.6600   24.8130 C   0  0  0  0  0  0  0  0  0  0  0  0
    4.1390   -3.5450   25.2680 C   0  0  0  0  0  0  0  0  0  0  0  0
    5.1860   -3.6270   26.3780 C   0  0  0  0  0  0  0  0  0  0  0  0
    6.0880   -2.5950   26.8560 N   0  0  0  0  0  0  0  0  0  0  0  0
    6.7010   -3.2610   27.7980 C   0  0  0  0  0  0  0  0  0  0  0  0
    7.0580   -3.0150   23.5860 C   0  0  0  0  0  0  0  0  0  0  0  0
    7.6560   -3.4120   22.2500 C   0  0  0  0  0  0  0  0  0  0  0  0
  1  2  1  0
  2  3  2  0
  2  4  1  0
  4  5  1  0
  5  6  1  0
  6  7  1  0
  7  8  1  0
  8  9  2  0
  8 10  1  0
 10 11  1  0
 11 12  1  0
 12 13  1  0
 13 14  1  0
 13 15  1  0
 15 16  2  0
 16 17  1  0
 17 18  2  0
 18 19  1  0
 19 20  2  0
 20 21  1  0
 17 22  1  0
 21 22  2  0
 22 23  1  0
 10 24  1  0
 15 24  1  0
 23 24  2  0
  7 25  1  0
  4 26  1  0
 25 26  1  0
M  END
