piperidine-amides-3522-covalent
     RDKit          3D

 20 21  0  0  0  0  0  0  0  0999 V2000
    7.0710   -3.2930   19.1990 C   0  0  0  0  0  0  0  0  0  0  0  0
    6.3170   -4.0270   20.2100 C   0  0  0  0  0  0  0  0  0  0  0  0
    5.2750   -4.5920   19.8990 O   0  0  0  0  0  0  0  0  0  0  0  0
    6.8110   -4.1330   21.5530 N   0  0  0  0  0  0  0  0  0  0  0  0
    6.6630   -5.3700   22.2780 C   0  0  0  0  0  0  0  0  0  0  0  0
    6.0610   -5.0800   23.6190 C   0  0  0  0  0  0  0  0  0  0  0  0
    6.1170   -3.5750   23.7960 C   0  0  0  0  0  0  0  0  0  0  0  0
    5.6750   -3.1830   25.1540 C   0  0  0  0  0  0  0  0  0  0  0  0
    4.4770   -3.1790   25.4920 O   0  0  0  0  0  0  0  0  0  0  0  0
    6.6460   -2.7950   26.0970 N   0  0  0  0  0  0  0  0  0  0  0  0
    6.3010   -2.8830   27.4920 C   0  0  0  0  0  0  0  0  0  0  0  0
    5.7460   -4.2540   27.7460 C   0  0  0  0  0  0  0  0  0  0  0  0
    4.6800   -4.9310   27.2370 N   0  0  0  0  0  0  0  0  0  0  0  0
    4.6150   -6.1370   27.8160 C   0  0  0  0  0  0  0  0  0  0  0  0
    3.7080   -7.1790   27.6250 C   0  0  0  0  0  0  0  0  0  0  0  0
    5.6180   -6.6040   28.8790 C   0  0  0  0  0  0  0  0  0  0  0  0
    5.6130   -7.8750   29.5580 C   0  0  0  0  0  0  0  0  0  0  0  0
    6.6140   -5.2380   28.9530 S   0  0  0  0  0  0  0  0  0  0  0  0
    7.4600   -2.9780   23.4870 C   0  0  0  0  0  0  0  0  0  0  0  0
    7.6980   -3.1070   22.1350 C   0  0  0  0  0  0  0  0  0  0  0  0
  1  2  1  0
  2  3  2  0
  2  4  1  0
  4  5  1  0
  5  6  1  0
  6  7  1  0
  7  8  1  0
  8  9  2  0
  8 10  1  0
 10 11  1  0
 11 12  1  0
 12 13  2  0
 13 14  1  0
 14 15  1  0
 14 16  2  0
 16 17  1  0
 12 18  1  0
 16 18  1  0
  7 19  1  0
  4 20  1  0
 19 20  1  0
M  END
