piperidine-amides-10188-covalent
     RDKit          3D

 25 27  0  0  0  0  0  0  0  0999 V2000
    7.0700   -3.3220   19.2770 C   0  0  0  0  0  0  0  0  0  0  0  0
    6.3840   -4.1290   20.2860 C   0  0  0  0  0  0  0  0  0  0  0  0
    5.3230   -4.7060   19.9360 O   0  0  0  0  0  0  0  0  0  0  0  0
    6.9340   -4.2760   21.5550 N   0  0  0  0  0  0  0  0  0  0  0  0
    6.5920   -5.4020   22.3910 C   0  0  0  0  0  0  0  0  0  0  0  0
    5.8390   -4.8780   23.5890 C   0  0  0  0  0  0  0  0  0  0  0  0
    6.5820   -3.7560   24.2700 C   0  0  0  0  0  0  0  0  0  0  0  0
    5.7890   -3.2140   25.3960 C   0  0  0  0  0  0  0  0  0  0  0  0
    4.5740   -2.9900   25.2010 O   0  0  0  0  0  0  0  0  0  0  0  0
    6.3420   -2.9520   26.6630 N   0  0  0  0  0  0  0  0  0  0  0  0
    5.9730   -1.8040   27.4650 C   0  0  0  0  0  0  0  0  0  0  0  0
    4.6940   -2.0030   28.2780 C   0  0  0  0  0  0  0  0  0  0  0  0
    3.5700   -1.6450   27.8410 O   0  0  0  0  0  0  0  0  0  0  0  0
    4.7150   -2.5870   29.5510 O   0  0  0  0  0  0  0  0  0  0  0  0
    4.2560   -1.8450   30.6620 C   0  0  0  0  0  0  0  0  0  0  0  0
    7.1240   -1.3640   28.2840 C   0  0  0  0  0  0  0  0  0  0  0  0
    6.6770   -0.1940   28.7510 C   0  0  0  0  0  0  0  0  0  0  0  0
    7.0600    0.2600   30.1180 C   0  0  0  0  0  0  0  0  0  0  0  0
    6.6700    1.4820   30.7760 C   0  0  0  0  0  0  0  0  0  0  0  0
    5.8110    2.2540   29.8940 C   0  0  0  0  0  0  0  0  0  0  0  0
    6.0900    1.0910   29.0670 C   0  0  0  0  0  0  0  0  0  0  0  0
    5.8240    0.5250   27.8100 C   0  0  0  0  0  0  0  0  0  0  0  0
    5.8920   -0.5340   26.6550 C   0  0  0  0  0  0  0  0  0  0  0  0
    6.9550   -2.6650   23.3480 C   0  0  0  0  0  0  0  0  0  0  0  0
    7.6610   -3.1760   22.1250 C   0  0  0  0  0  0  0  0  0  0  0  0
  1  2  1  0
  2  3  2  0
  2  4  1  0
  4  5  1  0
  5  6  1  0
  6  7  1  0
  7  8  1  0
  8  9  2  0
  8 10  1  0
 10 11  1  0
 11 12  1  0
 12 13  2  0
 12 14  1  0
 14 15  1  0
 11 16  1  0
 16 17  1  0
 17 18  1  0
 18 19  2  0
 19 20  1  0
 20 21  2  0
 17 22  2  0
 21 22  1  0
 11 23  1  0
 22 23  1  0
  7 24  1  0
  4 25  1  0
 24 25  1  0
M  END
