piperidine-amides-7250-covalent
     RDKit          3D

 20 21  0  0  0  0  0  0  0  0999 V2000
    7.0530   -3.2680   19.2230 C   0  0  0  0  0  0  0  0  0  0  0  0
    6.3030   -4.0100   20.2500 C   0  0  0  0  0  0  0  0  0  0  0  0
    5.2490   -4.5820   19.8780 O   0  0  0  0  0  0  0  0  0  0  0  0
    6.7630   -4.0920   21.5570 N   0  0  0  0  0  0  0  0  0  0  0  0
    7.6560   -3.0980   22.0910 C   0  0  0  0  0  0  0  0  0  0  0  0
    7.3550   -2.9370   23.5440 C   0  0  0  0  0  0  0  0  0  0  0  0
    6.0240   -3.5080   23.9290 C   0  0  0  0  0  0  0  0  0  0  0  0
    5.8060   -3.2910   25.3780 C   0  0  0  0  0  0  0  0  0  0  0  0
    4.6290   -3.3250   25.8030 O   0  0  0  0  0  0  0  0  0  0  0  0
    6.8620   -3.0330   26.2830 N   0  0  0  0  0  0  0  0  0  0  0  0
    7.4510   -4.0790   27.0880 C   0  0  0  0  0  0  0  0  0  0  0  0
    8.9580   -4.2160   26.8830 C   0  0  1  0  0  0  0  0  0  0  0  0
    9.5590   -5.1940   27.3230 O   0  0  0  0  0  0  0  0  0  0  0  0
    8.9640   -6.3130   26.8830 C   0  0  0  0  0  0  0  0  0  0  0  0
    9.3560   -4.0730   25.4420 C   0  0  0  0  0  0  0  0  0  0  0  0
   10.6690   -4.2710   25.7170 C   0  0  0  0  0  0  0  0  0  0  0  0
   10.9970   -3.1890   24.9820 C   0  0  0  0  0  0  0  0  0  0  0  0
    9.7100   -2.7390   24.6920 C   0  0  0  0  0  0  0  0  0  0  0  0
    5.9340   -5.0160   23.6310 C   0  0  0  0  0  0  0  0  0  0  0  0
    6.5940   -5.3260   22.2820 C   0  0  0  0  0  0  0  0  0  0  0  0
  1  2  1  0
  2  3  2  0
  2  4  1  0
  4  5  1  0
  5  6  1  0
  6  7  1  0
  7  8  1  0
  8  9  2  0
  8 10  1  0
 10 11  1  0
 12 11  1  6
 12 13  1  0
 13 14  1  0
 12 15  1  0
 15 16  1  0
 16 17  1  0
 15 18  1  0
 17 18  1  0
  7 19  1  0
  4 20  1  0
 19 20  1  0
M  END
