piperidine-amides-34208-covalent
     RDKit          3D

 30 33  0  0  0  0  0  0  0  0999 V2000
    7.1070   -3.3100   19.2950 C   0  0  0  0  0  0  0  0  0  0  0  0
    6.4100   -4.1500   20.2830 C   0  0  0  0  0  0  0  0  0  0  0  0
    5.3760   -4.7810   19.9650 O   0  0  0  0  0  0  0  0  0  0  0  0
    6.9300   -4.2880   21.5750 N   0  0  0  0  0  0  0  0  0  0  0  0
    7.7660   -3.2380   22.1150 C   0  0  0  0  0  0  0  0  0  0  0  0
    6.9540   -2.5780   23.2150 C   0  0  0  0  0  0  0  0  0  0  0  0
    6.6590   -3.6930   24.1760 C   0  0  0  0  0  0  0  0  0  0  0  0
    5.7550   -3.1830   25.2190 C   0  0  0  0  0  0  0  0  0  0  0  0
    4.5740   -2.9180   24.9030 O   0  0  0  0  0  0  0  0  0  0  0  0
    6.2210   -3.0080   26.5370 N   0  0  0  0  0  0  0  0  0  0  0  0
    5.8720   -4.0480   27.4730 C   0  0  0  0  0  0  0  0  0  0  0  0
    4.5710   -4.7340   27.1100 N   0  0  0  0  0  0  0  0  0  0  0  0
    4.2870   -5.7370   28.0410 C   0  0  0  0  0  0  0  0  0  0  0  0
    3.2290   -6.5840   28.0860 C   0  0  0  0  0  0  0  0  0  0  0  0
    3.1160   -7.5110   29.0860 C   0  0  0  0  0  0  0  0  0  0  0  0
    4.0330   -7.6900   30.1300 C   0  0  0  0  0  0  0  0  0  0  0  0
    5.1460   -6.8800   30.1730 C   0  0  0  0  0  0  0  0  0  0  0  0
    5.3060   -5.8390   29.0860 C   0  0  0  0  0  0  0  0  0  0  0  0
    6.6050   -4.7090   28.9220 S   0  0  0  0  0  0  0  0  0  0  0  0
    6.3030   -1.7000   27.1920 C   0  0  0  0  0  0  0  0  0  0  0  0
    7.0000   -1.8740   28.5380 C   0  0  0  0  0  0  0  0  0  0  0  0
    7.0200   -0.4940   29.1180 C   0  0  0  0  0  0  0  0  0  0  0  0
    6.5140    0.6860   28.5520 C   0  0  0  0  0  0  0  0  0  0  0  0
    5.9220    0.7270   27.3600 C   0  0  0  0  0  0  0  0  0  0  0  0
    5.8000   -0.5370   26.6150 C   0  0  0  0  0  0  0  0  0  0  0  0
    5.1800   -0.4540   25.3840 O   0  0  0  0  0  0  0  0  0  0  0  0
    4.4160    0.6530   24.9700 C   0  0  0  0  0  0  0  0  0  0  0  0
    3.6610    0.4790   23.6450 C   0  0  0  0  0  0  0  0  0  0  0  0
    6.0360   -4.9270   23.5850 C   0  0  0  0  0  0  0  0  0  0  0  0
    6.5860   -5.3920   22.4300 C   0  0  0  0  0  0  0  0  0  0  0  0
  1  2  1  0
  2  3  2  0
  2  4  1  0
  4  5  1  0
  5  6  1  0
  6  7  1  0
  7  8  1  0
  8  9  2  0
  8 10  1  0
 10 11  1  0
 11 12  2  0
 12 13  1  0
 13 14  2  0
 14 15  1  0
 15 16  2  0
 16 17  1  0
 13 18  1  0
 17 18  2  0
 11 19  1  0
 18 19  1  0
 10 20  1  0
 20 21  2  0
 21 22  1  0
 22 23  2  0
 23 24  1  0
 20 25  1  0
 24 25  2  0
 25 26  1  0
 26 27  1  0
 27 28  1  0
  7 29  1  0
  4 30  1  0
 29 30  1  0
M  END
