piperidine-amides-6797-covalent
     RDKit          3D

 23 25  0  0  0  0  0  0  0  0999 V2000
    7.0720   -3.3200   19.3040 C   0  0  0  0  0  0  0  0  0  0  0  0
    6.3350   -4.1000   20.3130 C   0  0  0  0  0  0  0  0  0  0  0  0
    5.3500   -4.7820   19.9640 O   0  0  0  0  0  0  0  0  0  0  0  0
    6.7440   -4.1200   21.6590 N   0  0  0  0  0  0  0  0  0  0  0  0
    7.6660   -3.1110   22.1320 C   0  0  0  0  0  0  0  0  0  0  0  0
    7.5140   -3.0990   23.6480 C   0  0  0  0  0  0  0  0  0  0  0  0
    6.0980   -3.5650   23.8700 C   0  0  0  0  0  0  0  0  0  0  0  0
    5.6100   -3.2500   25.2300 C   0  0  0  0  0  0  0  0  0  0  0  0
    4.3940   -3.0090   25.3740 O   0  0  0  0  0  0  0  0  0  0  0  0
    6.4990   -3.2170   26.3290 N   0  0  0  0  0  0  0  0  0  0  0  0
    6.1440   -3.8260   27.5890 C   0  0  0  0  0  0  0  0  0  0  0  0
    6.0090   -5.3340   27.4230 C   0  0  0  0  0  0  0  0  0  0  0  0
    4.8530   -5.9680   27.7860 C   0  0  0  0  0  0  0  0  0  0  0  0
    4.3430   -5.9970   29.0570 C   0  0  0  0  0  0  0  0  0  0  0  0
    3.1580   -6.7540   28.9390 N   0  0  0  0  0  0  0  0  0  0  0  0
    3.0200   -7.1360   27.6260 C   0  0  0  0  0  0  0  0  0  0  0  0
    2.0030   -7.8920   27.0520 N   0  0  0  0  0  0  0  0  0  0  0  0
    1.9570   -8.2400   25.6430 C   0  0  0  0  0  0  0  0  0  0  0  0
    3.0360   -7.8050   24.6110 C   0  0  0  0  0  0  0  0  0  0  0  0
    4.0390   -6.9940   25.4640 C   0  0  0  0  0  0  0  0  0  0  0  0
    4.0520   -6.6590   26.9200 C   0  0  0  0  0  0  0  0  0  0  0  0
    5.9580   -5.0480   23.5900 C   0  0  0  0  0  0  0  0  0  0  0  0
    6.6700   -5.3570   22.4110 C   0  0  0  0  0  0  0  0  0  0  0  0
  1  2  1  0
  2  3  2  0
  2  4  1  0
  4  5  1  0
  5  6  1  0
  6  7  1  0
  7  8  1  0
  8  9  2  0
  8 10  1  0
 10 11  1  0
 11 12  1  0
 12 13  1  0
 13 14  2  0
 14 15  1  0
 15 16  1  0
 16 17  1  0
 17 18  2  0
 18 19  1  0
 19 20  2  0
 13 21  1  0
 16 21  2  0
 20 21  1  0
  7 22  1  0
  4 23  1  0
 22 23  1  0
M  END
