piperidine-amides-12229-covalent
     RDKit          3D

 24 25  0  0  0  0  0  0  0  0999 V2000
    7.0450   -3.3240   19.2810 C   0  0  0  0  0  0  0  0  0  0  0  0
    6.3430   -4.1200   20.2860 C   0  0  0  0  0  0  0  0  0  0  0  0
    5.3410   -4.7530   19.9560 O   0  0  0  0  0  0  0  0  0  0  0  0
    6.8280   -4.2060   21.6390 N   0  0  0  0  0  0  0  0  0  0  0  0
    7.6280   -3.1360   22.2000 C   0  0  0  0  0  0  0  0  0  0  0  0
    7.3740   -2.9920   23.6770 C   0  0  0  0  0  0  0  0  0  0  0  0
    6.0240   -3.6190   23.9870 C   0  0  0  0  0  0  0  0  0  0  0  0
    5.5620   -3.3210   25.3770 C   0  0  0  0  0  0  0  0  0  0  0  0
    4.3960   -2.9640   25.6130 O   0  0  0  0  0  0  0  0  0  0  0  0
    6.4790   -3.4390   26.4470 N   0  0  0  0  0  0  0  0  0  0  0  0
    6.0310   -3.5810   27.8210 C   0  0  2  0  0  0  0  0  0  0  0  0
    6.7510   -4.6940   28.5470 C   0  0  0  0  0  0  0  0  0  0  0  0
    4.5930   -3.9060   27.9060 C   0  0  0  0  0  0  0  0  0  0  0  0
    4.1330   -5.1610   27.3960 C   0  0  0  0  0  0  0  0  0  0  0  0
    5.0460   -6.0350   26.8310 C   0  0  0  0  0  0  0  0  0  0  0  0
    2.7930   -5.5330   27.4540 C   0  0  0  0  0  0  0  0  0  0  0  0
    1.7370   -4.8210   27.9700 C   0  0  0  0  0  0  0  0  0  0  0  0
    0.3980   -5.1400   28.0530 C   0  0  0  0  0  0  0  0  0  0  0  0
    2.1880   -3.5080   28.5080 C   0  0  0  0  0  0  0  0  0  0  0  0
    3.5850   -3.1470   28.4360 C   0  0  0  0  0  0  0  0  0  0  0  0
    3.9510   -2.0560   28.8880 O   0  0  0  0  0  0  0  0  0  0  0  0
    4.5650   -2.2190   30.0940 C   0  0  0  0  0  0  0  0  0  0  0  0
    6.0770   -5.1010   23.7570 C   0  0  0  0  0  0  0  0  0  0  0  0
    6.5490   -5.3960   22.3720 C   0  0  0  0  0  0  0  0  0  0  0  0
  1  2  1  0
  2  3  2  0
  2  4  1  0
  4  5  1  0
  5  6  1  0
  6  7  1  0
  7  8  1  0
  8  9  2  0
  8 10  1  0
 10 11  1  0
 11 12  1  6
 11 13  1  0
 13 14  2  0
 14 15  1  0
 14 16  1  0
 16 17  2  0
 17 18  1  0
 17 19  1  0
 13 20  1  0
 19 20  2  0
 20 21  1  0
 21 22  1  0
  7 23  1  0
  4 24  1  0
 23 24  1  0
M  END
