piperidine-amides-13010-covalent
     RDKit          3D

 20 21  0  0  0  0  0  0  0  0999 V2000
    7.0990   -3.2810   19.1640 C   0  0  0  0  0  0  0  0  0  0  0  0
    6.3540   -4.0260   20.2090 C   0  0  0  0  0  0  0  0  0  0  0  0
    5.2600   -4.5080   19.8600 O   0  0  0  0  0  0  0  0  0  0  0  0
    6.8720   -4.2330   21.4990 N   0  0  0  0  0  0  0  0  0  0  0  0
    6.4100   -5.3430   22.2610 C   0  0  0  0  0  0  0  0  0  0  0  0
    6.0280   -4.9840   23.6290 C   0  0  0  0  0  0  0  0  0  0  0  0
    6.7460   -3.8000   24.1660 C   0  0  0  0  0  0  0  0  0  0  0  0
    6.0920   -3.2930   25.3860 C   0  0  0  0  0  0  0  0  0  0  0  0
    4.8570   -3.4180   25.5110 O   0  0  0  0  0  0  0  0  0  0  0  0
    6.8710   -2.6640   26.3780 N   0  0  0  0  0  0  0  0  0  0  0  0
    7.1040   -3.2430   27.7100 C   0  0  0  0  0  0  0  0  0  0  0  0
    7.0090   -2.1850   28.7630 C   0  0  0  0  0  0  0  0  0  0  0  0
    8.1650   -1.5140   29.3180 N   0  0  0  0  0  0  0  0  0  0  0  0
    7.7580   -0.6550   30.2200 N   0  0  0  0  0  0  0  0  0  0  0  0
    8.3820    0.2820   31.1090 C   0  0  0  0  0  0  0  0  0  0  0  0
    6.4400   -0.7550   30.2380 C   0  0  0  0  0  0  0  0  0  0  0  0
    5.8830   -1.6540   29.3910 C   0  0  0  0  0  0  0  0  0  0  0  0
    3.8040   -2.0320   29.2000 I   0  0  0  0  0  0  0  0  0  0  0  0
    6.9790   -2.7130   23.1720 C   0  0  0  0  0  0  0  0  0  0  0  0
    7.6750   -3.2300   22.1250 C   0  0  0  0  0  0  0  0  0  0  0  0
  1  2  1  0
  2  3  2  0
  2  4  1  0
  4  5  1  0
  5  6  1  0
  6  7  1  0
  7  8  1  0
  8  9  2  0
  8 10  1  0
 10 11  1  0
 11 12  1  0
 12 13  2  0
 13 14  1  0
 14 15  1  0
 14 16  1  0
 12 17  1  0
 16 17  2  0
 17 18  1  0
  7 19  1  0
  4 20  1  0
 19 20  1  0
M  END
