piperidine-amides-770-covalent
     RDKit          3D

 25 26  0  0  0  0  0  0  0  0999 V2000
    7.1330   -3.3530   19.2050 C   0  0  0  0  0  0  0  0  0  0  0  0
    6.3610   -4.0080   20.2300 C   0  0  0  0  0  0  0  0  0  0  0  0
    5.2590   -4.5340   19.8860 O   0  0  0  0  0  0  0  0  0  0  0  0
    6.8100   -4.1500   21.5560 N   0  0  0  0  0  0  0  0  0  0  0  0
    7.7050   -3.1280   22.1360 C   0  0  0  0  0  0  0  0  0  0  0  0
    6.7460   -2.5870   23.2510 C   0  0  0  0  0  0  0  0  0  0  0  0
    6.4680   -3.7860   24.1270 C   0  0  0  0  0  0  0  0  0  0  0  0
    5.5220   -3.4400   25.3510 C   0  0  0  0  0  0  0  0  0  0  0  0
    4.4960   -4.0980   25.2910 O   0  0  0  0  0  0  0  0  0  0  0  0
    6.0420   -2.5630   26.0970 N   0  0  0  0  0  0  0  0  0  0  0  0
    6.4660   -1.6380   26.9860 C   0  0  0  0  0  0  0  0  0  0  0  0
    6.2040   -1.1810   28.2450 C   0  0  0  0  0  0  0  0  0  0  0  0
    5.4800   -1.8000   29.2720 C   0  0  0  0  0  0  0  0  0  0  0  0
    5.1450   -1.3790   30.6530 C   0  0  0  0  0  0  0  0  0  0  0  0
    5.6950    0.0160   31.0740 C   0  0  0  0  0  0  0  0  0  0  0  0
    6.4420    0.7320   30.1140 C   0  0  0  0  0  0  0  0  0  0  0  0
    7.0050    1.9970   30.3360 N   0  0  0  0  0  0  0  0  0  0  0  0
    7.1120    3.0030   29.2910 C   0  0  0  0  0  0  0  0  0  0  0  0
    8.1050    2.0580   31.6540 S   0  0  0  0  0  0  0  0  0  0  0  0
    8.0610    0.3630   32.1650 C   0  0  0  0  0  0  0  0  0  0  0  0
    7.6520    2.9680   32.7250 O   0  0  0  0  0  0  0  0  0  0  0  0
    9.4430    2.3960   31.0770 O   0  0  0  0  0  0  0  0  0  0  0  0
    6.6580    0.1210   28.7710 C   0  0  0  0  0  0  0  0  0  0  0  0
    5.8250   -4.9610   23.3550 C   0  0  0  0  0  0  0  0  0  0  0  0
    6.6080   -5.3630   22.3100 C   0  0  0  0  0  0  0  0  0  0  0  0
  1  2  1  0
  2  3  2  0
  2  4  1  0
  4  5  1  0
  5  6  1  0
  6  7  1  0
  7  8  1  0
  8  9  2  0
  8 10  1  0
 10 11  1  0
 11 12  1  0
 12 13  2  0
 13 14  1  0
 14 15  2  0
 15 16  1  0
 16 17  1  0
 17 18  1  0
 19 17  1  0
 19 20  1  0
 19 21  2  0
 19 22  2  0
 12 23  1  0
 16 23  2  0
  7 24  1  0
  4 25  1  0
 24 25  1  0
M  END
