piperidine-amides-4601-covalent
     RDKit          3D

 24 25  0  0  0  0  0  0  0  0999 V2000
    7.0940   -3.2860   19.1540 C   0  0  0  0  0  0  0  0  0  0  0  0
    6.3550   -4.0360   20.1990 C   0  0  0  0  0  0  0  0  0  0  0  0
    5.2580   -4.5180   19.8660 O   0  0  0  0  0  0  0  0  0  0  0  0
    6.9020   -4.2410   21.4660 N   0  0  0  0  0  0  0  0  0  0  0  0
    6.5460   -5.3760   22.2390 C   0  0  0  0  0  0  0  0  0  0  0  0
    6.0030   -5.0120   23.5450 C   0  0  0  0  0  0  0  0  0  0  0  0
    5.7000   -3.5690   23.7120 C   0  0  0  0  0  0  0  0  0  0  0  0
    5.3710   -3.2670   25.1230 C   0  0  0  0  0  0  0  0  0  0  0  0
    4.1690   -3.1590   25.4270 O   0  0  0  0  0  0  0  0  0  0  0  0
    6.3590   -3.1030   26.1030 N   0  0  0  0  0  0  0  0  0  0  0  0
    6.0760   -3.4020   27.5240 C   0  0  1  0  0  0  0  0  0  0  0  0
    6.2050   -4.8720   27.8220 C   0  0  0  0  0  0  0  0  0  0  0  0
    6.8590   -2.5010   28.4200 C   0  0  0  0  0  0  0  0  0  0  0  0
    7.7990   -1.7570   28.8620 O   0  0  0  0  0  0  0  0  0  0  0  0
    7.7830   -2.5700   27.3390 N   0  0  0  0  0  0  0  0  0  0  0  0
    8.3300   -3.8000   27.0570 C   0  0  0  0  0  0  0  0  0  0  0  0
    8.3540   -4.7040   28.0240 C   0  0  0  0  0  0  0  0  0  0  0  0
    8.8700   -5.8800   27.7760 C   0  0  0  0  0  0  0  0  0  0  0  0
    9.4010   -6.2490   26.5740 C   0  0  0  0  0  0  0  0  0  0  0  0
    9.3760   -5.3310   25.5800 N   0  0  0  0  0  0  0  0  0  0  0  0
    8.8490   -4.1440   25.8370 C   0  0  0  0  0  0  0  0  0  0  0  0
    8.8770   -3.2650   24.7600 C   0  0  0  0  0  0  0  0  0  0  0  0
    6.6800   -2.5800   23.1780 C   0  0  0  0  0  0  0  0  0  0  0  0
    7.6280   -3.2040   22.1820 C   0  0  0  0  0  0  0  0  0  0  0  0
  1  2  1  0
  2  3  2  0
  2  4  1  0
  4  5  1  0
  5  6  1  0
  6  7  1  0
  7  8  1  0
  8  9  2  0
  8 10  1  0
 10 11  1  0
 11 12  1  1
 11 13  1  0
 13 14  2  0
 13 15  1  0
 15 16  1  0
 16 17  2  0
 17 18  1  0
 18 19  2  0
 19 20  1  0
 16 21  1  0
 20 21  2  0
 21 22  1  0
  7 23  1  0
  4 24  1  0
 23 24  1  0
M  END
