piperidine-amides-29732-covalent
     RDKit          3D

 26 26  0  0  0  0  0  0  0  0999 V2000
    7.1350   -3.2950   19.2520 C   0  0  0  0  0  0  0  0  0  0  0  0
    6.3450   -4.0370   20.2250 C   0  0  0  0  0  0  0  0  0  0  0  0
    5.2840   -4.5580   19.8900 O   0  0  0  0  0  0  0  0  0  0  0  0
    6.8410   -4.2070   21.5630 N   0  0  0  0  0  0  0  0  0  0  0  0
    7.6620   -3.1910   22.1610 C   0  0  0  0  0  0  0  0  0  0  0  0
    7.0400   -2.6960   23.4350 C   0  0  0  0  0  0  0  0  0  0  0  0
    6.5230   -3.8930   24.2180 C   0  0  0  0  0  0  0  0  0  0  0  0
    5.7260   -3.4260   25.3880 C   0  0  0  0  0  0  0  0  0  0  0  0
    4.4830   -3.3440   25.3500 O   0  0  0  0  0  0  0  0  0  0  0  0
    6.3920   -3.0510   26.5800 N   0  0  0  0  0  0  0  0  0  0  0  0
    6.7750   -1.6630   26.6850 C   0  0  0  0  0  0  0  0  0  0  0  0
    6.1680   -3.8610   27.7640 C   0  0  0  0  0  0  0  0  0  0  0  0
    5.9680   -5.2280   27.6430 C   0  0  0  0  0  0  0  0  0  0  0  0
    4.9050   -5.7100   28.0960 O   0  0  0  0  0  0  0  0  0  0  0  0
    4.9560   -6.9750   28.6900 C   0  0  0  0  0  0  0  0  0  0  0  0
    4.2370   -7.1570   29.8550 C   0  0  0  0  0  0  0  0  0  0  0  0
    4.9130   -7.6530   31.0040 N   0  0  0  0  0  0  0  0  0  0  0  0
    4.9910   -6.9250   32.2370 C   0  0  0  0  0  0  0  0  0  0  0  0
    3.8420   -6.2090   32.5060 O   0  0  0  0  0  0  0  0  0  0  0  0
    6.0350   -6.9200   33.0410 O   0  0  0  0  0  0  0  0  0  0  0  0
    5.9940   -7.4200   34.3630 C   0  0  0  0  0  0  0  0  0  0  0  0
    6.0040   -8.7980   34.2420 C   0  0  0  0  0  0  0  0  0  0  0  0
    4.7830   -6.9200   35.1330 C   0  0  0  0  0  0  0  0  0  0  0  0
    7.1970   -6.9460   35.1340 C   0  0  0  0  0  0  0  0  0  0  0  0
    5.7020   -4.8640   23.3870 C   0  0  0  0  0  0  0  0  0  0  0  0
    6.4750   -5.3530   22.3420 C   0  0  0  0  0  0  0  0  0  0  0  0
  1  2  1  0
  2  3  2  0
  2  4  1  0
  4  5  1  0
  5  6  1  0
  6  7  1  0
  7  8  1  0
  8  9  2  0
  8 10  1  0
 10 11  1  0
 10 12  1  0
 12 13  1  0
 13 14  1  0
 14 15  1  0
 15 16  1  0
 16 17  1  0
 17 18  1  0
 18 19  2  0
 18 20  1  0
 21 20  1  0
 21 22  1  0
 21 23  1  0
 21 24  1  0
  7 25  1  0
  4 26  1  0
 25 26  1  0
M  END
