piperidine-amides-24166-covalent
     RDKit          3D

 24 26  0  0  0  0  0  0  0  0999 V2000
    7.0660   -3.3530   19.4130 C   0  0  0  0  0  0  0  0  0  0  0  0
    6.4140   -4.2540   20.3770 C   0  0  0  0  0  0  0  0  0  0  0  0
    5.4210   -4.9230   20.0080 O   0  0  0  0  0  0  0  0  0  0  0  0
    6.9250   -4.4070   21.6860 N   0  0  0  0  0  0  0  0  0  0  0  0
    6.6010   -5.5640   22.4660 C   0  0  0  0  0  0  0  0  0  0  0  0
    5.7060   -5.0680   23.6160 C   0  0  0  0  0  0  0  0  0  0  0  0
    6.3030   -3.8210   24.2720 C   0  0  0  0  0  0  0  0  0  0  0  0
    5.2540   -3.1880   25.1300 C   0  0  0  0  0  0  0  0  0  0  0  0
    4.3100   -2.6550   24.5260 O   0  0  0  0  0  0  0  0  0  0  0  0
    5.2570   -3.1570   26.5570 N   0  0  0  0  0  0  0  0  0  0  0  0
    6.4070   -3.4360   27.3210 C   0  0  0  0  0  0  0  0  0  0  0  0
    6.2210   -4.8330   27.9090 C   0  0  1  0  0  0  0  0  0  0  0  0
    6.7490   -5.2860   29.0680 C   0  0  0  0  0  0  0  0  0  0  0  0
    6.7370   -6.5270   29.3350 O   0  0  0  0  0  0  0  0  0  0  0  0
    4.8110   -4.5960   28.2620 C   0  0  2  0  0  0  0  0  0  0  0  0
    3.9750   -5.7030   28.1000 C   0  0  0  0  0  0  0  0  0  0  0  0
    3.5720   -6.4270   27.0200 C   0  0  0  0  0  0  0  0  0  0  0  0
    2.7370   -7.4390   27.3470 N   0  0  0  0  0  0  0  0  0  0  0  0
    2.5070   -7.4890   28.6640 N   0  0  0  0  0  0  0  0  0  0  0  0
    1.7000   -8.4380   29.1740 C   0  0  0  0  0  0  0  0  0  0  0  0
    3.2810   -6.3840   29.2290 C   0  0  0  0  0  0  0  0  0  0  0  0
    4.3890   -3.4410   27.6880 C   0  0  0  0  0  0  0  0  0  0  0  0
    6.7530   -2.7790   23.2560 C   0  0  0  0  0  0  0  0  0  0  0  0
    7.6590   -3.3780   22.3670 C   0  0  0  0  0  0  0  0  0  0  0  0
  1  2  1  0
  2  3  2  0
  2  4  1  0
  4  5  1  0
  5  6  1  0
  6  7  1  0
  7  8  1  0
  8  9  2  0
  8 10  1  0
 10 11  1  0
 11 12  1  0
 12 13  1  1
 13 14  1  0
 12 15  1  0
 15 16  1  6
 16 17  1  0
 17 18  2  0
 18 19  1  0
 19 20  1  0
 16 21  2  0
 19 21  1  0
 10 22  1  0
 15 22  1  0
  7 23  1  0
  4 24  1  0
 23 24  1  0
M  END
