piperidine-amides-4765-covalent
     RDKit          3D

 24 25  0  0  0  0  0  0  0  0999 V2000
    7.1140   -3.3320   19.2230 C   0  0  0  0  0  0  0  0  0  0  0  0
    6.3460   -4.0800   20.2380 C   0  0  0  0  0  0  0  0  0  0  0  0
    5.2520   -4.5530   19.8790 O   0  0  0  0  0  0  0  0  0  0  0  0
    6.8730   -4.2990   21.5080 N   0  0  0  0  0  0  0  0  0  0  0  0
    7.6350   -3.2740   22.1530 C   0  0  0  0  0  0  0  0  0  0  0  0
    7.1470   -2.8790   23.4700 C   0  0  0  0  0  0  0  0  0  0  0  0
    6.4530   -3.9420   24.2210 C   0  0  0  0  0  0  0  0  0  0  0  0
    5.7200   -3.3460   25.3640 C   0  0  0  0  0  0  0  0  0  0  0  0
    4.5030   -3.1260   25.2380 O   0  0  0  0  0  0  0  0  0  0  0  0
    6.3860   -3.0470   26.5620 N   0  0  0  0  0  0  0  0  0  0  0  0
    6.3960   -1.7060   27.2040 C   0  0  0  0  0  0  0  0  0  0  0  0
    7.0090   -1.6220   28.5370 C   0  0  0  0  0  0  0  0  0  0  0  0
    7.0870   -0.4060   29.2930 C   0  0  0  0  0  0  0  0  0  0  0  0
    6.5680    0.7520   28.7610 C   0  0  0  0  0  0  0  0  0  0  0  0
    6.6170    1.8210   29.3860 O   0  0  0  0  0  0  0  0  0  0  0  0
    5.5390    2.0160   30.0890 C   0  0  0  0  0  0  0  0  0  0  0  0
    5.9390    0.6990   27.3990 C   0  0  0  0  0  0  0  0  0  0  0  0
    5.8430   -0.4480   26.6380 C   0  0  0  0  0  0  0  0  0  0  0  0
    5.2520   -0.4160   25.4110 C   0  0  0  0  0  0  0  0  0  0  0  0
    5.9410   -0.1270   24.2580 O   0  0  0  0  0  0  0  0  0  0  0  0
    3.8570   -0.7150   25.6070 N   0  0  0  0  0  0  0  0  0  0  0  0
    2.9850   -0.2820   26.6380 C   0  0  0  0  0  0  0  0  0  0  0  0
    5.6130   -4.8720   23.4340 C   0  0  0  0  0  0  0  0  0  0  0  0
    6.4590   -5.4280   22.3250 C   0  0  0  0  0  0  0  0  0  0  0  0
  1  2  1  0
  2  3  2  0
  2  4  1  0
  4  5  1  0
  5  6  1  0
  6  7  1  0
  7  8  1  0
  8  9  2  0
  8 10  1  0
 10 11  1  0
 11 12  2  0
 12 13  1  0
 13 14  2  0
 14 15  1  0
 15 16  1  0
 14 17  1  0
 11 18  1  0
 17 18  2  0
 18 19  1  0
 19 20  2  0
 19 21  1  0
 21 22  1  0
  7 23  1  0
  4 24  1  0
 23 24  1  0
M  END
