piperidine-amides-29154-covalent
     RDKit          3D

 25 27  0  0  0  0  0  0  0  0999 V2000
    7.0890   -3.2930   19.2840 C   0  0  0  0  0  0  0  0  0  0  0  0
    6.3890   -4.0810   20.2980 C   0  0  0  0  0  0  0  0  0  0  0  0
    5.3700   -4.7090   19.9490 O   0  0  0  0  0  0  0  0  0  0  0  0
    6.8960   -4.1550   21.6260 N   0  0  0  0  0  0  0  0  0  0  0  0
    6.6160   -5.3450   22.3970 C   0  0  0  0  0  0  0  0  0  0  0  0
    6.1580   -4.9890   23.7930 C   0  0  0  0  0  0  0  0  0  0  0  0
    6.1550   -3.4800   23.8770 C   0  0  0  0  0  0  0  0  0  0  0  0
    5.5520   -2.9050   25.1270 C   0  0  0  0  0  0  0  0  0  0  0  0
    4.6190   -2.1450   24.9080 O   0  0  0  0  0  0  0  0  0  0  0  0
    5.9740   -3.2120   26.4240 N   0  0  0  0  0  0  0  0  0  0  0  0
    5.2930   -2.4410   27.4200 C   0  0  0  0  0  0  0  0  0  0  0  0
    5.9450   -1.5670   28.3080 C   0  0  0  0  0  0  0  0  0  0  0  0
    7.1700   -1.8690   28.8850 C   0  0  0  0  0  0  0  0  0  0  0  0
    7.9060   -1.0810   29.7860 C   0  0  0  0  0  0  0  0  0  0  0  0
    7.2650    0.2220   30.1490 C   0  0  0  0  0  0  0  0  0  0  0  0
    7.9160    1.0370   31.0170 F   0  0  0  0  0  0  0  0  0  0  0  0
    5.9220    0.5580   29.5170 C   0  0  0  0  0  0  0  0  0  0  0  0
    5.2950   -0.3800   28.5910 C   0  0  0  0  0  0  0  0  0  0  0  0
    3.7460   -0.0020   27.8640 Cl  0  0  0  0  0  0  0  0  0  0  0  0
    5.8830   -4.6270   26.6870 C   0  0  0  0  0  0  0  0  0  0  0  0
    6.1510   -4.9470   28.1680 C   0  0  0  0  0  0  0  0  0  0  0  0
    6.7760   -5.9150   28.5510 C   0  0  0  0  0  0  0  0  0  0  0  0
    5.4140   -5.9960   28.8780 C   0  0  0  0  0  0  0  0  0  0  0  0
    7.4860   -2.8980   23.5960 C   0  0  0  0  0  0  0  0  0  0  0  0
    7.7750   -3.1310   22.1520 C   0  0  0  0  0  0  0  0  0  0  0  0
  1  2  1  0
  2  3  2  0
  2  4  1  0
  4  5  1  0
  5  6  1  0
  6  7  1  0
  7  8  1  0
  8  9  2  0
  8 10  1  0
 10 11  1  0
 11 12  1  0
 12 13  2  0
 13 14  1  0
 14 15  2  0
 15 16  1  0
 15 17  1  0
 12 18  1  0
 17 18  2  0
 18 19  1  0
 10 20  1  0
 20 21  1  0
 21 22  1  0
 21 23  1  0
 22 23  1  0
  7 24  1  0
  4 25  1  0
 24 25  1  0
M  END
