piperidine-amides-33456-covalent
     RDKit          3D

 28 30  0  0  0  0  0  0  0  0999 V2000
    7.6940   -4.1910   20.4700 C   0  0  0  0  0  0  0  0  0  0  0  0
    7.0630   -5.5170   20.8070 C   0  0  0  0  0  0  0  0  0  0  0  0
    6.1560   -5.9200   19.9550 O   0  0  0  0  0  0  0  0  0  0  0  0
    7.4180   -6.2490   22.0610 N   0  0  0  0  0  0  0  0  0  0  0  0
    6.3420   -7.0630   22.4430 C   0  0  0  0  0  0  0  0  0  0  0  0
    5.2770   -6.4420   21.7460 C   0  0  0  0  0  0  0  0  0  0  0  0
    5.9320   -5.1540   21.6720 C   0  0  0  0  0  0  0  0  0  0  0  0
    5.4540   -4.0600   20.8550 C   0  0  0  0  0  0  0  0  0  0  0  0
    5.1570   -4.1310   19.6420 O   0  0  0  0  0  0  0  0  0  0  0  0
    5.4300   -2.9610   21.6530 N   0  0  0  0  0  0  0  0  0  0  0  0
    4.6690   -3.1510   22.7880 C   0  0  0  0  0  0  0  0  0  0  0  0
    5.1770   -4.0900   23.7380 C   0  0  0  0  0  0  0  0  0  0  0  0
    6.3130   -3.3360   24.4250 C   0  0  0  0  0  0  0  0  0  0  0  0
    5.8020   -3.0070   25.6410 C   0  0  0  0  0  0  0  0  0  0  0  0
    4.4380   -2.9310   25.7940 O   0  0  0  0  0  0  0  0  0  0  0  0
    6.6170   -2.7520   26.7120 N   0  0  0  0  0  0  0  0  0  0  0  0
    6.5230   -1.5050   27.3360 C   0  0  0  0  0  0  0  0  0  0  0  0
    7.1250   -1.5370   28.7060 C   0  0  0  0  0  0  0  0  0  0  0  0
    6.9880   -0.1530   29.3520 C   0  0  0  0  0  0  0  0  0  0  0  0
    6.3720    1.1050   28.8010 C   0  0  0  0  0  0  0  0  0  0  0  0
    6.3520    2.2580   29.5520 F   0  0  0  0  0  0  0  0  0  0  0  0
    5.7900    1.0650   27.4180 C   0  0  0  0  0  0  0  0  0  0  0  0
    5.0420    2.4700   26.6500 Cl  0  0  0  0  0  0  0  0  0  0  0  0
    5.8920   -0.2810   26.7170 C   0  0  0  0  0  0  0  0  0  0  0  0
    6.6630   -2.2180   23.6420 C   0  0  0  0  0  0  0  0  0  0  0  0
    6.6920   -2.4800   22.2450 C   0  0  0  0  0  0  0  0  0  0  0  0
    6.3360   -4.7050   23.0330 C   0  0  0  0  0  0  0  0  0  0  0  0
    7.6330   -5.3520   23.1400 C   0  0  0  0  0  0  0  0  0  0  0  0
  1  2  1  0
  2  3  2  0
  2  4  1  0
  4  5  1  0
  5  6  1  0
  6  7  1  0
  7  8  1  0
  8  9  2  0
  8 10  1  0
 10 11  1  0
 11 12  1  0
 12 13  1  0
 13 14  1  0
 14 15  2  0
 14 16  1  0
 16 17  1  0
 17 18  2  0
 18 19  1  0
 19 20  2  0
 20 21  1  0
 20 22  1  0
 22 23  1  0
 17 24  1  0
 22 24  2  0
 13 25  1  0
 10 26  1  0
 25 26  1  0
  7 27  1  0
  4 28  1  0
 27 28  1  0
M  END
