piperidine-amides-24846-covalent
     RDKit          3D

 24 25  0  0  0  0  0  0  0  0999 V2000
    7.1490   -3.2950   19.2110 C   0  0  0  0  0  0  0  0  0  0  0  0
    6.4310   -4.0840   20.2230 C   0  0  0  0  0  0  0  0  0  0  0  0
    5.3520   -4.6450   19.9290 O   0  0  0  0  0  0  0  0  0  0  0  0
    6.9720   -4.2740   21.5010 N   0  0  0  0  0  0  0  0  0  0  0  0
    7.8240   -3.2540   22.0600 C   0  0  0  0  0  0  0  0  0  0  0  0
    6.9790   -2.5590   23.1120 C   0  0  0  0  0  0  0  0  0  0  0  0
    6.5440   -3.6130   24.1110 C   0  0  0  0  0  0  0  0  0  0  0  0
    5.6590   -2.9380   25.0740 C   0  0  0  0  0  0  0  0  0  0  0  0
    4.4270   -3.1500   25.0170 O   0  0  0  0  0  0  0  0  0  0  0  0
    6.2300   -2.0680   26.0350 N   0  0  0  0  0  0  0  0  0  0  0  0
    6.6290   -2.6620   27.2570 C   0  0  0  0  0  0  0  0  0  0  0  0
    6.2280   -4.1120   27.1550 C   0  0  0  0  0  0  0  0  0  0  0  0
    4.9190   -4.3900   27.6230 O   0  0  0  0  0  0  0  0  0  0  0  0
    7.2120   -4.9570   26.6230 O   0  0  0  0  0  0  0  0  0  0  0  0
    8.0660   -5.4370   27.5690 C   0  0  0  0  0  0  0  0  0  0  0  0
    9.1930   -5.9550   27.0110 C   0  0  0  0  0  0  0  0  0  0  0  0
    7.3100   -6.1650   28.4160 C   0  0  0  0  0  0  0  0  0  0  0  0
    8.2120   -4.3000   28.3270 C   0  0  0  0  0  0  0  0  0  0  0  0
    5.7880   -0.6580   26.0630 C   0  0  0  0  0  0  0  0  0  0  0  0
    5.9680   -0.0480   24.8380 C   0  0  0  0  0  0  0  0  0  0  0  0
    4.5800    0.3840   24.6300 C   0  0  0  0  0  0  0  0  0  0  0  0
    4.3660   -0.4150   25.9930 C   0  0  0  0  0  0  0  0  0  0  0  0
    5.7620   -4.7220   23.4320 C   0  0  0  0  0  0  0  0  0  0  0  0
    6.3870   -5.2530   22.3410 C   0  0  0  0  0  0  0  0  0  0  0  0
  1  2  1  0
  2  3  2  0
  2  4  1  0
  4  5  1  0
  5  6  1  0
  6  7  1  0
  7  8  1  0
  8  9  2  0
  8 10  1  0
 10 11  1  0
 11 12  1  0
 12 13  2  0
 12 14  1  0
 15 14  1  0
 15 16  1  0
 15 17  1  0
 15 18  1  0
 10 19  1  0
 19 20  1  0
 20 21  1  0
 19 22  1  0
 21 22  1  0
  7 23  1  0
  4 24  1  0
 23 24  1  0
M  END
