piperidine-amides-29307-covalent
     RDKit          3D

 27 29  0  0  0  0  0  0  0  0999 V2000
    7.0630   -3.3380   19.3330 C   0  0  0  0  0  0  0  0  0  0  0  0
    6.4070   -4.1830   20.3310 C   0  0  0  0  0  0  0  0  0  0  0  0
    5.3920   -4.8160   19.9780 O   0  0  0  0  0  0  0  0  0  0  0  0
    6.9460   -4.3050   21.6390 N   0  0  0  0  0  0  0  0  0  0  0  0
    7.7670   -3.2260   22.1480 C   0  0  0  0  0  0  0  0  0  0  0  0
    7.5200   -3.0010   23.6110 C   0  0  0  0  0  0  0  0  0  0  0  0
    6.1200   -3.4940   23.8480 C   0  0  0  0  0  0  0  0  0  0  0  0
    5.5370   -3.0000   25.1410 C   0  0  0  0  0  0  0  0  0  0  0  0
    4.4240   -2.4910   25.0400 O   0  0  0  0  0  0  0  0  0  0  0  0
    6.2170   -3.1350   26.3480 N   0  0  0  0  0  0  0  0  0  0  0  0
    6.3720   -1.9230   27.1230 C   0  0  0  0  0  0  0  0  0  0  0  0
    7.0120   -1.8110   28.3600 C   0  0  0  0  0  0  0  0  0  0  0  0
    7.1090   -0.6110   29.0590 C   0  0  0  0  0  0  0  0  0  0  0  0
    6.5930    0.6330   28.6340 C   0  0  0  0  0  0  0  0  0  0  0  0
    5.8950    0.5860   27.3040 C   0  0  0  0  0  0  0  0  0  0  0  0
    5.7940   -0.7360   26.5450 C   0  0  0  0  0  0  0  0  0  0  0  0
    5.8880   -4.3480   27.0870 C   0  0  0  0  0  0  0  0  0  0  0  0
    4.4670   -4.7900   26.9600 C   0  0  0  0  0  0  0  0  0  0  0  0
    4.0330   -6.0670   27.7140 C   0  0  0  0  0  0  0  0  0  0  0  0
    4.9730   -6.6840   28.4320 N   0  0  0  0  0  0  0  0  0  0  0  0
    6.3390   -6.2020   28.5090 C   0  0  0  0  0  0  0  0  0  0  0  0
    6.7930   -5.0660   27.8600 C   0  0  0  0  0  0  0  0  0  0  0  0
    8.1010   -4.8120   28.0880 N   0  0  0  0  0  0  0  0  0  0  0  0
    9.0440   -5.4650   27.4370 O   0  0  0  0  0  0  0  0  0  0  0  0
    8.4680   -3.6940   28.6150 O   0  0  0  0  0  0  0  0  0  0  0  0
    6.0380   -4.9760   23.7460 C   0  0  0  0  0  0  0  0  0  0  0  0
    6.6410   -5.4550   22.4550 C   0  0  0  0  0  0  0  0  0  0  0  0
  1  2  1  0
  2  3  2  0
  2  4  1  0
  4  5  1  0
  5  6  1  0
  6  7  1  0
  7  8  1  0
  8  9  2  0
  8 10  1  0
 10 11  1  0
 11 12  2  0
 12 13  1  0
 13 14  2  0
 14 15  1  0
 11 16  1  0
 15 16  2  0
 10 17  1  0
 17 18  2  0
 18 19  1  0
 19 20  2  0
 20 21  1  0
 17 22  1  0
 21 22  2  0
 22 23  1  0
 23 24  2  0
 23 25  1  0
  7 26  1  0
  4 27  1  0
 26 27  1  0
M  CHG  2  23   1  25  -1
M  END
