piperidine-amides-2-covalent
     RDKit          3D

 27 30  0  0  0  0  0  0  0  0999 V2000
    7.1060   -3.3470   19.2300 C   0  0  0  0  0  0  0  0  0  0  0  0
    6.3700   -4.0840   20.2280 C   0  0  0  0  0  0  0  0  0  0  0  0
    5.2510   -4.5680   19.8930 O   0  0  0  0  0  0  0  0  0  0  0  0
    6.8740   -4.3650   21.5060 N   0  0  0  0  0  0  0  0  0  0  0  0
    7.7000   -3.3380   22.1930 C   0  0  0  0  0  0  0  0  0  0  0  0
    6.6700   -2.8310   23.2690 C   0  0  0  0  0  0  0  0  0  0  0  0
    6.4360   -4.0380   24.1380 C   0  0  0  0  0  0  0  0  0  0  0  0
    5.6370   -3.6890   25.4530 C   0  0  0  0  0  0  0  0  0  0  0  0
    4.6560   -4.4020   25.5720 O   0  0  0  0  0  0  0  0  0  0  0  0
    6.2090   -2.7430   26.0430 N   0  0  0  0  0  0  0  0  0  0  0  0
    6.6890   -1.6840   26.7130 C   0  0  2  0  0  0  0  0  0  0  0  0
    6.9500   -1.2810   27.9810 C   0  0  0  0  0  0  0  0  0  0  0  0
    6.1130   -0.1930   28.0890 C   0  0  0  0  0  0  0  0  0  0  0  0
    5.1570   -0.0250   29.1760 C   0  0  0  0  0  0  0  0  0  0  0  0
    5.2840    1.4470   28.7440 C   0  0  0  0  0  0  0  0  0  0  0  0
    6.5900    1.1760   28.3070 C   0  0  0  0  0  0  0  0  0  0  0  0
    5.5880   -0.5980   26.7340 C   0  0  1  0  0  0  0  0  0  0  0  0
    5.5120    0.3140   25.6990 O   0  0  0  0  0  0  0  0  0  0  0  0
    6.4910    0.3560   24.7220 C   0  0  0  0  0  0  0  0  0  0  0  0
    6.0160    0.6390   23.2460 C   0  0  0  0  0  0  0  0  0  0  0  0
    4.8010    0.1790   22.8020 C   0  0  0  0  0  0  0  0  0  0  0  0
    4.3590    0.4110   21.5180 C   0  0  0  0  0  0  0  0  0  0  0  0
    5.1200    1.1100   20.6380 C   0  0  0  0  0  0  0  0  0  0  0  0
    6.3460    1.5870   21.0450 C   0  0  0  0  0  0  0  0  0  0  0  0
    6.7890    1.3490   22.3510 C   0  0  0  0  0  0  0  0  0  0  0  0
    5.9310   -5.2720   23.4890 C   0  0  0  0  0  0  0  0  0  0  0  0
    6.6190   -5.5800   22.2110 C   0  0  0  0  0  0  0  0  0  0  0  0
  1  2  1  0
  2  3  2  0
  2  4  1  0
  4  5  1  0
  5  6  1  0
  6  7  1  0
  7  8  1  0
  8  9  2  0
  8 10  1  0
 11 10  1  1
 11 12  1  0
 13 12  1  0
 13 14  1  0
 14 15  1  0
 13 16  1  0
 15 16  1  0
 11 17  1  0
 13 17  1  0
 17 18  1  6
 18 19  1  0
 19 20  1  0
 20 21  2  0
 21 22  1  0
 22 23  2  0
 23 24  1  0
 20 25  1  0
 24 25  2  0
  7 26  1  0
  4 27  1  0
 26 27  1  0
M  END
