piperidine-amides-29708-covalent
     RDKit          3D

 27 29  0  0  0  0  0  0  0  0999 V2000
    7.0340   -3.3850   19.3880 C   0  0  0  0  0  0  0  0  0  0  0  0
    6.3810   -4.2510   20.3630 C   0  0  0  0  0  0  0  0  0  0  0  0
    5.4050   -4.9160   20.0060 O   0  0  0  0  0  0  0  0  0  0  0  0
    6.8960   -4.3810   21.7100 N   0  0  0  0  0  0  0  0  0  0  0  0
    7.7290   -3.3260   22.2760 C   0  0  0  0  0  0  0  0  0  0  0  0
    7.3030   -3.0040   23.6830 C   0  0  0  0  0  0  0  0  0  0  0  0
    5.9690   -3.6850   23.8540 C   0  0  0  0  0  0  0  0  0  0  0  0
    5.1780   -3.2220   25.0400 C   0  0  0  0  0  0  0  0  0  0  0  0
    4.2560   -2.4140   24.8900 O   0  0  0  0  0  0  0  0  0  0  0  0
    5.4100   -3.6590   26.3590 N   0  0  0  0  0  0  0  0  0  0  0  0
    6.5190   -3.1060   26.9820 C   0  0  0  0  0  0  0  0  0  0  0  0
    6.6980   -4.0710   28.1190 C   0  0  0  0  0  0  0  0  0  0  0  0
    5.7220   -4.0820   28.9910 C   0  0  0  0  0  0  0  0  0  0  0  0
    5.7780   -2.7950   29.6350 N   0  0  0  0  0  0  0  0  0  0  0  0
    4.5700   -2.0230   29.6990 C   0  0  0  0  0  0  0  0  0  0  0  0
    3.3670   -2.5240   29.1750 O   0  0  0  0  0  0  0  0  0  0  0  0
    4.6660   -0.7880   30.3140 C   0  0  0  0  0  0  0  0  0  0  0  0
    4.6720    0.3150   29.3590 C   0  0  0  0  0  0  0  0  0  0  0  0
    3.6630    1.2690   29.2000 C   0  0  0  0  0  0  0  0  0  0  0  0
    3.7510    2.2820   28.2710 C   0  0  0  0  0  0  0  0  0  0  0  0
    4.8400    2.4050   27.4510 C   0  0  0  0  0  0  0  0  0  0  0  0
    5.8930    1.4260   27.6030 C   0  0  0  0  0  0  0  0  0  0  0  0
    5.8080    0.4030   28.5390 C   0  0  0  0  0  0  0  0  0  0  0  0
    4.5610   -4.5450   28.3890 C   0  0  0  0  0  0  0  0  0  0  0  0
    4.2030   -3.8830   27.0930 C   0  0  0  0  0  0  0  0  0  0  0  0
    6.0430   -5.1710   23.7990 C   0  0  0  0  0  0  0  0  0  0  0  0
    6.6440   -5.5830   22.4660 C   0  0  0  0  0  0  0  0  0  0  0  0
  1  2  1  0
  2  3  2  0
  2  4  1  0
  4  5  1  0
  5  6  1  0
  6  7  1  0
  7  8  1  0
  8  9  2  0
  8 10  1  0
 10 11  1  0
 11 12  1  0
 12 13  1  0
 13 14  1  0
 14 15  1  0
 15 16  2  0
 15 17  1  0
 17 18  1  0
 18 19  2  0
 19 20  1  0
 20 21  2  0
 21 22  1  0
 18 23  1  0
 22 23  2  0
 13 24  1  0
 10 25  1  0
 24 25  1  0
  7 26  1  0
  4 27  1  0
 26 27  1  0
M  END
