piperidine-amides-30975-covalent
     RDKit          3D

 25 27  0  0  0  0  0  0  0  0999 V2000
    7.1330   -3.3620   19.3240 C   0  0  0  0  0  0  0  0  0  0  0  0
    6.4060   -4.1850   20.2850 C   0  0  0  0  0  0  0  0  0  0  0  0
    5.3310   -4.7030   19.9460 O   0  0  0  0  0  0  0  0  0  0  0  0
    6.9410   -4.4630   21.5530 N   0  0  0  0  0  0  0  0  0  0  0  0
    6.6200   -5.6540   22.2910 C   0  0  0  0  0  0  0  0  0  0  0  0
    5.9880   -5.1320   23.5490 C   0  0  0  0  0  0  0  0  0  0  0  0
    6.6880   -3.9200   24.0980 C   0  0  0  0  0  0  0  0  0  0  0  0
    5.9260   -3.3350   25.2130 C   0  0  0  0  0  0  0  0  0  0  0  0
    5.0900   -2.4090   25.0070 O   0  0  0  0  0  0  0  0  0  0  0  0
    6.0380   -3.7810   26.5280 N   0  0  0  0  0  0  0  0  0  0  0  0
    6.3740   -2.8000   27.5640 C   0  0  0  0  0  0  0  0  0  0  0  0
    6.6750   -3.4950   28.8340 C   0  0  0  0  0  0  0  0  0  0  0  0
    5.7570   -4.5620   29.2070 C   0  0  0  0  0  0  0  0  0  0  0  0
    4.4360   -3.9300   29.6110 C   0  0  0  0  0  0  0  0  0  0  0  0
    3.3820   -5.3840   29.7220 S   0  0  0  0  0  0  0  0  0  0  0  0
    4.0640   -6.4680   30.9360 C   0  0  0  0  0  0  0  0  0  0  0  0
    3.0850   -6.8120   31.9860 N   0  0  0  0  0  0  0  0  0  0  0  0
    3.8720   -7.6780   32.8180 C   0  0  0  0  0  0  0  0  0  0  0  0
    3.7480   -8.4170   33.9650 C   0  0  0  0  0  0  0  0  0  0  0  0
    5.2930   -8.1070   32.6620 C   0  0  0  0  0  0  0  0  0  0  0  0
    5.6900   -7.2900   31.2330 S   0  0  0  0  0  0  0  0  0  0  0  0
    5.6930   -5.4360   28.2040 C   0  0  0  0  0  0  0  0  0  0  0  0
    5.1360   -4.8420   26.9320 C   0  0  0  0  0  0  0  0  0  0  0  0
    6.9250   -2.8810   22.9950 C   0  0  0  0  0  0  0  0  0  0  0  0
    7.6700   -3.3900   22.2150 C   0  0  0  0  0  0  0  0  0  0  0  0
  1  2  1  0
  2  3  2  0
  2  4  1  0
  4  5  1  0
  5  6  1  0
  6  7  1  0
  7  8  1  0
  8  9  2  0
  8 10  1  0
 10 11  1  0
 11 12  1  0
 12 13  1  0
 13 14  1  0
 14 15  1  0
 15 16  1  0
 16 17  2  0
 17 18  1  0
 18 19  1  0
 18 20  2  0
 16 21  1  0
 20 21  1  0
 13 22  1  0
 10 23  1  0
 22 23  1  0
  7 24  1  0
  4 25  1  0
 24 25  1  0
M  END
