piperidine-amides-10220-covalent
     RDKit          3D

 25 26  0  0  0  0  0  0  0  0999 V2000
    7.0290   -3.3570   19.4150 C   0  0  0  0  0  0  0  0  0  0  0  0
    6.3940   -4.2170   20.4210 C   0  0  0  0  0  0  0  0  0  0  0  0
    5.4160   -4.8990   20.0050 O   0  0  0  0  0  0  0  0  0  0  0  0
    6.8790   -4.3030   21.7430 N   0  0  0  0  0  0  0  0  0  0  0  0
    6.5890   -5.4550   22.5780 C   0  0  0  0  0  0  0  0  0  0  0  0
    6.0000   -4.9900   23.9000 C   0  0  0  0  0  0  0  0  0  0  0  0
    5.8600   -3.4900   23.9360 C   0  0  0  0  0  0  0  0  0  0  0  0
    5.1110   -3.0010   25.1450 C   0  0  0  0  0  0  0  0  0  0  0  0
    3.8850   -2.8630   24.9930 O   0  0  0  0  0  0  0  0  0  0  0  0
    5.6100   -2.6880   26.4340 N   0  0  0  0  0  0  0  0  0  0  0  0
    5.8000   -1.3100   26.9170 C   0  0  0  0  0  0  0  0  0  0  0  0
    5.9820   -0.2490   25.8590 C   0  0  0  0  0  0  0  0  0  0  0  0
    6.1740    1.0570   26.2140 C   0  0  0  0  0  0  0  0  0  0  0  0
    6.2050    1.3870   27.5380 C   0  0  0  0  0  0  0  0  0  0  0  0
    6.0490    0.4940   28.5500 C   0  0  0  0  0  0  0  0  0  0  0  0
    5.8450   -0.8380   28.2670 C   0  0  0  0  0  0  0  0  0  0  0  0
    5.6870   -1.6170   29.3770 C   0  0  0  0  0  0  0  0  0  0  0  0
    5.7240   -3.0130   29.3340 O   0  0  0  0  0  0  0  0  0  0  0  0
    5.4650   -0.7810   30.4230 N   0  0  0  0  0  0  0  0  0  0  0  0
    6.5530   -0.4420   31.1350 C   0  0  2  0  0  0  0  0  0  0  0  0
    6.2510   -0.0290   32.5780 C   0  0  0  0  0  0  0  0  0  0  0  0
    7.4120    0.3840   30.4760 C   0  0  0  0  0  0  0  0  0  0  0  0
    8.8010    0.5420   31.0740 C   0  0  0  0  0  0  0  0  0  0  0  0
    7.1570   -2.8210   23.6890 C   0  0  0  0  0  0  0  0  0  0  0  0
    7.6620   -3.2220   22.3130 C   0  0  0  0  0  0  0  0  0  0  0  0
  1  2  1  0
  2  3  2  0
  2  4  1  0
  4  5  1  0
  5  6  1  0
  6  7  1  0
  7  8  1  0
  8  9  2  0
  8 10  1  0
 10 11  1  0
 11 12  2  0
 12 13  1  0
 13 14  2  0
 14 15  1  0
 11 16  1  0
 15 16  2  0
 16 17  1  0
 17 18  2  0
 17 19  1  0
 19 20  1  0
 20 21  1  1
 20 22  1  0
 22 23  1  0
  7 24  1  0
  4 25  1  0
 24 25  1  0
M  END
