piperidine-amides-33037-covalent
     RDKit          3D

 27 28  0  0  0  0  0  0  0  0999 V2000
    7.0680   -3.3890   19.4330 C   0  0  0  0  0  0  0  0  0  0  0  0
    6.3670   -4.2670   20.4050 C   0  0  0  0  0  0  0  0  0  0  0  0
    5.3870   -4.9180   20.0040 O   0  0  0  0  0  0  0  0  0  0  0  0
    6.8610   -4.3750   21.7350 N   0  0  0  0  0  0  0  0  0  0  0  0
    7.6440   -3.3700   22.3990 C   0  0  0  0  0  0  0  0  0  0  0  0
    6.7550   -2.7270   23.4820 C   0  0  0  0  0  0  0  0  0  0  0  0
    6.1810   -3.7880   24.3840 C   0  0  0  0  0  0  0  0  0  0  0  0
    5.1750   -3.2270   25.3710 C   0  0  0  0  0  0  0  0  0  0  0  0
    4.3180   -2.5060   24.8700 O   0  0  0  0  0  0  0  0  0  0  0  0
    5.2030   -3.5090   26.7680 N   0  0  0  0  0  0  0  0  0  0  0  0
    4.5170   -2.8350   27.7890 C   0  0  0  0  0  0  0  0  0  0  0  0
    4.2760   -3.4260   29.0110 C   0  0  0  0  0  0  0  0  0  0  0  0
    5.3060   -4.4050   29.2570 N   0  0  0  0  0  0  0  0  0  0  0  0
    4.6760   -5.8880   29.8390 S   0  0  0  0  0  0  0  0  0  0  0  0
    5.6230   -6.4980   30.8590 O   0  0  0  0  0  0  0  0  0  0  0  0
    3.3710   -5.5850   30.5000 O   0  0  0  0  0  0  0  0  0  0  0  0
    4.3440   -7.0180   28.5750 N   0  0  0  0  0  0  0  0  0  0  0  0
    2.9300   -7.3440   28.5320 C   0  0  0  0  0  0  0  0  0  0  0  0
    2.3130   -7.6590   29.6490 O   0  0  0  0  0  0  0  0  0  0  0  0
    2.1680   -7.3440   27.3590 O   0  0  0  0  0  0  0  0  0  0  0  0
    1.6330   -8.4530   26.7010 C   0  0  0  0  0  0  0  0  0  0  0  0
    0.2970   -8.1180   26.1440 C   0  0  0  0  0  0  0  0  0  0  0  0
    2.4750   -8.7000   25.6270 C   0  0  0  0  0  0  0  0  0  0  0  0
    6.4440   -4.5680   28.4480 C   0  0  0  0  0  0  0  0  0  0  0  0
    6.2910   -4.2210   27.1140 C   0  0  0  0  0  0  0  0  0  0  0  0
    5.5510   -4.9510   23.6690 C   0  0  0  0  0  0  0  0  0  0  0  0
    6.4450   -5.4850   22.5520 C   0  0  0  0  0  0  0  0  0  0  0  0
  1  2  1  0
  2  3  2  0
  2  4  1  0
  4  5  1  0
  5  6  1  0
  6  7  1  0
  7  8  1  0
  8  9  2  0
  8 10  1  0
 10 11  1  0
 11 12  1  0
 12 13  1  0
 13 14  1  0
 14 15  2  0
 14 16  2  0
 14 17  1  0
 17 18  1  0
 18 19  2  0
 18 20  1  0
 20 21  1  0
 21 22  1  0
 21 23  1  0
 13 24  1  0
 10 25  1  0
 24 25  1  0
  7 26  1  0
  4 27  1  0
 26 27  1  0
M  END
