piperidine-amides-34103-covalent
     RDKit          3D

 30 32  0  0  0  0  0  0  0  0999 V2000
    7.0610   -3.3840   19.4060 C   0  0  0  0  0  0  0  0  0  0  0  0
    6.3810   -4.2420   20.3820 C   0  0  0  0  0  0  0  0  0  0  0  0
    5.3990   -4.9250   20.0070 O   0  0  0  0  0  0  0  0  0  0  0  0
    6.8520   -4.3430   21.7070 N   0  0  0  0  0  0  0  0  0  0  0  0
    6.6470   -5.5910   22.4310 C   0  0  0  0  0  0  0  0  0  0  0  0
    6.0680   -5.2620   23.8280 C   0  0  0  0  0  0  0  0  0  0  0  0
    5.9460   -3.7630   23.8610 C   0  0  0  0  0  0  0  0  0  0  0  0
    5.3240   -3.2150   25.0930 C   0  0  0  0  0  0  0  0  0  0  0  0
    4.6050   -2.2140   24.9550 O   0  0  0  0  0  0  0  0  0  0  0  0
    5.4850   -3.7640   26.3830 N   0  0  0  0  0  0  0  0  0  0  0  0
    6.4370   -3.1630   27.1890 C   0  0  0  0  0  0  0  0  0  0  0  0
    6.6430   -4.1510   28.3310 C   0  0  0  0  0  0  0  0  0  0  0  0
    5.5820   -4.2580   29.1350 C   0  0  0  0  0  0  0  0  0  0  0  0
    5.3660   -5.4830   29.6930 C   0  0  2  0  0  0  0  0  0  0  0  0
    5.3200   -6.5240   28.7640 C   0  0  0  0  0  0  0  0  0  0  0  0
    4.5610   -7.6020   29.1870 C   0  0  0  0  0  0  0  0  0  0  0  0
    3.8500   -7.5910   30.5350 C   0  0  0  0  0  0  0  0  0  0  0  0
    4.1110   -6.5280   31.2740 N   0  0  0  0  0  0  0  0  0  0  0  0
    4.5860   -6.5180   32.6200 C   0  0  0  0  0  0  0  0  0  0  0  0
    3.7960   -6.0480   33.4890 O   0  0  0  0  0  0  0  0  0  0  0  0
    5.7470   -6.9440   33.0080 O   0  0  0  0  0  0  0  0  0  0  0  0
    5.8560   -7.6710   34.2290 C   0  0  0  0  0  0  0  0  0  0  0  0
    4.5530   -7.6310   34.8950 C   0  0  0  0  0  0  0  0  0  0  0  0
    6.9090   -7.2440   35.0700 C   0  0  0  0  0  0  0  0  0  0  0  0
    6.1270   -9.1380   33.9260 C   0  0  0  0  0  0  0  0  0  0  0  0
    4.1350   -5.3470   30.5420 C   0  0  0  0  0  0  0  0  0  0  0  0
    4.4320   -3.7600   28.6420 C   0  0  0  0  0  0  0  0  0  0  0  0
    4.3000   -4.0070   27.1340 C   0  0  0  0  0  0  0  0  0  0  0  0
    7.2190   -3.0490   23.5650 C   0  0  0  0  0  0  0  0  0  0  0  0
    7.6760   -3.3160   22.3190 C   0  0  0  0  0  0  0  0  0  0  0  0
  1  2  1  0
  2  3  2  0
  2  4  1  0
  4  5  1  0
  5  6  1  0
  6  7  1  0
  7  8  1  0
  8  9  2  0
  8 10  1  0
 10 11  1  0
 11 12  1  0
 12 13  1  0
 14 13  1  6
 14 15  1  0
 15 16  1  0
 16 17  1  0
 17 18  1  0
 18 19  1  0
 19 20  2  0
 19 21  1  0
 22 21  1  0
 22 23  1  0
 22 24  1  0
 22 25  1  0
 14 26  1  0
 18 26  1  0
 13 27  1  0
 10 28  1  0
 27 28  1  0
  7 29  1  0
  4 30  1  0
 29 30  1  0
M  END
