piperidine-amides-30744-covalent
     RDKit          3D

 26 27  0  0  0  0  0  0  0  0999 V2000
    7.0680   -3.3690   19.3620 C   0  0  0  0  0  0  0  0  0  0  0  0
    6.3930   -4.1860   20.3690 C   0  0  0  0  0  0  0  0  0  0  0  0
    5.4210   -4.8750   20.0040 O   0  0  0  0  0  0  0  0  0  0  0  0
    6.8540   -4.2390   21.7060 N   0  0  0  0  0  0  0  0  0  0  0  0
    7.7700   -3.2240   22.2350 C   0  0  0  0  0  0  0  0  0  0  0  0
    7.4000   -2.9180   23.6750 C   0  0  0  0  0  0  0  0  0  0  0  0
    6.1070   -3.5560   24.0360 C   0  0  0  0  0  0  0  0  0  0  0  0
    5.5710   -3.2240   25.3930 C   0  0  0  0  0  0  0  0  0  0  0  0
    4.3230   -3.0510   25.5060 O   0  0  0  0  0  0  0  0  0  0  0  0
    6.3070   -3.0560   26.5990 N   0  0  0  0  0  0  0  0  0  0  0  0
    6.0760   -4.0530   27.6790 C   0  0  0  0  0  0  0  0  0  0  0  0
    5.6550   -5.3630   27.1340 C   0  0  0  0  0  0  0  0  0  0  0  0
    5.1290   -6.0510   28.1570 N   0  0  0  0  0  0  0  0  0  0  0  0
    4.2870   -7.1810   28.0260 C   0  0  0  0  0  0  0  0  0  0  0  0
    3.8040   -7.2420   26.5970 C   0  0  0  0  0  0  0  0  0  0  0  0
    6.1710   -6.3140   29.1530 C   0  0  0  0  0  0  0  0  0  0  0  0
    5.8460   -7.3920   30.1170 C   0  0  0  0  0  0  0  0  0  0  0  0
    6.3570   -1.7290   27.1530 C   0  0  0  0  0  0  0  0  0  0  0  0
    6.9330   -1.5640   28.4630 C   0  0  0  0  0  0  0  0  0  0  0  0
    7.0450   -0.2300   29.2200 C   0  0  0  0  0  0  0  0  0  0  0  0
    6.4950    0.9820   28.4960 C   0  0  0  0  0  0  0  0  0  0  0  0
    6.4510    2.6460   29.0510 Cl  0  0  0  0  0  0  0  0  0  0  0  0
    6.0300    0.3800   27.2430 C   0  0  0  0  0  0  0  0  0  0  0  0
    5.8840   -0.5630   26.5570 C   0  0  0  0  0  0  0  0  0  0  0  0
    6.0650   -5.0110   23.7870 C   0  0  0  0  0  0  0  0  0  0  0  0
    6.5670   -5.3590   22.5530 C   0  0  0  0  0  0  0  0  0  0  0  0
  1  2  1  0
  2  3  2  0
  2  4  1  0
  4  5  1  0
  5  6  1  0
  6  7  1  0
  7  8  1  0
  8  9  2  0
  8 10  1  0
 10 11  1  0
 11 12  1  0
 12 13  1  0
 13 14  1  0
 14 15  1  0
 13 16  1  0
 16 17  1  0
 10 18  1  0
 18 19  2  0
 19 20  1  0
 20 21  2  0
 21 22  1  0
 21 23  1  0
 18 24  1  0
 23 24  2  0
  7 25  1  0
  4 26  1  0
 25 26  1  0
M  END
