piperidine-amides-28106-covalent
     RDKit          3D

 26 29  0  0  0  0  0  0  0  0999 V2000
    6.9960   -3.3880   19.4700 C   0  0  0  0  0  0  0  0  0  0  0  0
    6.3790   -4.2970   20.4670 C   0  0  0  0  0  0  0  0  0  0  0  0
    5.4480   -5.0050   20.0220 O   0  0  0  0  0  0  0  0  0  0  0  0
    6.8450   -4.3630   21.8100 N   0  0  0  0  0  0  0  0  0  0  0  0
    6.5740   -5.5200   22.6200 C   0  0  0  0  0  0  0  0  0  0  0  0
    6.0420   -5.1850   23.9540 C   0  0  0  0  0  0  0  0  0  0  0  0
    5.9200   -3.7280   24.1460 C   0  0  0  0  0  0  0  0  0  0  0  0
    5.2200   -3.2110   25.3970 C   0  0  0  0  0  0  0  0  0  0  0  0
    4.4270   -2.2900   25.1650 O   0  0  0  0  0  0  0  0  0  0  0  0
    5.3270   -3.6230   26.7760 N   0  0  0  0  0  0  0  0  0  0  0  0
    6.6230   -3.5440   27.3980 C   0  0  0  0  0  0  0  0  0  0  0  0
    6.8700   -4.7640   28.2400 C   0  0  0  0  0  0  0  0  0  0  0  0
    5.7090   -5.1790   28.8980 C   0  0  0  0  0  0  0  0  0  0  0  0
    5.4520   -6.2300   29.8300 N   0  0  0  0  0  0  0  0  0  0  0  0
    4.0630   -6.2400   30.2080 C   0  0  0  0  0  0  0  0  0  0  0  0
    3.6070   -5.1710   29.4390 N   0  0  0  0  0  0  0  0  0  0  0  0
    4.4360   -4.4650   28.6340 C   0  0  0  0  0  0  0  0  0  0  0  0
    4.2720   -3.3910   27.7770 C   0  0  0  0  0  0  0  0  0  0  0  0
    4.5740   -2.2150   28.4220 C   0  0  0  0  0  0  0  0  0  0  0  0
    3.5610   -1.7490   29.2210 C   0  0  0  0  0  0  0  0  0  0  0  0
    2.3890   -1.5390   28.5850 N   0  0  0  0  0  0  0  0  0  0  0  0
    1.2210   -1.4590   29.3050 C   0  0  0  0  0  0  0  0  0  0  0  0
    2.3950   -1.9820   27.3110 C   0  0  0  0  0  0  0  0  0  0  0  0
    3.0180   -3.3590   27.2080 C   0  0  0  0  0  0  0  0  0  0  0  0
    7.2450   -3.0370   23.7580 C   0  0  0  0  0  0  0  0  0  0  0  0
    7.6410   -3.2940   22.4100 C   0  0  0  0  0  0  0  0  0  0  0  0
  1  2  1  0
  2  3  2  0
  2  4  1  0
  4  5  1  0
  5  6  1  0
  6  7  1  0
  7  8  1  0
  8  9  2  0
  8 10  1  0
 10 11  1  0
 11 12  1  0
 12 13  1  0
 13 14  1  0
 14 15  2  0
 15 16  1  0
 13 17  2  0
 16 17  1  0
 18 10  1  0
 17 18  1  0
 18 19  1  0
 19 20  1  0
 20 21  1  0
 21 22  1  0
 21 23  1  0
 18 24  1  0
 23 24  1  0
  7 25  1  0
  4 26  1  0
 25 26  1  0
M  END
