piperidine-amides-31635-covalent
     RDKit          3D

 28 31  0  0  0  0  0  0  0  0999 V2000
    7.0200   -3.3790   19.3240 C   0  0  0  0  0  0  0  0  0  0  0  0
    6.3500   -4.1450   20.3530 C   0  0  0  0  0  0  0  0  0  0  0  0
    5.3650   -4.8560   19.9870 O   0  0  0  0  0  0  0  0  0  0  0  0
    6.7540   -4.1850   21.7060 N   0  0  0  0  0  0  0  0  0  0  0  0
    6.7410   -5.5180   22.3490 C   0  0  0  0  0  0  0  0  0  0  0  0
    5.7580   -5.2490   23.5460 C   0  0  0  0  0  0  0  0  0  0  0  0
    6.0280   -3.8280   24.0130 C   0  0  0  0  0  0  0  0  0  0  0  0
    5.2500   -3.4820   25.3920 C   0  0  0  0  0  0  0  0  0  0  0  0
    4.1170   -3.1620   25.0680 O   0  0  0  0  0  0  0  0  0  0  0  0
    5.9020   -3.5890   26.5110 N   0  0  0  0  0  0  0  0  0  0  0  0
    6.2860   -3.2980   27.7640 C   0  0  0  0  0  0  0  0  0  0  0  0
    5.7410   -3.5070   28.9760 C   0  0  0  0  0  0  0  0  0  0  0  0
    5.6430   -4.8740   29.0800 C   0  0  0  0  0  0  0  0  0  0  0  0
    5.1650   -5.7950   29.9370 N   0  0  0  0  0  0  0  0  0  0  0  0
    5.4700   -6.9660   29.2580 C   0  0  0  0  0  0  0  0  0  0  0  0
    6.0770   -6.8030   28.0990 N   0  0  0  0  0  0  0  0  0  0  0  0
    6.2310   -5.5490   27.8850 C   0  0  0  0  0  0  0  0  0  0  0  0
    6.8030   -4.7500   26.8530 C   0  0  0  0  0  0  0  0  0  0  0  0
    7.9840   -4.2790   27.4140 C   0  0  0  0  0  0  0  0  0  0  0  0
    8.0790   -5.7990   27.3060 C   0  0  0  0  0  0  0  0  0  0  0  0
    8.9760   -5.9590   26.3840 N   0  0  0  0  0  0  0  0  0  0  0  0
   10.0400   -5.0890   26.7530 C   0  0  0  0  0  0  0  0  0  0  0  0
   10.7510   -4.2660   25.9250 C   0  0  0  0  0  0  0  0  0  0  0  0
   10.3960   -4.9670   27.9360 O   0  0  0  0  0  0  0  0  0  0  0  0
    8.3850   -5.5010   25.2070 C   0  0  0  0  0  0  0  0  0  0  0  0
    7.1660   -5.0360   25.4430 C   0  0  0  0  0  0  0  0  0  0  0  0
    7.3470   -3.1710   23.6910 C   0  0  0  0  0  0  0  0  0  0  0  0
    7.5730   -3.1560   22.3070 C   0  0  0  0  0  0  0  0  0  0  0  0
  1  2  1  0
  2  3  2  0
  2  4  1  0
  4  5  1  0
  5  6  1  0
  6  7  1  0
  7  8  1  0
  8  9  2  0
  8 10  1  0
 10 11  1  0
 11 12  1  0
 12 13  1  0
 13 14  1  0
 14 15  2  0
 15 16  1  0
 13 17  2  0
 16 17  1  0
 18 10  1  0
 17 18  1  0
 18 19  1  0
 19 20  1  0
 20 21  1  0
 21 22  1  0
 22 23  1  0
 22 24  2  0
 21 25  1  0
 18 26  1  0
 25 26  1  0
  7 27  1  0
  4 28  1  0
 27 28  1  0
M  END
