piperidine-amides-33573-covalent
     RDKit          3D

 30 33  0  0  0  0  0  0  0  0999 V2000
    7.0640   -3.3690   19.3050 C   0  0  0  0  0  0  0  0  0  0  0  0
    6.4140   -4.2090   20.3200 C   0  0  0  0  0  0  0  0  0  0  0  0
    5.3690   -4.8090   19.9770 O   0  0  0  0  0  0  0  0  0  0  0  0
    6.9930   -4.3720   21.6050 N   0  0  0  0  0  0  0  0  0  0  0  0
    6.5810   -5.4750   22.4090 C   0  0  0  0  0  0  0  0  0  0  0  0
    6.0700   -5.1370   23.7500 C   0  0  0  0  0  0  0  0  0  0  0  0
    6.7130   -3.9980   24.4550 C   0  0  0  0  0  0  0  0  0  0  0  0
    5.8410   -3.5290   25.5820 C   0  0  0  0  0  0  0  0  0  0  0  0
    4.8150   -2.8900   25.2810 O   0  0  0  0  0  0  0  0  0  0  0  0
    6.0950   -3.7730   26.9590 N   0  0  0  0  0  0  0  0  0  0  0  0
    6.9510   -4.7270   27.5270 C   0  0  0  0  0  0  0  0  0  0  0  0
    6.2770   -5.6200   28.3830 C   0  0  0  0  0  0  0  0  0  0  0  0
    5.1560   -4.6470   28.8150 C   0  0  0  0  0  0  0  0  0  0  0  0
    4.9770   -3.6410   27.8550 C   0  0  1  0  0  0  0  0  0  0  0  0
    5.1520   -2.5730   28.9420 C   0  0  0  0  0  0  0  0  0  0  0  0
    6.4320   -2.4270   29.4690 O   0  0  0  0  0  0  0  0  0  0  0  0
    3.9950   -1.8000   29.3000 N   0  0  0  0  0  0  0  0  0  0  0  0
    3.8890   -0.6600   28.3360 C   0  0  0  0  0  0  0  0  0  0  0  0
    2.4500   -1.0430   27.9810 C   0  0  0  0  0  0  0  0  0  0  0  0
    1.7820   -1.9810   28.9190 C   0  0  0  0  0  0  0  0  0  0  0  0
    2.8710   -2.2280   29.9330 C   0  0  1  0  0  0  0  0  0  0  0  0
    2.8740   -3.6030   30.6210 C   0  0  0  0  0  0  0  0  0  0  0  0
    2.5360   -4.7320   29.6870 C   0  0  0  0  0  0  0  0  0  0  0  0
    2.4970   -6.0350   30.1710 C   0  0  0  0  0  0  0  0  0  0  0  0
    2.7610   -6.3100   31.4760 C   0  0  0  0  0  0  0  0  0  0  0  0
    3.0970   -5.1850   32.4080 C   0  0  0  0  0  0  0  0  0  0  0  0
    3.1410   -3.8710   31.9520 C   0  0  0  0  0  0  0  0  0  0  0  0
    3.4820   -2.7510   32.9270 C   0  0  0  0  0  0  0  0  0  0  0  0
    6.9570   -2.8930   23.5110 C   0  0  0  0  0  0  0  0  0  0  0  0
    7.6470   -3.2960   22.2810 C   0  0  0  0  0  0  0  0  0  0  0  0
  1  2  1  0
  2  3  2  0
  2  4  1  0
  4  5  1  0
  5  6  1  0
  6  7  1  0
  7  8  1  0
  8  9  2  0
  8 10  1  0
 10 11  1  0
 11 12  1  0
 12 13  1  0
 10 14  1  0
 13 14  1  0
 14 15  1  1
 15 16  2  0
 15 17  1  0
 17 18  1  0
 18 19  1  0
 19 20  1  0
 17 21  1  0
 20 21  1  0
 21 22  1  6
 22 23  2  0
 23 24  1  0
 24 25  2  0
 25 26  1  0
 22 27  1  0
 26 27  2  0
 27 28  1  0
  7 29  1  0
  4 30  1  0
 29 30  1  0
M  END
