piperidine-amides-1824-covalent
     RDKit          3D

 19 20  0  0  0  0  0  0  0  0999 V2000
    7.1680   -3.2840   19.2420 C   0  0  0  0  0  0  0  0  0  0  0  0
    6.3820   -4.0470   20.2350 C   0  0  0  0  0  0  0  0  0  0  0  0
    5.3000   -4.5060   19.8750 O   0  0  0  0  0  0  0  0  0  0  0  0
    6.9250   -4.2650   21.4970 N   0  0  0  0  0  0  0  0  0  0  0  0
    7.6800   -3.2500   22.1710 C   0  0  0  0  0  0  0  0  0  0  0  0
    6.8770   -2.7660   23.3340 C   0  0  0  0  0  0  0  0  0  0  0  0
    6.4220   -3.9450   24.2060 C   0  0  0  0  0  0  0  0  0  0  0  0
    5.4140   -3.4390   25.1490 C   0  0  0  0  0  0  0  0  0  0  0  0
    5.0320   -2.2660   25.0960 O   0  0  0  0  0  0  0  0  0  0  0  0
    4.8710   -4.3010   26.1020 N   0  0  0  0  0  0  0  0  0  0  0  0
    5.7720   -4.9170   27.0230 C   0  0  0  0  0  0  0  0  0  0  0  0
    6.4900   -3.7700   27.6320 C   0  0  0  0  0  0  0  0  0  0  0  0
    6.0930   -2.5020   27.8520 C   0  0  0  0  0  0  0  0  0  0  0  0
    7.0080   -1.6800   28.4370 N   0  0  0  0  0  0  0  0  0  0  0  0
    8.1340   -2.5510   28.6080 C   0  0  0  0  0  0  0  0  0  0  0  0
    7.7500   -3.7840   28.1040 N   0  0  0  0  0  0  0  0  0  0  0  0
    8.5110   -5.0280   28.0310 C   0  0  0  0  0  0  0  0  0  0  0  0
    5.7350   -5.0510   23.4040 C   0  0  0  0  0  0  0  0  0  0  0  0
    6.5700   -5.4180   22.2270 C   0  0  0  0  0  0  0  0  0  0  0  0
  1  2  1  0
  2  3  2  0
  2  4  1  0
  4  5  1  0
  5  6  1  0
  6  7  1  0
  7  8  1  0
  8  9  2  0
  8 10  1  0
 10 11  1  0
 11 12  1  0
 12 13  2  0
 13 14  1  0
 14 15  2  0
 12 16  1  0
 15 16  1  0
 16 17  1  0
  7 18  1  0
  4 19  1  0
 18 19  1  0
M  END
