piperidine-amides-29430-covalent
     RDKit          3D

 22 24  0  0  0  0  0  0  0  0999 V2000
    7.0510   -3.3570   19.2430 C   0  0  0  0  0  0  0  0  0  0  0  0
    6.3420   -4.1430   20.2300 C   0  0  0  0  0  0  0  0  0  0  0  0
    5.2680   -4.6430   19.8960 O   0  0  0  0  0  0  0  0  0  0  0  0
    6.9240   -4.4110   21.5010 N   0  0  0  0  0  0  0  0  0  0  0  0
    6.4250   -5.5240   22.1440 C   0  0  0  0  0  0  0  0  0  0  0  0
    5.7340   -5.1400   23.4440 C   0  0  0  0  0  0  0  0  0  0  0  0
    6.5920   -4.2220   24.3440 C   0  0  0  0  0  0  0  0  0  0  0  0
    5.8200   -3.8940   25.6720 C   0  0  0  0  0  0  0  0  0  0  0  0
    4.5620   -3.6760   25.5230 O   0  0  0  0  0  0  0  0  0  0  0  0
    6.4410   -3.7400   26.9300 N   0  0  0  0  0  0  0  0  0  0  0  0
    6.3290   -4.7490   27.9570 C   0  0  0  0  0  0  0  0  0  0  0  0
    6.0990   -5.7030   29.1080 C   0  0  0  0  0  0  0  0  0  0  0  0
    7.3550   -6.6230   28.0720 Br  0  0  0  0  0  0  0  0  0  0  0  0
    5.2860   -5.0280   29.7120 C   0  0  0  0  0  0  0  0  0  0  0  0
    4.8390   -3.8690   29.2640 N   0  0  0  0  0  0  0  0  0  0  0  0
    5.4360   -3.6380   28.1600 N   0  0  0  0  0  0  0  0  0  0  0  0
    4.6670   -2.6820   28.3340 C   0  0  0  0  0  0  0  0  0  0  0  0
    5.3240   -1.6250   27.7390 C   0  0  0  0  0  0  0  0  0  0  0  0
    6.7180   -2.3120   27.3680 C   0  0  2  0  0  0  0  0  0  0  0  0
    7.4090   -1.5340   26.2810 C   0  0  0  0  0  0  0  0  0  0  0  0
    7.0220   -2.9620   23.5690 C   0  0  0  0  0  0  0  0  0  0  0  0
    7.5920   -3.1890   22.0840 C   0  0  0  0  0  0  0  0  0  0  0  0
  1  2  1  0
  2  3  2  0
  2  4  1  0
  4  5  1  0
  5  6  1  0
  6  7  1  0
  7  8  1  0
  8  9  2  0
  8 10  1  0
 10 11  1  0
 11 12  2  0
 12 13  1  0
 12 14  1  0
 14 15  2  0
 11 16  1  0
 15 16  1  0
 16 17  1  0
 17 18  1  0
 10 19  1  0
 18 19  1  0
 19 20  1  6
  7 21  1  0
  4 22  1  0
 21 22  1  0
M  END
