piperidine-amides-33590-covalent
     RDKit          3D

 25 27  0  0  0  0  0  0  0  0999 V2000
    7.1260   -3.3430   19.3180 C   0  0  0  0  0  0  0  0  0  0  0  0
    6.4500   -4.1940   20.3080 C   0  0  0  0  0  0  0  0  0  0  0  0
    5.3670   -4.7230   19.9530 O   0  0  0  0  0  0  0  0  0  0  0  0
    7.0350   -4.4650   21.5710 N   0  0  0  0  0  0  0  0  0  0  0  0
    6.5190   -5.5270   22.3500 C   0  0  0  0  0  0  0  0  0  0  0  0
    6.0590   -5.1270   23.6770 C   0  0  0  0  0  0  0  0  0  0  0  0
    6.7520   -3.9710   24.3110 C   0  0  0  0  0  0  0  0  0  0  0  0
    5.9420   -3.4130   25.4370 C   0  0  0  0  0  0  0  0  0  0  0  0
    4.7280   -3.1900   25.2520 O   0  0  0  0  0  0  0  0  0  0  0  0
    6.4910   -3.1270   26.6990 N   0  0  0  0  0  0  0  0  0  0  0  0
    5.7240   -2.6160   27.7640 C   0  0  0  0  0  0  0  0  0  0  0  0
    5.5460   -3.5090   28.8770 C   0  0  0  0  0  0  0  0  0  0  0  0
    6.0170   -4.7440   28.8080 N   0  0  0  0  0  0  0  0  0  0  0  0
    5.1770   -5.8700   29.0620 C   0  0  0  0  0  0  0  0  0  0  0  0
    3.8320   -5.7550   28.7890 O   0  0  0  0  0  0  0  0  0  0  0  0
    5.7520   -6.9740   29.5670 C   0  0  0  0  0  0  0  0  0  0  0  0
    5.5590   -6.9350   31.0530 C   0  0  0  0  0  0  0  0  0  0  0  0
    6.2950   -8.1920   31.3160 C   0  0  0  0  0  0  0  0  0  0  0  0
    6.7160   -8.6220   29.8500 C   0  0  0  0  0  0  0  0  0  0  0  0
    7.7990  -10.2800   29.5210 Br  0  0  0  0  0  0  0  0  0  0  0  0
    6.3350   -7.8440   28.9670 O   0  0  0  0  0  0  0  0  0  0  0  0
    7.2570   -4.9400   28.1430 C   0  0  0  0  0  0  0  0  0  0  0  0
    7.6290   -3.8300   27.1750 C   0  0  0  0  0  0  0  0  0  0  0  0
    7.0150   -2.8290   23.3200 C   0  0  0  0  0  0  0  0  0  0  0  0
    7.8000   -3.3690   22.1930 C   0  0  0  0  0  0  0  0  0  0  0  0
  1  2  1  0
  2  3  2  0
  2  4  1  0
  4  5  1  0
  5  6  1  0
  6  7  1  0
  7  8  1  0
  8  9  2  0
  8 10  1  0
 10 11  1  0
 11 12  1  0
 12 13  1  0
 13 14  1  0
 14 15  2  0
 14 16  1  0
 16 17  2  0
 17 18  1  0
 18 19  2  0
 19 20  1  0
 16 21  1  0
 19 21  1  0
 13 22  1  0
 10 23  1  0
 22 23  1  0
  7 24  1  0
  4 25  1  0
 24 25  1  0
M  END
