piperidine-amides-30767-covalent
     RDKit          3D

 28 31  0  0  0  0  0  0  0  0999 V2000
    7.0820   -3.3360   19.2900 C   0  0  0  0  0  0  0  0  0  0  0  0
    6.3980   -4.1570   20.2930 C   0  0  0  0  0  0  0  0  0  0  0  0
    5.3680   -4.7720   19.9650 O   0  0  0  0  0  0  0  0  0  0  0  0
    6.9070   -4.3080   21.5930 N   0  0  0  0  0  0  0  0  0  0  0  0
    6.6490   -5.4840   22.3860 C   0  0  0  0  0  0  0  0  0  0  0  0
    5.9400   -4.9930   23.6230 C   0  0  0  0  0  0  0  0  0  0  0  0
    6.6130   -3.8070   24.2670 C   0  0  0  0  0  0  0  0  0  0  0  0
    5.8030   -3.2550   25.3700 C   0  0  0  0  0  0  0  0  0  0  0  0
    4.5800   -2.9880   25.1770 O   0  0  0  0  0  0  0  0  0  0  0  0
    6.3070   -2.9940   26.6600 N   0  0  0  0  0  0  0  0  0  0  0  0
    6.0160   -3.9930   27.7020 C   0  0  0  0  0  0  0  0  0  0  0  0
    4.7880   -3.5270   28.3920 C   0  0  0  0  0  0  0  0  0  0  0  0
    4.8870   -2.3920   29.3310 C   0  0  0  0  0  0  0  0  0  0  0  0
    3.6470   -1.9190   30.0230 C   0  0  0  0  0  0  0  0  0  0  0  0
    2.3710   -2.6430   29.7090 C   0  0  0  0  0  0  0  0  0  0  0  0
    2.4180   -3.7500   28.7600 C   0  0  0  0  0  0  0  0  0  0  0  0
    3.5870   -4.1540   28.1430 C   0  0  0  0  0  0  0  0  0  0  0  0
    1.1280   -4.2150   28.6700 O   0  0  0  0  0  0  0  0  0  0  0  0
    0.3560   -3.3960   29.5310 C   0  0  0  0  0  0  0  0  0  0  0  0
    1.2020   -2.4550   30.1420 O   0  0  0  0  0  0  0  0  0  0  0  0
    6.3710   -1.7180   27.2470 C   0  0  0  0  0  0  0  0  0  0  0  0
    5.7730   -0.4520   26.6320 C   0  0  0  0  0  0  0  0  0  0  0  0
    5.9980    0.6940   27.5090 C   0  0  0  0  0  0  0  0  0  0  0  0
    6.4790    0.9770   28.5180 C   0  0  0  0  0  0  0  0  0  0  0  0
    7.0640   -0.2530   29.1080 C   0  0  0  0  0  0  0  0  0  0  0  0
    7.0170   -1.5300   28.5100 C   0  0  0  0  0  0  0  0  0  0  0  0
    6.9450   -2.6960   23.3180 C   0  0  0  0  0  0  0  0  0  0  0  0
    7.7480   -3.2890   22.1860 C   0  0  0  0  0  0  0  0  0  0  0  0
  1  2  1  0
  2  3  2  0
  2  4  1  0
  4  5  1  0
  5  6  1  0
  6  7  1  0
  7  8  1  0
  8  9  2  0
  8 10  1  0
 10 11  1  0
 11 12  1  0
 12 13  2  0
 13 14  1  0
 14 15  2  0
 15 16  1  0
 12 17  1  0
 16 17  2  0
 16 18  1  0
 18 19  1  0
 15 20  1  0
 19 20  1  0
 10 21  1  0
 21 22  2  0
 22 23  1  0
 23 24  2  0
 24 25  1  0
 21 26  1  0
 25 26  2  0
  7 27  1  0
  4 28  1  0
 27 28  1  0
M  END
