piperidine-amides-27799-covalent
     RDKit          3D

 26 28  0  0  0  0  0  0  0  0999 V2000
    7.0360   -3.3380   19.2890 C   0  0  0  0  0  0  0  0  0  0  0  0
    6.3880   -4.1740   20.3250 C   0  0  0  0  0  0  0  0  0  0  0  0
    5.3680   -4.7970   19.9690 O   0  0  0  0  0  0  0  0  0  0  0  0
    6.9330   -4.2950   21.6180 N   0  0  0  0  0  0  0  0  0  0  0  0
    6.7140   -5.4800   22.3840 C   0  0  0  0  0  0  0  0  0  0  0  0
    6.2240   -5.1880   23.7310 C   0  0  0  0  0  0  0  0  0  0  0  0
    6.2390   -3.7470   24.0440 C   0  0  0  0  0  0  0  0  0  0  0  0
    5.6700   -3.4820   25.3940 C   0  0  0  0  0  0  0  0  0  0  0  0
    4.4550   -3.2110   25.4370 O   0  0  0  0  0  0  0  0  0  0  0  0
    6.4070   -3.5160   26.5980 N   0  0  0  0  0  0  0  0  0  0  0  0
    7.8090   -3.9630   26.6750 C   0  0  0  0  0  0  0  0  0  0  0  0
    8.0710   -4.8620   27.8400 C   0  0  0  0  0  0  0  0  0  0  0  0
    7.2710   -6.0600   28.0190 C   0  0  0  0  0  0  0  0  0  0  0  0
    6.3400   -5.9440   29.1190 N   0  0  0  0  0  0  0  0  0  0  0  0
    5.8460   -7.0820   29.8200 C   0  0  0  0  0  0  0  0  0  0  0  0
    4.5660   -7.0090   30.3190 C   0  0  0  0  0  0  0  0  0  0  0  0
    4.4880   -7.3160   28.9410 C   0  0  0  0  0  0  0  0  0  0  0  0
    3.4370   -7.5330   28.0820 C   0  0  0  0  0  0  0  0  0  0  0  0
    2.1650   -7.4860   28.4590 C   0  0  0  0  0  0  0  0  0  0  0  0
    2.0070   -7.2040   29.7620 C   0  0  0  0  0  0  0  0  0  0  0  0
    3.1910   -6.9860   30.6050 C   0  0  0  0  0  0  0  0  0  0  0  0
    5.5080   -4.8080   29.1690 C   0  0  0  0  0  0  0  0  0  0  0  0
    6.1930   -3.5160   28.9170 C   0  0  0  0  0  0  0  0  0  0  0  0
    5.8540   -2.8250   27.7450 C   0  0  0  0  0  0  0  0  0  0  0  0
    7.4750   -3.0770   23.6390 C   0  0  0  0  0  0  0  0  0  0  0  0
    7.8180   -3.2800   22.1990 C   0  0  0  0  0  0  0  0  0  0  0  0
  1  2  1  0
  2  3  2  0
  2  4  1  0
  4  5  1  0
  5  6  1  0
  6  7  1  0
  7  8  1  0
  8  9  2  0
  8 10  1  0
 10 11  1  0
 11 12  1  0
 12 13  1  0
 13 14  1  0
 14 15  1  0
 15 16  1  0
 16 17  2  0
 17 18  1  0
 18 19  2  0
 19 20  1  0
 16 21  1  0
 20 21  2  0
 14 22  1  0
 22 23  1  0
 10 24  1  0
 23 24  1  0
  7 25  1  0
  4 26  1  0
 25 26  1  0
M  END
