piperidine-amides-12311-covalent
     RDKit          3D

 24 26  0  0  0  0  0  0  0  0999 V2000
    7.0360   -3.3390   19.3580 C   0  0  0  0  0  0  0  0  0  0  0  0
    6.3380   -4.2020   20.3050 C   0  0  0  0  0  0  0  0  0  0  0  0
    5.3270   -4.8060   19.9620 O   0  0  0  0  0  0  0  0  0  0  0  0
    6.8600   -4.3890   21.6270 N   0  0  0  0  0  0  0  0  0  0  0  0
    7.6240   -3.3370   22.2350 C   0  0  0  0  0  0  0  0  0  0  0  0
    7.3900   -3.3510   23.7110 C   0  0  0  0  0  0  0  0  0  0  0  0
    5.9650   -3.7930   23.9190 C   0  0  0  0  0  0  0  0  0  0  0  0
    5.4660   -3.4800   25.2900 C   0  0  0  0  0  0  0  0  0  0  0  0
    4.2480   -3.4080   25.5380 O   0  0  0  0  0  0  0  0  0  0  0  0
    6.3820   -3.2530   26.3410 N   0  0  0  0  0  0  0  0  0  0  0  0
    6.6600   -1.8860   26.7210 C   0  0  2  0  0  0  0  0  0  0  0  0
    7.2670   -1.4170   25.4130 C   0  0  0  0  0  0  0  0  0  0  0  0
    6.6470   -0.4080   24.6590 C   0  0  0  0  0  0  0  0  0  0  0  0
    7.1950    0.0320   23.4430 C   0  0  0  0  0  0  0  0  0  0  0  0
    8.3470   -0.4960   22.9400 C   0  0  0  0  0  0  0  0  0  0  0  0
    8.9580   -1.5260   23.7290 C   0  0  0  0  0  0  0  0  0  0  0  0
    8.4480   -1.9860   24.9340 C   0  0  0  0  0  0  0  0  0  0  0  0
    7.4100   -1.6830   27.8720 C   0  0  0  0  0  0  0  0  0  0  0  0
    7.0220   -0.8040   28.8770 C   0  0  0  0  0  0  0  0  0  0  0  0
    6.2790    0.3400   28.3800 C   0  0  0  0  0  0  0  0  0  0  0  0
    5.8130    0.2050   27.2490 O   0  0  0  0  0  0  0  0  0  0  0  0
    5.4950   -1.1140   27.0260 C   0  0  0  0  0  0  0  0  0  0  0  0
    5.8500   -5.2620   23.6480 C   0  0  0  0  0  0  0  0  0  0  0  0
    6.5030   -5.5710   22.3340 C   0  0  0  0  0  0  0  0  0  0  0  0
  1  2  1  0
  2  3  2  0
  2  4  1  0
  4  5  1  0
  5  6  1  0
  6  7  1  0
  7  8  1  0
  8  9  2  0
  8 10  1  0
 11 10  1  6
 11 12  1  0
 12 13  2  0
 13 14  1  0
 14 15  2  0
 15 16  1  0
 12 17  1  0
 16 17  2  0
 11 18  1  0
 18 19  1  0
 19 20  1  0
 20 21  1  0
 11 22  1  0
 21 22  1  0
  7 23  1  0
  4 24  1  0
 23 24  1  0
M  END
