piperidine-amides-6908-covalent
     RDKit          3D

 23 24  0  0  0  0  0  0  0  0999 V2000
    7.1220   -3.3380   19.3600 C   0  0  0  0  0  0  0  0  0  0  0  0
    6.3990   -4.1710   20.3250 C   0  0  0  0  0  0  0  0  0  0  0  0
    5.3700   -4.7990   19.9770 O   0  0  0  0  0  0  0  0  0  0  0  0
    6.8940   -4.3080   21.6290 N   0  0  0  0  0  0  0  0  0  0  0  0
    7.7550   -3.2870   22.1840 C   0  0  0  0  0  0  0  0  0  0  0  0
    6.9530   -2.6320   23.2970 C   0  0  0  0  0  0  0  0  0  0  0  0
    6.5260   -3.7630   24.1940 C   0  0  0  0  0  0  0  0  0  0  0  0
    5.7900   -3.2060   25.3420 C   0  0  0  0  0  0  0  0  0  0  0  0
    4.5760   -2.9450   25.2130 O   0  0  0  0  0  0  0  0  0  0  0  0
    6.4850   -2.9980   26.5490 N   0  0  0  0  0  0  0  0  0  0  0  0
    6.4560   -1.7510   27.2630 C   0  0  0  0  0  0  0  0  0  0  0  0
    5.8170   -0.5140   26.6750 C   0  0  0  0  0  0  0  0  0  0  0  0
    5.7550    0.6840   27.3250 C   0  0  0  0  0  0  0  0  0  0  0  0
    6.2820    0.8370   28.5800 C   0  0  0  0  0  0  0  0  0  0  0  0
    6.2020    2.0730   29.2400 C   0  0  0  0  0  0  0  0  0  0  0  0
    7.3450    2.6560   29.7400 C   0  0  0  0  0  0  0  0  0  0  0  0
    8.2480    3.2580   28.9320 O   0  0  0  0  0  0  0  0  0  0  0  0
    7.6640    2.7060   31.0600 N   0  0  0  0  0  0  0  0  0  0  0  0
    7.9470    1.4660   31.5010 C   0  0  0  0  0  0  0  0  0  0  0  0
    6.8930   -0.2070   29.2170 C   0  0  0  0  0  0  0  0  0  0  0  0
    7.0430   -1.5810   28.6380 C   0  0  0  0  0  0  0  0  0  0  0  0
    5.6730   -4.7730   23.4520 C   0  0  0  0  0  0  0  0  0  0  0  0
    6.4770   -5.3920   22.4820 C   0  0  0  0  0  0  0  0  0  0  0  0
  1  2  1  0
  2  3  2  0
  2  4  1  0
  4  5  1  0
  5  6  1  0
  6  7  1  0
  7  8  1  0
  8  9  2  0
  8 10  1  0
 10 11  1  0
 11 12  2  0
 12 13  1  0
 13 14  2  0
 14 15  1  0
 15 16  1  0
 16 17  2  0
 16 18  1  0
 18 19  1  0
 14 20  1  0
 11 21  1  0
 20 21  2  0
  7 22  1  0
  4 23  1  0
 22 23  1  0
M  END
