piperidine-amides-11539-covalent
     RDKit          3D

 18 19  0  0  0  0  0  0  0  0999 V2000
    7.0690   -3.3700   19.3550 C   0  0  0  0  0  0  0  0  0  0  0  0
    6.3530   -4.1680   20.3480 C   0  0  0  0  0  0  0  0  0  0  0  0
    5.3590   -4.8190   19.9790 O   0  0  0  0  0  0  0  0  0  0  0  0
    6.7930   -4.2560   21.6810 N   0  0  0  0  0  0  0  0  0  0  0  0
    7.6380   -3.2290   22.2680 C   0  0  0  0  0  0  0  0  0  0  0  0
    7.2330   -3.1310   23.7200 C   0  0  0  0  0  0  0  0  0  0  0  0
    5.9150   -3.8130   23.9560 C   0  0  0  0  0  0  0  0  0  0  0  0
    5.3100   -3.6450   25.3140 C   0  0  0  0  0  0  0  0  0  0  0  0
    4.0640   -3.5900   25.4780 O   0  0  0  0  0  0  0  0  0  0  0  0
    6.0110   -3.5350   26.5090 N   0  0  0  0  0  0  0  0  0  0  0  0
    6.6060   -2.2630   26.9090 C   0  0  0  0  0  0  0  0  0  0  0  0
    7.9960   -2.4570   27.1630 C   0  0  2  0  0  0  0  0  0  0  0  0
    8.2130   -2.4510   28.6060 C   0  0  0  0  0  0  0  0  0  0  0  0
    8.7810   -1.6020   26.7540 O   0  0  0  0  0  0  0  0  0  0  0  0
    6.0620   -0.9190   26.4560 C   0  0  0  0  0  0  0  0  0  0  0  0
    6.1090   -1.2100   27.8480 C   0  0  0  0  0  0  0  0  0  0  0  0
    6.0490   -5.2620   23.6420 C   0  0  0  0  0  0  0  0  0  0  0  0
    6.5020   -5.4810   22.3650 C   0  0  0  0  0  0  0  0  0  0  0  0
  1  2  1  0
  2  3  2  0
  2  4  1  0
  4  5  1  0
  5  6  1  0
  6  7  1  0
  7  8  1  0
  8  9  2  0
  8 10  1  0
 11 10  1  0
 11 12  1  0
 12 13  1  1
 12 14  1  0
 11 15  1  0
 11 16  1  0
 15 16  1  0
  7 17  1  0
  4 18  1  0
 17 18  1  0
M  END
