piperidine-amides-8296-covalent
     RDKit          3D

 25 26  0  0  0  0  0  0  0  0999 V2000
    7.1290   -3.2750   19.2250 C   0  0  0  0  0  0  0  0  0  0  0  0
    6.4020   -4.0560   20.2220 C   0  0  0  0  0  0  0  0  0  0  0  0
    5.3090   -4.5530   19.8910 O   0  0  0  0  0  0  0  0  0  0  0  0
    6.9590   -4.2900   21.5020 N   0  0  0  0  0  0  0  0  0  0  0  0
    6.4220   -5.3710   22.2580 C   0  0  0  0  0  0  0  0  0  0  0  0
    5.5750   -4.7790   23.3400 C   0  0  0  0  0  0  0  0  0  0  0  0
    6.4940   -3.9300   24.1980 C   0  0  0  0  0  0  0  0  0  0  0  0
    5.7440   -3.4460   25.4060 C   0  0  0  0  0  0  0  0  0  0  0  0
    4.5330   -3.2930   25.2680 O   0  0  0  0  0  0  0  0  0  0  0  0
    6.4620   -3.1860   26.5710 N   0  0  0  0  0  0  0  0  0  0  0  0
    6.3210   -3.9180   27.8020 C   0  0  2  0  0  0  0  0  0  0  0  0
    5.8320   -5.2440   27.7480 C   0  0  0  0  0  0  0  0  0  0  0  0
    4.7880   -5.5650   26.9120 C   0  0  0  0  0  0  0  0  0  0  0  0
    3.7400   -4.6760   26.8720 O   0  0  0  0  0  0  0  0  0  0  0  0
    4.8490   -6.7530   26.1720 O   0  0  0  0  0  0  0  0  0  0  0  0
    3.6360   -7.3170   25.6550 C   0  0  0  0  0  0  0  0  0  0  0  0
    5.4620   -3.0910   28.6950 C   0  0  0  0  0  0  0  0  0  0  0  0
    4.0180   -3.4910   29.1020 C   0  0  0  0  0  0  0  0  0  0  0  0
    3.1980   -2.6280   30.0000 C   0  0  0  0  0  0  0  0  0  0  0  0
    3.8620   -1.3700   30.4720 C   0  0  0  0  0  0  0  0  0  0  0  0
    5.2980   -0.9990   30.0540 C   0  0  0  0  0  0  0  0  0  0  0  0
    6.0330    0.4900   30.6380 Cl  0  0  0  0  0  0  0  0  0  0  0  0
    6.0490   -1.7980   29.2250 C   0  0  0  0  0  0  0  0  0  0  0  0
    6.9140   -2.7450   23.3820 C   0  0  0  0  0  0  0  0  0  0  0  0
    7.6290   -3.1720   22.1330 C   0  0  0  0  0  0  0  0  0  0  0  0
  1  2  1  0
  2  3  2  0
  2  4  1  0
  4  5  1  0
  5  6  1  0
  6  7  1  0
  7  8  1  0
  8  9  2  0
  8 10  1  0
 10 11  1  0
 11 12  1  6
 12 13  1  0
 13 14  2  0
 13 15  1  0
 15 16  1  0
 11 17  1  0
 17 18  2  0
 18 19  1  0
 19 20  2  0
 20 21  1  0
 21 22  1  0
 17 23  1  0
 21 23  2  0
  7 24  1  0
  4 25  1  0
 24 25  1  0
M  END
