piperidine-amides-32906-covalent
     RDKit          3D

 29 30  0  0  0  0  0  0  0  0999 V2000
    7.1200   -3.2710   19.2240 C   0  0  0  0  0  0  0  0  0  0  0  0
    6.3540   -4.0640   20.2260 C   0  0  0  0  0  0  0  0  0  0  0  0
    5.2740   -4.5710   19.8890 O   0  0  0  0  0  0  0  0  0  0  0  0
    6.8930   -4.2720   21.5090 N   0  0  0  0  0  0  0  0  0  0  0  0
    6.5010   -5.4040   22.2970 C   0  0  0  0  0  0  0  0  0  0  0  0
    5.6150   -4.8410   23.4110 C   0  0  0  0  0  0  0  0  0  0  0  0
    6.4480   -3.9000   24.2160 C   0  0  0  0  0  0  0  0  0  0  0  0
    5.7230   -3.3580   25.3930 C   0  0  0  0  0  0  0  0  0  0  0  0
    4.4920   -3.2900   25.2770 O   0  0  0  0  0  0  0  0  0  0  0  0
    6.4010   -2.9250   26.5410 N   0  0  0  0  0  0  0  0  0  0  0  0
    6.8940   -1.5930   26.6220 C   0  0  0  0  0  0  0  0  0  0  0  0
    6.2140   -3.5600   27.8210 C   0  0  0  0  0  0  0  0  0  0  0  0
    6.1460   -4.9640   27.9820 C   0  0  0  0  0  0  0  0  0  0  0  0
    6.9540   -5.6940   28.8360 O   0  0  0  0  0  0  0  0  0  0  0  0
    5.1310   -5.6570   27.2160 N   0  0  0  0  0  0  0  0  0  0  0  0
    4.5600   -6.8450   27.5590 C   0  0  0  0  0  0  0  0  0  0  0  0
    3.3170   -6.8670   28.3730 C   0  0  0  0  0  0  0  0  0  0  0  0
    3.1090   -6.0200   29.4510 O   0  0  0  0  0  0  0  0  0  0  0  0
    2.4420   -7.7930   27.9360 N   0  0  0  0  0  0  0  0  0  0  0  0
    1.4010   -7.3530   27.0880 C   0  0  0  0  0  0  0  0  0  0  0  0
    1.6430   -7.7710   25.6660 C   0  0  0  0  0  0  0  0  0  0  0  0
    2.6880   -8.4830   25.1230 C   0  0  0  0  0  0  0  0  0  0  0  0
    0.5860   -7.3270   24.7860 C   0  0  0  0  0  0  0  0  0  0  0  0
   -0.5680   -6.5400   25.3800 C   0  0  0  0  0  0  0  0  0  0  0  0
   -0.9720   -6.0610   26.6300 C   0  0  0  0  0  0  0  0  0  0  0  0
    0.2130   -6.5740   27.5380 C   0  0  0  0  0  0  0  0  0  0  0  0
    0.1070   -6.2260   29.0060 C   0  0  0  0  0  0  0  0  0  0  0  0
    6.9360   -2.7250   23.3900 C   0  0  0  0  0  0  0  0  0  0  0  0
    7.6310   -3.1930   22.1640 C   0  0  0  0  0  0  0  0  0  0  0  0
  1  2  1  0
  2  3  2  0
  2  4  1  0
  4  5  1  0
  5  6  1  0
  6  7  1  0
  7  8  1  0
  8  9  2  0
  8 10  1  0
 10 11  1  0
 10 12  1  0
 12 13  1  0
 13 14  2  0
 13 15  1  0
 15 16  1  0
 16 17  1  0
 17 18  2  0
 17 19  1  0
 19 20  1  0
 20 21  2  0
 21 22  1  0
 21 23  1  0
 23 24  2  0
 24 25  1  0
 20 26  1  0
 25 26  2  0
 26 27  1  0
  7 28  1  0
  4 29  1  0
 28 29  1  0
M  END
