piperidine-amides-10416-covalent
     RDKit          3D

 24 25  0  0  0  0  0  0  0  0999 V2000
    7.1330   -3.3020   19.2260 C   0  0  0  0  0  0  0  0  0  0  0  0
    6.3580   -4.0290   20.2230 C   0  0  0  0  0  0  0  0  0  0  0  0
    5.2460   -4.4880   19.8590 O   0  0  0  0  0  0  0  0  0  0  0  0
    6.8960   -4.2380   21.4890 N   0  0  0  0  0  0  0  0  0  0  0  0
    7.6850   -3.2420   22.1610 C   0  0  0  0  0  0  0  0  0  0  0  0
    6.9150   -2.7900   23.3620 C   0  0  0  0  0  0  0  0  0  0  0  0
    6.3490   -3.9380   24.1690 C   0  0  0  0  0  0  0  0  0  0  0  0
    5.4400   -3.3880   25.1930 C   0  0  0  0  0  0  0  0  0  0  0  0
    4.2170   -3.6130   25.0790 O   0  0  0  0  0  0  0  0  0  0  0  0
    5.8750   -2.6150   26.2750 N   0  0  0  0  0  0  0  0  0  0  0  0
    6.7450   -3.1540   27.2720 C   0  0  1  0  0  0  0  0  0  0  0  0
    7.9910   -3.6490   26.5560 C   0  0  0  0  0  0  0  0  0  0  0  0
    8.6350   -2.9080   25.7740 O   0  0  0  0  0  0  0  0  0  0  0  0
    8.4650   -4.9440   26.7160 O   0  0  0  0  0  0  0  0  0  0  0  0
    8.5110   -5.5000   27.9950 C   0  0  0  0  0  0  0  0  0  0  0  0
    7.2750   -5.9360   28.4200 C   0  0  0  0  0  0  0  0  0  0  0  0
    6.8610   -2.1410   28.3700 C   0  0  0  0  0  0  0  0  0  0  0  0
    6.0380   -2.4470   29.4330 C   0  0  0  0  0  0  0  0  0  0  0  0
    4.7220   -2.0520   29.3760 C   0  0  0  0  0  0  0  0  0  0  0  0
    4.4980   -0.8450   29.1240 O   0  0  0  0  0  0  0  0  0  0  0  0
    5.2730   -0.0710   28.2290 C   0  0  0  0  0  0  0  0  0  0  0  0
    6.5970   -0.7560   27.8590 C   0  0  0  0  0  0  0  0  0  0  0  0
    5.5990   -4.9750   23.3090 C   0  0  0  0  0  0  0  0  0  0  0  0
    6.5560   -5.4370   22.2320 C   0  0  0  0  0  0  0  0  0  0  0  0
  1  2  1  0
  2  3  2  0
  2  4  1  0
  4  5  1  0
  5  6  1  0
  6  7  1  0
  7  8  1  0
  8  9  2  0
  8 10  1  0
 11 10  1  6
 11 12  1  0
 12 13  2  0
 12 14  1  0
 14 15  1  0
 15 16  1  0
 11 17  1  0
 17 18  1  0
 18 19  1  0
 19 20  1  0
 20 21  1  0
 17 22  1  0
 21 22  1  0
  7 23  1  0
  4 24  1  0
 23 24  1  0
M  END
