piperidine-amides-18799-covalent
     RDKit          3D

 21 21  0  0  0  0  0  0  0  0999 V2000
    7.0530   -3.3280   19.2230 C   0  0  0  0  0  0  0  0  0  0  0  0
    6.3210   -4.0020   20.2720 C   0  0  0  0  0  0  0  0  0  0  0  0
    5.2890   -4.6540   19.9270 O   0  0  0  0  0  0  0  0  0  0  0  0
    6.7320   -4.0100   21.6240 N   0  0  0  0  0  0  0  0  0  0  0  0
    6.7400   -5.3520   22.2600 C   0  0  0  0  0  0  0  0  0  0  0  0
    5.9050   -5.0990   23.5740 C   0  0  0  0  0  0  0  0  0  0  0  0
    6.2200   -3.6870   24.0080 C   0  0  0  0  0  0  0  0  0  0  0  0
    5.4650   -3.4310   25.3910 C   0  0  0  0  0  0  0  0  0  0  0  0
    4.3520   -3.9240   25.3630 O   0  0  0  0  0  0  0  0  0  0  0  0
    6.2020   -2.7560   26.1720 N   0  0  0  0  0  0  0  0  0  0  0  0
    6.9390   -1.6910   26.5700 C   0  0  0  0  0  0  0  0  0  0  0  0
    6.1750   -3.4470   27.4150 C   0  0  0  0  0  0  0  0  0  0  0  0
    6.1080   -4.8710   27.4450 C   0  0  0  0  0  0  0  0  0  0  0  0
    6.7690   -5.3480   28.5880 O   0  0  0  0  0  0  0  0  0  0  0  0
    5.5230   -5.6610   26.5470 N   0  0  0  0  0  0  0  0  0  0  0  0
    4.2630   -6.0100   26.9900 C   0  0  0  0  0  0  0  0  0  0  0  0
    3.7140   -7.2060   26.1970 C   0  0  0  0  0  0  0  0  0  0  0  0
    4.1950   -7.3510   27.7380 C   0  0  0  0  0  0  0  0  0  0  0  0
    3.1550   -5.0390   27.3030 C   0  0  0  0  0  0  0  0  0  0  0  0
    7.5350   -3.1900   23.7320 C   0  0  0  0  0  0  0  0  0  0  0  0
    7.5970   -3.0330   22.1810 C   0  0  0  0  0  0  0  0  0  0  0  0
  1  2  1  0
  2  3  2  0
  2  4  1  0
  4  5  1  0
  5  6  1  0
  6  7  1  0
  7  8  1  0
  8  9  2  0
  8 10  1  0
 10 11  1  0
 10 12  1  0
 12 13  1  0
 13 14  2  0
 13 15  1  0
 16 15  1  0
 16 17  1  0
 16 18  1  0
 16 19  1  0
  7 20  1  0
  4 21  1  0
 20 21  1  0
M  END
