piperidine-amides-29165-covalent
     RDKit          3D

 22 24  0  0  0  0  0  0  0  0999 V2000
    7.0710   -3.3270   19.3100 C   0  0  0  0  0  0  0  0  0  0  0  0
    6.4010   -4.1570   20.3110 C   0  0  0  0  0  0  0  0  0  0  0  0
    5.3740   -4.7650   19.9620 O   0  0  0  0  0  0  0  0  0  0  0  0
    6.9360   -4.3010   21.6190 N   0  0  0  0  0  0  0  0  0  0  0  0
    6.5560   -5.4690   22.3870 C   0  0  0  0  0  0  0  0  0  0  0  0
    6.2780   -5.1500   23.8480 C   0  0  0  0  0  0  0  0  0  0  0  0
    6.1420   -3.6520   23.9700 C   0  0  0  0  0  0  0  0  0  0  0  0
    5.4710   -3.1510   25.2110 C   0  0  0  0  0  0  0  0  0  0  0  0
    4.7580   -2.1790   25.0100 O   0  0  0  0  0  0  0  0  0  0  0  0
    5.6010   -3.7140   26.4830 N   0  0  0  0  0  0  0  0  0  0  0  0
    4.3980   -4.0920   27.0500 C   0  0  0  0  0  0  0  0  0  0  0  0
    4.5110   -2.9750   27.8320 C   0  0  0  0  0  0  0  0  0  0  0  0
    4.0150   -2.9340   29.1190 C   0  0  0  0  0  0  0  0  0  0  0  0
    3.2160   -4.0760   29.5370 N   0  0  0  0  0  0  0  0  0  0  0  0
    2.6360   -4.1340   30.8240 C   0  0  0  0  0  0  0  0  0  0  0  0
    2.8310   -3.0290   31.7730 C   0  0  0  0  0  0  0  0  0  0  0  0
    2.0560   -3.0690   33.5280 Br  0  0  0  0  0  0  0  0  0  0  0  0
    3.6880   -1.9160   31.1950 C   0  0  0  0  0  0  0  0  0  0  0  0
    4.2270   -1.8800   29.9830 N   0  0  0  0  0  0  0  0  0  0  0  0
    5.8960   -2.7760   27.5890 C   0  0  0  0  0  0  0  0  0  0  0  0
    7.4160   -2.9960   23.6310 C   0  0  0  0  0  0  0  0  0  0  0  0
    7.7420   -3.2210   22.1590 C   0  0  0  0  0  0  0  0  0  0  0  0
  1  2  1  0
  2  3  2  0
  2  4  1  0
  4  5  1  0
  5  6  1  0
  6  7  1  0
  7  8  1  0
  8  9  2  0
  8 10  1  0
 10 11  1  0
 11 12  1  0
 12 13  1  0
 13 14  2  0
 14 15  1  0
 15 16  2  0
 16 17  1  0
 16 18  1  0
 13 19  1  0
 18 19  2  0
 10 20  1  0
 12 20  1  0
  7 21  1  0
  4 22  1  0
 21 22  1  0
M  END
