piperidine-amides-4783-covalent
     RDKit          3D

 23 24  0  0  0  0  0  0  0  0999 V2000
    7.1230   -3.2810   19.1340 C   0  0  0  0  0  0  0  0  0  0  0  0
    6.3740   -4.0180   20.1740 C   0  0  0  0  0  0  0  0  0  0  0  0
    5.2630   -4.4740   19.8510 O   0  0  0  0  0  0  0  0  0  0  0  0
    6.9290   -4.2440   21.4350 N   0  0  0  0  0  0  0  0  0  0  0  0
    7.6770   -3.2110   22.0670 C   0  0  0  0  0  0  0  0  0  0  0  0
    7.1630   -2.8780   23.3830 C   0  0  0  0  0  0  0  0  0  0  0  0
    5.8960   -3.5510   23.7250 C   0  0  0  0  0  0  0  0  0  0  0  0
    5.6140   -3.2910   25.1420 C   0  0  0  0  0  0  0  0  0  0  0  0
    4.4470   -3.4120   25.5570 O   0  0  0  0  0  0  0  0  0  0  0  0
    6.6640   -2.9030   25.9780 N   0  0  0  0  0  0  0  0  0  0  0  0
    6.6810   -3.2040   27.4110 C   0  0  1  0  0  0  0  0  0  0  0  0
    7.8100   -4.1570   27.6350 C   0  0  0  0  0  0  0  0  0  0  0  0
    8.0620   -4.5910   28.7870 O   0  0  0  0  0  0  0  0  0  0  0  0
    8.6090   -4.6410   26.6250 O   0  0  0  0  0  0  0  0  0  0  0  0
    9.2760   -5.8630   26.7900 C   0  0  0  0  0  0  0  0  0  0  0  0
    6.8340   -1.8620   27.9570 C   0  0  0  0  0  0  0  0  0  0  0  0
    5.8270   -0.9630   27.6060 C   0  0  0  0  0  0  0  0  0  0  0  0
    4.9390   -0.7520   28.6290 C   0  0  0  0  0  0  0  0  0  0  0  0
    5.5190   -0.1400   29.6930 C   0  0  0  0  0  0  0  0  0  0  0  0
    6.7720   -0.5830   29.9450 C   0  0  0  0  0  0  0  0  0  0  0  0
    7.1570   -1.7420   29.2750 C   0  0  0  0  0  0  0  0  0  0  0  0
    5.7960   -5.0050   23.4230 C   0  0  0  0  0  0  0  0  0  0  0  0
    6.6380   -5.4240   22.2400 C   0  0  0  0  0  0  0  0  0  0  0  0
  1  2  1  0
  2  3  2  0
  2  4  1  0
  4  5  1  0
  5  6  1  0
  6  7  1  0
  7  8  1  0
  8  9  2  0
  8 10  1  0
 11 10  1  6
 11 12  1  0
 12 13  2  0
 12 14  1  0
 14 15  1  0
 11 16  1  0
 16 17  1  0
 17 18  1  0
 18 19  1  0
 19 20  1  0
 16 21  1  0
 20 21  1  0
  7 22  1  0
  4 23  1  0
 22 23  1  0
M  END
