piperidine-amides-19417-covalent
     RDKit          3D

 22 24  0  0  0  0  0  0  0  0999 V2000
    7.0910   -3.3520   19.4660 C   0  0  0  0  0  0  0  0  0  0  0  0
    6.4030   -4.2050   20.4120 C   0  0  0  0  0  0  0  0  0  0  0  0
    5.4220   -4.9010   19.9930 O   0  0  0  0  0  0  0  0  0  0  0  0
    6.8080   -4.3040   21.7640 N   0  0  0  0  0  0  0  0  0  0  0  0
    6.6930   -5.6530   22.3890 C   0  0  0  0  0  0  0  0  0  0  0  0
    6.1710   -5.3360   23.8530 C   0  0  0  0  0  0  0  0  0  0  0  0
    6.3070   -3.8510   24.0280 C   0  0  0  0  0  0  0  0  0  0  0  0
    5.5130   -3.2220   25.2620 C   0  0  0  0  0  0  0  0  0  0  0  0
    4.8570   -2.2730   24.8690 O   0  0  0  0  0  0  0  0  0  0  0  0
    5.7170   -3.8370   26.3610 N   0  0  0  0  0  0  0  0  0  0  0  0
    5.5980   -4.7850   27.3260 C   0  0  0  0  0  0  0  0  0  0  0  0
    5.9410   -4.7770   28.6130 C   0  0  0  0  0  0  0  0  0  0  0  0
    6.6600   -3.6170   28.5810 C   0  0  2  0  0  0  0  0  0  0  0  0
    6.1890   -2.4020   29.2730 C   0  0  0  0  0  0  0  0  0  0  0  0
    7.3050   -1.3620   29.4130 C   0  0  0  0  0  0  0  0  0  0  0  0
    6.4920   -0.4570   30.0710 C   0  0  0  0  0  0  0  0  0  0  0  0
    5.1700   -0.8770   30.2760 N   0  0  0  0  0  0  0  0  0  0  0  0
    4.0190   -0.2570   30.9050 C   0  0  0  0  0  0  0  0  0  0  0  0
    4.9820   -2.1000   29.7730 N   0  0  0  0  0  0  0  0  0  0  0  0
    6.3280   -2.8820   27.2900 C   0  0  0  0  0  0  0  0  0  0  0  0
    7.6660   -3.3770   23.6670 C   0  0  0  0  0  0  0  0  0  0  0  0
    7.6950   -3.2980   22.3030 C   0  0  0  0  0  0  0  0  0  0  0  0
  1  2  1  0
  2  3  2  0
  2  4  1  0
  4  5  1  0
  5  6  1  0
  6  7  1  0
  7  8  1  0
  8  9  2  0
  8 10  1  0
 10 11  1  0
 11 12  1  0
 12 13  1  0
 13 14  1  1
 14 15  1  0
 15 16  2  0
 16 17  1  0
 17 18  1  0
 14 19  2  0
 17 19  1  0
 10 20  1  0
 13 20  1  0
  7 21  1  0
  4 22  1  0
 21 22  1  0
M  END
