piperidine-amides-8378-covalent
     RDKit          3D

 24 26  0  0  0  0  0  0  0  0999 V2000
    7.0650   -3.3340   19.3300 C   0  0  0  0  0  0  0  0  0  0  0  0
    6.3930   -4.1800   20.3120 C   0  0  0  0  0  0  0  0  0  0  0  0
    5.3530   -4.7680   19.9620 O   0  0  0  0  0  0  0  0  0  0  0  0
    6.9490   -4.3670   21.6010 N   0  0  0  0  0  0  0  0  0  0  0  0
    7.6470   -3.2690   22.2130 C   0  0  0  0  0  0  0  0  0  0  0  0
    6.8230   -2.7330   23.3400 C   0  0  0  0  0  0  0  0  0  0  0  0
    6.5770   -3.8910   24.2760 C   0  0  0  0  0  0  0  0  0  0  0  0
    5.7800   -3.4460   25.4730 C   0  0  0  0  0  0  0  0  0  0  0  0
    4.5820   -3.2550   25.2600 O   0  0  0  0  0  0  0  0  0  0  0  0
    6.4120   -3.2930   26.7150 N   0  0  0  0  0  0  0  0  0  0  0  0
    6.4920   -2.0350   27.4110 C   0  0  0  0  0  0  0  0  0  0  0  0
    7.0900   -1.8810   28.6400 C   0  0  0  0  0  0  0  0  0  0  0  0
    7.0870   -0.6450   29.1430 C   0  0  0  0  0  0  0  0  0  0  0  0
    6.4790    0.3100   28.3630 C   0  0  0  0  0  0  0  0  0  0  0  0
    5.7430    0.5870   27.0800 C   0  0  0  0  0  0  0  0  0  0  0  0
    5.8620   -0.9480   26.6630 C   0  0  0  0  0  0  0  0  0  0  0  0
    5.1370    0.4030   25.8750 C   0  0  2  0  0  0  0  0  0  0  0  0
    5.0650    1.4900   25.2820 O   0  0  0  0  0  0  0  0  0  0  0  0
    3.8010   -0.2400   26.0410 C   0  0  0  0  0  0  0  0  0  0  0  0
    3.8350   -0.7250   27.5170 C   0  0  0  0  0  0  0  0  0  0  0  0
    5.0010   -1.3850   27.9180 C   0  0  0  0  0  0  0  0  0  0  0  0
    6.2910   -0.8460   27.6640 C   0  0  0  0  0  0  0  0  0  0  0  0
    5.8480   -5.0230   23.6240 C   0  0  0  0  0  0  0  0  0  0  0  0
    6.5810   -5.4960   22.4030 C   0  0  0  0  0  0  0  0  0  0  0  0
  1  2  1  0
  2  3  2  0
  2  4  1  0
  4  5  1  0
  5  6  1  0
  6  7  1  0
  7  8  1  0
  8  9  2  0
  8 10  1  0
 10 11  1  0
 11 12  2  0
 12 13  1  0
 13 14  2  0
 14 15  1  0
 11 16  1  0
 15 16  2  0
 15 17  1  0
 17 18  1  1
 17 19  1  0
 19 20  1  0
 20 21  1  0
 14 22  1  0
 21 22  1  0
  7 23  1  0
  4 24  1  0
 23 24  1  0
M  END
