piperidine-amides-14643-covalent
     RDKit          3D

 22 23  0  0  0  0  0  0  0  0999 V2000
    7.0550   -3.2590   19.1970 C   0  0  0  0  0  0  0  0  0  0  0  0
    6.2910   -4.0140   20.1980 C   0  0  0  0  0  0  0  0  0  0  0  0
    5.2290   -4.5510   19.8580 O   0  0  0  0  0  0  0  0  0  0  0  0
    6.7700   -4.1550   21.5150 N   0  0  0  0  0  0  0  0  0  0  0  0
    7.6090   -3.1380   22.0580 C   0  0  0  0  0  0  0  0  0  0  0  0
    7.4220   -3.1700   23.5210 C   0  0  0  0  0  0  0  0  0  0  0  0
    6.0260   -3.6280   23.7590 C   0  0  0  0  0  0  0  0  0  0  0  0
    5.6930   -3.4160   25.2020 C   0  0  0  0  0  0  0  0  0  0  0  0
    4.5570   -3.0210   25.4380 O   0  0  0  0  0  0  0  0  0  0  0  0
    6.6870   -3.6620   26.1560 N   0  0  0  0  0  0  0  0  0  0  0  0
    6.6420   -4.7810   27.0440 C   0  0  0  0  0  0  0  0  0  0  0  0
    5.3420   -5.2330   27.2800 C   0  0  0  0  0  0  0  0  0  0  0  0
    4.4530   -4.3390   27.8320 C   0  0  0  0  0  0  0  0  0  0  0  0
    4.6070   -5.7160   26.1020 C   0  0  0  0  0  0  0  0  0  0  0  0
    5.4160   -6.3730   28.2890 C   0  0  0  0  0  0  0  0  0  0  0  0
    4.0520   -7.0210   28.6280 C   0  0  0  0  0  0  0  0  0  0  0  0
    3.5250   -6.6660   29.9790 C   0  0  0  0  0  0  0  0  0  0  0  0
    4.3840   -6.5880   30.8950 O   0  0  0  0  0  0  0  0  0  0  0  0
    5.6150   -7.0780   30.4910 C   0  0  0  0  0  0  0  0  0  0  0  0
    6.2360   -6.1510   29.4180 C   0  0  0  0  0  0  0  0  0  0  0  0
    5.9440   -5.1090   23.4580 C   0  0  0  0  0  0  0  0  0  0  0  0
    6.5770   -5.3810   22.2550 C   0  0  0  0  0  0  0  0  0  0  0  0
  1  2  1  0
  2  3  2  0
  2  4  1  0
  4  5  1  0
  5  6  1  0
  6  7  1  0
  7  8  1  0
  8  9  2  0
  8 10  1  0
 10 11  1  0
 12 11  1  0
 12 13  1  0
 12 14  1  0
 12 15  1  0
 15 16  1  0
 16 17  1  0
 17 18  1  0
 18 19  1  0
 15 20  1  0
 19 20  1  0
  7 21  1  0
  4 22  1  0
 21 22  1  0
M  END
