piperidine-amides-19074-covalent
     RDKit          3D

 22 24  0  0  0  0  0  0  0  0999 V2000
    7.1180   -3.3370   19.2130 C   0  0  0  0  0  0  0  0  0  0  0  0
    6.3310   -3.9790   20.2420 C   0  0  0  0  0  0  0  0  0  0  0  0
    5.2500   -4.5390   19.8830 O   0  0  0  0  0  0  0  0  0  0  0  0
    6.7280   -4.0690   21.5920 N   0  0  0  0  0  0  0  0  0  0  0  0
    6.6810   -5.4190   22.1950 C   0  0  0  0  0  0  0  0  0  0  0  0
    5.8260   -5.1170   23.4800 C   0  0  0  0  0  0  0  0  0  0  0  0
    6.3060   -3.7690   23.9590 C   0  0  0  0  0  0  0  0  0  0  0  0
    6.0950   -3.5790   25.5180 C   0  0  0  0  0  0  0  0  0  0  0  0
    5.2050   -2.7610   25.7410 O   0  0  0  0  0  0  0  0  0  0  0  0
    6.9240   -4.3600   26.1160 N   0  0  0  0  0  0  0  0  0  0  0  0
    7.7180   -5.3070   26.5020 C   0  0  0  0  0  0  0  0  0  0  0  0
    7.9370   -5.0070   27.7320 C   0  0  0  0  0  0  0  0  0  0  0  0
    7.1050   -3.8080   27.5230 C   0  0  2  0  0  0  0  0  0  0  0  0
    5.9400   -3.5270   28.3900 C   0  0  0  0  0  0  0  0  0  0  0  0
    5.4440   -4.9790   28.2550 C   0  0  0  0  0  0  0  0  0  0  0  0
    5.8750   -5.5660   29.4510 C   0  0  0  0  0  0  0  0  0  0  0  0
    5.7580   -6.9000   30.0110 C   0  0  0  0  0  0  0  0  0  0  0  0
    4.9620   -7.5630   28.8360 C   0  0  0  0  0  0  0  0  0  0  0  0
    4.5020   -6.8800   27.5170 C   0  0  0  0  0  0  0  0  0  0  0  0
    4.7520   -5.6200   27.2650 C   0  0  0  0  0  0  0  0  0  0  0  0
    7.6820   -3.3450   23.4780 C   0  0  0  0  0  0  0  0  0  0  0  0
    7.6300   -3.0800   22.1500 C   0  0  0  0  0  0  0  0  0  0  0  0
  1  2  1  0
  2  3  2  0
  2  4  1  0
  4  5  1  0
  5  6  1  0
  6  7  1  0
  7  8  1  0
  8  9  2  0
  8 10  1  0
 10 11  1  0
 11 12  1  0
 10 13  1  0
 12 13  1  0
 13 14  1  1
 14 15  1  0
 15 16  2  0
 16 17  1  0
 17 18  2  0
 18 19  1  0
 15 20  1  0
 19 20  2  0
  7 21  1  0
  4 22  1  0
 21 22  1  0
M  END
