piperidine-amides-32328-covalent
     RDKit          3D

 29 32  0  0  0  0  0  0  0  0999 V2000
    7.1420   -3.3710   19.3240 C   0  0  0  0  0  0  0  0  0  0  0  0
    6.4840   -4.2910   20.3120 C   0  0  0  0  0  0  0  0  0  0  0  0
    5.4490   -4.8680   19.9960 O   0  0  0  0  0  0  0  0  0  0  0  0
    7.0790   -4.5470   21.5920 N   0  0  0  0  0  0  0  0  0  0  0  0
    6.7650   -5.7240   22.3320 C   0  0  0  0  0  0  0  0  0  0  0  0
    5.8030   -5.2980   23.4540 C   0  0  0  0  0  0  0  0  0  0  0  0
    6.3400   -4.1430   24.2530 C   0  0  0  0  0  0  0  0  0  0  0  0
    5.2890   -3.7180   25.2950 C   0  0  0  0  0  0  0  0  0  0  0  0
    4.1860   -3.4240   24.8130 O   0  0  0  0  0  0  0  0  0  0  0  0
    5.6030   -3.6510   26.7080 N   0  0  0  0  0  0  0  0  0  0  0  0
    5.4170   -2.4060   27.4180 C   0  0  0  0  0  0  0  0  0  0  0  0
    5.4120   -2.6600   28.7240 C   0  0  0  0  0  0  0  0  0  0  0  0
    5.4720   -3.9820   28.2300 N   0  0  0  0  0  0  0  0  0  0  0  0
    5.0040   -5.1420   28.9650 C   0  0  0  0  0  0  0  0  0  0  0  0
    3.6820   -5.4650   28.6560 C   0  0  0  0  0  0  0  0  0  0  0  0
    2.6410   -4.4240   28.4210 C   0  0  0  0  0  0  0  0  0  0  0  0
    1.1660   -4.7260   28.0850 C   0  0  0  0  0  0  0  0  0  0  0  0
    0.8150   -6.2110   28.0050 C   0  0  0  0  0  0  0  0  0  0  0  0
   -0.4350   -6.5840   27.7080 F   0  0  0  0  0  0  0  0  0  0  0  0
    1.8410   -7.1050   28.2430 C   0  0  0  0  0  0  0  0  0  0  0  0
    3.2610   -6.7660   28.5620 C   0  0  0  0  0  0  0  0  0  0  0  0
    6.8330   -4.3230   28.0290 C   0  0  0  0  0  0  0  0  0  0  0  0
    6.4500   -4.2860   29.1690 C   0  0  0  0  0  0  0  0  0  0  0  0
    5.1990   -3.7600   28.1710 C   0  0  0  0  0  0  0  0  0  0  0  0
    4.9590   -3.5120   26.5990 C   0  0  0  0  0  0  0  0  0  0  0  0
    6.0800   -3.8090   25.5810 C   0  0  0  0  0  0  0  0  0  0  0  0
    6.8520   -4.2020   26.6040 C   0  0  0  0  0  0  0  0  0  0  0  0
    6.8770   -2.9990   23.3670 C   0  0  0  0  0  0  0  0  0  0  0  0
    7.7090   -3.4860   22.3780 C   0  0  0  0  0  0  0  0  0  0  0  0
  1  2  1  0
  2  3  2  0
  2  4  1  0
  4  5  1  0
  5  6  1  0
  6  7  1  0
  7  8  1  0
  8  9  2  0
  8 10  1  0
 10 11  1  0
 11 12  1  0
 12 13  1  0
 13 14  1  0
 14 15  1  0
 15 16  2  0
 16 17  1  0
 17 18  2  0
 18 19  1  0
 18 20  1  0
 15 21  1  0
 20 21  2  0
 13 22  1  0
 22 23  2  0
 23 24  1  0
 24 25  2  0
 25 26  1  0
 10 27  1  0
 22 27  1  0
 26 27  2  0
  7 28  1  0
  4 29  1  0
 28 29  1  0
M  END
