piperidine-amides-14472-covalent
     RDKit          3D

 23 25  0  0  0  0  0  0  0  0999 V2000
    7.0940   -3.2950   19.2510 C   0  0  0  0  0  0  0  0  0  0  0  0
    6.3980   -4.0980   20.2550 C   0  0  0  0  0  0  0  0  0  0  0  0
    5.3330   -4.6500   19.9260 O   0  0  0  0  0  0  0  0  0  0  0  0
    6.9640   -4.2790   21.5440 N   0  0  0  0  0  0  0  0  0  0  0  0
    7.6070   -3.1580   22.1630 C   0  0  0  0  0  0  0  0  0  0  0  0
    6.7290   -2.6570   23.2690 C   0  0  0  0  0  0  0  0  0  0  0  0
    6.5540   -3.8020   24.2350 C   0  0  0  0  0  0  0  0  0  0  0  0
    5.8090   -3.3320   25.4530 C   0  0  0  0  0  0  0  0  0  0  0  0
    4.5820   -3.3210   25.3640 O   0  0  0  0  0  0  0  0  0  0  0  0
    6.5360   -2.9320   26.5720 N   0  0  0  0  0  0  0  0  0  0  0  0
    6.3700   -3.4950   27.8780 C   0  0  0  0  0  0  0  0  0  0  0  0
    5.1950   -4.2240   28.0860 C   0  0  0  0  0  0  0  0  0  0  0  0
    3.5130   -3.8160   27.9040 S   0  0  0  0  0  0  0  0  0  0  0  0
    2.8780   -5.3690   28.4030 C   0  0  0  0  0  0  0  0  0  0  0  0
    1.5200   -5.6870   28.4720 C   0  0  0  0  0  0  0  0  0  0  0  0
    1.2110   -7.1010   28.9330 C   0  0  0  0  0  0  0  0  0  0  0  0
    2.3530   -8.0890   29.2930 C   0  0  0  0  0  0  0  0  0  0  0  0
    3.7390   -7.6260   29.1760 C   0  0  0  0  0  0  0  0  0  0  0  0
    3.8530   -6.2310   28.7160 C   0  0  0  0  0  0  0  0  0  0  0  0
    5.1920   -5.5510   28.5270 C   0  0  0  0  0  0  0  0  0  0  0  0
    6.5080   -5.9360   28.6920 C   0  0  0  0  0  0  0  0  0  0  0  0
    5.7410   -4.8580   23.5440 C   0  0  0  0  0  0  0  0  0  0  0  0
    6.4340   -5.3740   22.3110 C   0  0  0  0  0  0  0  0  0  0  0  0
  1  2  1  0
  2  3  2  0
  2  4  1  0
  4  5  1  0
  5  6  1  0
  6  7  1  0
  7  8  1  0
  8  9  2  0
  8 10  1  0
 10 11  1  0
 11 12  1  0
 12 13  1  0
 13 14  1  0
 14 15  2  0
 15 16  1  0
 16 17  2  0
 17 18  1  0
 14 19  1  0
 18 19  2  0
 12 20  2  0
 19 20  1  0
 20 21  1  0
  7 22  1  0
  4 23  1  0
 22 23  1  0
M  END
