piperidine-amides-13557-covalent
     RDKit          3D

 22 24  0  0  0  0  0  0  0  0999 V2000
    7.0590   -3.3290   19.3040 C   0  0  0  0  0  0  0  0  0  0  0  0
    6.3670   -4.1770   20.3070 C   0  0  0  0  0  0  0  0  0  0  0  0
    5.3520   -4.8120   19.9670 O   0  0  0  0  0  0  0  0  0  0  0  0
    6.9050   -4.2840   21.6050 N   0  0  0  0  0  0  0  0  0  0  0  0
    7.7100   -3.2450   22.2170 C   0  0  0  0  0  0  0  0  0  0  0  0
    6.8630   -2.6390   23.3300 C   0  0  0  0  0  0  0  0  0  0  0  0
    6.5240   -3.7570   24.2450 C   0  0  0  0  0  0  0  0  0  0  0  0
    5.7510   -3.3150   25.4320 C   0  0  0  0  0  0  0  0  0  0  0  0
    4.5180   -3.3830   25.3350 O   0  0  0  0  0  0  0  0  0  0  0  0
    6.3990   -2.8330   26.5800 N   0  0  0  0  0  0  0  0  0  0  0  0
    6.5660   -1.4690   26.9510 C   0  0  1  0  0  0  0  0  0  0  0  0
    5.6300   -0.5290   26.5290 C   0  0  0  0  0  0  0  0  0  0  0  0
    5.4730    0.7390   27.1250 C   0  0  0  0  0  0  0  0  0  0  0  0
    6.0220    0.9640   28.3550 C   0  0  0  0  0  0  0  0  0  0  0  0
    5.8860    2.1150   29.0430 N   0  0  0  0  0  0  0  0  0  0  0  0
    6.6080    1.7600   30.1050 N   0  0  0  0  0  0  0  0  0  0  0  0
    7.1600    0.4380   30.0540 C   0  0  0  0  0  0  0  0  0  0  0  0
    8.0270   -0.2970   31.0550 C   0  0  0  0  0  0  0  0  0  0  0  0
    6.7320   -0.0460   28.8690 C   0  0  0  0  0  0  0  0  0  0  0  0
    6.9460   -1.2600   28.2820 C   0  0  0  0  0  0  0  0  0  0  0  0
    5.8040   -4.8900   23.5880 C   0  0  0  0  0  0  0  0  0  0  0  0
    6.5720   -5.4400   22.4000 C   0  0  0  0  0  0  0  0  0  0  0  0
  1  2  1  0
  2  3  2  0
  2  4  1  0
  4  5  1  0
  5  6  1  0
  6  7  1  0
  7  8  1  0
  8  9  2  0
  8 10  1  0
 11 10  1  1
 11 12  1  0
 12 13  1  0
 13 14  1  0
 14 15  2  0
 15 16  1  0
 16 17  1  0
 17 18  1  0
 14 19  1  0
 17 19  2  0
 11 20  1  0
 19 20  1  0
  7 21  1  0
  4 22  1  0
 21 22  1  0
M  END
