piperidine-amides-13624-covalent
     RDKit          3D

 29 32  0  0  0  0  0  0  0  0999 V2000
    7.0550   -3.2770   19.2940 C   0  0  0  0  0  0  0  0  0  0  0  0
    6.3070   -4.0890   20.2990 C   0  0  0  0  0  0  0  0  0  0  0  0
    5.2780   -4.6750   19.9260 O   0  0  0  0  0  0  0  0  0  0  0  0
    6.7890   -4.2180   21.6280 N   0  0  0  0  0  0  0  0  0  0  0  0
    6.6380   -5.4600   22.3570 C   0  0  0  0  0  0  0  0  0  0  0  0
    6.2300   -5.1350   23.8040 C   0  0  0  0  0  0  0  0  0  0  0  0
    6.2170   -3.6550   23.9640 C   0  0  0  0  0  0  0  0  0  0  0  0
    5.6800   -3.1990   25.2730 C   0  0  0  0  0  0  0  0  0  0  0  0
    4.4740   -2.9300   25.2840 O   0  0  0  0  0  0  0  0  0  0  0  0
    6.4890   -3.0900   26.4150 N   0  0  0  0  0  0  0  0  0  0  0  0
    6.1960   -3.5920   27.7190 C   0  0  2  0  0  0  0  0  0  0  0  0
    5.2650   -4.5910   27.8130 C   0  0  0  0  0  0  0  0  0  0  0  0
    5.2470   -5.4750   28.9010 C   0  0  0  0  0  0  0  0  0  0  0  0
    6.0490   -6.5910   28.8940 C   0  0  0  0  0  0  0  0  0  0  0  0
    6.0400   -7.5510   30.0310 C   0  0  0  0  0  0  0  0  0  0  0  0
    5.1540   -7.3500   31.2570 C   0  0  0  0  0  0  0  0  0  0  0  0
    4.3520   -6.0680   31.0730 C   0  0  0  0  0  0  0  0  0  0  0  0
    4.4250   -5.2380   29.9740 C   0  0  0  0  0  0  0  0  0  0  0  0
    6.0350   -2.5610   28.7450 C   0  0  0  0  0  0  0  0  0  0  0  0
    4.7730   -2.7390   29.3380 N   0  0  0  0  0  0  0  0  0  0  0  0
    4.4730   -1.8190   30.3630 C   0  0  0  0  0  0  0  0  0  0  0  0
    3.1920   -2.0540   30.9230 C   0  0  0  0  0  0  0  0  0  0  0  0
    3.1390   -0.9240   31.9960 C   0  0  0  0  0  0  0  0  0  0  0  0
    4.1140    0.1380   32.3830 C   0  0  0  0  0  0  0  0  0  0  0  0
    5.3910    0.1630   31.6320 C   0  0  0  0  0  0  0  0  0  0  0  0
    5.5370   -0.8650   30.5960 C   0  0  0  0  0  0  0  0  0  0  0  0
    6.7950   -1.2530   29.4780 S   0  0  0  0  0  0  0  0  0  0  0  0
    7.5550   -3.0650   23.5790 C   0  0  0  0  0  0  0  0  0  0  0  0
    7.6160   -3.1640   22.2150 C   0  0  0  0  0  0  0  0  0  0  0  0
  1  2  1  0
  2  3  2  0
  2  4  1  0
  4  5  1  0
  5  6  1  0
  6  7  1  0
  7  8  1  0
  8  9  2  0
  8 10  1  0
 10 11  1  0
 11 12  1  6
 12 13  1  0
 13 14  2  0
 14 15  1  0
 15 16  2  0
 16 17  1  0
 13 18  1  0
 17 18  2  0
 11 19  1  0
 19 20  2  0
 20 21  1  0
 21 22  2  0
 22 23  1  0
 23 24  2  0
 24 25  1  0
 21 26  1  0
 25 26  2  0
 19 27  1  0
 26 27  1  0
  7 28  1  0
  4 29  1  0
 28 29  1  0
M  END
