piperidine-amides-2577-covalent
     RDKit          3D

 25 27  0  0  0  0  0  0  0  0999 V2000
    7.0700   -3.2830   19.2450 C   0  0  0  0  0  0  0  0  0  0  0  0
    6.3350   -4.0730   20.2680 C   0  0  0  0  0  0  0  0  0  0  0  0
    5.2910   -4.6110   19.9070 O   0  0  0  0  0  0  0  0  0  0  0  0
    6.8550   -4.2240   21.5560 N   0  0  0  0  0  0  0  0  0  0  0  0
    7.6300   -3.1730   22.1720 C   0  0  0  0  0  0  0  0  0  0  0  0
    7.3360   -3.1170   23.6470 C   0  0  0  0  0  0  0  0  0  0  0  0
    5.9830   -3.7800   23.9230 C   0  0  0  0  0  0  0  0  0  0  0  0
    5.5740   -3.5830   25.3290 C   0  0  0  0  0  0  0  0  0  0  0  0
    4.4180   -3.8620   25.6680 O   0  0  0  0  0  0  0  0  0  0  0  0
    6.4500   -3.0790   26.2930 N   0  0  0  0  0  0  0  0  0  0  0  0
    6.5600   -1.6540   26.3870 C   0  0  0  0  0  0  0  0  0  0  0  0
    5.2370   -1.0640   25.9450 C   0  0  0  0  0  0  0  0  0  0  0  0
    4.0150   -1.2590   26.5860 C   0  0  0  0  0  0  0  0  0  0  0  0
    2.8440   -0.6890   26.1270 C   0  0  0  0  0  0  0  0  0  0  0  0
    2.8410    0.1040   25.0090 C   0  0  0  0  0  0  0  0  0  0  0  0
    1.6890    0.8260   24.3370 C   0  0  0  0  0  0  0  0  0  0  0  0
    0.6420   -0.0260   24.9800 C   0  0  0  0  0  0  0  0  0  0  0  0
   -0.5980    0.4430   24.2690 C   0  0  0  0  0  0  0  0  0  0  0  0
   -0.9190    1.6550   25.0850 C   0  0  0  0  0  0  0  0  0  0  0  0
    0.3200    2.3050   25.6150 C   0  0  0  0  0  0  0  0  0  0  0  0
    1.5560    2.2750   24.7290 C   0  0  0  0  0  0  0  0  0  0  0  0
    3.9940    0.3460   24.3180 C   0  0  0  0  0  0  0  0  0  0  0  0
    5.2480   -0.2700   24.8140 C   0  0  0  0  0  0  0  0  0  0  0  0
    6.1040   -5.2500   23.6250 C   0  0  0  0  0  0  0  0  0  0  0  0
    6.5890   -5.4670   22.2180 C   0  0  0  0  0  0  0  0  0  0  0  0
  1  2  1  0
  2  3  2  0
  2  4  1  0
  4  5  1  0
  5  6  1  0
  6  7  1  0
  7  8  1  0
  8  9  2  0
  8 10  1  0
 10 11  1  0
 11 12  1  0
 12 13  2  0
 13 14  1  0
 14 15  2  0
 15 16  1  0
 16 17  1  0
 17 18  1  0
 18 19  1  0
 19 20  1  0
 16 21  1  0
 20 21  1  0
 15 22  1  0
 12 23  1  0
 22 23  2  0
  7 24  1  0
  4 25  1  0
 24 25  1  0
M  END
