piperidine-amides-26894-covalent
     RDKit          3D

 21 23  0  0  0  0  0  0  0  0999 V2000
    7.0410   -3.3590   19.3750 C   0  0  0  0  0  0  0  0  0  0  0  0
    6.4090   -4.2220   20.3810 C   0  0  0  0  0  0  0  0  0  0  0  0
    5.3950   -4.8640   19.9880 O   0  0  0  0  0  0  0  0  0  0  0  0
    6.9330   -4.3560   21.6770 N   0  0  0  0  0  0  0  0  0  0  0  0
    6.5530   -5.4270   22.5570 C   0  0  0  0  0  0  0  0  0  0  0  0
    5.8150   -4.8340   23.7370 C   0  0  0  0  0  0  0  0  0  0  0  0
    6.5440   -3.6840   24.4220 C   0  0  0  0  0  0  0  0  0  0  0  0
    5.6010   -3.0020   25.3790 C   0  0  0  0  0  0  0  0  0  0  0  0
    4.5140   -2.6000   24.9250 O   0  0  0  0  0  0  0  0  0  0  0  0
    5.8620   -2.8150   26.7660 N   0  0  0  0  0  0  0  0  0  0  0  0
    4.7880   -2.4760   27.6740 C   0  0  0  0  0  0  0  0  0  0  0  0
    4.9740   -3.5520   28.7390 C   0  0  0  0  0  0  0  0  0  0  0  0
    6.0200   -4.3490   28.4450 C   0  0  0  0  0  0  0  0  0  0  0  0
    6.6370   -5.4700   29.0120 C   0  0  0  0  0  0  0  0  0  0  0  0
    7.7690   -6.0440   28.3570 C   0  0  0  0  0  0  0  0  0  0  0  0
    8.2810   -5.5280   27.1990 C   0  0  0  0  0  0  0  0  0  0  0  0
    9.6920   -6.0100   26.1370 Br  0  0  0  0  0  0  0  0  0  0  0  0
    7.6340   -4.5420   26.8080 C   0  0  0  0  0  0  0  0  0  0  0  0
    6.5400   -3.8820   27.2920 C   0  0  0  0  0  0  0  0  0  0  0  0
    7.0220   -2.6600   23.4390 C   0  0  0  0  0  0  0  0  0  0  0  0
    7.6960   -3.2240   22.2090 C   0  0  0  0  0  0  0  0  0  0  0  0
  1  2  1  0
  2  3  2  0
  2  4  1  0
  4  5  1  0
  5  6  1  0
  6  7  1  0
  7  8  1  0
  8  9  2  0
  8 10  1  0
 10 11  1  0
 11 12  1  0
 12 13  1  0
 13 14  1  0
 14 15  2  0
 15 16  1  0
 16 17  1  0
 16 18  2  0
 10 19  1  0
 13 19  2  0
 18 19  1  0
  7 20  1  0
  4 21  1  0
 20 21  1  0
M  END
