piperidine-amides-1410-covalent
     RDKit          3D

 22 24  0  0  0  0  0  0  0  0999 V2000
    7.0840   -3.2770   19.2850 C   0  0  0  0  0  0  0  0  0  0  0  0
    6.3420   -4.0880   20.2910 C   0  0  0  0  0  0  0  0  0  0  0  0
    5.3160   -4.6890   19.9340 O   0  0  0  0  0  0  0  0  0  0  0  0
    6.8360   -4.2020   21.6130 N   0  0  0  0  0  0  0  0  0  0  0  0
    6.6860   -5.4360   22.3500 C   0  0  0  0  0  0  0  0  0  0  0  0
    6.0090   -5.1030   23.6860 C   0  0  0  0  0  0  0  0  0  0  0  0
    6.0880   -3.6280   23.8410 C   0  0  0  0  0  0  0  0  0  0  0  0
    5.6220   -3.1390   25.1590 C   0  0  0  0  0  0  0  0  0  0  0  0
    4.7600   -2.2570   25.1370 O   0  0  0  0  0  0  0  0  0  0  0  0
    6.1250   -3.6710   26.3440 N   0  0  0  0  0  0  0  0  0  0  0  0
    5.4590   -4.5980   27.1810 C   0  0  0  0  0  0  0  0  0  0  0  0
    6.0810   -5.4530   28.0500 C   0  0  1  0  0  0  0  0  0  0  0  0
    6.6190   -5.0290   29.0720 C   0  0  0  0  0  0  0  0  0  0  0  0
    5.5300   -5.8520   29.4820 C   0  0  2  0  0  0  0  0  0  0  0  0
    5.7680   -7.2990   29.7070 C   0  0  0  0  0  0  0  0  0  0  0  0
    4.2210   -5.6440   29.0790 C   0  0  0  0  0  0  0  0  0  0  0  0
    3.3700   -4.4860   29.5380 C   0  0  0  0  0  0  0  0  0  0  0  0
    2.1110   -4.4390   29.0500 C   0  0  0  0  0  0  0  0  0  0  0  0
    1.6840   -5.5060   28.1250 C   0  0  0  0  0  0  0  0  0  0  0  0
    3.0880   -6.5170   28.0000 S   0  0  0  0  0  0  0  0  0  0  0  0
    7.4290   -3.0530   23.5310 C   0  0  0  0  0  0  0  0  0  0  0  0
    7.6710   -3.1660   22.1860 C   0  0  0  0  0  0  0  0  0  0  0  0
  1  2  1  0
  2  3  2  0
  2  4  1  0
  4  5  1  0
  5  6  1  0
  6  7  1  0
  7  8  1  0
  8  9  2  0
  8 10  1  0
 10 11  1  0
 12 11  1  6
 12 13  1  0
 12 14  1  0
 13 14  1  0
 14 15  1  1
 14 16  1  0
 16 17  2  0
 17 18  1  0
 18 19  2  0
 16 20  1  0
 19 20  1  0
  7 21  1  0
  4 22  1  0
 21 22  1  0
M  END
