piperidine-amides-14997-covalent
     RDKit          3D

 21 23  0  0  0  0  0  0  0  0999 V2000
    7.0330   -3.2950   19.2660 C   0  0  0  0  0  0  0  0  0  0  0  0
    6.3220   -4.0730   20.2880 C   0  0  0  0  0  0  0  0  0  0  0  0
    5.3280   -4.7270   19.9380 O   0  0  0  0  0  0  0  0  0  0  0  0
    6.7750   -4.1050   21.6330 N   0  0  0  0  0  0  0  0  0  0  0  0
    7.7020   -3.1100   22.0840 C   0  0  0  0  0  0  0  0  0  0  0  0
    7.5530   -3.0030   23.5580 C   0  0  0  0  0  0  0  0  0  0  0  0
    6.1470   -3.4790   23.8180 C   0  0  0  0  0  0  0  0  0  0  0  0
    5.7670   -3.1880   25.2380 C   0  0  0  0  0  0  0  0  0  0  0  0
    4.6440   -3.5380   25.5950 O   0  0  0  0  0  0  0  0  0  0  0  0
    6.7130   -2.5430   26.0220 N   0  0  0  0  0  0  0  0  0  0  0  0
    6.3720   -1.7190   27.1360 C   0  0  0  0  0  0  0  0  0  0  0  0
    5.5590   -0.6130   26.8350 C   0  0  2  0  0  0  0  0  0  0  0  0
    5.7310    0.1410   25.6320 C   0  0  0  0  0  0  0  0  0  0  0  0
    5.9830    1.1940   26.4410 C   0  0  0  0  0  0  0  0  0  0  0  0
    6.3150    2.5950   26.2460 C   0  0  0  0  0  0  0  0  0  0  0  0
    6.5140    3.4150   27.5570 C   0  0  0  0  0  0  0  0  0  0  0  0
    6.3510    2.7180   28.9210 C   0  0  0  0  0  0  0  0  0  0  0  0
    5.9950    1.2190   28.9200 C   0  0  0  0  0  0  0  0  0  0  0  0
    5.8380    0.5670   27.5510 C   0  0  0  0  0  0  0  0  0  0  0  0
    6.0510   -4.9780   23.6180 C   0  0  0  0  0  0  0  0  0  0  0  0
    6.6480   -5.3210   22.4070 C   0  0  0  0  0  0  0  0  0  0  0  0
  1  2  1  0
  2  3  2  0
  2  4  1  0
  4  5  1  0
  5  6  1  0
  6  7  1  0
  7  8  1  0
  8  9  2  0
  8 10  1  0
 10 11  1  0
 12 11  1  6
 12 13  1  0
 13 14  1  0
 14 15  2  0
 15 16  1  0
 16 17  2  0
 17 18  1  0
 12 19  1  0
 14 19  1  0
 18 19  2  0
  7 20  1  0
  4 21  1  0
 20 21  1  0
M  END
