piperidine-amides-14564-covalent
     RDKit          3D

 23 25  0  0  0  0  0  0  0  0999 V2000
    7.1010   -3.3430   19.2960 C   0  0  0  0  0  0  0  0  0  0  0  0
    6.4430   -4.1950   20.2800 C   0  0  0  0  0  0  0  0  0  0  0  0
    5.3790   -4.7540   19.9590 O   0  0  0  0  0  0  0  0  0  0  0  0
    7.0570   -4.4180   21.5360 N   0  0  0  0  0  0  0  0  0  0  0  0
    7.7310   -3.3190   22.1510 C   0  0  0  0  0  0  0  0  0  0  0  0
    6.8630   -2.8000   23.2440 C   0  0  0  0  0  0  0  0  0  0  0  0
    6.6380   -3.9490   24.1980 C   0  0  0  0  0  0  0  0  0  0  0  0
    5.8620   -3.4210   25.3450 C   0  0  0  0  0  0  0  0  0  0  0  0
    4.6500   -3.6400   25.3330 O   0  0  0  0  0  0  0  0  0  0  0  0
    6.5400   -2.7110   26.3150 N   0  0  0  0  0  0  0  0  0  0  0  0
    5.8360   -1.7250   27.0300 C   0  0  0  0  0  0  0  0  0  0  0  0
    4.7330   -2.1820   27.7600 C   0  0  0  0  0  0  0  0  0  0  0  0
    3.4850   -1.5670   27.6470 C   0  0  0  0  0  0  0  0  0  0  0  0
    2.3060   -1.9280   28.3200 C   0  0  0  0  0  0  0  0  0  0  0  0
    2.4670   -3.0970   29.2370 C   0  0  0  0  0  0  0  0  0  0  0  0
    3.8220   -3.7770   29.3710 C   0  0  0  0  0  0  0  0  0  0  0  0
    4.9550   -3.2690   28.5920 C   0  0  0  0  0  0  0  0  0  0  0  0
    6.1080   -3.7920   28.6660 O   0  0  0  0  0  0  0  0  0  0  0  0
    6.1130   -5.1870   28.7550 C   0  0  0  0  0  0  0  0  0  0  0  0
    6.8140   -0.7500   27.6830 C   0  0  0  0  0  0  0  0  0  0  0  0
    6.3910   -1.5140   28.4880 C   0  0  0  0  0  0  0  0  0  0  0  0
    5.8080   -4.9970   23.5150 C   0  0  0  0  0  0  0  0  0  0  0  0
    6.5320   -5.5110   22.3040 C   0  0  0  0  0  0  0  0  0  0  0  0
  1  2  1  0
  2  3  2  0
  2  4  1  0
  4  5  1  0
  5  6  1  0
  6  7  1  0
  7  8  1  0
  8  9  2  0
  8 10  1  0
 11 10  1  0
 11 12  1  0
 12 13  2  0
 13 14  1  0
 14 15  2  0
 15 16  1  0
 12 17  1  0
 16 17  2  0
 17 18  1  0
 18 19  1  0
 11 20  1  0
 11 21  1  0
 20 21  1  0
  7 22  1  0
  4 23  1  0
 22 23  1  0
M  END
