piperidine-amides-2176-covalent
     RDKit          3D

 29 31  0  0  0  0  0  0  0  0999 V2000
    7.0320   -3.2760   19.2880 C   0  0  0  0  0  0  0  0  0  0  0  0
    6.3310   -4.1570   20.2530 C   0  0  0  0  0  0  0  0  0  0  0  0
    5.2540   -4.6200   19.8960 O   0  0  0  0  0  0  0  0  0  0  0  0
    6.9120   -4.4840   21.4770 N   0  0  0  0  0  0  0  0  0  0  0  0
    6.5480   -5.6960   22.1330 C   0  0  0  0  0  0  0  0  0  0  0  0
    5.5800   -5.3600   23.2250 C   0  0  0  0  0  0  0  0  0  0  0  0
    6.1320   -4.2440   24.1180 C   0  0  0  0  0  0  0  0  0  0  0  0
    5.0450   -3.9500   25.0830 C   0  0  0  0  0  0  0  0  0  0  0  0
    4.2580   -3.0230   24.8510 O   0  0  0  0  0  0  0  0  0  0  0  0
    4.8960   -4.7000   26.2790 N   0  0  0  0  0  0  0  0  0  0  0  0
    5.8080   -4.2770   27.2730 C   0  0  1  0  0  0  0  0  0  0  0  0
    6.6560   -5.4760   27.6940 C   0  0  0  0  0  0  0  0  0  0  0  0
    6.5660   -3.3260   26.4760 C   0  0  0  0  0  0  0  0  0  0  0  0
    7.7320   -3.9830   26.5180 C   0  0  0  0  0  0  0  0  0  0  0  0
    8.7480   -3.4230   25.8650 C   0  0  0  0  0  0  0  0  0  0  0  0
    8.5790   -2.1250   25.1280 C   0  0  0  0  0  0  0  0  0  0  0  0
    9.9670   -2.0850   24.7340 C   0  0  0  0  0  0  0  0  0  0  0  0
   10.3270   -3.1910   25.6460 C   0  0  0  0  0  0  0  0  0  0  0  0
   11.7230   -3.4770   25.6320 C   0  0  0  0  0  0  0  0  0  0  0  0
   12.6760   -2.7430   24.8090 C   0  0  0  0  0  0  0  0  0  0  0  0
   13.9070   -3.2070   25.0690 N   0  0  0  0  0  0  0  0  0  0  0  0
   14.5440   -2.4750   26.0070 C   0  0  0  0  0  0  0  0  0  0  0  0
   13.6530   -4.2190   26.0460 C   0  0  0  0  0  0  0  0  0  0  0  0
   12.1050   -1.6500   23.9040 C   0  0  0  0  0  0  0  0  0  0  0  0
   10.7600   -1.3570   23.8970 C   0  0  0  0  0  0  0  0  0  0  0  0
    7.3780   -1.4540   25.0730 C   0  0  0  0  0  0  0  0  0  0  0  0
    6.2570   -2.1330   25.8390 C   0  0  0  0  0  0  0  0  0  0  0  0
    6.5170   -3.0530   23.2270 C   0  0  0  0  0  0  0  0  0  0  0  0
    7.4580   -3.4810   22.3450 C   0  0  0  0  0  0  0  0  0  0  0  0
  1  2  1  0
  2  3  2  0
  2  4  1  0
  4  5  1  0
  5  6  1  0
  6  7  1  0
  7  8  1  0
  8  9  2  0
  8 10  1  0
 10 11  1  0
 11 12  1  6
 11 13  1  0
 13 14  2  0
 14 15  1  0
 15 16  2  0
 16 17  1  0
 17 18  2  0
 18 19  1  0
 19 20  2  0
 20 21  1  0
 21 22  1  0
 21 23  1  0
 20 24  1  0
 17 25  1  0
 24 25  2  0
 16 26  1  0
 13 27  1  0
 26 27  2  0
  7 28  1  0
  4 29  1  0
 28 29  1  0
M  END
