piperidine-amides-19671-covalent
     RDKit          3D

 22 24  0  0  0  0  0  0  0  0999 V2000
    7.0540   -3.3590   19.3980 C   0  0  0  0  0  0  0  0  0  0  0  0
    6.4100   -4.2620   20.3860 C   0  0  0  0  0  0  0  0  0  0  0  0
    5.4140   -4.8770   19.9960 O   0  0  0  0  0  0  0  0  0  0  0  0
    6.9550   -4.4370   21.6730 N   0  0  0  0  0  0  0  0  0  0  0  0
    6.6490   -5.6080   22.4620 C   0  0  0  0  0  0  0  0  0  0  0  0
    6.0370   -5.2080   23.7910 C   0  0  0  0  0  0  0  0  0  0  0  0
    5.9130   -3.6870   23.8370 C   0  0  0  0  0  0  0  0  0  0  0  0
    5.2310   -3.2160   25.0720 C   0  0  0  0  0  0  0  0  0  0  0  0
    4.4710   -2.2550   24.9810 O   0  0  0  0  0  0  0  0  0  0  0  0
    5.3820   -3.7930   26.3360 N   0  0  0  0  0  0  0  0  0  0  0  0
    6.5070   -3.3830   27.0320 C   0  0  0  0  0  0  0  0  0  0  0  0
    6.6840   -4.5040   28.0310 C   0  0  0  0  0  0  0  0  0  0  0  0
    5.8490   -4.5520   29.0170 C   0  0  0  0  0  0  0  0  0  0  0  0
    5.4770   -5.7610   29.4890 C   0  0  0  0  0  0  0  0  0  0  0  0
    4.6650   -6.7420   28.8690 N   0  0  0  0  0  0  0  0  0  0  0  0
    4.5980   -7.7820   29.8150 C   0  0  0  0  0  0  0  0  0  0  0  0
    5.3100   -7.4470   30.9080 N   0  0  0  0  0  0  0  0  0  0  0  0
    5.8470   -6.2570   30.7480 O   0  0  0  0  0  0  0  0  0  0  0  0
    4.6090   -3.8510   28.6100 C   0  0  0  0  0  0  0  0  0  0  0  0
    4.2460   -3.9410   27.1540 C   0  0  0  0  0  0  0  0  0  0  0  0
    7.1850   -2.9900   23.6030 C   0  0  0  0  0  0  0  0  0  0  0  0
    7.6880   -3.3310   22.2500 C   0  0  0  0  0  0  0  0  0  0  0  0
  1  2  1  0
  2  3  2  0
  2  4  1  0
  4  5  1  0
  5  6  1  0
  6  7  1  0
  7  8  1  0
  8  9  2  0
  8 10  1  0
 10 11  1  0
 11 12  1  0
 12 13  1  0
 13 14  1  0
 14 15  2  0
 15 16  1  0
 16 17  2  0
 14 18  1  0
 17 18  1  0
 13 19  1  0
 10 20  1  0
 19 20  1  0
  7 21  1  0
  4 22  1  0
 21 22  1  0
M  END
