piperidine-amides-8999-covalent
     RDKit          3D

 22 24  0  0  0  0  0  0  0  0999 V2000
    7.0400   -3.3380   19.3010 C   0  0  0  0  0  0  0  0  0  0  0  0
    6.3600   -4.1460   20.3190 C   0  0  0  0  0  0  0  0  0  0  0  0
    5.3860   -4.8390   19.9800 O   0  0  0  0  0  0  0  0  0  0  0  0
    6.8110   -4.1800   21.6510 N   0  0  0  0  0  0  0  0  0  0  0  0
    7.7490   -3.1850   22.1420 C   0  0  0  0  0  0  0  0  0  0  0  0
    7.4520   -3.0190   23.6010 C   0  0  0  0  0  0  0  0  0  0  0  0
    6.1150   -3.5930   23.9370 C   0  0  0  0  0  0  0  0  0  0  0  0
    5.6610   -3.2940   25.3200 C   0  0  0  0  0  0  0  0  0  0  0  0
    4.4250   -3.3280   25.6160 O   0  0  0  0  0  0  0  0  0  0  0  0
    6.5570   -2.9630   26.3560 N   0  0  0  0  0  0  0  0  0  0  0  0
    6.4950   -1.6710   27.0840 C   0  0  0  0  0  0  0  0  0  0  0  0
    7.0570   -1.6550   28.4700 C   0  0  0  0  0  0  0  0  0  0  0  0
    7.0680   -0.4420   29.3360 C   0  0  0  0  0  0  0  0  0  0  0  0
    6.4950    0.8600   28.8310 C   0  0  0  0  0  0  0  0  0  0  0  0
    6.4520    2.1550   29.6120 C   0  0  0  0  0  0  0  0  0  0  0  0
    5.9620    0.7210   27.4240 C   0  0  0  0  0  0  0  0  0  0  0  0
    5.3550    1.5330   26.4900 C   0  0  0  0  0  0  0  0  0  0  0  0
    4.9770    1.0000   25.1880 N   0  0  0  0  0  0  0  0  0  0  0  0
    5.3540   -0.2450   25.2560 N   0  0  0  0  0  0  0  0  0  0  0  0
    5.8990   -0.4370   26.4680 C   0  0  0  0  0  0  0  0  0  0  0  0
    6.0390   -5.1100   23.7190 C   0  0  0  0  0  0  0  0  0  0  0  0
    6.6850   -5.4360   22.3620 C   0  0  0  0  0  0  0  0  0  0  0  0
  1  2  1  0
  2  3  2  0
  2  4  1  0
  4  5  1  0
  5  6  1  0
  6  7  1  0
  7  8  1  0
  8  9  2  0
  8 10  1  0
 10 11  1  0
 11 12  2  0
 12 13  1  0
 13 14  2  0
 14 15  1  0
 14 16  1  0
 16 17  1  0
 17 18  2  0
 18 19  1  0
 11 20  1  0
 16 20  2  0
 19 20  1  0
  7 21  1  0
  4 22  1  0
 21 22  1  0
M  END
