piperidine-amides-31116-covalent
     RDKit          3D

 23 25  0  0  0  0  0  0  0  0999 V2000
    7.0970   -3.3340   19.3110 C   0  0  0  0  0  0  0  0  0  0  0  0
    6.3830   -4.1590   20.2850 C   0  0  0  0  0  0  0  0  0  0  0  0
    5.3340   -4.7270   19.9450 O   0  0  0  0  0  0  0  0  0  0  0  0
    6.8880   -4.3780   21.5740 N   0  0  0  0  0  0  0  0  0  0  0  0
    6.6320   -5.5940   22.3060 C   0  0  0  0  0  0  0  0  0  0  0  0
    5.8040   -5.1730   23.4850 C   0  0  0  0  0  0  0  0  0  0  0  0
    6.4450   -4.0430   24.2380 C   0  0  0  0  0  0  0  0  0  0  0  0
    5.5650   -3.5340   25.3130 C   0  0  0  0  0  0  0  0  0  0  0  0
    4.5890   -2.7840   25.0290 O   0  0  0  0  0  0  0  0  0  0  0  0
    5.7410   -3.8280   26.6820 N   0  0  0  0  0  0  0  0  0  0  0  0
    4.8290   -4.7770   27.3650 C   0  0  0  0  0  0  0  0  0  0  0  0
    4.7510   -4.4880   28.8180 C   0  0  0  0  0  0  0  0  0  0  0  0
    5.0270   -3.1020   29.1700 C   0  0  0  0  0  0  0  0  0  0  0  0
    4.2220   -2.4320   30.2480 C   0  0  0  0  0  0  0  0  0  0  0  0
    3.2150   -3.1510   30.8900 F   0  0  0  0  0  0  0  0  0  0  0  0
    4.5190   -0.9890   30.6260 C   0  0  0  0  0  0  0  0  0  0  0  0
    5.6250   -0.3650   29.8390 C   0  0  0  0  0  0  0  0  0  0  0  0
    6.1160    1.4450   30.2010 Br  0  0  0  0  0  0  0  0  0  0  0  0
    6.2650   -1.0990   28.8700 C   0  0  0  0  0  0  0  0  0  0  0  0
    5.9700   -2.4210   28.5470 C   0  0  0  0  0  0  0  0  0  0  0  0
    6.6320   -3.1790   27.5170 C   0  0  0  0  0  0  0  0  0  0  0  0
    6.8790   -2.8700   23.4010 C   0  0  0  0  0  0  0  0  0  0  0  0
    7.6830   -3.3640   22.2360 C   0  0  0  0  0  0  0  0  0  0  0  0
  1  2  1  0
  2  3  2  0
  2  4  1  0
  4  5  1  0
  5  6  1  0
  6  7  1  0
  7  8  1  0
  8  9  2  0
  8 10  1  0
 10 11  1  0
 11 12  1  0
 12 13  1  0
 13 14  2  0
 14 15  1  0
 14 16  1  0
 16 17  2  0
 17 18  1  0
 17 19  1  0
 13 20  1  0
 19 20  2  0
 10 21  1  0
 20 21  1  0
  7 22  1  0
  4 23  1  0
 22 23  1  0
M  END
