piperidine-amides-3435-covalent
     RDKit          3D

 21 22  0  0  0  0  0  0  0  0999 V2000
    7.0640   -3.2880   19.2950 C   0  0  0  0  0  0  0  0  0  0  0  0
    6.3380   -4.0850   20.2810 C   0  0  0  0  0  0  0  0  0  0  0  0
    5.3340   -4.7080   19.9420 O   0  0  0  0  0  0  0  0  0  0  0  0
    6.8060   -4.1870   21.6380 N   0  0  0  0  0  0  0  0  0  0  0  0
    6.6150   -5.4290   22.3450 C   0  0  0  0  0  0  0  0  0  0  0  0
    6.0740   -5.1600   23.7200 C   0  0  0  0  0  0  0  0  0  0  0  0
    6.0810   -3.6580   23.9270 C   0  0  0  0  0  0  0  0  0  0  0  0
    5.6010   -3.3440   25.3040 C   0  0  0  0  0  0  0  0  0  0  0  0
    4.4070   -3.0840   25.5410 O   0  0  0  0  0  0  0  0  0  0  0  0
    6.5210   -3.3310   26.3770 N   0  0  0  0  0  0  0  0  0  0  0  0
    6.2230   -4.0470   27.6040 C   0  0  0  0  0  0  0  0  0  0  0  0
    6.1020   -5.5350   27.3240 C   0  0  0  0  0  0  0  0  0  0  0  0
    5.2840   -6.2890   28.1200 C   0  0  0  0  0  0  0  0  0  0  0  0
    5.6300   -6.3920   29.4870 C   0  0  0  0  0  0  0  0  0  0  0  0
    4.8690   -7.1250   30.3660 C   0  0  0  0  0  0  0  0  0  0  0  0
    3.7070   -7.7750   29.8270 C   0  0  0  0  0  0  0  0  0  0  0  0
    3.3740   -7.6820   28.5180 C   0  0  0  0  0  0  0  0  0  0  0  0
    4.1480   -6.9480   27.6500 C   0  0  0  0  0  0  0  0  0  0  0  0
    3.7860   -6.8740   26.3050 C   0  0  0  0  0  0  0  0  0  0  0  0
    7.3240   -2.9920   23.5770 C   0  0  0  0  0  0  0  0  0  0  0  0
    7.6530   -3.1740   22.2410 C   0  0  0  0  0  0  0  0  0  0  0  0
  1  2  1  0
  2  3  2  0
  2  4  1  0
  4  5  1  0
  5  6  1  0
  6  7  1  0
  7  8  1  0
  8  9  2  0
  8 10  1  0
 10 11  1  0
 11 12  1  0
 12 13  1  0
 13 14  2  0
 14 15  1  0
 15 16  2  0
 16 17  1  0
 13 18  1  0
 17 18  2  0
 18 19  1  0
  7 20  1  0
  4 21  1  0
 20 21  1  0
M  END
