piperidine-amides-3010-covalent
     RDKit          3D

 23 25  0  0  0  0  0  0  0  0999 V2000
    7.0630   -3.3400   19.3400 C   0  0  0  0  0  0  0  0  0  0  0  0
    6.3870   -4.1840   20.3190 C   0  0  0  0  0  0  0  0  0  0  0  0
    5.3920   -4.8300   19.9830 O   0  0  0  0  0  0  0  0  0  0  0  0
    6.9090   -4.3000   21.6600 N   0  0  0  0  0  0  0  0  0  0  0  0
    7.7330   -3.2540   22.2080 C   0  0  0  0  0  0  0  0  0  0  0  0
    7.0810   -2.6740   23.4220 C   0  0  0  0  0  0  0  0  0  0  0  0
    6.5790   -3.8190   24.2860 C   0  0  0  0  0  0  0  0  0  0  0  0
    5.8040   -3.2770   25.4490 C   0  0  0  0  0  0  0  0  0  0  0  0
    4.5570   -3.2790   25.4540 O   0  0  0  0  0  0  0  0  0  0  0  0
    6.4900   -2.7400   26.5740 N   0  0  0  0  0  0  0  0  0  0  0  0
    6.2600   -1.3600   26.9620 C   0  0  0  0  0  0  0  0  0  0  0  0
    5.4890   -0.5650   25.9480 C   0  0  0  0  0  0  0  0  0  0  0  0
    4.9580   -0.9140   24.7190 C   0  0  0  0  0  0  0  0  0  0  0  0
    5.2190    0.9050   26.3100 C   0  0  0  0  0  0  0  0  0  0  0  0
    5.7000    1.3440   27.5100 C   0  0  0  0  0  0  0  0  0  0  0  0
    6.4330    0.6190   28.4970 C   0  0  0  0  0  0  0  0  0  0  0  0
    6.8610    1.1940   29.6780 C   0  0  0  0  0  0  0  0  0  0  0  0
    7.5440    0.5130   30.6000 N   0  0  0  0  0  0  0  0  0  0  0  0
    7.8250   -0.8480   30.3310 C   0  0  0  0  0  0  0  0  0  0  0  0
    7.4090   -1.4390   29.1670 C   0  0  0  0  0  0  0  0  0  0  0  0
    6.6830   -0.7470   28.1590 C   0  0  0  0  0  0  0  0  0  0  0  0
    5.7350   -4.8340   23.5240 C   0  0  0  0  0  0  0  0  0  0  0  0
    6.5300   -5.3830   22.5170 C   0  0  0  0  0  0  0  0  0  0  0  0
  1  2  1  0
  2  3  2  0
  2  4  1  0
  4  5  1  0
  5  6  1  0
  6  7  1  0
  7  8  1  0
  8  9  2  0
  8 10  1  0
 10 11  1  0
 11 12  2  0
 12 13  1  0
 12 14  1  0
 14 15  2  0
 15 16  1  0
 16 17  1  0
 17 18  2  0
 18 19  1  0
 19 20  2  0
 11 21  1  0
 16 21  2  0
 20 21  1  0
  7 22  1  0
  4 23  1  0
 22 23  1  0
M  END
