piperidine-amides-19205-covalent
     RDKit          3D

 22 24  0  0  0  0  0  0  0  0999 V2000
    7.1570   -3.3390   19.4480 C   0  0  0  0  0  0  0  0  0  0  0  0
    6.3570   -4.0880   20.3950 C   0  0  0  0  0  0  0  0  0  0  0  0
    5.3550   -4.7330   19.9540 O   0  0  0  0  0  0  0  0  0  0  0  0
    6.6780   -4.1430   21.7750 N   0  0  0  0  0  0  0  0  0  0  0  0
    6.5790   -5.4880   22.4280 C   0  0  0  0  0  0  0  0  0  0  0  0
    6.0300   -5.1640   23.8800 C   0  0  0  0  0  0  0  0  0  0  0  0
    5.9170   -3.6710   23.9170 C   0  0  0  0  0  0  0  0  0  0  0  0
    5.0750   -3.0230   25.1050 C   0  0  0  0  0  0  0  0  0  0  0  0
    4.2950   -2.2250   24.6270 O   0  0  0  0  0  0  0  0  0  0  0  0
    5.4000   -3.4680   26.2490 N   0  0  0  0  0  0  0  0  0  0  0  0
    5.4970   -4.1410   27.3890 C   0  0  0  0  0  0  0  0  0  0  0  0
    6.2180   -3.4940   28.2300 C   0  0  0  0  0  0  0  0  0  0  0  0
    5.7310   -2.4070   28.9890 C   0  0  0  0  0  0  0  0  0  0  0  0
    6.6130   -1.4010   29.6120 C   0  0  0  0  0  0  0  0  0  0  0  0
    5.8460   -0.3160   30.3840 C   0  0  0  0  0  0  0  0  0  0  0  0
    4.4450   -0.3590   30.4360 C   0  0  0  0  0  0  0  0  0  0  0  0
    3.9040    0.5640   31.0840 O   0  0  0  0  0  0  0  0  0  0  0  0
    3.3990   -1.1640   29.9550 C   0  0  0  0  0  0  0  0  0  0  0  0
    4.2650   -2.1880   29.2200 C   0  0  0  0  0  0  0  0  0  0  0  0
    6.2190   -2.4980   27.0620 C   0  0  0  0  0  0  0  0  0  0  0  0
    7.2790   -3.0300   23.6800 C   0  0  0  0  0  0  0  0  0  0  0  0
    7.5670   -3.1220   22.3470 C   0  0  0  0  0  0  0  0  0  0  0  0
  1  2  1  0
  2  3  2  0
  2  4  1  0
  4  5  1  0
  5  6  1  0
  6  7  1  0
  7  8  1  0
  8  9  2  0
  8 10  1  0
 10 11  1  0
 11 12  1  0
 12 13  1  0
 13 14  2  0
 14 15  1  0
 15 16  2  0
 16 17  1  0
 16 18  1  0
 13 19  1  0
 18 19  2  0
 10 20  1  0
 12 20  1  0
  7 21  1  0
  4 22  1  0
 21 22  1  0
M  END
