piperidine-amides-30174-covalent
     RDKit          3D

 27 30  0  0  0  0  0  0  0  0999 V2000
    7.0370   -3.3760   19.3460 C   0  0  0  0  0  0  0  0  0  0  0  0
    6.3680   -4.2140   20.3400 C   0  0  0  0  0  0  0  0  0  0  0  0
    5.4060   -4.9020   19.9990 O   0  0  0  0  0  0  0  0  0  0  0  0
    6.8610   -4.2710   21.6930 N   0  0  0  0  0  0  0  0  0  0  0  0
    7.7590   -3.2370   22.1600 C   0  0  0  0  0  0  0  0  0  0  0  0
    7.7800   -3.1800   23.6510 C   0  0  0  0  0  0  0  0  0  0  0  0
    6.4220   -3.6450   24.1290 C   0  0  0  0  0  0  0  0  0  0  0  0
    6.1780   -3.1960   25.5340 C   0  0  0  0  0  0  0  0  0  0  0  0
    6.1390   -1.9910   25.8070 O   0  0  0  0  0  0  0  0  0  0  0  0
    5.9170   -4.1020   26.5880 N   0  0  0  0  0  0  0  0  0  0  0  0
    4.5210   -4.2660   26.7600 C   0  0  0  0  0  0  0  0  0  0  0  0
    4.3480   -3.6030   28.0650 C   0  0  0  0  0  0  0  0  0  0  0  0
    5.4500   -3.7140   28.8260 C   0  0  1  0  0  0  0  0  0  0  0  0
    6.5080   -3.8120   27.9610 C   0  0  0  0  0  0  0  0  0  0  0  0
    5.3810   -2.7790   29.6710 O   0  0  0  0  0  0  0  0  0  0  0  0
    4.2120   -2.6260   30.4430 C   0  0  0  0  0  0  0  0  0  0  0  0
    3.8240   -1.3780   30.8810 O   0  0  0  0  0  0  0  0  0  0  0  0
    3.5480   -3.8390   30.6900 N   0  0  0  0  0  0  0  0  0  0  0  0
    4.4110   -4.9270   30.3670 C   0  0  0  0  0  0  0  0  0  0  0  0
    4.1520   -6.0400   31.1170 C   0  0  0  0  0  0  0  0  0  0  0  0
    4.8350   -7.2110   31.0220 C   0  0  0  0  0  0  0  0  0  0  0  0
    5.8730   -7.3590   30.1270 C   0  0  0  0  0  0  0  0  0  0  0  0
    6.5680   -8.4890   29.9970 F   0  0  0  0  0  0  0  0  0  0  0  0
    6.1490   -6.1620   29.3240 C   0  0  0  0  0  0  0  0  0  0  0  0
    5.4490   -4.9670   29.4230 C   0  0  0  0  0  0  0  0  0  0  0  0
    6.2840   -5.1260   23.9050 C   0  0  0  0  0  0  0  0  0  0  0  0
    6.5880   -5.4450   22.4700 C   0  0  0  0  0  0  0  0  0  0  0  0
  1  2  1  0
  2  3  2  0
  2  4  1  0
  4  5  1  0
  5  6  1  0
  6  7  1  0
  7  8  1  0
  8  9  2  0
  8 10  1  0
 10 11  1  0
 11 12  1  0
 13 12  1  6
 10 14  1  0
 13 14  1  0
 13 15  1  0
 15 16  1  0
 16 17  2  0
 16 18  1  0
 18 19  1  0
 19 20  2  0
 20 21  1  0
 21 22  2  0
 22 23  1  0
 22 24  1  0
 13 25  1  0
 19 25  1  0
 24 25  2  0
  7 26  1  0
  4 27  1  0
 26 27  1  0
M  END
