piperidine-amides-35473-covalent
     RDKit          3D

 34 36  0  0  0  0  0  0  0  0999 V2000
    7.0840   -3.2680   19.1990 C   0  0  0  0  0  0  0  0  0  0  0  0
    6.3330   -4.0410   20.2220 C   0  0  0  0  0  0  0  0  0  0  0  0
    5.2680   -4.5420   19.8760 O   0  0  0  0  0  0  0  0  0  0  0  0
    6.8660   -4.2180   21.5000 N   0  0  0  0  0  0  0  0  0  0  0  0
    7.5910   -3.1820   22.1830 C   0  0  0  0  0  0  0  0  0  0  0  0
    6.8090   -2.7510   23.3910 C   0  0  0  0  0  0  0  0  0  0  0  0
    6.5240   -3.9690   24.2710 C   0  0  0  0  0  0  0  0  0  0  0  0
    5.7500   -3.5080   25.4450 C   0  0  0  0  0  0  0  0  0  0  0  0
    4.5130   -3.4770   25.3740 O   0  0  0  0  0  0  0  0  0  0  0  0
    6.3840   -3.0810   26.6300 N   0  0  0  0  0  0  0  0  0  0  0  0
    6.1980   -3.8180   27.8780 C   0  0  0  0  0  0  0  0  0  0  0  0
    5.9740   -5.3040   27.6120 C   0  0  0  0  0  0  0  0  0  0  0  0
    4.8910   -5.9700   28.1120 C   0  0  0  0  0  0  0  0  0  0  0  0
    3.6250   -6.0890   27.5870 C   0  0  0  0  0  0  0  0  0  0  0  0
    2.6950   -6.8130   28.2790 C   0  0  0  0  0  0  0  0  0  0  0  0
    2.8420   -7.5300   29.5800 C   0  0  0  0  0  0  0  0  0  0  0  0
    1.8810   -8.2490   30.2480 O   0  0  0  0  0  0  0  0  0  0  0  0
    1.5770   -7.8800   31.5610 C   0  0  0  0  0  0  0  0  0  0  0  0
    2.0140   -8.9600   32.5130 C   0  0  0  0  0  0  0  0  0  0  0  0
    4.1560   -7.4720   30.2310 C   0  0  0  0  0  0  0  0  0  0  0  0
    4.5440   -7.9830   31.3160 O   0  0  0  0  0  0  0  0  0  0  0  0
    4.7620   -7.2040   32.4570 C   0  0  0  0  0  0  0  0  0  0  0  0
    5.5620   -7.9930   33.4810 C   0  0  0  0  0  0  0  0  0  0  0  0
    5.1970   -6.6720   29.4740 C   0  0  0  0  0  0  0  0  0  0  0  0
    6.6070   -1.6820   26.9430 C   0  0  0  0  0  0  0  0  0  0  0  0
    6.4010   -1.2390   28.2330 C   0  0  0  0  0  0  0  0  0  0  0  0
    5.0280   -0.8640   28.7320 C   0  0  0  0  0  0  0  0  0  0  0  0
    4.8010   -0.3650   30.1520 C   0  0  0  0  0  0  0  0  0  0  0  0
    5.9640   -0.2310   31.1140 C   0  0  0  0  0  0  0  0  0  0  0  0
    5.7540    0.3490   32.7740 Cl  0  0  0  0  0  0  0  0  0  0  0  0
    7.1860   -0.5870   30.6160 C   0  0  0  0  0  0  0  0  0  0  0  0
    7.4080   -1.0920   29.1780 C   0  0  0  0  0  0  0  0  0  0  0  0
    5.7190   -4.9620   23.4730 C   0  0  0  0  0  0  0  0  0  0  0  0
    6.5090   -5.4040   22.2560 C   0  0  0  0  0  0  0  0  0  0  0  0
  1  2  1  0
  2  3  2  0
  2  4  1  0
  4  5  1  0
  5  6  1  0
  6  7  1  0
  7  8  1  0
  8  9  2  0
  8 10  1  0
 10 11  1  0
 11 12  1  0
 12 13  1  0
 13 14  2  0
 14 15  1  0
 15 16  2  0
 16 17  1  0
 17 18  1  0
 18 19  1  0
 16 20  1  0
 20 21  1  0
 21 22  1  0
 22 23  1  0
 13 24  1  0
 20 24  2  0
 10 25  1  0
 25 26  1  0
 26 27  2  0
 27 28  1  0
 28 29  2  0
 29 30  1  0
 29 31  1  0
 26 32  1  0
 31 32  2  0
  7 33  1  0
  4 34  1  0
 33 34  1  0
M  END
