piperidine-amides-12669-covalent
     RDKit          3D

 22 24  0  0  0  0  0  0  0  0999 V2000
    7.1780   -3.2640   19.1030 C   0  0  0  0  0  0  0  0  0  0  0  0
    6.4020   -3.9740   20.1410 C   0  0  0  0  0  0  0  0  0  0  0  0
    5.2710   -4.3890   19.8190 O   0  0  0  0  0  0  0  0  0  0  0  0
    6.9550   -4.2270   21.3970 N   0  0  0  0  0  0  0  0  0  0  0  0
    6.3670   -5.2280   22.2120 C   0  0  0  0  0  0  0  0  0  0  0  0
    5.7180   -4.6840   23.4040 C   0  0  0  0  0  0  0  0  0  0  0  0
    6.4520   -3.5510   24.0260 C   0  0  0  0  0  0  0  0  0  0  0  0
    5.6550   -2.8570   25.0590 C   0  0  0  0  0  0  0  0  0  0  0  0
    4.4090   -2.9350   25.0210 O   0  0  0  0  0  0  0  0  0  0  0  0
    6.3020   -2.1310   26.0740 N   0  0  0  0  0  0  0  0  0  0  0  0
    6.5480   -2.6880   27.4170 C   0  0  0  0  0  0  0  0  0  0  0  0
    6.7270   -4.1680   27.4490 C   0  0  2  0  0  0  0  0  0  0  0  0
    5.6820   -5.0860   27.8790 C   0  0  0  0  0  0  0  0  0  0  0  0
    6.3070   -6.3070   27.7130 C   0  0  0  0  0  0  0  0  0  0  0  0
    7.5880   -6.0780   27.1980 C   0  0  2  0  0  0  0  0  0  0  0  0
    8.3640   -5.5340   28.1220 C   0  0  0  0  0  0  0  0  0  0  0  0
    7.7640   -4.3820   28.5110 C   0  0  0  0  0  0  0  0  0  0  0  0
    7.4530   -4.9360   26.5440 C   0  0  0  0  0  0  0  0  0  0  0  0
    6.2110   -4.5570   26.0660 C   0  0  0  0  0  0  0  0  0  0  0  0
    8.4860   -4.3330   25.8520 C   0  0  0  0  0  0  0  0  0  0  0  0
    6.9480   -2.5380   23.0700 C   0  0  0  0  0  0  0  0  0  0  0  0
    7.7760   -3.2260   22.0470 C   0  0  0  0  0  0  0  0  0  0  0  0
  1  2  1  0
  2  3  2  0
  2  4  1  0
  4  5  1  0
  5  6  1  0
  6  7  1  0
  7  8  1  0
  8  9  2  0
  8 10  1  0
 10 11  1  0
 12 11  1  6
 12 13  1  0
 13 14  1  0
 15 14  1  1
 15 16  1  0
 12 17  1  0
 16 17  1  0
 12 18  1  0
 15 18  1  0
 18 19  1  0
 18 20  1  0
  7 21  1  0
  4 22  1  0
 21 22  1  0
M  END
