piperidine-amides-32513-covalent
     RDKit          3D

 29 32  0  0  0  0  0  0  0  0999 V2000
    7.0030   -3.3620   19.4570 C   0  0  0  0  0  0  0  0  0  0  0  0
    6.3430   -4.2820   20.4310 C   0  0  0  0  0  0  0  0  0  0  0  0
    5.4130   -4.9910   20.0110 O   0  0  0  0  0  0  0  0  0  0  0  0
    6.7860   -4.3600   21.7800 N   0  0  0  0  0  0  0  0  0  0  0  0
    6.5440   -5.5560   22.5730 C   0  0  0  0  0  0  0  0  0  0  0  0
    6.0570   -5.1730   23.9950 C   0  0  0  0  0  0  0  0  0  0  0  0
    5.8910   -3.6870   24.0770 C   0  0  0  0  0  0  0  0  0  0  0  0
    5.1700   -3.0630   25.2670 C   0  0  0  0  0  0  0  0  0  0  0  0
    4.5790   -2.0250   24.9760 O   0  0  0  0  0  0  0  0  0  0  0  0
    5.1060   -3.5530   26.6080 N   0  0  0  0  0  0  0  0  0  0  0  0
    4.7550   -2.7920   27.7580 C   0  0  0  0  0  0  0  0  0  0  0  0
    4.8470   -3.2780   29.0510 C   0  0  0  0  0  0  0  0  0  0  0  0
    4.9810   -4.7040   28.9450 N   0  0  0  0  0  0  0  0  0  0  0  0
    4.4380   -5.6710   29.7880 C   0  0  0  0  0  0  0  0  0  0  0  0
    3.5810   -6.4570   29.0490 C   0  0  0  0  0  0  0  0  0  0  0  0
    3.9110   -6.6630   27.6780 N   0  0  0  0  0  0  0  0  0  0  0  0
    3.1120   -7.4470   26.7860 C   0  0  0  0  0  0  0  0  0  0  0  0
    3.4170   -7.5150   25.2760 C   0  0  0  0  0  0  0  0  0  0  0  0
    2.4420   -8.3990   24.5360 C   0  0  0  0  0  0  0  0  0  0  0  0
    1.4110   -9.0670   25.1130 C   0  0  0  0  0  0  0  0  0  0  0  0
    1.0010   -9.0990   26.5320 C   0  0  0  0  0  0  0  0  0  0  0  0
    1.9460   -8.2180   27.3600 C   0  0  0  0  0  0  0  0  0  0  0  0
    1.7850   -8.0710   28.7120 C   0  0  0  0  0  0  0  0  0  0  0  0
    0.9680   -8.9400   29.2260 O   0  0  0  0  0  0  0  0  0  0  0  0
    2.4280   -7.0770   29.4640 N   0  0  0  0  0  0  0  0  0  0  0  0
    6.1580   -5.1080   28.2850 C   0  0  0  0  0  0  0  0  0  0  0  0
    6.1900   -4.3920   26.9500 C   0  0  0  0  0  0  0  0  0  0  0  0
    7.2140   -3.0050   23.7980 C   0  0  0  0  0  0  0  0  0  0  0  0
    7.5590   -3.2560   22.3680 C   0  0  0  0  0  0  0  0  0  0  0  0
  1  2  1  0
  2  3  2  0
  2  4  1  0
  4  5  1  0
  5  6  1  0
  6  7  1  0
  7  8  1  0
  8  9  2  0
  8 10  1  0
 10 11  1  0
 11 12  1  0
 12 13  1  0
 13 14  1  0
 14 15  1  0
 15 16  2  0
 16 17  1  0
 17 18  2  0
 18 19  1  0
 19 20  2  0
 20 21  1  0
 17 22  1  0
 21 22  2  0
 22 23  1  0
 23 24  2  0
 15 25  1  0
 23 25  1  0
 13 26  1  0
 10 27  1  0
 26 27  1  0
  7 28  1  0
  4 29  1  0
 28 29  1  0
M  END
