piperidine-amides-24065-covalent
     RDKit          3D

 24 26  0  0  0  0  0  0  0  0999 V2000
    7.0820   -3.3980   19.4470 C   0  0  0  0  0  0  0  0  0  0  0  0
    6.4020   -4.2670   20.4190 C   0  0  0  0  0  0  0  0  0  0  0  0
    5.3860   -4.8760   19.9950 O   0  0  0  0  0  0  0  0  0  0  0  0
    6.8970   -4.4560   21.7450 N   0  0  0  0  0  0  0  0  0  0  0  0
    6.3330   -5.5030   22.5030 C   0  0  0  0  0  0  0  0  0  0  0  0
    5.6090   -5.0580   23.7050 C   0  0  0  0  0  0  0  0  0  0  0  0
    6.0930   -3.8370   24.4190 C   0  0  0  0  0  0  0  0  0  0  0  0
    5.0760   -3.3600   25.4700 C   0  0  0  0  0  0  0  0  0  0  0  0
    3.9550   -2.9980   25.0910 O   0  0  0  0  0  0  0  0  0  0  0  0
    5.3730   -3.3210   26.8680 N   0  0  0  0  0  0  0  0  0  0  0  0
    4.5610   -3.1650   28.0390 C   0  0  0  0  0  0  0  0  0  0  0  0
    5.0700   -3.5800   29.3910 C   0  0  0  0  0  0  0  0  0  0  0  0
    5.6260   -4.9950   29.2110 C   0  0  0  0  0  0  0  0  0  0  0  0
    5.6440   -6.2640   29.6980 C   0  0  0  0  0  0  0  0  0  0  0  0
    4.7880   -6.2910   30.9580 C   0  0  0  0  0  0  0  0  0  0  0  0
    5.5010   -6.5170   32.1460 O   0  0  0  0  0  0  0  0  0  0  0  0
    3.4250   -6.1050   30.9560 O   0  0  0  0  0  0  0  0  0  0  0  0
    3.1360   -5.2360   31.8760 C   0  0  0  0  0  0  0  0  0  0  0  0
    6.4350   -7.1070   28.8880 N   0  0  0  0  0  0  0  0  0  0  0  0
    6.8750   -6.2580   27.9300 N   0  0  0  0  0  0  0  0  0  0  0  0
    6.4090   -4.8690   28.0820 C   0  0  0  0  0  0  0  0  0  0  0  0
    6.6000   -3.5480   27.3380 C   0  0  0  0  0  0  0  0  0  0  0  0
    6.5440   -2.7560   23.4440 C   0  0  0  0  0  0  0  0  0  0  0  0
    7.5290   -3.3600   22.4180 C   0  0  0  0  0  0  0  0  0  0  0  0
  1  2  1  0
  2  3  2  0
  2  4  1  0
  4  5  1  0
  5  6  1  0
  6  7  1  0
  7  8  1  0
  8  9  2  0
  8 10  1  0
 10 11  1  0
 11 12  1  0
 12 13  1  0
 13 14  1  0
 14 15  1  0
 15 16  2  0
 15 17  1  0
 17 18  1  0
 14 19  2  0
 19 20  1  0
 13 21  2  0
 20 21  1  0
 10 22  1  0
 21 22  1  0
  7 23  1  0
  4 24  1  0
 23 24  1  0
M  END
