piperidine-amides-10934-covalent
     RDKit          3D

 21 22  0  0  0  0  0  0  0  0999 V2000
    7.0860   -3.2800   19.2400 C   0  0  0  0  0  0  0  0  0  0  0  0
    6.3540   -4.0340   20.2630 C   0  0  0  0  0  0  0  0  0  0  0  0
    5.3320   -4.6580   19.9310 O   0  0  0  0  0  0  0  0  0  0  0  0
    6.8110   -4.1020   21.5910 N   0  0  0  0  0  0  0  0  0  0  0  0
    7.7390   -3.1140   22.1170 C   0  0  0  0  0  0  0  0  0  0  0  0
    7.4760   -3.0400   23.5870 C   0  0  0  0  0  0  0  0  0  0  0  0
    6.1140   -3.5610   23.8920 C   0  0  0  0  0  0  0  0  0  0  0  0
    5.6480   -3.2640   25.2650 C   0  0  0  0  0  0  0  0  0  0  0  0
    4.4190   -3.3590   25.5470 O   0  0  0  0  0  0  0  0  0  0  0  0
    6.5120   -2.8610   26.3070 N   0  0  0  0  0  0  0  0  0  0  0  0
    6.5950   -1.4450   26.7200 C   0  0  0  0  0  0  0  0  0  0  0  0
    5.3040   -1.0850   27.3520 C   0  0  1  0  0  0  0  0  0  0  0  0
    4.7710   -2.0760   28.3030 C   0  0  0  0  0  0  0  0  0  0  0  0
    5.5450   -2.1310   29.5970 C   0  0  0  0  0  0  0  0  0  0  0  0
    5.2950   -0.9380   30.5090 C   0  0  0  0  0  0  0  0  0  0  0  0
    4.1400   -0.1790   29.9710 C   0  0  0  0  0  0  0  0  0  0  0  0
    4.4070    0.6200   28.8890 C   0  0  1  0  0  0  0  0  0  0  0  0
    4.6820    1.8190   29.2270 O   0  0  0  0  0  0  0  0  0  0  0  0
    5.4610    0.2240   28.0540 C   0  0  0  0  0  0  0  0  0  0  0  0
    5.9880   -5.0730   23.6460 C   0  0  0  0  0  0  0  0  0  0  0  0
    6.6550   -5.3640   22.2920 C   0  0  0  0  0  0  0  0  0  0  0  0
  1  2  1  0
  2  3  2  0
  2  4  1  0
  4  5  1  0
  5  6  1  0
  6  7  1  0
  7  8  1  0
  8  9  2  0
  8 10  1  0
 10 11  1  0
 12 11  1  1
 12 13  1  0
 13 14  1  0
 14 15  1  0
 15 16  1  0
 16 17  1  0
 17 18  1  1
 12 19  1  0
 17 19  1  0
  7 20  1  0
  4 21  1  0
 20 21  1  0
M  END
