piperidine-amides-8427-covalent
     RDKit          3D

 24 25  0  0  0  0  0  0  0  0999 V2000
    7.0440   -3.2760   19.2340 C   0  0  0  0  0  0  0  0  0  0  0  0
    6.2920   -4.0560   20.2250 C   0  0  0  0  0  0  0  0  0  0  0  0
    5.2330   -4.5920   19.8770 O   0  0  0  0  0  0  0  0  0  0  0  0
    6.7780   -4.2230   21.5380 N   0  0  0  0  0  0  0  0  0  0  0  0
    7.5750   -3.1800   22.1160 C   0  0  0  0  0  0  0  0  0  0  0  0
    7.3570   -3.1690   23.5850 C   0  0  0  0  0  0  0  0  0  0  0  0
    5.9790   -3.6850   23.8320 C   0  0  0  0  0  0  0  0  0  0  0  0
    5.6530   -3.5580   25.2880 C   0  0  0  0  0  0  0  0  0  0  0  0
    4.5300   -3.1330   25.5510 O   0  0  0  0  0  0  0  0  0  0  0  0
    6.6230   -3.9190   26.2230 N   0  0  0  0  0  0  0  0  0  0  0  0
    6.3170   -4.7850   27.3190 C   0  0  1  0  0  0  0  0  0  0  0  0
    7.3860   -5.4610   27.9410 C   0  0  0  0  0  0  0  0  0  0  0  0
    5.7190   -3.9040   28.3540 C   0  0  0  0  0  0  0  0  0  0  0  0
    6.2880   -2.6400   28.5480 C   0  0  0  0  0  0  0  0  0  0  0  0
    5.7110   -1.7240   29.5740 C   0  0  0  0  0  0  0  0  0  0  0  0
    4.5120   -2.1000   30.4350 C   0  0  0  0  0  0  0  0  0  0  0  0
    4.0510   -1.1840   31.3560 F   0  0  0  0  0  0  0  0  0  0  0  0
    3.9400   -3.4340   30.2050 C   0  0  0  0  0  0  0  0  0  0  0  0
    2.8220   -4.0400   30.8650 N   0  0  0  0  0  0  0  0  0  0  0  0
    2.6900   -5.2710   30.9380 O   0  0  0  0  0  0  0  0  0  0  0  0
    1.8760   -3.2270   31.4450 O   0  0  0  0  0  0  0  0  0  0  0  0
    4.6160   -4.2700   29.1370 C   0  0  0  0  0  0  0  0  0  0  0  0
    5.7700   -5.0760   23.4210 C   0  0  0  0  0  0  0  0  0  0  0  0
    6.5260   -5.4220   22.3190 C   0  0  0  0  0  0  0  0  0  0  0  0
  1  2  1  0
  2  3  2  0
  2  4  1  0
  4  5  1  0
  5  6  1  0
  6  7  1  0
  7  8  1  0
  8  9  2  0
  8 10  1  0
 10 11  1  0
 11 12  1  1
 11 13  1  0
 13 14  2  0
 14 15  1  0
 15 16  2  0
 16 17  1  0
 16 18  1  0
 18 19  1  0
 19 20  2  0
 19 21  1  0
 13 22  1  0
 18 22  2  0
  7 23  1  0
  4 24  1  0
 23 24  1  0
M  CHG  2  19   1  21  -1
M  END
