piperidine-amides-15431-covalent
     RDKit          3D

 18 20  0  0  0  0  0  0  0  0999 V2000
    7.0380   -3.3260   19.3950 C   0  0  0  0  0  0  0  0  0  0  0  0
    6.3580   -4.1980   20.3680 C   0  0  0  0  0  0  0  0  0  0  0  0
    5.4000   -4.9110   19.9950 O   0  0  0  0  0  0  0  0  0  0  0  0
    6.7880   -4.2680   21.7030 N   0  0  0  0  0  0  0  0  0  0  0  0
    6.6940   -5.5430   22.3920 C   0  0  0  0  0  0  0  0  0  0  0  0
    6.3490   -5.3000   23.8740 C   0  0  0  0  0  0  0  0  0  0  0  0
    6.1760   -3.8140   24.0620 C   0  0  0  0  0  0  0  0  0  0  0  0
    5.6290   -3.4210   25.3960 C   0  0  0  0  0  0  0  0  0  0  0  0
    4.5880   -2.7390   25.3760 O   0  0  0  0  0  0  0  0  0  0  0  0
    6.2010   -3.7750   26.6540 N   0  0  0  0  0  0  0  0  0  0  0  0
    6.0580   -2.7940   27.7450 C   0  0  0  0  0  0  0  0  0  0  0  0
    5.4670   -3.6850   28.7430 C   0  0  1  0  0  0  0  0  0  0  0  0
    4.7700   -4.5360   28.0910 C   0  0  0  0  0  0  0  0  0  0  0  0
    5.9570   -4.8670   27.6520 C   0  0  1  0  0  0  0  0  0  0  0  0
    6.0990   -6.0680   26.9760 C   0  0  0  0  0  0  0  0  0  0  0  0
    6.6310   -4.6090   28.8530 C   0  0  0  0  0  0  0  0  0  0  0  0
    7.5120   -3.1500   23.7660 C   0  0  0  0  0  0  0  0  0  0  0  0
    7.6820   -3.2700   22.2760 C   0  0  0  0  0  0  0  0  0  0  0  0
  1  2  1  0
  2  3  2  0
  2  4  1  0
  4  5  1  0
  5  6  1  0
  6  7  1  0
  7  8  1  0
  8  9  2  0
  8 10  1  0
 10 11  1  0
 12 11  1  6
 12 13  1  0
 10 14  1  0
 13 14  1  0
 14 15  1  6
 12 16  1  0
 14 16  1  0
  7 17  1  0
  4 18  1  0
 17 18  1  0
M  END
