piperidine-amides-35406-covalent
     RDKit          3D

 35 39  0  0  0  0  0  0  0  0999 V2000
    7.1660   -4.0080   19.6670 C   0  0  0  0  0  0  0  0  0  0  0  0
    5.9160   -3.9830   20.3190 C   0  0  0  0  0  0  0  0  0  0  0  0
    4.9460   -4.0550   19.5950 O   0  0  0  0  0  0  0  0  0  0  0  0
    5.9620   -3.9720   21.6750 N   0  0  0  0  0  0  0  0  0  0  0  0
    5.8310   -5.1990   22.4170 C   0  0  0  0  0  0  0  0  0  0  0  0
    5.0360   -4.9090   23.6620 C   0  0  0  0  0  0  0  0  0  0  0  0
    4.8420   -3.3790   23.8230 C   0  0  0  0  0  0  0  0  0  0  0  0
    4.2930   -3.0720   25.1730 C   0  0  0  0  0  0  0  0  0  0  0  0
    3.2370   -2.4550   25.2490 O   0  0  0  0  0  0  0  0  0  0  0  0
    4.9190   -3.4480   26.3570 N   0  0  0  0  0  0  0  0  0  0  0  0
    4.7180   -2.6200   27.5640 C   0  0  0  0  0  0  0  0  0  0  0  0
    5.2110   -3.3940   28.7660 C   0  0  0  0  0  0  0  0  0  0  0  0
    5.6070   -4.6350   28.5260 C   0  0  0  0  0  0  0  0  0  0  0  0
    6.0790   -4.8940   27.2900 C   0  0  0  0  0  0  0  0  0  0  0  0
    6.4570   -6.2740   27.1780 N   0  0  0  0  0  0  0  0  0  0  0  0
    6.1280   -6.7820   28.4770 C   0  0  0  0  0  0  0  0  0  0  0  0
    5.6530   -5.8160   29.1660 N   0  0  0  0  0  0  0  0  0  0  0  0
    5.2920   -6.3770   30.4770 C   0  0  0  0  0  0  0  0  0  0  0  0
    6.1620   -3.9430   26.1190 C   0  0  1  0  0  0  0  0  0  0  0  0
    6.5510   -4.5100   24.7610 C   0  0  0  0  0  0  0  0  0  0  0  0
    7.6240   -3.5870   24.2280 C   0  0  0  0  0  0  0  0  0  0  0  0
    7.6830   -2.4310   25.0550 N   0  0  0  0  0  0  0  0  0  0  0  0
    7.7680   -1.3080   24.1010 C   0  0  0  0  0  0  0  0  0  0  0  0
    7.1280   -0.2070   24.2020 O   0  0  0  0  0  0  0  0  0  0  0  0
    8.4510   -1.3480   23.0510 O   0  0  0  0  0  0  0  0  0  0  0  0
    9.5240   -0.4120   22.8790 C   0  0  0  0  0  0  0  0  0  0  0  0
   10.8030   -1.1430   23.1040 C   0  0  0  0  0  0  0  0  0  0  0  0
   11.6290   -1.5810   21.9240 C   0  0  0  0  0  0  0  0  0  0  0  0
   12.8130   -2.2440   22.0380 C   0  0  0  0  0  0  0  0  0  0  0  0
   13.3750   -2.5900   23.3840 C   0  0  0  0  0  0  0  0  0  0  0  0
   12.5520   -2.1620   24.5880 C   0  0  0  0  0  0  0  0  0  0  0  0
   11.2380   -1.4220   24.3700 C   0  0  0  0  0  0  0  0  0  0  0  0
    6.7810   -2.5380   26.1990 C   0  0  0  0  0  0  0  0  0  0  0  0
    5.9630   -2.4990   23.4680 C   0  0  0  0  0  0  0  0  0  0  0  0
    6.7300   -2.9810   22.3030 C   0  0  0  0  0  0  0  0  0  0  0  0
  1  2  1  0
  2  3  2  0
  2  4  1  0
  4  5  1  0
  5  6  1  0
  6  7  1  0
  7  8  1  0
  8  9  2  0
  8 10  1  0
 10 11  1  0
 11 12  1  0
 12 13  1  0
 13 14  2  0
 14 15  1  0
 15 16  2  0
 13 17  1  0
 16 17  1  0
 17 18  1  0
 19 10  1  0
 14 19  1  0
 19 20  1  6
 20 21  1  0
 21 22  1  0
 22 23  1  0
 23 24  2  0
 23 25  1  0
 25 26  1  0
 26 27  1  0
 27 28  2  0
 28 29  1  0
 29 30  2  0
 30 31  1  0
 27 32  1  0
 31 32  2  0
 19 33  1  0
 22 33  1  0
  7 34  1  0
  4 35  1  0
 34 35  1  0
M  END
