piperidine-amides-3140-covalent
     RDKit          3D

 22 24  0  0  0  0  0  0  0  0999 V2000
    7.0010   -3.3670   19.3610 C   0  0  0  0  0  0  0  0  0  0  0  0
    6.3450   -4.2150   20.3550 C   0  0  0  0  0  0  0  0  0  0  0  0
    5.3890   -4.9040   19.9980 O   0  0  0  0  0  0  0  0  0  0  0  0
    6.8190   -4.2960   21.7190 N   0  0  0  0  0  0  0  0  0  0  0  0
    7.6960   -3.2750   22.2570 C   0  0  0  0  0  0  0  0  0  0  0  0
    7.4750   -3.1670   23.7350 C   0  0  0  0  0  0  0  0  0  0  0  0
    6.0720   -3.6990   23.9580 C   0  0  0  0  0  0  0  0  0  0  0  0
    5.4240   -3.3240   25.2690 C   0  0  0  0  0  0  0  0  0  0  0  0
    4.1890   -3.4120   25.4030 O   0  0  0  0  0  0  0  0  0  0  0  0
    6.1580   -2.8580   26.3930 N   0  0  0  0  0  0  0  0  0  0  0  0
    6.2480   -1.4250   26.6670 C   0  0  0  0  0  0  0  0  0  0  0  0
    6.8830   -0.9290   25.3930 C   0  0  0  0  0  0  0  0  0  0  0  0
    6.4850    0.1040   24.7680 C   0  0  0  0  0  0  0  0  0  0  0  0
    5.7380   -0.9950   24.2580 C   0  0  0  0  0  0  0  0  0  0  0  0
    7.0930   -1.4210   27.8960 C   0  0  0  0  0  0  0  0  0  0  0  0
    6.6200   -0.8950   29.1700 C   0  0  0  0  0  0  0  0  0  0  0  0
    6.4330    0.4440   29.3880 C   0  0  0  0  0  0  0  0  0  0  0  0
    5.4770    1.0660   28.6370 C   0  0  0  0  0  0  0  0  0  0  0  0
    5.4400    0.7690   27.2810 C   0  0  0  0  0  0  0  0  0  0  0  0
    5.1320   -0.6480   26.9890 C   0  0  0  0  0  0  0  0  0  0  0  0
    5.9870   -5.1950   23.6950 C   0  0  0  0  0  0  0  0  0  0  0  0
    6.6310   -5.5040   22.4850 C   0  0  0  0  0  0  0  0  0  0  0  0
  1  2  1  0
  2  3  2  0
  2  4  1  0
  4  5  1  0
  5  6  1  0
  6  7  1  0
  7  8  1  0
  8  9  2  0
  8 10  1  0
 11 10  1  0
 11 12  1  0
 12 13  1  0
 12 14  1  0
 13 14  1  0
 11 15  1  0
 15 16  1  0
 16 17  1  0
 17 18  1  0
 18 19  1  0
 11 20  1  0
 19 20  1  0
  7 21  1  0
  4 22  1  0
 21 22  1  0
M  END
