piperidine-amides-34417-covalent
     RDKit          3D

 31 33  0  0  0  0  0  0  0  0999 V2000
    7.0550   -3.3180   19.3790 C   0  0  0  0  0  0  0  0  0  0  0  0
    6.3780   -4.1770   20.3650 C   0  0  0  0  0  0  0  0  0  0  0  0
    5.4130   -4.8880   19.9980 O   0  0  0  0  0  0  0  0  0  0  0  0
    6.8240   -4.2410   21.7020 N   0  0  0  0  0  0  0  0  0  0  0  0
    7.7030   -3.1860   22.2020 C   0  0  0  0  0  0  0  0  0  0  0  0
    7.5010   -3.0630   23.7200 C   0  0  0  0  0  0  0  0  0  0  0  0
    6.1460   -3.6650   23.9730 C   0  0  0  0  0  0  0  0  0  0  0  0
    5.5300   -3.2960   25.2780 C   0  0  0  0  0  0  0  0  0  0  0  0
    4.2850   -3.2560   25.2860 O   0  0  0  0  0  0  0  0  0  0  0  0
    6.2630   -3.0040   26.4660 N   0  0  0  0  0  0  0  0  0  0  0  0
    6.1060   -3.9260   27.5860 C   0  0  0  0  0  0  0  0  0  0  0  0
    4.6420   -4.0690   28.0030 C   0  0  0  0  0  0  0  0  0  0  0  0
    3.8290   -5.1560   27.7160 C   0  0  0  0  0  0  0  0  0  0  0  0
    4.2800   -6.1360   27.0600 O   0  0  0  0  0  0  0  0  0  0  0  0
    4.3410   -7.3130   27.7420 C   0  0  0  0  0  0  0  0  0  0  0  0
    2.4750   -5.1960   28.1530 N   0  0  0  0  0  0  0  0  0  0  0  0
    1.9720   -4.1360   28.8750 C   0  0  0  0  0  0  0  0  0  0  0  0
    2.7310   -2.9890   29.2170 N   0  0  0  0  0  0  0  0  0  0  0  0
    4.1100   -2.9090   28.7900 C   0  0  0  0  0  0  0  0  0  0  0  0
    4.9130   -1.8310   29.0830 O   0  0  0  0  0  0  0  0  0  0  0  0
    4.9450   -1.2720   30.3900 C   0  0  0  0  0  0  0  0  0  0  0  0
    6.3300   -1.6600   27.0510 C   0  0  0  0  0  0  0  0  0  0  0  0
    6.9960   -1.7120   28.4230 C   0  0  0  0  0  0  0  0  0  0  0  0
    6.9840   -0.3020   28.9250 C   0  0  0  0  0  0  0  0  0  0  0  0
    6.5010    0.8960   28.3540 C   0  0  0  0  0  0  0  0  0  0  0  0
    5.9490    0.8030   27.1410 N   0  0  0  0  0  0  0  0  0  0  0  0
    5.8290   -0.3940   26.4480 C   0  0  0  0  0  0  0  0  0  0  0  0
    5.2870   -0.3540   25.3190 O   0  0  0  0  0  0  0  0  0  0  0  0
    3.9690   -0.8240   25.5480 C   0  0  0  0  0  0  0  0  0  0  0  0
    6.1560   -5.1680   23.8290 C   0  0  0  0  0  0  0  0  0  0  0  0
    6.6930   -5.4890   22.4220 C   0  0  0  0  0  0  0  0  0  0  0  0
  1  2  1  0
  2  3  2  0
  2  4  1  0
  4  5  1  0
  5  6  1  0
  6  7  1  0
  7  8  1  0
  8  9  2  0
  8 10  1  0
 10 11  1  0
 11 12  1  0
 12 13  2  0
 13 14  1  0
 14 15  1  0
 13 16  1  0
 16 17  2  0
 17 18  1  0
 12 19  1  0
 18 19  2  0
 19 20  1  0
 20 21  1  0
 10 22  1  0
 22 23  2  0
 23 24  1  0
 24 25  2  0
 25 26  1  0
 22 27  1  0
 26 27  2  0
 27 28  1  0
 28 29  1  0
  7 30  1  0
  4 31  1  0
 30 31  1  0
M  END
