piperidine-amides-5209-covalent
     RDKit          3D

 22 23  0  0  0  0  0  0  0  0999 V2000
    7.0930   -3.3160   19.2440 C   0  0  0  0  0  0  0  0  0  0  0  0
    6.3220   -4.0620   20.2650 C   0  0  0  0  0  0  0  0  0  0  0  0
    5.2490   -4.5620   19.8850 O   0  0  0  0  0  0  0  0  0  0  0  0
    6.8090   -4.2340   21.5680 N   0  0  0  0  0  0  0  0  0  0  0  0
    7.4760   -3.1650   22.2240 C   0  0  0  0  0  0  0  0  0  0  0  0
    6.8600   -2.7550   23.4940 C   0  0  0  0  0  0  0  0  0  0  0  0
    6.1360   -3.8070   24.2740 C   0  0  0  0  0  0  0  0  0  0  0  0
    5.0950   -3.1920   25.1690 C   0  0  0  0  0  0  0  0  0  0  0  0
    3.9670   -3.0330   24.6790 O   0  0  0  0  0  0  0  0  0  0  0  0
    5.3060   -2.7900   26.5160 N   0  0  0  0  0  0  0  0  0  0  0  0
    5.8910   -3.6750   27.5380 C   0  0  1  0  0  0  0  0  0  0  0  0
    5.1000   -4.8960   27.8430 C   0  0  0  0  0  0  0  0  0  0  0  0
    7.1110   -4.1350   26.9950 C   0  0  0  0  0  0  0  0  0  0  0  0
    7.7280   -3.3900   26.0280 C   0  0  0  0  0  0  0  0  0  0  0  0
    8.8860   -3.7160   25.4190 C   0  0  0  0  0  0  0  0  0  0  0  0
    9.4290   -4.8630   25.8490 C   0  0  0  0  0  0  0  0  0  0  0  0
   10.5790   -5.3440   25.4200 F   0  0  0  0  0  0  0  0  0  0  0  0
    8.8410   -5.5890   26.7700 C   0  0  0  0  0  0  0  0  0  0  0  0
    9.6000   -6.6450   26.9630 F   0  0  0  0  0  0  0  0  0  0  0  0
    7.7050   -5.2880   27.3710 C   0  0  0  0  0  0  0  0  0  0  0  0
    5.4940   -4.8420   23.3670 C   0  0  0  0  0  0  0  0  0  0  0  0
    6.4780   -5.3690   22.3870 C   0  0  0  0  0  0  0  0  0  0  0  0
  1  2  1  0
  2  3  2  0
  2  4  1  0
  4  5  1  0
  5  6  1  0
  6  7  1  0
  7  8  1  0
  8  9  2  0
  8 10  1  0
 10 11  1  0
 11 12  1  6
 11 13  1  0
 13 14  2  0
 14 15  1  0
 15 16  2  0
 16 17  1  0
 16 18  1  0
 18 19  1  0
 13 20  1  0
 18 20  2  0
  7 21  1  0
  4 22  1  0
 21 22  1  0
M  END
