piperidine-amides-34171-covalent
     RDKit          3D

 26 28  0  0  0  0  0  0  0  0999 V2000
    7.0170   -3.3040   19.3420 C   0  0  0  0  0  0  0  0  0  0  0  0
    6.3840   -4.1820   20.3410 C   0  0  0  0  0  0  0  0  0  0  0  0
    5.4240   -4.9070   19.9940 O   0  0  0  0  0  0  0  0  0  0  0  0
    6.8540   -4.2530   21.6670 N   0  0  0  0  0  0  0  0  0  0  0  0
    6.6510   -5.4880   22.3870 C   0  0  0  0  0  0  0  0  0  0  0  0
    6.3070   -5.1420   23.8500 C   0  0  0  0  0  0  0  0  0  0  0  0
    6.2340   -3.6300   23.9810 C   0  0  0  0  0  0  0  0  0  0  0  0
    5.6730   -3.2290   25.3060 C   0  0  0  0  0  0  0  0  0  0  0  0
    4.4460   -3.4220   25.4450 O   0  0  0  0  0  0  0  0  0  0  0  0
    6.4090   -2.6360   26.3880 N   0  0  0  0  0  0  0  0  0  0  0  0
    5.6200   -2.1920   27.5460 C   0  0  0  0  0  0  0  0  0  0  0  0
    5.6340   -3.3370   28.5180 C   0  0  0  0  0  0  0  0  0  0  0  0
    6.4810   -4.2150   28.0300 C   0  0  0  0  0  0  0  0  0  0  0  0
    6.4490   -5.4160   28.2270 O   0  0  0  0  0  0  0  0  0  0  0  0
    6.9660   -5.9720   27.1120 C   0  0  0  0  0  0  0  0  0  0  0  0
    8.3020   -5.5940   26.9870 C   0  0  0  0  0  0  0  0  0  0  0  0
    8.8410   -5.1550   28.0330 C   0  0  0  0  0  0  0  0  0  0  0  0
   10.1870   -4.6980   28.2600 C   0  0  0  0  0  0  0  0  0  0  0  0
   11.0640   -4.8420   26.8990 C   0  0  0  0  0  0  0  0  0  0  0  0
   13.5150   -4.2950   27.0340 Br  0  0  0  0  0  0  0  0  0  0  0  0
   10.4230   -5.3410   25.5750 C   0  0  0  0  0  0  0  0  0  0  0  0
    9.0070   -5.6740   25.8460 C   0  0  0  0  0  0  0  0  0  0  0  0
    7.8770   -3.7600   27.7930 C   0  0  0  0  0  0  0  0  0  0  0  0
    7.7890   -3.0520   26.6300 C   0  0  0  0  0  0  0  0  0  0  0  0
    7.5600   -2.9950   23.6380 C   0  0  0  0  0  0  0  0  0  0  0  0
    7.7770   -3.2500   22.1650 C   0  0  0  0  0  0  0  0  0  0  0  0
  1  2  1  0
  2  3  2  0
  2  4  1  0
  4  5  1  0
  5  6  1  0
  6  7  1  0
  7  8  1  0
  8  9  2  0
  8 10  1  0
 10 11  1  0
 11 12  1  0
 12 13  1  0
 13 14  1  0
 14 15  1  0
 15 16  1  0
 16 17  2  0
 17 18  1  0
 18 19  2  0
 19 20  1  0
 19 21  1  0
 16 22  1  0
 21 22  2  0
 13 23  1  0
 10 24  1  0
 23 24  1  0
  7 25  1  0
  4 26  1  0
 25 26  1  0
M  END
