piperidine-amides-7103-covalent
     RDKit          3D

 22 23  0  0  0  0  0  0  0  0999 V2000
    7.1320   -3.2840   19.2240 C   0  0  0  0  0  0  0  0  0  0  0  0
    6.3400   -4.0200   20.2150 C   0  0  0  0  0  0  0  0  0  0  0  0
    5.2570   -4.5500   19.8840 O   0  0  0  0  0  0  0  0  0  0  0  0
    6.8080   -4.1930   21.5180 N   0  0  0  0  0  0  0  0  0  0  0  0
    7.6610   -3.1890   22.1210 C   0  0  0  0  0  0  0  0  0  0  0  0
    6.8820   -2.6250   23.3080 C   0  0  0  0  0  0  0  0  0  0  0  0
    6.5960   -3.8080   24.2040 C   0  0  0  0  0  0  0  0  0  0  0  0
    5.8180   -3.3330   25.3680 C   0  0  0  0  0  0  0  0  0  0  0  0
    4.5730   -3.2610   25.2790 O   0  0  0  0  0  0  0  0  0  0  0  0
    6.5110   -2.9610   26.5410 N   0  0  0  0  0  0  0  0  0  0  0  0
    6.2130   -3.5350   27.8290 C   0  0  0  0  0  0  0  0  0  0  0  0
    5.4440   -4.8380   27.7070 C   0  0  1  0  0  0  0  0  0  0  0  0
    5.9990   -5.5420   26.6180 O   0  0  0  0  0  0  0  0  0  0  0  0
    5.3570   -5.6390   28.8120 C   0  0  0  0  0  0  0  0  0  0  0  0
    6.1800   -6.6420   29.0900 C   0  0  0  0  0  0  0  0  0  0  0  0
    5.9450   -7.3400   30.2270 C   0  0  0  0  0  0  0  0  0  0  0  0
    4.9000   -7.0200   31.0600 C   0  0  0  0  0  0  0  0  0  0  0  0
    3.8140   -5.9180   30.9770 C   0  0  0  0  0  0  0  0  0  0  0  0
    2.7770   -5.5860   31.7880 F   0  0  0  0  0  0  0  0  0  0  0  0
    4.3210   -5.3280   29.6450 C   0  0  0  0  0  0  0  0  0  0  0  0
    5.8510   -4.9120   23.5620 C   0  0  0  0  0  0  0  0  0  0  0  0
    6.4240   -5.3230   22.2810 C   0  0  0  0  0  0  0  0  0  0  0  0
  1  2  1  0
  2  3  2  0
  2  4  1  0
  4  5  1  0
  5  6  1  0
  6  7  1  0
  7  8  1  0
  8  9  2  0
  8 10  1  0
 10 11  1  0
 11 12  1  0
 12 13  1  6
 12 14  1  0
 14 15  2  0
 15 16  1  0
 16 17  2  0
 17 18  1  0
 18 19  1  0
 14 20  1  0
 18 20  2  0
  7 21  1  0
  4 22  1  0
 21 22  1  0
M  END
