piperidine-amides-7080-covalent
     RDKit          3D

 22 23  0  0  0  0  0  0  0  0999 V2000
    7.1120   -3.3240   19.3160 C   0  0  0  0  0  0  0  0  0  0  0  0
    6.3550   -4.1340   20.2760 C   0  0  0  0  0  0  0  0  0  0  0  0
    5.2990   -4.7050   19.9350 O   0  0  0  0  0  0  0  0  0  0  0  0
    6.8530   -4.3170   21.5670 N   0  0  0  0  0  0  0  0  0  0  0  0
    7.6320   -3.2670   22.1800 C   0  0  0  0  0  0  0  0  0  0  0  0
    6.7730   -2.7200   23.3150 C   0  0  0  0  0  0  0  0  0  0  0  0
    6.5350   -3.9150   24.1960 C   0  0  0  0  0  0  0  0  0  0  0  0
    5.7850   -3.4870   25.3950 C   0  0  0  0  0  0  0  0  0  0  0  0
    4.5470   -3.7110   25.4660 O   0  0  0  0  0  0  0  0  0  0  0  0
    6.4660   -2.7960   26.4230 N   0  0  0  0  0  0  0  0  0  0  0  0
    6.3200   -1.3710   26.3860 C   0  0  0  0  0  0  0  0  0  0  0  0
    6.3110   -0.0610   27.1490 C   0  0  0  0  0  0  0  0  0  0  0  0
    6.4360    0.7010   28.3750 N   0  0  0  0  0  0  0  0  0  0  0  0
    6.7140   -0.0950   29.5230 C   0  0  0  0  0  0  0  0  0  0  0  0
    6.8780    0.3970   30.7840 C   0  0  0  0  0  0  0  0  0  0  0  0
    8.1340    0.0870   31.2900 C   0  0  0  0  0  0  0  0  0  0  0  0
    6.6770    1.7500   30.8240 C   0  0  0  0  0  0  0  0  0  0  0  0
    5.8360   -0.0200   31.5950 C   0  0  0  0  0  0  0  0  0  0  0  0
    6.7970   -1.3880   29.2080 N   0  0  0  0  0  0  0  0  0  0  0  0
    6.6050   -1.7980   27.8170 C   0  0  0  0  0  0  0  0  0  0  0  0
    5.8180   -5.0260   23.5530 C   0  0  0  0  0  0  0  0  0  0  0  0
    6.4740   -5.4620   22.3220 C   0  0  0  0  0  0  0  0  0  0  0  0
  1  2  1  0
  2  3  2  0
  2  4  1  0
  4  5  1  0
  5  6  1  0
  6  7  1  0
  7  8  1  0
  8  9  2  0
  8 10  1  0
 10 11  1  0
 11 12  2  0
 12 13  1  0
 13 14  2  0
 14 15  1  0
 15 16  1  0
 15 17  1  0
 15 18  1  0
 14 19  1  0
 11 20  1  0
 19 20  2  0
  7 21  1  0
  4 22  1  0
 21 22  1  0
M  END
