piperidine-amides-3289-covalent
     RDKit          3D

 22 23  0  0  0  0  0  0  0  0999 V2000
    7.0220   -3.3520   19.3350 C   0  0  0  0  0  0  0  0  0  0  0  0
    6.3530   -4.1730   20.3430 C   0  0  0  0  0  0  0  0  0  0  0  0
    5.4030   -4.8770   19.9960 O   0  0  0  0  0  0  0  0  0  0  0  0
    6.8120   -4.2020   21.7110 N   0  0  0  0  0  0  0  0  0  0  0  0
    7.7100   -3.1750   22.2010 C   0  0  0  0  0  0  0  0  0  0  0  0
    7.4800   -2.9660   23.6670 C   0  0  0  0  0  0  0  0  0  0  0  0
    6.1150   -3.5490   23.9630 C   0  0  0  0  0  0  0  0  0  0  0  0
    5.5660   -3.1410   25.3020 C   0  0  0  0  0  0  0  0  0  0  0  0
    4.3440   -2.9850   25.4660 O   0  0  0  0  0  0  0  0  0  0  0  0
    6.4190   -2.9330   26.4240 N   0  0  0  0  0  0  0  0  0  0  0  0
    6.6800   -1.5870   26.9350 C   0  0  0  0  0  0  0  0  0  0  0  0
    5.5730   -0.6800   26.4740 C   0  0  0  0  0  0  0  0  0  0  0  0
    5.4450    0.5300   27.1120 C   0  0  0  0  0  0  0  0  0  0  0  0
    5.7010    0.3780   28.5020 N   0  0  0  0  0  0  0  0  0  0  0  0
    4.5250    0.4830   29.3250 C   0  0  0  0  0  0  0  0  0  0  0  0
    4.7240    1.1720   30.5050 C   0  0  0  0  0  0  0  0  0  0  0  0
    3.6280    1.9540   30.7810 F   0  0  0  0  0  0  0  0  0  0  0  0
    4.9450    0.2790   31.5820 F   0  0  0  0  0  0  0  0  0  0  0  0
    6.4950   -0.6010   29.1770 C   0  0  0  0  0  0  0  0  0  0  0  0
    7.0670   -1.5030   28.2930 C   0  0  0  0  0  0  0  0  0  0  0  0
    6.2210   -5.0650   23.8330 C   0  0  0  0  0  0  0  0  0  0  0  0
    6.4650   -5.3880   22.4870 C   0  0  0  0  0  0  0  0  0  0  0  0
  1  2  1  0
  2  3  2  0
  2  4  1  0
  4  5  1  0
  5  6  1  0
  6  7  1  0
  7  8  1  0
  8  9  2  0
  8 10  1  0
 10 11  1  0
 11 12  1  0
 12 13  1  0
 13 14  1  0
 14 15  1  0
 15 16  1  0
 16 17  1  0
 16 18  1  0
 14 19  1  0
 11 20  1  0
 19 20  1  0
  7 21  1  0
  4 22  1  0
 21 22  1  0
M  END
