piperidine-amides-35407-covalent
     RDKit          3D

 35 39  0  0  0  0  0  0  0  0999 V2000
    6.9900   -3.3760   19.4490 C   0  0  0  0  0  0  0  0  0  0  0  0
    6.3700   -4.2980   20.4430 C   0  0  0  0  0  0  0  0  0  0  0  0
    5.4380   -4.9870   20.0160 O   0  0  0  0  0  0  0  0  0  0  0  0
    6.8550   -4.3840   21.7690 N   0  0  0  0  0  0  0  0  0  0  0  0
    6.6040   -5.5670   22.5840 C   0  0  0  0  0  0  0  0  0  0  0  0
    6.0060   -5.2110   23.9420 C   0  0  0  0  0  0  0  0  0  0  0  0
    5.9450   -3.6930   24.0840 C   0  0  0  0  0  0  0  0  0  0  0  0
    5.2880   -3.2130   25.3570 C   0  0  0  0  0  0  0  0  0  0  0  0
    4.6150   -2.1930   25.2500 O   0  0  0  0  0  0  0  0  0  0  0  0
    5.3500   -3.7870   26.6670 N   0  0  0  0  0  0  0  0  0  0  0  0
    6.5050   -3.4650   27.3770 C   0  0  0  0  0  0  0  0  0  0  0  0
    6.7770   -4.6650   28.2850 C   0  0  0  0  0  0  0  0  0  0  0  0
    5.8000   -5.0840   29.0740 C   0  0  0  0  0  0  0  0  0  0  0  0
    5.6220   -5.8980   30.1970 N   0  0  0  0  0  0  0  0  0  0  0  0
    4.2250   -5.9520   30.5930 C   0  0  0  0  0  0  0  0  0  0  0  0
    3.5550   -5.1700   29.7020 N   0  0  0  0  0  0  0  0  0  0  0  0
    2.1480   -4.8270   29.5640 C   0  0  0  0  0  0  0  0  0  0  0  0
    4.4730   -4.5850   28.7060 C   0  0  0  0  0  0  0  0  0  0  0  0
    4.2200   -3.6690   27.5230 C   0  0  1  0  0  0  0  0  0  0  0  0
    3.7730   -2.4330   28.2820 C   0  0  0  0  0  0  0  0  0  0  0  0
    2.5810   -1.9850   27.4860 C   0  0  0  0  0  0  0  0  0  0  0  0
    1.9480   -3.1880   27.0940 N   0  0  0  0  0  0  0  0  0  0  0  0
    0.7810   -2.8420   26.2660 C   0  0  0  0  0  0  0  0  0  0  0  0
    0.4290   -3.4850   25.2180 O   0  0  0  0  0  0  0  0  0  0  0  0
   -0.0040   -1.8910   26.4880 O   0  0  0  0  0  0  0  0  0  0  0  0
   -1.2610   -2.2150   27.1120 C   0  0  0  0  0  0  0  0  0  0  0  0
   -1.8870   -0.9310   27.5460 C   0  0  0  0  0  0  0  0  0  0  0  0
   -1.6500    0.3470   26.7700 C   0  0  0  0  0  0  0  0  0  0  0  0
   -2.2040    1.5580   27.1260 C   0  0  0  0  0  0  0  0  0  0  0  0
   -3.0940    1.6760   28.3290 C   0  0  0  0  0  0  0  0  0  0  0  0
   -3.3380    0.3900   29.1180 C   0  0  0  0  0  0  0  0  0  0  0  0
   -2.6860   -0.9150   28.6580 C   0  0  0  0  0  0  0  0  0  0  0  0
    2.9730   -4.1390   26.7460 C   0  0  0  0  0  0  0  0  0  0  0  0
    7.1890   -3.0080   23.7420 C   0  0  0  0  0  0  0  0  0  0  0  0
    7.6520   -3.3510   22.3700 C   0  0  0  0  0  0  0  0  0  0  0  0
  1  2  1  0
  2  3  2  0
  2  4  1  0
  4  5  1  0
  5  6  1  0
  6  7  1  0
  7  8  1  0
  8  9  2  0
  8 10  1  0
 10 11  1  0
 11 12  1  0
 12 13  1  0
 13 14  1  0
 14 15  2  0
 15 16  1  0
 16 17  1  0
 13 18  2  0
 16 18  1  0
 19 10  1  0
 18 19  1  0
 19 20  1  1
 20 21  1  0
 21 22  1  0
 22 23  1  0
 23 24  2  0
 23 25  1  0
 25 26  1  0
 26 27  1  0
 27 28  2  0
 28 29  1  0
 29 30  2  0
 30 31  1  0
 27 32  1  0
 31 32  2  0
 19 33  1  0
 22 33  1  0
  7 34  1  0
  4 35  1  0
 34 35  1  0
M  END
