piperidine-amides-33180-covalent
     RDKit          3D

 28 30  0  0  0  0  0  0  0  0999 V2000
    7.0440   -3.3330   19.2880 C   0  0  0  0  0  0  0  0  0  0  0  0
    6.3600   -4.1280   20.3170 C   0  0  0  0  0  0  0  0  0  0  0  0
    5.3340   -4.7520   19.9580 O   0  0  0  0  0  0  0  0  0  0  0  0
    6.8710   -4.2260   21.6360 N   0  0  0  0  0  0  0  0  0  0  0  0
    6.5420   -5.3630   22.4180 C   0  0  0  0  0  0  0  0  0  0  0  0
    6.2800   -5.0910   23.8360 C   0  0  0  0  0  0  0  0  0  0  0  0
    6.6870   -3.7620   24.3710 C   0  0  0  0  0  0  0  0  0  0  0  0
    5.7510   -3.3550   25.4900 C   0  0  0  0  0  0  0  0  0  0  0  0
    4.5250   -3.4290   25.2780 O   0  0  0  0  0  0  0  0  0  0  0  0
    6.1730   -2.8510   26.7610 N   0  0  0  0  0  0  0  0  0  0  0  0
    5.9280   -1.5220   27.1520 C   0  0  0  0  0  0  0  0  0  0  0  0
    6.8340   -0.6410   27.6110 C   0  0  0  0  0  0  0  0  0  0  0  0
    6.3450   -0.4500   26.1230 C   0  0  0  0  0  0  0  0  0  0  0  0
    6.2400   -3.6990   27.9320 C   0  0  2  0  0  0  0  0  0  0  0  0
    5.8640   -5.1610   27.7420 C   0  0  0  0  0  0  0  0  0  0  0  0
    5.7580   -5.6760   26.4540 O   0  0  0  0  0  0  0  0  0  0  0  0
    5.6390   -5.9380   28.8460 O   0  0  0  0  0  0  0  0  0  0  0  0
    4.4040   -6.3130   28.8080 C   0  0  0  0  0  0  0  0  0  0  0  0
    4.2810   -7.5210   27.8950 C   0  0  0  0  0  0  0  0  0  0  0  0
    5.4780   -3.0420   28.8910 C   0  0  0  0  0  0  0  0  0  0  0  0
    4.0300   -3.4230   29.1500 C   0  0  0  0  0  0  0  0  0  0  0  0
    3.2220   -2.6680   30.2190 C   0  0  0  0  0  0  0  0  0  0  0  0
    3.9630   -1.5910   30.9240 C   0  0  0  0  0  0  0  0  0  0  0  0
    3.1190   -0.6580   32.1770 Cl  0  0  0  0  0  0  0  0  0  0  0  0
    5.2910   -1.3230   30.6060 C   0  0  0  0  0  0  0  0  0  0  0  0
    6.0120   -2.0080   29.6470 C   0  0  0  0  0  0  0  0  0  0  0  0
    6.7260   -2.7050   23.3200 C   0  0  0  0  0  0  0  0  0  0  0  0
    7.5390   -3.1220   22.2750 C   0  0  0  0  0  0  0  0  0  0  0  0
  1  2  1  0
  2  3  2  0
  2  4  1  0
  4  5  1  0
  5  6  1  0
  6  7  1  0
  7  8  1  0
  8  9  2  0
  8 10  1  0
 10 11  1  0
 11 12  1  0
 11 13  1  0
 12 13  1  0
 10 14  1  0
 14 15  1  6
 15 16  2  0
 15 17  1  0
 17 18  1  0
 18 19  1  0
 14 20  1  0
 20 21  2  0
 21 22  1  0
 22 23  2  0
 23 24  1  0
 23 25  1  0
 20 26  1  0
 25 26  2  0
  7 27  1  0
  4 28  1  0
 27 28  1  0
M  END
