piperidine-amides-2089-covalent
     RDKit          3D

 20 21  0  0  0  0  0  0  0  0999 V2000
    7.0980   -3.2600   19.2080 C   0  0  0  0  0  0  0  0  0  0  0  0
    6.3250   -4.0420   20.2130 C   0  0  0  0  0  0  0  0  0  0  0  0
    5.2590   -4.5330   19.8630 O   0  0  0  0  0  0  0  0  0  0  0  0
    6.8450   -4.2290   21.4850 N   0  0  0  0  0  0  0  0  0  0  0  0
    6.5730   -5.4060   22.2740 C   0  0  0  0  0  0  0  0  0  0  0  0
    5.7720   -5.0400   23.5010 C   0  0  0  0  0  0  0  0  0  0  0  0
    5.9460   -3.5540   23.8340 C   0  0  0  0  0  0  0  0  0  0  0  0
    5.6180   -3.3600   25.2540 C   0  0  0  0  0  0  0  0  0  0  0  0
    4.4890   -2.9600   25.5660 O   0  0  0  0  0  0  0  0  0  0  0  0
    6.5800   -3.6160   26.2470 N   0  0  0  0  0  0  0  0  0  0  0  0
    6.5320   -4.8800   26.9450 C   0  0  0  0  0  0  0  0  0  0  0  0
    5.4310   -4.7420   27.9740 C   0  0  2  0  0  0  0  0  0  0  0  0
    5.0350   -3.5760   28.5700 C   0  0  0  0  0  0  0  0  0  0  0  0
    5.6470   -4.5150   29.3620 C   0  0  0  0  0  0  0  0  0  0  0  0
    5.8240   -5.6800   30.0880 O   0  0  0  0  0  0  0  0  0  0  0  0
    5.9320   -6.7940   29.2900 C   0  0  0  0  0  0  0  0  0  0  0  0
    4.8820   -6.8510   28.2030 C   0  0  0  0  0  0  0  0  0  0  0  0
    4.4180   -5.6340   27.7430 O   0  0  0  0  0  0  0  0  0  0  0  0
    7.3080   -3.0770   23.5180 C   0  0  0  0  0  0  0  0  0  0  0  0
    7.6160   -3.1650   22.0740 C   0  0  0  0  0  0  0  0  0  0  0  0
  1  2  1  0
  2  3  2  0
  2  4  1  0
  4  5  1  0
  5  6  1  0
  6  7  1  0
  7  8  1  0
  8  9  2  0
  8 10  1  0
 10 11  1  0
 12 11  1  0
 12 13  1  6
 12 14  1  0
 14 15  1  0
 15 16  1  0
 16 17  1  0
 12 18  1  0
 17 18  1  0
  7 19  1  0
  4 20  1  0
 19 20  1  0
M  END
