piperidine-amides-35674-covalent
     RDKit          3D

 44 48  0  0  0  0  0  0  0  0999 V2000
    7.0690   -3.3220   19.3270 C   0  0  0  0  0  0  0  0  0  0  0  0
    6.3910   -4.1820   20.3300 C   0  0  0  0  0  0  0  0  0  0  0  0
    5.3810   -4.7860   19.9670 O   0  0  0  0  0  0  0  0  0  0  0  0
    6.9310   -4.3140   21.6140 N   0  0  0  0  0  0  0  0  0  0  0  0
    7.7350   -3.2850   22.2240 C   0  0  0  0  0  0  0  0  0  0  0  0
    7.0260   -2.7410   23.4290 C   0  0  0  0  0  0  0  0  0  0  0  0
    6.6930   -3.8700   24.4110 C   0  0  0  0  0  0  0  0  0  0  0  0
    5.9100   -3.2580   25.5010 C   0  0  0  0  0  0  0  0  0  0  0  0
    4.7200   -2.9660   25.2980 O   0  0  0  0  0  0  0  0  0  0  0  0
    6.4970   -3.0350   26.7660 N   0  0  0  0  0  0  0  0  0  0  0  0
    6.8160   -4.2630   27.4860 C   0  0  0  0  0  0  0  0  0  0  0  0
    8.1690   -4.7960   27.0480 C   0  0  0  0  0  0  0  0  0  0  0  0
    6.3950   -1.7340   27.3120 C   0  0  0  0  0  0  0  0  0  0  0  0
    5.4040   -0.8900   26.8370 C   0  0  0  0  0  0  0  0  0  0  0  0
    5.2270    0.4150   27.3230 C   0  0  0  0  0  0  0  0  0  0  0  0
    4.2110    1.1500   26.7660 O   0  0  0  0  0  0  0  0  0  0  0  0
    3.9620    2.4020   27.2360 C   0  0  0  0  0  0  0  0  0  0  0  0
    2.7590    3.0400   26.6110 C   0  0  0  0  0  0  0  0  0  0  0  0
    2.4850    4.4300   27.1240 C   0  0  0  0  0  0  0  0  0  0  0  0
    1.4120    4.9920   26.6540 N   0  0  0  0  0  0  0  0  0  0  0  0
    1.2190    6.3310   27.1960 C   0  0  0  0  0  0  0  0  0  0  0  0
    0.0110    7.0860   26.7590 C   0  0  0  0  0  0  0  0  0  0  0  0
    3.4480    5.0520   28.1100 C   0  0  0  0  0  0  0  0  0  0  0  0
    3.3270    6.4470   28.6220 C   0  0  0  0  0  0  0  0  0  0  0  0
    4.5290    4.3250   28.5960 C   0  0  0  0  0  0  0  0  0  0  0  0
    4.7600    3.0230   28.2030 C   0  0  0  0  0  0  0  0  0  0  0  0
    5.8920    2.2380   28.8020 C   0  0  0  0  0  0  0  0  0  0  0  0
    6.8590    2.8150   29.8470 C   0  0  0  0  0  0  0  0  0  0  0  0
    8.1710    3.4010   29.3220 C   0  0  0  0  0  0  0  0  0  0  0  0
    9.1100    3.9380   30.1530 C   0  0  0  0  0  0  0  0  0  0  0  0
    8.8050    3.9330   31.6530 C   0  0  0  0  0  0  0  0  0  0  0  0
    7.5370    3.3710   32.1910 C   0  0  0  0  0  0  0  0  0  0  0  0
    6.5480    2.7930   31.1840 C   0  0  0  0  0  0  0  0  0  0  0  0
    5.2580    2.2150   31.7210 C   0  0  0  0  0  0  0  0  0  0  0  0
    4.2230    2.9140   31.8200 O   0  0  0  0  0  0  0  0  0  0  0  0
    5.1710    0.8850   32.1330 O   0  0  0  0  0  0  0  0  0  0  0  0
    4.1300    0.3460   32.8940 C   0  0  0  0  0  0  0  0  0  0  0  0
    4.7730   -0.6060   33.9110 C   0  0  0  0  0  0  0  0  0  0  0  0
    6.0490    0.9590   28.3340 C   0  0  0  0  0  0  0  0  0  0  0  0
    7.1050    0.0690   28.8530 C   0  0  0  0  0  0  0  0  0  0  0  0
    7.2370   -1.3000   28.2830 C   0  0  0  0  0  0  0  0  0  0  0  0
    8.3130   -2.1460   28.7890 C   0  0  0  0  0  0  0  0  0  0  0  0
    5.9270   -4.9660   23.7000 C   0  0  0  0  0  0  0  0  0  0  0  0
    6.5520   -5.4340   22.4200 C   0  0  0  0  0  0  0  0  0  0  0  0
  1  2  1  0
  2  3  2  0
  2  4  1  0
  4  5  1  0
  5  6  1  0
  6  7  1  0
  7  8  1  0
  8  9  2  0
  8 10  1  0
 10 11  1  0
 11 12  1  0
 10 13  1  0
 13 14  2  0
 14 15  1  0
 15 16  1  0
 16 17  1  0
 17 18  2  0
 18 19  1  0
 19 20  2  3
 20 21  1  0
 21 22  1  0
 19 23  1  0
 23 24  1  0
 23 25  2  0
 17 26  1  0
 25 26  1  0
 26 27  2  0
 27 28  1  0
 28 29  2  0
 29 30  1  0
 30 31  2  0
 31 32  1  0
 28 33  1  0
 32 33  2  0
 33 34  1  0
 34 35  2  0
 34 36  1  0
 36 37  1  0
 37 38  1  0
 15 39  2  0
 27 39  1  0
 39 40  1  0
 13 41  1  0
 40 41  2  0
 41 42  1  0
  7 43  1  0
  4 44  1  0
 43 44  1  0
M  END
