piperidine-amides-35542-covalent
     RDKit          3D

 36 38  0  0  0  0  0  0  0  0999 V2000
    7.1020   -3.2910   19.2790 C   0  0  0  0  0  0  0  0  0  0  0  0
    6.4030   -4.1050   20.3050 C   0  0  0  0  0  0  0  0  0  0  0  0
    5.3820   -4.6970   19.9480 O   0  0  0  0  0  0  0  0  0  0  0  0
    6.9390   -4.2030   21.5970 N   0  0  0  0  0  0  0  0  0  0  0  0
    7.7770   -3.1510   22.1490 C   0  0  0  0  0  0  0  0  0  0  0  0
    7.4020   -2.8680   23.5770 C   0  0  0  0  0  0  0  0  0  0  0  0
    6.0290   -3.4670   23.8500 C   0  0  0  0  0  0  0  0  0  0  0  0
    5.5430   -2.9800   25.1550 C   0  0  0  0  0  0  0  0  0  0  0  0
    4.4540   -2.3990   25.1970 O   0  0  0  0  0  0  0  0  0  0  0  0
    6.2540   -3.1760   26.3460 N   0  0  0  0  0  0  0  0  0  0  0  0
    5.8440   -4.3640   27.0700 C   0  0  0  0  0  0  0  0  0  0  0  0
    6.2420   -4.3830   28.5200 C   0  0  0  0  0  0  0  0  0  0  0  0
    5.3130   -4.8390   29.4100 C   0  0  0  0  0  0  0  0  0  0  0  0
    4.0720   -4.3390   29.6920 C   0  0  0  0  0  0  0  0  0  0  0  0
    3.3680   -5.0430   30.6420 C   0  0  0  0  0  0  0  0  0  0  0  0
    3.8100   -6.2770   31.3930 C   0  0  0  0  0  0  0  0  0  0  0  0
    3.0590   -6.9400   32.3290 O   0  0  0  0  0  0  0  0  0  0  0  0
    2.6220   -8.2240   31.9790 C   0  0  0  0  0  0  0  0  0  0  0  0
    5.1790   -6.7120   31.0000 C   0  0  0  0  0  0  0  0  0  0  0  0
    5.8640   -7.7960   31.5230 O   0  0  0  0  0  0  0  0  0  0  0  0
    5.6700   -8.2610   32.8310 C   0  0  0  0  0  0  0  0  0  0  0  0
    5.9420   -5.9460   29.9540 C   0  0  0  0  0  0  0  0  0  0  0  0
    6.6620   -2.0970   27.2890 C   0  0  0  0  0  0  0  0  0  0  0  0
    5.6200   -1.3090   27.9980 C   0  0  2  0  0  0  0  0  0  0  0  0
    5.1870   -0.1850   27.3210 O   0  0  0  0  0  0  0  0  0  0  0  0
    6.1970   -0.8050   29.3080 C   0  0  0  0  0  0  0  0  0  0  0  0
    7.1100    0.3440   29.3800 O   0  0  0  0  0  0  0  0  0  0  0  0
    6.8460    1.4190   30.2500 C   0  0  0  0  0  0  0  0  0  0  0  0
    6.3450    1.2530   31.6600 C   0  0  0  0  0  0  0  0  0  0  0  0
    6.1040    2.4940   32.4810 C   0  0  0  0  0  0  0  0  0  0  0  0
    6.3910    3.8040   31.8010 C   0  0  0  0  0  0  0  0  0  0  0  0
    6.8480    3.8740   30.5090 C   0  0  0  0  0  0  0  0  0  0  0  0
    7.1250    5.2350   29.8640 C   0  0  0  0  0  0  0  0  0  0  0  0
    7.0650    2.7120   29.7680 C   0  0  0  0  0  0  0  0  0  0  0  0
    6.0240   -4.9430   23.7150 C   0  0  0  0  0  0  0  0  0  0  0  0
    6.6110   -5.3660   22.3970 C   0  0  0  0  0  0  0  0  0  0  0  0
  1  2  1  0
  2  3  2  0
  2  4  1  0
  4  5  1  0
  5  6  1  0
  6  7  1  0
  7  8  1  0
  8  9  2  0
  8 10  1  0
 10 11  1  0
 11 12  1  0
 12 13  1  0
 13 14  2  0
 14 15  1  0
 15 16  2  0
 16 17  1  0
 17 18  1  0
 16 19  1  0
 19 20  1  0
 20 21  1  0
 13 22  1  0
 19 22  2  0
 10 23  1  0
 23 24  1  0
 24 25  1  6
 24 26  1  0
 26 27  1  0
 27 28  1  0
 28 29  2  0
 29 30  1  0
 30 31  2  0
 31 32  1  0
 32 33  1  0
 28 34  1  0
 32 34  2  0
  7 35  1  0
  4 36  1  0
 35 36  1  0
M  END
