piperidine-amides-29283-covalent
     RDKit          3D

 26 27  0  0  0  0  0  0  0  0999 V2000
    7.0830   -3.2730   19.2500 C   0  0  0  0  0  0  0  0  0  0  0  0
    6.3570   -4.0550   20.2550 C   0  0  0  0  0  0  0  0  0  0  0  0
    5.2940   -4.5960   19.9030 O   0  0  0  0  0  0  0  0  0  0  0  0
    6.8820   -4.2320   21.5620 N   0  0  0  0  0  0  0  0  0  0  0  0
    7.7100   -3.1990   22.1400 C   0  0  0  0  0  0  0  0  0  0  0  0
    7.4880   -3.1570   23.6190 C   0  0  0  0  0  0  0  0  0  0  0  0
    6.0920   -3.6880   23.8010 C   0  0  0  0  0  0  0  0  0  0  0  0
    5.4310   -3.2460   25.0640 C   0  0  0  0  0  0  0  0  0  0  0  0
    4.2050   -3.2780   25.0580 O   0  0  0  0  0  0  0  0  0  0  0  0
    6.1830   -2.8560   26.1510 N   0  0  0  0  0  0  0  0  0  0  0  0
    6.5390   -1.4790   26.3010 C   0  0  0  0  0  0  0  0  0  0  0  0
    6.1440   -0.5860   25.2810 C   0  0  0  0  0  0  0  0  0  0  0  0
    4.8640   -0.6730   24.7800 C   0  0  0  0  0  0  0  0  0  0  0  0
    4.1670    0.4560   24.3690 C   0  0  0  0  0  0  0  0  0  0  0  0
    4.6680    0.6730   22.9720 C   0  0  0  0  0  0  0  0  0  0  0  0
    4.5430   -0.5550   22.0420 C   0  0  0  0  0  0  0  0  0  0  0  0
    5.9900   -3.5960   27.3680 C   0  0  0  0  0  0  0  0  0  0  0  0
    6.6090   -2.9450   28.5550 C   0  0  0  0  0  0  0  0  0  0  0  0
    5.8020   -2.2710   29.3990 N   0  0  0  0  0  0  0  0  0  0  0  0
    4.3950   -2.0760   29.2360 C   0  0  0  0  0  0  0  0  0  0  0  0
    3.6920   -1.4640   30.2420 C   0  0  0  0  0  0  0  0  0  0  0  0
    4.4830   -1.3010   31.2100 O   0  0  0  0  0  0  0  0  0  0  0  0
    5.4460   -0.3760   30.7930 C   0  0  0  0  0  0  0  0  0  0  0  0
    6.3960   -1.0170   29.8020 C   0  0  0  0  0  0  0  0  0  0  0  0
    6.1650   -5.2100   23.6700 C   0  0  0  0  0  0  0  0  0  0  0  0
    6.6790   -5.4660   22.2650 C   0  0  0  0  0  0  0  0  0  0  0  0
  1  2  1  0
  2  3  2  0
  2  4  1  0
  4  5  1  0
  5  6  1  0
  6  7  1  0
  7  8  1  0
  8  9  2  0
  8 10  1  0
 10 11  1  0
 11 12  1  0
 12 13  1  0
 13 14  1  0
 14 15  1  0
 15 16  1  0
 10 17  1  0
 17 18  1  0
 18 19  1  0
 19 20  1  0
 20 21  1  0
 21 22  1  0
 22 23  1  0
 19 24  1  0
 23 24  1  0
  7 25  1  0
  4 26  1  0
 25 26  1  0
M  END
