piperidine-amides-14623-covalent
     RDKit          3D

 23 24  0  0  0  0  0  0  0  0999 V2000
    7.0730   -3.3580   19.3290 C   0  0  0  0  0  0  0  0  0  0  0  0
    6.3750   -4.1670   20.3220 C   0  0  0  0  0  0  0  0  0  0  0  0
    5.3560   -4.7860   19.9650 O   0  0  0  0  0  0  0  0  0  0  0  0
    6.8870   -4.2800   21.6390 N   0  0  0  0  0  0  0  0  0  0  0  0
    7.7000   -3.2200   22.1810 C   0  0  0  0  0  0  0  0  0  0  0  0
    6.9920   -2.6080   23.3430 C   0  0  0  0  0  0  0  0  0  0  0  0
    6.6570   -3.7660   24.2420 C   0  0  0  0  0  0  0  0  0  0  0  0
    5.8070   -3.2800   25.3790 C   0  0  0  0  0  0  0  0  0  0  0  0
    4.5900   -3.3170   25.1990 O   0  0  0  0  0  0  0  0  0  0  0  0
    6.4230   -2.8220   26.5440 N   0  0  0  0  0  0  0  0  0  0  0  0
    6.3560   -1.4330   26.8880 C   0  0  0  0  0  0  0  0  0  0  0  0
    5.9960   -0.4050   26.0280 C   0  0  0  0  0  0  0  0  0  0  0  0
    5.9430    0.9220   26.4330 C   0  0  0  0  0  0  0  0  0  0  0  0
    6.2290    1.4240   27.7080 C   0  0  0  0  0  0  0  0  0  0  0  0
    6.1510    3.1260   28.1930 Cl  0  0  0  0  0  0  0  0  0  0  0  0
    6.6180    0.3310   28.6390 C   0  0  0  0  0  0  0  0  0  0  0  0
    6.6880   -1.1370   28.2390 C   0  0  0  0  0  0  0  0  0  0  0  0
    7.0490   -2.0060   29.2240 N   0  0  0  0  0  0  0  0  0  0  0  0
    6.7780   -1.2640   30.4110 C   0  0  0  0  0  0  0  0  0  0  0  0
    7.9620   -0.4680   30.8790 C   0  0  0  0  0  0  0  0  0  0  0  0
    5.6850   -1.2170   31.0380 O   0  0  0  0  0  0  0  0  0  0  0  0
    5.9550   -4.9040   23.6210 C   0  0  0  0  0  0  0  0  0  0  0  0
    6.5790   -5.4000   22.4950 C   0  0  0  0  0  0  0  0  0  0  0  0
  1  2  1  0
  2  3  2  0
  2  4  1  0
  4  5  1  0
  5  6  1  0
  6  7  1  0
  7  8  1  0
  8  9  2  0
  8 10  1  0
 10 11  1  0
 11 12  2  0
 12 13  1  0
 13 14  2  0
 14 15  1  0
 14 16  1  0
 11 17  1  0
 16 17  2  0
 17 18  1  0
 18 19  1  0
 19 20  1  0
 19 21  2  0
  7 22  1  0
  4 23  1  0
 22 23  1  0
M  END
