piperidine-amides-31096-covalent
     RDKit          3D

 23 25  0  0  0  0  0  0  0  0999 V2000
    7.0600   -3.3120   19.3310 C   0  0  0  0  0  0  0  0  0  0  0  0
    6.3360   -4.1260   20.3170 C   0  0  0  0  0  0  0  0  0  0  0  0
    5.3200   -4.7360   19.9490 O   0  0  0  0  0  0  0  0  0  0  0  0
    6.7800   -4.2710   21.6460 N   0  0  0  0  0  0  0  0  0  0  0  0
    6.6870   -5.5430   22.3450 C   0  0  0  0  0  0  0  0  0  0  0  0
    6.1010   -5.2550   23.7060 C   0  0  0  0  0  0  0  0  0  0  0  0
    5.9490   -3.7880   23.9290 C   0  0  0  0  0  0  0  0  0  0  0  0
    5.4530   -3.4090   25.2770 C   0  0  0  0  0  0  0  0  0  0  0  0
    5.3030   -2.1880   25.5540 O   0  0  0  0  0  0  0  0  0  0  0  0
    5.0890   -4.3160   26.3090 N   0  0  0  0  0  0  0  0  0  0  0  0
    3.8660   -4.0030   27.0380 C   0  0  0  0  0  0  0  0  0  0  0  0
    4.7580   -4.1980   28.1470 C   0  0  0  0  0  0  0  0  0  0  0  0
    4.2180   -5.1790   28.9690 F   0  0  0  0  0  0  0  0  0  0  0  0
    4.9910   -3.0550   29.0500 C   0  0  0  0  0  0  0  0  0  0  0  0
    6.3560   -2.4310   28.8970 C   0  0  0  0  0  0  0  0  0  0  0  0
    6.6850   -1.2430   29.7810 C   0  0  0  0  0  0  0  0  0  0  0  0
    5.5800   -0.8470   30.7010 C   0  0  0  0  0  0  0  0  0  0  0  0
    4.3710   -1.4840   30.7640 C   0  0  0  0  0  0  0  0  0  0  0  0
    3.0810   -0.8530   31.9940 Br  0  0  0  0  0  0  0  0  0  0  0  0
    4.0740   -2.5750   29.9510 C   0  0  0  0  0  0  0  0  0  0  0  0
    5.8970   -4.6600   27.4730 C   0  0  0  0  0  0  0  0  0  0  0  0
    7.1890   -2.9850   23.6390 C   0  0  0  0  0  0  0  0  0  0  0  0
    7.6470   -3.2590   22.2290 C   0  0  0  0  0  0  0  0  0  0  0  0
  1  2  1  0
  2  3  2  0
  2  4  1  0
  4  5  1  0
  5  6  1  0
  6  7  1  0
  7  8  1  0
  8  9  2  0
  8 10  1  0
 10 11  1  0
 11 12  1  0
 12 13  1  0
 12 14  1  0
 14 15  2  0
 15 16  1  0
 16 17  2  0
 17 18  1  0
 18 19  1  0
 14 20  1  0
 18 20  2  0
 10 21  1  0
 12 21  1  0
  7 22  1  0
  4 23  1  0
 22 23  1  0
M  END
