piperidine-amides-24233-covalent
     RDKit          3D

 24 26  0  0  0  0  0  0  0  0999 V2000
    6.9930   -3.3610   19.3720 C   0  0  0  0  0  0  0  0  0  0  0  0
    6.3260   -4.2500   20.3400 C   0  0  0  0  0  0  0  0  0  0  0  0
    5.3350   -4.9130   19.9840 O   0  0  0  0  0  0  0  0  0  0  0  0
    6.8090   -4.4080   21.6440 N   0  0  0  0  0  0  0  0  0  0  0  0
    6.5870   -5.6720   22.3320 C   0  0  0  0  0  0  0  0  0  0  0  0
    5.9720   -5.4060   23.7280 C   0  0  0  0  0  0  0  0  0  0  0  0
    5.8710   -3.9100   23.8880 C   0  0  0  0  0  0  0  0  0  0  0  0
    5.2380   -3.4670   25.1610 C   0  0  0  0  0  0  0  0  0  0  0  0
    4.4640   -2.4990   25.0750 O   0  0  0  0  0  0  0  0  0  0  0  0
    5.4750   -4.0640   26.4340 N   0  0  0  0  0  0  0  0  0  0  0  0
    6.8210   -4.1630   26.7870 C   0  0  0  0  0  0  0  0  0  0  0  0
    7.1810   -5.5400   27.3100 C   0  0  0  0  0  0  0  0  0  0  0  0
    7.0360   -5.7150   28.6320 C   0  0  0  0  0  0  0  0  0  0  0  0
    5.8860   -5.1840   29.0840 C   0  0  0  0  0  0  0  0  0  0  0  0
    5.6270   -3.8610   28.7700 C   0  0  0  0  0  0  0  0  0  0  0  0
    4.8050   -3.5510   27.6940 C   0  0  2  0  0  0  0  0  0  0  0  0
    3.3330   -3.9400   27.7630 C   0  0  0  0  0  0  0  0  0  0  0  0
    3.5950   -2.4490   27.8440 C   0  0  0  0  0  0  0  0  0  0  0  0
    2.3720   -1.5590   27.9090 C   0  0  0  0  0  0  0  0  0  0  0  0
    2.6070   -2.1030   29.2700 C   0  0  0  0  0  0  0  0  0  0  0  0
    2.0420   -3.3700   29.5220 C   0  0  0  0  0  0  0  0  0  0  0  0
    2.4970   -4.3680   28.7320 C   0  0  0  0  0  0  0  0  0  0  0  0
    7.2360   -3.3220   23.7240 C   0  0  0  0  0  0  0  0  0  0  0  0
    7.5480   -3.3330   22.2600 C   0  0  0  0  0  0  0  0  0  0  0  0
  1  2  1  0
  2  3  2  0
  2  4  1  0
  4  5  1  0
  5  6  1  0
  6  7  1  0
  7  8  1  0
  8  9  2  0
  8 10  1  0
 10 11  1  0
 11 12  1  0
 12 13  1  0
 13 14  1  0
 14 15  1  0
 10 16  1  0
 15 16  1  0
 16 17  1  1
 17 18  1  0
 18 19  1  0
 19 20  1  0
 20 21  1  0
 17 22  1  0
 21 22  1  0
  7 23  1  0
  4 24  1  0
 23 24  1  0
M  END
