piperidine-amides-3404-covalent
     RDKit          3D

 21 22  0  0  0  0  0  0  0  0999 V2000
    7.1020   -3.2730   19.1800 C   0  0  0  0  0  0  0  0  0  0  0  0
    6.3310   -4.0100   20.1750 C   0  0  0  0  0  0  0  0  0  0  0  0
    5.2550   -4.5160   19.8660 O   0  0  0  0  0  0  0  0  0  0  0  0
    6.8480   -4.2050   21.4980 N   0  0  0  0  0  0  0  0  0  0  0  0
    6.5410   -5.3960   22.2280 C   0  0  0  0  0  0  0  0  0  0  0  0
    5.7990   -5.0220   23.4730 C   0  0  0  0  0  0  0  0  0  0  0  0
    6.5830   -3.9230   24.1840 C   0  0  0  0  0  0  0  0  0  0  0  0
    5.7470   -3.3750   25.2750 C   0  0  0  0  0  0  0  0  0  0  0  0
    4.9720   -2.4100   25.1220 O   0  0  0  0  0  0  0  0  0  0  0  0
    5.8360   -3.9880   26.5360 N   0  0  0  0  0  0  0  0  0  0  0  0
    6.5630   -5.2270   26.6210 C   0  0  0  0  0  0  0  0  0  0  0  0
    6.1370   -5.9330   27.8750 C   0  0  0  0  0  0  0  0  0  0  0  0
    5.9530   -5.2510   29.0620 C   0  0  0  0  0  0  0  0  0  0  0  0
    4.7460   -4.7090   29.5090 C   0  0  0  0  0  0  0  0  0  0  0  0
    3.5910   -5.4970   29.7670 N   0  0  0  0  0  0  0  0  0  0  0  0
    2.5920   -4.7140   30.1880 N   0  0  0  0  0  0  0  0  0  0  0  0
    3.0810   -3.4810   30.1970 C   0  0  0  0  0  0  0  0  0  0  0  0
    4.3450   -3.4720   29.8000 N   0  0  0  0  0  0  0  0  0  0  0  0
    5.0320   -2.1980   29.7560 C   0  0  0  0  0  0  0  0  0  0  0  0
    7.0350   -2.7780   23.3090 C   0  0  0  0  0  0  0  0  0  0  0  0
    7.6850   -3.2150   22.1760 C   0  0  0  0  0  0  0  0  0  0  0  0
  1  2  1  0
  2  3  2  0
  2  4  1  0
  4  5  1  0
  5  6  1  0
  6  7  1  0
  7  8  1  0
  8  9  2  0
  8 10  1  0
 10 11  1  0
 11 12  1  0
 12 13  1  0
 13 14  1  0
 14 15  2  0
 15 16  1  0
 16 17  2  0
 14 18  1  0
 17 18  1  0
 18 19  1  0
  7 20  1  0
  4 21  1  0
 20 21  1  0
M  END
