piperidine-amides-28006-covalent
     RDKit          3D

 26 28  0  0  0  0  0  0  0  0999 V2000
    7.1470   -3.2830   19.1840 C   0  0  0  0  0  0  0  0  0  0  0  0
    6.4210   -4.0370   20.2260 C   0  0  0  0  0  0  0  0  0  0  0  0
    5.3250   -4.5300   19.8870 O   0  0  0  0  0  0  0  0  0  0  0  0
    6.9790   -4.2350   21.4960 N   0  0  0  0  0  0  0  0  0  0  0  0
    6.4900   -5.2620   22.3410 C   0  0  0  0  0  0  0  0  0  0  0  0
    5.8100   -4.7650   23.5380 C   0  0  0  0  0  0  0  0  0  0  0  0
    6.3600   -3.5120   24.1440 C   0  0  0  0  0  0  0  0  0  0  0  0
    5.3600   -2.9690   25.0980 C   0  0  0  0  0  0  0  0  0  0  0  0
    4.1940   -2.8350   24.6930 O   0  0  0  0  0  0  0  0  0  0  0  0
    5.6700   -2.6270   26.4300 N   0  0  0  0  0  0  0  0  0  0  0  0
    5.5680   -3.6350   27.4960 C   0  0  0  0  0  0  0  0  0  0  0  0
    6.6540   -4.5870   27.3080 C   0  0  0  0  0  0  0  0  0  0  0  0
    7.3450   -5.2130   28.3710 C   0  0  0  0  0  0  0  0  0  0  0  0
    8.3370   -6.0340   28.0190 C   0  0  0  0  0  0  0  0  0  0  0  0
    8.7030   -6.2980   26.7240 C   0  0  0  0  0  0  0  0  0  0  0  0
    8.0510   -5.7240   25.6760 C   0  0  0  0  0  0  0  0  0  0  0  0
    7.0150   -4.8570   25.8640 C   0  0  0  0  0  0  0  0  0  0  0  0
    6.5010   -1.4370   26.7530 C   0  0  0  0  0  0  0  0  0  0  0  0
    5.6990   -0.2910   26.7610 C   0  0  0  0  0  0  0  0  0  0  0  0
    4.5150   -0.4930   27.0620 O   0  0  0  0  0  0  0  0  0  0  0  0
    5.6300    0.3030   25.3850 C   0  0  0  0  0  0  0  0  0  0  0  0
    5.5570    1.7920   25.6150 C   0  0  0  0  0  0  0  0  0  0  0  0
    5.8230    1.8980   27.0680 C   0  0  0  0  0  0  0  0  0  0  0  0
    5.9500    0.6690   27.7220 C   0  0  0  0  0  0  0  0  0  0  0  0
    6.9060   -2.5660   23.1720 C   0  0  0  0  0  0  0  0  0  0  0  0
    7.7740   -3.2100   22.1620 C   0  0  0  0  0  0  0  0  0  0  0  0
  1  2  1  0
  2  3  2  0
  2  4  1  0
  4  5  1  0
  5  6  1  0
  6  7  1  0
  7  8  1  0
  8  9  2  0
  8 10  1  0
 10 11  1  0
 11 12  1  0
 12 13  2  0
 13 14  1  0
 14 15  2  0
 15 16  1  0
 12 17  1  0
 16 17  2  0
 10 18  1  0
 18 19  1  0
 19 20  1  0
 19 21  1  0
 21 22  1  0
 22 23  1  0
 19 24  1  0
 23 24  1  0
  7 25  1  0
  4 26  1  0
 25 26  1  0
M  END
