piperidine-amides-25065-covalent
     RDKit          3D

 24 25  0  0  0  0  0  0  0  0999 V2000
    7.0530   -3.3290   19.3040 C   0  0  0  0  0  0  0  0  0  0  0  0
    6.3810   -4.1720   20.3230 C   0  0  0  0  0  0  0  0  0  0  0  0
    5.3720   -4.7810   19.9650 O   0  0  0  0  0  0  0  0  0  0  0  0
    6.9160   -4.2900   21.6090 N   0  0  0  0  0  0  0  0  0  0  0  0
    7.6830   -3.2300   22.2170 C   0  0  0  0  0  0  0  0  0  0  0  0
    6.9460   -2.7170   23.4190 C   0  0  0  0  0  0  0  0  0  0  0  0
    6.5070   -3.8950   24.2910 C   0  0  0  0  0  0  0  0  0  0  0  0
    5.7610   -3.3380   25.4510 C   0  0  0  0  0  0  0  0  0  0  0  0
    4.5640   -3.0550   25.2980 O   0  0  0  0  0  0  0  0  0  0  0  0
    6.3650   -3.1110   26.7170 N   0  0  0  0  0  0  0  0  0  0  0  0
    6.2100   -4.0950   27.7860 C   0  0  0  0  0  0  0  0  0  0  0  0
    5.8990   -5.4820   27.2590 C   0  0  0  0  0  0  0  0  0  0  0  0
    4.8240   -6.2030   27.7140 C   0  0  0  0  0  0  0  0  0  0  0  0
    3.8390   -6.4500   26.9650 O   0  0  0  0  0  0  0  0  0  0  0  0
    6.3920   -1.7950   27.2650 C   0  0  0  0  0  0  0  0  0  0  0  0
    5.8980   -0.7270   26.6020 C   0  0  0  0  0  0  0  0  0  0  0  0
    5.8280    0.7210   27.0350 C   0  0  0  0  0  0  0  0  0  0  0  0
    6.4210    0.8800   28.4200 C   0  0  0  0  0  0  0  0  0  0  0  0
    6.4300    2.1630   28.9770 F   0  0  0  0  0  0  0  0  0  0  0  0
    6.9980   -0.2820   29.2160 C   0  0  0  0  0  0  0  0  0  0  0  0
    7.5310   -0.1680   30.4490 F   0  0  0  0  0  0  0  0  0  0  0  0
    6.9180   -1.5850   28.5060 C   0  0  0  0  0  0  0  0  0  0  0  0
    5.7210   -4.9320   23.5370 C   0  0  0  0  0  0  0  0  0  0  0  0
    6.5870   -5.4460   22.4010 C   0  0  0  0  0  0  0  0  0  0  0  0
  1  2  1  0
  2  3  2  0
  2  4  1  0
  4  5  1  0
  5  6  1  0
  6  7  1  0
  7  8  1  0
  8  9  2  0
  8 10  1  0
 10 11  1  0
 11 12  1  0
 12 13  1  0
 13 14  1  0
 10 15  1  0
 15 16  2  0
 16 17  1  0
 17 18  2  0
 18 19  1  0
 18 20  1  0
 20 21  1  0
 15 22  1  0
 20 22  2  0
  7 23  1  0
  4 24  1  0
 23 24  1  0
M  END
