piperidine-amides-2143-covalent
     RDKit          3D

 20 22  0  0  0  0  0  0  0  0999 V2000
    7.0410   -3.3250   19.3650 C   0  0  0  0  0  0  0  0  0  0  0  0
    6.3760   -4.1990   20.3620 C   0  0  0  0  0  0  0  0  0  0  0  0
    5.3800   -4.8160   19.9770 O   0  0  0  0  0  0  0  0  0  0  0  0
    6.9020   -4.3390   21.6530 N   0  0  0  0  0  0  0  0  0  0  0  0
    7.6230   -3.2650   22.3190 C   0  0  0  0  0  0  0  0  0  0  0  0
    7.2160   -3.1320   23.7740 C   0  0  0  0  0  0  0  0  0  0  0  0
    6.0120   -4.0410   24.0510 C   0  0  0  0  0  0  0  0  0  0  0  0
    5.5170   -3.9510   25.4440 C   0  0  0  0  0  0  0  0  0  0  0  0
    4.3540   -4.3070   25.6560 O   0  0  0  0  0  0  0  0  0  0  0  0
    6.2490   -3.4480   26.5290 N   0  0  0  0  0  0  0  0  0  0  0  0
    5.8960   -2.0910   26.7540 C   0  0  1  0  0  0  0  0  0  0  0  0
    5.2160   -1.7620   28.0080 C   0  0  0  0  0  0  0  0  0  0  0  0
    5.8590   -0.6000   27.9520 C   0  0  2  0  0  0  0  0  0  0  0  0
    6.3390    0.1520   28.9600 C   0  0  0  0  0  0  0  0  0  0  0  0
    5.8160    1.2130   28.3240 C   0  0  0  0  0  0  0  0  0  0  0  0
    5.0820    0.4780   27.2310 C   0  0  1  0  0  0  0  0  0  0  0  0
    5.3090    0.7750   25.9060 O   0  0  0  0  0  0  0  0  0  0  0  0
    6.9230   -1.0110   26.9890 C   0  0  0  0  0  0  0  0  0  0  0  0
    6.2630   -5.4380   23.7030 C   0  0  0  0  0  0  0  0  0  0  0  0
    6.6840   -5.6050   22.2990 C   0  0  0  0  0  0  0  0  0  0  0  0
  1  2  1  0
  2  3  2  0
  2  4  1  0
  4  5  1  0
  5  6  1  0
  6  7  1  0
  7  8  1  0
  8  9  2  0
  8 10  1  0
 11 10  1  1
 11 12  1  0
 13 12  1  1
 13 14  1  0
 14 15  1  0
 13 16  1  0
 15 16  1  0
 16 17  1  6
 11 18  1  0
 13 18  1  0
  7 19  1  0
  4 20  1  0
 19 20  1  0
M  END
