piperidine-amides-21614-covalent
     RDKit          3D

 23 25  0  0  0  0  0  0  0  0999 V2000
    7.0700   -3.3260   19.3320 C   0  0  0  0  0  0  0  0  0  0  0  0
    6.3900   -4.1700   20.3260 C   0  0  0  0  0  0  0  0  0  0  0  0
    5.3180   -4.7030   19.9400 O   0  0  0  0  0  0  0  0  0  0  0  0
    6.9320   -4.4080   21.6020 N   0  0  0  0  0  0  0  0  0  0  0  0
    6.5140   -5.5250   22.4070 C   0  0  0  0  0  0  0  0  0  0  0  0
    5.7260   -4.9930   23.5790 C   0  0  0  0  0  0  0  0  0  0  0  0
    6.3900   -3.8170   24.2650 C   0  0  0  0  0  0  0  0  0  0  0  0
    5.4860   -3.1930   25.2640 C   0  0  0  0  0  0  0  0  0  0  0  0
    5.2070   -1.9960   25.0640 O   0  0  0  0  0  0  0  0  0  0  0  0
    4.8690   -3.7730   26.4020 N   0  0  0  0  0  0  0  0  0  0  0  0
    3.7420   -3.0370   26.8360 C   0  0  0  0  0  0  0  0  0  0  0  0
    4.6390   -2.9290   28.0030 C   0  0  0  0  0  0  0  0  0  0  0  0
    5.3090   -1.7990   28.4090 C   0  0  0  0  0  0  0  0  0  0  0  0
    3.9720   -3.5020   29.2240 C   0  0  0  0  0  0  0  0  0  0  0  0
    5.6550   -3.8350   27.6700 C   0  0  1  0  0  0  0  0  0  0  0  0
    5.7820   -5.0710   28.2930 C   0  0  0  0  0  0  0  0  0  0  0  0
    6.2640   -6.2730   27.8460 C   0  0  0  0  0  0  0  0  0  0  0  0
    6.1740   -7.1670   28.8480 N   0  0  0  0  0  0  0  0  0  0  0  0
    5.6570   -6.6600   29.9610 N   0  0  0  0  0  0  0  0  0  0  0  0
    5.4660   -7.4070   31.1410 C   0  0  0  0  0  0  0  0  0  0  0  0
    5.3870   -5.3780   29.6940 C   0  0  0  0  0  0  0  0  0  0  0  0
    6.7970   -2.7200   23.2590 C   0  0  0  0  0  0  0  0  0  0  0  0
    7.7320   -3.4010   22.2850 C   0  0  0  0  0  0  0  0  0  0  0  0
  1  2  1  0
  2  3  2  0
  2  4  1  0
  4  5  1  0
  5  6  1  0
  6  7  1  0
  7  8  1  0
  8  9  2  0
  8 10  1  0
 10 11  1  0
 11 12  1  0
 12 13  1  0
 12 14  1  0
 10 15  1  0
 12 15  1  0
 15 16  1  1
 16 17  1  0
 17 18  2  0
 18 19  1  0
 19 20  1  0
 16 21  2  0
 19 21  1  0
  7 22  1  0
  4 23  1  0
 22 23  1  0
M  END
