piperidine-amides-19754-covalent
     RDKit          3D

 22 24  0  0  0  0  0  0  0  0999 V2000
    7.0000   -3.4130   19.3910 C   0  0  0  0  0  0  0  0  0  0  0  0
    6.3250   -4.2960   20.3780 C   0  0  0  0  0  0  0  0  0  0  0  0
    5.3420   -4.9130   19.9850 O   0  0  0  0  0  0  0  0  0  0  0  0
    6.8320   -4.4360   21.6730 N   0  0  0  0  0  0  0  0  0  0  0  0
    6.6160   -5.6510   22.4370 C   0  0  0  0  0  0  0  0  0  0  0  0
    5.9500   -5.3380   23.7590 C   0  0  0  0  0  0  0  0  0  0  0  0
    5.9480   -3.8340   23.9390 C   0  0  0  0  0  0  0  0  0  0  0  0
    5.2760   -3.3900   25.1920 C   0  0  0  0  0  0  0  0  0  0  0  0
    4.3810   -2.5560   25.0590 O   0  0  0  0  0  0  0  0  0  0  0  0
    5.5360   -3.7980   26.5230 N   0  0  0  0  0  0  0  0  0  0  0  0
    5.2070   -2.8070   27.5050 C   0  0  0  0  0  0  0  0  0  0  0  0
    5.5280   -3.5000   28.7850 C   0  0  0  0  0  0  0  0  0  0  0  0
    5.0780   -4.7560   28.9180 C   0  0  0  0  0  0  0  0  0  0  0  0
    5.9460   -5.7840   28.9270 C   0  0  2  0  0  0  0  0  0  0  0  0
    5.2850   -6.8730   28.4750 C   0  0  0  0  0  0  0  0  0  0  0  0
    4.9360   -7.8510   29.5090 C   0  0  0  0  0  0  0  0  0  0  0  0
    5.5640   -7.1630   30.6490 C   0  0  0  0  0  0  0  0  0  0  0  0
    6.3850   -6.1240   30.2300 O   0  0  0  0  0  0  0  0  0  0  0  0
    6.9260   -5.5710   27.7290 C   0  0  0  0  0  0  0  0  0  0  0  0
    6.7950   -4.3680   26.8340 C   0  0  0  0  0  0  0  0  0  0  0  0
    7.3000   -3.2850   23.7240 C   0  0  0  0  0  0  0  0  0  0  0  0
    7.5870   -3.3390   22.2460 C   0  0  0  0  0  0  0  0  0  0  0  0
  1  2  1  0
  2  3  2  0
  2  4  1  0
  4  5  1  0
  5  6  1  0
  6  7  1  0
  7  8  1  0
  8  9  2  0
  8 10  1  0
 10 11  1  0
 11 12  1  0
 12 13  1  0
 14 13  1  1
 14 15  1  0
 15 16  2  0
 16 17  1  0
 14 18  1  0
 17 18  1  0
 14 19  1  0
 10 20  1  0
 19 20  1  0
  7 21  1  0
  4 22  1  0
 21 22  1  0
M  END
