piperidine-amides-29988-covalent
     RDKit          3D

 27 29  0  0  0  0  0  0  0  0999 V2000
    7.0470   -3.3540   19.3610 C   0  0  0  0  0  0  0  0  0  0  0  0
    6.2870   -4.1870   20.2880 C   0  0  0  0  0  0  0  0  0  0  0  0
    5.2540   -4.7270   19.9250 O   0  0  0  0  0  0  0  0  0  0  0  0
    6.7630   -4.4270   21.6130 N   0  0  0  0  0  0  0  0  0  0  0  0
    7.5140   -3.4100   22.2990 C   0  0  0  0  0  0  0  0  0  0  0  0
    6.6960   -2.7960   23.4050 C   0  0  0  0  0  0  0  0  0  0  0  0
    6.2210   -3.9300   24.3010 C   0  0  0  0  0  0  0  0  0  0  0  0
    5.4760   -3.3830   25.4990 C   0  0  0  0  0  0  0  0  0  0  0  0
    4.2840   -3.0330   25.5010 O   0  0  0  0  0  0  0  0  0  0  0  0
    6.2810   -3.3080   26.6530 N   0  0  0  0  0  0  0  0  0  0  0  0
    5.7200   -3.3490   27.9810 C   0  0  0  0  0  0  0  0  0  0  0  0
    5.7860   -4.7770   28.4480 C   0  0  0  0  0  0  0  0  0  0  0  0
    6.9430   -5.4880   28.2350 C   0  0  0  0  0  0  0  0  0  0  0  0
    7.8630   -5.1130   27.2480 C   0  0  0  0  0  0  0  0  0  0  0  0
    9.0410   -5.6920   26.9030 C   0  0  0  0  0  0  0  0  0  0  0  0
    9.8040   -5.0770   25.8250 C   0  0  0  0  0  0  0  0  0  0  0  0
    9.4980   -3.9280   25.0780 C   0  0  0  0  0  0  0  0  0  0  0  0
   10.2270   -3.3060   24.0870 C   0  0  0  0  0  0  0  0  0  0  0  0
   10.4870   -1.9460   24.1030 C   0  0  0  0  0  0  0  0  0  0  0  0
   11.6740   -1.5180   23.3640 C   0  0  0  0  0  0  0  0  0  0  0  0
   12.6380   -2.2560   23.1320 O   0  0  0  0  0  0  0  0  0  0  0  0
   11.7920   -0.2320   22.8840 O   0  0  0  0  0  0  0  0  0  0  0  0
   13.0060    0.4290   22.9710 C   0  0  0  0  0  0  0  0  0  0  0  0
    8.3470   -3.3790   25.4070 N   0  0  0  0  0  0  0  0  0  0  0  0
    7.5310   -3.9160   26.4230 C   0  0  0  0  0  0  0  0  0  0  0  0
    5.3800   -4.8950   23.5090 C   0  0  0  0  0  0  0  0  0  0  0  0
    6.2310   -5.5210   22.3850 C   0  0  0  0  0  0  0  0  0  0  0  0
  1  2  1  0
  2  3  2  0
  2  4  1  0
  4  5  1  0
  5  6  1  0
  6  7  1  0
  7  8  1  0
  8  9  2  0
  8 10  1  0
 10 11  1  0
 11 12  1  0
 12 13  1  0
 13 14  1  0
 14 15  2  0
 15 16  1  0
 16 17  2  0
 17 18  1  0
 18 19  1  0
 19 20  1  0
 20 21  2  0
 20 22  1  0
 22 23  1  0
 17 24  1  0
 10 25  1  0
 14 25  1  0
 24 25  2  0
  7 26  1  0
  4 27  1  0
 26 27  1  0
M  END
