piperidine-amides-30956-covalent
     RDKit          3D

 27 28  0  0  0  0  0  0  0  0999 V2000
    7.0130   -3.3640   19.3560 C   0  0  0  0  0  0  0  0  0  0  0  0
    6.3640   -4.2180   20.3570 C   0  0  0  0  0  0  0  0  0  0  0  0
    5.3950   -4.9110   19.9960 O   0  0  0  0  0  0  0  0  0  0  0  0
    6.8250   -4.3120   21.6880 N   0  0  0  0  0  0  0  0  0  0  0  0
    7.6470   -3.2850   22.2970 C   0  0  0  0  0  0  0  0  0  0  0  0
    6.8570   -2.7360   23.4610 C   0  0  0  0  0  0  0  0  0  0  0  0
    6.3570   -3.8130   24.3810 C   0  0  0  0  0  0  0  0  0  0  0  0
    5.3240   -3.3090   25.3510 C   0  0  0  0  0  0  0  0  0  0  0  0
    4.3850   -2.5960   24.9070 O   0  0  0  0  0  0  0  0  0  0  0  0
    5.2750   -3.5560   26.7710 N   0  0  0  0  0  0  0  0  0  0  0  0
    4.0470   -3.7510   27.5380 C   0  0  1  0  0  0  0  0  0  0  0  0
    3.3800   -4.9840   27.0600 C   0  0  0  0  0  0  0  0  0  0  0  0
    4.4030   -3.9820   29.0330 C   0  0  0  0  0  0  0  0  0  0  0  0
    5.6400   -4.5890   29.5140 N   0  0  0  0  0  0  0  0  0  0  0  0
    5.1320   -5.8520   30.1350 C   0  0  0  0  0  0  0  0  0  0  0  0
    4.0670   -6.4840   29.5450 O   0  0  0  0  0  0  0  0  0  0  0  0
    5.6510   -6.4330   31.2670 O   0  0  0  0  0  0  0  0  0  0  0  0
    4.7830   -7.0680   32.1940 C   0  0  0  0  0  0  0  0  0  0  0  0
    4.0190   -6.1940   33.1150 C   0  0  0  0  0  0  0  0  0  0  0  0
    3.6750   -7.8160   31.4350 C   0  0  0  0  0  0  0  0  0  0  0  0
    5.5850   -8.0060   32.7900 C   0  0  0  0  0  0  0  0  0  0  0  0
    6.5380   -4.6030   28.5410 C   0  0  1  0  0  0  0  0  0  0  0  0
    6.3390   -5.8820   27.7110 C   0  0  0  0  0  0  0  0  0  0  0  0
    6.4160   -3.3980   27.5720 C   0  0  2  0  0  0  0  0  0  0  0  0
    6.5340   -2.3240   28.1050 C   0  0  0  0  0  0  0  0  0  0  0  0
    5.8320   -5.0350   23.7060 C   0  0  0  0  0  0  0  0  0  0  0  0
    6.4830   -5.4040   22.5410 C   0  0  0  0  0  0  0  0  0  0  0  0
  1  2  1  0
  2  3  2  0
  2  4  1  0
  4  5  1  0
  5  6  1  0
  6  7  1  0
  7  8  1  0
  8  9  2  0
  8 10  1  0
 10 11  1  0
 11 12  1  6
 11 13  1  0
 13 14  1  0
 14 15  1  0
 15 16  2  0
 15 17  1  0
 18 17  1  0
 18 19  1  0
 18 20  1  0
 18 21  1  0
 14 22  1  0
 22 23  1  6
 10 24  1  0
 22 24  1  0
 24 25  1  1
  7 26  1  0
  4 27  1  0
 26 27  1  0
M  END
