piperidine-amides-29019-covalent
     RDKit          3D

 26 27  0  0  0  0  0  0  0  0999 V2000
    7.0470   -3.3390   19.3620 C   0  0  0  0  0  0  0  0  0  0  0  0
    6.3820   -4.1930   20.3430 C   0  0  0  0  0  0  0  0  0  0  0  0
    5.3790   -4.8320   19.9780 O   0  0  0  0  0  0  0  0  0  0  0  0
    6.9020   -4.3210   21.6600 N   0  0  0  0  0  0  0  0  0  0  0  0
    6.6690   -5.5590   22.3570 C   0  0  0  0  0  0  0  0  0  0  0  0
    6.3220   -5.2840   23.7950 C   0  0  0  0  0  0  0  0  0  0  0  0
    6.2020   -3.7850   23.9300 C   0  0  0  0  0  0  0  0  0  0  0  0
    5.5580   -3.3730   25.2180 C   0  0  0  0  0  0  0  0  0  0  0  0
    4.5900   -2.6350   25.0970 O   0  0  0  0  0  0  0  0  0  0  0  0
    6.0370   -3.8300   26.4360 N   0  0  0  0  0  0  0  0  0  0  0  0
    5.5620   -5.0880   26.9090 C   0  0  0  0  0  0  0  0  0  0  0  0
    5.6050   -5.3330   28.2860 C   0  0  0  0  0  0  0  0  0  0  0  0
    5.6330   -4.2370   29.0570 C   0  0  0  0  0  0  0  0  0  0  0  0
    4.4010   -3.5710   29.1240 C   0  0  0  0  0  0  0  0  0  0  0  0
    4.5700   -2.3020   29.9220 C   0  0  0  0  0  0  0  0  0  0  0  0
    5.1410   -1.2050   29.3620 N   0  0  0  0  0  0  0  0  0  0  0  0
    6.2710   -0.7030   29.8680 C   0  0  0  0  0  0  0  0  0  0  0  0
    7.6070   -1.0820   29.3440 C   0  0  0  0  0  0  0  0  0  0  0  0
    4.4600   -0.2430   28.5280 C   0  0  0  0  0  0  0  0  0  0  0  0
    5.2130    0.6730   27.5310 C   0  0  0  0  0  0  0  0  0  0  0  0
    5.8520    0.0080   26.5040 C   0  0  0  0  0  0  0  0  0  0  0  0
    4.3770    1.5800   26.9360 C   0  0  0  0  0  0  0  0  0  0  0  0
    6.6310   -3.4020   28.7380 C   0  0  0  0  0  0  0  0  0  0  0  0
    6.3730   -2.8160   27.3840 C   0  0  0  0  0  0  0  0  0  0  0  0
    7.5770   -3.2020   23.7040 C   0  0  0  0  0  0  0  0  0  0  0  0
    7.7280   -3.2370   22.1830 C   0  0  0  0  0  0  0  0  0  0  0  0
  1  2  1  0
  2  3  2  0
  2  4  1  0
  4  5  1  0
  5  6  1  0
  6  7  1  0
  7  8  1  0
  8  9  2  0
  8 10  1  0
 10 11  1  0
 11 12  1  0
 12 13  1  0
 13 14  1  0
 14 15  1  0
 15 16  1  0
 16 17  1  0
 17 18  1  0
 16 19  1  0
 19 20  1  0
 20 21  1  0
 20 22  1  0
 13 23  1  0
 10 24  1  0
 23 24  1  0
  7 25  1  0
  4 26  1  0
 25 26  1  0
M  END
