piperidine-amides-24940-covalent
     RDKit          3D

 24 25  0  0  0  0  0  0  0  0999 V2000
    7.0600   -3.3500   19.3140 C   0  0  0  0  0  0  0  0  0  0  0  0
    6.3980   -4.2140   20.3030 C   0  0  0  0  0  0  0  0  0  0  0  0
    5.3750   -4.8570   19.9840 O   0  0  0  0  0  0  0  0  0  0  0  0
    6.9460   -4.3630   21.5830 N   0  0  0  0  0  0  0  0  0  0  0  0
    6.6780   -5.5550   22.3570 C   0  0  0  0  0  0  0  0  0  0  0  0
    5.8180   -5.1350   23.5630 C   0  0  0  0  0  0  0  0  0  0  0  0
    6.5410   -4.0260   24.3090 C   0  0  0  0  0  0  0  0  0  0  0  0
    5.6250   -3.4990   25.3500 C   0  0  0  0  0  0  0  0  0  0  0  0
    4.9100   -2.5240   25.0540 O   0  0  0  0  0  0  0  0  0  0  0  0
    5.5870   -4.0940   26.6330 N   0  0  0  0  0  0  0  0  0  0  0  0
    6.8260   -4.4200   27.2310 C   0  0  0  0  0  0  0  0  0  0  0  0
    6.5500   -5.2830   28.3800 C   0  0  0  0  0  0  0  0  0  0  0  0
    5.3800   -4.8450   28.8060 C   0  0  0  0  0  0  0  0  0  0  0  0
    4.9340   -3.8520   27.9500 C   0  0  1  0  0  0  0  0  0  0  0  0
    5.1840   -2.5000   28.2180 C   0  0  0  0  0  0  0  0  0  0  0  0
    6.4010   -1.9220   28.0700 O   0  0  0  0  0  0  0  0  0  0  0  0
    4.0500   -1.9080   28.6440 N   0  0  0  0  0  0  0  0  0  0  0  0
    3.9860   -1.0780   29.8050 C   0  0  0  0  0  0  0  0  0  0  0  0
    3.1980    0.2170   29.7390 C   0  0  0  0  0  0  0  0  0  0  0  0
    2.1190    0.3360   28.9190 O   0  0  0  0  0  0  0  0  0  0  0  0
    3.6720    1.2300   30.5770 O   0  0  0  0  0  0  0  0  0  0  0  0
    3.7920    2.5920   30.1760 C   0  0  0  0  0  0  0  0  0  0  0  0
    6.9140   -2.8900   23.4490 C   0  0  0  0  0  0  0  0  0  0  0  0
    7.5890   -3.2740   22.2230 C   0  0  0  0  0  0  0  0  0  0  0  0
  1  2  1  0
  2  3  2  0
  2  4  1  0
  4  5  1  0
  5  6  1  0
  6  7  1  0
  7  8  1  0
  8  9  2  0
  8 10  1  0
 10 11  1  0
 11 12  1  0
 12 13  1  0
 10 14  1  0
 13 14  1  0
 14 15  1  1
 15 16  2  0
 15 17  1  0
 17 18  1  0
 18 19  1  0
 19 20  2  0
 19 21  1  0
 21 22  1  0
  7 23  1  0
  4 24  1  0
 23 24  1  0
M  END
