piperidine-amides-4459-covalent
     RDKit          3D

 25 27  0  0  0  0  0  0  0  0999 V2000
    7.1250   -3.3570   19.2950 C   0  0  0  0  0  0  0  0  0  0  0  0
    6.3920   -4.1600   20.2850 C   0  0  0  0  0  0  0  0  0  0  0  0
    5.2950   -4.6330   19.9170 O   0  0  0  0  0  0  0  0  0  0  0  0
    6.9380   -4.4460   21.5590 N   0  0  0  0  0  0  0  0  0  0  0  0
    6.3210   -5.4720   22.3280 C   0  0  0  0  0  0  0  0  0  0  0  0
    5.9040   -5.0260   23.6530 C   0  0  0  0  0  0  0  0  0  0  0  0
    6.6650   -3.8580   24.1310 C   0  0  0  0  0  0  0  0  0  0  0  0
    6.0600   -3.1640   25.2990 C   0  0  0  0  0  0  0  0  0  0  0  0
    4.9170   -3.4510   25.7100 O   0  0  0  0  0  0  0  0  0  0  0  0
    6.8210   -2.1540   25.9060 N   0  0  0  0  0  0  0  0  0  0  0  0
    6.4330   -1.2140   26.8720 C   0  0  0  0  0  0  0  0  0  0  0  0
    5.9900    0.1450   26.4820 C   0  0  0  0  0  0  0  0  0  0  0  0
    5.8070    0.4360   27.7650 N   0  0  0  0  0  0  0  0  0  0  0  0
    6.0750   -0.5060   28.6050 N   0  0  0  0  0  0  0  0  0  0  0  0
    5.8930   -0.2340   29.9170 C   0  0  0  0  0  0  0  0  0  0  0  0
    4.5290   -0.2580   30.1750 C   0  0  0  0  0  0  0  0  0  0  0  0
    4.0980    0.0270   31.6640 C   0  0  0  0  0  0  0  0  0  0  0  0
    5.1810    0.3040   32.7030 C   0  0  0  0  0  0  0  0  0  0  0  0
    6.6230    0.2890   32.2280 C   0  0  0  0  0  0  0  0  0  0  0  0
    7.8210    0.5360   33.1120 C   0  0  0  0  0  0  0  0  0  0  0  0
    6.9080    0.0130   30.8110 C   0  0  0  0  0  0  0  0  0  0  0  0
    6.5540   -1.8340   28.2550 C   0  0  0  0  0  0  0  0  0  0  0  0
    6.4970   -1.9580   29.7120 C   0  0  0  0  0  0  0  0  0  0  0  0
    6.9320   -2.8310   23.0850 C   0  0  0  0  0  0  0  0  0  0  0  0
    7.7670   -3.4770   22.2210 C   0  0  0  0  0  0  0  0  0  0  0  0
  1  2  1  0
  2  3  2  0
  2  4  1  0
  4  5  1  0
  5  6  1  0
  6  7  1  0
  7  8  1  0
  8  9  2  0
  8 10  1  0
 10 11  1  0
 11 12  1  0
 12 13  2  0
 13 14  1  0
 14 15  1  0
 15 16  2  0
 16 17  1  0
 17 18  2  0
 18 19  1  0
 19 20  1  0
 15 21  1  0
 19 21  2  0
 11 22  2  0
 14 22  1  0
 22 23  1  0
  7 24  1  0
  4 25  1  0
 24 25  1  0
M  END
