piperidine-amides-12829-covalent
     RDKit          3D

 21 23  0  0  0  0  0  0  0  0999 V2000
    7.0550   -3.3190   19.3180 C   0  0  0  0  0  0  0  0  0  0  0  0
    6.3750   -4.1580   20.3320 C   0  0  0  0  0  0  0  0  0  0  0  0
    5.3530   -4.7650   19.9560 O   0  0  0  0  0  0  0  0  0  0  0  0
    6.8900   -4.2970   21.6290 N   0  0  0  0  0  0  0  0  0  0  0  0
    6.4960   -5.3980   22.4360 C   0  0  0  0  0  0  0  0  0  0  0  0
    6.0250   -5.0180   23.7750 C   0  0  0  0  0  0  0  0  0  0  0  0
    6.5450   -3.7330   24.3090 C   0  0  0  0  0  0  0  0  0  0  0  0
    5.7360   -3.3050   25.4940 C   0  0  0  0  0  0  0  0  0  0  0  0
    4.4880   -3.3150   25.4190 O   0  0  0  0  0  0  0  0  0  0  0  0
    6.3330   -2.8950   26.7110 N   0  0  0  0  0  0  0  0  0  0  0  0
    6.6870   -1.4850   27.0430 C   0  0  1  0  0  0  0  0  0  0  0  0
    5.7430   -0.4690   26.4310 C   0  0  0  0  0  0  0  0  0  0  0  0
    5.2150    0.5200   27.3660 C   0  0  0  0  0  0  0  0  0  0  0  0
    5.4990    0.1170   28.6240 C   0  0  1  0  0  0  0  0  0  0  0  0
    6.7070   -0.0230   28.8130 C   0  0  2  0  0  0  0  0  0  0  0  0
    6.9620   -1.3100   28.4820 C   0  0  0  0  0  0  0  0  0  0  0  0
    5.7920    0.8900   29.7340 C   0  0  0  0  0  0  0  0  0  0  0  0
    5.8550    2.2910   29.6060 F   0  0  0  0  0  0  0  0  0  0  0  0
    5.3970    0.5020   30.9820 F   0  0  0  0  0  0  0  0  0  0  0  0
    6.7560   -2.6760   23.2910 C   0  0  0  0  0  0  0  0  0  0  0  0
    7.5600   -3.1930   22.2740 C   0  0  0  0  0  0  0  0  0  0  0  0
  1  2  1  0
  2  3  2  0
  2  4  1  0
  4  5  1  0
  5  6  1  0
  6  7  1  0
  7  8  1  0
  8  9  2  0
  8 10  1  0
 11 10  1  1
 11 12  1  0
 12 13  1  0
 14 13  1  6
 14 15  1  0
 11 16  1  0
 15 16  1  1
 14 17  1  0
 15 17  1  0
 17 18  1  0
 17 19  1  0
  7 20  1  0
  4 21  1  0
 20 21  1  0
M  END
