piperidine-amides-34124-covalent
     RDKit          3D

 29 31  0  0  0  0  0  0  0  0999 V2000
    7.0700   -3.3380   19.3310 C   0  0  0  0  0  0  0  0  0  0  0  0
    6.4240   -4.1950   20.3360 C   0  0  0  0  0  0  0  0  0  0  0  0
    5.4310   -4.8860   20.0020 O   0  0  0  0  0  0  0  0  0  0  0  0
    6.9370   -4.2840   21.6480 N   0  0  0  0  0  0  0  0  0  0  0  0
    6.6950   -5.5060   22.4100 C   0  0  0  0  0  0  0  0  0  0  0  0
    6.2750   -5.1250   23.8460 C   0  0  0  0  0  0  0  0  0  0  0  0
    6.2360   -3.6210   23.8530 C   0  0  0  0  0  0  0  0  0  0  0  0
    5.5200   -3.0090   24.9790 C   0  0  0  0  0  0  0  0  0  0  0  0
    4.4800   -2.4060   24.6580 O   0  0  0  0  0  0  0  0  0  0  0  0
    5.8690   -3.0590   26.3480 N   0  0  0  0  0  0  0  0  0  0  0  0
    6.0530   -1.7530   26.9700 C   0  0  0  0  0  0  0  0  0  0  0  0
    5.3470   -0.5510   26.3790 C   0  0  0  0  0  0  0  0  0  0  0  0
    5.4980    0.6860   26.9500 C   0  0  0  0  0  0  0  0  0  0  0  0
    6.2740    0.9100   28.0520 C   0  0  0  0  0  0  0  0  0  0  0  0
    6.4060    2.1760   28.6020 O   0  0  0  0  0  0  0  0  0  0  0  0
    5.4500    3.1510   28.2460 C   0  0  0  0  0  0  0  0  0  0  0  0
    6.9500   -0.1030   28.6480 C   0  0  0  0  0  0  0  0  0  0  0  0
    7.6990    0.2480   29.7270 O   0  0  0  0  0  0  0  0  0  0  0  0
    8.3940   -0.7150   30.4630 C   0  0  0  0  0  0  0  0  0  0  0  0
    6.8990   -1.5060   28.1670 C   0  0  0  0  0  0  0  0  0  0  0  0
    4.9640   -3.4160   27.4150 C   0  0  2  0  0  0  0  0  0  0  0  0
    3.6200   -2.8610   27.2550 C   0  0  0  0  0  0  0  0  0  0  0  0
    2.8550   -2.8370   28.4080 C   0  0  0  0  0  0  0  0  0  0  0  0
    3.8400   -3.5020   29.6150 S   0  0  0  0  0  0  0  0  0  0  0  0
    3.5910   -4.9650   29.8080 O   0  0  0  0  0  0  0  0  0  0  0  0
    3.7830   -2.7430   30.8930 O   0  0  0  0  0  0  0  0  0  0  0  0
    5.3840   -3.2950   28.8700 C   0  0  0  0  0  0  0  0  0  0  0  0
    7.5970   -3.0450   23.6370 C   0  0  0  0  0  0  0  0  0  0  0  0
    7.7790   -3.2060   22.1550 C   0  0  0  0  0  0  0  0  0  0  0  0
  1  2  1  0
  2  3  2  0
  2  4  1  0
  4  5  1  0
  5  6  1  0
  6  7  1  0
  7  8  1  0
  8  9  2  0
  8 10  1  0
 10 11  1  0
 11 12  2  0
 12 13  1  0
 13 14  2  0
 14 15  1  0
 15 16  1  0
 14 17  1  0
 17 18  1  0
 18 19  1  0
 11 20  1  0
 17 20  2  0
 21 10  1  6
 21 22  1  0
 22 23  2  0
 24 23  1  0
 24 25  2  0
 24 26  2  0
 21 27  1  0
 24 27  1  0
  7 28  1  0
  4 29  1  0
 28 29  1  0
M  END
