piperidine-amides-15061-covalent
     RDKit          3D

 20 21  0  0  0  0  0  0  0  0999 V2000
    7.1160   -3.2810   19.2480 C   0  0  0  0  0  0  0  0  0  0  0  0
    6.3800   -4.0670   20.2410 C   0  0  0  0  0  0  0  0  0  0  0  0
    5.3040   -4.5840   19.8970 O   0  0  0  0  0  0  0  0  0  0  0  0
    6.9250   -4.2680   21.5310 N   0  0  0  0  0  0  0  0  0  0  0  0
    7.7000   -3.2130   22.1280 C   0  0  0  0  0  0  0  0  0  0  0  0
    6.9470   -2.6590   23.2880 C   0  0  0  0  0  0  0  0  0  0  0  0
    6.6880   -3.8320   24.2010 C   0  0  0  0  0  0  0  0  0  0  0  0
    5.8650   -3.3670   25.3490 C   0  0  0  0  0  0  0  0  0  0  0  0
    4.6560   -3.2250   25.1530 O   0  0  0  0  0  0  0  0  0  0  0  0
    6.5220   -3.1260   26.5420 N   0  0  0  0  0  0  0  0  0  0  0  0
    5.8010   -2.9880   27.7480 C   0  0  0  0  0  0  0  0  0  0  0  0
    6.3120   -3.6520   28.8650 C   0  0  0  0  0  0  0  0  0  0  0  0
    5.9460   -4.9420   29.1180 C   0  0  0  0  0  0  0  0  0  0  0  0
    4.9990   -5.4740   30.0650 N   0  0  0  0  0  0  0  0  0  0  0  0
    5.0590   -6.8840   29.8620 C   0  0  0  0  0  0  0  0  0  0  0  0
    5.9690   -7.2050   28.8730 N   0  0  0  0  0  0  0  0  0  0  0  0
    6.5980   -6.0710   28.3200 C   0  0  0  0  0  0  0  0  0  0  0  0
    7.6530   -5.9410   27.2170 C   0  0  0  0  0  0  0  0  0  0  0  0
    5.9320   -4.9490   23.5750 C   0  0  0  0  0  0  0  0  0  0  0  0
    6.4520   -5.4030   22.2470 C   0  0  0  0  0  0  0  0  0  0  0  0
  1  2  1  0
  2  3  2  0
  2  4  1  0
  4  5  1  0
  5  6  1  0
  6  7  1  0
  7  8  1  0
  8  9  2  0
  8 10  1  0
 10 11  1  0
 11 12  1  0
 12 13  1  0
 13 14  1  0
 14 15  2  0
 15 16  1  0
 13 17  2  0
 16 17  1  0
 17 18  1  0
  7 19  1  0
  4 20  1  0
 19 20  1  0
M  END
