piperidine-amides-11154-covalent
     RDKit          3D

 20 20  0  0  0  0  0  0  0  0999 V2000
    7.0670   -3.2860   19.2440 C   0  0  0  0  0  0  0  0  0  0  0  0
    6.3420   -4.0540   20.2630 C   0  0  0  0  0  0  0  0  0  0  0  0
    5.3150   -4.6720   19.9290 O   0  0  0  0  0  0  0  0  0  0  0  0
    6.8020   -4.1540   21.5890 N   0  0  0  0  0  0  0  0  0  0  0  0
    7.7190   -3.1690   22.1530 C   0  0  0  0  0  0  0  0  0  0  0  0
    7.2460   -2.8130   23.5390 C   0  0  0  0  0  0  0  0  0  0  0  0
    6.0430   -3.5940   23.9540 C   0  0  0  0  0  0  0  0  0  0  0  0
    5.6390   -3.2770   25.3400 C   0  0  0  0  0  0  0  0  0  0  0  0
    4.4140   -3.2130   25.6460 O   0  0  0  0  0  0  0  0  0  0  0  0
    6.5730   -3.0210   26.3630 N   0  0  0  0  0  0  0  0  0  0  0  0
    6.2000   -3.1380   27.7890 C   0  0  0  0  0  0  0  0  0  0  0  0
    6.2330   -4.5560   28.2160 C   0  0  0  0  0  0  0  0  0  0  0  0
    5.0890   -5.0810   28.9830 C   0  0  0  0  0  0  0  0  0  0  0  0
    4.1450   -5.9270   28.1720 C   0  0  0  0  0  0  0  0  0  0  0  0
    3.7250   -7.2580   29.2990 S   0  0  0  0  0  0  0  0  0  0  0  0
    2.5170   -8.0130   28.4130 N   0  0  0  0  0  0  0  0  0  0  0  0
    4.8610   -8.1690   29.5370 O   0  0  0  0  0  0  0  0  0  0  0  0
    3.1390   -6.7260   30.5920 O   0  0  0  0  0  0  0  0  0  0  0  0
    6.0910   -5.0580   23.6740 C   0  0  0  0  0  0  0  0  0  0  0  0
    6.6470   -5.3650   22.3410 C   0  0  0  0  0  0  0  0  0  0  0  0
  1  2  1  0
  2  3  2  0
  2  4  1  0
  4  5  1  0
  5  6  1  0
  6  7  1  0
  7  8  1  0
  8  9  2  0
  8 10  1  0
 10 11  1  0
 11 12  1  0
 12 13  1  0
 13 14  1  0
 14 15  1  0
 15 16  1  0
 15 17  2  0
 15 18  2  0
  7 19  1  0
  4 20  1  0
 19 20  1  0
M  END
