piperidine-amides-31379-covalent
     RDKit          3D

 27 29  0  0  0  0  0  0  0  0999 V2000
    7.0480   -3.3510   19.4950 C   0  0  0  0  0  0  0  0  0  0  0  0
    6.4050   -4.2310   20.4570 C   0  0  0  0  0  0  0  0  0  0  0  0
    5.4700   -4.9810   20.0160 O   0  0  0  0  0  0  0  0  0  0  0  0
    6.7890   -4.3000   21.8250 N   0  0  0  0  0  0  0  0  0  0  0  0
    7.8160   -3.3000   22.2740 C   0  0  0  0  0  0  0  0  0  0  0  0
    7.5830   -3.1260   23.8370 C   0  0  0  0  0  0  0  0  0  0  0  0
    6.3200   -3.8770   24.1450 C   0  0  0  0  0  0  0  0  0  0  0  0
    5.4300   -3.3780   25.3990 C   0  0  0  0  0  0  0  0  0  0  0  0
    4.4540   -2.8260   24.9230 O   0  0  0  0  0  0  0  0  0  0  0  0
    5.8710   -3.6350   26.5920 N   0  0  0  0  0  0  0  0  0  0  0  0
    6.4390   -3.9930   27.7560 C   0  0  0  0  0  0  0  0  0  0  0  0
    6.6870   -5.1350   28.4400 C   0  0  0  0  0  0  0  0  0  0  0  0
    5.5260   -5.3030   29.1310 C   0  0  0  0  0  0  0  0  0  0  0  0
    5.2530   -6.3330   29.9970 N   0  0  0  0  0  0  0  0  0  0  0  0
    4.0070   -6.3590   30.6220 C   0  0  0  0  0  0  0  0  0  0  0  0
    3.6870   -7.3870   31.5180 O   0  0  0  0  0  0  0  0  0  0  0  0
    4.6980   -7.4650   32.4660 C   0  0  0  0  0  0  0  0  0  0  0  0
    4.0750   -7.2620   33.7070 C   0  0  0  0  0  0  0  0  0  0  0  0
    3.7810   -8.5170   34.2220 F   0  0  0  0  0  0  0  0  0  0  0  0
    2.8420   -6.6010   33.5930 F   0  0  0  0  0  0  0  0  0  0  0  0
    4.8850   -6.6040   34.5850 F   0  0  0  0  0  0  0  0  0  0  0  0
    3.0020   -5.3080   30.3550 C   0  0  0  0  0  0  0  0  0  0  0  0
    3.3240   -4.1990   29.4080 C   0  0  0  0  0  0  0  0  0  0  0  0
    4.6890   -4.0850   28.6690 C   0  0  0  0  0  0  0  0  0  0  0  0
    5.1500   -3.1120   27.7580 C   0  0  0  0  0  0  0  0  0  0  0  0
    6.3860   -5.3580   23.8470 C   0  0  0  0  0  0  0  0  0  0  0  0
    6.6760   -5.5630   22.5330 C   0  0  0  0  0  0  0  0  0  0  0  0
  1  2  1  0
  2  3  2  0
  2  4  1  0
  4  5  1  0
  5  6  1  0
  6  7  1  0
  7  8  1  0
  8  9  2  0
  8 10  1  0
 10 11  1  0
 11 12  1  0
 12 13  1  0
 13 14  2  0
 14 15  1  0
 15 16  1  0
 16 17  1  0
 17 18  1  0
 18 19  1  0
 18 20  1  0
 18 21  1  0
 15 22  2  0
 22 23  1  0
 13 24  1  0
 23 24  2  0
 10 25  1  0
 24 25  1  0
  7 26  1  0
  4 27  1  0
 26 27  1  0
M  END
