piperidine-amides-24191-covalent
     RDKit          3D

 24 25  0  0  0  0  0  0  0  0999 V2000
    7.0980   -3.2460   19.2040 C   0  0  0  0  0  0  0  0  0  0  0  0
    6.3390   -4.0070   20.2080 C   0  0  0  0  0  0  0  0  0  0  0  0
    5.2710   -4.5650   19.8900 O   0  0  0  0  0  0  0  0  0  0  0  0
    6.8160   -4.1730   21.5150 N   0  0  0  0  0  0  0  0  0  0  0  0
    6.6740   -5.4770   22.1300 C   0  0  0  0  0  0  0  0  0  0  0  0
    6.1120   -5.2650   23.5360 C   0  0  0  0  0  0  0  0  0  0  0  0
    5.8540   -3.7870   23.6430 C   0  0  0  0  0  0  0  0  0  0  0  0
    5.1510   -3.4420   24.8880 C   0  0  0  0  0  0  0  0  0  0  0  0
    3.9060   -3.4120   24.8520 O   0  0  0  0  0  0  0  0  0  0  0  0
    5.8220   -3.1280   26.0710 N   0  0  0  0  0  0  0  0  0  0  0  0
    5.7720   -1.7080   26.3340 C   0  0  0  0  0  0  0  0  0  0  0  0
    5.5610   -4.0250   27.2110 C   0  0  1  0  0  0  0  0  0  0  0  0
    4.2190   -4.2550   27.1060 C   0  0  0  0  0  0  0  0  0  0  0  0
    3.2700   -3.5080   27.6950 C   0  0  0  0  0  0  0  0  0  0  0  0
    1.9960   -3.9070   27.4640 C   0  0  0  0  0  0  0  0  0  0  0  0
    1.6160   -4.9710   26.7080 C   0  0  0  0  0  0  0  0  0  0  0  0
    0.2380   -5.0900   26.6820 F   0  0  0  0  0  0  0  0  0  0  0  0
    2.5280   -5.9520   25.9520 C   0  0  0  0  0  0  0  0  0  0  0  0
    3.9010   -5.3490   26.3260 C   0  0  0  0  0  0  0  0  0  0  0  0
    6.3430   -5.1560   27.3490 C   0  0  0  0  0  0  0  0  0  0  0  0
    5.7180   -6.3800   27.8410 C   0  0  0  0  0  0  0  0  0  0  0  0
    7.1220   -5.3640   26.2110 C   0  0  0  0  0  0  0  0  0  0  0  0
    7.1890   -3.0620   23.5650 C   0  0  0  0  0  0  0  0  0  0  0  0
    7.6660   -3.1710   22.1440 C   0  0  0  0  0  0  0  0  0  0  0  0
  1  2  1  0
  2  3  2  0
  2  4  1  0
  4  5  1  0
  5  6  1  0
  6  7  1  0
  7  8  1  0
  8  9  2  0
  8 10  1  0
 10 11  1  0
 10 12  1  0
 12 13  1  0
 13 14  2  0
 14 15  1  0
 15 16  2  0
 16 17  1  0
 16 18  1  0
 13 19  1  0
 18 19  2  0
 12 20  1  6
 20 21  1  0
 20 22  1  0
  7 23  1  0
  4 24  1  0
 23 24  1  0
M  END
