piperidine-amides-28779-covalent
     RDKit          3D

 25 27  0  0  0  0  0  0  0  0999 V2000
    7.0640   -3.3490   19.3800 C   0  0  0  0  0  0  0  0  0  0  0  0
    6.4310   -4.2210   20.3630 C   0  0  0  0  0  0  0  0  0  0  0  0
    5.4170   -4.8510   19.9940 O   0  0  0  0  0  0  0  0  0  0  0  0
    6.9880   -4.3800   21.6660 N   0  0  0  0  0  0  0  0  0  0  0  0
    6.6320   -5.5620   22.4080 C   0  0  0  0  0  0  0  0  0  0  0  0
    6.2050   -5.1780   23.8000 C   0  0  0  0  0  0  0  0  0  0  0  0
    5.8790   -3.7030   23.7550 C   0  0  0  0  0  0  0  0  0  0  0  0
    4.9640   -3.2900   24.8830 C   0  0  0  0  0  0  0  0  0  0  0  0
    3.7890   -3.5260   24.6630 O   0  0  0  0  0  0  0  0  0  0  0  0
    5.3680   -2.7190   26.0790 N   0  0  0  0  0  0  0  0  0  0  0  0
    6.5120   -3.1560   26.6890 C   0  0  0  0  0  0  0  0  0  0  0  0
    6.2190   -4.2660   27.4860 C   0  0  0  0  0  0  0  0  0  0  0  0
    4.9490   -4.1860   27.9460 C   0  0  1  0  0  0  0  0  0  0  0  0
    5.1170   -4.1840   29.6000 S   0  0  0  0  0  0  0  0  0  0  0  0
    5.7060   -2.8760   30.0650 O   0  0  0  0  0  0  0  0  0  0  0  0
    5.9090   -5.3700   30.0460 O   0  0  0  0  0  0  0  0  0  0  0  0
    3.4730   -4.3650   30.1360 C   0  0  0  0  0  0  0  0  0  0  0  0
    2.8570   -5.6920   30.5050 C   0  0  0  0  0  0  0  0  0  0  0  0
    1.3790   -5.7950   30.9880 C   0  0  0  0  0  0  0  0  0  0  0  0
    0.5900   -4.5400   31.0740 C   0  0  0  0  0  0  0  0  0  0  0  0
    1.2400   -3.2470   30.6980 C   0  0  0  0  0  0  0  0  0  0  0  0
    2.7040   -3.2070   30.2280 C   0  0  0  0  0  0  0  0  0  0  0  0
    4.8870   -2.7570   27.4430 C   0  0  0  0  0  0  0  0  0  0  0  0
    7.1810   -2.9810   23.6670 C   0  0  0  0  0  0  0  0  0  0  0  0
    7.6720   -3.2380   22.2670 C   0  0  0  0  0  0  0  0  0  0  0  0
  1  2  1  0
  2  3  2  0
  2  4  1  0
  4  5  1  0
  5  6  1  0
  6  7  1  0
  7  8  1  0
  8  9  2  0
  8 10  1  0
 10 11  1  0
 11 12  1  0
 12 13  1  0
 13 14  1  1
 14 15  2  0
 14 16  2  0
 14 17  1  0
 17 18  2  0
 18 19  1  0
 19 20  2  0
 20 21  1  0
 17 22  1  0
 21 22  2  0
 10 23  1  0
 13 23  1  0
  7 24  1  0
  4 25  1  0
 24 25  1  0
M  END
