piperidine-amides-28766-covalent
     RDKit          3D

 26 27  0  0  0  0  0  0  0  0999 V2000
    7.0810   -3.3870   19.4090 C   0  0  0  0  0  0  0  0  0  0  0  0
    6.4160   -4.2570   20.3710 C   0  0  0  0  0  0  0  0  0  0  0  0
    5.3860   -4.8460   19.9910 O   0  0  0  0  0  0  0  0  0  0  0  0
    6.9740   -4.4690   21.6660 N   0  0  0  0  0  0  0  0  0  0  0  0
    6.4270   -5.5110   22.4580 C   0  0  0  0  0  0  0  0  0  0  0  0
    5.4530   -4.8780   23.4100 C   0  0  0  0  0  0  0  0  0  0  0  0
    6.2060   -3.9420   24.3480 C   0  0  0  0  0  0  0  0  0  0  0  0
    5.2120   -3.2470   25.2580 C   0  0  0  0  0  0  0  0  0  0  0  0
    4.4380   -2.4780   24.7090 O   0  0  0  0  0  0  0  0  0  0  0  0
    5.2180   -3.5150   26.6310 N   0  0  0  0  0  0  0  0  0  0  0  0
    6.3680   -3.9220   27.2500 C   0  0  0  0  0  0  0  0  0  0  0  0
    6.7190   -3.5050   28.5320 C   0  0  0  0  0  0  0  0  0  0  0  0
    5.6730   -4.0650   29.3510 N   0  0  0  0  0  0  0  0  0  0  0  0
    5.5650   -5.3680   29.8280 C   0  0  0  0  0  0  0  0  0  0  0  0
    6.5610   -6.1610   29.3160 O   0  0  0  0  0  0  0  0  0  0  0  0
    4.6110   -5.8410   30.7200 O   0  0  0  0  0  0  0  0  0  0  0  0
    4.5200   -7.2510   30.7250 C   0  0  0  0  0  0  0  0  0  0  0  0
    4.6010   -7.8700   29.3670 C   0  0  0  0  0  0  0  0  0  0  0  0
    3.4120   -7.5740   31.4690 C   0  0  0  0  0  0  0  0  0  0  0  0
    5.5560   -7.5990   31.5950 C   0  0  0  0  0  0  0  0  0  0  0  0
    4.3800   -3.7470   28.8740 C   0  0  0  0  0  0  0  0  0  0  0  0
    4.2330   -2.9660   27.5460 C   0  0  2  0  0  0  0  0  0  0  0  0
    2.9480   -2.8100   27.0700 C   0  0  0  0  0  0  0  0  0  0  0  0
    1.9160   -3.0330   27.9160 N   0  0  0  0  0  0  0  0  0  0  0  0
    6.9340   -2.8870   23.5480 C   0  0  0  0  0  0  0  0  0  0  0  0
    7.6400   -3.3590   22.2970 C   0  0  0  0  0  0  0  0  0  0  0  0
  1  2  1  0
  2  3  2  0
  2  4  1  0
  4  5  1  0
  5  6  1  0
  6  7  1  0
  7  8  1  0
  8  9  2  0
  8 10  1  0
 10 11  1  0
 11 12  1  0
 12 13  1  0
 13 14  1  0
 14 15  2  0
 14 16  1  0
 17 16  1  0
 17 18  1  0
 17 19  1  0
 17 20  1  0
 13 21  1  0
 10 22  1  0
 21 22  1  0
 22 23  1  6
 23 24  3  0
  7 25  1  0
  4 26  1  0
 25 26  1  0
M  END
