piperidine-amides-28891-covalent
     RDKit          3D

 22 24  0  0  0  0  0  0  0  0999 V2000
    7.0750   -3.3420   19.3190 C   0  0  0  0  0  0  0  0  0  0  0  0
    6.3580   -4.1330   20.3110 C   0  0  0  0  0  0  0  0  0  0  0  0
    5.3280   -4.7280   19.9530 O   0  0  0  0  0  0  0  0  0  0  0  0
    6.8810   -4.2470   21.6260 N   0  0  0  0  0  0  0  0  0  0  0  0
    7.5600   -3.1190   22.2050 C   0  0  0  0  0  0  0  0  0  0  0  0
    6.7110   -2.5700   23.3060 C   0  0  0  0  0  0  0  0  0  0  0  0
    6.4700   -3.7480   24.2040 C   0  0  0  0  0  0  0  0  0  0  0  0
    5.7030   -3.3640   25.4480 C   0  0  0  0  0  0  0  0  0  0  0  0
    4.4810   -3.2570   25.3540 O   0  0  0  0  0  0  0  0  0  0  0  0
    6.3900   -3.1650   26.6530 N   0  0  0  0  0  0  0  0  0  0  0  0
    6.4210   -1.8660   27.2620 C   0  0  0  0  0  0  0  0  0  0  0  0
    7.0010   -1.6470   28.4980 C   0  0  0  0  0  0  0  0  0  0  0  0
    7.0230   -0.4100   29.1100 C   0  0  0  0  0  0  0  0  0  0  0  0
    6.4780    0.7770   28.5900 C   0  0  0  0  0  0  0  0  0  0  0  0
    6.5610    2.4280   29.5370 Br  0  0  0  0  0  0  0  0  0  0  0  0
    5.8420    0.5800   27.2330 C   0  0  0  0  0  0  0  0  0  0  0  0
    5.8080   -0.7960   26.5310 C   0  0  0  0  0  0  0  0  0  0  0  0
    6.3920   -4.2350   27.6340 C   0  0  0  0  0  0  0  0  0  0  0  0
    5.1600   -4.6180   28.0620 C   0  0  0  0  0  0  0  0  0  0  0  0
    6.0920   -5.5310   27.1100 C   0  0  0  0  0  0  0  0  0  0  0  0
    5.6700   -4.7920   23.4550 C   0  0  0  0  0  0  0  0  0  0  0  0
    6.4920   -5.3360   22.4890 C   0  0  0  0  0  0  0  0  0  0  0  0
  1  2  1  0
  2  3  2  0
  2  4  1  0
  4  5  1  0
  5  6  1  0
  6  7  1  0
  7  8  1  0
  8  9  2  0
  8 10  1  0
 10 11  1  0
 11 12  2  0
 12 13  1  0
 13 14  2  0
 14 15  1  0
 14 16  1  0
 11 17  1  0
 16 17  2  0
 10 18  1  0
 18 19  1  0
 18 20  1  0
 19 20  1  0
  7 21  1  0
  4 22  1  0
 21 22  1  0
M  END
