piperidine-amides-8055-covalent
     RDKit          3D

 26 28  0  0  0  0  0  0  0  0999 V2000
    7.0180   -3.3300   19.3090 C   0  0  0  0  0  0  0  0  0  0  0  0
    6.3490   -4.1690   20.3040 C   0  0  0  0  0  0  0  0  0  0  0  0
    5.3440   -4.8110   19.9600 O   0  0  0  0  0  0  0  0  0  0  0  0
    6.8600   -4.2660   21.6150 N   0  0  0  0  0  0  0  0  0  0  0  0
    7.6350   -3.1740   22.1360 C   0  0  0  0  0  0  0  0  0  0  0  0
    7.4990   -3.1390   23.6190 C   0  0  0  0  0  0  0  0  0  0  0  0
    6.1000   -3.6210   23.9380 C   0  0  0  0  0  0  0  0  0  0  0  0
    5.6940   -3.1990   25.3110 C   0  0  0  0  0  0  0  0  0  0  0  0
    4.5010   -3.2900   25.5970 O   0  0  0  0  0  0  0  0  0  0  0  0
    6.7090   -2.7380   26.1350 N   0  0  0  0  0  0  0  0  0  0  0  0
    6.5850   -1.6450   27.0380 C   0  0  0  0  0  0  0  0  0  0  0  0
    7.0450   -1.5900   28.3670 C   0  0  0  0  0  0  0  0  0  0  0  0
    6.8890   -0.4890   29.1800 C   0  0  0  0  0  0  0  0  0  0  0  0
    6.2540    0.6700   28.7430 C   0  0  0  0  0  0  0  0  0  0  0  0
    6.2420    1.6730   29.8560 C   0  0  0  0  0  0  0  0  0  0  0  0
    5.2810    2.6450   29.7410 O   0  0  0  0  0  0  0  0  0  0  0  0
    7.1230    1.6520   30.9470 O   0  0  0  0  0  0  0  0  0  0  0  0
    7.0230    0.6440   31.9510 C   0  0  0  0  0  0  0  0  0  0  0  0
    5.7280    0.8170   27.4600 C   0  0  0  0  0  0  0  0  0  0  0  0
    5.8980   -0.3650   26.5830 C   0  0  0  0  0  0  0  0  0  0  0  0
    5.3200   -0.2040   25.1590 C   0  0  0  0  0  0  0  0  0  0  0  0
    4.5310    0.8990   24.9020 C   0  0  0  0  0  0  0  0  0  0  0  0
    4.7200    2.0960   25.5670 C   0  0  0  0  0  0  0  0  0  0  0  0
    5.0960    1.9730   27.0310 C   0  0  0  0  0  0  0  0  0  0  0  0
    6.0560   -5.1450   23.7510 C   0  0  0  0  0  0  0  0  0  0  0  0
    6.6690   -5.4470   22.3980 C   0  0  0  0  0  0  0  0  0  0  0  0
  1  2  1  0
  2  3  2  0
  2  4  1  0
  4  5  1  0
  5  6  1  0
  6  7  1  0
  7  8  1  0
  8  9  2  0
  8 10  1  0
 10 11  1  0
 11 12  2  0
 12 13  1  0
 13 14  2  0
 14 15  1  0
 15 16  2  0
 15 17  1  0
 17 18  1  0
 14 19  1  0
 11 20  1  0
 19 20  2  0
 20 21  1  0
 21 22  1  0
 22 23  1  0
 19 24  1  0
 23 24  1  0
  7 25  1  0
  4 26  1  0
 25 26  1  0
M  END
