piperidine-amides-29081-covalent
     RDKit          3D

 27 30  0  0  0  0  0  0  0  0999 V2000
    7.0520   -3.3570   19.3470 C   0  0  0  0  0  0  0  0  0  0  0  0
    6.4300   -4.2250   20.3410 C   0  0  0  0  0  0  0  0  0  0  0  0
    5.4070   -4.8490   19.9930 O   0  0  0  0  0  0  0  0  0  0  0  0
    7.0150   -4.3900   21.6300 N   0  0  0  0  0  0  0  0  0  0  0  0
    7.6550   -3.2700   22.2540 C   0  0  0  0  0  0  0  0  0  0  0  0
    6.7970   -2.7880   23.3830 C   0  0  0  0  0  0  0  0  0  0  0  0
    6.4450   -3.9710   24.2730 C   0  0  0  0  0  0  0  0  0  0  0  0
    5.6240   -3.4850   25.4380 C   0  0  0  0  0  0  0  0  0  0  0  0
    4.4160   -3.4300   25.2170 O   0  0  0  0  0  0  0  0  0  0  0  0
    6.1940   -3.1160   26.6620 N   0  0  0  0  0  0  0  0  0  0  0  0
    6.0710   -3.9960   27.7830 C   0  0  0  0  0  0  0  0  0  0  0  0
    5.3600   -3.4300   28.8490 C   0  0  0  0  0  0  0  0  0  0  0  0
    4.1840   -3.9650   29.3390 C   0  0  0  0  0  0  0  0  0  0  0  0
    3.4210   -3.4500   30.3940 C   0  0  0  0  0  0  0  0  0  0  0  0
    3.9800   -2.1990   31.0110 C   0  0  0  0  0  0  0  0  0  0  0  0
    3.3270   -1.6150   32.0380 N   0  0  0  0  0  0  0  0  0  0  0  0
    3.3930   -2.0850   33.2850 C   0  0  0  0  0  0  0  0  0  0  0  0
    2.6460   -1.3590   34.2840 C   0  0  0  0  0  0  0  0  0  0  0  0
    2.1320   -0.3590   33.3290 C   0  0  0  0  0  0  0  0  0  0  0  0
    2.5240   -0.5080   32.0370 N   0  0  0  0  0  0  0  0  0  0  0  0
    5.1870   -1.6860   30.4780 C   0  0  0  0  0  0  0  0  0  0  0  0
    5.8470   -2.2750   29.4480 C   0  0  0  0  0  0  0  0  0  0  0  0
    5.9000   -1.7570   27.0100 C   0  0  0  0  0  0  0  0  0  0  0  0
    6.4440   -0.6800   26.3690 C   0  0  0  0  0  0  0  0  0  0  0  0
    6.9110   -0.7970   27.8100 C   0  0  0  0  0  0  0  0  0  0  0  0
    5.6170   -4.9810   23.4760 C   0  0  0  0  0  0  0  0  0  0  0  0
    6.5860   -5.5150   22.4200 C   0  0  0  0  0  0  0  0  0  0  0  0
  1  2  1  0
  2  3  2  0
  2  4  1  0
  4  5  1  0
  5  6  1  0
  6  7  1  0
  7  8  1  0
  8  9  2  0
  8 10  1  0
 10 11  1  0
 11 12  1  0
 12 13  2  0
 13 14  1  0
 14 15  2  0
 15 16  1  0
 16 17  1  0
 17 18  2  0
 18 19  1  0
 16 20  1  0
 19 20  2  0
 15 21  1  0
 12 22  1  0
 21 22  2  0
 10 23  1  0
 23 24  1  0
 23 25  1  0
 24 25  1  0
  7 26  1  0
  4 27  1  0
 26 27  1  0
M  END
