piperidine-amides-29066-covalent
     RDKit          3D

 26 28  0  0  0  0  0  0  0  0999 V2000
    7.0250   -3.3980   19.4410 C   0  0  0  0  0  0  0  0  0  0  0  0
    6.3550   -4.2560   20.4160 C   0  0  0  0  0  0  0  0  0  0  0  0
    5.4050   -4.9490   20.0060 O   0  0  0  0  0  0  0  0  0  0  0  0
    6.8100   -4.3100   21.7650 N   0  0  0  0  0  0  0  0  0  0  0  0
    6.6060   -5.5350   22.5060 C   0  0  0  0  0  0  0  0  0  0  0  0
    6.1630   -5.2550   23.9310 C   0  0  0  0  0  0  0  0  0  0  0  0
    6.0960   -3.7530   24.0740 C   0  0  0  0  0  0  0  0  0  0  0  0
    5.5230   -3.2110   25.3730 C   0  0  0  0  0  0  0  0  0  0  0  0
    5.0240   -2.1030   25.2450 O   0  0  0  0  0  0  0  0  0  0  0  0
    5.5290   -3.8990   26.6030 N   0  0  0  0  0  0  0  0  0  0  0  0
    6.3160   -3.4360   27.6470 C   0  0  0  0  0  0  0  0  0  0  0  0
    6.7170   -4.4960   28.4580 C   0  0  0  0  0  0  0  0  0  0  0  0
    5.7690   -4.9590   29.2810 C   0  0  2  0  0  0  0  0  0  0  0  0
    5.8980   -6.1880   29.9300 C   0  0  0  0  0  0  0  0  0  0  0  0
    5.9730   -7.2800   29.0870 O   0  0  0  0  0  0  0  0  0  0  0  0
    5.9520   -6.3470   31.1790 O   0  0  0  0  0  0  0  0  0  0  0  0
    5.5360   -7.5860   31.7130 C   0  0  0  0  0  0  0  0  0  0  0  0
    4.5240   -5.1950   28.4570 C   0  0  0  0  0  0  0  0  0  0  0  0
    4.3200   -4.4420   27.1650 C   0  0  1  0  0  0  0  0  0  0  0  0
    3.2290   -3.4020   27.3670 C   0  0  2  0  0  0  0  0  0  0  0  0
    3.5370   -2.6120   28.6550 C   0  0  0  0  0  0  0  0  0  0  0  0
    2.4200   -2.4950   29.3940 C   0  0  0  0  0  0  0  0  0  0  0  0
    1.3710   -3.0760   28.7290 C   0  0  0  0  0  0  0  0  0  0  0  0
    1.9360   -3.8840   27.6710 O   0  0  0  0  0  0  0  0  0  0  0  0
    7.4040   -3.1170   23.7640 C   0  0  0  0  0  0  0  0  0  0  0  0
    7.6730   -3.2740   22.2970 C   0  0  0  0  0  0  0  0  0  0  0  0
  1  2  1  0
  2  3  2  0
  2  4  1  0
  4  5  1  0
  5  6  1  0
  6  7  1  0
  7  8  1  0
  8  9  2  0
  8 10  1  0
 10 11  1  0
 11 12  1  0
 12 13  1  0
 13 14  1  6
 14 15  2  0
 14 16  1  0
 16 17  1  0
 13 18  1  0
 10 19  1  0
 19 18  1  1
 19 20  1  0
 20 21  1  1
 21 22  1  0
 22 23  1  0
 20 24  1  0
 23 24  1  0
  7 25  1  0
  4 26  1  0
 25 26  1  0
M  END
