piperidine-amides-33437-covalent
     RDKit          3D

 29 31  0  0  0  0  0  0  0  0999 V2000
    7.0820   -3.3380   19.3310 C   0  0  0  0  0  0  0  0  0  0  0  0
    6.4160   -4.1840   20.3360 C   0  0  0  0  0  0  0  0  0  0  0  0
    5.3720   -4.7800   19.9680 O   0  0  0  0  0  0  0  0  0  0  0  0
    6.9610   -4.3670   21.6330 N   0  0  0  0  0  0  0  0  0  0  0  0
    6.5540   -5.4920   22.3930 C   0  0  0  0  0  0  0  0  0  0  0  0
    6.0990   -5.1750   23.7470 C   0  0  0  0  0  0  0  0  0  0  0  0
    6.6570   -3.9460   24.3660 C   0  0  0  0  0  0  0  0  0  0  0  0
    5.6590   -3.3690   25.3320 C   0  0  0  0  0  0  0  0  0  0  0  0
    4.6250   -2.8610   24.8640 O   0  0  0  0  0  0  0  0  0  0  0  0
    5.7980   -3.3560   26.7430 N   0  0  0  0  0  0  0  0  0  0  0  0
    4.9020   -2.8190   27.6720 C   0  0  0  0  0  0  0  0  0  0  0  0
    4.6630   -3.5780   28.8930 C   0  0  0  0  0  0  0  0  0  0  0  0
    5.5290   -4.4400   29.2090 O   0  0  0  0  0  0  0  0  0  0  0  0
    6.1410   -5.0850   28.1600 C   0  0  0  0  0  0  0  0  0  0  0  0
    7.0290   -5.9530   28.7170 C   0  0  0  0  0  0  0  0  0  0  0  0
    6.0250   -6.4380   29.8180 C   0  0  0  0  0  0  0  0  0  0  0  0
    4.7700   -6.8220   29.2590 N   0  0  0  0  0  0  0  0  0  0  0  0
    3.8030   -6.7330   30.3710 C   0  0  0  0  0  0  0  0  0  0  0  0
    4.0800   -7.2320   31.6500 O   0  0  0  0  0  0  0  0  0  0  0  0
    2.6640   -6.1890   30.2140 O   0  0  0  0  0  0  0  0  0  0  0  0
    1.6620   -7.0140   29.7950 C   0  0  0  0  0  0  0  0  0  0  0  0
    0.4360   -6.9110   30.6650 C   0  0  0  0  0  0  0  0  0  0  0  0
    2.1590   -8.4450   29.7340 C   0  0  0  0  0  0  0  0  0  0  0  0
    1.3220   -6.5060   28.4610 C   0  0  0  0  0  0  0  0  0  0  0  0
    4.4640   -6.6600   27.9910 C   0  0  0  0  0  0  0  0  0  0  0  0
    5.1810   -5.6750   27.3680 C   0  0  0  0  0  0  0  0  0  0  0  0
    6.7540   -4.1720   27.3900 C   0  0  0  0  0  0  0  0  0  0  0  0
    6.9480   -2.8880   23.3430 C   0  0  0  0  0  0  0  0  0  0  0  0
    7.7330   -3.3400   22.2950 C   0  0  0  0  0  0  0  0  0  0  0  0
  1  2  1  0
  2  3  2  0
  2  4  1  0
  4  5  1  0
  5  6  1  0
  6  7  1  0
  7  8  1  0
  8  9  2  0
  8 10  1  0
 10 11  1  0
 11 12  1  0
 12 13  1  0
 14 13  1  0
 14 15  1  0
 15 16  1  0
 16 17  1  0
 17 18  1  0
 18 19  2  0
 18 20  1  0
 21 20  1  0
 21 22  1  0
 21 23  1  0
 21 24  1  0
 17 25  1  0
 14 26  1  0
 25 26  1  0
 10 27  1  0
 14 27  1  0
  7 28  1  0
  4 29  1  0
 28 29  1  0
M  END
