piperidine-amides-34093-covalent
     RDKit          3D

 30 32  0  0  0  0  0  0  0  0999 V2000
    7.0320   -3.3500   19.3250 C   0  0  0  0  0  0  0  0  0  0  0  0
    6.3580   -4.2090   20.3080 C   0  0  0  0  0  0  0  0  0  0  0  0
    5.3570   -4.8780   19.9810 O   0  0  0  0  0  0  0  0  0  0  0  0
    6.8610   -4.3170   21.6080 N   0  0  0  0  0  0  0  0  0  0  0  0
    6.6190   -5.5360   22.3680 C   0  0  0  0  0  0  0  0  0  0  0  0
    5.9010   -5.1700   23.6900 C   0  0  0  0  0  0  0  0  0  0  0  0
    6.0310   -3.6770   23.8240 C   0  0  0  0  0  0  0  0  0  0  0  0
    5.6660   -3.1590   25.1650 C   0  0  0  0  0  0  0  0  0  0  0  0
    4.8420   -2.2290   25.2110 O   0  0  0  0  0  0  0  0  0  0  0  0
    6.1920   -3.7040   26.3530 N   0  0  0  0  0  0  0  0  0  0  0  0
    6.1830   -2.8820   27.5650 C   0  0  0  0  0  0  0  0  0  0  0  0
    4.8750   -3.0590   28.3000 C   0  0  2  0  0  0  0  0  0  0  0  0
    5.0170   -2.5420   29.6560 N   0  0  0  0  0  0  0  0  0  0  0  0
    3.9080   -2.4240   30.5970 C   0  0  0  0  0  0  0  0  0  0  0  0
    3.3320   -1.2990   30.5450 O   0  0  0  0  0  0  0  0  0  0  0  0
    3.5110   -3.3720   31.4450 O   0  0  0  0  0  0  0  0  0  0  0  0
    2.7980   -4.4690   31.6330 C   0  0  0  0  0  0  0  0  0  0  0  0
    1.5970   -4.0980   32.2320 C   0  0  0  0  0  0  0  0  0  0  0  0
    3.5470   -5.2740   32.4530 C   0  0  0  0  0  0  0  0  0  0  0  0
    2.6240   -5.3160   30.5580 C   0  0  0  0  0  0  0  0  0  0  0  0
    4.7290   -4.5750   28.1040 C   0  0  0  0  0  0  0  0  0  0  0  0
    5.8260   -4.8520   27.1230 C   0  0  0  0  0  0  0  0  0  0  0  0
    4.5710   -5.5710   26.8600 C   0  0  0  0  0  0  0  0  0  0  0  0
    4.5910   -6.8960   27.3030 C   0  0  0  0  0  0  0  0  0  0  0  0
    4.4730   -7.1740   28.6320 C   0  0  0  0  0  0  0  0  0  0  0  0
    5.6440   -6.9810   29.5550 C   0  0  0  0  0  0  0  0  0  0  0  0
    6.6530   -5.9070   29.2040 C   0  0  0  0  0  0  0  0  0  0  0  0
    6.9480   -5.5290   27.7790 C   0  0  0  0  0  0  0  0  0  0  0  0
    7.3710   -3.1830   23.4860 C   0  0  0  0  0  0  0  0  0  0  0  0
    7.6590   -3.2650   22.1840 C   0  0  0  0  0  0  0  0  0  0  0  0
  1  2  1  0
  2  3  2  0
  2  4  1  0
  4  5  1  0
  5  6  1  0
  6  7  1  0
  7  8  1  0
  8  9  2  0
  8 10  1  0
 10 11  1  0
 11 12  1  0
 12 13  1  1
 13 14  1  0
 14 15  2  0
 14 16  1  0
 17 16  1  0
 17 18  1  0
 17 19  1  0
 17 20  1  0
 12 21  1  0
 22 10  1  0
 21 22  1  0
 22 23  1  0
 23 24  1  0
 24 25  1  0
 25 26  1  0
 26 27  1  0
 22 28  1  0
 27 28  1  0
  7 29  1  0
  4 30  1  0
 29 30  1  0
M  END
