piperidine-amides-1214-covalent
     RDKit          3D

 23 24  0  0  0  0  0  0  0  0999 V2000
    7.1220   -3.2770   19.2750 C   0  0  0  0  0  0  0  0  0  0  0  0
    6.3040   -4.0300   20.2640 C   0  0  0  0  0  0  0  0  0  0  0  0
    5.2490   -4.5640   19.8860 O   0  0  0  0  0  0  0  0  0  0  0  0
    6.7670   -4.1700   21.5920 N   0  0  0  0  0  0  0  0  0  0  0  0
    6.5530   -5.4140   22.2930 C   0  0  0  0  0  0  0  0  0  0  0  0
    6.4740   -5.1410   23.8070 C   0  0  0  0  0  0  0  0  0  0  0  0
    6.1980   -3.6890   24.0220 C   0  0  0  0  0  0  0  0  0  0  0  0
    5.5590   -3.3980   25.3320 C   0  0  0  0  0  0  0  0  0  0  0  0
    4.3270   -3.4700   25.3450 O   0  0  0  0  0  0  0  0  0  0  0  0
    6.2990   -3.0430   26.4720 N   0  0  0  0  0  0  0  0  0  0  0  0
    6.7960   -1.7190   26.6410 C   0  0  0  0  0  0  0  0  0  0  0  0
    6.1290   -3.7680   27.7020 C   0  0  0  0  0  0  0  0  0  0  0  0
    5.3740   -4.9620   27.7610 C   0  0  1  0  0  0  0  0  0  0  0  0
    6.2120   -6.0700   27.3620 N   0  0  0  0  0  0  0  0  0  0  0  0
    4.9000   -5.2560   29.0160 C   0  0  0  0  0  0  0  0  0  0  0  0
    3.5290   -5.8040   29.1950 C   0  0  0  0  0  0  0  0  0  0  0  0
    2.2670   -4.9990   29.4790 C   0  0  0  0  0  0  0  0  0  0  0  0
    0.9890   -5.7850   29.6240 C   0  0  0  0  0  0  0  0  0  0  0  0
    0.9340   -7.1520   29.5110 C   0  0  0  0  0  0  0  0  0  0  0  0
    2.0630   -8.0830   29.2380 C   0  0  0  0  0  0  0  0  0  0  0  0
    3.3740   -7.2950   29.0880 C   0  0  0  0  0  0  0  0  0  0  0  0
    7.4360   -2.9910   23.6790 C   0  0  0  0  0  0  0  0  0  0  0  0
    7.6390   -3.1640   22.1640 C   0  0  0  0  0  0  0  0  0  0  0  0
  1  2  1  0
  2  3  2  0
  2  4  1  0
  4  5  1  0
  5  6  1  0
  6  7  1  0
  7  8  1  0
  8  9  2  0
  8 10  1  0
 10 11  1  0
 10 12  1  0
 12 13  1  0
 13 14  1  1
 13 15  1  0
 15 16  1  0
 16 17  2  0
 17 18  1  0
 18 19  2  0
 19 20  1  0
 16 21  1  0
 20 21  2  0
  7 22  1  0
  4 23  1  0
 22 23  1  0
M  END
