piperidine-amides-1294-covalent
     RDKit          3D

 22 23  0  0  0  0  0  0  0  0999 V2000
    7.0820   -3.3300   19.3290 C   0  0  0  0  0  0  0  0  0  0  0  0
    6.3770   -4.1910   20.3150 C   0  0  0  0  0  0  0  0  0  0  0  0
    5.3500   -4.7990   19.9670 O   0  0  0  0  0  0  0  0  0  0  0  0
    6.9300   -4.3370   21.6030 N   0  0  0  0  0  0  0  0  0  0  0  0
    7.6880   -3.2960   22.2530 C   0  0  0  0  0  0  0  0  0  0  0  0
    6.7550   -2.6520   23.2790 C   0  0  0  0  0  0  0  0  0  0  0  0
    6.3580   -3.7390   24.2120 C   0  0  0  0  0  0  0  0  0  0  0  0
    5.5940   -3.2650   25.3940 C   0  0  0  0  0  0  0  0  0  0  0  0
    4.3770   -3.1280   25.2270 O   0  0  0  0  0  0  0  0  0  0  0  0
    6.2470   -2.9790   26.6210 N   0  0  0  0  0  0  0  0  0  0  0  0
    6.4900   -1.6740   27.1570 C   0  0  0  0  0  0  0  0  0  0  0  0
    6.2530   -0.7340   26.3600 C   0  0  0  0  0  0  0  0  0  0  0  0
    6.1590   -2.2370   26.3240 N   0  0  0  0  0  0  0  0  0  0  0  0
    6.5910   -2.7020   27.6270 N   0  0  0  0  0  0  0  0  0  0  0  0
    6.6190   -4.1380   27.9520 C   0  0  0  0  0  0  0  0  0  0  0  0
    5.4310   -4.4010   28.5700 C   0  0  0  0  0  0  0  0  0  0  0  0
    4.3940   -4.8320   27.5940 C   0  0  0  0  0  0  0  0  0  0  0  0
    5.5390   -5.5000   29.4160 C   0  0  0  0  0  0  0  0  0  0  0  0
    5.0890   -3.3770   29.4160 C   0  0  0  0  0  0  0  0  0  0  0  0
    6.9240   -1.6360   28.3790 C   0  0  0  0  0  0  0  0  0  0  0  0
    5.6280   -4.8730   23.5670 C   0  0  0  0  0  0  0  0  0  0  0  0
    6.4620   -5.4270   22.4230 C   0  0  0  0  0  0  0  0  0  0  0  0
  1  2  1  0
  2  3  2  0
  2  4  1  0
  4  5  1  0
  5  6  1  0
  6  7  1  0
  7  8  1  0
  8  9  2  0
  8 10  1  0
 10 11  1  0
 11 12  1  0
 12 13  2  0
 13 14  1  0
 14 15  1  0
 16 15  1  0
 16 17  1  0
 16 18  1  0
 16 19  1  0
 11 20  2  0
 14 20  1  0
  7 21  1  0
  4 22  1  0
 21 22  1  0
M  END
