piperidine-amides-8669-covalent
     RDKit          3D

 23 25  0  0  0  0  0  0  0  0999 V2000
    7.0820   -3.2910   19.2600 C   0  0  0  0  0  0  0  0  0  0  0  0
    6.3730   -4.0730   20.2780 C   0  0  0  0  0  0  0  0  0  0  0  0
    5.3540   -4.7000   19.9380 O   0  0  0  0  0  0  0  0  0  0  0  0
    6.8640   -4.1290   21.6070 N   0  0  0  0  0  0  0  0  0  0  0  0
    7.7770   -3.1090   22.0590 C   0  0  0  0  0  0  0  0  0  0  0  0
    7.5460   -2.8000   23.4990 C   0  0  0  0  0  0  0  0  0  0  0  0
    6.1740   -3.3350   23.7930 C   0  0  0  0  0  0  0  0  0  0  0  0
    5.7820   -2.9470   25.1830 C   0  0  0  0  0  0  0  0  0  0  0  0
    4.7430   -3.4440   25.6190 O   0  0  0  0  0  0  0  0  0  0  0  0
    6.6000   -2.0330   25.8560 N   0  0  0  0  0  0  0  0  0  0  0  0
    7.7380   -2.4390   26.6050 C   0  0  0  0  0  0  0  0  0  0  0  0
    7.5730   -3.6840   27.1620 C   0  0  0  0  0  0  0  0  0  0  0  0
    8.3510   -4.7560   26.7200 C   0  0  0  0  0  0  0  0  0  0  0  0
    8.2560   -6.0460   27.2100 C   0  0  0  0  0  0  0  0  0  0  0  0
    7.2250   -6.1850   28.2650 C   0  0  0  0  0  0  0  0  0  0  0  0
    6.8740   -7.2800   28.9370 N   0  0  0  0  0  0  0  0  0  0  0  0
    5.9970   -6.9690   29.8970 C   0  0  0  0  0  0  0  0  0  0  0  0
    5.6250   -7.7450   30.8120 O   0  0  0  0  0  0  0  0  0  0  0  0
    5.6310   -5.7050   29.7060 N   0  0  0  0  0  0  0  0  0  0  0  0
    6.4820   -5.1770   28.6990 C   0  0  0  0  0  0  0  0  0  0  0  0
    6.6080   -3.8180   28.1650 C   0  0  0  0  0  0  0  0  0  0  0  0
    6.0100   -4.7880   23.6250 C   0  0  0  0  0  0  0  0  0  0  0  0
    6.6070   -5.2650   22.4740 C   0  0  0  0  0  0  0  0  0  0  0  0
  1  2  1  0
  2  3  2  0
  2  4  1  0
  4  5  1  0
  5  6  1  0
  6  7  1  0
  7  8  1  0
  8  9  2  0
  8 10  1  0
 10 11  1  0
 11 12  1  0
 12 13  2  0
 13 14  1  0
 14 15  2  0
 15 16  1  0
 16 17  1  0
 17 18  2  0
 17 19  1  0
 15 20  1  0
 19 20  1  0
 12 21  1  0
 20 21  2  0
  7 22  1  0
  4 23  1  0
 22 23  1  0
M  END
