piperidine-amides-25292-covalent
     RDKit          3D

 25 27  0  0  0  0  0  0  0  0999 V2000
    7.1190   -3.2740   19.1930 C   0  0  0  0  0  0  0  0  0  0  0  0
    6.3130   -3.9880   20.2110 C   0  0  0  0  0  0  0  0  0  0  0  0
    5.2490   -4.4820   19.8540 O   0  0  0  0  0  0  0  0  0  0  0  0
    6.7970   -4.1160   21.5070 N   0  0  0  0  0  0  0  0  0  0  0  0
    6.5780   -5.3000   22.2960 C   0  0  0  0  0  0  0  0  0  0  0  0
    5.8370   -4.9240   23.5450 C   0  0  0  0  0  0  0  0  0  0  0  0
    6.5470   -3.7450   24.2070 C   0  0  0  0  0  0  0  0  0  0  0  0
    5.7450   -3.3450   25.3870 C   0  0  0  0  0  0  0  0  0  0  0  0
    4.5160   -3.2410   25.2760 O   0  0  0  0  0  0  0  0  0  0  0  0
    6.3570   -3.0550   26.6260 N   0  0  0  0  0  0  0  0  0  0  0  0
    6.7580   -1.6800   26.8130 C   0  0  0  0  0  0  0  0  0  0  0  0
    6.2240   -3.9220   27.7690 C   0  0  0  0  0  0  0  0  0  0  0  0
    5.1780   -4.8160   27.7180 C   0  0  0  0  0  0  0  0  0  0  0  0
    4.6620   -5.9360   28.5110 N   0  0  0  0  0  0  0  0  0  0  0  0
    3.5240   -6.8540   28.3960 C   0  0  0  0  0  0  0  0  0  0  0  0
    2.8970   -7.4260   29.4300 C   0  0  0  0  0  0  0  0  0  0  0  0
    1.7290   -8.3820   29.4090 C   0  0  0  0  0  0  0  0  0  0  0  0
    1.2750   -8.6790   27.9820 C   0  0  0  0  0  0  0  0  0  0  0  0
    1.9890   -8.0330   26.7820 C   0  0  0  0  0  0  0  0  0  0  0  0
    3.1090   -7.1310   27.1650 C   0  0  0  0  0  0  0  0  0  0  0  0
    3.9430   -6.3840   26.2480 C   0  0  0  0  0  0  0  0  0  0  0  0
    4.3660   -6.8210   25.1260 O   0  0  0  0  0  0  0  0  0  0  0  0
    4.0950   -5.1040   26.9660 N   0  0  0  0  0  0  0  0  0  0  0  0
    6.9010   -2.6250   23.3130 C   0  0  0  0  0  0  0  0  0  0  0  0
    7.6020   -3.0630   22.0870 C   0  0  0  0  0  0  0  0  0  0  0  0
  1  2  1  0
  2  3  2  0
  2  4  1  0
  4  5  1  0
  5  6  1  0
  6  7  1  0
  7  8  1  0
  8  9  2  0
  8 10  1  0
 10 11  1  0
 10 12  1  0
 12 13  1  0
 13 14  2  0
 14 15  1  0
 15 16  2  0
 16 17  1  0
 17 18  2  0
 18 19  1  0
 15 20  1  0
 19 20  2  0
 20 21  1  0
 21 22  2  0
 13 23  1  0
 21 23  1  0
  7 24  1  0
  4 25  1  0
 24 25  1  0
M  END
