piperidine-amides-29191-covalent
     RDKit          3D

 26 27  0  0  0  0  0  0  0  0999 V2000
    7.1540   -3.3170   19.2790 C   0  0  0  0  0  0  0  0  0  0  0  0
    6.4040   -4.0980   20.2540 C   0  0  0  0  0  0  0  0  0  0  0  0
    5.3050   -4.5690   19.9020 O   0  0  0  0  0  0  0  0  0  0  0  0
    6.9720   -4.3590   21.5270 N   0  0  0  0  0  0  0  0  0  0  0  0
    6.4250   -5.4190   22.2970 C   0  0  0  0  0  0  0  0  0  0  0  0
    5.5250   -4.7920   23.3110 C   0  0  0  0  0  0  0  0  0  0  0  0
    6.3690   -3.9100   24.2170 C   0  0  0  0  0  0  0  0  0  0  0  0
    5.4340   -3.2320   25.1610 C   0  0  0  0  0  0  0  0  0  0  0  0
    4.5430   -2.5910   24.6200 O   0  0  0  0  0  0  0  0  0  0  0  0
    5.5660   -3.3300   26.5350 N   0  0  0  0  0  0  0  0  0  0  0  0
    4.3600   -3.1560   27.2550 C   0  0  0  0  0  0  0  0  0  0  0  0
    4.8600   -2.2770   28.0910 C   0  0  0  0  0  0  0  0  0  0  0  0
    4.6180   -2.4200   29.4270 C   0  0  0  0  0  0  0  0  0  0  0  0
    3.2930   -2.2640   29.8010 C   0  0  0  0  0  0  0  0  0  0  0  0
    3.3320   -1.3480   30.9830 C   0  0  0  0  0  0  0  0  0  0  0  0
    4.3700   -1.6290   31.8340 O   0  0  0  0  0  0  0  0  0  0  0  0
    2.4310   -0.3570   31.1810 N   0  0  0  0  0  0  0  0  0  0  0  0
    2.3440    0.2610   32.3580 C   0  0  1  0  0  0  0  0  0  0  0  0
    2.3710    1.7410   32.2430 C   0  0  0  0  0  0  0  0  0  0  0  0
    1.0040   -0.0370   32.9840 C   0  0  0  0  0  0  0  0  0  0  0  0
   -0.0130   -0.0080   32.2510 O   0  0  0  0  0  0  0  0  0  0  0  0
    0.8670   -0.3390   34.3240 O   0  0  0  0  0  0  0  0  0  0  0  0
    0.0010   -1.3910   34.6850 C   0  0  0  0  0  0  0  0  0  0  0  0
    6.1660   -2.5230   27.6850 C   0  0  0  0  0  0  0  0  0  0  0  0
    7.0120   -2.8130   23.4120 C   0  0  0  0  0  0  0  0  0  0  0  0
    7.6810   -3.2670   22.1460 C   0  0  0  0  0  0  0  0  0  0  0  0
  1  2  1  0
  2  3  2  0
  2  4  1  0
  4  5  1  0
  5  6  1  0
  6  7  1  0
  7  8  1  0
  8  9  2  0
  8 10  1  0
 10 11  1  0
 11 12  1  0
 12 13  1  0
 13 14  1  0
 14 15  1  0
 15 16  2  0
 15 17  1  0
 17 18  1  0
 18 19  1  6
 18 20  1  0
 20 21  2  0
 20 22  1  0
 22 23  1  0
 10 24  1  0
 12 24  1  0
  7 25  1  0
  4 26  1  0
 25 26  1  0
M  END
