piperidine-amides-10871-covalent
     RDKit          3D

 22 22  0  0  0  0  0  0  0  0999 V2000
    7.1270   -3.2850   19.1850 C   0  0  0  0  0  0  0  0  0  0  0  0
    6.3120   -3.9630   20.1890 C   0  0  0  0  0  0  0  0  0  0  0  0
    5.2470   -4.5060   19.8610 O   0  0  0  0  0  0  0  0  0  0  0  0
    6.7560   -4.0450   21.5120 N   0  0  0  0  0  0  0  0  0  0  0  0
    7.6960   -3.0910   22.0480 C   0  0  0  0  0  0  0  0  0  0  0  0
    7.1340   -2.6890   23.3750 C   0  0  0  0  0  0  0  0  0  0  0  0
    6.8390   -3.8840   24.2260 C   0  0  0  0  0  0  0  0  0  0  0  0
    6.2970   -3.4900   25.5390 C   0  0  0  0  0  0  0  0  0  0  0  0
    5.0810   -3.1260   25.6590 O   0  0  0  0  0  0  0  0  0  0  0  0
    7.1190   -3.4880   26.6930 N   0  0  0  0  0  0  0  0  0  0  0  0
    7.1640   -4.6600   27.6030 C   0  0  2  0  0  0  0  0  0  0  0  0
    8.4610   -5.3660   27.4890 C   0  0  0  0  0  0  0  0  0  0  0  0
    9.0740   -5.4340   26.1450 C   0  0  0  0  0  0  0  0  0  0  0  0
    6.0550   -5.6510   27.3590 C   0  0  0  0  0  0  0  0  0  0  0  0
    4.9280   -5.5760   28.1460 O   0  0  0  0  0  0  0  0  0  0  0  0
    4.5190   -6.8460   28.4720 C   0  0  0  0  0  0  0  0  0  0  0  0
    3.1520   -6.7840   29.0530 C   0  0  0  0  0  0  0  0  0  0  0  0
    2.7890   -5.4610   29.2970 F   0  0  0  0  0  0  0  0  0  0  0  0
    2.9910   -7.5390   30.1780 F   0  0  0  0  0  0  0  0  0  0  0  0
    2.2050   -7.2970   28.1760 F   0  0  0  0  0  0  0  0  0  0  0  0
    5.9050   -4.8270   23.4900 C   0  0  0  0  0  0  0  0  0  0  0  0
    6.4570   -5.2360   22.2710 C   0  0  0  0  0  0  0  0  0  0  0  0
  1  2  1  0
  2  3  2  0
  2  4  1  0
  4  5  1  0
  5  6  1  0
  6  7  1  0
  7  8  1  0
  8  9  2  0
  8 10  1  0
 10 11  1  0
 11 12  1  6
 12 13  1  0
 11 14  1  0
 14 15  1  0
 15 16  1  0
 16 17  1  0
 17 18  1  0
 17 19  1  0
 17 20  1  0
  7 21  1  0
  4 22  1  0
 21 22  1  0
M  END
