piperidine-amides-10926-covalent
     RDKit          3D

 21 22  0  0  0  0  0  0  0  0999 V2000
    7.1140   -3.2710   19.2250 C   0  0  0  0  0  0  0  0  0  0  0  0
    6.3350   -4.0290   20.2050 C   0  0  0  0  0  0  0  0  0  0  0  0
    5.2510   -4.5240   19.8660 O   0  0  0  0  0  0  0  0  0  0  0  0
    6.8120   -4.2710   21.4990 N   0  0  0  0  0  0  0  0  0  0  0  0
    6.4430   -5.4460   22.2430 C   0  0  0  0  0  0  0  0  0  0  0  0
    5.5530   -4.9480   23.3560 C   0  0  0  0  0  0  0  0  0  0  0  0
    6.1820   -3.8110   24.1040 C   0  0  0  0  0  0  0  0  0  0  0  0
    5.2610   -3.2320   25.1180 C   0  0  0  0  0  0  0  0  0  0  0  0
    4.0430   -3.0480   24.8360 O   0  0  0  0  0  0  0  0  0  0  0  0
    5.6510   -2.8650   26.4230 N   0  0  0  0  0  0  0  0  0  0  0  0
    6.3590   -3.8370   27.2640 C   0  0  1  0  0  0  0  0  0  0  0  0
    5.5860   -5.0850   27.4200 C   0  0  0  0  0  0  0  0  0  0  0  0
    7.5890   -4.2730   26.5320 C   0  0  0  0  0  0  0  0  0  0  0  0
    8.0960   -5.0590   27.7150 C   0  0  0  0  0  0  0  0  0  0  0  0
    9.0990   -6.0500   27.3140 C   0  0  0  0  0  0  0  0  0  0  0  0
    9.5930   -5.6650   26.0110 C   0  0  0  0  0  0  0  0  0  0  0  0
   10.3530   -4.5610   26.0380 C   0  0  0  0  0  0  0  0  0  0  0  0
    9.7710   -3.3900   25.6090 C   0  0  0  0  0  0  0  0  0  0  0  0
    8.2820   -3.2990   25.8220 C   0  0  0  0  0  0  0  0  0  0  0  0
    6.6850   -2.6780   23.2400 C   0  0  0  0  0  0  0  0  0  0  0  0
    7.5870   -3.2680   22.1900 C   0  0  0  0  0  0  0  0  0  0  0  0
  1  2  1  0
  2  3  2  0
  2  4  1  0
  4  5  1  0
  5  6  1  0
  6  7  1  0
  7  8  1  0
  8  9  2  0
  8 10  1  0
 10 11  1  0
 11 12  1  6
 11 13  1  0
 13 14  1  0
 14 15  1  0
 15 16  1  0
 16 17  1  0
 17 18  1  0
 13 19  1  0
 18 19  1  0
  7 20  1  0
  4 21  1  0
 20 21  1  0
M  END
