piperidine-amides-4695-covalent
     RDKit          3D

 24 26  0  0  0  0  0  0  0  0999 V2000
    7.0970   -3.2750   19.2310 C   0  0  0  0  0  0  0  0  0  0  0  0
    6.3540   -4.0810   20.2240 C   0  0  0  0  0  0  0  0  0  0  0  0
    5.2540   -4.5330   19.8680 O   0  0  0  0  0  0  0  0  0  0  0  0
    6.8950   -4.3780   21.4810 N   0  0  0  0  0  0  0  0  0  0  0  0
    7.5590   -3.3660   22.2390 C   0  0  0  0  0  0  0  0  0  0  0  0
    7.1940   -3.2840   23.6610 C   0  0  0  0  0  0  0  0  0  0  0  0
    6.5190   -4.4710   24.2460 C   0  0  0  0  0  0  0  0  0  0  0  0
    5.6750   -4.0660   25.3930 C   0  0  0  0  0  0  0  0  0  0  0  0
    4.4410   -4.0330   25.2300 O   0  0  0  0  0  0  0  0  0  0  0  0
    6.2180   -3.6890   26.6250 N   0  0  0  0  0  0  0  0  0  0  0  0
    6.1780   -2.2720   26.8840 C   0  0  0  0  0  0  0  0  0  0  0  0
    5.6920   -1.3240   25.9460 C   0  0  0  0  0  0  0  0  0  0  0  0
    5.7190    0.0290   26.3780 C   0  0  0  0  0  0  0  0  0  0  0  0
    6.1980    0.3860   27.6560 C   0  0  0  0  0  0  0  0  0  0  0  0
    6.7310   -0.3400   28.7600 C   0  0  0  0  0  0  0  0  0  0  0  0
    6.6460    0.9570   28.9250 C   0  0  0  0  0  0  0  0  0  0  0  0
    6.1170    1.5170   27.8200 C   0  0  0  0  0  0  0  0  0  0  0  0
    5.7590    0.7190   26.7380 C   0  0  0  0  0  0  0  0  0  0  0  0
    5.2150    1.2040   25.5760 O   0  0  0  0  0  0  0  0  0  0  0  0
    4.1540    0.5450   24.9070 C   0  0  0  0  0  0  0  0  0  0  0  0
    6.0160   -0.7290   26.9330 N   0  0  0  0  0  0  0  0  0  0  0  0
    6.5880   -1.4870   28.0910 C   0  0  0  0  0  0  0  0  0  0  0  0
    5.6860   -5.2490   23.3060 C   0  0  0  0  0  0  0  0  0  0  0  0
    6.5310   -5.6050   22.1350 C   0  0  0  0  0  0  0  0  0  0  0  0
  1  2  1  0
  2  3  2  0
  2  4  1  0
  4  5  1  0
  5  6  1  0
  6  7  1  0
  7  8  1  0
  8  9  2  0
  8 10  1  0
 10 11  1  0
 11 12  2  0
 12 13  1  0
 13 14  2  0
 14 15  1  0
 15 16  1  0
 16 17  2  0
 17 18  1  0
 18 19  1  0
 19 20  1  0
 18 21  2  0
 11 22  1  0
 15 22  2  0
 21 22  1  0
  7 23  1  0
  4 24  1  0
 23 24  1  0
M  END
