piperidine-amides-22348-covalent
     RDKit          3D

 23 25  0  0  0  0  0  0  0  0999 V2000
    7.0710   -3.2820   19.2390 C   0  0  0  0  0  0  0  0  0  0  0  0
    6.3640   -4.0940   20.2420 C   0  0  0  0  0  0  0  0  0  0  0  0
    5.3030   -4.6790   19.9320 O   0  0  0  0  0  0  0  0  0  0  0  0
    6.8920   -4.2790   21.5280 N   0  0  0  0  0  0  0  0  0  0  0  0
    6.5470   -5.4690   22.2650 C   0  0  0  0  0  0  0  0  0  0  0  0
    5.6950   -5.0020   23.4470 C   0  0  0  0  0  0  0  0  0  0  0  0
    6.5170   -3.9530   24.1670 C   0  0  0  0  0  0  0  0  0  0  0  0
    5.7810   -3.4540   25.3450 C   0  0  0  0  0  0  0  0  0  0  0  0
    5.4130   -2.2600   25.3520 O   0  0  0  0  0  0  0  0  0  0  0  0
    5.4750   -4.3140   26.4290 N   0  0  0  0  0  0  0  0  0  0  0  0
    4.1110   -4.2900   26.9100 C   0  0  0  0  0  0  0  0  0  0  0  0
    4.6340   -4.3660   28.2420 C   0  0  0  0  0  0  0  0  0  0  0  0
    4.1220   -5.5500   28.9190 N   0  0  0  0  0  0  0  0  0  0  0  0
    2.7220   -5.9160   28.8600 C   0  0  0  0  0  0  0  0  0  0  0  0
    2.2060   -4.9600   29.6910 C   0  0  0  0  0  0  0  0  0  0  0  0
    2.9580   -4.6990   30.8340 C   0  0  0  0  0  0  0  0  0  0  0  0
    3.3600   -5.8520   31.5790 N   0  0  0  0  0  0  0  0  0  0  0  0
    3.6500   -5.7600   33.0040 C   0  0  0  0  0  0  0  0  0  0  0  0
    4.2160   -6.7500   31.0230 C   0  0  0  0  0  0  0  0  0  0  0  0
    4.9930   -6.2090   29.8360 C   0  0  0  0  0  0  0  0  0  0  0  0
    5.9250   -4.5170   27.8740 C   0  0  0  0  0  0  0  0  0  0  0  0
    6.8260   -2.7960   23.2520 C   0  0  0  0  0  0  0  0  0  0  0  0
    7.6370   -3.2360   22.2050 C   0  0  0  0  0  0  0  0  0  0  0  0
  1  2  1  0
  2  3  2  0
  2  4  1  0
  4  5  1  0
  5  6  1  0
  6  7  1  0
  7  8  1  0
  8  9  2  0
  8 10  1  0
 10 11  1  0
 11 12  1  0
 12 13  1  0
 13 14  1  0
 14 15  1  0
 15 16  1  0
 16 17  1  0
 17 18  1  0
 17 19  1  0
 13 20  1  0
 19 20  1  0
 10 21  1  0
 12 21  1  0
  7 22  1  0
  4 23  1  0
 22 23  1  0
M  END
