piperidine-amides-13441-covalent
     RDKit          3D

 22 23  0  0  0  0  0  0  0  0999 V2000
    7.1210   -3.2500   19.2010 C   0  0  0  0  0  0  0  0  0  0  0  0
    6.3450   -4.0340   20.2030 C   0  0  0  0  0  0  0  0  0  0  0  0
    5.2550   -4.5230   19.8710 O   0  0  0  0  0  0  0  0  0  0  0  0
    6.8840   -4.2580   21.4820 N   0  0  0  0  0  0  0  0  0  0  0  0
    6.6510   -5.4940   22.1850 C   0  0  0  0  0  0  0  0  0  0  0  0
    5.7450   -5.1340   23.3550 C   0  0  0  0  0  0  0  0  0  0  0  0
    5.6940   -3.6460   23.3700 C   0  0  0  0  0  0  0  0  0  0  0  0
    4.9130   -3.1170   24.4970 C   0  0  0  0  0  0  0  0  0  0  0  0
    3.7060   -2.9470   24.3340 O   0  0  0  0  0  0  0  0  0  0  0  0
    5.5420   -2.8570   25.6800 N   0  0  0  0  0  0  0  0  0  0  0  0
    6.1890   -3.8180   26.4380 C   0  0  0  0  0  0  0  0  0  0  0  0
    7.0630   -3.4280   27.3390 C   0  0  0  0  0  0  0  0  0  0  0  0
    6.7780   -2.1700   28.0070 N   0  0  0  0  0  0  0  0  0  0  0  0
    7.8120   -2.1350   28.7790 N   0  0  0  0  0  0  0  0  0  0  0  0
    8.0470   -1.0640   29.7190 C   0  0  0  0  0  0  0  0  0  0  0  0
    8.6280   -3.1510   28.6560 C   0  0  0  0  0  0  0  0  0  0  0  0
    8.2550   -4.1610   27.6860 C   0  0  0  0  0  0  0  0  0  0  0  0
    8.8410   -5.4810   27.2010 C   0  0  0  0  0  0  0  0  0  0  0  0
    7.7330   -6.3040   27.0050 F   0  0  0  0  0  0  0  0  0  0  0  0
    9.4790   -5.3330   25.9550 F   0  0  0  0  0  0  0  0  0  0  0  0
    7.0310   -2.9580   23.3720 C   0  0  0  0  0  0  0  0  0  0  0  0
    7.6010   -3.1930   22.1400 C   0  0  0  0  0  0  0  0  0  0  0  0
  1  2  1  0
  2  3  2  0
  2  4  1  0
  4  5  1  0
  5  6  1  0
  6  7  1  0
  7  8  1  0
  8  9  2  0
  8 10  1  0
 10 11  1  0
 11 12  1  0
 12 13  2  0
 13 14  1  0
 14 15  1  0
 14 16  1  0
 12 17  1  0
 16 17  2  0
 17 18  1  0
 18 19  1  0
 18 20  1  0
  7 21  1  0
  4 22  1  0
 21 22  1  0
M  END
