piperidine-amides-3073-covalent
     RDKit          3D

 23 24  0  0  0  0  0  0  0  0999 V2000
    7.1320   -3.2590   19.2280 C   0  0  0  0  0  0  0  0  0  0  0  0
    6.3650   -4.0190   20.2100 C   0  0  0  0  0  0  0  0  0  0  0  0
    5.3030   -4.5510   19.8870 O   0  0  0  0  0  0  0  0  0  0  0  0
    6.8760   -4.1950   21.5370 N   0  0  0  0  0  0  0  0  0  0  0  0
    6.4910   -5.3480   22.3020 C   0  0  0  0  0  0  0  0  0  0  0  0
    5.8260   -4.9050   23.5730 C   0  0  0  0  0  0  0  0  0  0  0  0
    6.6240   -3.7450   24.1620 C   0  0  0  0  0  0  0  0  0  0  0  0
    5.9250   -3.1840   25.3560 C   0  0  0  0  0  0  0  0  0  0  0  0
    4.7670   -2.7190   25.2820 O   0  0  0  0  0  0  0  0  0  0  0  0
    6.5910   -3.1770   26.6090 N   0  0  0  0  0  0  0  0  0  0  0  0
    5.8770   -3.7260   27.7360 C   0  0  1  0  0  0  0  0  0  0  0  0
    4.7460   -4.4820   27.1380 C   0  0  0  0  0  0  0  0  0  0  0  0
    6.6160   -4.6970   28.5820 C   0  0  0  0  0  0  0  0  0  0  0  0
    6.5170   -6.0830   28.4130 C   0  0  0  0  0  0  0  0  0  0  0  0
    5.3660   -6.5840   27.8500 C   0  0  0  0  0  0  0  0  0  0  0  0
    5.0880   -6.5440   26.4340 C   0  0  0  0  0  0  0  0  0  0  0  0
    3.9430   -7.0400   25.8660 C   0  0  0  0  0  0  0  0  0  0  0  0
    2.9400   -7.6260   26.6050 C   0  0  0  0  0  0  0  0  0  0  0  0
    1.3820   -8.2870   25.7360 Br  0  0  0  0  0  0  0  0  0  0  0  0
    3.1550   -7.6910   27.9860 C   0  0  0  0  0  0  0  0  0  0  0  0
    4.3790   -7.1680   28.6160 C   0  0  0  0  0  0  0  0  0  0  0  0
    6.9160   -2.6480   23.1620 C   0  0  0  0  0  0  0  0  0  0  0  0
    7.7010   -3.1940   22.1600 C   0  0  0  0  0  0  0  0  0  0  0  0
  1  2  1  0
  2  3  2  0
  2  4  1  0
  4  5  1  0
  5  6  1  0
  6  7  1  0
  7  8  1  0
  8  9  2  0
  8 10  1  0
 10 11  1  0
 11 12  1  6
 11 13  1  0
 13 14  1  0
 14 15  1  0
 15 16  2  0
 16 17  1  0
 17 18  2  0
 18 19  1  0
 18 20  1  0
 15 21  1  0
 20 21  2  0
  7 22  1  0
  4 23  1  0
 22 23  1  0
M  END
