piperidine-amides-14809-covalent
     RDKit          3D

 22 23  0  0  0  0  0  0  0  0999 V2000
    7.1160   -3.3070   19.2770 C   0  0  0  0  0  0  0  0  0  0  0  0
    6.3540   -4.0610   20.2680 C   0  0  0  0  0  0  0  0  0  0  0  0
    5.2860   -4.5870   19.9020 O   0  0  0  0  0  0  0  0  0  0  0  0
    6.8580   -4.2250   21.5820 N   0  0  0  0  0  0  0  0  0  0  0  0
    7.6680   -3.1940   22.1690 C   0  0  0  0  0  0  0  0  0  0  0  0
    6.9960   -2.6740   23.4000 C   0  0  0  0  0  0  0  0  0  0  0  0
    6.5460   -3.8850   24.1850 C   0  0  0  0  0  0  0  0  0  0  0  0
    5.7490   -3.4490   25.3790 C   0  0  0  0  0  0  0  0  0  0  0  0
    4.5340   -3.3530   25.2140 O   0  0  0  0  0  0  0  0  0  0  0  0
    6.4250   -3.1780   26.5680 N   0  0  0  0  0  0  0  0  0  0  0  0
    6.3060   -3.9650   27.7640 C   0  0  2  0  0  0  0  0  0  0  0  0
    5.9060   -5.3150   27.6530 C   0  0  0  0  0  0  0  0  0  0  0  0
    5.3470   -5.7470   26.4760 C   0  0  0  0  0  0  0  0  0  0  0  0
    5.3240   -3.2200   28.6060 C   0  0  0  0  0  0  0  0  0  0  0  0
    5.8810   -2.0300   29.2750 C   0  0  0  0  0  0  0  0  0  0  0  0
    5.0690   -1.1040   30.1950 C   0  0  0  0  0  0  0  0  0  0  0  0
    3.6280   -1.4510   30.4100 C   0  0  0  0  0  0  0  0  0  0  0  0
    3.0490   -2.6790   29.7210 C   0  0  0  0  0  0  0  0  0  0  0  0
    1.3700   -3.1520   29.9210 Cl  0  0  0  0  0  0  0  0  0  0  0  0
    3.9920   -3.5250   28.8160 C   0  0  0  0  0  0  0  0  0  0  0  0
    5.6230   -4.7330   23.3350 C   0  0  0  0  0  0  0  0  0  0  0  0
    6.4470   -5.3310   22.4060 C   0  0  0  0  0  0  0  0  0  0  0  0
  1  2  1  0
  2  3  2  0
  2  4  1  0
  4  5  1  0
  5  6  1  0
  6  7  1  0
  7  8  1  0
  8  9  2  0
  8 10  1  0
 10 11  1  0
 11 12  1  6
 12 13  1  0
 11 14  1  0
 14 15  2  0
 15 16  1  0
 16 17  2  0
 17 18  1  0
 18 19  1  0
 14 20  1  0
 18 20  2  0
  7 21  1  0
  4 22  1  0
 21 22  1  0
M  END
