piperidine-amides-10465-covalent
     RDKit          3D

 24 25  0  0  0  0  0  0  0  0999 V2000
    7.0800   -3.2690   19.2530 C   0  0  0  0  0  0  0  0  0  0  0  0
    6.3460   -4.0400   20.2650 C   0  0  0  0  0  0  0  0  0  0  0  0
    5.2680   -4.5640   19.8870 O   0  0  0  0  0  0  0  0  0  0  0  0
    6.8440   -4.2180   21.5570 N   0  0  0  0  0  0  0  0  0  0  0  0
    7.6870   -3.2270   22.1800 C   0  0  0  0  0  0  0  0  0  0  0  0
    6.8730   -2.5710   23.2530 C   0  0  0  0  0  0  0  0  0  0  0  0
    5.8920   -3.5470   23.8430 C   0  0  0  0  0  0  0  0  0  0  0  0
    5.6970   -3.2600   25.2890 C   0  0  0  0  0  0  0  0  0  0  0  0
    4.5240   -3.2390   25.7210 O   0  0  0  0  0  0  0  0  0  0  0  0
    6.7580   -3.0040   26.1900 N   0  0  0  0  0  0  0  0  0  0  0  0
    7.0520   -3.8970   27.2820 C   0  0  0  0  0  0  0  0  0  0  0  0
    8.0610   -4.9860   26.9490 C   0  0  1  0  0  0  0  0  0  0  0  0
    8.7380   -5.5710   27.9780 C   0  0  0  0  0  0  0  0  0  0  0  0
    7.6520   -5.9220   26.2230 O   0  0  0  0  0  0  0  0  0  0  0  0
    9.2180   -4.3600   26.2180 C   0  0  0  0  0  0  0  0  0  0  0  0
    8.7950   -3.6230   25.1380 C   0  0  0  0  0  0  0  0  0  0  0  0
    9.7210   -2.9510   24.3420 C   0  0  0  0  0  0  0  0  0  0  0  0
   11.0900   -2.9800   24.5770 C   0  0  0  0  0  0  0  0  0  0  0  0
   11.8810   -2.2810   23.7360 O   0  0  0  0  0  0  0  0  0  0  0  0
   13.1190   -2.0800   24.3110 C   0  0  0  0  0  0  0  0  0  0  0  0
   11.5250   -3.7130   25.6390 C   0  0  0  0  0  0  0  0  0  0  0  0
   10.5220   -4.4330   26.4910 C   0  0  0  0  0  0  0  0  0  0  0  0
    6.3430   -4.9830   23.7010 C   0  0  0  0  0  0  0  0  0  0  0  0
    6.4650   -5.3740   22.3740 C   0  0  0  0  0  0  0  0  0  0  0  0
  1  2  1  0
  2  3  2  0
  2  4  1  0
  4  5  1  0
  5  6  1  0
  6  7  1  0
  7  8  1  0
  8  9  2  0
  8 10  1  0
 10 11  1  0
 11 12  1  0
 12 13  1  1
 12 14  1  0
 12 15  1  0
 15 16  2  0
 16 17  1  0
 17 18  2  0
 18 19  1  0
 19 20  1  0
 18 21  1  0
 15 22  1  0
 21 22  2  0
  7 23  1  0
  4 24  1  0
 23 24  1  0
M  END
