piperidine-amides-8760-covalent
     RDKit          3D

 23 24  0  0  0  0  0  0  0  0999 V2000
    7.1620   -3.3190   19.2540 C   0  0  0  0  0  0  0  0  0  0  0  0
    6.4130   -4.0960   20.2340 C   0  0  0  0  0  0  0  0  0  0  0  0
    5.3090   -4.5640   19.8960 O   0  0  0  0  0  0  0  0  0  0  0  0
    6.9760   -4.3580   21.5040 N   0  0  0  0  0  0  0  0  0  0  0  0
    7.7660   -3.3230   22.1020 C   0  0  0  0  0  0  0  0  0  0  0  0
    6.9410   -2.6700   23.1460 C   0  0  0  0  0  0  0  0  0  0  0  0
    6.5640   -3.7480   24.1390 C   0  0  0  0  0  0  0  0  0  0  0  0
    5.8760   -3.0520   25.2540 C   0  0  0  0  0  0  0  0  0  0  0  0
    4.7240   -3.3950   25.5290 O   0  0  0  0  0  0  0  0  0  0  0  0
    6.6110   -2.0470   25.8690 N   0  0  0  0  0  0  0  0  0  0  0  0
    6.2490   -1.4780   27.1090 C   0  0  0  0  0  0  0  0  0  0  0  0
    6.8510   -2.0710   28.2000 C   0  0  0  0  0  0  0  0  0  0  0  0
    6.9190   -3.3960   28.1900 C   0  0  0  0  0  0  0  0  0  0  0  0
    6.3040   -4.4140   28.8730 C   0  0  0  0  0  0  0  0  0  0  0  0
    6.7500   -5.7850   28.5030 C   0  0  0  0  0  0  0  0  0  0  0  0
    6.0840   -6.9550   29.2670 C   0  0  0  0  0  0  0  0  0  0  0  0
    7.7060   -5.9000   27.5160 C   0  0  0  0  0  0  0  0  0  0  0  0
    8.0850   -7.0000   27.1960 O   0  0  0  0  0  0  0  0  0  0  0  0
    8.3040   -4.7770   26.8060 C   0  0  0  0  0  0  0  0  0  0  0  0
    9.3280   -5.0600   25.7050 C   0  0  0  0  0  0  0  0  0  0  0  0
    7.9380   -3.5430   27.1250 C   0  0  0  0  0  0  0  0  0  0  0  0
    5.6340   -4.7080   23.4520 C   0  0  0  0  0  0  0  0  0  0  0  0
    6.3270   -5.3740   22.2890 C   0  0  0  0  0  0  0  0  0  0  0  0
  1  2  1  0
  2  3  2  0
  2  4  1  0
  4  5  1  0
  5  6  1  0
  6  7  1  0
  7  8  1  0
  8  9  2  0
  8 10  1  0
 10 11  1  0
 11 12  1  0
 12 13  1  0
 13 14  2  0
 14 15  1  0
 15 16  1  0
 15 17  2  0
 17 18  1  0
 17 19  1  0
 19 20  1  0
 13 21  1  0
 19 21  2  0
  7 22  1  0
  4 23  1  0
 22 23  1  0
M  END
