piperidine-amides-9890-covalent
     RDKit          3D

 27 28  0  0  0  0  0  0  0  0999 V2000
    7.0860   -3.3090   19.2550 C   0  0  0  0  0  0  0  0  0  0  0  0
    6.3730   -4.1040   20.2590 C   0  0  0  0  0  0  0  0  0  0  0  0
    5.2850   -4.6200   19.9040 O   0  0  0  0  0  0  0  0  0  0  0  0
    6.9270   -4.3090   21.5170 N   0  0  0  0  0  0  0  0  0  0  0  0
    7.7320   -3.2840   22.1460 C   0  0  0  0  0  0  0  0  0  0  0  0
    6.9490   -2.7290   23.2890 C   0  0  0  0  0  0  0  0  0  0  0  0
    6.5220   -3.8360   24.1930 C   0  0  0  0  0  0  0  0  0  0  0  0
    5.8240   -3.2770   25.3670 C   0  0  0  0  0  0  0  0  0  0  0  0
    4.5760   -3.1810   25.3420 O   0  0  0  0  0  0  0  0  0  0  0  0
    6.5320   -2.8670   26.5110 N   0  0  0  0  0  0  0  0  0  0  0  0
    6.4210   -1.5610   27.1190 C   0  0  0  0  0  0  0  0  0  0  0  0
    7.0040   -1.5520   28.5270 C   0  0  0  0  0  0  0  0  0  0  0  0
    7.0180   -0.4390   29.3290 C   0  0  0  0  0  0  0  0  0  0  0  0
    6.4880    0.7540   28.8790 C   0  0  0  0  0  0  0  0  0  0  0  0
    6.4260    1.9540   29.5810 C   0  0  0  0  0  0  0  0  0  0  0  0
    6.9890    3.0930   29.0450 O   0  0  0  0  0  0  0  0  0  0  0  0
    5.8050    2.0390   30.8210 O   0  0  0  0  0  0  0  0  0  0  0  0
    5.3240    0.8810   31.4410 C   0  0  0  0  0  0  0  0  0  0  0  0
    5.8970    0.8130   27.4820 C   0  0  0  0  0  0  0  0  0  0  0  0
    5.8650   -0.3860   26.5720 C   0  0  0  0  0  0  0  0  0  0  0  0
    5.3220   -0.3150   25.3050 O   0  0  0  0  0  0  0  0  0  0  0  0
    4.3050    0.6320   25.0450 C   0  0  0  0  0  0  0  0  0  0  0  0
    4.6130    1.6250   23.9390 C   0  0  0  0  0  0  0  0  0  0  0  0
    5.7550    1.2560   23.2380 O   0  0  0  0  0  0  0  0  0  0  0  0
    5.5330    0.0560   22.5640 C   0  0  0  0  0  0  0  0  0  0  0  0
    5.7080   -4.8750   23.5110 C   0  0  0  0  0  0  0  0  0  0  0  0
    6.4470   -5.4110   22.3050 C   0  0  0  0  0  0  0  0  0  0  0  0
  1  2  1  0
  2  3  2  0
  2  4  1  0
  4  5  1  0
  5  6  1  0
  6  7  1  0
  7  8  1  0
  8  9  2  0
  8 10  1  0
 10 11  1  0
 11 12  2  0
 12 13  1  0
 13 14  2  0
 14 15  1  0
 15 16  2  0
 15 17  1  0
 17 18  1  0
 14 19  1  0
 11 20  1  0
 19 20  2  0
 20 21  1  0
 21 22  1  0
 22 23  1  0
 23 24  1  0
 24 25  1  0
  7 26  1  0
  4 27  1  0
 26 27  1  0
M  END
