piperidine-amides-30537-covalent
     RDKit          3D

 26 28  0  0  0  0  0  0  0  0999 V2000
    7.0100   -3.3640   19.4250 C   0  0  0  0  0  0  0  0  0  0  0  0
    6.3770   -4.2390   20.4170 C   0  0  0  0  0  0  0  0  0  0  0  0
    5.4370   -4.9560   20.0170 O   0  0  0  0  0  0  0  0  0  0  0  0
    6.8140   -4.3280   21.7710 N   0  0  0  0  0  0  0  0  0  0  0  0
    6.6030   -5.5370   22.5600 C   0  0  0  0  0  0  0  0  0  0  0  0
    5.9210   -5.1510   23.8710 C   0  0  0  0  0  0  0  0  0  0  0  0
    5.7330   -3.6640   23.9900 C   0  0  0  0  0  0  0  0  0  0  0  0
    4.9500   -3.1750   25.2090 C   0  0  0  0  0  0  0  0  0  0  0  0
    3.7400   -2.8850   25.0370 O   0  0  0  0  0  0  0  0  0  0  0  0
    5.3880   -3.0040   26.5610 N   0  0  0  0  0  0  0  0  0  0  0  0
    4.4740   -3.0920   27.7250 C   0  0  0  0  0  0  0  0  0  0  0  0
    4.8660   -4.2630   28.5950 C   0  0  0  0  0  0  0  0  0  0  0  0
    6.2810   -4.6970   28.5790 C   0  0  0  0  0  0  0  0  0  0  0  0
    6.9160   -3.7250   29.0030 O   0  0  0  0  0  0  0  0  0  0  0  0
    6.5120   -6.1250   28.9890 C   0  0  0  0  0  0  0  0  0  0  0  0
    5.2670   -6.7100   29.6210 C   0  0  0  0  0  0  0  0  0  0  0  0
    4.1880   -7.1760   28.7060 C   0  0  0  0  0  0  0  0  0  0  0  0
    3.0570   -7.7130   29.2500 C   0  0  0  0  0  0  0  0  0  0  0  0
    2.7950   -7.8790   30.6000 C   0  0  0  0  0  0  0  0  0  0  0  0
    3.7730   -7.4660   31.6590 C   0  0  0  0  0  0  0  0  0  0  0  0
    3.4000   -7.6980   33.3620 Cl  0  0  0  0  0  0  0  0  0  0  0  0
    5.0780   -6.8490   31.1340 C   0  0  0  0  0  0  0  0  0  0  0  0
    6.2080   -4.7200   27.1210 C   0  0  0  0  0  0  0  0  0  0  0  0
    6.5600   -3.6230   26.7640 C   0  0  0  0  0  0  0  0  0  0  0  0
    6.9500   -2.8970   23.6560 C   0  0  0  0  0  0  0  0  0  0  0  0
    7.5100   -3.2540   22.4410 C   0  0  0  0  0  0  0  0  0  0  0  0
  1  2  1  0
  2  3  2  0
  2  4  1  0
  4  5  1  0
  5  6  1  0
  6  7  1  0
  7  8  1  0
  8  9  2  0
  8 10  1  0
 10 11  1  0
 11 12  1  0
 12 13  1  0
 13 14  1  0
 13 15  1  0
 15 16  1  0
 16 17  2  0
 17 18  1  0
 18 19  2  0
 19 20  1  0
 20 21  1  0
 16 22  1  0
 20 22  2  0
 13 23  1  0
 10 24  1  0
 23 24  1  0
  7 25  1  0
  4 26  1  0
 25 26  1  0
M  END
