piperidine-amides-8219-covalent
     RDKit          3D

 25 26  0  0  0  0  0  0  0  0999 V2000
    7.0960   -3.3450   19.3230 C   0  0  0  0  0  0  0  0  0  0  0  0
    6.3760   -4.1440   20.3040 C   0  0  0  0  0  0  0  0  0  0  0  0
    5.3300   -4.7150   19.9470 O   0  0  0  0  0  0  0  0  0  0  0  0
    6.9110   -4.2920   21.6050 N   0  0  0  0  0  0  0  0  0  0  0  0
    6.4680   -5.3950   22.4020 C   0  0  0  0  0  0  0  0  0  0  0  0
    5.6230   -4.8610   23.5220 C   0  0  0  0  0  0  0  0  0  0  0  0
    6.4710   -3.8480   24.2640 C   0  0  0  0  0  0  0  0  0  0  0  0
    5.7180   -3.3000   25.4450 C   0  0  0  0  0  0  0  0  0  0  0  0
    4.5410   -3.0210   25.2340 O   0  0  0  0  0  0  0  0  0  0  0  0
    6.3600   -3.1390   26.6840 N   0  0  0  0  0  0  0  0  0  0  0  0
    6.2950   -4.1560   27.6990 C   0  0  0  0  0  0  0  0  0  0  0  0
    6.0060   -5.4710   27.2970 C   0  0  0  0  0  0  0  0  0  0  0  0
    4.8430   -5.8570   28.1200 N   0  0  0  0  0  0  0  0  0  0  0  0
    6.3880   -1.7840   27.2500 C   0  0  0  0  0  0  0  0  0  0  0  0
    7.0130   -1.7920   28.4990 C   0  0  0  0  0  0  0  0  0  0  0  0
    7.0880   -0.4840   29.1720 C   0  0  0  0  0  0  0  0  0  0  0  0
    6.5150    0.7650   28.5200 C   0  0  0  0  0  0  0  0  0  0  0  0
    6.6600    1.7940   29.2240 O   0  0  0  0  0  0  0  0  0  0  0  0
    6.0470    1.7220   30.4460 C   0  0  0  0  0  0  0  0  0  0  0  0
    5.9180    3.0950   31.0390 C   0  0  0  0  0  0  0  0  0  0  0  0
    4.8870    0.9820   30.4240 C   0  0  0  0  0  0  0  0  0  0  0  0
    5.9260    0.6300   27.2800 C   0  0  0  0  0  0  0  0  0  0  0  0
    5.8710   -0.6210   26.6680 C   0  0  0  0  0  0  0  0  0  0  0  0
    6.9060   -2.7200   23.3940 C   0  0  0  0  0  0  0  0  0  0  0  0
    7.6740   -3.2320   22.2160 C   0  0  0  0  0  0  0  0  0  0  0  0
  1  2  1  0
  2  3  2  0
  2  4  1  0
  4  5  1  0
  5  6  1  0
  6  7  1  0
  7  8  1  0
  8  9  2  0
  8 10  1  0
 10 11  1  0
 11 12  1  0
 12 13  1  0
 10 14  1  0
 14 15  2  0
 15 16  1  0
 16 17  2  0
 17 18  1  0
 18 19  1  0
 19 20  1  0
 19 21  1  0
 17 22  1  0
 14 23  1  0
 22 23  2  0
  7 24  1  0
  4 25  1  0
 24 25  1  0
M  END
