piperidine-amides-31492-covalent
     RDKit          3D

 27 29  0  0  0  0  0  0  0  0999 V2000
    7.0890   -3.3760   19.2540 C   0  0  0  0  0  0  0  0  0  0  0  0
    6.3190   -4.0850   20.2410 C   0  0  0  0  0  0  0  0  0  0  0  0
    5.2240   -4.6030   19.8940 O   0  0  0  0  0  0  0  0  0  0  0  0
    6.7810   -4.2720   21.5440 N   0  0  0  0  0  0  0  0  0  0  0  0
    7.3540   -3.0940   22.2180 C   0  0  0  0  0  0  0  0  0  0  0  0
    7.6830   -3.6840   23.6310 C   0  0  0  0  0  0  0  0  0  0  0  0
    6.4080   -4.3210   24.1620 C   0  0  0  0  0  0  0  0  0  0  0  0
    5.4080   -3.2730   24.8190 C   0  0  0  0  0  0  0  0  0  0  0  0
    4.8340   -2.5860   24.0040 O   0  0  0  0  0  0  0  0  0  0  0  0
    5.4660   -3.4470   26.0540 N   0  0  0  0  0  0  0  0  0  0  0  0
    5.0590   -3.7400   27.3110 C   0  0  0  0  0  0  0  0  0  0  0  0
    5.4060   -4.7170   28.1780 C   0  0  0  0  0  0  0  0  0  0  0  0
    6.6920   -5.1040   27.7780 C   0  0  0  0  0  0  0  0  0  0  0  0
    7.4460   -3.9760   27.1570 C   0  0  2  0  0  0  0  0  0  0  0  0
    7.5420   -3.4010   28.5120 C   0  0  0  0  0  0  0  0  0  0  0  0
    7.8610   -4.7410   28.7950 C   0  0  0  0  0  0  0  0  0  0  0  0
    7.1240   -5.4580   29.5250 O   0  0  0  0  0  0  0  0  0  0  0  0
    9.0220   -5.3380   28.2410 O   0  0  0  0  0  0  0  0  0  0  0  0
    9.1260   -5.8970   26.9720 C   0  0  0  0  0  0  0  0  0  0  0  0
    8.4100   -2.0870   28.7490 C   0  0  0  0  0  0  0  0  0  0  0  0
    6.9630   -1.6470   29.1710 C   0  0  0  0  0  0  0  0  0  0  0  0
    6.4520   -0.7100   28.2710 F   0  0  0  0  0  0  0  0  0  0  0  0
    6.8840   -1.0100   30.3590 F   0  0  0  0  0  0  0  0  0  0  0  0
    6.4020   -2.7820   29.0390 C   0  0  0  0  0  0  0  0  0  0  0  0
    6.8870   -3.1600   26.2540 C   0  0  0  0  0  0  0  0  0  0  0  0
    5.7770   -5.3820   23.2820 C   0  0  0  0  0  0  0  0  0  0  0  0
    6.6230   -5.5290   22.2260 C   0  0  0  0  0  0  0  0  0  0  0  0
  1  2  1  0
  2  3  2  0
  2  4  1  0
  4  5  1  0
  5  6  1  0
  6  7  1  0
  7  8  1  0
  8  9  2  0
  8 10  1  0
 10 11  1  0
 11 12  1  0
 12 13  1  0
 13 14  1  0
 14 15  1  1
 15 16  1  0
 16 17  2  0
 16 18  1  0
 18 19  1  0
 15 20  1  0
 20 21  1  0
 21 22  1  0
 21 23  1  0
 15 24  1  0
 21 24  1  0
 10 25  1  0
 14 25  1  0
  7 26  1  0
  4 27  1  0
 26 27  1  0
M  END
