piperidine-amides-12963-covalent
     RDKit          3D

 21 22  0  0  0  0  0  0  0  0999 V2000
    7.0750   -3.3090   19.2770 C   0  0  0  0  0  0  0  0  0  0  0  0
    6.3700   -4.1240   20.2910 C   0  0  0  0  0  0  0  0  0  0  0  0
    5.3180   -4.6820   19.9270 O   0  0  0  0  0  0  0  0  0  0  0  0
    6.9000   -4.2870   21.5750 N   0  0  0  0  0  0  0  0  0  0  0  0
    6.4910   -5.4020   22.3610 C   0  0  0  0  0  0  0  0  0  0  0  0
    5.9490   -5.0230   23.6690 C   0  0  0  0  0  0  0  0  0  0  0  0
    6.5360   -3.7960   24.2630 C   0  0  0  0  0  0  0  0  0  0  0  0
    5.7800   -3.3300   25.4580 C   0  0  0  0  0  0  0  0  0  0  0  0
    4.5290   -3.3410   25.4450 O   0  0  0  0  0  0  0  0  0  0  0  0
    6.4480   -2.8810   26.6120 N   0  0  0  0  0  0  0  0  0  0  0  0
    6.3650   -1.4750   27.0880 C   0  0  0  0  0  0  0  0  0  0  0  0
    5.7930   -0.4070   26.2470 C   0  0  0  0  0  0  0  0  0  0  0  0
    5.6910    0.9680   26.6940 C   0  0  0  0  0  0  0  0  0  0  0  0
    4.9930    2.0200   25.5480 S   0  0  0  0  0  0  0  0  0  0  0  0
    3.8020    1.0460   24.7060 C   0  0  0  0  0  0  0  0  0  0  0  0
    6.2320    1.2200   28.1090 C   0  0  0  0  0  0  0  0  0  0  0  0
    6.7540    0.2120   28.8520 C   0  0  0  0  0  0  0  0  0  0  0  0
    6.8420   -1.0760   28.4230 C   0  0  0  0  0  0  0  0  0  0  0  0
    7.3610   -1.9800   29.2320 C   0  0  0  0  0  0  0  0  0  0  0  0
    6.7000   -2.7140   23.2380 C   0  0  0  0  0  0  0  0  0  0  0  0
    7.6520   -3.2440   22.2430 C   0  0  0  0  0  0  0  0  0  0  0  0
  1  2  1  0
  2  3  2  0
  2  4  1  0
  4  5  1  0
  5  6  1  0
  6  7  1  0
  7  8  1  0
  8  9  2  0
  8 10  1  0
 10 11  1  0
 11 12  2  0
 12 13  1  0
 13 14  1  0
 14 15  1  0
 13 16  2  0
 16 17  1  0
 11 18  1  0
 17 18  2  0
 18 19  1  0
  7 20  1  0
  4 21  1  0
 20 21  1  0
M  END
