piperidine-amides-12523-covalent
     RDKit          3D

 23 23  0  0  0  0  0  0  0  0999 V2000
    7.1060   -3.2750   19.1520 C   0  0  0  0  0  0  0  0  0  0  0  0
    6.3560   -3.9920   20.2120 C   0  0  0  0  0  0  0  0  0  0  0  0
    5.2810   -4.5190   19.8680 O   0  0  0  0  0  0  0  0  0  0  0  0
    6.8650   -4.1100   21.5130 N   0  0  0  0  0  0  0  0  0  0  0  0
    7.6850   -3.0840   22.0520 C   0  0  0  0  0  0  0  0  0  0  0  0
    7.2210   -2.6840   23.3610 C   0  0  0  0  0  0  0  0  0  0  0  0
    5.8930   -3.2470   23.6780 C   0  0  0  0  0  0  0  0  0  0  0  0
    5.4950   -2.8190   25.0430 C   0  0  0  0  0  0  0  0  0  0  0  0
    4.3220   -3.0350   25.4060 O   0  0  0  0  0  0  0  0  0  0  0  0
    6.4050   -2.1890   25.9150 N   0  0  0  0  0  0  0  0  0  0  0  0
    7.0420   -2.9560   26.9980 C   0  0  0  0  0  0  0  0  0  0  0  0
    6.5310   -4.3470   26.9850 C   0  0  0  0  0  0  0  0  0  0  0  0
    7.4860   -5.3830   26.7280 C   0  0  0  0  0  0  0  0  0  0  0  0
    8.4410   -5.2830   25.7430 C   0  0  0  0  0  0  0  0  0  0  0  0
    8.9190   -4.0480   25.4850 F   0  0  0  0  0  0  0  0  0  0  0  0
    9.5340   -6.0680   25.9220 F   0  0  0  0  0  0  0  0  0  0  0  0
    7.9440   -5.7420   24.5510 F   0  0  0  0  0  0  0  0  0  0  0  0
    8.2060   -5.4090   28.0530 C   0  0  0  0  0  0  0  0  0  0  0  0
    8.2620   -4.1340   28.5630 F   0  0  0  0  0  0  0  0  0  0  0  0
    7.4970   -6.1720   28.9490 F   0  0  0  0  0  0  0  0  0  0  0  0
    9.4720   -5.8940   27.9290 F   0  0  0  0  0  0  0  0  0  0  0  0
    5.6990   -4.7180   23.4000 C   0  0  0  0  0  0  0  0  0  0  0  0
    6.4630   -5.1910   22.3480 C   0  0  0  0  0  0  0  0  0  0  0  0
  1  2  1  0
  2  3  2  0
  2  4  1  0
  4  5  1  0
  5  6  1  0
  6  7  1  0
  7  8  1  0
  8  9  2  0
  8 10  1  0
 10 11  1  0
 11 12  1  0
 12 13  1  0
 13 14  1  0
 14 15  1  0
 14 16  1  0
 14 17  1  0
 13 18  1  0
 18 19  1  0
 18 20  1  0
 18 21  1  0
  7 22  1  0
  4 23  1  0
 22 23  1  0
M  END
