piperidine-amides-21608-covalent
     RDKit          3D

 23 24  0  0  0  0  0  0  0  0999 V2000
    7.0790   -3.2780   19.2820 C   0  0  0  0  0  0  0  0  0  0  0  0
    6.3520   -4.0500   20.3000 C   0  0  0  0  0  0  0  0  0  0  0  0
    5.3060   -4.6350   19.9170 O   0  0  0  0  0  0  0  0  0  0  0  0
    6.8380   -4.1470   21.6060 N   0  0  0  0  0  0  0  0  0  0  0  0
    6.6620   -5.3720   22.3530 C   0  0  0  0  0  0  0  0  0  0  0  0
    5.9800   -5.0230   23.6400 C   0  0  0  0  0  0  0  0  0  0  0  0
    6.2450   -3.5870   24.0120 C   0  0  0  0  0  0  0  0  0  0  0  0
    6.1010   -3.3860   25.4780 C   0  0  0  0  0  0  0  0  0  0  0  0
    4.9790   -2.9880   25.8710 O   0  0  0  0  0  0  0  0  0  0  0  0
    7.1310   -3.6250   26.4330 N   0  0  0  0  0  0  0  0  0  0  0  0
    8.1890   -4.5490   26.0720 C   0  0  0  0  0  0  0  0  0  0  0  0
    8.6770   -5.4180   27.2370 C   0  0  0  0  0  0  0  0  0  0  0  0
    7.0240   -3.5060   27.8450 C   0  0  2  0  0  0  0  0  0  0  0  0
    6.4470   -4.5970   28.4650 C   0  0  0  0  0  0  0  0  0  0  0  0
    6.4320   -2.3160   28.1810 C   0  0  0  0  0  0  0  0  0  0  0  0
    5.0700   -2.1310   28.0430 C   0  0  0  0  0  0  0  0  0  0  0  0
    4.3920   -0.9730   28.3620 C   0  0  0  0  0  0  0  0  0  0  0  0
    5.0510    0.2720   28.9170 C   0  0  0  0  0  0  0  0  0  0  0  0
    6.5600    0.0820   29.0820 C   0  0  0  0  0  0  0  0  0  0  0  0
    7.3540    0.9380   29.5220 O   0  0  0  0  0  0  0  0  0  0  0  0
    7.1350   -1.2510   28.6800 C   0  0  0  0  0  0  0  0  0  0  0  0
    7.6190   -3.1580   23.5750 C   0  0  0  0  0  0  0  0  0  0  0  0
    7.7020   -3.1110   22.1990 C   0  0  0  0  0  0  0  0  0  0  0  0
  1  2  1  0
  2  3  2  0
  2  4  1  0
  4  5  1  0
  5  6  1  0
  6  7  1  0
  7  8  1  0
  8  9  2  0
  8 10  1  0
 10 11  1  0
 11 12  1  0
 10 13  1  0
 13 14  1  6
 13 15  1  0
 15 16  2  0
 16 17  1  0
 17 18  2  0
 18 19  1  0
 19 20  1  0
 15 21  1  0
 19 21  2  0
  7 22  1  0
  4 23  1  0
 22 23  1  0
M  END
