piperidine-amides-6503-covalent
     RDKit          3D

 24 25  0  0  0  0  0  0  0  0999 V2000
    7.0230   -3.3010   19.3260 C   0  0  0  0  0  0  0  0  0  0  0  0
    6.3290   -4.1290   20.3280 C   0  0  0  0  0  0  0  0  0  0  0  0
    5.3460   -4.8170   19.9720 O   0  0  0  0  0  0  0  0  0  0  0  0
    6.7520   -4.2130   21.6700 N   0  0  0  0  0  0  0  0  0  0  0  0
    6.5750   -5.4810   22.3500 C   0  0  0  0  0  0  0  0  0  0  0  0
    6.2690   -5.2310   23.8370 C   0  0  0  0  0  0  0  0  0  0  0  0
    6.0180   -3.7500   24.0190 C   0  0  0  0  0  0  0  0  0  0  0  0
    5.4480   -3.4330   25.3600 C   0  0  0  0  0  0  0  0  0  0  0  0
    4.2650   -3.0490   25.3830 O   0  0  0  0  0  0  0  0  0  0  0  0
    6.2000   -3.5460   26.5690 N   0  0  0  0  0  0  0  0  0  0  0  0
    5.8620   -4.5020   27.6180 C   0  0  0  0  0  0  0  0  0  0  0  0
    6.0980   -5.8920   27.0810 C   0  0  0  0  0  0  0  0  0  0  0  0
    6.7290   -4.2370   28.7800 C   0  0  0  0  0  0  0  0  0  0  0  0
    4.5240   -4.4700   28.1810 C   0  0  0  0  0  0  0  0  0  0  0  0
    3.5940   -3.5010   27.9550 C   0  0  0  0  0  0  0  0  0  0  0  0
    2.3330   -3.5650   28.5530 C   0  0  0  0  0  0  0  0  0  0  0  0
    1.5670   -4.5270   29.5200 C   0  0  0  0  0  0  0  0  0  0  0  0
    2.7190   -5.5310   29.6730 C   0  0  0  0  0  0  0  0  0  0  0  0
    4.0160   -5.3730   28.9990 C   0  0  0  0  0  0  0  0  0  0  0  0
    4.3200   -6.6390   29.6970 C   0  0  0  0  0  0  0  0  0  0  0  0
    5.4070   -6.5820   30.5860 C   0  0  0  0  0  0  0  0  0  0  0  0
    5.5070   -7.5070   29.4580 C   0  0  0  0  0  0  0  0  0  0  0  0
    7.2780   -2.9720   23.7180 C   0  0  0  0  0  0  0  0  0  0  0  0
    7.5690   -3.1550   22.2450 C   0  0  0  0  0  0  0  0  0  0  0  0
  1  2  1  0
  2  3  2  0
  2  4  1  0
  4  5  1  0
  5  6  1  0
  6  7  1  0
  7  8  1  0
  8  9  2  0
  8 10  1  0
 11 10  1  0
 11 12  1  0
 11 13  1  0
 11 14  1  0
 14 15  2  0
 15 16  1  0
 16 17  2  0
 17 18  1  0
 14 19  1  0
 18 19  2  0
 19 20  1  0
 20 21  1  0
 20 22  1  0
  7 23  1  0
  4 24  1  0
 23 24  1  0
M  END
