piperidine-amides-30850-covalent
     RDKit          3D

 23 25  0  0  0  0  0  0  0  0999 V2000
    7.0450   -3.3040   19.2860 C   0  0  0  0  0  0  0  0  0  0  0  0
    6.3340   -4.1010   20.2920 C   0  0  0  0  0  0  0  0  0  0  0  0
    5.3200   -4.7280   19.9430 O   0  0  0  0  0  0  0  0  0  0  0  0
    6.7840   -4.2250   21.6200 N   0  0  0  0  0  0  0  0  0  0  0  0
    6.6960   -5.4850   22.3330 C   0  0  0  0  0  0  0  0  0  0  0  0
    6.1130   -5.1930   23.6930 C   0  0  0  0  0  0  0  0  0  0  0  0
    6.0530   -3.7220   23.9560 C   0  0  0  0  0  0  0  0  0  0  0  0
    5.6430   -3.3540   25.3350 C   0  0  0  0  0  0  0  0  0  0  0  0
    5.1180   -2.2240   25.5380 O   0  0  0  0  0  0  0  0  0  0  0  0
    5.7580   -4.1890   26.4760 N   0  0  0  0  0  0  0  0  0  0  0  0
    4.6900   -5.1310   26.7290 C   0  0  0  0  0  0  0  0  0  0  0  0
    4.7850   -4.5360   28.0380 C   0  0  0  0  0  0  0  0  0  0  0  0
    3.8540   -3.7780   28.4200 O   0  0  0  0  0  0  0  0  0  0  0  0
    4.9110   -5.4950   29.1530 C   0  0  0  0  0  0  0  0  0  0  0  0
    5.8710   -6.6300   28.9470 C   0  0  0  0  0  0  0  0  0  0  0  0
    6.0450   -7.6560   30.0510 C   0  0  0  0  0  0  0  0  0  0  0  0
    5.2050   -7.3880   31.2510 C   0  0  0  0  0  0  0  0  0  0  0  0
    4.3460   -6.3320   31.3790 C   0  0  0  0  0  0  0  0  0  0  0  0
    3.3400   -6.1280   32.9690 Br  0  0  0  0  0  0  0  0  0  0  0  0
    4.2230   -5.4200   30.3320 C   0  0  0  0  0  0  0  0  0  0  0  0
    5.9060   -3.7050   27.8470 C   0  0  0  0  0  0  0  0  0  0  0  0
    7.3180   -2.9860   23.6170 C   0  0  0  0  0  0  0  0  0  0  0  0
    7.6780   -3.2110   22.1730 C   0  0  0  0  0  0  0  0  0  0  0  0
  1  2  1  0
  2  3  2  0
  2  4  1  0
  4  5  1  0
  5  6  1  0
  6  7  1  0
  7  8  1  0
  8  9  2  0
  8 10  1  0
 10 11  1  0
 11 12  1  0
 12 13  1  0
 12 14  1  0
 14 15  2  0
 15 16  1  0
 16 17  2  0
 17 18  1  0
 18 19  1  0
 14 20  1  0
 18 20  2  0
 10 21  1  0
 12 21  1  0
  7 22  1  0
  4 23  1  0
 22 23  1  0
M  END
