piperidine-amides-29601-covalent
     RDKit          3D

 26 26  0  0  0  0  0  0  0  0999 V2000
    7.1000   -3.2870   19.2020 C   0  0  0  0  0  0  0  0  0  0  0  0
    6.3430   -4.0360   20.2010 C   0  0  0  0  0  0  0  0  0  0  0  0
    5.2790   -4.5650   19.8910 O   0  0  0  0  0  0  0  0  0  0  0  0
    6.8700   -4.2110   21.5280 N   0  0  0  0  0  0  0  0  0  0  0  0
    7.6620   -3.1740   22.1330 C   0  0  0  0  0  0  0  0  0  0  0  0
    7.0370   -2.7270   23.4190 C   0  0  0  0  0  0  0  0  0  0  0  0
    6.5270   -3.9500   24.1650 C   0  0  0  0  0  0  0  0  0  0  0  0
    5.7040   -3.5060   25.3150 C   0  0  0  0  0  0  0  0  0  0  0  0
    4.4620   -3.4310   25.2410 O   0  0  0  0  0  0  0  0  0  0  0  0
    6.3310   -3.1540   26.5290 N   0  0  0  0  0  0  0  0  0  0  0  0
    6.7390   -1.7640   26.6460 C   0  0  0  0  0  0  0  0  0  0  0  0
    5.5860   -0.8960   26.2020 C   0  0  0  0  0  0  0  0  0  0  0  0
    5.1660    0.1560   27.0000 C   0  0  0  0  0  0  0  0  0  0  0  0
    5.7750    0.4210   28.0650 O   0  0  0  0  0  0  0  0  0  0  0  0
    4.0850    0.9580   26.7020 O   0  0  0  0  0  0  0  0  0  0  0  0
    3.3400    0.9060   25.5300 C   0  0  0  0  0  0  0  0  0  0  0  0
    5.8770   -3.7840   27.7430 C   0  0  0  0  0  0  0  0  0  0  0  0
    4.7800   -3.1170   28.4300 C   0  0  0  0  0  0  0  0  0  0  0  0
    6.7520   -3.6650   28.7770 C   0  0  0  0  0  0  0  0  0  0  0  0
    5.6800   -5.1400   27.5370 C   0  0  0  0  0  0  0  0  0  0  0  0
    5.9150   -6.0020   28.6040 C   0  0  0  0  0  0  0  0  0  0  0  0
    7.1750   -6.4180   29.0160 O   0  0  0  0  0  0  0  0  0  0  0  0
    4.8170   -6.4290   29.2710 O   0  0  0  0  0  0  0  0  0  0  0  0
    4.6130   -7.7650   29.0210 C   0  0  0  0  0  0  0  0  0  0  0  0
    5.7220   -4.9150   23.3140 C   0  0  0  0  0  0  0  0  0  0  0  0
    6.5470   -5.3740   22.2980 C   0  0  0  0  0  0  0  0  0  0  0  0
  1  2  1  0
  2  3  2  0
  2  4  1  0
  4  5  1  0
  5  6  1  0
  6  7  1  0
  7  8  1  0
  8  9  2  0
  8 10  1  0
 10 11  1  0
 11 12  1  0
 12 13  1  0
 13 14  2  0
 13 15  1  0
 15 16  1  0
 17 10  1  0
 17 18  1  0
 17 19  1  0
 17 20  1  0
 20 21  1  0
 21 22  2  0
 21 23  1  0
 23 24  1  0
  7 25  1  0
  4 26  1  0
 25 26  1  0
M  END
