piperidine-amides-33449-covalent
     RDKit          3D

 29 30  0  0  0  0  0  0  0  0999 V2000
    7.0340   -3.2540   19.1560 C   0  0  0  0  0  0  0  0  0  0  0  0
    6.2290   -3.9930   20.1580 C   0  0  0  0  0  0  0  0  0  0  0  0
    5.1360   -4.4510   19.7940 O   0  0  0  0  0  0  0  0  0  0  0  0
    6.6550   -4.2130   21.4760 N   0  0  0  0  0  0  0  0  0  0  0  0
    5.9740   -5.2590   22.1710 C   0  0  0  0  0  0  0  0  0  0  0  0
    5.2400   -4.8210   23.3710 C   0  0  0  0  0  0  0  0  0  0  0  0
    5.9410   -3.7590   24.1150 C   0  0  0  0  0  0  0  0  0  0  0  0
    5.4040   -3.4080   25.4790 C   0  0  0  0  0  0  0  0  0  0  0  0
    4.1890   -3.2790   25.7090 O   0  0  0  0  0  0  0  0  0  0  0  0
    6.3820   -3.2260   26.4630 N   0  0  0  0  0  0  0  0  0  0  0  0
    6.4680   -3.8700   27.7260 C   0  0  0  0  0  0  0  0  0  0  0  0
    7.6640   -4.6960   28.0500 C   0  0  0  0  0  0  0  0  0  0  0  0
    8.4160   -5.1450   26.7260 C   0  0  0  0  0  0  0  0  0  0  0  0
    9.7710   -4.7210   26.5300 C   0  0  0  0  0  0  0  0  0  0  0  0
   10.2330   -4.0810   25.2470 N   0  0  0  0  0  0  0  0  0  0  0  0
    9.3180   -3.7220   24.2170 C   0  0  0  0  0  0  0  0  0  0  0  0
    8.6510   -4.6010   23.3700 O   0  0  0  0  0  0  0  0  0  0  0  0
    9.0640   -2.3500   24.0590 O   0  0  0  0  0  0  0  0  0  0  0  0
    9.5540   -1.7700   22.9670 C   0  0  0  0  0  0  0  0  0  0  0  0
   10.9200   -2.2790   22.5110 C   0  0  0  0  0  0  0  0  0  0  0  0
   10.5380   -0.7450   23.0260 C   0  0  0  0  0  0  0  0  0  0  0  0
    9.0220   -1.9990   21.6180 C   0  0  0  0  0  0  0  0  0  0  0  0
   11.3810   -3.2410   25.3730 C   0  0  0  0  0  0  0  0  0  0  0  0
   10.8930   -1.8880   25.2420 C   0  0  0  0  0  0  0  0  0  0  0  0
   12.4220   -3.1340   24.4830 C   0  0  0  0  0  0  0  0  0  0  0  0
    7.7630   -4.7760   25.6520 C   0  0  0  0  0  0  0  0  0  0  0  0
    7.6160   -3.3010   25.7980 C   0  0  0  0  0  0  0  0  0  0  0  0
    6.1820   -2.5840   23.2340 C   0  0  0  0  0  0  0  0  0  0  0  0
    7.1180   -3.0450   22.1380 C   0  0  0  0  0  0  0  0  0  0  0  0
  1  2  1  0
  2  3  2  0
  2  4  1  0
  4  5  1  0
  5  6  1  0
  6  7  1  0
  7  8  1  0
  8  9  2  0
  8 10  1  0
 10 11  1  0
 11 12  1  0
 12 13  1  0
 13 14  1  0
 14 15  1  0
 15 16  1  0
 16 17  2  0
 16 18  1  0
 19 18  1  0
 19 20  1  0
 19 21  1  0
 19 22  1  0
 15 23  1  0
 23 24  1  0
 23 25  1  0
 13 26  1  0
 10 27  1  0
 26 27  1  0
  7 28  1  0
  4 29  1  0
 28 29  1  0
M  END
