piperidine-amides-2998-covalent
     RDKit          3D

 23 25  0  0  0  0  0  0  0  0999 V2000
    7.0770   -3.3270   19.3180 C   0  0  0  0  0  0  0  0  0  0  0  0
    6.3740   -4.1570   20.2910 C   0  0  0  0  0  0  0  0  0  0  0  0
    5.3600   -4.7720   19.9610 O   0  0  0  0  0  0  0  0  0  0  0  0
    6.8940   -4.2990   21.6180 N   0  0  0  0  0  0  0  0  0  0  0  0
    7.6980   -3.2390   22.1780 C   0  0  0  0  0  0  0  0  0  0  0  0
    7.0330   -2.6700   23.3910 C   0  0  0  0  0  0  0  0  0  0  0  0
    6.5800   -3.8400   24.2350 C   0  0  0  0  0  0  0  0  0  0  0  0
    5.8300   -3.3050   25.4070 C   0  0  0  0  0  0  0  0  0  0  0  0
    4.5830   -3.2210   25.4150 O   0  0  0  0  0  0  0  0  0  0  0  0
    6.5580   -2.8810   26.5450 N   0  0  0  0  0  0  0  0  0  0  0  0
    6.3890   -1.5250   27.0210 C   0  0  0  0  0  0  0  0  0  0  0  0
    6.0810   -0.4690   26.0530 C   0  0  0  0  0  0  0  0  0  0  0  0
    5.9740    0.6110   26.6930 N   0  0  0  0  0  0  0  0  0  0  0  0
    5.7000    1.8210   26.1800 C   0  0  0  0  0  0  0  0  0  0  0  0
    6.1910    0.2690   27.9460 N   0  0  0  0  0  0  0  0  0  0  0  0
    6.5000   -1.1010   28.4790 C   0  0  0  0  0  0  0  0  0  0  0  0
    6.5170   -0.3540   29.6550 C   0  0  0  0  0  0  0  0  0  0  0  0
    7.6880   -0.4160   30.5010 C   0  0  0  0  0  0  0  0  0  0  0  0
    8.0510    0.7490   31.0840 C   0  0  0  0  0  0  0  0  0  0  0  0
    7.2250    1.6830   30.5290 C   0  0  0  0  0  0  0  0  0  0  0  0
    6.4220    1.1620   29.4930 C   0  0  0  0  0  0  0  0  0  0  0  0
    5.8380   -4.8880   23.5510 C   0  0  0  0  0  0  0  0  0  0  0  0
    6.5320   -5.4020   22.4670 C   0  0  0  0  0  0  0  0  0  0  0  0
  1  2  1  0
  2  3  2  0
  2  4  1  0
  4  5  1  0
  5  6  1  0
  6  7  1  0
  7  8  1  0
  8  9  2  0
  8 10  1  0
 10 11  1  0
 11 12  2  0
 12 13  1  0
 13 14  1  0
 13 15  1  0
 11 16  1  0
 15 16  2  0
 16 17  1  0
 17 18  1  0
 18 19  1  0
 19 20  1  0
 17 21  1  0
 20 21  1  0
  7 22  1  0
  4 23  1  0
 22 23  1  0
M  END
