piperidine-amides-13890-covalent
     RDKit          3D

 26 28  0  0  0  0  0  0  0  0999 V2000
    7.1240   -3.2860   19.2280 C   0  0  0  0  0  0  0  0  0  0  0  0
    6.3810   -4.0900   20.2390 C   0  0  0  0  0  0  0  0  0  0  0  0
    5.3070   -4.6200   19.9120 O   0  0  0  0  0  0  0  0  0  0  0  0
    6.9390   -4.2770   21.5190 N   0  0  0  0  0  0  0  0  0  0  0  0
    6.5910   -5.4040   22.3360 C   0  0  0  0  0  0  0  0  0  0  0  0
    5.7240   -4.8430   23.4690 C   0  0  0  0  0  0  0  0  0  0  0  0
    6.5140   -3.8110   24.2140 C   0  0  0  0  0  0  0  0  0  0  0  0
    5.7310   -3.2160   25.3210 C   0  0  0  0  0  0  0  0  0  0  0  0
    4.5430   -2.9870   25.0640 O   0  0  0  0  0  0  0  0  0  0  0  0
    6.3110   -2.9430   26.5650 N   0  0  0  0  0  0  0  0  0  0  0  0
    6.1550   -3.7100   27.7510 C   0  0  0  0  0  0  0  0  0  0  0  0
    5.1690   -3.5420   28.6920 C   0  0  0  0  0  0  0  0  0  0  0  0
    5.0410   -4.7290   29.4420 C   0  0  0  0  0  0  0  0  0  0  0  0
    5.9530   -5.7650   29.2330 C   0  0  0  0  0  0  0  0  0  0  0  0
    5.8490   -7.0240   30.0010 C   0  0  0  0  0  0  0  0  0  0  0  0
    4.7600   -7.2260   31.0320 C   0  0  0  0  0  0  0  0  0  0  0  0
    3.8500   -6.0180   31.1440 C   0  0  0  0  0  0  0  0  0  0  0  0
    4.0160   -4.8750   30.3830 C   0  0  0  0  0  0  0  0  0  0  0  0
    2.8690   -3.5760   30.6480 Cl  0  0  0  0  0  0  0  0  0  0  0  0
    3.9900   -3.2360   28.0750 C   0  0  0  0  0  0  0  0  0  0  0  0
    3.9310   -1.8400   28.6690 C   0  0  0  0  0  0  0  0  0  0  0  0
    4.3330   -0.8370   27.8320 C   0  0  0  0  0  0  0  0  0  0  0  0
    5.0800   -1.0710   29.1630 C   0  0  0  0  0  0  0  0  0  0  0  0
    5.4110   -2.5010   29.5730 C   0  0  0  0  0  0  0  0  0  0  0  0
    6.9680   -2.6690   23.3310 C   0  0  0  0  0  0  0  0  0  0  0  0
    7.6800   -3.1810   22.1370 C   0  0  0  0  0  0  0  0  0  0  0  0
  1  2  1  0
  2  3  2  0
  2  4  1  0
  4  5  1  0
  5  6  1  0
  6  7  1  0
  7  8  1  0
  8  9  2  0
  8 10  1  0
 10 11  1  0
 12 11  1  0
 12 13  1  0
 13 14  2  0
 14 15  1  0
 15 16  2  0
 16 17  1  0
 13 18  1  0
 17 18  2  0
 18 19  1  0
 12 20  1  0
 20 21  1  0
 21 22  1  0
 22 23  1  0
 12 24  1  0
 23 24  1  0
  7 25  1  0
  4 26  1  0
 25 26  1  0
M  END
