piperidine-amides-33279-covalent
     RDKit          3D

 29 31  0  0  0  0  0  0  0  0999 V2000
    7.0240   -3.3590   19.4020 C   0  0  0  0  0  0  0  0  0  0  0  0
    6.4110   -4.2470   20.4070 C   0  0  0  0  0  0  0  0  0  0  0  0
    5.4280   -4.9230   20.0070 O   0  0  0  0  0  0  0  0  0  0  0  0
    6.9260   -4.3700   21.7370 N   0  0  0  0  0  0  0  0  0  0  0  0
    6.4270   -5.4390   22.5360 C   0  0  0  0  0  0  0  0  0  0  0  0
    5.9230   -5.0150   23.8530 C   0  0  0  0  0  0  0  0  0  0  0  0
    5.8570   -3.5430   24.0500 C   0  0  0  0  0  0  0  0  0  0  0  0
    5.0720   -3.0220   25.2730 C   0  0  0  0  0  0  0  0  0  0  0  0
    4.2750   -2.1000   25.0620 O   0  0  0  0  0  0  0  0  0  0  0  0
    5.1450   -3.4870   26.6200 N   0  0  0  0  0  0  0  0  0  0  0  0
    4.9550   -2.7530   27.8090 C   0  0  0  0  0  0  0  0  0  0  0  0
    5.7120   -3.1620   28.9990 C   0  0  0  0  0  0  0  0  0  0  0  0
    5.3760   -4.6280   29.2940 C   0  0  0  0  0  0  0  0  0  0  0  0
    6.3550   -5.5350   29.0080 C   0  0  0  0  0  0  0  0  0  0  0  0
    5.9690   -5.5010   27.5260 C   0  0  1  0  0  0  0  0  0  0  0  0
    4.5570   -5.9260   27.8150 C   0  0  0  0  0  0  0  0  0  0  0  0
    4.4220   -6.0540   26.3260 C   0  0  0  0  0  0  0  0  0  0  0  0
    4.2080   -7.3470   26.6900 N   0  0  0  0  0  0  0  0  0  0  0  0
    3.0450   -7.8090   26.0540 C   0  0  0  0  0  0  0  0  0  0  0  0
    3.0470   -8.4800   24.8140 O   0  0  0  0  0  0  0  0  0  0  0  0
    1.8490   -7.6230   26.6690 O   0  0  0  0  0  0  0  0  0  0  0  0
    1.0470   -8.7350   27.0420 C   0  0  0  0  0  0  0  0  0  0  0  0
   -0.4490   -8.3830   27.0800 C   0  0  0  0  0  0  0  0  0  0  0  0
    1.3690   -9.8980   26.1300 C   0  0  0  0  0  0  0  0  0  0  0  0
    1.0900   -9.1940   28.4310 C   0  0  0  0  0  0  0  0  0  0  0  0
    4.2320   -7.2580   28.1990 C   0  0  0  0  0  0  0  0  0  0  0  0
    6.1840   -4.3210   26.8480 C   0  0  0  0  0  0  0  0  0  0  0  0
    7.2180   -2.9570   23.7890 C   0  0  0  0  0  0  0  0  0  0  0  0
    7.6230   -3.2630   22.3460 C   0  0  0  0  0  0  0  0  0  0  0  0
  1  2  1  0
  2  3  2  0
  2  4  1  0
  4  5  1  0
  5  6  1  0
  6  7  1  0
  7  8  1  0
  8  9  2  0
  8 10  1  0
 10 11  1  0
 11 12  1  0
 12 13  1  0
 13 14  1  0
 14 15  1  0
 15 16  1  1
 16 17  1  0
 17 18  1  0
 18 19  1  0
 19 20  2  0
 19 21  1  0
 22 21  1  0
 22 23  1  0
 22 24  1  0
 22 25  1  0
 16 26  1  0
 18 26  1  0
 10 27  1  0
 15 27  1  0
  7 28  1  0
  4 29  1  0
 28 29  1  0
M  END
