piperidine-amides-29932-covalent
     RDKit          3D

 27 29  0  0  0  0  0  0  0  0999 V2000
    7.0100   -3.3460   19.3850 C   0  0  0  0  0  0  0  0  0  0  0  0
    6.3260   -4.2080   20.3430 C   0  0  0  0  0  0  0  0  0  0  0  0
    5.3700   -4.8910   19.9850 O   0  0  0  0  0  0  0  0  0  0  0  0
    6.7890   -4.2920   21.6990 N   0  0  0  0  0  0  0  0  0  0  0  0
    7.5770   -3.2130   22.2450 C   0  0  0  0  0  0  0  0  0  0  0  0
    7.2950   -3.0510   23.7060 C   0  0  0  0  0  0  0  0  0  0  0  0
    5.9000   -3.5010   23.9740 C   0  0  0  0  0  0  0  0  0  0  0  0
    5.4540   -3.1620   25.3670 C   0  0  0  0  0  0  0  0  0  0  0  0
    4.2440   -3.1410   25.6530 O   0  0  0  0  0  0  0  0  0  0  0  0
    6.3880   -2.8630   26.4100 N   0  0  0  0  0  0  0  0  0  0  0  0
    6.5850   -3.9130   27.3920 C   0  0  0  0  0  0  0  0  0  0  0  0
    6.7100   -1.4540   26.6930 C   0  0  0  0  0  0  0  0  0  0  0  0
    7.3700   -1.1640   27.8930 C   0  0  0  0  0  0  0  0  0  0  0  0
    6.7680   -0.6160   29.0260 C   0  0  0  0  0  0  0  0  0  0  0  0
    5.8580    0.4290   28.7930 N   0  0  0  0  0  0  0  0  0  0  0  0
    5.1140    0.9950   29.8320 C   0  0  0  0  0  0  0  0  0  0  0  0
    4.7540    2.4090   29.7460 C   0  0  0  0  0  0  0  0  0  0  0  0
    4.2980    3.2380   30.7420 C   0  0  0  0  0  0  0  0  0  0  0  0
    5.1250    3.9390   31.5900 C   0  0  0  0  0  0  0  0  0  0  0  0
    4.5910    4.7660   32.5810 C   0  0  0  0  0  0  0  0  0  0  0  0
    3.2620    4.9200   32.7560 N   0  0  0  0  0  0  0  0  0  0  0  0
    2.3400    4.1840   31.8670 C   0  0  0  0  0  0  0  0  0  0  0  0
    2.9320    3.3860   30.9130 C   0  0  0  0  0  0  0  0  0  0  0  0
    5.4790    0.4860   27.4230 C   0  0  0  0  0  0  0  0  0  0  0  0
    5.6380   -0.6240   26.4390 C   0  0  0  0  0  0  0  0  0  0  0  0
    5.7450   -4.9770   23.7680 C   0  0  0  0  0  0  0  0  0  0  0  0
    6.4750   -5.4340   22.5110 C   0  0  0  0  0  0  0  0  0  0  0  0
  1  2  1  0
  2  3  2  0
  2  4  1  0
  4  5  1  0
  5  6  1  0
  6  7  1  0
  7  8  1  0
  8  9  2  0
  8 10  1  0
 10 11  1  0
 10 12  1  0
 12 13  1  0
 13 14  1  0
 14 15  1  0
 15 16  1  0
 16 17  1  0
 17 18  1  0
 18 19  2  0
 19 20  1  0
 20 21  2  0
 21 22  1  0
 18 23  1  0
 22 23  2  0
 15 24  1  0
 12 25  1  0
 24 25  1  0
  7 26  1  0
  4 27  1  0
 26 27  1  0
M  END
