piperidine-amides-33094-covalent
     RDKit          3D

 27 29  0  0  0  0  0  0  0  0999 V2000
    7.0640   -3.3610   19.3950 C   0  0  0  0  0  0  0  0  0  0  0  0
    6.4160   -4.2440   20.3750 C   0  0  0  0  0  0  0  0  0  0  0  0
    5.3850   -4.8430   19.9870 O   0  0  0  0  0  0  0  0  0  0  0  0
    6.9630   -4.4550   21.6740 N   0  0  0  0  0  0  0  0  0  0  0  0
    7.5440   -3.3390   22.3260 C   0  0  0  0  0  0  0  0  0  0  0  0
    7.2640   -3.2030   23.7680 C   0  0  0  0  0  0  0  0  0  0  0  0
    6.2640   -4.0960   24.4340 C   0  0  0  0  0  0  0  0  0  0  0  0
    5.3700   -3.2980   25.3640 C   0  0  0  0  0  0  0  0  0  0  0  0
    4.6120   -2.4640   24.8510 O   0  0  0  0  0  0  0  0  0  0  0  0
    5.3200   -3.4320   26.7860 N   0  0  0  0  0  0  0  0  0  0  0  0
    6.2440   -3.9770   27.6220 C   0  0  0  0  0  0  0  0  0  0  0  0
    6.1990   -5.4090   27.9090 C   0  0  0  0  0  0  0  0  0  0  0  0
    6.0080   -5.4310   29.4020 C   0  0  0  0  0  0  0  0  0  0  0  0
    4.7530   -4.6860   29.5790 N   0  0  0  0  0  0  0  0  0  0  0  0
    3.8610   -5.4630   30.3880 C   0  0  0  0  0  0  0  0  0  0  0  0
    3.1740   -4.9930   31.4590 N   0  0  0  0  0  0  0  0  0  0  0  0
    2.3850   -5.9400   32.0510 N   0  0  0  0  0  0  0  0  0  0  0  0
    2.4940   -7.2370   31.3570 C   0  0  0  0  0  0  0  0  0  0  0  0
    1.7220   -8.4320   31.8130 C   0  0  0  0  0  0  0  0  0  0  0  0
    2.5420   -9.1420   32.7010 F   0  0  0  0  0  0  0  0  0  0  0  0
    1.3130   -9.1720   30.7620 F   0  0  0  0  0  0  0  0  0  0  0  0
    0.5920   -8.0740   32.4820 F   0  0  0  0  0  0  0  0  0  0  0  0
    3.5500   -7.1880   30.0510 S   0  0  0  0  0  0  0  0  0  0  0  0
    4.0760   -4.3910   28.4500 C   0  0  0  0  0  0  0  0  0  0  0  0
    4.3090   -3.0860   27.7030 C   0  0  0  0  0  0  0  0  0  0  0  0
    5.4760   -4.9520   23.4560 C   0  0  0  0  0  0  0  0  0  0  0  0
    6.4610   -5.5420   22.4390 C   0  0  0  0  0  0  0  0  0  0  0  0
  1  2  1  0
  2  3  2  0
  2  4  1  0
  4  5  1  0
  5  6  1  0
  6  7  1  0
  7  8  1  0
  8  9  2  0
  8 10  1  0
 10 11  1  0
 11 12  1  0
 12 13  1  0
 13 14  1  0
 14 15  1  0
 15 16  2  0
 16 17  1  0
 17 18  2  0
 18 19  1  0
 19 20  1  0
 19 21  1  0
 19 22  1  0
 15 23  1  0
 18 23  1  0
 14 24  1  0
 10 25  1  0
 24 25  1  0
  7 26  1  0
  4 27  1  0
 26 27  1  0
M  END
