piperidine-amides-13013-covalent
     RDKit          3D

 20 21  0  0  0  0  0  0  0  0999 V2000
    7.1300   -3.2610   19.2230 C   0  0  0  0  0  0  0  0  0  0  0  0
    6.3840   -4.0290   20.2500 C   0  0  0  0  0  0  0  0  0  0  0  0
    5.3050   -4.5390   19.8830 O   0  0  0  0  0  0  0  0  0  0  0  0
    6.9000   -4.2060   21.5400 N   0  0  0  0  0  0  0  0  0  0  0  0
    6.5060   -5.3290   22.3170 C   0  0  0  0  0  0  0  0  0  0  0  0
    6.1620   -4.9910   23.7030 C   0  0  0  0  0  0  0  0  0  0  0  0
    6.6350   -3.6680   24.1980 C   0  0  0  0  0  0  0  0  0  0  0  0
    5.7530   -3.2110   25.3100 C   0  0  0  0  0  0  0  0  0  0  0  0
    4.8250   -2.4260   25.0340 O   0  0  0  0  0  0  0  0  0  0  0  0
    5.9380   -3.6370   26.6370 N   0  0  0  0  0  0  0  0  0  0  0  0
    5.8700   -5.0700   27.0250 C   0  0  0  0  0  0  0  0  0  0  0  0
    4.4840   -5.6270   27.1010 C   0  0  0  0  0  0  0  0  0  0  0  0
    4.0710   -6.4860   28.1690 C   0  0  0  0  0  0  0  0  0  0  0  0
    5.3070   -7.0930   29.7740 I   0  0  0  0  0  0  0  0  0  0  0  0
    2.7830   -6.8860   28.0510 C   0  0  0  0  0  0  0  0  0  0  0  0
    2.3460   -6.2600   26.8600 N   0  0  0  0  0  0  0  0  0  0  0  0
    3.3520   -5.5520   26.3530 N   0  0  0  0  0  0  0  0  0  0  0  0
    3.0410   -4.9090   25.2030 C   0  0  0  0  0  0  0  0  0  0  0  0
    6.8450   -2.6340   23.1420 C   0  0  0  0  0  0  0  0  0  0  0  0
    7.6370   -3.1720   22.1770 C   0  0  0  0  0  0  0  0  0  0  0  0
  1  2  1  0
  2  3  2  0
  2  4  1  0
  4  5  1  0
  5  6  1  0
  6  7  1  0
  7  8  1  0
  8  9  2  0
  8 10  1  0
 10 11  1  0
 11 12  1  0
 12 13  2  0
 13 14  1  0
 13 15  1  0
 15 16  2  0
 12 17  1  0
 16 17  1  0
 17 18  1  0
  7 19  1  0
  4 20  1  0
 19 20  1  0
M  END
