piperidine-amides-1335-covalent
     RDKit          3D

 22 23  0  0  0  0  0  0  0  0999 V2000
    7.1480   -3.2710   19.1920 C   0  0  0  0  0  0  0  0  0  0  0  0
    6.3850   -4.0530   20.2010 C   0  0  0  0  0  0  0  0  0  0  0  0
    5.2960   -4.5580   19.8840 O   0  0  0  0  0  0  0  0  0  0  0  0
    6.9540   -4.2500   21.4730 N   0  0  0  0  0  0  0  0  0  0  0  0
    7.7510   -3.2460   22.1340 C   0  0  0  0  0  0  0  0  0  0  0  0
    6.8830   -2.6700   23.2450 C   0  0  0  0  0  0  0  0  0  0  0  0
    6.4810   -3.8200   24.1030 C   0  0  0  0  0  0  0  0  0  0  0  0
    5.7080   -3.3960   25.2800 C   0  0  0  0  0  0  0  0  0  0  0  0
    4.5220   -3.1030   25.0970 O   0  0  0  0  0  0  0  0  0  0  0  0
    6.3360   -3.3450   26.5180 N   0  0  0  0  0  0  0  0  0  0  0  0
    5.9220   -3.9510   27.7210 C   0  0  2  0  0  0  0  0  0  0  0  0
    6.5770   -3.7930   28.8990 C   0  0  0  0  0  0  0  0  0  0  0  0
    6.9370   -2.3840   28.9250 O   0  0  0  0  0  0  0  0  0  0  0  0
    5.7950   -5.4720   27.5850 C   0  0  0  0  0  0  0  0  0  0  0  0
    4.8510   -6.1410   28.3450 C   0  0  0  0  0  0  0  0  0  0  0  0
    5.4060   -6.8780   29.5180 C   0  0  0  0  0  0  0  0  0  0  0  0
    4.5060   -6.9460   30.7520 C   0  0  0  0  0  0  0  0  0  0  0  0
    3.2100   -6.5280   30.6120 O   0  0  0  0  0  0  0  0  0  0  0  0
    2.8060   -6.1340   29.2990 C   0  0  0  0  0  0  0  0  0  0  0  0
    3.7300   -5.3820   28.5860 C   0  0  0  0  0  0  0  0  0  0  0  0
    5.7130   -4.8910   23.4090 C   0  0  0  0  0  0  0  0  0  0  0  0
    6.5300   -5.3960   22.2400 C   0  0  0  0  0  0  0  0  0  0  0  0
  1  2  1  0
  2  3  2  0
  2  4  1  0
  4  5  1  0
  5  6  1  0
  6  7  1  0
  7  8  1  0
  8  9  2  0
  8 10  1  0
 10 11  1  0
 11 12  1  1
 12 13  1  0
 11 14  1  0
 14 15  1  0
 15 16  1  0
 16 17  1  0
 17 18  1  0
 18 19  1  0
 15 20  1  0
 19 20  1  0
  7 21  1  0
  4 22  1  0
 21 22  1  0
M  END
