piperidine-amides-6915-covalent
     RDKit          3D

 22 23  0  0  0  0  0  0  0  0999 V2000
    7.1320   -3.2910   19.2970 C   0  0  0  0  0  0  0  0  0  0  0  0
    6.3540   -4.0700   20.2680 C   0  0  0  0  0  0  0  0  0  0  0  0
    5.2910   -4.6270   19.9140 O   0  0  0  0  0  0  0  0  0  0  0  0
    6.8190   -4.2460   21.5770 N   0  0  0  0  0  0  0  0  0  0  0  0
    6.4870   -5.4420   22.3030 C   0  0  0  0  0  0  0  0  0  0  0  0
    5.6830   -4.9720   23.5170 C   0  0  0  0  0  0  0  0  0  0  0  0
    6.5080   -3.9020   24.2110 C   0  0  0  0  0  0  0  0  0  0  0  0
    5.7720   -3.3970   25.3930 C   0  0  0  0  0  0  0  0  0  0  0  0
    4.7540   -2.7020   25.1930 O   0  0  0  0  0  0  0  0  0  0  0  0
    6.2110   -3.6970   26.7120 N   0  0  0  0  0  0  0  0  0  0  0  0
    5.9910   -5.0150   27.2700 C   0  0  2  0  0  0  0  0  0  0  0  0
    4.5930   -5.4180   26.9870 C   0  0  0  0  0  0  0  0  0  0  0  0
    6.2480   -5.0190   28.7220 C   0  0  0  0  0  0  0  0  0  0  0  0
    5.8900   -6.1060   29.4790 C   0  0  0  0  0  0  0  0  0  0  0  0
    4.5480   -6.3970   29.7180 C   0  0  0  0  0  0  0  0  0  0  0  0
    3.9270   -7.5790   29.3870 C   0  0  0  0  0  0  0  0  0  0  0  0
    2.5110   -7.9620   29.6090 C   0  0  0  0  0  0  0  0  0  0  0  0
    1.7480   -7.0810   30.1870 N   0  0  0  0  0  0  0  0  0  0  0  0
    2.2420   -5.8150   30.5890 C   0  0  0  0  0  0  0  0  0  0  0  0
    3.7070   -5.4510   30.3460 C   0  0  0  0  0  0  0  0  0  0  0  0
    6.8020   -2.7490   23.2750 C   0  0  0  0  0  0  0  0  0  0  0  0
    7.6160   -3.2430   22.2480 C   0  0  0  0  0  0  0  0  0  0  0  0
  1  2  1  0
  2  3  2  0
  2  4  1  0
  4  5  1  0
  5  6  1  0
  6  7  1  0
  7  8  1  0
  8  9  2  0
  8 10  1  0
 10 11  1  0
 11 12  1  1
 11 13  1  0
 13 14  1  0
 14 15  1  0
 15 16  2  0
 16 17  1  0
 17 18  2  0
 18 19  1  0
 15 20  1  0
 19 20  2  0
  7 21  1  0
  4 22  1  0
 21 22  1  0
M  END
