piperidine-amides-33680-covalent
     RDKit          3D

 30 33  0  0  0  0  0  0  0  0999 V2000
    7.1060   -3.3320   19.3570 C   0  0  0  0  0  0  0  0  0  0  0  0
    6.4530   -4.2220   20.3260 C   0  0  0  0  0  0  0  0  0  0  0  0
    5.3740   -4.7510   19.9650 O   0  0  0  0  0  0  0  0  0  0  0  0
    7.0530   -4.5280   21.5750 N   0  0  0  0  0  0  0  0  0  0  0  0
    6.4810   -5.5850   22.3190 C   0  0  0  0  0  0  0  0  0  0  0  0
    5.7440   -5.1410   23.5000 C   0  0  0  0  0  0  0  0  0  0  0  0
    6.3060   -3.9790   24.2370 C   0  0  0  0  0  0  0  0  0  0  0  0
    5.2910   -3.4020   25.2000 C   0  0  0  0  0  0  0  0  0  0  0  0
    4.1500   -3.1420   24.7850 O   0  0  0  0  0  0  0  0  0  0  0  0
    5.5730   -3.1330   26.5620 N   0  0  0  0  0  0  0  0  0  0  0  0
    5.4400   -2.0400   27.3630 C   0  0  0  0  0  0  0  0  0  0  0  0
    5.8940   -2.7800   28.4830 C   0  0  0  0  0  0  0  0  0  0  0  0
    5.8920   -4.1000   27.6090 C   0  0  0  0  0  0  0  0  0  0  0  0
    7.0690   -4.7150   27.4390 C   0  0  0  0  0  0  0  0  0  0  0  0
    7.1610   -4.7100   28.9610 C   0  0  0  0  0  0  0  0  0  0  0  0
    6.2000   -5.5880   29.5440 N   0  0  0  0  0  0  0  0  0  0  0  0
    6.5900   -6.8310   28.9860 C   0  0  0  0  0  0  0  0  0  0  0  0
    6.3830   -8.0290   29.6790 O   0  0  0  0  0  0  0  0  0  0  0  0
    7.1630   -6.8200   27.7160 O   0  0  0  0  0  0  0  0  0  0  0  0
    8.4260   -6.2060   27.5130 C   0  0  0  0  0  0  0  0  0  0  0  0
    8.2750   -4.7210   27.4310 C   0  0  0  0  0  0  0  0  0  0  0  0
    7.5870   -4.2130   26.1690 C   0  0  0  0  0  0  0  0  0  0  0  0
    7.4280   -2.6900   26.0420 C   0  0  0  0  0  0  0  0  0  0  0  0
    7.9450   -1.8880   27.1480 C   0  0  0  0  0  0  0  0  0  0  0  0
    8.5610   -2.4350   28.2470 C   0  0  0  0  0  0  0  0  0  0  0  0
    8.7210   -3.7960   28.3710 C   0  0  0  0  0  0  0  0  0  0  0  0
    4.9080   -5.2910   29.1890 C   0  0  0  0  0  0  0  0  0  0  0  0
    4.9570   -5.0180   27.8500 C   0  0  0  0  0  0  0  0  0  0  0  0
    6.7530   -2.9090   23.2500 C   0  0  0  0  0  0  0  0  0  0  0  0
    7.7580   -3.4990   22.2900 C   0  0  0  0  0  0  0  0  0  0  0  0
  1  2  1  0
  2  3  2  0
  2  4  1  0
  4  5  1  0
  5  6  1  0
  6  7  1  0
  7  8  1  0
  8  9  2  0
  8 10  1  0
 10 11  1  0
 11 12  1  0
 13 10  1  0
 12 13  1  0
 13 14  1  0
 14 15  1  0
 15 16  1  0
 16 17  1  0
 17 18  2  0
 17 19  1  0
 19 20  1  0
 20 21  1  0
 21 22  2  0
 22 23  1  0
 23 24  2  0
 24 25  1  0
 21 26  1  0
 25 26  2  0
 16 27  1  0
 13 28  1  0
 27 28  1  0
  7 29  1  0
  4 30  1  0
 29 30  1  0
M  END
