piperidine-amides-31146-covalent
     RDKit          3D

 28 31  0  0  0  0  0  0  0  0999 V2000
    7.1090   -3.3280   19.2450 C   0  0  0  0  0  0  0  0  0  0  0  0
    6.4160   -4.1200   20.2600 C   0  0  0  0  0  0  0  0  0  0  0  0
    5.3760   -4.7340   19.9540 O   0  0  0  0  0  0  0  0  0  0  0  0
    6.9350   -4.2470   21.5550 N   0  0  0  0  0  0  0  0  0  0  0  0
    6.7640   -5.4660   22.3170 C   0  0  0  0  0  0  0  0  0  0  0  0
    6.0610   -5.0500   23.5770 C   0  0  0  0  0  0  0  0  0  0  0  0
    6.2090   -3.5770   23.7880 C   0  0  0  0  0  0  0  0  0  0  0  0
    5.7060   -3.1260   25.0840 C   0  0  0  0  0  0  0  0  0  0  0  0
    4.8090   -2.2450   25.1770 O   0  0  0  0  0  0  0  0  0  0  0  0
    6.1720   -3.6790   26.2630 N   0  0  0  0  0  0  0  0  0  0  0  0
    5.6410   -5.0000   26.5290 C   0  0  0  0  0  0  0  0  0  0  0  0
    5.4770   -4.8890   27.9350 C   0  0  1  0  0  0  0  0  0  0  0  0
    5.6540   -5.9800   28.7420 C   0  0  0  0  0  0  0  0  0  0  0  0
    5.6460   -7.1110   28.2410 O   0  0  0  0  0  0  0  0  0  0  0  0
    5.7770   -5.3290   29.9690 N   0  0  0  0  0  0  0  0  0  0  0  0
    4.4970   -5.8190   30.5730 C   0  0  0  0  0  0  0  0  0  0  0  0
    4.7060   -6.5770   31.8690 C   0  0  0  0  0  0  0  0  0  0  0  0
    3.9280   -6.1340   33.0730 C   0  0  0  0  0  0  0  0  0  0  0  0
    4.0380   -6.7510   34.2930 C   0  0  0  0  0  0  0  0  0  0  0  0
    4.8690   -7.8310   34.5230 C   0  0  0  0  0  0  0  0  0  0  0  0
    5.7090   -8.3840   33.4140 C   0  0  0  0  0  0  0  0  0  0  0  0
    5.6570   -7.7590   32.0160 C   0  0  0  0  0  0  0  0  0  0  0  0
    5.7950   -3.8670   29.6450 C   0  0  0  0  0  0  0  0  0  0  0  0
    6.0090   -2.6730   28.9730 O   0  0  0  0  0  0  0  0  0  0  0  0
    6.3360   -4.0630   28.5560 C   0  0  2  0  0  0  0  0  0  0  0  0
    6.3060   -3.0010   27.4960 C   0  0  0  0  0  0  0  0  0  0  0  0
    7.6150   -3.1280   23.5310 C   0  0  0  0  0  0  0  0  0  0  0  0
    7.8040   -3.1860   22.0320 C   0  0  0  0  0  0  0  0  0  0  0  0
  1  2  1  0
  2  3  2  0
  2  4  1  0
  4  5  1  0
  5  6  1  0
  6  7  1  0
  7  8  1  0
  8  9  2  0
  8 10  1  0
 10 11  1  0
 12 11  1  6
 12 13  1  0
 13 14  2  0
 13 15  1  0
 15 16  1  0
 16 17  1  0
 17 18  2  0
 18 19  1  0
 19 20  2  0
 20 21  1  0
 17 22  1  0
 21 22  2  0
 15 23  1  0
 23 24  2  0
 12 25  1  0
 23 25  1  0
 10 26  1  0
 25 26  1  6
  7 27  1  0
  4 28  1  0
 27 28  1  0
M  END
