piperidine-amides-14863-covalent
     RDKit          3D

 22 23  0  0  0  0  0  0  0  0999 V2000
    7.1560   -3.1910   19.1340 C   0  0  0  0  0  0  0  0  0  0  0  0
    6.3500   -3.8780   20.1360 C   0  0  0  0  0  0  0  0  0  0  0  0
    5.2540   -4.3530   19.7990 O   0  0  0  0  0  0  0  0  0  0  0  0
    6.8350   -4.0520   21.4480 N   0  0  0  0  0  0  0  0  0  0  0  0
    6.2120   -5.1080   22.1640 C   0  0  0  0  0  0  0  0  0  0  0  0
    5.2040   -4.4740   23.0970 C   0  0  0  0  0  0  0  0  0  0  0  0
    6.0000   -3.6930   24.1290 C   0  0  0  0  0  0  0  0  0  0  0  0
    5.1440   -3.3810   25.3420 C   0  0  0  0  0  0  0  0  0  0  0  0
    4.9610   -2.1920   25.5880 O   0  0  0  0  0  0  0  0  0  0  0  0
    4.6010   -4.4510   26.1000 N   0  0  0  0  0  0  0  0  0  0  0  0
    5.3420   -5.6500   26.3630 C   0  0  0  0  0  0  0  0  0  0  0  0
    6.6230   -5.3500   26.0860 C   0  0  0  0  0  0  0  0  0  0  0  0
    7.5510   -5.3120   27.0560 C   0  0  0  0  0  0  0  0  0  0  0  0
    8.8560   -4.9630   26.8780 C   0  0  0  0  0  0  0  0  0  0  0  0
    9.9820   -4.9700   28.1360 Cl  0  0  0  0  0  0  0  0  0  0  0  0
    9.2650   -4.5620   25.5170 C   0  0  0  0  0  0  0  0  0  0  0  0
   10.9130   -4.0300   25.3100 Cl  0  0  0  0  0  0  0  0  0  0  0  0
    8.2130   -4.6490   24.4280 C   0  0  0  0  0  0  0  0  0  0  0  0
    6.8700   -5.0790   24.7900 C   0  0  0  0  0  0  0  0  0  0  0  0
    5.5150   -5.2630   23.6610 Cl  0  0  0  0  0  0  0  0  0  0  0  0
    6.6510   -2.5380   23.4480 C   0  0  0  0  0  0  0  0  0  0  0  0
    7.3890   -2.8970   22.1240 C   0  0  0  0  0  0  0  0  0  0  0  0
  1  2  1  0
  2  3  2  0
  2  4  1  0
  4  5  1  0
  5  6  1  0
  6  7  1  0
  7  8  1  0
  8  9  2  0
  8 10  1  0
 10 11  1  0
 11 12  1  0
 12 13  2  0
 13 14  1  0
 14 15  1  0
 14 16  2  0
 16 17  1  0
 16 18  1  0
 12 19  1  0
 18 19  2  0
 19 20  1  0
  7 21  1  0
  4 22  1  0
 21 22  1  0
M  END
