piperidine-amides-24556-covalent
     RDKit          3D

 23 25  0  0  0  0  0  0  0  0999 V2000
    7.1070   -3.2980   19.3560 C   0  0  0  0  0  0  0  0  0  0  0  0
    6.3480   -4.0890   20.3360 C   0  0  0  0  0  0  0  0  0  0  0  0
    5.3610   -4.7600   19.9610 O   0  0  0  0  0  0  0  0  0  0  0  0
    6.7420   -4.1320   21.6860 N   0  0  0  0  0  0  0  0  0  0  0  0
    7.6580   -3.1170   22.1780 C   0  0  0  0  0  0  0  0  0  0  0  0
    7.5210   -3.1030   23.7020 C   0  0  0  0  0  0  0  0  0  0  0  0
    6.1300   -3.6250   23.9490 C   0  0  0  0  0  0  0  0  0  0  0  0
    5.5920   -3.3350   25.3050 C   0  0  0  0  0  0  0  0  0  0  0  0
    4.3610   -3.4740   25.4560 O   0  0  0  0  0  0  0  0  0  0  0  0
    6.4070   -2.9200   26.3970 N   0  0  0  0  0  0  0  0  0  0  0  0
    6.2720   -3.6480   27.6360 C   0  0  0  0  0  0  0  0  0  0  0  0
    6.6520   -1.4970   26.5280 C   0  0  0  0  0  0  0  0  0  0  0  0
    5.6230   -0.9840   27.2740 C   0  0  2  0  0  0  0  0  0  0  0  0
    4.9650   -0.0280   26.7460 O   0  0  0  0  0  0  0  0  0  0  0  0
    3.9380    0.5210   27.4810 C   0  0  0  0  0  0  0  0  0  0  0  0
    4.2210    0.7980   28.8240 C   0  0  0  0  0  0  0  0  0  0  0  0
    5.3530    0.2240   29.3310 C   0  0  0  0  0  0  0  0  0  0  0  0
    5.9380    0.6000   30.9580 S   0  0  0  0  0  0  0  0  0  0  0  0
    7.2850   -0.4730   30.7470 C   0  0  0  0  0  0  0  0  0  0  0  0
    7.2230   -1.1020   29.3870 C   0  0  0  0  0  0  0  0  0  0  0  0
    6.0320   -0.6660   28.5230 C   0  0  0  0  0  0  0  0  0  0  0  0
    6.0680   -5.1120   23.6810 C   0  0  0  0  0  0  0  0  0  0  0  0
    6.6500   -5.3760   22.4240 C   0  0  0  0  0  0  0  0  0  0  0  0
  1  2  1  0
  2  3  2  0
  2  4  1  0
  4  5  1  0
  5  6  1  0
  6  7  1  0
  7  8  1  0
  8  9  2  0
  8 10  1  0
 10 11  1  0
 10 12  1  0
 13 12  1  6
 13 14  1  0
 14 15  1  0
 15 16  1  0
 16 17  1  0
 17 18  1  0
 18 19  1  0
 19 20  2  0
 13 21  1  0
 17 21  2  0
 20 21  1  0
  7 22  1  0
  4 23  1  0
 22 23  1  0
M  END
