piperidine-amides-10027-covalent
     RDKit          3D

 26 27  0  0  0  0  0  0  0  0999 V2000
    7.1130   -3.2680   19.1700 C   0  0  0  0  0  0  0  0  0  0  0  0
    6.3490   -3.9960   20.1880 C   0  0  0  0  0  0  0  0  0  0  0  0
    5.2450   -4.4800   19.8440 O   0  0  0  0  0  0  0  0  0  0  0  0
    6.8800   -4.1720   21.4590 N   0  0  0  0  0  0  0  0  0  0  0  0
    7.7060   -3.1420   22.0430 C   0  0  0  0  0  0  0  0  0  0  0  0
    6.9850   -2.6760   23.2520 C   0  0  0  0  0  0  0  0  0  0  0  0
    6.6810   -3.8610   24.1090 C   0  0  0  0  0  0  0  0  0  0  0  0
    5.9070   -3.4230   25.2700 C   0  0  0  0  0  0  0  0  0  0  0  0
    4.6690   -3.2590   25.1590 O   0  0  0  0  0  0  0  0  0  0  0  0
    6.5340   -3.1790   26.4850 N   0  0  0  0  0  0  0  0  0  0  0  0
    6.1030   -3.8320   27.6760 C   0  0  1  0  0  0  0  0  0  0  0  0
    6.9880   -5.0340   28.0180 C   0  0  0  0  0  0  0  0  0  0  0  0
    7.2620   -5.3330   29.2000 O   0  0  0  0  0  0  0  0  0  0  0  0
    7.5030   -5.8670   27.0140 O   0  0  0  0  0  0  0  0  0  0  0  0
    8.8750   -6.2120   26.9830 C   0  0  0  0  0  0  0  0  0  0  0  0
    5.9800   -2.7340   28.7240 C   0  0  0  0  0  0  0  0  0  0  0  0
    4.9470   -2.8180   29.6330 C   0  0  0  0  0  0  0  0  0  0  0  0
    4.7670   -1.8380   30.6030 C   0  0  0  0  0  0  0  0  0  0  0  0
    5.5870   -0.7200   30.7440 C   0  0  0  0  0  0  0  0  0  0  0  0
    5.3960    0.1430   31.6300 O   0  0  0  0  0  0  0  0  0  0  0  0
    5.1550   -0.1610   32.9900 C   0  0  0  0  0  0  0  0  0  0  0  0
    6.6300   -0.5900   29.8670 C   0  0  0  0  0  0  0  0  0  0  0  0
    7.4840    0.5040   29.9520 O   0  0  0  0  0  0  0  0  0  0  0  0
    6.8190   -1.6530   28.8170 C   0  0  0  0  0  0  0  0  0  0  0  0
    5.8880   -4.8910   23.3580 C   0  0  0  0  0  0  0  0  0  0  0  0
    6.5890   -5.3620   22.2660 C   0  0  0  0  0  0  0  0  0  0  0  0
  1  2  1  0
  2  3  2  0
  2  4  1  0
  4  5  1  0
  5  6  1  0
  6  7  1  0
  7  8  1  0
  8  9  2  0
  8 10  1  0
 11 10  1  6
 11 12  1  0
 12 13  2  0
 12 14  1  0
 14 15  1  0
 11 16  1  0
 16 17  2  0
 17 18  1  0
 18 19  2  0
 19 20  1  0
 20 21  1  0
 19 22  1  0
 22 23  1  0
 16 24  1  0
 22 24  2  0
  7 25  1  0
  4 26  1  0
 25 26  1  0
M  END
