piperidine-amides-14436-covalent
     RDKit          3D

 25 26  0  0  0  0  0  0  0  0999 V2000
    7.0830   -3.3430   19.3120 C   0  0  0  0  0  0  0  0  0  0  0  0
    6.4210   -4.1850   20.3060 C   0  0  0  0  0  0  0  0  0  0  0  0
    5.3790   -4.7740   19.9700 O   0  0  0  0  0  0  0  0  0  0  0  0
    6.9930   -4.3650   21.5920 N   0  0  0  0  0  0  0  0  0  0  0  0
    6.4890   -5.4310   22.3990 C   0  0  0  0  0  0  0  0  0  0  0  0
    5.6410   -4.8290   23.4850 C   0  0  0  0  0  0  0  0  0  0  0  0
    6.5100   -3.8380   24.2350 C   0  0  0  0  0  0  0  0  0  0  0  0
    5.7520   -3.2740   25.3980 C   0  0  0  0  0  0  0  0  0  0  0  0
    4.5670   -3.0140   25.1930 O   0  0  0  0  0  0  0  0  0  0  0  0
    6.4150   -3.0930   26.6020 N   0  0  0  0  0  0  0  0  0  0  0  0
    6.4520   -1.8380   27.2900 C   0  0  0  0  0  0  0  0  0  0  0  0
    7.0720   -1.5130   28.5330 C   0  0  0  0  0  0  0  0  0  0  0  0
    7.0790   -0.2860   29.1640 C   0  0  0  0  0  0  0  0  0  0  0  0
    6.4450    0.7950   28.6070 C   0  0  0  0  0  0  0  0  0  0  0  0
    6.5870    2.0120   29.4690 C   0  0  0  0  0  0  0  0  0  0  0  0
    5.4880    2.2900   30.2070 N   0  0  0  0  0  0  0  0  0  0  0  0
    5.5420    2.2490   31.5400 C   0  0  0  0  0  0  0  0  0  0  0  0
    6.2330    3.0700   32.1930 O   0  0  0  0  0  0  0  0  0  0  0  0
    4.8150    1.2840   32.0840 N   0  0  0  0  0  0  0  0  0  0  0  0
    5.3670   -0.0230   32.0020 C   0  0  0  0  0  0  0  0  0  0  0  0
    4.7600   -0.8880   30.9350 C   0  0  0  0  0  0  0  0  0  0  0  0
    5.7990    0.6440   27.4070 C   0  0  0  0  0  0  0  0  0  0  0  0
    5.7870   -0.5660   26.7730 C   0  0  0  0  0  0  0  0  0  0  0  0
    6.8420   -2.7110   23.3110 C   0  0  0  0  0  0  0  0  0  0  0  0
    7.6590   -3.2180   22.1610 C   0  0  0  0  0  0  0  0  0  0  0  0
  1  2  1  0
  2  3  2  0
  2  4  1  0
  4  5  1  0
  5  6  1  0
  6  7  1  0
  7  8  1  0
  8  9  2  0
  8 10  1  0
 10 11  1  0
 11 12  2  0
 12 13  1  0
 13 14  2  0
 14 15  1  0
 15 16  1  0
 16 17  1  0
 17 18  2  0
 17 19  1  0
 19 20  1  0
 20 21  1  0
 14 22  1  0
 11 23  1  0
 22 23  2  0
  7 24  1  0
  4 25  1  0
 24 25  1  0
M  END
