piperidine-amides-3087-covalent
     RDKit          3D

 23 25  0  0  0  0  0  0  0  0999 V2000
    7.1060   -3.3210   19.2360 C   0  0  0  0  0  0  0  0  0  0  0  0
    6.3220   -4.0460   20.2260 C   0  0  0  0  0  0  0  0  0  0  0  0
    5.2630   -4.5750   19.8950 O   0  0  0  0  0  0  0  0  0  0  0  0
    6.8170   -4.2000   21.5620 N   0  0  0  0  0  0  0  0  0  0  0  0
    7.5260   -3.1030   22.1600 C   0  0  0  0  0  0  0  0  0  0  0  0
    6.5860   -2.4060   23.0890 C   0  0  0  0  0  0  0  0  0  0  0  0
    6.0220   -3.4720   24.0110 C   0  0  0  0  0  0  0  0  0  0  0  0
    5.1080   -2.8680   25.0340 C   0  0  0  0  0  0  0  0  0  0  0  0
    4.2120   -3.5300   25.5840 O   0  0  0  0  0  0  0  0  0  0  0  0
    5.2480   -1.4900   25.4000 N   0  0  0  0  0  0  0  0  0  0  0  0
    6.4840   -1.0570   25.9880 C   0  0  0  0  0  0  0  0  0  0  0  0
    7.2320   -2.2940   25.8900 C   0  0  0  0  0  0  0  0  0  0  0  0
    8.1950   -2.5100   24.9260 C   0  0  0  0  0  0  0  0  0  0  0  0
    8.8480   -3.7250   24.8540 C   0  0  0  0  0  0  0  0  0  0  0  0
    8.5370   -4.7000   25.7450 C   0  0  0  0  0  0  0  0  0  0  0  0
    7.5350   -4.3970   26.7280 C   0  0  0  0  0  0  0  0  0  0  0  0
    6.9050   -3.2360   26.7970 C   0  0  0  0  0  0  0  0  0  0  0  0
    7.2690   -5.3740   27.5920 C   0  0  0  0  0  0  0  0  0  0  0  0
    8.4640   -5.9520   27.8970 C   0  0  0  0  0  0  0  0  0  0  0  0
    9.3560   -6.2160   26.7650 C   0  0  0  0  0  0  0  0  0  0  0  0
    9.1050   -5.7530   25.6830 O   0  0  0  0  0  0  0  0  0  0  0  0
    5.3260   -4.5830   23.2260 C   0  0  0  0  0  0  0  0  0  0  0  0
    6.2860   -5.2180   22.4300 C   0  0  0  0  0  0  0  0  0  0  0  0
  1  2  1  0
  2  3  2  0
  2  4  1  0
  4  5  1  0
  5  6  1  0
  6  7  1  0
  7  8  1  0
  8  9  2  0
  8 10  1  0
 10 11  1  0
 11 12  1  0
 12 13  2  0
 13 14  1  0
 14 15  2  0
 15 16  1  0
 12 17  1  0
 16 17  2  0
 16 18  1  0
 18 19  1  0
 19 20  1  0
 15 21  1  0
 20 21  1  0
  7 22  1  0
  4 23  1  0
 22 23  1  0
M  END
