piperidine-amides-2368-covalent
     RDKit          3D

 27 29  0  0  0  0  0  0  0  0999 V2000
    7.1150   -3.2900   19.2170 C   0  0  0  0  0  0  0  0  0  0  0  0
    6.4040   -4.0830   20.2540 C   0  0  0  0  0  0  0  0  0  0  0  0
    5.3420   -4.6030   19.9160 O   0  0  0  0  0  0  0  0  0  0  0  0
    6.9680   -4.2550   21.5250 N   0  0  0  0  0  0  0  0  0  0  0  0
    7.7490   -3.2180   22.1400 C   0  0  0  0  0  0  0  0  0  0  0  0
    6.9830   -2.6680   23.3010 C   0  0  0  0  0  0  0  0  0  0  0  0
    6.5250   -3.7830   24.2520 C   0  0  0  0  0  0  0  0  0  0  0  0
    5.5900   -3.1240   25.1820 C   0  0  0  0  0  0  0  0  0  0  0  0
    4.4050   -3.4780   25.1980 O   0  0  0  0  0  0  0  0  0  0  0  0
    6.0220   -2.0950   26.0350 N   0  0  0  0  0  0  0  0  0  0  0  0
    5.9300   -2.3490   27.4420 C   0  0  2  0  0  0  0  0  0  0  0  0
    6.6450   -3.6310   27.6400 C   0  0  0  0  0  0  0  0  0  0  0  0
    5.9840   -4.7710   27.2390 C   0  0  0  0  0  0  0  0  0  0  0  0
    6.4900   -5.9680   27.3430 C   0  0  0  0  0  0  0  0  0  0  0  0
    7.6880   -6.0090   27.8590 C   0  0  0  0  0  0  0  0  0  0  0  0
    8.5020   -4.8930   28.3270 C   0  0  0  0  0  0  0  0  0  0  0  0
    8.0010   -3.4690   28.2530 C   0  0  0  0  0  0  0  0  0  0  0  0
    4.4990   -2.6800   27.8780 C   0  0  0  0  0  0  0  0  0  0  0  0
    4.3600   -3.7560   28.9110 C   0  0  0  0  0  0  0  0  0  0  0  0
    3.0050   -4.1210   29.3720 C   0  0  0  0  0  0  0  0  0  0  0  0
    1.7940   -3.4210   28.8170 C   0  0  0  0  0  0  0  0  0  0  0  0
    0.1710   -3.8210   29.3360 Cl  0  0  0  0  0  0  0  0  0  0  0  0
    2.0040   -2.3610   27.7940 C   0  0  0  0  0  0  0  0  0  0  0  0
    0.5950   -1.5490   27.1500 Cl  0  0  0  0  0  0  0  0  0  0  0  0
    3.4120   -2.0070   27.3330 C   0  0  0  0  0  0  0  0  0  0  0  0
    5.7650   -4.8620   23.4970 C   0  0  0  0  0  0  0  0  0  0  0  0
    6.5230   -5.3670   22.2970 C   0  0  0  0  0  0  0  0  0  0  0  0
  1  2  1  0
  2  3  2  0
  2  4  1  0
  4  5  1  0
  5  6  1  0
  6  7  1  0
  7  8  1  0
  8  9  2  0
  8 10  1  0
 11 10  1  6
 11 12  1  0
 12 13  2  0
 13 14  1  0
 14 15  2  0
 15 16  1  0
 12 17  1  0
 16 17  2  0
 11 18  1  0
 18 19  2  0
 19 20  1  0
 20 21  2  0
 21 22  1  0
 21 23  1  0
 23 24  1  0
 18 25  1  0
 23 25  2  0
  7 26  1  0
  4 27  1  0
 26 27  1  0
M  END
