piperidine-amides-14115-covalent
     RDKit          3D

 25 27  0  0  0  0  0  0  0  0999 V2000
    7.0790   -3.3230   19.3210 C   0  0  0  0  0  0  0  0  0  0  0  0
    6.3660   -4.1790   20.3070 C   0  0  0  0  0  0  0  0  0  0  0  0
    5.3380   -4.7800   19.9570 O   0  0  0  0  0  0  0  0  0  0  0  0
    6.9040   -4.3310   21.5990 N   0  0  0  0  0  0  0  0  0  0  0  0
    6.6000   -5.4930   22.3930 C   0  0  0  0  0  0  0  0  0  0  0  0
    5.7740   -4.9840   23.5790 C   0  0  0  0  0  0  0  0  0  0  0  0
    6.5140   -3.8320   24.1770 C   0  0  0  0  0  0  0  0  0  0  0  0
    5.7910   -3.2280   25.3200 C   0  0  0  0  0  0  0  0  0  0  0  0
    4.5740   -3.0660   25.1770 O   0  0  0  0  0  0  0  0  0  0  0  0
    6.4810   -2.8860   26.4840 N   0  0  0  0  0  0  0  0  0  0  0  0
    6.4440   -1.6620   27.2080 C   0  0  0  0  0  0  0  0  0  0  0  0
    7.0120   -1.5500   28.4630 C   0  0  0  0  0  0  0  0  0  0  0  0
    6.9970   -0.3730   29.2120 C   0  0  0  0  0  0  0  0  0  0  0  0
    6.4000    0.7480   28.7110 C   0  0  0  0  0  0  0  0  0  0  0  0
    6.4400    1.8470   29.5280 F   0  0  0  0  0  0  0  0  0  0  0  0
    5.7620    0.7410   27.3760 C   0  0  0  0  0  0  0  0  0  0  0  0
    5.2050    2.0010   27.0540 N   0  0  0  0  0  0  0  0  0  0  0  0
    5.3930    2.5370   25.7480 C   0  0  0  0  0  0  0  0  0  0  0  0
    4.0280    3.0750   25.2850 C   0  0  0  0  0  0  0  0  0  0  0  0
    3.1610    2.8620   26.3670 O   0  0  0  0  0  0  0  0  0  0  0  0
    3.9180    2.2120   27.3230 C   0  0  0  0  0  0  0  0  0  0  0  0
    3.3780    1.7930   28.5210 O   0  0  0  0  0  0  0  0  0  0  0  0
    5.8030   -0.4460   26.6730 C   0  0  0  0  0  0  0  0  0  0  0  0
    6.8750   -2.7420   23.2210 C   0  0  0  0  0  0  0  0  0  0  0  0
    7.6530   -3.2870   22.2420 C   0  0  0  0  0  0  0  0  0  0  0  0
  1  2  1  0
  2  3  2  0
  2  4  1  0
  4  5  1  0
  5  6  1  0
  6  7  1  0
  7  8  1  0
  8  9  2  0
  8 10  1  0
 10 11  1  0
 11 12  2  0
 12 13  1  0
 13 14  2  0
 14 15  1  0
 14 16  1  0
 16 17  1  0
 17 18  1  0
 18 19  1  0
 19 20  1  0
 17 21  1  0
 20 21  1  0
 21 22  2  0
 11 23  1  0
 16 23  2  0
  7 24  1  0
  4 25  1  0
 24 25  1  0
M  END
