piperidine-amides-25333-covalent
     RDKit          3D

 25 27  0  0  0  0  0  0  0  0999 V2000
    6.9940   -3.3700   19.4280 C   0  0  0  0  0  0  0  0  0  0  0  0
    6.3630   -4.2830   20.4220 C   0  0  0  0  0  0  0  0  0  0  0  0
    5.4220   -4.9630   20.0080 O   0  0  0  0  0  0  0  0  0  0  0  0
    6.8540   -4.3750   21.7410 N   0  0  0  0  0  0  0  0  0  0  0  0
    6.6850   -5.5790   22.5380 C   0  0  0  0  0  0  0  0  0  0  0  0
    6.0590   -5.2180   23.8660 C   0  0  0  0  0  0  0  0  0  0  0  0
    5.9940   -3.7040   23.9030 C   0  0  0  0  0  0  0  0  0  0  0  0
    5.4380   -3.1030   25.1520 C   0  0  0  0  0  0  0  0  0  0  0  0
    5.0210   -1.9530   25.0680 O   0  0  0  0  0  0  0  0  0  0  0  0
    5.3030   -3.7070   26.4210 N   0  0  0  0  0  0  0  0  0  0  0  0
    6.3930   -3.5090   27.2970 C   0  0  0  0  0  0  0  0  0  0  0  0
    6.3490   -4.6560   28.3210 C   0  0  0  0  0  0  0  0  0  0  0  0
    5.3400   -4.7880   29.2160 C   0  0  0  0  0  0  0  0  0  0  0  0
    4.8830   -5.5690   30.2290 C   0  0  0  0  0  0  0  0  0  0  0  0
    3.7440   -5.4850   30.9350 C   0  0  0  0  0  0  0  0  0  0  0  0
    3.2120   -6.3330   32.0820 C   0  0  0  0  0  0  0  0  0  0  0  0
    4.2130   -7.4360   32.4230 C   0  0  0  0  0  0  0  0  0  0  0  0
    5.5120   -7.5420   31.6280 C   0  0  0  0  0  0  0  0  0  0  0  0
    6.2210   -8.5980   32.1440 O   0  0  0  0  0  0  0  0  0  0  0  0
    5.9410   -9.0740   33.4440 C   0  0  0  0  0  0  0  0  0  0  0  0
    5.8990   -6.6250   30.4950 C   0  0  0  0  0  0  0  0  0  0  0  0
    4.5580   -3.6060   28.8180 C   0  0  0  0  0  0  0  0  0  0  0  0
    4.2540   -3.5500   27.3720 C   0  0  0  0  0  0  0  0  0  0  0  0
    7.3680   -3.1240   23.6110 C   0  0  0  0  0  0  0  0  0  0  0  0
    7.7080   -3.3110   22.2840 C   0  0  0  0  0  0  0  0  0  0  0  0
  1  2  1  0
  2  3  2  0
  2  4  1  0
  4  5  1  0
  5  6  1  0
  6  7  1  0
  7  8  1  0
  8  9  2  0
  8 10  1  0
 10 11  1  0
 11 12  1  0
 12 13  2  0
 13 14  1  0
 14 15  2  0
 15 16  1  0
 16 17  2  0
 17 18  1  0
 18 19  1  0
 19 20  1  0
 14 21  1  0
 18 21  2  0
 13 22  1  0
 10 23  1  0
 22 23  1  0
  7 24  1  0
  4 25  1  0
 24 25  1  0
M  END
