piperidine-amides-14691-covalent
     RDKit          3D

 23 25  0  0  0  0  0  0  0  0999 V2000
    7.0640   -3.3500   19.2980 C   0  0  0  0  0  0  0  0  0  0  0  0
    6.4230   -4.1920   20.3050 C   0  0  0  0  0  0  0  0  0  0  0  0
    5.3910   -4.8080   19.9770 O   0  0  0  0  0  0  0  0  0  0  0  0
    7.0090   -4.3360   21.5920 N   0  0  0  0  0  0  0  0  0  0  0  0
    7.6530   -3.2000   22.1790 C   0  0  0  0  0  0  0  0  0  0  0  0
    6.7800   -2.6870   23.2800 C   0  0  0  0  0  0  0  0  0  0  0  0
    6.6560   -3.8040   24.2830 C   0  0  0  0  0  0  0  0  0  0  0  0
    5.8790   -3.3250   25.4750 C   0  0  0  0  0  0  0  0  0  0  0  0
    4.6930   -3.6490   25.4940 O   0  0  0  0  0  0  0  0  0  0  0  0
    6.4930   -2.5410   26.4570 N   0  0  0  0  0  0  0  0  0  0  0  0
    5.7340   -1.4650   27.0060 C   0  0  2  0  0  0  0  0  0  0  0  0
    5.7700   -0.2800   26.2770 C   0  0  0  0  0  0  0  0  0  0  0  0
    5.0530    0.7750   26.7540 C   0  0  0  0  0  0  0  0  0  0  0  0
    5.6500    1.6610   27.6030 C   0  0  0  0  0  0  0  0  0  0  0  0
    6.3580    0.7350   28.4990 C   0  0  0  0  0  0  0  0  0  0  0  0
    7.0020    1.4440   29.7020 C   0  0  0  0  0  0  0  0  0  0  0  0
    7.7290    0.6340   30.6640 C   0  0  0  0  0  0  0  0  0  0  0  0
    7.7580   -0.8140   30.3570 C   0  0  0  0  0  0  0  0  0  0  0  0
    7.0800   -1.4610   29.1250 C   0  0  0  0  0  0  0  0  0  0  0  0
    7.1440   -2.8170   28.9250 F   0  0  0  0  0  0  0  0  0  0  0  0
    6.3930   -0.7630   28.1940 C   0  0  0  0  0  0  0  0  0  0  0  0
    5.8690   -4.9190   23.6440 C   0  0  0  0  0  0  0  0  0  0  0  0
    6.5350   -5.4310   22.3920 C   0  0  0  0  0  0  0  0  0  0  0  0
  1  2  1  0
  2  3  2  0
  2  4  1  0
  4  5  1  0
  5  6  1  0
  6  7  1  0
  7  8  1  0
  8  9  2  0
  8 10  1  0
 11 10  1  6
 11 12  1  0
 12 13  1  0
 13 14  1  0
 14 15  1  0
 15 16  2  0
 16 17  1  0
 17 18  2  0
 18 19  1  0
 19 20  1  0
 11 21  1  0
 15 21  1  0
 19 21  2  0
  7 22  1  0
  4 23  1  0
 22 23  1  0
M  END
