piperidine-amides-8600-covalent
     RDKit          3D

 23 25  0  0  0  0  0  0  0  0999 V2000
    7.0500   -3.3370   19.3490 C   0  0  0  0  0  0  0  0  0  0  0  0
    6.3900   -4.1860   20.3390 C   0  0  0  0  0  0  0  0  0  0  0  0
    5.3840   -4.8250   19.9780 O   0  0  0  0  0  0  0  0  0  0  0  0
    6.9230   -4.2960   21.6520 N   0  0  0  0  0  0  0  0  0  0  0  0
    7.6830   -3.2000   22.1950 C   0  0  0  0  0  0  0  0  0  0  0  0
    7.5060   -3.1380   23.6820 C   0  0  0  0  0  0  0  0  0  0  0  0
    6.1070   -3.6340   23.9660 C   0  0  0  0  0  0  0  0  0  0  0  0
    5.6650   -3.2720   25.3510 C   0  0  0  0  0  0  0  0  0  0  0  0
    4.4690   -3.4110   25.5920 O   0  0  0  0  0  0  0  0  0  0  0  0
    6.6140   -2.8020   26.2500 N   0  0  0  0  0  0  0  0  0  0  0  0
    6.4400   -1.5500   26.9070 C   0  0  0  0  0  0  0  0  0  0  0  0
    5.7630   -0.3730   26.4480 C   0  0  0  0  0  0  0  0  0  0  0  0
    5.6190    0.8230   27.1280 C   0  0  0  0  0  0  0  0  0  0  0  0
    6.1510    0.9690   28.3650 C   0  0  0  0  0  0  0  0  0  0  0  0
    6.0440    2.1330   29.0960 O   0  0  0  0  0  0  0  0  0  0  0  0
    6.7290    1.7920   30.2480 C   0  0  0  0  0  0  0  0  0  0  0  0
    7.0050    2.6340   31.5150 C   0  0  0  0  0  0  0  0  0  0  0  0
    7.1850    0.4800   30.1240 C   0  0  0  0  0  0  0  0  0  0  0  0
    7.9650   -0.2520   31.1470 C   0  0  0  0  0  0  0  0  0  0  0  0
    6.8140   -0.0510   28.9170 C   0  0  0  0  0  0  0  0  0  0  0  0
    6.9970   -1.2640   28.3070 C   0  0  0  0  0  0  0  0  0  0  0  0
    6.1410   -5.1200   23.7970 C   0  0  0  0  0  0  0  0  0  0  0  0
    6.5820   -5.4850   22.4050 C   0  0  0  0  0  0  0  0  0  0  0  0
  1  2  1  0
  2  3  2  0
  2  4  1  0
  4  5  1  0
  5  6  1  0
  6  7  1  0
  7  8  1  0
  8  9  2  0
  8 10  1  0
 10 11  1  0
 11 12  2  0
 12 13  1  0
 13 14  2  0
 14 15  1  0
 15 16  1  0
 16 17  1  0
 16 18  2  0
 18 19  1  0
 14 20  1  0
 18 20  1  0
 11 21  1  0
 20 21  2  0
  7 22  1  0
  4 23  1  0
 22 23  1  0
M  END
