piperidine-amides-1324-covalent
     RDKit          3D

 22 23  0  0  0  0  0  0  0  0999 V2000
    7.0680   -3.2730   19.3020 C   0  0  0  0  0  0  0  0  0  0  0  0
    6.3180   -4.0860   20.3070 C   0  0  0  0  0  0  0  0  0  0  0  0
    5.3010   -4.6900   19.9330 O   0  0  0  0  0  0  0  0  0  0  0  0
    6.7870   -4.1930   21.6410 N   0  0  0  0  0  0  0  0  0  0  0  0
    6.6830   -5.4330   22.3830 C   0  0  0  0  0  0  0  0  0  0  0  0
    6.1130   -5.1280   23.7800 C   0  0  0  0  0  0  0  0  0  0  0  0
    6.1100   -3.6480   23.9650 C   0  0  0  0  0  0  0  0  0  0  0  0
    5.6030   -3.1990   25.2910 C   0  0  0  0  0  0  0  0  0  0  0  0
    4.4040   -2.9120   25.3210 O   0  0  0  0  0  0  0  0  0  0  0  0
    6.4260   -3.1160   26.4290 N   0  0  0  0  0  0  0  0  0  0  0  0
    6.1380   -3.6430   27.7260 C   0  0  0  0  0  0  0  0  0  0  0  0
    5.6110   -2.9210   28.7720 C   0  0  0  0  0  0  0  0  0  0  0  0
    4.4110   -3.3590   29.3640 C   0  0  0  0  0  0  0  0  0  0  0  0
    3.8080   -2.7090   30.4130 C   0  0  0  0  0  0  0  0  0  0  0  0
    4.3860   -1.4830   31.0060 C   0  0  0  0  0  0  0  0  0  0  0  0
    3.7300   -0.9310   32.0210 O   0  0  0  0  0  0  0  0  0  0  0  0
    4.1010   -0.6580   33.2930 C   0  0  0  0  0  0  0  0  0  0  0  0
    5.5820   -1.0850   30.3830 N   0  0  0  0  0  0  0  0  0  0  0  0
    6.1590   -1.7970   29.3010 C   0  0  0  0  0  0  0  0  0  0  0  0
    7.3310   -1.2270   28.8500 C   0  0  0  0  0  0  0  0  0  0  0  0
    7.4060   -3.0000   23.6480 C   0  0  0  0  0  0  0  0  0  0  0  0
    7.6630   -3.1480   22.1630 C   0  0  0  0  0  0  0  0  0  0  0  0
  1  2  1  0
  2  3  2  0
  2  4  1  0
  4  5  1  0
  5  6  1  0
  6  7  1  0
  7  8  1  0
  8  9  2  0
  8 10  1  0
 10 11  1  0
 11 12  1  0
 12 13  2  0
 13 14  1  0
 14 15  2  0
 15 16  1  0
 16 17  1  0
 15 18  1  0
 12 19  1  0
 18 19  2  0
 19 20  1  0
  7 21  1  0
  4 22  1  0
 21 22  1  0
M  END
