piperidine-amides-3553-covalent
     RDKit          3D

 20 20  0  0  0  0  0  0  0  0999 V2000
    7.1990   -3.3080   19.2340 C   0  0  0  0  0  0  0  0  0  0  0  0
    6.3980   -4.0550   20.1860 C   0  0  0  0  0  0  0  0  0  0  0  0
    5.2950   -4.4990   19.8720 O   0  0  0  0  0  0  0  0  0  0  0  0
    6.9490   -4.3320   21.4740 N   0  0  0  0  0  0  0  0  0  0  0  0
    7.6630   -3.2730   22.1080 C   0  0  0  0  0  0  0  0  0  0  0  0
    6.7950   -2.7430   23.1980 C   0  0  0  0  0  0  0  0  0  0  0  0
    6.3510   -3.9080   24.0770 C   0  0  0  0  0  0  0  0  0  0  0  0
    5.6520   -3.3220   25.2310 C   0  0  0  0  0  0  0  0  0  0  0  0
    4.4630   -2.9540   25.1910 O   0  0  0  0  0  0  0  0  0  0  0  0
    6.3710   -3.1860   26.4190 N   0  0  0  0  0  0  0  0  0  0  0  0
    6.0780   -4.1140   27.4680 C   0  0  0  0  0  0  0  0  0  0  0  0
    6.5990   -3.4790   28.7070 C   0  0  0  0  0  0  0  0  0  0  0  0
    6.9280   -2.1700   28.7950 N   0  0  0  0  0  0  0  0  0  0  0  0
    6.0690   -1.5030   29.5930 C   0  0  0  0  0  0  0  0  0  0  0  0
    4.9760   -1.9050   30.0500 O   0  0  0  0  0  0  0  0  0  0  0  0
    6.6180   -0.2980   29.8070 N   0  0  0  0  0  0  0  0  0  0  0  0
    7.3360    0.1030   30.9920 C   0  0  0  0  0  0  0  0  0  0  0  0
    6.6330    0.2270   32.1740 C   0  0  0  0  0  0  0  0  0  0  0  0
    5.5820   -4.8540   23.2460 C   0  0  0  0  0  0  0  0  0  0  0  0
    6.3560   -5.3440   22.2310 C   0  0  0  0  0  0  0  0  0  0  0  0
  1  2  1  0
  2  3  2  0
  2  4  1  0
  4  5  1  0
  5  6  1  0
  6  7  1  0
  7  8  1  0
  8  9  2  0
  8 10  1  0
 10 11  1  0
 11 12  1  0
 12 13  1  0
 13 14  1  0
 14 15  2  0
 14 16  1  0
 16 17  1  0
 17 18  1  0
  7 19  1  0
  4 20  1  0
 19 20  1  0
M  END
