piperidine-amides-16198-covalent
     RDKit          3D

 19 20  0  0  0  0  0  0  0  0999 V2000
    7.1100   -3.3120   19.2520 C   0  0  0  0  0  0  0  0  0  0  0  0
    6.4050   -4.1430   20.2590 C   0  0  0  0  0  0  0  0  0  0  0  0
    5.3450   -4.6730   19.9270 O   0  0  0  0  0  0  0  0  0  0  0  0
    6.9880   -4.3400   21.5070 N   0  0  0  0  0  0  0  0  0  0  0  0
    6.6750   -5.4820   22.3160 C   0  0  0  0  0  0  0  0  0  0  0  0
    5.9390   -5.0280   23.5470 C   0  0  0  0  0  0  0  0  0  0  0  0
    6.7090   -3.8900   24.2240 C   0  0  0  0  0  0  0  0  0  0  0  0
    5.9230   -3.4880   25.3900 C   0  0  0  0  0  0  0  0  0  0  0  0
    4.8970   -2.8070   25.2570 O   0  0  0  0  0  0  0  0  0  0  0  0
    6.3480   -3.9030   26.6430 N   0  0  0  0  0  0  0  0  0  0  0  0
    7.0850   -5.1360   26.6290 C   0  0  0  0  0  0  0  0  0  0  0  0
    7.0960   -5.4720   28.0660 C   0  0  0  0  0  0  0  0  0  0  0  0
    6.1990   -4.7860   28.8090 C   0  0  2  0  0  0  0  0  0  0  0  0
    5.1170   -5.5040   29.1870 C   0  0  0  0  0  0  0  0  0  0  0  0
    5.7460   -3.6220   27.9020 C   0  0  1  0  0  0  0  0  0  0  0  0
    6.1060   -2.2850   28.5240 C   0  0  0  0  0  0  0  0  0  0  0  0
    5.0590   -1.4120   28.7020 O   0  0  0  0  0  0  0  0  0  0  0  0
    6.9760   -2.7590   23.3040 C   0  0  0  0  0  0  0  0  0  0  0  0
    7.7160   -3.2440   22.1110 C   0  0  0  0  0  0  0  0  0  0  0  0
  1  2  1  0
  2  3  2  0
  2  4  1  0
  4  5  1  0
  5  6  1  0
  6  7  1  0
  7  8  1  0
  8  9  2  0
  8 10  1  0
 10 11  1  0
 11 12  1  0
 12 13  1  0
 13 14  1  6
 10 15  1  0
 13 15  1  0
 15 16  1  1
 16 17  1  0
  7 18  1  0
  4 19  1  0
 18 19  1  0
M  END
