piperidine-amides-35135-covalent
     RDKit          3D

 28 31  0  0  0  0  0  0  0  0999 V2000
    7.0870   -3.3040   19.3150 C   0  0  0  0  0  0  0  0  0  0  0  0
    6.3220   -4.1020   20.3040 C   0  0  0  0  0  0  0  0  0  0  0  0
    5.2870   -4.6310   19.9090 O   0  0  0  0  0  0  0  0  0  0  0  0
    6.8010   -4.2700   21.6030 N   0  0  0  0  0  0  0  0  0  0  0  0
    6.3200   -5.3400   22.4250 C   0  0  0  0  0  0  0  0  0  0  0  0
    5.4380   -4.7720   23.5140 C   0  0  0  0  0  0  0  0  0  0  0  0
    6.0930   -3.5410   24.1880 C   0  0  0  0  0  0  0  0  0  0  0  0
    5.0910   -2.8340   25.0780 C   0  0  0  0  0  0  0  0  0  0  0  0
    4.0570   -2.3720   24.6070 O   0  0  0  0  0  0  0  0  0  0  0  0
    5.3480   -2.7480   26.4700 N   0  0  0  0  0  0  0  0  0  0  0  0
    4.2870   -3.1880   27.3390 C   0  0  0  0  0  0  0  0  0  0  0  0
    4.9970   -3.3910   28.6210 C   0  0  2  0  0  0  0  0  0  0  0  0
    4.5630   -2.9380   29.8060 C   0  0  0  0  0  0  0  0  0  0  0  0
    5.1770   -1.7550   30.0080 C   0  0  2  0  0  0  0  0  0  0  0  0
    4.3190   -0.7380   29.6460 O   0  0  0  0  0  0  0  0  0  0  0  0
    4.6260    0.4440   30.2790 C   0  0  0  0  0  0  0  0  0  0  0  0
    6.3160   -1.7430   29.1480 C   0  0  0  0  0  0  0  0  0  0  0  0
    6.1930   -2.6880   28.2010 N   0  0  0  0  0  0  0  0  0  0  0  0
    7.1770   -3.5360   28.1290 C   0  0  0  0  0  0  0  0  0  0  0  0
    8.2370   -4.5440   27.8370 C   0  0  0  0  0  0  0  0  0  0  0  0
    8.3880   -5.2330   26.5490 C   0  0  0  0  0  0  0  0  0  0  0  0
    9.7050   -6.3740   26.4220 Br  0  0  0  0  0  0  0  0  0  0  0  0
    7.6090   -5.0880   25.4130 C   0  0  0  0  0  0  0  0  0  0  0  0
    7.8330   -5.7720   24.2700 F   0  0  0  0  0  0  0  0  0  0  0  0
    6.6240   -4.1680   25.6570 C   0  0  0  0  0  0  0  0  0  0  0  0
    6.4410   -3.4690   26.8960 C   0  0  0  0  0  0  0  0  0  0  0  0
    6.6570   -2.5730   23.1490 C   0  0  0  0  0  0  0  0  0  0  0  0
    7.5270   -3.2080   22.2860 C   0  0  0  0  0  0  0  0  0  0  0  0
  1  2  1  0
  2  3  2  0
  2  4  1  0
  4  5  1  0
  5  6  1  0
  6  7  1  0
  7  8  1  0
  8  9  2  0
  8 10  1  0
 10 11  1  0
 12 11  1  6
 12 13  1  0
 13 14  1  0
 14 15  1  6
 15 16  1  0
 14 17  1  0
 12 18  1  0
 17 18  1  0
 18 19  1  0
 19 20  2  0
 20 21  1  0
 21 22  1  0
 21 23  2  0
 23 24  1  0
 23 25  1  0
 10 26  1  0
 19 26  1  0
 25 26  2  0
  7 27  1  0
  4 28  1  0
 27 28  1  0
M  END
