piperidine-amides-27010-covalent
     RDKit          3D

 25 27  0  0  0  0  0  0  0  0999 V2000
    7.0890   -3.3920   19.3950 C   0  0  0  0  0  0  0  0  0  0  0  0
    6.4110   -4.2350   20.3750 C   0  0  0  0  0  0  0  0  0  0  0  0
    5.3650   -4.8190   19.9810 O   0  0  0  0  0  0  0  0  0  0  0  0
    6.9620   -4.4120   21.6540 N   0  0  0  0  0  0  0  0  0  0  0  0
    6.7030   -5.6090   22.4390 C   0  0  0  0  0  0  0  0  0  0  0  0
    6.1300   -5.2130   23.7810 C   0  0  0  0  0  0  0  0  0  0  0  0
    5.9960   -3.7200   23.8720 C   0  0  0  0  0  0  0  0  0  0  0  0
    5.3430   -3.2410   25.1080 C   0  0  0  0  0  0  0  0  0  0  0  0
    4.6540   -2.2130   24.9990 O   0  0  0  0  0  0  0  0  0  0  0  0
    5.3930   -3.8080   26.3840 N   0  0  0  0  0  0  0  0  0  0  0  0
    6.4010   -3.3410   27.2740 C   0  0  0  0  0  0  0  0  0  0  0  0
    6.6710   -4.4310   28.2900 C   0  0  0  0  0  0  0  0  0  0  0  0
    5.6740   -4.6990   29.0600 C   0  0  0  0  0  0  0  0  0  0  0  0
    4.5350   -4.8350   28.3770 C   0  0  1  0  0  0  0  0  0  0  0  0
    3.4510   -5.0490   29.1510 N   0  0  0  0  0  0  0  0  0  0  0  0
    3.1760   -6.2960   29.5230 C   0  0  0  0  0  0  0  0  0  0  0  0
    2.3230   -6.3230   30.6080 C   0  0  0  0  0  0  0  0  0  0  0  0
    1.1710   -5.5860   30.5370 C   0  0  0  0  0  0  0  0  0  0  0  0
    0.1780   -5.8590   31.6400 C   0  0  0  0  0  0  0  0  0  0  0  0
   -1.0140   -5.1810   31.6210 O   0  0  0  0  0  0  0  0  0  0  0  0
    1.4430   -4.2620   30.3330 C   0  0  0  0  0  0  0  0  0  0  0  0
    2.7620   -3.8820   29.6760 C   0  0  0  0  0  0  0  0  0  0  0  0
    4.4520   -3.7620   27.5070 C   0  0  0  0  0  0  0  0  0  0  0  0
    7.2800   -3.0350   23.6300 C   0  0  0  0  0  0  0  0  0  0  0  0
    7.7420   -3.3390   22.2360 C   0  0  0  0  0  0  0  0  0  0  0  0
  1  2  1  0
  2  3  2  0
  2  4  1  0
  4  5  1  0
  5  6  1  0
  6  7  1  0
  7  8  1  0
  8  9  2  0
  8 10  1  0
 10 11  1  0
 11 12  1  0
 12 13  1  0
 13 14  1  0
 14 15  1  1
 15 16  1  0
 16 17  1  0
 17 18  1  0
 18 19  1  0
 19 20  1  0
 18 21  1  0
 15 22  1  0
 21 22  1  0
 10 23  1  0
 14 23  1  0
  7 24  1  0
  4 25  1  0
 24 25  1  0
M  END
