piperidine-amides-33579-covalent
     RDKit          3D

 29 32  0  0  0  0  0  0  0  0999 V2000
    7.1300   -3.3720   19.3730 C   0  0  0  0  0  0  0  0  0  0  0  0
    6.4370   -4.1850   20.3760 C   0  0  0  0  0  0  0  0  0  0  0  0
    5.4080   -4.8040   19.9860 O   0  0  0  0  0  0  0  0  0  0  0  0
    6.9570   -4.2960   21.6950 N   0  0  0  0  0  0  0  0  0  0  0  0
    6.5690   -5.3920   22.5170 C   0  0  0  0  0  0  0  0  0  0  0  0
    6.0500   -4.9620   23.8120 C   0  0  0  0  0  0  0  0  0  0  0  0
    6.0990   -3.4940   23.9640 C   0  0  0  0  0  0  0  0  0  0  0  0
    5.5140   -2.9470   25.2420 C   0  0  0  0  0  0  0  0  0  0  0  0
    4.3820   -2.4360   25.1690 O   0  0  0  0  0  0  0  0  0  0  0  0
    6.1220   -2.9870   26.5170 N   0  0  0  0  0  0  0  0  0  0  0  0
    5.8120   -4.0750   27.3690 C   0  0  0  0  0  0  0  0  0  0  0  0
    4.8540   -4.9480   27.0650 N   0  0  0  0  0  0  0  0  0  0  0  0
    4.5680   -5.9650   27.8460 C   0  0  0  0  0  0  0  0  0  0  0  0
    3.4570   -6.9650   27.4810 C   0  0  0  0  0  0  0  0  0  0  0  0
    2.4660   -7.4800   28.2760 C   0  0  0  0  0  0  0  0  0  0  0  0
    1.4790   -8.4890   27.5610 C   0  0  0  0  0  0  0  0  0  0  0  0
    1.6760   -8.8310   26.0620 C   0  0  0  0  0  0  0  0  0  0  0  0
    2.8620   -8.1180   25.4030 C   0  0  0  0  0  0  0  0  0  0  0  0
    3.7600   -7.1900   26.0830 C   0  0  0  0  0  0  0  0  0  0  0  0
    5.3930   -6.0760   29.1090 C   0  0  0  0  0  0  0  0  0  0  0  0
    6.4200   -4.6610   28.8940 S   0  0  0  0  0  0  0  0  0  0  0  0
    6.5000   -1.6440   27.0050 C   0  0  0  0  0  0  0  0  0  0  0  0
    7.0610   -1.5470   28.3820 C   0  0  0  0  0  0  0  0  0  0  0  0
    6.4940   -0.6570   29.2870 C   0  0  0  0  0  0  0  0  0  0  0  0
    6.3040    0.5940   28.7350 C   0  0  0  0  0  0  0  0  0  0  0  0
    5.8910    0.5830   27.2790 C   0  0  0  0  0  0  0  0  0  0  0  0
    5.5510   -0.6770   26.7840 C   0  0  0  0  0  0  0  0  0  0  0  0
    7.5150   -3.0650   23.7080 C   0  0  0  0  0  0  0  0  0  0  0  0
    7.7790   -3.2100   22.2190 C   0  0  0  0  0  0  0  0  0  0  0  0
  1  2  1  0
  2  3  2  0
  2  4  1  0
  4  5  1  0
  5  6  1  0
  6  7  1  0
  7  8  1  0
  8  9  2  0
  8 10  1  0
 10 11  1  0
 11 12  2  0
 12 13  1  0
 13 14  1  0
 14 15  2  0
 15 16  1  0
 16 17  2  0
 17 18  1  0
 14 19  1  0
 18 19  2  0
 13 20  2  0
 11 21  1  0
 20 21  1  0
 10 22  1  0
 22 23  1  0
 23 24  1  0
 24 25  1  0
 25 26  1  0
 22 27  1  0
 26 27  1  0
  7 28  1  0
  4 29  1  0
 28 29  1  0
M  END
