piperidine-amides-32374-covalent
     RDKit          3D

 29 33  0  0  0  0  0  0  0  0999 V2000
    7.1900   -3.9630   19.6430 C   0  0  0  0  0  0  0  0  0  0  0  0
    5.9100   -3.9030   20.2580 C   0  0  0  0  0  0  0  0  0  0  0  0
    4.9300   -3.9580   19.5290 O   0  0  0  0  0  0  0  0  0  0  0  0
    5.9200   -3.8970   21.6300 N   0  0  0  0  0  0  0  0  0  0  0  0
    6.0220   -5.1840   22.2750 C   0  0  0  0  0  0  0  0  0  0  0  0
    5.7660   -4.9540   23.7370 C   0  0  0  0  0  0  0  0  0  0  0  0
    6.7980   -4.0020   24.2480 C   0  0  0  0  0  0  0  0  0  0  0  0
    6.1920   -3.2390   25.3200 C   0  0  0  0  0  0  0  0  0  0  0  0
    5.4480   -2.2860   25.0570 O   0  0  0  0  0  0  0  0  0  0  0  0
    6.4820   -3.7070   26.5580 N   0  0  0  0  0  0  0  0  0  0  0  0
    6.2740   -3.0370   27.7560 C   0  0  0  0  0  0  0  0  0  0  0  0
    6.1230   -3.8820   28.7830 C   0  0  2  0  0  0  0  0  0  0  0  0
    7.1950   -4.7990   28.8050 C   0  0  0  0  0  0  0  0  0  0  0  0
    7.3140   -5.4580   27.6420 C   0  0  0  0  0  0  0  0  0  0  0  0
    6.2420   -5.0990   26.7120 C   0  0  1  0  0  0  0  0  0  0  0  0
    4.8290   -5.1790   27.3100 C   0  0  1  0  0  0  0  0  0  0  0  0
    4.4880   -6.6410   27.6090 C   0  0  0  0  0  0  0  0  0  0  0  0
    4.1300   -6.7080   28.8840 N   0  0  0  0  0  0  0  0  0  0  0  0
    4.9330   -7.5450   29.5540 C   0  0  0  0  0  0  0  0  0  0  0  0
    4.2380   -7.7340   30.8510 C   0  0  0  0  0  0  0  0  0  0  0  0
    5.3610   -7.5690   31.8700 C   0  0  0  0  0  0  0  0  0  0  0  0
    5.4390   -7.6210   33.2830 C   0  0  0  0  0  0  0  0  0  0  0  0
    3.9080   -7.9250   33.5700 C   0  0  0  0  0  0  0  0  0  0  0  0
    2.7520   -8.0980   32.6150 C   0  0  0  0  0  0  0  0  0  0  0  0
    2.9600   -7.9880   31.1550 C   0  0  0  0  0  0  0  0  0  0  0  0
    4.4250   -5.5540   29.4570 C   0  0  0  0  0  0  0  0  0  0  0  0
    4.8790   -4.4950   28.6860 C   0  0  1  0  0  0  0  0  0  0  0  0
    7.5810   -3.2180   23.2510 C   0  0  0  0  0  0  0  0  0  0  0  0
    6.6940   -2.8250   22.1350 C   0  0  0  0  0  0  0  0  0  0  0  0
  1  2  1  0
  2  3  2  0
  2  4  1  0
  4  5  1  0
  5  6  1  0
  6  7  1  0
  7  8  1  0
  8  9  2  0
  8 10  1  0
 10 11  1  0
 12 11  1  6
 12 13  1  0
 13 14  1  0
 10 15  1  0
 15 14  1  1
 15 16  1  0
 16 17  1  1
 17 18  1  0
 18 19  1  0
 19 20  1  0
 20 21  2  0
 21 22  1  0
 22 23  2  0
 23 24  1  0
 20 25  1  0
 24 25  2  0
 18 26  1  0
 12 27  1  0
 16 27  1  0
 27 26  1  1
  7 28  1  0
  4 29  1  0
 28 29  1  0
M  END
