piperidine-amides-1450-covalent
     RDKit          3D

 21 22  0  0  0  0  0  0  0  0999 V2000
    7.0880   -3.2720   19.2390 C   0  0  0  0  0  0  0  0  0  0  0  0
    6.3380   -4.0550   20.2650 C   0  0  0  0  0  0  0  0  0  0  0  0
    5.3060   -4.6570   19.9230 O   0  0  0  0  0  0  0  0  0  0  0  0
    6.8440   -4.1260   21.5840 N   0  0  0  0  0  0  0  0  0  0  0  0
    7.7310   -3.1010   22.1060 C   0  0  0  0  0  0  0  0  0  0  0  0
    7.5390   -3.0390   23.6180 C   0  0  0  0  0  0  0  0  0  0  0  0
    6.1860   -3.5900   23.8730 C   0  0  0  0  0  0  0  0  0  0  0  0
    5.6960   -3.3110   25.2370 C   0  0  0  0  0  0  0  0  0  0  0  0
    4.5140   -3.5970   25.4660 O   0  0  0  0  0  0  0  0  0  0  0  0
    6.5480   -2.7410   26.1870 N   0  0  0  0  0  0  0  0  0  0  0  0
    6.1770   -2.2830   27.4710 C   0  0  0  0  0  0  0  0  0  0  0  0
    5.8160   -0.9910   27.7540 C   0  0  0  0  0  0  0  0  0  0  0  0
    5.5710   -0.2520   26.5740 C   0  0  0  0  0  0  0  0  0  0  0  0
    4.3700   -0.4990   25.9370 C   0  0  0  0  0  0  0  0  0  0  0  0
    5.4550    1.1730   26.9840 C   0  0  0  0  0  0  0  0  0  0  0  0
    4.6580   -0.8900   28.5690 C   0  0  0  0  0  0  0  0  0  0  0  0
    5.0740   -0.8860   30.0100 C   0  0  0  0  0  0  0  0  0  0  0  0
    6.3800   -0.6280   29.9770 C   0  0  0  0  0  0  0  0  0  0  0  0
    6.7990   -0.4080   28.5720 C   0  0  0  0  0  0  0  0  0  0  0  0
    6.0520   -5.0510   23.5810 C   0  0  0  0  0  0  0  0  0  0  0  0
    6.6530   -5.3180   22.3750 C   0  0  0  0  0  0  0  0  0  0  0  0
  1  2  1  0
  2  3  2  0
  2  4  1  0
  4  5  1  0
  5  6  1  0
  6  7  1  0
  7  8  1  0
  8  9  2  0
  8 10  1  0
 10 11  1  0
 12 11  1  0
 12 13  1  0
 13 14  1  0
 13 15  1  0
 12 16  1  0
 16 17  1  0
 17 18  1  0
 12 19  1  0
 18 19  1  0
  7 20  1  0
  4 21  1  0
 20 21  1  0
M  END
