piperidine-amides-8500-covalent
     RDKit          3D

 24 26  0  0  0  0  0  0  0  0999 V2000
    7.1140   -3.3650   19.3440 C   0  0  0  0  0  0  0  0  0  0  0  0
    6.4080   -4.1880   20.3150 C   0  0  0  0  0  0  0  0  0  0  0  0
    5.3550   -4.7460   19.9610 O   0  0  0  0  0  0  0  0  0  0  0  0
    6.9750   -4.3800   21.5990 N   0  0  0  0  0  0  0  0  0  0  0  0
    7.6550   -3.2770   22.2020 C   0  0  0  0  0  0  0  0  0  0  0  0
    6.7810   -2.7200   23.2770 C   0  0  0  0  0  0  0  0  0  0  0  0
    6.5910   -3.8340   24.2810 C   0  0  0  0  0  0  0  0  0  0  0  0
    5.8270   -3.3140   25.4570 C   0  0  0  0  0  0  0  0  0  0  0  0
    4.6060   -3.2320   25.3210 O   0  0  0  0  0  0  0  0  0  0  0  0
    6.5280   -2.9560   26.6020 N   0  0  0  0  0  0  0  0  0  0  0  0
    6.4400   -1.6550   27.1640 C   0  0  0  0  0  0  0  0  0  0  0  0
    5.9950   -0.4370   26.5930 C   0  0  0  0  0  0  0  0  0  0  0  0
    5.9430    0.7780   27.2290 C   0  0  0  0  0  0  0  0  0  0  0  0
    6.3340    0.9200   28.5320 C   0  0  0  0  0  0  0  0  0  0  0  0
    6.1620    2.3520   28.9420 C   0  0  0  0  0  0  0  0  0  0  0  0
    6.7880   -0.1330   29.2410 C   0  0  0  0  0  0  0  0  0  0  0  0
    7.1980    0.0400   30.6600 C   0  0  0  0  0  0  0  0  0  0  0  0
    8.5750    0.3070   31.0350 N   0  0  0  0  0  0  0  0  0  0  0  0
    8.3890    0.3990   32.4300 C   0  0  0  0  0  0  0  0  0  0  0  0
    6.9220    0.1710   32.7020 C   0  0  0  0  0  0  0  0  0  0  0  0
    6.3070   -0.0330   31.6080 O   0  0  0  0  0  0  0  0  0  0  0  0
    6.8510   -1.3730   28.6080 C   0  0  0  0  0  0  0  0  0  0  0  0
    5.7960   -4.9310   23.6280 C   0  0  0  0  0  0  0  0  0  0  0  0
    6.4420   -5.4630   22.3790 C   0  0  0  0  0  0  0  0  0  0  0  0
  1  2  1  0
  2  3  2  0
  2  4  1  0
  4  5  1  0
  5  6  1  0
  6  7  1  0
  7  8  1  0
  8  9  2  0
  8 10  1  0
 10 11  1  0
 11 12  2  0
 12 13  1  0
 13 14  2  0
 14 15  1  0
 14 16  1  0
 16 17  1  0
 17 18  2  0
 18 19  1  0
 19 20  2  0
 17 21  1  0
 20 21  1  0
 11 22  1  0
 16 22  2  0
  7 23  1  0
  4 24  1  0
 23 24  1  0
M  END
