piperidine-amides-1411-covalent
     RDKit          3D

 22 23  0  0  0  0  0  0  0  0999 V2000
    7.0990   -3.2670   19.2310 C   0  0  0  0  0  0  0  0  0  0  0  0
    6.3390   -4.0500   20.2460 C   0  0  0  0  0  0  0  0  0  0  0  0
    5.2870   -4.6160   19.9060 O   0  0  0  0  0  0  0  0  0  0  0  0
    6.8560   -4.1720   21.5540 N   0  0  0  0  0  0  0  0  0  0  0  0
    7.6950   -3.1520   22.1380 C   0  0  0  0  0  0  0  0  0  0  0  0
    6.9410   -2.6000   23.3460 C   0  0  0  0  0  0  0  0  0  0  0  0
    6.5360   -3.7680   24.1690 C   0  0  0  0  0  0  0  0  0  0  0  0
    5.7680   -3.3550   25.3730 C   0  0  0  0  0  0  0  0  0  0  0  0
    4.5690   -3.1160   25.1920 O   0  0  0  0  0  0  0  0  0  0  0  0
    6.3860   -3.2410   26.6240 N   0  0  0  0  0  0  0  0  0  0  0  0
    6.1610   -4.0520   27.7760 C   0  0  0  0  0  0  0  0  0  0  0  0
    6.2250   -5.4300   27.7790 C   0  0  0  0  0  0  0  0  0  0  0  0
    5.4790   -6.2300   28.6480 C   0  0  0  0  0  0  0  0  0  0  0  0
    4.3410   -6.8460   28.1960 C   0  0  0  0  0  0  0  0  0  0  0  0
    3.3030   -7.3470   29.1300 C   0  0  0  0  0  0  0  0  0  0  0  0
    2.0270   -8.0340   28.6520 C   0  0  0  0  0  0  0  0  0  0  0  0
    1.9050   -8.1660   27.1340 C   0  0  0  0  0  0  0  0  0  0  0  0
    2.9010   -7.6830   26.3080 C   0  0  0  0  0  0  0  0  0  0  0  0
    2.7550   -7.8190   24.9520 F   0  0  0  0  0  0  0  0  0  0  0  0
    4.1220   -7.0220   26.8400 C   0  0  0  0  0  0  0  0  0  0  0  0
    5.7540   -4.8200   23.4350 C   0  0  0  0  0  0  0  0  0  0  0  0
    6.5080   -5.2810   22.3830 C   0  0  0  0  0  0  0  0  0  0  0  0
  1  2  1  0
  2  3  2  0
  2  4  1  0
  4  5  1  0
  5  6  1  0
  6  7  1  0
  7  8  1  0
  8  9  2  0
  8 10  1  0
 10 11  1  0
 11 12  1  0
 12 13  3  0
 13 14  1  0
 14 15  2  0
 15 16  1  0
 16 17  2  0
 17 18  1  0
 18 19  1  0
 14 20  1  0
 18 20  2  0
  7 21  1  0
  4 22  1  0
 21 22  1  0
M  END
