piperidine-amides-14369-covalent
     RDKit          3D

 22 23  0  0  0  0  0  0  0  0999 V2000
    7.0970   -3.3120   19.2900 C   0  0  0  0  0  0  0  0  0  0  0  0
    6.3700   -4.0870   20.2920 C   0  0  0  0  0  0  0  0  0  0  0  0
    5.3300   -4.6690   19.9350 O   0  0  0  0  0  0  0  0  0  0  0  0
    6.8800   -4.1980   21.6150 N   0  0  0  0  0  0  0  0  0  0  0  0
    7.6850   -3.1250   22.1530 C   0  0  0  0  0  0  0  0  0  0  0  0
    7.4170   -2.9130   23.6190 C   0  0  0  0  0  0  0  0  0  0  0  0
    6.0570   -3.5050   23.8750 C   0  0  0  0  0  0  0  0  0  0  0  0
    5.5880   -3.2350   25.2730 C   0  0  0  0  0  0  0  0  0  0  0  0
    4.3720   -3.1270   25.4130 O   0  0  0  0  0  0  0  0  0  0  0  0
    6.5180   -3.1160   26.2960 N   0  0  0  0  0  0  0  0  0  0  0  0
    6.2310   -3.5640   27.6210 C   0  0  0  0  0  0  0  0  0  0  0  0
    5.9980   -4.9450   27.7580 C   0  0  0  0  0  0  0  0  0  0  0  0
    4.8320   -5.3540   28.3460 C   0  0  0  0  0  0  0  0  0  0  0  0
    4.6770   -6.7610   28.4650 N   0  0  0  0  0  0  0  0  0  0  0  0
    3.3110   -7.1400   28.4550 C   0  0  0  0  0  0  0  0  0  0  0  0
    2.4160   -6.8690   27.4300 O   0  0  0  0  0  0  0  0  0  0  0  0
    2.9070   -7.8820   29.6770 C   0  0  0  0  0  0  0  0  0  0  0  0
    4.1230   -8.0440   30.1760 N   0  0  0  0  0  0  0  0  0  0  0  0
    5.1080   -7.3370   29.5980 C   0  0  0  0  0  0  0  0  0  0  0  0
    6.3540   -7.1260   29.9310 O   0  0  0  0  0  0  0  0  0  0  0  0
    5.9980   -4.9710   23.6610 C   0  0  0  0  0  0  0  0  0  0  0  0
    6.5380   -5.3860   22.3270 C   0  0  0  0  0  0  0  0  0  0  0  0
  1  2  1  0
  2  3  2  0
  2  4  1  0
  4  5  1  0
  5  6  1  0
  6  7  1  0
  7  8  1  0
  8  9  2  0
  8 10  1  0
 10 11  1  0
 11 12  1  0
 12 13  1  0
 13 14  1  0
 14 15  1  0
 15 16  2  0
 15 17  1  0
 17 18  1  0
 14 19  1  0
 18 19  1  0
 19 20  2  0
  7 21  1  0
  4 22  1  0
 21 22  1  0
M  END
