piperidine-amides-29818-covalent
     RDKit          3D

 26 28  0  0  0  0  0  0  0  0999 V2000
    6.9900   -3.4020   19.4440 C   0  0  0  0  0  0  0  0  0  0  0  0
    6.3180   -4.2570   20.4210 C   0  0  0  0  0  0  0  0  0  0  0  0
    5.4050   -4.9810   20.0170 O   0  0  0  0  0  0  0  0  0  0  0  0
    6.7220   -4.2960   21.8180 N   0  0  0  0  0  0  0  0  0  0  0  0
    6.4820   -5.4970   22.5870 C   0  0  0  0  0  0  0  0  0  0  0  0
    5.8240   -5.1620   23.9100 C   0  0  0  0  0  0  0  0  0  0  0  0
    5.8660   -3.6490   24.0490 C   0  0  0  0  0  0  0  0  0  0  0  0
    5.1560   -3.0960   25.2950 C   0  0  0  0  0  0  0  0  0  0  0  0
    4.5830   -2.0050   25.2370 O   0  0  0  0  0  0  0  0  0  0  0  0
    5.0900   -3.7680   26.5630 N   0  0  0  0  0  0  0  0  0  0  0  0
    4.7540   -2.9950   27.7520 C   0  0  0  0  0  0  0  0  0  0  0  0
    5.3910   -3.6120   29.0130 C   0  0  0  0  0  0  0  0  0  0  0  0
    5.8720   -4.9050   29.0130 C   0  0  0  0  0  0  0  0  0  0  0  0
    5.1100   -5.7420   29.8930 N   0  0  0  0  0  0  0  0  0  0  0  0
    3.6830   -5.8000   29.9430 C   0  0  0  0  0  0  0  0  0  0  0  0
    3.4090   -6.7120   30.8840 C   0  0  0  0  0  0  0  0  0  0  0  0
    2.1900   -7.2710   31.4490 C   0  0  0  0  0  0  0  0  0  0  0  0
    2.4830   -8.3010   32.2990 F   0  0  0  0  0  0  0  0  0  0  0  0
    1.2780   -7.5970   30.4630 F   0  0  0  0  0  0  0  0  0  0  0  0
    1.6280   -6.2670   32.2230 F   0  0  0  0  0  0  0  0  0  0  0  0
    4.5640   -7.1820   31.3800 C   0  0  0  0  0  0  0  0  0  0  0  0
    5.6770   -6.6000   30.7870 N   0  0  0  0  0  0  0  0  0  0  0  0
    6.0320   -5.4810   27.8160 C   0  0  0  0  0  0  0  0  0  0  0  0
    6.1470   -4.5600   26.8100 C   0  0  0  0  0  0  0  0  0  0  0  0
    7.1750   -3.0720   23.7700 C   0  0  0  0  0  0  0  0  0  0  0  0
    7.5390   -3.2530   22.4270 C   0  0  0  0  0  0  0  0  0  0  0  0
  1  2  1  0
  2  3  2  0
  2  4  1  0
  4  5  1  0
  5  6  1  0
  6  7  1  0
  7  8  1  0
  8  9  2  0
  8 10  1  0
 10 11  1  0
 11 12  1  0
 12 13  1  0
 13 14  1  0
 14 15  1  0
 15 16  2  0
 16 17  1  0
 17 18  1  0
 17 19  1  0
 17 20  1  0
 16 21  1  0
 14 22  1  0
 21 22  2  0
 13 23  1  0
 10 24  1  0
 23 24  1  0
  7 25  1  0
  4 26  1  0
 25 26  1  0
M  END
