piperidine-amides-12445-covalent
     RDKit          3D

 24 25  0  0  0  0  0  0  0  0999 V2000
    7.1510   -3.2950   19.2520 C   0  0  0  0  0  0  0  0  0  0  0  0
    6.3660   -4.0410   20.2300 C   0  0  0  0  0  0  0  0  0  0  0  0
    5.3070   -4.5740   19.8960 O   0  0  0  0  0  0  0  0  0  0  0  0
    6.8560   -4.2020   21.5670 N   0  0  0  0  0  0  0  0  0  0  0  0
    6.5880   -5.4280   22.2790 C   0  0  0  0  0  0  0  0  0  0  0  0
    6.1540   -5.1320   23.6860 C   0  0  0  0  0  0  0  0  0  0  0  0
    6.0620   -3.6260   23.8330 C   0  0  0  0  0  0  0  0  0  0  0  0
    5.5540   -3.2210   25.1610 C   0  0  0  0  0  0  0  0  0  0  0  0
    4.3320   -3.1110   25.3640 O   0  0  0  0  0  0  0  0  0  0  0  0
    6.4460   -2.9640   26.2230 N   0  0  0  0  0  0  0  0  0  0  0  0
    6.1220   -3.5240   27.5080 C   0  0  0  0  0  0  0  0  0  0  0  0
    5.2680   -2.5290   28.2600 C   0  0  0  0  0  0  0  0  0  0  0  0
    3.9830   -2.3100   27.7680 C   0  0  0  0  0  0  0  0  0  0  0  0
    2.9110   -3.1550   28.1180 C   0  0  0  0  0  0  0  0  0  0  0  0
    3.0590   -3.7860   29.3640 N   0  0  0  0  0  0  0  0  0  0  0  0
    2.1480   -4.7590   29.8000 C   0  0  0  0  0  0  0  0  0  0  0  0
    2.6780   -5.9370   30.4780 C   0  0  0  0  0  0  0  0  0  0  0  0
    3.1820   -7.0920   29.9190 C   0  0  0  0  0  0  0  0  0  0  0  0
    4.5260   -7.4210   29.9950 C   0  0  0  0  0  0  0  0  0  0  0  0
    2.3340   -8.2410   30.4290 C   0  0  0  0  0  0  0  0  0  0  0  0
    4.1760   -3.5800   30.0760 C   0  0  0  0  0  0  0  0  0  0  0  0
    5.2180   -2.8170   29.5960 C   0  0  0  0  0  0  0  0  0  0  0  0
    7.3840   -2.9890   23.5380 C   0  0  0  0  0  0  0  0  0  0  0  0
    7.7000   -3.1790   22.1050 C   0  0  0  0  0  0  0  0  0  0  0  0
  1  2  1  0
  2  3  2  0
  2  4  1  0
  4  5  1  0
  5  6  1  0
  6  7  1  0
  7  8  1  0
  8  9  2  0
  8 10  1  0
 10 11  1  0
 11 12  1  0
 12 13  1  0
 13 14  1  0
 14 15  1  0
 15 16  1  0
 16 17  1  0
 17 18  1  0
 18 19  1  0
 18 20  1  0
 15 21  1  0
 12 22  1  0
 21 22  1  0
  7 23  1  0
  4 24  1  0
 23 24  1  0
M  END
