piperidine-amides-913-covalent
     RDKit          3D

 24 26  0  0  0  0  0  0  0  0999 V2000
    7.1070   -3.3500   19.3110 C   0  0  0  0  0  0  0  0  0  0  0  0
    6.3730   -4.1750   20.3030 C   0  0  0  0  0  0  0  0  0  0  0  0
    5.3350   -4.7630   19.9580 O   0  0  0  0  0  0  0  0  0  0  0  0
    6.9160   -4.3080   21.5930 N   0  0  0  0  0  0  0  0  0  0  0  0
    7.7310   -3.2840   22.2060 C   0  0  0  0  0  0  0  0  0  0  0  0
    6.8670   -2.6340   23.2780 C   0  0  0  0  0  0  0  0  0  0  0  0
    6.5640   -3.7110   24.2510 C   0  0  0  0  0  0  0  0  0  0  0  0
    5.7740   -3.2380   25.4060 C   0  0  0  0  0  0  0  0  0  0  0  0
    4.5530   -3.1340   25.2340 O   0  0  0  0  0  0  0  0  0  0  0  0
    6.4060   -2.9290   26.6150 N   0  0  0  0  0  0  0  0  0  0  0  0
    6.4350   -1.6700   27.2770 C   0  0  0  0  0  0  0  0  0  0  0  0
    7.0290   -1.6060   28.5200 C   0  0  0  0  0  0  0  0  0  0  0  0
    7.1040   -0.4590   29.2290 C   0  0  0  0  0  0  0  0  0  0  0  0
    6.5530    0.5740   28.6120 C   0  0  0  0  0  0  0  0  0  0  0  0
    6.5460    1.9170   29.2510 C   0  0  0  0  0  0  0  0  0  0  0  0
    6.3720    3.1250   28.3180 C   0  0  0  0  0  0  0  0  0  0  0  0
    5.5670    4.1540   29.1140 C   0  0  0  0  0  0  0  0  0  0  0  0
    4.3870    3.7170   29.6800 C   0  0  0  0  0  0  0  0  0  0  0  0
    4.0700    2.2760   29.5080 C   0  0  0  0  0  0  0  0  0  0  0  0
    5.3910    1.9680   30.1930 C   0  0  0  0  0  0  0  0  0  0  0  0
    5.9970    0.3970   27.3900 N   0  0  0  0  0  0  0  0  0  0  0  0
    5.8050   -0.6340   26.4930 C   0  0  0  0  0  0  0  0  0  0  0  0
    5.8560   -4.9070   23.6790 C   0  0  0  0  0  0  0  0  0  0  0  0
    6.5430   -5.4290   22.4360 C   0  0  0  0  0  0  0  0  0  0  0  0
  1  2  1  0
  2  3  2  0
  2  4  1  0
  4  5  1  0
  5  6  1  0
  6  7  1  0
  7  8  1  0
  8  9  2  0
  8 10  1  0
 10 11  1  0
 11 12  2  0
 12 13  1  0
 13 14  2  0
 14 15  1  0
 15 16  1  0
 16 17  1  0
 17 18  1  0
 18 19  1  0
 15 20  1  0
 19 20  1  0
 14 21  1  0
 11 22  1  0
 21 22  2  0
  7 23  1  0
  4 24  1  0
 23 24  1  0
M  END
