piperidine-amides-30189-covalent
     RDKit          3D

 27 29  0  0  0  0  0  0  0  0999 V2000
    7.1020   -3.2740   19.2840 C   0  0  0  0  0  0  0  0  0  0  0  0
    6.3420   -4.0550   20.2560 C   0  0  0  0  0  0  0  0  0  0  0  0
    5.3020   -4.6130   19.9100 O   0  0  0  0  0  0  0  0  0  0  0  0
    6.8270   -4.2220   21.6010 N   0  0  0  0  0  0  0  0  0  0  0  0
    7.7220   -3.2380   22.1870 C   0  0  0  0  0  0  0  0  0  0  0  0
    7.3640   -2.9760   23.6240 C   0  0  0  0  0  0  0  0  0  0  0  0
    6.0300   -3.6550   23.8290 C   0  0  0  0  0  0  0  0  0  0  0  0
    5.3990   -3.3590   25.1410 C   0  0  0  0  0  0  0  0  0  0  0  0
    4.1610   -3.3410   25.2560 O   0  0  0  0  0  0  0  0  0  0  0  0
    6.1430   -3.0920   26.3090 N   0  0  0  0  0  0  0  0  0  0  0  0
    5.6630   -3.8060   27.4490 C   0  0  0  0  0  0  0  0  0  0  0  0
    5.4740   -2.4460   27.9710 C   0  0  0  0  0  0  0  0  0  0  0  0
    5.7880   -2.1170   29.2660 C   0  0  0  0  0  0  0  0  0  0  0  0
    4.7430   -2.3990   30.1540 C   0  0  0  0  0  0  0  0  0  0  0  0
    4.0680   -3.6170   29.9910 O   0  0  0  0  0  0  0  0  0  0  0  0
    4.3800   -1.4900   31.1700 N   0  0  0  0  0  0  0  0  0  0  0  0
    3.1910   -1.5730   31.9100 C   0  0  0  0  0  0  0  0  0  0  0  0
    3.0470   -2.8790   32.5470 C   0  0  0  0  0  0  0  0  0  0  0  0
    3.5020   -3.2390   33.8020 C   0  0  0  0  0  0  0  0  0  0  0  0
    3.3140   -4.4990   34.3150 C   0  0  0  0  0  0  0  0  0  0  0  0
    2.6650   -5.5100   33.6430 C   0  0  0  0  0  0  0  0  0  0  0  0
    2.4780   -6.7560   34.1490 F   0  0  0  0  0  0  0  0  0  0  0  0
    2.1870   -5.1280   32.3200 C   0  0  0  0  0  0  0  0  0  0  0  0
    2.3780   -3.8480   31.7990 C   0  0  0  0  0  0  0  0  0  0  0  0
    6.1400   -1.7580   26.9630 C   0  0  0  0  0  0  0  0  0  0  0  0
    6.1620   -5.1480   23.6880 C   0  0  0  0  0  0  0  0  0  0  0  0
    6.6610   -5.4860   22.2780 C   0  0  0  0  0  0  0  0  0  0  0  0
  1  2  1  0
  2  3  2  0
  2  4  1  0
  4  5  1  0
  5  6  1  0
  6  7  1  0
  7  8  1  0
  8  9  2  0
  8 10  1  0
 10 11  1  0
 11 12  1  0
 12 13  1  0
 13 14  1  0
 14 15  2  0
 14 16  1  0
 16 17  1  0
 17 18  1  0
 18 19  2  0
 19 20  1  0
 20 21  2  0
 21 22  1  0
 21 23  1  0
 18 24  1  0
 23 24  2  0
 10 25  1  0
 12 25  1  0
  7 26  1  0
  4 27  1  0
 26 27  1  0
M  END
