piperidine-amides-3242-covalent
     RDKit          3D

 22 23  0  0  0  0  0  0  0  0999 V2000
    7.0440   -3.3470   19.3420 C   0  0  0  0  0  0  0  0  0  0  0  0
    6.3540   -4.1720   20.3290 C   0  0  0  0  0  0  0  0  0  0  0  0
    5.3800   -4.8430   19.9850 O   0  0  0  0  0  0  0  0  0  0  0  0
    6.8310   -4.2410   21.6830 N   0  0  0  0  0  0  0  0  0  0  0  0
    7.6910   -3.1900   22.1870 C   0  0  0  0  0  0  0  0  0  0  0  0
    7.4030   -2.9300   23.6310 C   0  0  0  0  0  0  0  0  0  0  0  0
    6.0800   -3.6010   23.9380 C   0  0  0  0  0  0  0  0  0  0  0  0
    5.6210   -3.2170   25.3040 C   0  0  0  0  0  0  0  0  0  0  0  0
    4.4180   -3.2180   25.6280 O   0  0  0  0  0  0  0  0  0  0  0  0
    6.6000   -2.8580   26.2520 N   0  0  0  0  0  0  0  0  0  0  0  0
    6.5050   -1.6480   27.0450 C   0  0  0  0  0  0  0  0  0  0  0  0
    7.0070   -1.6180   28.4610 C   0  0  0  0  0  0  0  0  0  0  0  0
    6.9360   -0.4870   29.2410 C   0  0  0  0  0  0  0  0  0  0  0  0
    6.3840    0.6950   28.7290 C   0  0  0  0  0  0  0  0  0  0  0  0
    5.8960    0.7620   27.4370 C   0  0  0  0  0  0  0  0  0  0  0  0
    5.9140   -0.3610   26.5110 C   0  0  0  0  0  0  0  0  0  0  0  0
    5.4460   -0.3360   25.2200 C   0  0  0  0  0  0  0  0  0  0  0  0
    4.3190    0.4250   24.9610 C   0  0  0  0  0  0  0  0  0  0  0  0
    3.2290   -0.4210   24.8730 O   0  0  0  0  0  0  0  0  0  0  0  0
    2.8550   -0.9750   26.0960 C   0  0  0  0  0  0  0  0  0  0  0  0
    6.0510   -5.0390   23.7170 C   0  0  0  0  0  0  0  0  0  0  0  0
    6.6220   -5.4100   22.5040 C   0  0  0  0  0  0  0  0  0  0  0  0
  1  2  1  0
  2  3  2  0
  2  4  1  0
  4  5  1  0
  5  6  1  0
  6  7  1  0
  7  8  1  0
  8  9  2  0
  8 10  1  0
 10 11  1  0
 11 12  2  0
 12 13  1  0
 13 14  2  0
 14 15  1  0
 11 16  1  0
 15 16  2  0
 16 17  1  0
 17 18  1  0
 18 19  1  0
 19 20  1  0
  7 21  1  0
  4 22  1  0
 21 22  1  0
M  END
