piperidine-amides-23547-covalent
     RDKit          3D

 24 26  0  0  0  0  0  0  0  0999 V2000
    7.0140   -3.3910   19.4280 C   0  0  0  0  0  0  0  0  0  0  0  0
    6.3940   -4.2740   20.4340 C   0  0  0  0  0  0  0  0  0  0  0  0
    5.4210   -4.9550   20.0160 O   0  0  0  0  0  0  0  0  0  0  0  0
    6.8910   -4.3900   21.7770 N   0  0  0  0  0  0  0  0  0  0  0  0
    6.4850   -5.4930   22.5860 C   0  0  0  0  0  0  0  0  0  0  0  0
    5.9700   -5.0950   23.9030 C   0  0  0  0  0  0  0  0  0  0  0  0
    5.9140   -3.6250   24.0690 C   0  0  0  0  0  0  0  0  0  0  0  0
    5.1390   -3.0700   25.2780 C   0  0  0  0  0  0  0  0  0  0  0  0
    4.1590   -2.3630   25.0130 O   0  0  0  0  0  0  0  0  0  0  0  0
    5.3870   -3.2700   26.6690 N   0  0  0  0  0  0  0  0  0  0  0  0
    4.8290   -2.5540   27.7600 C   0  0  0  0  0  0  0  0  0  0  0  0
    4.3040   -3.2620   28.9390 C   0  0  0  0  0  0  0  0  0  0  0  0
    5.0600   -4.5730   29.0320 C   0  0  0  0  0  0  0  0  0  0  0  0
    5.9730   -4.9390   28.1370 C   0  0  0  0  0  0  0  0  0  0  0  0
    6.6270   -6.3180   28.4580 C   0  0  0  0  0  0  0  0  0  0  0  0
    6.2020   -7.1450   29.6930 C   0  0  0  0  0  0  0  0  0  0  0  0
    5.1240   -6.4730   30.5200 C   0  0  0  0  0  0  0  0  0  0  0  0
    4.5190   -5.1870   30.2370 C   0  0  0  0  0  0  0  0  0  0  0  0
    3.5050   -4.6030   31.0510 N   0  0  0  0  0  0  0  0  0  0  0  0
    2.3310   -4.5070   30.2930 O   0  0  0  0  0  0  0  0  0  0  0  0
    3.4580   -5.2510   32.2330 O   0  0  0  0  0  0  0  0  0  0  0  0
    6.2910   -4.2070   27.0550 C   0  0  0  0  0  0  0  0  0  0  0  0
    7.2980   -3.0210   23.8180 C   0  0  0  0  0  0  0  0  0  0  0  0
    7.5890   -3.2050   22.3520 C   0  0  0  0  0  0  0  0  0  0  0  0
  1  2  1  0
  2  3  2  0
  2  4  1  0
  4  5  1  0
  5  6  1  0
  6  7  1  0
  7  8  1  0
  8  9  2  0
  8 10  1  0
 10 11  1  0
 11 12  1  0
 12 13  1  0
 13 14  2  0
 14 15  1  0
 15 16  2  0
 16 17  1  0
 13 18  1  0
 17 18  2  0
 18 19  1  0
 19 20  2  0
 19 21  1  0
 10 22  1  0
 14 22  1  0
  7 23  1  0
  4 24  1  0
 23 24  1  0
M  CHG  2  19   1  21  -1
M  END
