piperidine-amides-13828-covalent
     RDKit          3D

 26 28  0  0  0  0  0  0  0  0999 V2000
    7.0560   -3.3210   19.3170 C   0  0  0  0  0  0  0  0  0  0  0  0
    6.3540   -4.1670   20.3210 C   0  0  0  0  0  0  0  0  0  0  0  0
    5.3610   -4.8260   19.9710 O   0  0  0  0  0  0  0  0  0  0  0  0
    6.8630   -4.2290   21.6340 N   0  0  0  0  0  0  0  0  0  0  0  0
    7.7440   -3.2090   22.1780 C   0  0  0  0  0  0  0  0  0  0  0  0
    7.4670   -3.0660   23.6780 C   0  0  0  0  0  0  0  0  0  0  0  0
    6.0900   -3.5810   23.8960 C   0  0  0  0  0  0  0  0  0  0  0  0
    5.4790   -3.2010   25.1900 C   0  0  0  0  0  0  0  0  0  0  0  0
    4.2460   -3.1660   25.2100 O   0  0  0  0  0  0  0  0  0  0  0  0
    6.2670   -2.9130   26.3070 N   0  0  0  0  0  0  0  0  0  0  0  0
    6.7740   -1.6480   26.7520 C   0  0  2  0  0  0  0  0  0  0  0  0
    7.4720   -1.6960   28.0050 C   0  0  0  0  0  0  0  0  0  0  0  0
    6.7100   -0.5120   29.1380 S   0  0  0  0  0  0  0  0  0  0  0  0
    7.5970    0.5690   29.7470 O   0  0  0  0  0  0  0  0  0  0  0  0
    5.6550   -1.0770   30.0690 O   0  0  0  0  0  0  0  0  0  0  0  0
    6.0910   -0.1040   27.6100 C   0  0  0  0  0  0  0  0  0  0  0  0
    6.7420   -1.2030   27.7080 C   0  0  0  0  0  0  0  0  0  0  0  0
    6.6640   -0.4690   29.0160 C   0  0  0  0  0  0  0  0  0  0  0  0
    7.3970   -1.6730   29.2360 N   0  0  0  0  0  0  0  0  0  0  0  0
    8.6960   -1.6460   29.6840 O   0  0  0  0  0  0  0  0  0  0  0  0
    6.6770   -2.8370   29.3920 O   0  0  0  0  0  0  0  0  0  0  0  0
    5.8040    0.7340   28.3110 C   0  0  0  0  0  0  0  0  0  0  0  0
    5.4560    0.6500   26.7870 C   0  0  0  0  0  0  0  0  0  0  0  0
    5.9770   -0.4630   26.3240 C   0  0  0  0  0  0  0  0  0  0  0  0
    5.9710   -5.0490   23.6950 C   0  0  0  0  0  0  0  0  0  0  0  0
    6.6410   -5.4440   22.3940 C   0  0  0  0  0  0  0  0  0  0  0  0
  1  2  1  0
  2  3  2  0
  2  4  1  0
  4  5  1  0
  5  6  1  0
  6  7  1  0
  7  8  1  0
  8  9  2  0
  8 10  1  0
 11 10  1  1
 11 12  1  0
 13 12  1  0
 13 14  2  0
 13 15  2  0
 13 16  1  0
 16 17  1  0
 17 18  2  0
 18 19  1  0
 19 20  2  0
 19 21  1  0
 18 22  1  0
 22 23  2  0
 11 24  1  0
 16 24  2  0
 23 24  1  0
  7 25  1  0
  4 26  1  0
 25 26  1  0
M  CHG  2  19   1  21  -1
M  END
