piperidine-amides-35451-covalent
     RDKit          3D

 33 35  0  0  0  0  0  0  0  0999 V2000
    7.0400   -3.3310   19.3550 C   0  0  0  0  0  0  0  0  0  0  0  0
    6.3930   -4.1980   20.3770 C   0  0  0  0  0  0  0  0  0  0  0  0
    5.4340   -4.8730   19.9950 O   0  0  0  0  0  0  0  0  0  0  0  0
    6.8940   -4.2500   21.6940 N   0  0  0  0  0  0  0  0  0  0  0  0
    6.7080   -5.4210   22.5280 C   0  0  0  0  0  0  0  0  0  0  0  0
    6.1050   -5.0230   23.8550 C   0  0  0  0  0  0  0  0  0  0  0  0
    6.1540   -3.5030   23.9940 C   0  0  0  0  0  0  0  0  0  0  0  0
    5.5150   -3.0740   25.2620 C   0  0  0  0  0  0  0  0  0  0  0  0
    4.3600   -2.6420   25.1880 O   0  0  0  0  0  0  0  0  0  0  0  0
    6.0990   -3.1290   26.5470 N   0  0  0  0  0  0  0  0  0  0  0  0
    6.3060   -1.8500   27.2010 C   0  0  0  0  0  0  0  0  0  0  0  0
    5.7420   -0.5870   26.5600 C   0  0  0  0  0  0  0  0  0  0  0  0
    5.8590    0.6820   27.1100 C   0  0  0  0  0  0  0  0  0  0  0  0
    6.5200    0.8040   28.2960 C   0  0  0  0  0  0  0  0  0  0  0  0
    7.0390   -0.2990   28.8880 C   0  0  0  0  0  0  0  0  0  0  0  0
    7.8020   -0.9070   30.0390 C   0  0  0  0  0  0  0  0  0  0  0  0
    7.0290   -1.6720   28.4940 C   0  0  0  0  0  0  0  0  0  0  0  0
    5.3200   -3.9230   27.4670 C   0  0  0  0  0  0  0  0  0  0  0  0
    5.8650   -4.9440   28.0840 N   0  0  0  0  0  0  0  0  0  0  0  0
    4.9210   -5.6170   28.9720 C   0  0  0  0  0  0  0  0  0  0  0  0
    5.1700   -6.8040   29.8320 C   0  0  0  0  0  0  0  0  0  0  0  0
    4.9980   -6.6250   31.1670 F   0  0  0  0  0  0  0  0  0  0  0  0
    6.4560   -7.1810   29.5960 F   0  0  0  0  0  0  0  0  0  0  0  0
    4.2580   -7.7230   29.3860 F   0  0  0  0  0  0  0  0  0  0  0  0
    3.5500   -5.0610   29.0350 C   0  0  0  0  0  0  0  0  0  0  0  0
    2.4660   -5.6270   29.8900 C   0  0  0  0  0  0  0  0  0  0  0  0
    1.2070   -5.7720   29.2760 O   0  0  0  0  0  0  0  0  0  0  0  0
    2.7060   -5.9710   31.1950 O   0  0  0  0  0  0  0  0  0  0  0  0
    1.8950   -6.9580   31.7050 C   0  0  0  0  0  0  0  0  0  0  0  0
    2.4810   -8.1550   31.3450 C   0  0  0  0  0  0  0  0  0  0  0  0
    3.6820   -3.7580   27.9420 S   0  0  0  0  0  0  0  0  0  0  0  0
    7.5360   -3.0310   23.7080 C   0  0  0  0  0  0  0  0  0  0  0  0
    7.7840   -3.1820   22.2040 C   0  0  0  0  0  0  0  0  0  0  0  0
  1  2  1  0
  2  3  2  0
  2  4  1  0
  4  5  1  0
  5  6  1  0
  6  7  1  0
  7  8  1  0
  8  9  2  0
  8 10  1  0
 10 11  1  0
 11 12  2  0
 12 13  1  0
 13 14  2  0
 14 15  1  0
 15 16  1  0
 11 17  1  0
 15 17  2  0
 10 18  1  0
 18 19  2  0
 19 20  1  0
 20 21  1  0
 21 22  1  0
 21 23  1  0
 21 24  1  0
 20 25  2  0
 25 26  1  0
 26 27  2  0
 26 28  1  0
 28 29  1  0
 29 30  1  0
 18 31  1  0
 25 31  1  0
  7 32  1  0
  4 33  1  0
 32 33  1  0
M  END
