piperidine-amides-6639-covalent
     RDKit          3D

 24 26  0  0  0  0  0  0  0  0999 V2000
    7.0760   -3.3560   19.3460 C   0  0  0  0  0  0  0  0  0  0  0  0
    6.3580   -4.1700   20.3360 C   0  0  0  0  0  0  0  0  0  0  0  0
    5.3730   -4.8530   19.9840 O   0  0  0  0  0  0  0  0  0  0  0  0
    6.8030   -4.2200   21.6660 N   0  0  0  0  0  0  0  0  0  0  0  0
    7.6810   -3.1700   22.1530 C   0  0  0  0  0  0  0  0  0  0  0  0
    7.4260   -2.9710   23.6500 C   0  0  0  0  0  0  0  0  0  0  0  0
    6.0680   -3.5630   23.9250 C   0  0  0  0  0  0  0  0  0  0  0  0
    5.6430   -3.2040   25.2900 C   0  0  0  0  0  0  0  0  0  0  0  0
    4.4260   -3.2450   25.5670 O   0  0  0  0  0  0  0  0  0  0  0  0
    6.6190   -2.8300   26.2330 N   0  0  0  0  0  0  0  0  0  0  0  0
    6.4980   -1.6230   27.0030 C   0  0  0  0  0  0  0  0  0  0  0  0
    7.0450   -1.5590   28.4320 C   0  0  0  0  0  0  0  0  0  0  0  0
    6.9580   -0.4220   29.2210 C   0  0  0  0  0  0  0  0  0  0  0  0
    6.3480    0.6940   28.6870 C   0  0  0  0  0  0  0  0  0  0  0  0
    6.1300    1.9530   29.2670 N   0  0  0  0  0  0  0  0  0  0  0  0
    5.4910    2.7450   28.3760 C   0  0  0  0  0  0  0  0  0  0  0  0
    5.1660    4.0390   28.7240 C   0  0  0  0  0  0  0  0  0  0  0  0
    6.2870    4.7290   29.1420 F   0  0  0  0  0  0  0  0  0  0  0  0
    4.1820    4.0320   29.6980 F   0  0  0  0  0  0  0  0  0  0  0  0
    5.2690    2.0050   27.1640 N   0  0  0  0  0  0  0  0  0  0  0  0
    5.8130    0.7650   27.4140 C   0  0  0  0  0  0  0  0  0  0  0  0
    5.8530   -0.3940   26.4800 C   0  0  0  0  0  0  0  0  0  0  0  0
    6.0270   -5.0270   23.7570 C   0  0  0  0  0  0  0  0  0  0  0  0
    6.5840   -5.3850   22.4570 C   0  0  0  0  0  0  0  0  0  0  0  0
  1  2  1  0
  2  3  2  0
  2  4  1  0
  4  5  1  0
  5  6  1  0
  6  7  1  0
  7  8  1  0
  8  9  2  0
  8 10  1  0
 10 11  1  0
 11 12  2  0
 12 13  1  0
 13 14  2  0
 14 15  1  0
 15 16  1  0
 16 17  1  0
 17 18  1  0
 17 19  1  0
 16 20  2  0
 14 21  1  0
 20 21  1  0
 11 22  1  0
 21 22  2  0
  7 23  1  0
  4 24  1  0
 23 24  1  0
M  END
