piperidine-amides-24176-covalent
     RDKit          3D

 24 25  0  0  0  0  0  0  0  0999 V2000
    7.0500   -3.3500   19.4300 C   0  0  0  0  0  0  0  0  0  0  0  0
    6.3950   -4.2620   20.3810 C   0  0  0  0  0  0  0  0  0  0  0  0
    5.4040   -4.9290   20.0020 O   0  0  0  0  0  0  0  0  0  0  0  0
    6.8910   -4.4310   21.6890 N   0  0  0  0  0  0  0  0  0  0  0  0
    6.4160   -5.5470   22.4540 C   0  0  0  0  0  0  0  0  0  0  0  0
    5.4230   -4.9470   23.4580 C   0  0  0  0  0  0  0  0  0  0  0  0
    6.1440   -3.8910   24.2940 C   0  0  0  0  0  0  0  0  0  0  0  0
    5.1480   -3.2340   25.1990 C   0  0  0  0  0  0  0  0  0  0  0  0
    4.3530   -2.4230   24.7040 O   0  0  0  0  0  0  0  0  0  0  0  0
    5.1260   -3.5380   26.5920 N   0  0  0  0  0  0  0  0  0  0  0  0
    6.3170   -4.0430   27.0230 C   0  0  0  0  0  0  0  0  0  0  0  0
    6.3970   -3.8960   28.4820 C   0  0  0  0  0  0  0  0  0  0  0  0
    5.2200   -3.4060   28.8540 C   0  0  2  0  0  0  0  0  0  0  0  0
    5.2230   -2.3280   29.7020 C   0  0  0  0  0  0  0  0  0  0  0  0
    4.1850   -2.3330   30.6280 C   0  0  0  0  0  0  0  0  0  0  0  0
    4.0210   -1.3100   31.5340 C   0  0  0  0  0  0  0  0  0  0  0  0
    4.6230   -4.4300   29.5620 C   0  0  0  0  0  0  0  0  0  0  0  0
    3.4060   -4.4770   29.7380 O   0  0  0  0  0  0  0  0  0  0  0  0
    5.3720   -5.4340   30.0930 O   0  0  0  0  0  0  0  0  0  0  0  0
    5.3740   -6.5720   29.3210 C   0  0  0  0  0  0  0  0  0  0  0  0
    4.4870   -7.5820   29.9620 C   0  0  0  0  0  0  0  0  0  0  0  0
    4.4100   -3.0100   27.7620 C   0  0  0  0  0  0  0  0  0  0  0  0
    6.7750   -2.8360   23.4050 C   0  0  0  0  0  0  0  0  0  0  0  0
    7.5140   -3.3390   22.3640 C   0  0  0  0  0  0  0  0  0  0  0  0
  1  2  1  0
  2  3  2  0
  2  4  1  0
  4  5  1  0
  5  6  1  0
  6  7  1  0
  7  8  1  0
  8  9  2  0
  8 10  1  0
 10 11  1  0
 11 12  1  0
 12 13  1  0
 13 14  1  1
 14 15  1  0
 15 16  3  0
 13 17  1  0
 17 18  2  0
 17 19  1  0
 19 20  1  0
 20 21  1  0
 10 22  1  0
 13 22  1  0
  7 23  1  0
  4 24  1  0
 23 24  1  0
M  END
