piperidine-amides-4852-covalent
     RDKit          3D

 23 24  0  0  0  0  0  0  0  0999 V2000
    7.1480   -3.2630   19.1300 C   0  0  0  0  0  0  0  0  0  0  0  0
    6.3770   -3.9830   20.1690 C   0  0  0  0  0  0  0  0  0  0  0  0
    5.2670   -4.4340   19.8370 O   0  0  0  0  0  0  0  0  0  0  0  0
    6.9140   -4.1950   21.4390 N   0  0  0  0  0  0  0  0  0  0  0  0
    7.6570   -3.1530   22.0580 C   0  0  0  0  0  0  0  0  0  0  0  0
    7.3360   -2.9270   23.4610 C   0  0  0  0  0  0  0  0  0  0  0  0
    6.4850   -3.9550   24.1050 C   0  0  0  0  0  0  0  0  0  0  0  0
    5.7120   -3.3110   25.1750 C   0  0  0  0  0  0  0  0  0  0  0  0
    4.5670   -2.8930   24.9270 O   0  0  0  0  0  0  0  0  0  0  0  0
    6.2520   -3.1860   26.4530 N   0  0  0  0  0  0  0  0  0  0  0  0
    5.9530   -4.1920   27.4760 C   0  0  0  0  0  0  0  0  0  0  0  0
    6.3830   -3.7360   28.8050 C   0  0  0  0  0  0  0  0  0  0  0  0
    5.7530   -2.5220   29.3290 C   0  0  0  0  0  0  0  0  0  0  0  0
    6.5460   -1.4920   29.8180 N   0  0  0  0  0  0  0  0  0  0  0  0
    5.6550   -0.5120   30.2430 C   0  0  0  0  0  0  0  0  0  0  0  0
    6.0000    0.6970   30.8110 C   0  0  0  0  0  0  0  0  0  0  0  0
    6.4130    0.6910   32.1030 F   0  0  0  0  0  0  0  0  0  0  0  0
    4.8890    1.5110   30.7080 F   0  0  0  0  0  0  0  0  0  0  0  0
    6.9850    1.3210   30.0530 F   0  0  0  0  0  0  0  0  0  0  0  0
    4.3970   -1.0750   29.9480 N   0  0  0  0  0  0  0  0  0  0  0  0
    4.5140   -2.2990   29.3940 O   0  0  0  0  0  0  0  0  0  0  0  0
    5.6550   -4.8080   23.2030 C   0  0  0  0  0  0  0  0  0  0  0  0
    6.4470   -5.2850   22.2120 C   0  0  0  0  0  0  0  0  0  0  0  0
  1  2  1  0
  2  3  2  0
  2  4  1  0
  4  5  1  0
  5  6  1  0
  6  7  1  0
  7  8  1  0
  8  9  2  0
  8 10  1  0
 10 11  1  0
 11 12  1  0
 12 13  1  0
 13 14  2  0
 14 15  1  0
 15 16  1  0
 16 17  1  0
 16 18  1  0
 16 19  1  0
 15 20  2  0
 13 21  1  0
 20 21  1  0
  7 22  1  0
  4 23  1  0
 22 23  1  0
M  END
