piperidine-amides-493-covalent
     RDKit          3D

 27 29  0  0  0  0  0  0  0  0999 V2000
    7.1230   -3.3160   19.4110 C   0  0  0  0  0  0  0  0  0  0  0  0
    6.4080   -4.1230   20.3740 C   0  0  0  0  0  0  0  0  0  0  0  0
    5.4150   -4.8140   19.9760 O   0  0  0  0  0  0  0  0  0  0  0  0
    6.8030   -4.1940   21.7260 N   0  0  0  0  0  0  0  0  0  0  0  0
    7.6010   -3.0430   22.2490 C   0  0  0  0  0  0  0  0  0  0  0  0
    7.6330   -3.2700   23.8160 C   0  0  0  0  0  0  0  0  0  0  0  0
    6.2490   -3.7300   24.1950 C   0  0  0  0  0  0  0  0  0  0  0  0
    5.9120   -3.6360   25.7550 C   0  0  0  0  0  0  0  0  0  0  0  0
    5.5080   -4.7070   26.1520 O   0  0  0  0  0  0  0  0  0  0  0  0
    6.1130   -2.4590   26.1920 N   0  0  0  0  0  0  0  0  0  0  0  0
    6.1500   -1.1790   26.6600 C   0  0  0  0  0  0  0  0  0  0  0  0
    5.4680   -0.0380   26.3720 C   0  0  0  0  0  0  0  0  0  0  0  0
    5.6820    1.2110   27.0090 C   0  0  0  0  0  0  0  0  0  0  0  0
    6.6510    1.5490   28.0710 C   0  0  0  0  0  0  0  0  0  0  0  0
    7.3930    0.2520   28.3580 C   0  0  0  0  0  0  0  0  0  0  0  0
    8.3890    0.5030   29.3760 N   0  0  0  0  0  0  0  0  0  0  0  0
    8.3240   -0.2380   30.5710 C   0  0  0  0  0  0  0  0  0  0  0  0
    7.9870    0.5770   31.6650 C   0  0  0  0  0  0  0  0  0  0  0  0
    9.0520    1.5330   31.8050 N   0  0  0  0  0  0  0  0  0  0  0  0
    9.9990    1.2290   32.8540 C   0  0  0  0  0  0  0  0  0  0  0  0
    9.2190    0.5970   34.0610 C   0  0  0  0  0  0  0  0  0  0  0  0
   10.9080    2.3510   33.2230 C   0  0  0  0  0  0  0  0  0  0  0  0
    9.6390    1.9840   30.6830 C   0  0  0  0  0  0  0  0  0  0  0  0
    8.7780    1.8500   29.6360 C   0  0  0  0  0  0  0  0  0  0  0  0
    7.1700   -0.9760   27.7430 C   0  0  0  0  0  0  0  0  0  0  0  0
    5.8140   -5.0440   23.6470 C   0  0  0  0  0  0  0  0  0  0  0  0
    6.6290   -5.4220   22.4560 C   0  0  0  0  0  0  0  0  0  0  0  0
  1  2  1  0
  2  3  2  0
  2  4  1  0
  4  5  1  0
  5  6  1  0
  6  7  1  0
  7  8  1  0
  8  9  2  0
  8 10  1  0
 10 11  1  0
 11 12  2  0
 12 13  1  0
 13 14  2  0
 14 15  1  0
 15 16  1  0
 16 17  1  0
 17 18  1  0
 18 19  1  0
 19 20  1  0
 20 21  1  0
 20 22  1  0
 19 23  1  0
 16 24  1  0
 23 24  1  0
 11 25  1  0
 15 25  2  0
  7 26  1  0
  4 27  1  0
 26 27  1  0
M  END
