piperidine-amides-10171-covalent
     RDKit          3D

 25 27  0  0  0  0  0  0  0  0999 V2000
    7.0430   -3.3640   19.3660 C   0  0  0  0  0  0  0  0  0  0  0  0
    6.3750   -4.2380   20.3320 C   0  0  0  0  0  0  0  0  0  0  0  0
    5.3140   -4.7900   19.9550 O   0  0  0  0  0  0  0  0  0  0  0  0
    6.9410   -4.4750   21.5800 N   0  0  0  0  0  0  0  0  0  0  0  0
    6.5650   -5.6290   22.3690 C   0  0  0  0  0  0  0  0  0  0  0  0
    5.7870   -5.1720   23.5790 C   0  0  0  0  0  0  0  0  0  0  0  0
    6.4930   -4.0660   24.3250 C   0  0  0  0  0  0  0  0  0  0  0  0
    5.6700   -3.5230   25.4230 C   0  0  0  0  0  0  0  0  0  0  0  0
    4.4320   -3.4420   25.2560 O   0  0  0  0  0  0  0  0  0  0  0  0
    6.2190   -3.0890   26.6430 N   0  0  0  0  0  0  0  0  0  0  0  0
    6.3980   -1.6830   26.9190 C   0  0  0  0  0  0  0  0  0  0  0  0
    7.0630   -1.3050   25.5850 C   0  0  0  0  0  0  0  0  0  0  0  0
    8.2210   -1.9430   25.1150 C   0  0  0  0  0  0  0  0  0  0  0  0
    8.7830   -1.5740   23.9100 C   0  0  0  0  0  0  0  0  0  0  0  0
    8.2290   -0.5840   23.1480 C   0  0  0  0  0  0  0  0  0  0  0  0
    7.0990    0.0810   23.5430 C   0  0  0  0  0  0  0  0  0  0  0  0
    6.2710    1.4830   22.5140 Br  0  0  0  0  0  0  0  0  0  0  0  0
    6.5330   -0.2920   24.7560 C   0  0  0  0  0  0  0  0  0  0  0  0
    5.0860   -1.1270   27.1940 C   0  0  0  0  0  0  0  0  0  0  0  0
    5.9160    0.1570   27.0900 C   0  0  0  0  0  0  0  0  0  0  0  0
    6.4120    0.5930   28.4180 C   0  0  0  0  0  0  0  0  0  0  0  0
    6.9750   -0.6130   29.0650 C   0  0  0  0  0  0  0  0  0  0  0  0
    7.2070   -1.5830   28.1090 C   0  0  0  0  0  0  0  0  0  0  0  0
    6.7430   -2.9560   23.3290 C   0  0  0  0  0  0  0  0  0  0  0  0
    7.6860   -3.4510   22.2700 C   0  0  0  0  0  0  0  0  0  0  0  0
  1  2  1  0
  2  3  2  0
  2  4  1  0
  4  5  1  0
  5  6  1  0
  6  7  1  0
  7  8  1  0
  8  9  2  0
  8 10  1  0
 11 10  1  0
 11 12  1  0
 12 13  2  0
 13 14  1  0
 14 15  2  0
 15 16  1  0
 16 17  1  0
 12 18  1  0
 16 18  2  0
 11 19  1  0
 19 20  1  0
 20 21  1  0
 21 22  1  0
 11 23  1  0
 22 23  1  0
  7 24  1  0
  4 25  1  0
 24 25  1  0
M  END
