piperidine-amides-26900-covalent
     RDKit          3D

 25 26  0  0  0  0  0  0  0  0999 V2000
    7.0090   -3.3520   19.3770 C   0  0  0  0  0  0  0  0  0  0  0  0
    6.3670   -4.2000   20.3930 C   0  0  0  0  0  0  0  0  0  0  0  0
    5.3920   -4.8890   19.9920 O   0  0  0  0  0  0  0  0  0  0  0  0
    6.8450   -4.2520   21.7130 N   0  0  0  0  0  0  0  0  0  0  0  0
    6.7150   -5.4540   22.5170 C   0  0  0  0  0  0  0  0  0  0  0  0
    6.0810   -5.0680   23.8260 C   0  0  0  0  0  0  0  0  0  0  0  0
    6.1310   -3.5790   24.0200 C   0  0  0  0  0  0  0  0  0  0  0  0
    5.5360   -3.1390   25.3190 C   0  0  0  0  0  0  0  0  0  0  0  0
    4.3590   -2.7290   25.2620 O   0  0  0  0  0  0  0  0  0  0  0  0
    6.1490   -3.1380   26.5990 N   0  0  0  0  0  0  0  0  0  0  0  0
    6.1370   -4.3780   27.3670 C   0  0  0  0  0  0  0  0  0  0  0  0
    4.8030   -4.7690   27.9420 C   0  0  0  0  0  0  0  0  0  0  0  0
    4.0500   -3.9380   28.5080 O   0  0  0  0  0  0  0  0  0  0  0  0
    4.3390   -6.0870   27.8740 O   0  0  0  0  0  0  0  0  0  0  0  0
    4.8900   -7.0750   28.7170 C   0  0  0  0  0  0  0  0  0  0  0  0
    6.1560   -6.7460   29.1540 C   0  0  0  0  0  0  0  0  0  0  0  0
    6.2870   -1.8480   27.2660 C   0  0  0  0  0  0  0  0  0  0  0  0
    5.8240   -0.7290   26.6000 C   0  0  0  0  0  0  0  0  0  0  0  0
    5.9120    0.5140   27.1880 C   0  0  0  0  0  0  0  0  0  0  0  0
    6.5100    0.7160   28.5680 C   0  0  0  0  0  0  0  0  0  0  0  0
    6.6110    1.9180   29.1800 F   0  0  0  0  0  0  0  0  0  0  0  0
    6.9730   -0.6370   29.1400 C   0  0  0  0  0  0  0  0  0  0  0  0
    6.8480   -1.8730   28.4790 N   0  0  0  0  0  0  0  0  0  0  0  0
    7.5470   -3.0670   23.7390 C   0  0  0  0  0  0  0  0  0  0  0  0
    7.6950   -3.1650   22.2240 C   0  0  0  0  0  0  0  0  0  0  0  0
  1  2  1  0
  2  3  2  0
  2  4  1  0
  4  5  1  0
  5  6  1  0
  6  7  1  0
  7  8  1  0
  8  9  2  0
  8 10  1  0
 10 11  1  0
 11 12  1  0
 12 13  2  0
 12 14  1  0
 14 15  1  0
 15 16  1  0
 10 17  1  0
 17 18  2  0
 18 19  1  0
 19 20  2  0
 20 21  1  0
 20 22  1  0
 17 23  1  0
 22 23  2  0
  7 24  1  0
  4 25  1  0
 24 25  1  0
M  END
