piperidine-amides-27405-covalent
     RDKit          3D

 26 29  0  0  0  0  0  0  0  0999 V2000
    7.0750   -3.3620   19.3460 C   0  0  0  0  0  0  0  0  0  0  0  0
    6.3820   -4.1680   20.3500 C   0  0  0  0  0  0  0  0  0  0  0  0
    5.3580   -4.7930   19.9690 O   0  0  0  0  0  0  0  0  0  0  0  0
    6.8960   -4.2510   21.6450 N   0  0  0  0  0  0  0  0  0  0  0  0
    6.7730   -5.4760   22.4060 C   0  0  0  0  0  0  0  0  0  0  0  0
    6.1870   -5.1270   23.7460 C   0  0  0  0  0  0  0  0  0  0  0  0
    6.1590   -3.6360   23.9320 C   0  0  0  0  0  0  0  0  0  0  0  0
    5.7010   -3.2200   25.2730 C   0  0  0  0  0  0  0  0  0  0  0  0
    4.9240   -2.2500   25.3400 O   0  0  0  0  0  0  0  0  0  0  0  0
    6.0520   -3.8640   26.4610 N   0  0  0  0  0  0  0  0  0  0  0  0
    5.4570   -5.1270   26.6770 C   0  0  0  0  0  0  0  0  0  0  0  0
    5.7730   -5.6140   28.0540 C   0  0  0  0  0  0  0  0  0  0  0  0
    5.5000   -4.8860   29.1350 C   0  0  0  0  0  0  0  0  0  0  0  0
    4.2290   -4.4200   29.4320 C   0  0  0  0  0  0  0  0  0  0  0  0
    3.2840   -5.1450   30.0660 N   0  0  0  0  0  0  0  0  0  0  0  0
    2.1670   -4.4650   30.2240 C   0  0  0  0  0  0  0  0  0  0  0  0
    0.9520   -4.7990   30.8110 C   0  0  0  0  0  0  0  0  0  0  0  0
   -0.1010   -3.8890   30.8550 C   0  0  0  0  0  0  0  0  0  0  0  0
   -0.0500   -2.4780   30.2900 C   0  0  0  0  0  0  0  0  0  0  0  0
    1.3200   -2.2070   29.6680 C   0  0  0  0  0  0  0  0  0  0  0  0
    2.4060   -3.2470   29.6630 C   0  0  0  0  0  0  0  0  0  0  0  0
    3.6650   -3.2080   29.1740 N   0  0  0  0  0  0  0  0  0  0  0  0
    6.5410   -3.8410   28.7570 C   0  0  0  0  0  0  0  0  0  0  0  0
    6.3150   -3.0860   27.6100 C   0  0  0  0  0  0  0  0  0  0  0  0
    7.5470   -3.1090   23.6570 C   0  0  0  0  0  0  0  0  0  0  0  0
    7.7930   -3.2210   22.1670 C   0  0  0  0  0  0  0  0  0  0  0  0
  1  2  1  0
  2  3  2  0
  2  4  1  0
  4  5  1  0
  5  6  1  0
  6  7  1  0
  7  8  1  0
  8  9  2  0
  8 10  1  0
 10 11  1  0
 11 12  1  0
 12 13  1  0
 13 14  1  0
 14 15  2  0
 15 16  1  0
 16 17  2  0
 17 18  1  0
 18 19  2  0
 19 20  1  0
 16 21  1  0
 20 21  2  0
 14 22  1  0
 21 22  1  0
 13 23  1  0
 10 24  1  0
 23 24  1  0
  7 25  1  0
  4 26  1  0
 25 26  1  0
M  END
