piperidine-amides-9067-covalent
     RDKit          3D

 21 21  0  0  0  0  0  0  0  0999 V2000
    7.1170   -3.2680   19.2090 C   0  0  0  0  0  0  0  0  0  0  0  0
    6.3460   -4.0180   20.2010 C   0  0  0  0  0  0  0  0  0  0  0  0
    5.2590   -4.5160   19.8700 O   0  0  0  0  0  0  0  0  0  0  0  0
    6.8260   -4.2590   21.4980 N   0  0  0  0  0  0  0  0  0  0  0  0
    6.5730   -5.4800   22.2050 C   0  0  0  0  0  0  0  0  0  0  0  0
    6.3920   -5.0750   23.6440 C   0  0  0  0  0  0  0  0  0  0  0  0
    5.8840   -3.6680   23.7990 C   0  0  0  0  0  0  0  0  0  0  0  0
    5.6790   -3.3370   25.2180 C   0  0  0  0  0  0  0  0  0  0  0  0
    4.6110   -2.7810   25.6100 O   0  0  0  0  0  0  0  0  0  0  0  0
    6.6580   -3.6210   26.1820 N   0  0  0  0  0  0  0  0  0  0  0  0
    6.3240   -4.4800   27.3310 C   0  0  2  0  0  0  0  0  0  0  0  0
    5.6610   -3.7280   28.4140 C   0  0  0  0  0  0  0  0  0  0  0  0
    6.2360   -2.3840   28.6080 C   0  0  0  0  0  0  0  0  0  0  0  0
    7.4470   -5.3180   27.8640 C   0  0  0  0  0  0  0  0  0  0  0  0
    8.2170   -6.3070   27.2000 N   0  0  0  0  0  0  0  0  0  0  0  0
    7.7840   -5.0930   29.1480 O   0  0  0  0  0  0  0  0  0  0  0  0
    6.0860   -5.8770   27.3840 C   0  0  0  0  0  0  0  0  0  0  0  0
    4.8000   -6.3130   26.7870 C   0  0  0  0  0  0  0  0  0  0  0  0
    6.0550   -6.4270   28.8300 C   0  0  0  0  0  0  0  0  0  0  0  0
    6.7980   -2.6310   23.2000 C   0  0  0  0  0  0  0  0  0  0  0  0
    7.6740   -3.2890   22.1660 C   0  0  0  0  0  0  0  0  0  0  0  0
  1  2  1  0
  2  3  2  0
  2  4  1  0
  4  5  1  0
  5  6  1  0
  6  7  1  0
  7  8  1  0
  8  9  2  0
  8 10  1  0
 10 11  1  0
 11 12  1  1
 12 13  1  0
 11 14  1  0
 14 15  1  0
 14 16  2  0
 11 17  1  0
 17 18  1  0
 17 19  1  0
  7 20  1  0
  4 21  1  0
 20 21  1  0
M  END
