piperidine-amides-10844-covalent
     RDKit          3D

 22 23  0  0  0  0  0  0  0  0999 V2000
    7.0880   -3.2810   19.2370 C   0  0  0  0  0  0  0  0  0  0  0  0
    6.3550   -4.0310   20.2630 C   0  0  0  0  0  0  0  0  0  0  0  0
    5.3360   -4.6620   19.9320 O   0  0  0  0  0  0  0  0  0  0  0  0
    6.8050   -4.0900   21.5970 N   0  0  0  0  0  0  0  0  0  0  0  0
    7.7500   -3.1180   22.1190 C   0  0  0  0  0  0  0  0  0  0  0  0
    7.4890   -3.0280   23.5930 C   0  0  0  0  0  0  0  0  0  0  0  0
    6.1200   -3.5410   23.9020 C   0  0  0  0  0  0  0  0  0  0  0  0
    5.6320   -3.2090   25.2630 C   0  0  0  0  0  0  0  0  0  0  0  0
    4.4060   -2.9470   25.4450 O   0  0  0  0  0  0  0  0  0  0  0  0
    6.4680   -3.1560   26.4010 N   0  0  0  0  0  0  0  0  0  0  0  0
    6.1070   -3.8570   27.6580 C   0  0  0  0  0  0  0  0  0  0  0  0
    5.8200   -5.2870   27.3660 C   0  0  0  0  0  0  0  0  0  0  0  0
    4.6230   -5.6180   27.8850 N   0  0  0  0  0  0  0  0  0  0  0  0
    3.4960   -6.0900   27.1620 C   0  0  0  0  0  0  0  0  0  0  0  0
    3.0640   -7.4100   27.7480 C   0  0  0  0  0  0  0  0  0  0  0  0
    2.5050   -7.0970   28.9700 O   0  0  0  0  0  0  0  0  0  0  0  0
    2.8350   -5.8270   29.3670 C   0  0  0  0  0  0  0  0  0  0  0  0
    4.3000   -5.5940   29.2910 C   0  0  1  0  0  0  0  0  0  0  0  0
    5.1520   -6.4320   29.9700 C   0  0  0  0  0  0  0  0  0  0  0  0
    5.3180   -7.7470   29.5280 C   0  0  0  0  0  0  0  0  0  0  0  0
    6.0000   -5.0540   23.6720 C   0  0  0  0  0  0  0  0  0  0  0  0
    6.6320   -5.3490   22.2990 C   0  0  0  0  0  0  0  0  0  0  0  0
  1  2  1  0
  2  3  2  0
  2  4  1  0
  4  5  1  0
  5  6  1  0
  6  7  1  0
  7  8  1  0
  8  9  2  0
  8 10  1  0
 10 11  1  0
 11 12  1  0
 12 13  1  0
 13 14  1  0
 14 15  1  0
 15 16  1  0
 16 17  1  0
 13 18  1  0
 17 18  1  0
 18 19  1  1
 19 20  1  0
  7 21  1  0
  4 22  1  0
 21 22  1  0
M  END
