piperidine-amides-25262-covalent
     RDKit          3D

 23 24  0  0  0  0  0  0  0  0999 V2000
    7.0350   -3.3440   19.3710 C   0  0  0  0  0  0  0  0  0  0  0  0
    6.3560   -4.2330   20.3520 C   0  0  0  0  0  0  0  0  0  0  0  0
    5.3450   -4.8170   19.9660 O   0  0  0  0  0  0  0  0  0  0  0  0
    6.8870   -4.4120   21.6290 N   0  0  0  0  0  0  0  0  0  0  0  0
    6.6270   -5.6170   22.3910 C   0  0  0  0  0  0  0  0  0  0  0  0
    5.8130   -5.2990   23.6240 C   0  0  0  0  0  0  0  0  0  0  0  0
    6.0090   -3.8320   23.9840 C   0  0  0  0  0  0  0  0  0  0  0  0
    5.5130   -3.5670   25.3640 C   0  0  0  0  0  0  0  0  0  0  0  0
    4.4000   -3.0440   25.4570 O   0  0  0  0  0  0  0  0  0  0  0  0
    6.1970   -3.8890   26.5630 N   0  0  0  0  0  0  0  0  0  0  0  0
    6.9530   -5.0600   26.5170 C   0  0  0  0  0  0  0  0  0  0  0  0
    7.0740   -5.6400   28.1250 S   0  0  0  0  0  0  0  0  0  0  0  0
    6.3270   -4.1890   28.6650 C   0  0  0  0  0  0  0  0  0  0  0  0
    5.4090   -3.6630   27.7110 C   0  0  1  0  0  0  0  0  0  0  0  0
    5.0770   -2.3570   27.8660 C   0  0  0  0  0  0  0  0  0  0  0  0
    4.7560   -1.5440   26.7990 O   0  0  0  0  0  0  0  0  0  0  0  0
    4.9940   -1.6330   29.1100 N   0  0  0  0  0  0  0  0  0  0  0  0
    4.4080   -2.2540   30.2710 C   0  0  0  0  0  0  0  0  0  0  0  0
    6.0780   -0.6630   29.3430 C   0  0  0  0  0  0  0  0  0  0  0  0
    7.3890   -1.3610   29.4560 C   0  0  0  0  0  0  0  0  0  0  0  0
    6.9970   -0.7840   28.1590 C   0  0  0  0  0  0  0  0  0  0  0  0
    7.3390   -3.3270   23.6810 C   0  0  0  0  0  0  0  0  0  0  0  0
    7.6440   -3.3490   22.2320 C   0  0  0  0  0  0  0  0  0  0  0  0
  1  2  1  0
  2  3  2  0
  2  4  1  0
  4  5  1  0
  5  6  1  0
  6  7  1  0
  7  8  1  0
  8  9  2  0
  8 10  1  0
 10 11  1  0
 11 12  1  0
 12 13  1  0
 10 14  1  0
 13 14  1  0
 14 15  1  1
 15 16  2  0
 15 17  1  0
 17 18  1  0
 17 19  1  0
 19 20  1  0
 19 21  1  0
  7 22  1  0
  4 23  1  0
 22 23  1  0
M  END
