piperidine-amides-26865-covalent
     RDKit          3D

 24 26  0  0  0  0  0  0  0  0999 V2000
    6.9980   -3.3320   19.3030 C   0  0  0  0  0  0  0  0  0  0  0  0
    6.2620   -4.1330   20.2790 C   0  0  0  0  0  0  0  0  0  0  0  0
    5.2050   -4.6770   19.8950 O   0  0  0  0  0  0  0  0  0  0  0  0
    6.7550   -4.3070   21.5560 N   0  0  0  0  0  0  0  0  0  0  0  0
    6.3850   -5.4590   22.3430 C   0  0  0  0  0  0  0  0  0  0  0  0
    5.6690   -4.9540   23.5490 C   0  0  0  0  0  0  0  0  0  0  0  0
    5.4240   -3.4610   23.4900 C   0  0  0  0  0  0  0  0  0  0  0  0
    4.9730   -2.9740   24.8050 C   0  0  0  0  0  0  0  0  0  0  0  0
    3.9470   -2.2780   24.8710 O   0  0  0  0  0  0  0  0  0  0  0  0
    5.6160   -3.2660   25.9810 N   0  0  0  0  0  0  0  0  0  0  0  0
    5.1660   -2.6350   27.2420 C   0  0  0  0  0  0  0  0  0  0  0  0
    4.9650   -3.5360   28.4400 C   0  0  0  0  0  0  0  0  0  0  0  0
    5.4050   -4.7750   28.4150 C   0  0  0  0  0  0  0  0  0  0  0  0
    6.3670   -5.0340   27.5220 C   0  0  0  0  0  0  0  0  0  0  0  0
    7.1690   -6.0140   27.8510 C   0  0  0  0  0  0  0  0  0  0  0  0
    6.6770   -6.7230   29.3590 Cl  0  0  0  0  0  0  0  0  0  0  0  0
    8.2090   -6.3420   27.0230 C   0  0  0  0  0  0  0  0  0  0  0  0
    8.4240   -5.7140   25.8590 C   0  0  0  0  0  0  0  0  0  0  0  0
    7.5210   -4.6160   25.4510 C   0  0  0  0  0  0  0  0  0  0  0  0
    7.7510   -3.9810   24.2680 O   0  0  0  0  0  0  0  0  0  0  0  0
    8.8940   -3.3600   23.7870 C   0  0  0  0  0  0  0  0  0  0  0  0
    6.5070   -4.3300   26.3560 C   0  0  0  0  0  0  0  0  0  0  0  0
    6.6170   -2.6260   23.0820 C   0  0  0  0  0  0  0  0  0  0  0  0
    7.4960   -3.2440   22.2240 C   0  0  0  0  0  0  0  0  0  0  0  0
  1  2  1  0
  2  3  2  0
  2  4  1  0
  4  5  1  0
  5  6  1  0
  6  7  1  0
  7  8  1  0
  8  9  2  0
  8 10  1  0
 10 11  1  0
 11 12  1  0
 12 13  1  0
 13 14  1  0
 14 15  2  0
 15 16  1  0
 15 17  1  0
 17 18  2  0
 18 19  1  0
 19 20  1  0
 20 21  1  0
 10 22  1  0
 14 22  1  0
 19 22  2  0
  7 23  1  0
  4 24  1  0
 23 24  1  0
M  END
