piperidine-amides-23616-covalent
     RDKit          3D

 24 26  0  0  0  0  0  0  0  0999 V2000
    7.1080   -3.3360   19.2520 C   0  0  0  0  0  0  0  0  0  0  0  0
    6.4060   -4.1390   20.2590 C   0  0  0  0  0  0  0  0  0  0  0  0
    5.3140   -4.6510   19.9230 O   0  0  0  0  0  0  0  0  0  0  0  0
    6.9870   -4.3800   21.5240 N   0  0  0  0  0  0  0  0  0  0  0  0
    6.5070   -5.4650   22.2880 C   0  0  0  0  0  0  0  0  0  0  0  0
    6.4370   -5.2350   23.7340 C   0  0  0  0  0  0  0  0  0  0  0  0
    6.7020   -3.8720   24.2660 C   0  0  0  0  0  0  0  0  0  0  0  0
    5.7940   -3.5650   25.4170 C   0  0  0  0  0  0  0  0  0  0  0  0
    4.5980   -3.3110   25.1760 O   0  0  0  0  0  0  0  0  0  0  0  0
    6.2250   -3.5410   26.7600 N   0  0  0  0  0  0  0  0  0  0  0  0
    6.2050   -2.3670   27.5270 C   0  0  0  0  0  0  0  0  0  0  0  0
    6.4030   -2.4790   28.9480 C   0  0  0  0  0  0  0  0  0  0  0  0
    5.2950   -3.3670   29.4640 C   0  0  0  0  0  0  0  0  0  0  0  0
    4.4100   -2.9840   30.5700 N   0  0  0  0  0  0  0  0  0  0  0  0
    3.4110   -4.0070   30.9010 C   0  0  0  0  0  0  0  0  0  0  0  0
    3.4090   -5.1670   30.1700 N   0  0  0  0  0  0  0  0  0  0  0  0
    4.2960   -5.5250   29.0690 C   0  0  0  0  0  0  0  0  0  0  0  0
    4.0810   -6.7210   28.5270 N   0  0  0  0  0  0  0  0  0  0  0  0
    2.9330   -7.5120   28.9430 C   0  0  0  0  0  0  0  0  0  0  0  0
    5.1880   -7.3000   28.1100 C   0  0  0  0  0  0  0  0  0  0  0  0
    5.3150   -4.5620   28.6730 C   0  0  0  0  0  0  0  0  0  0  0  0
    6.3020   -4.7280   27.5670 C   0  0  0  0  0  0  0  0  0  0  0  0
    6.6230   -2.7730   23.2150 C   0  0  0  0  0  0  0  0  0  0  0  0
    7.5730   -3.2090   22.1760 C   0  0  0  0  0  0  0  0  0  0  0  0
  1  2  1  0
  2  3  2  0
  2  4  1  0
  4  5  1  0
  5  6  1  0
  6  7  1  0
  7  8  1  0
  8  9  2  0
  8 10  1  0
 10 11  1  0
 11 12  1  0
 12 13  1  0
 13 14  2  0
 14 15  1  0
 15 16  2  0
 16 17  1  0
 17 18  1  0
 18 19  1  0
 18 20  1  0
 13 21  1  0
 17 21  2  0
 10 22  1  0
 21 22  1  0
  7 23  1  0
  4 24  1  0
 23 24  1  0
M  END
