piperidine-amides-877-covalent
     RDKit          3D

 24 25  0  0  0  0  0  0  0  0999 V2000
    7.1150   -3.2620   19.3770 C   0  0  0  0  0  0  0  0  0  0  0  0
    6.3500   -4.0300   20.3410 C   0  0  0  0  0  0  0  0  0  0  0  0
    5.3320   -4.6660   19.9240 O   0  0  0  0  0  0  0  0  0  0  0  0
    6.6910   -4.1450   21.7050 N   0  0  0  0  0  0  0  0  0  0  0  0
    7.7340   -3.1940   22.2170 C   0  0  0  0  0  0  0  0  0  0  0  0
    7.1920   -2.7190   23.6310 C   0  0  0  0  0  0  0  0  0  0  0  0
    6.3610   -3.8580   24.1540 C   0  0  0  0  0  0  0  0  0  0  0  0
    5.7050   -3.5410   25.5740 C   0  0  0  0  0  0  0  0  0  0  0  0
    4.9490   -4.4480   25.8650 O   0  0  0  0  0  0  0  0  0  0  0  0
    6.0800   -2.4270   26.0720 N   0  0  0  0  0  0  0  0  0  0  0  0
    6.2750   -1.2200   26.6880 C   0  0  0  0  0  0  0  0  0  0  0  0
    5.8340    0.1220   26.5490 C   0  0  0  0  0  0  0  0  0  0  0  0
    6.1620    1.2340   27.3840 C   0  0  0  0  0  0  0  0  0  0  0  0
    6.2870    2.6710   27.0400 C   0  0  0  0  0  0  0  0  0  0  0  0
    5.0270    3.2370   27.2340 F   0  0  0  0  0  0  0  0  0  0  0  0
    7.2270    3.2050   27.9180 F   0  0  0  0  0  0  0  0  0  0  0  0
    6.8250    2.9290   25.7890 F   0  0  0  0  0  0  0  0  0  0  0  0
    6.3010    0.7040   28.7340 C   0  0  0  0  0  0  0  0  0  0  0  0
    6.1400   -0.7050   28.6130 N   0  0  0  0  0  0  0  0  0  0  0  0
    5.5720   -1.3360   29.7560 C   0  0  0  0  0  0  0  0  0  0  0  0
    7.2570   -1.2630   27.9010 C   0  0  0  0  0  0  0  0  0  0  0  0
    7.7260   -1.1110   29.1720 O   0  0  0  0  0  0  0  0  0  0  0  0
    6.8200   -5.1860   23.8960 C   0  0  0  0  0  0  0  0  0  0  0  0
    6.5460   -5.3710   22.3800 C   0  0  0  0  0  0  0  0  0  0  0  0
  1  2  1  0
  2  3  2  0
  2  4  1  0
  4  5  1  0
  5  6  1  0
  6  7  1  0
  7  8  1  0
  8  9  2  0
  8 10  1  0
 10 11  1  0
 11 12  2  0
 12 13  1  0
 13 14  1  0
 14 15  1  0
 14 16  1  0
 14 17  1  0
 13 18  2  0
 18 19  1  0
 19 20  1  0
 11 21  1  0
 19 21  1  0
 21 22  2  0
  7 23  1  0
  4 24  1  0
 23 24  1  0
M  END
