piperidine-amides-8152-covalent
     RDKit          3D

 25 27  0  0  0  0  0  0  0  0999 V2000
    7.1160   -3.3600   19.3300 C   0  0  0  0  0  0  0  0  0  0  0  0
    6.4080   -4.1710   20.3070 C   0  0  0  0  0  0  0  0  0  0  0  0
    5.3490   -4.7200   19.9550 O   0  0  0  0  0  0  0  0  0  0  0  0
    6.9670   -4.3650   21.5930 N   0  0  0  0  0  0  0  0  0  0  0  0
    6.4350   -5.4210   22.3910 C   0  0  0  0  0  0  0  0  0  0  0  0
    5.5870   -4.7990   23.4620 C   0  0  0  0  0  0  0  0  0  0  0  0
    6.4810   -3.8890   24.2860 C   0  0  0  0  0  0  0  0  0  0  0  0
    5.6950   -3.3080   25.4240 C   0  0  0  0  0  0  0  0  0  0  0  0
    4.5540   -2.9510   25.1430 O   0  0  0  0  0  0  0  0  0  0  0  0
    6.2790   -3.2050   26.6840 N   0  0  0  0  0  0  0  0  0  0  0  0
    5.9450   -2.1670   27.6110 C   0  0  0  0  0  0  0  0  0  0  0  0
    4.6250   -1.8940   28.0170 C   0  0  0  0  0  0  0  0  0  0  0  0
    4.3510   -0.8730   28.9160 C   0  0  0  0  0  0  0  0  0  0  0  0
    3.0800   -0.5200   29.3860 C   0  0  0  0  0  0  0  0  0  0  0  0
    1.9520   -1.3430   28.8460 C   0  0  0  0  0  0  0  0  0  0  0  0
    0.5310   -0.9810   29.3450 C   0  0  0  0  0  0  0  0  0  0  0  0
    0.3770   -1.2680   30.6840 F   0  0  0  0  0  0  0  0  0  0  0  0
   -0.4030   -1.7120   28.5940 F   0  0  0  0  0  0  0  0  0  0  0  0
    0.1900    0.3480   29.0970 F   0  0  0  0  0  0  0  0  0  0  0  0
    2.1970   -2.3560   27.9590 C   0  0  0  0  0  0  0  0  0  0  0  0
    3.5870   -2.6610   27.5110 C   0  0  0  0  0  0  0  0  0  0  0  0
    6.9210   -1.0090   27.6650 C   0  0  0  0  0  0  0  0  0  0  0  0
    6.0030   -0.7520   26.8970 C   0  0  0  0  0  0  0  0  0  0  0  0
    6.9400   -2.7640   23.4120 C   0  0  0  0  0  0  0  0  0  0  0  0
    7.6470   -3.2360   22.1800 C   0  0  0  0  0  0  0  0  0  0  0  0
  1  2  1  0
  2  3  2  0
  2  4  1  0
  4  5  1  0
  5  6  1  0
  6  7  1  0
  7  8  1  0
  8  9  2  0
  8 10  1  0
 11 10  1  0
 11 12  1  0
 12 13  2  0
 13 14  1  0
 14 15  2  0
 15 16  1  0
 16 17  1  0
 16 18  1  0
 16 19  1  0
 15 20  1  0
 12 21  1  0
 20 21  2  0
 11 22  1  0
 11 23  1  0
 22 23  1  0
  7 24  1  0
  4 25  1  0
 24 25  1  0
M  END
