piperidine-amides-4034-covalent
     RDKit          3D

 28 30  0  0  0  0  0  0  0  0999 V2000
    7.1010   -3.2970   19.2450 C   0  0  0  0  0  0  0  0  0  0  0  0
    6.3800   -4.0930   20.2550 C   0  0  0  0  0  0  0  0  0  0  0  0
    5.3000   -4.6130   19.9020 O   0  0  0  0  0  0  0  0  0  0  0  0
    6.9080   -4.3140   21.5480 N   0  0  0  0  0  0  0  0  0  0  0  0
    7.6200   -3.2370   22.1560 C   0  0  0  0  0  0  0  0  0  0  0  0
    7.1640   -2.8590   23.4830 C   0  0  0  0  0  0  0  0  0  0  0  0
    6.4610   -3.9190   24.2240 C   0  0  0  0  0  0  0  0  0  0  0  0
    5.6110   -3.3330   25.3090 C   0  0  0  0  0  0  0  0  0  0  0  0
    4.4140   -3.0890   25.0810 O   0  0  0  0  0  0  0  0  0  0  0  0
    6.1330   -3.0490   26.5840 N   0  0  0  0  0  0  0  0  0  0  0  0
    6.3990   -1.7900   27.1840 C   0  0  0  0  0  0  0  0  0  0  0  0
    6.4270   -1.8650   28.6330 C   0  0  0  0  0  0  0  0  0  0  0  0
    6.9950   -0.5740   29.2230 C   0  0  0  0  0  0  0  0  0  0  0  0
    6.0290    0.4510   28.8280 N   0  0  0  0  0  0  0  0  0  0  0  0
    5.2310    0.7700   29.9780 C   0  0  0  0  0  0  0  0  0  0  0  0
    5.8740    1.9780   30.6610 C   0  0  0  0  0  0  0  0  0  0  0  0
    4.9060    2.8960   31.0670 O   0  0  0  0  0  0  0  0  0  0  0  0
    4.8730    2.9730   32.4590 C   0  0  0  0  0  0  0  0  0  0  0  0
    4.5200    1.6990   33.2230 C   0  0  0  0  0  0  0  0  0  0  0  0
    4.4430    1.6180   34.7130 C   0  0  0  0  0  0  0  0  0  0  0  0
    4.7430    2.9130   35.4420 C   0  0  0  0  0  0  0  0  0  0  0  0
    4.6950    2.9310   36.8050 F   0  0  0  0  0  0  0  0  0  0  0  0
    5.1040    4.2120   34.6760 C   0  0  0  0  0  0  0  0  0  0  0  0
    5.1380    4.1240   33.1810 C   0  0  0  0  0  0  0  0  0  0  0  0
    5.2330    0.1450   27.6880 C   0  0  0  0  0  0  0  0  0  0  0  0
    5.7810   -0.6580   26.6940 C   0  0  0  0  0  0  0  0  0  0  0  0
    5.6390   -4.8070   23.3570 C   0  0  0  0  0  0  0  0  0  0  0  0
    6.4200   -5.3870   22.3690 C   0  0  0  0  0  0  0  0  0  0  0  0
  1  2  1  0
  2  3  2  0
  2  4  1  0
  4  5  1  0
  5  6  1  0
  6  7  1  0
  7  8  1  0
  8  9  2  0
  8 10  1  0
 10 11  1  0
 11 12  1  0
 12 13  1  0
 13 14  1  0
 14 15  1  0
 15 16  1  0
 16 17  1  0
 17 18  1  0
 18 19  2  0
 19 20  1  0
 20 21  2  0
 21 22  1  0
 21 23  1  0
 18 24  1  0
 23 24  2  0
 14 25  1  0
 11 26  1  0
 25 26  1  0
  7 27  1  0
  4 28  1  0
 27 28  1  0
M  END
