piperidine-amides-29470-covalent
     RDKit          3D

 27 30  0  0  0  0  0  0  0  0999 V2000
    7.1000   -3.2950   19.2780 C   0  0  0  0  0  0  0  0  0  0  0  0
    6.3570   -4.0490   20.2850 C   0  0  0  0  0  0  0  0  0  0  0  0
    5.3110   -4.6160   19.9160 O   0  0  0  0  0  0  0  0  0  0  0  0
    6.8460   -4.1690   21.6170 N   0  0  0  0  0  0  0  0  0  0  0  0
    7.6270   -3.0860   22.1800 C   0  0  0  0  0  0  0  0  0  0  0  0
    7.3230   -2.8930   23.6500 C   0  0  0  0  0  0  0  0  0  0  0  0
    5.9700   -3.5180   23.8900 C   0  0  0  0  0  0  0  0  0  0  0  0
    5.3670   -3.2230   25.2370 C   0  0  0  0  0  0  0  0  0  0  0  0
    4.4580   -3.9770   25.5550 O   0  0  0  0  0  0  0  0  0  0  0  0
    5.7940   -2.1690   26.0490 N   0  0  0  0  0  0  0  0  0  0  0  0
    6.4930   -2.4700   27.2040 C   0  0  0  0  0  0  0  0  0  0  0  0
    5.4870   -1.9800   27.9720 C   0  0  0  0  0  0  0  0  0  0  0  0
    4.5520   -2.8140   28.5280 C   0  0  0  0  0  0  0  0  0  0  0  0
    5.7540   -0.9680   28.9970 C   0  0  0  0  0  0  0  0  0  0  0  0
    5.8800    0.4430   28.7290 N   0  0  0  0  0  0  0  0  0  0  0  0
    6.1210    1.0090   29.9080 N   0  0  0  0  0  0  0  0  0  0  0  0
    6.1360   -0.0400   30.8400 C   0  0  0  0  0  0  0  0  0  0  0  0
    6.3820    0.0400   32.3660 C   0  0  0  0  0  0  0  0  0  0  0  0
    7.8160    0.1580   32.7720 C   0  0  0  0  0  0  0  0  0  0  0  0
    8.0500    0.2220   34.2590 C   0  0  0  0  0  0  0  0  0  0  0  0
    6.8010    0.1620   35.1520 C   0  0  0  0  0  0  0  0  0  0  0  0
    5.5490    0.0600   34.7010 N   0  0  0  0  0  0  0  0  0  0  0  0
    5.3090   -0.0060   33.2600 C   0  0  0  0  0  0  0  0  0  0  0  0
    5.9160   -1.2820   30.3570 O   0  0  0  0  0  0  0  0  0  0  0  0
    4.7230   -1.4290   26.7300 C   0  0  0  0  0  0  0  0  0  0  0  0
    6.0140   -5.0010   23.7210 C   0  0  0  0  0  0  0  0  0  0  0  0
    6.6030   -5.3520   22.3890 C   0  0  0  0  0  0  0  0  0  0  0  0
  1  2  1  0
  2  3  2  0
  2  4  1  0
  4  5  1  0
  5  6  1  0
  6  7  1  0
  7  8  1  0
  8  9  2  0
  8 10  1  0
 10 11  1  0
 11 12  1  0
 12 13  1  0
 12 14  1  0
 14 15  2  0
 15 16  1  0
 16 17  2  0
 17 18  1  0
 18 19  2  0
 19 20  1  0
 20 21  2  0
 21 22  1  0
 18 23  1  0
 22 23  2  0
 14 24  1  0
 17 24  1  0
 10 25  1  0
 12 25  1  0
  7 26  1  0
  4 27  1  0
 26 27  1  0
M  END
