piperidine-amides-6360-covalent
     RDKit          3D

 25 26  0  0  0  0  0  0  0  0999 V2000
    7.0320   -3.2930   19.3120 C   0  0  0  0  0  0  0  0  0  0  0  0
    6.3320   -4.1070   20.3270 C   0  0  0  0  0  0  0  0  0  0  0  0
    5.3620   -4.8120   19.9730 O   0  0  0  0  0  0  0  0  0  0  0  0
    6.7450   -4.1470   21.6760 N   0  0  0  0  0  0  0  0  0  0  0  0
    6.6440   -5.4170   22.3730 C   0  0  0  0  0  0  0  0  0  0  0  0
    6.1460   -5.1660   23.8100 C   0  0  0  0  0  0  0  0  0  0  0  0
    6.0210   -3.6740   24.0080 C   0  0  0  0  0  0  0  0  0  0  0  0
    5.5850   -3.3400   25.3900 C   0  0  0  0  0  0  0  0  0  0  0  0
    4.3550   -3.2560   25.5840 O   0  0  0  0  0  0  0  0  0  0  0  0
    6.5050   -3.1240   26.4520 N   0  0  0  0  0  0  0  0  0  0  0  0
    6.3600   -3.7810   27.7410 C   0  0  2  0  0  0  0  0  0  0  0  0
    5.6700   -5.1220   27.5570 C   0  0  0  0  0  0  0  0  0  0  0  0
    5.7120   -2.8730   28.7060 C   0  0  0  0  0  0  0  0  0  0  0  0
    6.1300   -1.6320   29.1040 C   0  0  0  0  0  0  0  0  0  0  0  0
    5.4240   -0.8690   30.0340 C   0  0  0  0  0  0  0  0  0  0  0  0
    4.2580   -1.3340   30.6050 C   0  0  0  0  0  0  0  0  0  0  0  0
    3.3880   -0.6180   31.6220 C   0  0  0  0  0  0  0  0  0  0  0  0
    3.0320    0.5600   31.5760 O   0  0  0  0  0  0  0  0  0  0  0  0
    2.9720   -1.3670   32.6770 O   0  0  0  0  0  0  0  0  0  0  0  0
    3.9760   -1.5740   33.5960 C   0  0  0  0  0  0  0  0  0  0  0  0
    3.7770   -2.5580   30.2640 C   0  0  0  0  0  0  0  0  0  0  0  0
    2.5420   -3.0600   30.8680 C   0  0  0  0  0  0  0  0  0  0  0  0
    4.4440   -3.3670   29.3350 C   0  0  0  0  0  0  0  0  0  0  0  0
    7.3780   -3.0450   23.7090 C   0  0  0  0  0  0  0  0  0  0  0  0
    7.6310   -3.1290   22.2220 C   0  0  0  0  0  0  0  0  0  0  0  0
  1  2  1  0
  2  3  2  0
  2  4  1  0
  4  5  1  0
  5  6  1  0
  6  7  1  0
  7  8  1  0
  8  9  2  0
  8 10  1  0
 10 11  1  0
 11 12  1  6
 11 13  1  0
 13 14  2  0
 14 15  1  0
 15 16  2  0
 16 17  1  0
 17 18  2  0
 17 19  1  0
 19 20  1  0
 16 21  1  0
 21 22  1  0
 13 23  1  0
 21 23  2  0
  7 24  1  0
  4 25  1  0
 24 25  1  0
M  END
