piperidine-amides-8715-covalent
     RDKit          3D

 23 25  0  0  0  0  0  0  0  0999 V2000
    7.0610   -3.3070   19.2930 C   0  0  0  0  0  0  0  0  0  0  0  0
    6.3820   -4.1190   20.3020 C   0  0  0  0  0  0  0  0  0  0  0  0
    5.3580   -4.7370   19.9530 O   0  0  0  0  0  0  0  0  0  0  0  0
    6.9070   -4.2270   21.6200 N   0  0  0  0  0  0  0  0  0  0  0  0
    7.6540   -3.1270   22.1760 C   0  0  0  0  0  0  0  0  0  0  0  0
    7.4690   -3.0800   23.6690 C   0  0  0  0  0  0  0  0  0  0  0  0
    6.0780   -3.6060   23.9360 C   0  0  0  0  0  0  0  0  0  0  0  0
    5.5940   -3.2650   25.3170 C   0  0  0  0  0  0  0  0  0  0  0  0
    4.3800   -3.1320   25.4370 O   0  0  0  0  0  0  0  0  0  0  0  0
    6.5150   -3.1170   26.3470 N   0  0  0  0  0  0  0  0  0  0  0  0
    6.2270   -3.4800   27.7020 C   0  0  0  0  0  0  0  0  0  0  0  0
    5.1890   -4.4040   27.8790 C   0  0  0  0  0  0  0  0  0  0  0  0
    3.9380   -4.3370   27.5240 O   0  0  0  0  0  0  0  0  0  0  0  0
    3.1520   -5.4420   27.8640 C   0  0  0  0  0  0  0  0  0  0  0  0
    1.7960   -5.7370   27.6630 C   0  0  0  0  0  0  0  0  0  0  0  0
    1.3250   -7.0800   28.2060 C   0  0  0  0  0  0  0  0  0  0  0  0
    2.3020   -8.0450   28.9310 C   0  0  0  0  0  0  0  0  0  0  0  0
    3.6970   -7.6320   29.0810 C   0  0  0  0  0  0  0  0  0  0  0  0
    3.9630   -6.3070   28.4960 C   0  0  0  0  0  0  0  0  0  0  0  0
    5.2890   -5.6340   28.5040 C   0  0  0  0  0  0  0  0  0  0  0  0
    6.5720   -5.8690   28.9450 C   0  0  0  0  0  0  0  0  0  0  0  0
    6.1500   -5.0880   23.7610 C   0  0  0  0  0  0  0  0  0  0  0  0
    6.5750   -5.4290   22.3540 C   0  0  0  0  0  0  0  0  0  0  0  0
  1  2  1  0
  2  3  2  0
  2  4  1  0
  4  5  1  0
  5  6  1  0
  6  7  1  0
  7  8  1  0
  8  9  2  0
  8 10  1  0
 10 11  1  0
 11 12  1  0
 12 13  1  0
 13 14  1  0
 14 15  2  0
 15 16  1  0
 16 17  2  0
 17 18  1  0
 14 19  1  0
 18 19  2  0
 12 20  2  0
 19 20  1  0
 20 21  1  0
  7 22  1  0
  4 23  1  0
 22 23  1  0
M  END
