piperidine-amides-19334-covalent
     RDKit          3D

 22 23  0  0  0  0  0  0  0  0999 V2000
    7.0820   -3.3310   19.2170 C   0  0  0  0  0  0  0  0  0  0  0  0
    6.3490   -4.0280   20.2500 C   0  0  0  0  0  0  0  0  0  0  0  0
    5.2690   -4.5980   19.9050 O   0  0  0  0  0  0  0  0  0  0  0  0
    6.8020   -4.1570   21.5820 N   0  0  0  0  0  0  0  0  0  0  0  0
    6.6010   -5.4540   22.2570 C   0  0  0  0  0  0  0  0  0  0  0  0
    5.7170   -4.9560   23.4560 C   0  0  0  0  0  0  0  0  0  0  0  0
    6.5880   -3.9750   24.2160 C   0  0  0  0  0  0  0  0  0  0  0  0
    5.8590   -3.4860   25.5430 C   0  0  0  0  0  0  0  0  0  0  0  0
    4.6410   -3.5620   25.4200 O   0  0  0  0  0  0  0  0  0  0  0  0
    6.7440   -3.1330   26.3980 N   0  0  0  0  0  0  0  0  0  0  0  0
    7.4380   -2.3170   27.2320 C   0  0  0  0  0  0  0  0  0  0  0  0
    7.1210   -1.4570   28.2470 C   0  0  0  0  0  0  0  0  0  0  0  0
    7.8960   -1.2800   29.3960 C   0  0  0  0  0  0  0  0  0  0  0  0
    7.6510   -0.3880   30.5450 C   0  0  0  0  0  0  0  0  0  0  0  0
    6.3350    0.4070   30.3420 C   0  0  0  0  0  0  0  0  0  0  0  0
    5.6120    0.1690   29.1520 C   0  0  0  0  0  0  0  0  0  0  0  0
    5.8970   -0.6970   28.0870 N   0  0  0  0  0  0  0  0  0  0  0  0
    7.5580   -4.2530   26.8500 C   0  0  0  0  0  0  0  0  0  0  0  0
    6.5900   -5.4330   26.7700 C   0  0  0  0  0  0  0  0  0  0  0  0
    8.0140   -4.1860   28.3110 C   0  0  0  0  0  0  0  0  0  0  0  0
    6.9800   -2.7710   23.3340 C   0  0  0  0  0  0  0  0  0  0  0  0
    7.6670   -3.1810   22.2270 C   0  0  0  0  0  0  0  0  0  0  0  0
  1  2  1  0
  2  3  2  0
  2  4  1  0
  4  5  1  0
  5  6  1  0
  6  7  1  0
  7  8  1  0
  8  9  2  0
  8 10  1  0
 10 11  1  0
 11 12  1  0
 12 13  2  0
 13 14  1  0
 14 15  2  0
 15 16  1  0
 12 17  1  0
 16 17  2  0
 10 18  1  0
 18 19  1  0
 18 20  1  0
  7 21  1  0
  4 22  1  0
 21 22  1  0
M  END
