piperidine-amides-12234-covalent
     RDKit          3D

 25 26  0  0  0  0  0  0  0  0999 V2000
    7.1450   -3.2730   19.2200 C   0  0  0  0  0  0  0  0  0  0  0  0
    6.3180   -3.9820   20.1840 C   0  0  0  0  0  0  0  0  0  0  0  0
    5.2470   -4.4820   19.8550 O   0  0  0  0  0  0  0  0  0  0  0  0
    6.7980   -4.1420   21.5190 N   0  0  0  0  0  0  0  0  0  0  0  0
    6.5030   -5.3330   22.2620 C   0  0  0  0  0  0  0  0  0  0  0  0
    5.8410   -4.9520   23.5540 C   0  0  0  0  0  0  0  0  0  0  0  0
    6.7140   -3.9150   24.2500 C   0  0  0  0  0  0  0  0  0  0  0  0
    6.0090   -3.4100   25.4530 C   0  0  0  0  0  0  0  0  0  0  0  0
    4.8680   -2.8970   25.3960 O   0  0  0  0  0  0  0  0  0  0  0  0
    6.6730   -3.5210   26.6960 N   0  0  0  0  0  0  0  0  0  0  0  0
    7.5350   -4.6590   26.9090 C   0  0  0  0  0  0  0  0  0  0  0  0
    6.9390   -5.5240   27.9930 C   0  0  0  0  0  0  0  0  0  0  0  0
    5.5770   -5.7210   28.0760 C   0  0  2  0  0  0  0  0  0  0  0  0
    4.8300   -6.1170   26.9640 C   0  0  0  0  0  0  0  0  0  0  0  0
    4.9380   -4.8950   29.0670 N   0  0  0  0  0  0  0  0  0  0  0  0
    5.4870   -3.6030   29.0520 C   0  0  0  0  0  0  0  0  0  0  0  0
    3.8650   -5.2070   29.9600 C   0  0  0  0  0  0  0  0  0  0  0  0
    4.2940   -6.0370   30.9710 C   0  0  0  0  0  0  0  0  0  0  0  0
    5.3360   -6.9390   30.8430 C   0  0  0  0  0  0  0  0  0  0  0  0
    5.7310   -7.7520   31.8900 C   0  0  0  0  0  0  0  0  0  0  0  0
    5.0090   -7.6330   33.1560 C   0  0  0  0  0  0  0  0  0  0  0  0
    3.9660   -6.7370   33.3040 C   0  0  0  0  0  0  0  0  0  0  0  0
    3.6320   -5.9570   32.1990 C   0  0  0  0  0  0  0  0  0  0  0  0
    6.9710   -2.7170   23.3730 C   0  0  0  0  0  0  0  0  0  0  0  0
    7.6810   -3.1720   22.1020 C   0  0  0  0  0  0  0  0  0  0  0  0
  1  2  1  0
  2  3  2  0
  2  4  1  0
  4  5  1  0
  5  6  1  0
  6  7  1  0
  7  8  1  0
  8  9  2  0
  8 10  1  0
 10 11  1  0
 11 12  1  0
 12 13  1  0
 13 14  1  6
 13 15  1  0
 15 16  1  0
 15 17  1  0
 17 18  1  0
 18 19  2  0
 19 20  1  0
 20 21  2  0
 21 22  1  0
 18 23  1  0
 22 23  2  0
  7 24  1  0
  4 25  1  0
 24 25  1  0
M  END
