piperidine-amides-23699-covalent
     RDKit          3D

 23 25  0  0  0  0  0  0  0  0999 V2000
    7.1280   -3.3990   19.3280 C   0  0  0  0  0  0  0  0  0  0  0  0
    6.4440   -4.2150   20.3370 C   0  0  0  0  0  0  0  0  0  0  0  0
    5.3740   -4.7700   19.9750 O   0  0  0  0  0  0  0  0  0  0  0  0
    7.0200   -4.4140   21.6200 N   0  0  0  0  0  0  0  0  0  0  0  0
    6.4800   -5.4160   22.4560 C   0  0  0  0  0  0  0  0  0  0  0  0
    6.1140   -4.9550   23.8060 C   0  0  0  0  0  0  0  0  0  0  0  0
    6.6660   -3.6590   24.3280 C   0  0  0  0  0  0  0  0  0  0  0  0
    5.7390   -3.0590   25.3490 C   0  0  0  0  0  0  0  0  0  0  0  0
    4.9150   -2.2380   24.9210 O   0  0  0  0  0  0  0  0  0  0  0  0
    5.6560   -3.3390   26.7400 N   0  0  0  0  0  0  0  0  0  0  0  0
    4.3970   -3.1980   27.3460 C   0  0  0  0  0  0  0  0  0  0  0  0
    4.0560   -4.4920   27.8110 C   0  0  2  0  0  0  0  0  0  0  0  0
    3.0680   -4.6680   28.9350 C   0  0  0  0  0  0  0  0  0  0  0  0
    3.7530   -4.7500   30.1180 C   0  0  0  0  0  0  0  0  0  0  0  0
    4.8810   -5.7100   29.5500 C   0  0  0  0  0  0  0  0  0  0  0  0
    5.2610   -4.7730   28.4870 C   0  0  2  0  0  0  0  0  0  0  0  0
    5.8770   -6.0290   27.8760 C   0  0  0  0  0  0  0  0  0  0  0  0
    6.1930   -6.0700   26.5560 F   0  0  0  0  0  0  0  0  0  0  0  0
    7.0030   -6.2200   28.6600 F   0  0  0  0  0  0  0  0  0  0  0  0
    4.9940   -7.0630   28.1570 F   0  0  0  0  0  0  0  0  0  0  0  0
    6.2420   -4.3970   27.5510 C   0  0  0  0  0  0  0  0  0  0  0  0
    6.9520   -2.6440   23.2450 C   0  0  0  0  0  0  0  0  0  0  0  0
    7.7850   -3.3550   22.1940 C   0  0  0  0  0  0  0  0  0  0  0  0
  1  2  1  0
  2  3  2  0
  2  4  1  0
  4  5  1  0
  5  6  1  0
  6  7  1  0
  7  8  1  0
  8  9  2  0
  8 10  1  0
 10 11  1  0
 12 11  1  1
 12 13  1  0
 13 14  1  0
 14 15  1  0
 12 16  1  0
 16 15  1  0
 16 17  1  6
 17 18  1  0
 17 19  1  0
 17 20  1  0
 10 21  1  0
 16 21  1  0
  7 22  1  0
  4 23  1  0
 22 23  1  0
M  END
