piperidine-amides-24802-covalent
     RDKit          3D

 24 26  0  0  0  0  0  0  0  0999 V2000
    7.0760   -3.3390   19.3550 C   0  0  0  0  0  0  0  0  0  0  0  0
    6.4220   -4.2230   20.3370 C   0  0  0  0  0  0  0  0  0  0  0  0
    5.4220   -4.8950   19.9960 O   0  0  0  0  0  0  0  0  0  0  0  0
    6.9380   -4.3490   21.6380 N   0  0  0  0  0  0  0  0  0  0  0  0
    6.6160   -5.5460   22.4010 C   0  0  0  0  0  0  0  0  0  0  0  0
    6.3090   -5.1380   23.8600 C   0  0  0  0  0  0  0  0  0  0  0  0
    6.3220   -3.6270   23.8890 C   0  0  0  0  0  0  0  0  0  0  0  0
    5.9400   -3.0100   25.1700 C   0  0  0  0  0  0  0  0  0  0  0  0
    5.5500   -1.8320   25.1230 O   0  0  0  0  0  0  0  0  0  0  0  0
    5.9290   -3.6810   26.3950 N   0  0  0  0  0  0  0  0  0  0  0  0
    4.6290   -3.6470   26.9700 C   0  0  0  0  0  0  0  0  0  0  0  0
    4.4830   -4.8330   27.8540 C   0  0  0  0  0  0  0  0  0  0  0  0
    5.1750   -4.7790   28.9800 C   0  0  0  0  0  0  0  0  0  0  0  0
    6.4360   -4.4720   28.6000 C   0  0  0  0  0  0  0  0  0  0  0  0
    6.3600   -3.3550   27.7510 C   0  0  0  0  0  0  0  0  0  0  0  0
    4.4570   -4.0090   29.9520 C   0  0  1  0  0  0  0  0  0  0  0  0
    3.5150   -3.4570   29.1570 O   0  0  0  0  0  0  0  0  0  0  0  0
    2.4920   -2.6050   29.4340 C   0  0  0  0  0  0  0  0  0  0  0  0
    4.0980   -5.2350   30.6800 C   0  0  0  0  0  0  0  0  0  0  0  0
    4.9460   -5.9100   29.6950 C   0  0  1  0  0  0  0  0  0  0  0  0
    4.3550   -6.9030   28.9480 O   0  0  0  0  0  0  0  0  0  0  0  0
    4.0000   -8.0540   29.6320 C   0  0  0  0  0  0  0  0  0  0  0  0
    7.6690   -3.1560   23.4890 C   0  0  0  0  0  0  0  0  0  0  0  0
    7.7780   -3.3040   22.1550 C   0  0  0  0  0  0  0  0  0  0  0  0
  1  2  1  0
  2  3  2  0
  2  4  1  0
  4  5  1  0
  5  6  1  0
  6  7  1  0
  7  8  1  0
  8  9  2  0
  8 10  1  0
 10 11  1  0
 11 12  1  0
 13 12  1  0
 13 14  1  0
 10 15  1  0
 14 15  1  0
 13 16  1  0
 16 17  1  6
 17 18  1  0
 16 19  1  0
 13 20  1  0
 19 20  1  0
 20 21  1  6
 21 22  1  0
  7 23  1  0
  4 24  1  0
 23 24  1  0
M  END
