piperidine-amides-2140-covalent
     RDKit          3D

 22 24  0  0  0  0  0  0  0  0999 V2000
    7.0420   -3.3300   19.3340 C   0  0  0  0  0  0  0  0  0  0  0  0
    6.3760   -4.2030   20.3350 C   0  0  0  0  0  0  0  0  0  0  0  0
    5.3730   -4.8100   19.9670 O   0  0  0  0  0  0  0  0  0  0  0  0
    6.9080   -4.3370   21.6200 N   0  0  0  0  0  0  0  0  0  0  0  0
    7.6500   -3.2660   22.2380 C   0  0  0  0  0  0  0  0  0  0  0  0
    6.8760   -2.7540   23.4180 C   0  0  0  0  0  0  0  0  0  0  0  0
    6.4300   -3.9280   24.2890 C   0  0  0  0  0  0  0  0  0  0  0  0
    5.6760   -3.4010   25.4640 C   0  0  0  0  0  0  0  0  0  0  0  0
    4.4350   -3.3640   25.4450 O   0  0  0  0  0  0  0  0  0  0  0  0
    6.3380   -2.9380   26.6310 N   0  0  0  0  0  0  0  0  0  0  0  0
    6.4390   -1.4950   26.9390 C   0  0  2  0  0  0  0  0  0  0  0  0
    6.6350   -1.4470   28.5750 C   0  0  0  0  0  0  0  0  0  0  0  0
    6.4850   -0.1290   28.8670 C   0  0  0  0  0  0  0  0  0  0  0  0
    6.2490    0.6620   27.8390 C   0  0  0  0  0  0  0  0  0  0  0  0
    6.1980   -0.0050   26.6470 C   0  0  0  0  0  0  0  0  0  0  0  0
    6.3820   -1.5290   26.4180 C   0  0  0  0  0  0  0  0  0  0  0  0
    6.6500   -2.3560   27.6880 C   0  0  0  0  0  0  0  0  0  0  0  0
    6.3760   -0.7380   27.8210 C   0  0  0  0  0  0  0  0  0  0  0  0
    5.2810   -0.6950   26.8640 C   0  0  1  0  0  0  0  0  0  0  0  0
    5.3100    0.2770   25.8380 O   0  0  0  0  0  0  0  0  0  0  0  0
    5.6670   -4.9790   23.5260 C   0  0  0  0  0  0  0  0  0  0  0  0
    6.5590   -5.4910   22.4080 C   0  0  0  0  0  0  0  0  0  0  0  0
  1  2  1  0
  2  3  2  0
  2  4  1  0
  4  5  1  0
  5  6  1  0
  6  7  1  0
  7  8  1  0
  8  9  2  0
  8 10  1  0
 11 10  1  1
 11 12  1  0
 12 13  2  0
 13 14  1  0
 14 15  2  0
 15 16  1  0
 12 17  1  0
 16 17  2  0
 17 18  1  0
 11 19  1  0
 18 19  1  0
 19 20  1  6
  7 21  1  0
  4 22  1  0
 21 22  1  0
M  END
