piperidine-amides-5323-covalent
     RDKit          3D

 21 22  0  0  0  0  0  0  0  0999 V2000
    7.1540   -3.2540   19.1580 C   0  0  0  0  0  0  0  0  0  0  0  0
    6.3880   -3.9960   20.1840 C   0  0  0  0  0  0  0  0  0  0  0  0
    5.2840   -4.4670   19.8470 O   0  0  0  0  0  0  0  0  0  0  0  0
    6.9250   -4.1970   21.4580 N   0  0  0  0  0  0  0  0  0  0  0  0
    7.6720   -3.1600   22.0790 C   0  0  0  0  0  0  0  0  0  0  0  0
    7.2310   -2.8620   23.4280 C   0  0  0  0  0  0  0  0  0  0  0  0
    6.0240   -3.5940   23.8810 C   0  0  0  0  0  0  0  0  0  0  0  0
    5.9390   -3.4530   25.3440 C   0  0  0  0  0  0  0  0  0  0  0  0
    4.8220   -3.2160   25.8500 O   0  0  0  0  0  0  0  0  0  0  0  0
    7.1100   -3.5650   26.1190 N   0  0  0  0  0  0  0  0  0  0  0  0
    7.2980   -4.5480   27.2100 C   0  0  1  0  0  0  0  0  0  0  0  0
    7.4080   -3.7870   28.4560 C   0  0  0  0  0  0  0  0  0  0  0  0
    6.7360   -2.4920   28.5270 C   0  0  0  0  0  0  0  0  0  0  0  0
    7.2080   -1.4540   28.0380 C   0  0  0  0  0  0  0  0  0  0  0  0
    7.6820   -1.4740   29.3590 C   0  0  0  0  0  0  0  0  0  0  0  0
    6.3040   -5.5980   27.2650 C   0  0  0  0  0  0  0  0  0  0  0  0
    6.0570   -6.2040   28.5130 O   0  0  0  0  0  0  0  0  0  0  0  0
    5.5700   -6.0240   26.1530 O   0  0  0  0  0  0  0  0  0  0  0  0
    4.5040   -6.7930   26.5990 C   0  0  0  0  0  0  0  0  0  0  0  0
    5.8680   -5.0040   23.4120 C   0  0  0  0  0  0  0  0  0  0  0  0
    6.5460   -5.3380   22.2380 C   0  0  0  0  0  0  0  0  0  0  0  0
  1  2  1  0
  2  3  2  0
  2  4  1  0
  4  5  1  0
  5  6  1  0
  6  7  1  0
  7  8  1  0
  8  9  2  0
  8 10  1  0
 10 11  1  0
 11 12  1  1
 12 13  1  0
 13 14  1  0
 13 15  1  0
 14 15  1  0
 11 16  1  0
 16 17  2  0
 16 18  1  0
 18 19  1  0
  7 20  1  0
  4 21  1  0
 20 21  1  0
M  END
