piperidine-amides-33375-covalent
     RDKit          3D

 25 27  0  0  0  0  0  0  0  0999 V2000
    7.0210   -3.3860   19.3640 C   0  0  0  0  0  0  0  0  0  0  0  0
    6.3900   -4.2710   20.3590 C   0  0  0  0  0  0  0  0  0  0  0  0
    5.3550   -4.8690   19.9840 O   0  0  0  0  0  0  0  0  0  0  0  0
    6.9550   -4.4900   21.6500 N   0  0  0  0  0  0  0  0  0  0  0  0
    6.5120   -5.6210   22.3970 C   0  0  0  0  0  0  0  0  0  0  0  0
    5.8110   -5.2600   23.6310 C   0  0  0  0  0  0  0  0  0  0  0  0
    5.7740   -3.8120   23.8750 C   0  0  0  0  0  0  0  0  0  0  0  0
    5.0650   -3.3950   25.1560 C   0  0  0  0  0  0  0  0  0  0  0  0
    4.0840   -2.6470   25.0660 O   0  0  0  0  0  0  0  0  0  0  0  0
    5.4590   -3.8030   26.4460 N   0  0  0  0  0  0  0  0  0  0  0  0
    4.7400   -4.2920   27.5260 C   0  0  0  0  0  0  0  0  0  0  0  0
    3.4350   -4.1150   27.7080 N   0  0  0  0  0  0  0  0  0  0  0  0
    2.7440   -4.5400   28.6600 C   0  0  0  0  0  0  0  0  0  0  0  0
    3.7220   -5.2630   29.4930 C   0  0  0  0  0  0  0  0  0  0  0  0
    3.0820   -6.1010   31.0910 Br  0  0  0  0  0  0  0  0  0  0  0  0
    5.0970   -5.3960   29.2170 C   0  0  0  0  0  0  0  0  0  0  0  0
    6.0620   -4.8980   28.0460 C   0  0  0  0  0  0  0  0  0  0  0  0
    6.9160   -5.5920   28.8750 N   0  0  0  0  0  0  0  0  0  0  0  0
    8.0530   -5.9280   28.2580 C   0  0  0  0  0  0  0  0  0  0  0  0
    8.9050   -6.1020   27.1630 O   0  0  0  0  0  0  0  0  0  0  0  0
    7.0710   -5.3660   27.1600 C   0  0  0  0  0  0  0  0  0  0  0  0
    6.7350   -3.8380   26.9960 C   0  0  2  0  0  0  0  0  0  0  0  0
    6.8260   -3.1670   28.3720 C   0  0  0  0  0  0  0  0  0  0  0  0
    7.1900   -3.2580   23.7590 C   0  0  0  0  0  0  0  0  0  0  0  0
    7.5530   -3.3080   22.3070 C   0  0  0  0  0  0  0  0  0  0  0  0
  1  2  1  0
  2  3  2  0
  2  4  1  0
  4  5  1  0
  5  6  1  0
  6  7  1  0
  7  8  1  0
  8  9  2  0
  8 10  1  0
 10 11  1  0
 11 12  2  0
 12 13  1  0
 13 14  2  0
 14 15  1  0
 14 16  1  0
 11 17  1  0
 16 17  2  0
 17 18  1  0
 18 19  1  0
 19 20  2  0
 19 21  1  0
 10 22  1  0
 21 22  1  0
 22 23  1  1
  7 24  1  0
  4 25  1  0
 24 25  1  0
M  END
