piperidine-amides-4911-covalent
     RDKit          3D

 20 20  0  0  0  0  0  0  0  0999 V2000
    7.1040   -3.2860   19.2330 C   0  0  0  0  0  0  0  0  0  0  0  0
    6.3870   -4.0490   20.2790 C   0  0  0  0  0  0  0  0  0  0  0  0
    5.3230   -4.5910   19.9130 O   0  0  0  0  0  0  0  0  0  0  0  0
    6.8990   -4.2000   21.5870 N   0  0  0  0  0  0  0  0  0  0  0  0
    7.6910   -3.1610   22.1880 C   0  0  0  0  0  0  0  0  0  0  0  0
    7.3700   -2.8980   23.5990 C   0  0  0  0  0  0  0  0  0  0  0  0
    6.0030   -3.3190   23.9680 C   0  0  0  0  0  0  0  0  0  0  0  0
    5.6310   -3.0550   25.4010 C   0  0  0  0  0  0  0  0  0  0  0  0
    4.6430   -2.3190   25.5750 O   0  0  0  0  0  0  0  0  0  0  0  0
    6.2930   -3.5790   26.5450 N   0  0  0  0  0  0  0  0  0  0  0  0
    5.7110   -4.7300   27.2830 C   0  0  2  0  0  0  0  0  0  0  0  0
    6.4390   -5.2160   28.4880 C   0  0  0  0  0  0  0  0  0  0  0  0
    5.6820   -5.9910   29.4650 C   0  0  0  0  0  0  0  0  0  0  0  0
    5.1190   -7.1780   29.0600 C   0  0  0  0  0  0  0  0  0  0  0  0
    5.4860   -5.8150   26.3680 C   0  0  0  0  0  0  0  0  0  0  0  0
    6.2300   -5.7680   25.3110 O   0  0  0  0  0  0  0  0  0  0  0  0
    4.5280   -6.8120   26.6050 O   0  0  0  0  0  0  0  0  0  0  0  0
    3.7610   -7.2640   25.5000 C   0  0  0  0  0  0  0  0  0  0  0  0
    5.5790   -4.6650   23.4450 C   0  0  0  0  0  0  0  0  0  0  0  0
    6.4280   -5.2000   22.5070 C   0  0  0  0  0  0  0  0  0  0  0  0
  1  2  1  0
  2  3  2  0
  2  4  1  0
  4  5  1  0
  5  6  1  0
  6  7  1  0
  7  8  1  0
  8  9  2  0
  8 10  1  0
 10 11  1  0
 11 12  1  1
 12 13  1  0
 13 14  1  0
 11 15  1  0
 15 16  2  0
 15 17  1  0
 17 18  1  0
  7 19  1  0
  4 20  1  0
 19 20  1  0
M  END
