piperidine-amides-19555-covalent
     RDKit          3D

 22 24  0  0  0  0  0  0  0  0999 V2000
    7.0860   -3.3570   19.5050 C   0  0  0  0  0  0  0  0  0  0  0  0
    6.4050   -4.2130   20.4560 C   0  0  0  0  0  0  0  0  0  0  0  0
    5.4640   -4.9530   20.0130 O   0  0  0  0  0  0  0  0  0  0  0  0
    6.7690   -4.2710   21.8310 N   0  0  0  0  0  0  0  0  0  0  0  0
    6.7020   -5.6210   22.4600 C   0  0  0  0  0  0  0  0  0  0  0  0
    6.2430   -5.3130   23.9510 C   0  0  0  0  0  0  0  0  0  0  0  0
    6.2780   -3.8200   24.1090 C   0  0  0  0  0  0  0  0  0  0  0  0
    5.3660   -3.2270   25.3000 C   0  0  0  0  0  0  0  0  0  0  0  0
    4.4200   -2.6700   24.7760 O   0  0  0  0  0  0  0  0  0  0  0  0
    5.7840   -3.4450   26.5010 N   0  0  0  0  0  0  0  0  0  0  0  0
    6.4390   -3.5490   27.6470 C   0  0  0  0  0  0  0  0  0  0  0  0
    6.6870   -4.5770   28.4940 C   0  0  0  0  0  0  0  0  0  0  0  0
    5.4890   -4.8060   29.1470 C   0  0  0  0  0  0  0  0  0  0  0  0
    5.4260   -5.8720   30.1590 C   0  0  0  0  0  0  0  0  0  0  0  0
    4.1260   -5.6930   30.8840 C   0  0  0  0  0  0  0  0  0  0  0  0
    4.3780   -6.7830   31.7150 C   0  0  0  0  0  0  0  0  0  0  0  0
    5.4540   -7.4500   31.5920 O   0  0  0  0  0  0  0  0  0  0  0  0
    6.1830   -6.9420   30.6190 N   0  0  0  0  0  0  0  0  0  0  0  0
    4.8900   -5.1580   27.8120 C   0  0  0  0  0  0  0  0  0  0  0  0
    4.6840   -3.6810   27.4010 C   0  0  0  0  0  0  0  0  0  0  0  0
    7.6060   -3.2560   23.7450 C   0  0  0  0  0  0  0  0  0  0  0  0
    7.6590   -3.2580   22.3650 C   0  0  0  0  0  0  0  0  0  0  0  0
  1  2  1  0
  2  3  2  0
  2  4  1  0
  4  5  1  0
  5  6  1  0
  6  7  1  0
  7  8  1  0
  8  9  2  0
  8 10  1  0
 10 11  1  0
 11 12  1  0
 12 13  1  0
 13 14  1  0
 14 15  1  0
 15 16  2  0
 16 17  1  0
 14 18  2  0
 17 18  1  0
 13 19  1  0
 10 20  1  0
 19 20  1  0
  7 21  1  0
  4 22  1  0
 21 22  1  0
M  END
