piperidine-amides-17179-covalent
     RDKit          3D

 20 21  0  0  0  0  0  0  0  0999 V2000
    7.0770   -3.3600   19.2900 C   0  0  0  0  0  0  0  0  0  0  0  0
    6.3250   -4.1470   20.2770 C   0  0  0  0  0  0  0  0  0  0  0  0
    5.2440   -4.6460   19.9060 O   0  0  0  0  0  0  0  0  0  0  0  0
    6.8470   -4.3750   21.5660 N   0  0  0  0  0  0  0  0  0  0  0  0
    6.3160   -5.4430   22.3400 C   0  0  0  0  0  0  0  0  0  0  0  0
    5.7510   -5.0320   23.6310 C   0  0  0  0  0  0  0  0  0  0  0  0
    6.4470   -3.9130   24.3050 C   0  0  0  0  0  0  0  0  0  0  0  0
    5.6800   -3.4170   25.5120 C   0  0  0  0  0  0  0  0  0  0  0  0
    4.5400   -2.9550   25.3280 O   0  0  0  0  0  0  0  0  0  0  0  0
    6.1750   -3.4600   26.8480 N   0  0  0  0  0  0  0  0  0  0  0  0
    5.4670   -3.9870   27.9300 C   0  0  0  0  0  0  0  0  0  0  0  0
    6.2370   -5.0320   28.5750 C   0  0  0  0  0  0  0  0  0  0  0  0
    7.6110   -4.8480   27.8850 C   0  0  0  0  0  0  0  0  0  0  0  0
    7.5670   -3.7050   27.0930 C   0  0  1  0  0  0  0  0  0  0  0  0
    8.2310   -4.4660   25.9720 C   0  0  2  0  0  0  0  0  0  0  0  0
    9.4150   -5.1260   26.2750 O   0  0  0  0  0  0  0  0  0  0  0  0
    8.4830   -3.1100   25.3750 C   0  0  0  0  0  0  0  0  0  0  0  0
    9.1780   -3.8440   24.2520 C   0  0  0  0  0  0  0  0  0  0  0  0
    6.7910   -2.7710   23.3680 C   0  0  0  0  0  0  0  0  0  0  0  0
    7.5930   -3.3240   22.2070 C   0  0  0  0  0  0  0  0  0  0  0  0
  1  2  1  0
  2  3  2  0
  2  4  1  0
  4  5  1  0
  5  6  1  0
  6  7  1  0
  7  8  1  0
  8  9  2  0
  8 10  1  0
 10 11  1  0
 11 12  1  0
 12 13  1  0
 10 14  1  0
 14 13  1  1
 14 15  1  0
 15 16  1  1
 15 17  1  0
 17 18  1  0
  7 19  1  0
  4 20  1  0
 19 20  1  0
M  END
