piperidine-amides-19827-covalent
     RDKit          3D

 22 24  0  0  0  0  0  0  0  0999 V2000
    7.0490   -3.3750   19.3610 C   0  0  0  0  0  0  0  0  0  0  0  0
    6.3330   -4.2280   20.3430 C   0  0  0  0  0  0  0  0  0  0  0  0
    5.3170   -4.7920   19.9600 O   0  0  0  0  0  0  0  0  0  0  0  0
    6.8550   -4.3990   21.6230 N   0  0  0  0  0  0  0  0  0  0  0  0
    6.6100   -5.5950   22.4070 C   0  0  0  0  0  0  0  0  0  0  0  0
    5.7570   -5.2670   23.6130 C   0  0  0  0  0  0  0  0  0  0  0  0
    5.8730   -3.7730   23.8650 C   0  0  0  0  0  0  0  0  0  0  0  0
    5.2760   -3.4000   25.1730 C   0  0  0  0  0  0  0  0  0  0  0  0
    4.5460   -2.4060   25.2130 O   0  0  0  0  0  0  0  0  0  0  0  0
    5.4890   -4.1100   26.3680 N   0  0  0  0  0  0  0  0  0  0  0  0
    6.8400   -4.2950   26.7060 C   0  0  0  0  0  0  0  0  0  0  0  0
    6.9960   -5.4130   27.7240 C   0  0  0  0  0  0  0  0  0  0  0  0
    6.3770   -5.3710   28.9360 C   0  0  2  0  0  0  0  0  0  0  0  0
    6.1920   -6.5760   29.5270 C   0  0  0  0  0  0  0  0  0  0  0  0
    5.0010   -4.8120   28.6200 C   0  0  1  0  0  0  0  0  0  0  0  0
    4.2140   -4.5990   29.8950 C   0  0  0  0  0  0  0  0  0  0  0  0
    2.9640   -5.2890   29.4120 C   0  0  0  0  0  0  0  0  0  0  0  0
    2.7820   -4.8680   27.9640 C   0  0  0  0  0  0  0  0  0  0  0  0
    3.4750   -3.5510   27.8350 C   0  0  0  0  0  0  0  0  0  0  0  0
    4.9530   -3.6740   27.6620 C   0  0  2  0  0  0  0  0  0  0  0  0
    7.2220   -3.2630   23.6320 C   0  0  0  0  0  0  0  0  0  0  0  0
    7.6420   -3.3380   22.2230 C   0  0  0  0  0  0  0  0  0  0  0  0
  1  2  1  0
  2  3  2  0
  2  4  1  0
  4  5  1  0
  5  6  1  0
  6  7  1  0
  7  8  1  0
  8  9  2  0
  8 10  1  0
 10 11  1  0
 11 12  1  0
 12 13  1  0
 13 14  1  6
 13 15  1  0
 15 16  1  1
 16 17  1  0
 17 18  1  0
 18 19  1  0
 10 20  1  0
 15 20  1  0
 20 19  1  6
  7 21  1  0
  4 22  1  0
 21 22  1  0
M  END
