piperidine-amides-2270-covalent
     RDKit          3D

 28 30  0  0  0  0  0  0  0  0999 V2000
    7.0340   -3.3350   19.3430 C   0  0  0  0  0  0  0  0  0  0  0  0
    6.3730   -4.1990   20.3570 C   0  0  0  0  0  0  0  0  0  0  0  0
    5.3980   -4.8520   19.9840 O   0  0  0  0  0  0  0  0  0  0  0  0
    6.8860   -4.2720   21.6590 N   0  0  0  0  0  0  0  0  0  0  0  0
    7.6840   -3.1950   22.2030 C   0  0  0  0  0  0  0  0  0  0  0  0
    7.3880   -3.0280   23.6670 C   0  0  0  0  0  0  0  0  0  0  0  0
    6.0040   -3.6050   23.9600 C   0  0  0  0  0  0  0  0  0  0  0  0
    5.5840   -3.2280   25.3300 C   0  0  0  0  0  0  0  0  0  0  0  0
    4.3750   -3.1290   25.5740 O   0  0  0  0  0  0  0  0  0  0  0  0
    6.5110   -2.9770   26.3510 N   0  0  0  0  0  0  0  0  0  0  0  0
    6.4360   -1.7340   27.0850 C   0  0  0  0  0  0  0  0  0  0  0  0
    7.0390   -1.5290   28.4300 C   0  0  0  0  0  0  0  0  0  0  0  0
    7.0230   -0.4020   29.1960 C   0  0  0  0  0  0  0  0  0  0  0  0
    6.3830    0.7350   28.7400 C   0  0  0  0  0  0  0  0  0  0  0  0
    5.7340    0.7980   27.5030 C   0  0  0  0  0  0  0  0  0  0  0  0
    5.0260    2.0440   27.0020 C   0  0  0  0  0  0  0  0  0  0  0  0
    5.6980    3.0570   26.3620 O   0  0  0  0  0  0  0  0  0  0  0  0
    3.7010    2.0150   27.2620 N   0  0  0  0  0  0  0  0  0  0  0  0
    3.4530    1.7750   28.5680 C   0  0  0  0  0  0  0  0  0  0  0  0
    3.7320    2.7330   29.6970 C   0  0  0  0  0  0  0  0  0  0  0  0
    3.0720    3.9960   29.2340 C   0  0  0  0  0  0  0  0  0  0  0  0
    2.1420    3.8170   28.0790 C   0  0  1  0  0  0  0  0  0  0  0  0
    1.4200    5.0130   27.4700 C   0  0  0  0  0  0  0  0  0  0  0  0
    1.0640    5.9630   28.3240 O   0  0  0  0  0  0  0  0  0  0  0  0
    2.9460    3.1950   26.9410 C   0  0  0  0  0  0  0  0  0  0  0  0
    5.7430   -0.4250   26.6450 C   0  0  0  0  0  0  0  0  0  0  0  0
    6.0830   -5.1000   23.7980 C   0  0  0  0  0  0  0  0  0  0  0  0
    6.5900   -5.4550   22.4180 C   0  0  0  0  0  0  0  0  0  0  0  0
  1  2  1  0
  2  3  2  0
  2  4  1  0
  4  5  1  0
  5  6  1  0
  6  7  1  0
  7  8  1  0
  8  9  2  0
  8 10  1  0
 10 11  1  0
 11 12  2  0
 12 13  1  0
 13 14  2  0
 14 15  1  0
 15 16  1  0
 16 17  2  0
 16 18  1  0
 18 19  1  0
 19 20  1  0
 20 21  1  0
 21 22  1  0
 22 23  1  6
 23 24  1  0
 18 25  1  0
 22 25  1  0
 11 26  1  0
 15 26  2  0
  7 27  1  0
  4 28  1  0
 27 28  1  0
M  END
