piperidine-amides-1717-covalent
     RDKit          3D

 20 21  0  0  0  0  0  0  0  0999 V2000
    7.1720   -3.2790   19.2040 C   0  0  0  0  0  0  0  0  0  0  0  0
    6.3510   -4.0120   20.1990 C   0  0  0  0  0  0  0  0  0  0  0  0
    5.2610   -4.4970   19.8640 O   0  0  0  0  0  0  0  0  0  0  0  0
    6.8780   -4.1920   21.4890 N   0  0  0  0  0  0  0  0  0  0  0  0
    7.7230   -3.2170   22.1430 C   0  0  0  0  0  0  0  0  0  0  0  0
    6.8930   -2.6400   23.2780 C   0  0  0  0  0  0  0  0  0  0  0  0
    6.4930   -3.8030   24.1110 C   0  0  0  0  0  0  0  0  0  0  0  0
    5.7610   -3.4000   25.3230 C   0  0  0  0  0  0  0  0  0  0  0  0
    4.5360   -3.2720   25.2150 O   0  0  0  0  0  0  0  0  0  0  0  0
    6.4630   -3.1750   26.5020 N   0  0  0  0  0  0  0  0  0  0  0  0
    6.0810   -3.5600   27.8050 C   0  0  1  0  0  0  0  0  0  0  0  0
    6.6970   -4.5430   28.5540 C   0  0  0  0  0  0  0  0  0  0  0  0
    6.0780   -2.2680   28.6360 C   0  0  0  0  0  0  0  0  0  0  0  0
    6.5540   -0.9090   28.2390 N   0  0  0  0  0  0  0  0  0  0  0  0
    6.4060   -0.0670   29.1480 O   0  0  0  0  0  0  0  0  0  0  0  0
    5.8480   -0.7600   30.1610 C   0  0  0  0  0  0  0  0  0  0  0  0
    5.5490   -0.1180   31.3310 O   0  0  0  0  0  0  0  0  0  0  0  0
    5.6230   -2.1160   29.9080 N   0  0  0  0  0  0  0  0  0  0  0  0
    5.6110   -4.8020   23.3880 C   0  0  0  0  0  0  0  0  0  0  0  0
    6.4910   -5.3550   22.2550 C   0  0  0  0  0  0  0  0  0  0  0  0
  1  2  1  0
  2  3  2  0
  2  4  1  0
  4  5  1  0
  5  6  1  0
  6  7  1  0
  7  8  1  0
  8  9  2  0
  8 10  1  0
 10 11  1  0
 11 12  1  1
 11 13  1  0
 13 14  2  0
 14 15  1  0
 15 16  1  0
 16 17  1  0
 13 18  1  0
 16 18  2  0
  7 19  1  0
  4 20  1  0
 19 20  1  0
M  END
