piperidine-amides-2835-covalent
     RDKit          3D

 24 26  0  0  0  0  0  0  0  0999 V2000
    7.0500   -3.3540   19.2720 C   0  0  0  0  0  0  0  0  0  0  0  0
    6.3710   -4.1670   20.2770 C   0  0  0  0  0  0  0  0  0  0  0  0
    5.3590   -4.7910   19.9690 O   0  0  0  0  0  0  0  0  0  0  0  0
    6.9070   -4.2870   21.6050 N   0  0  0  0  0  0  0  0  0  0  0  0
    7.7030   -3.2230   22.1630 C   0  0  0  0  0  0  0  0  0  0  0  0
    7.0350   -2.6690   23.3840 C   0  0  0  0  0  0  0  0  0  0  0  0
    6.5340   -3.8320   24.2170 C   0  0  0  0  0  0  0  0  0  0  0  0
    5.7550   -3.3000   25.3700 C   0  0  0  0  0  0  0  0  0  0  0  0
    4.5340   -3.0630   25.2970 O   0  0  0  0  0  0  0  0  0  0  0  0
    6.4240   -3.0570   26.5900 N   0  0  0  0  0  0  0  0  0  0  0  0
    6.3520   -1.7310   27.1700 C   0  0  0  0  0  0  0  0  0  0  0  0
    7.0080   -1.6200   28.5150 C   0  0  0  0  0  0  0  0  0  0  0  0
    7.0230   -0.4210   29.2090 C   0  0  0  0  0  0  0  0  0  0  0  0
    6.4140    0.7260   28.6570 C   0  0  0  0  0  0  0  0  0  0  0  0
    6.4560    1.9180   29.4140 N   0  0  0  0  0  0  0  0  0  0  0  0
    5.4710    2.9330   29.3510 C   0  0  0  0  0  0  0  0  0  0  0  0
    5.4530    3.6050   30.6060 C   0  0  0  0  0  0  0  0  0  0  0  0
    6.3840    3.0640   31.4070 C   0  0  2  0  0  0  0  0  0  0  0  0
    7.3530    3.7740   31.9240 O   0  0  0  0  0  0  0  0  0  0  0  0
    7.0620    2.0480   30.7480 C   0  0  0  0  0  0  0  0  0  0  0  0
    5.8030    0.6550   27.4160 C   0  0  0  0  0  0  0  0  0  0  0  0
    5.7570   -0.5850   26.6360 C   0  0  0  0  0  0  0  0  0  0  0  0
    5.7260   -4.8480   23.4220 C   0  0  0  0  0  0  0  0  0  0  0  0
    6.5470   -5.3920   22.4400 C   0  0  0  0  0  0  0  0  0  0  0  0
  1  2  1  0
  2  3  2  0
  2  4  1  0
  4  5  1  0
  5  6  1  0
  6  7  1  0
  7  8  1  0
  8  9  2  0
  8 10  1  0
 10 11  1  0
 11 12  2  0
 12 13  1  0
 13 14  2  0
 14 15  1  0
 15 16  1  0
 16 17  1  0
 17 18  1  0
 18 19  1  6
 15 20  1  0
 18 20  1  0
 14 21  1  0
 11 22  1  0
 21 22  2  0
  7 23  1  0
  4 24  1  0
 23 24  1  0
M  END
