piperidine-amides-34934-covalent
     RDKit          3D

 30 30  0  0  0  0  0  0  0  0999 V2000
    7.1830   -3.9570   19.6300 C   0  0  0  0  0  0  0  0  0  0  0  0
    5.9430   -3.7910   20.2770 C   0  0  0  0  0  0  0  0  0  0  0  0
    4.9790   -3.8710   19.5290 O   0  0  0  0  0  0  0  0  0  0  0  0
    5.9910   -3.6880   21.6480 N   0  0  0  0  0  0  0  0  0  0  0  0
    5.8070   -4.9330   22.3410 C   0  0  0  0  0  0  0  0  0  0  0  0
    5.3690   -4.6610   23.7320 C   0  0  0  0  0  0  0  0  0  0  0  0
    6.3840   -3.7410   24.4070 C   0  0  0  0  0  0  0  0  0  0  0  0
    5.7340   -3.2670   25.6510 C   0  0  0  0  0  0  0  0  0  0  0  0
    4.6220   -2.7300   25.5440 O   0  0  0  0  0  0  0  0  0  0  0  0
    6.3300   -3.3610   26.9460 N   0  0  0  0  0  0  0  0  0  0  0  0
    6.7130   -2.0500   27.4270 C   0  0  0  0  0  0  0  0  0  0  0  0
    5.7620   -4.2660   27.9390 C   0  0  2  0  0  0  0  0  0  0  0  0
    6.5410   -5.3340   28.3190 C   0  0  0  0  0  0  0  0  0  0  0  0
    6.0960   -6.5070   28.9950 N   0  0  0  0  0  0  0  0  0  0  0  0
    5.4420   -6.4950   30.2980 C   0  0  0  0  0  0  0  0  0  0  0  0
    6.2980   -6.8320   31.3270 O   0  0  0  0  0  0  0  0  0  0  0  0
    4.2460   -6.2450   30.5250 O   0  0  0  0  0  0  0  0  0  0  0  0
    3.2880   -7.2770   30.3990 C   0  0  0  0  0  0  0  0  0  0  0  0
    2.5980   -7.9890   31.5480 C   0  0  0  0  0  0  0  0  0  0  0  0
    1.9720   -6.8220   30.8110 C   0  0  0  0  0  0  0  0  0  0  0  0
    2.9670   -7.7020   29.0090 C   0  0  0  0  0  0  0  0  0  0  0  0
    4.4710   -4.7430   27.4510 C   0  0  0  0  0  0  0  0  0  0  0  0
    3.6310   -3.7240   27.0950 F   0  0  0  0  0  0  0  0  0  0  0  0
    3.8990   -5.3430   28.5560 F   0  0  0  0  0  0  0  0  0  0  0  0
    4.6490   -5.8580   26.4670 C   0  0  0  0  0  0  0  0  0  0  0  0
    5.8580   -5.6370   25.8680 F   0  0  0  0  0  0  0  0  0  0  0  0
    3.7200   -5.8830   25.4620 F   0  0  0  0  0  0  0  0  0  0  0  0
    4.7590   -7.0950   27.0270 F   0  0  0  0  0  0  0  0  0  0  0  0
    6.9120   -2.6250   23.5830 C   0  0  0  0  0  0  0  0  0  0  0  0
    7.1310   -2.9410   22.1520 C   0  0  0  0  0  0  0  0  0  0  0  0
  1  2  1  0
  2  3  2  0
  2  4  1  0
  4  5  1  0
  5  6  1  0
  6  7  1  0
  7  8  1  0
  8  9  2  0
  8 10  1  0
 10 11  1  0
 10 12  1  0
 12 13  1  6
 13 14  1  0
 14 15  1  0
 15 16  2  0
 15 17  1  0
 18 17  1  0
 18 19  1  0
 18 20  1  0
 18 21  1  0
 12 22  1  0
 22 23  1  0
 22 24  1  0
 22 25  1  0
 25 26  1  0
 25 27  1  0
 25 28  1  0
  7 29  1  0
  4 30  1  0
 29 30  1  0
M  END
