piperidine-amides-13700-covalent
     RDKit          3D

 27 29  0  0  0  0  0  0  0  0999 V2000
    7.1590   -3.2930   19.2420 C   0  0  0  0  0  0  0  0  0  0  0  0
    6.3610   -4.0380   20.2460 C   0  0  0  0  0  0  0  0  0  0  0  0
    5.2960   -4.5810   19.9020 O   0  0  0  0  0  0  0  0  0  0  0  0
    6.8740   -4.1500   21.5520 N   0  0  0  0  0  0  0  0  0  0  0  0
    7.7510   -3.1320   22.1080 C   0  0  0  0  0  0  0  0  0  0  0  0
    7.5280   -3.0550   23.6200 C   0  0  0  0  0  0  0  0  0  0  0  0
    6.1430   -3.5310   23.8550 C   0  0  0  0  0  0  0  0  0  0  0  0
    5.5630   -3.1560   25.1580 C   0  0  0  0  0  0  0  0  0  0  0  0
    4.4250   -2.6800   25.1200 O   0  0  0  0  0  0  0  0  0  0  0  0
    6.2680   -3.3510   26.3430 N   0  0  0  0  0  0  0  0  0  0  0  0
    5.8370   -4.1740   27.4090 C   0  0  0  0  0  0  0  0  0  0  0  0
    5.3280   -3.7190   28.5800 C   0  0  0  0  0  0  0  0  0  0  0  0
    5.1640   -4.8140   29.4450 C   0  0  0  0  0  0  0  0  0  0  0  0
    5.9680   -5.9380   29.5200 C   0  0  0  0  0  0  0  0  0  0  0  0
    5.6290   -6.9830   30.4910 C   0  0  0  0  0  0  0  0  0  0  0  0
    4.4240   -6.8290   31.3880 C   0  0  0  0  0  0  0  0  0  0  0  0
    4.1080   -7.8190   32.3060 O   0  0  0  0  0  0  0  0  0  0  0  0
    2.8180   -8.3940   32.3820 C   0  0  0  0  0  0  0  0  0  0  0  0
    3.6240   -5.6800   31.2900 C   0  0  0  0  0  0  0  0  0  0  0  0
    4.0050   -4.7510   30.3600 N   0  0  0  0  0  0  0  0  0  0  0  0
    4.1490   -3.0770   28.3740 C   0  0  0  0  0  0  0  0  0  0  0  0
    4.6250   -1.9490   29.2780 C   0  0  0  0  0  0  0  0  0  0  0  0
    4.4700   -0.6710   28.8070 C   0  0  0  0  0  0  0  0  0  0  0  0
    5.8890   -1.3030   28.7300 C   0  0  0  0  0  0  0  0  0  0  0  0
    6.0770   -2.7370   29.1820 C   0  0  0  0  0  0  0  0  0  0  0  0
    6.0680   -5.0270   23.6710 C   0  0  0  0  0  0  0  0  0  0  0  0
    6.5800   -5.3640   22.3180 C   0  0  0  0  0  0  0  0  0  0  0  0
  1  2  1  0
  2  3  2  0
  2  4  1  0
  4  5  1  0
  5  6  1  0
  6  7  1  0
  7  8  1  0
  8  9  2  0
  8 10  1  0
 10 11  1  0
 12 11  1  0
 12 13  1  0
 13 14  2  0
 14 15  1  0
 15 16  2  0
 16 17  1  0
 17 18  1  0
 16 19  1  0
 13 20  1  0
 19 20  2  0
 12 21  1  0
 21 22  1  0
 22 23  1  0
 23 24  1  0
 12 25  1  0
 24 25  1  0
  7 26  1  0
  4 27  1  0
 26 27  1  0
M  END
