piperidine-amides-32350-covalent
     RDKit          3D

 29 32  0  0  0  0  0  0  0  0999 V2000
    6.9650   -3.3610   19.4440 C   0  0  0  0  0  0  0  0  0  0  0  0
    6.3110   -4.2760   20.4300 C   0  0  0  0  0  0  0  0  0  0  0  0
    5.3930   -4.9980   20.0080 O   0  0  0  0  0  0  0  0  0  0  0  0
    6.7410   -4.3400   21.7900 N   0  0  0  0  0  0  0  0  0  0  0  0
    6.5640   -5.5400   22.5810 C   0  0  0  0  0  0  0  0  0  0  0  0
    5.9370   -5.1690   23.9480 C   0  0  0  0  0  0  0  0  0  0  0  0
    5.9210   -3.6790   24.0940 C   0  0  0  0  0  0  0  0  0  0  0  0
    5.2160   -3.0860   25.3170 C   0  0  0  0  0  0  0  0  0  0  0  0
    4.7250   -1.9830   25.1210 O   0  0  0  0  0  0  0  0  0  0  0  0
    5.0840   -3.7100   26.5950 N   0  0  0  0  0  0  0  0  0  0  0  0
    4.7210   -3.1150   27.8080 C   0  0  0  0  0  0  0  0  0  0  0  0
    5.3690   -3.5250   28.9710 C   0  0  0  0  0  0  0  0  0  0  0  0
    6.0320   -4.7780   29.0630 C   0  0  0  0  0  0  0  0  0  0  0  0
    5.5650   -5.7380   29.9490 C   0  0  0  0  0  0  0  0  0  0  0  0
    4.3300   -6.2280   29.7780 N   0  0  0  0  0  0  0  0  0  0  0  0
    4.0910   -7.1140   30.7260 C   0  0  0  0  0  0  0  0  0  0  0  0
    2.8610   -7.9830   31.0220 C   0  0  0  0  0  0  0  0  0  0  0  0
    2.6450   -8.2570   32.4900 C   0  0  0  0  0  0  0  0  0  0  0  0
    1.5710   -9.0330   32.8740 C   0  0  0  0  0  0  0  0  0  0  0  0
    0.5920   -9.6270   31.8970 C   0  0  0  0  0  0  0  0  0  0  0  0
    0.9310   -9.2650   30.4410 C   0  0  0  0  0  0  0  0  0  0  0  0
    1.9760   -8.5050   29.9940 C   0  0  0  0  0  0  0  0  0  0  0  0
    5.3000   -7.1590   31.5450 C   0  0  0  0  0  0  0  0  0  0  0  0
    5.5420   -8.0150   32.7700 C   0  0  0  0  0  0  0  0  0  0  0  0
    6.1230   -6.3290   31.0300 O   0  0  0  0  0  0  0  0  0  0  0  0
    6.0260   -5.5560   27.7660 C   0  0  0  0  0  0  0  0  0  0  0  0
    6.1490   -4.5210   26.7040 C   0  0  0  0  0  0  0  0  0  0  0  0
    7.3000   -3.1130   23.7720 C   0  0  0  0  0  0  0  0  0  0  0  0
    7.4630   -3.2290   22.4070 C   0  0  0  0  0  0  0  0  0  0  0  0
  1  2  1  0
  2  3  2  0
  2  4  1  0
  4  5  1  0
  5  6  1  0
  6  7  1  0
  7  8  1  0
  8  9  2  0
  8 10  1  0
 10 11  1  0
 11 12  1  0
 12 13  1  0
 13 14  1  0
 14 15  2  0
 15 16  1  0
 16 17  1  0
 17 18  2  0
 18 19  1  0
 19 20  2  0
 20 21  1  0
 17 22  1  0
 21 22  2  0
 16 23  2  0
 23 24  1  0
 14 25  1  0
 23 25  1  0
 13 26  1  0
 10 27  1  0
 26 27  1  0
  7 28  1  0
  4 29  1  0
 28 29  1  0
M  END
