piperidine-amides-19850-covalent
     RDKit          3D

 22 24  0  0  0  0  0  0  0  0999 V2000
    7.0550   -3.3800   19.3640 C   0  0  0  0  0  0  0  0  0  0  0  0
    6.3580   -4.2500   20.3430 C   0  0  0  0  0  0  0  0  0  0  0  0
    5.3280   -4.7970   19.9610 O   0  0  0  0  0  0  0  0  0  0  0  0
    6.9000   -4.4650   21.6130 N   0  0  0  0  0  0  0  0  0  0  0  0
    6.5950   -5.6640   22.3630 C   0  0  0  0  0  0  0  0  0  0  0  0
    5.8680   -5.3220   23.6460 C   0  0  0  0  0  0  0  0  0  0  0  0
    5.8530   -3.8040   23.8290 C   0  0  0  0  0  0  0  0  0  0  0  0
    5.2810   -3.4380   25.1450 C   0  0  0  0  0  0  0  0  0  0  0  0
    4.5460   -2.4480   25.2090 O   0  0  0  0  0  0  0  0  0  0  0  0
    5.5200   -4.1500   26.3260 N   0  0  0  0  0  0  0  0  0  0  0  0
    6.8750   -4.4010   26.5510 C   0  0  0  0  0  0  0  0  0  0  0  0
    7.0100   -5.4780   27.5960 C   0  0  0  0  0  0  0  0  0  0  0  0
    6.5170   -5.2530   28.8340 C   0  0  2  0  0  0  0  0  0  0  0  0
    5.8370   -6.2800   29.3840 C   0  0  0  0  0  0  0  0  0  0  0  0
    6.3690   -7.4770   29.8010 O   0  0  0  0  0  0  0  0  0  0  0  0
    4.4600   -6.1290   29.5890 N   0  0  0  0  0  0  0  0  0  0  0  0
    4.2600   -4.7640   29.2800 C   0  0  0  0  0  0  0  0  0  0  0  0
    3.0840   -4.0650   29.4250 O   0  0  0  0  0  0  0  0  0  0  0  0
    5.5330   -4.0770   28.7460 C   0  0  2  0  0  0  0  0  0  0  0  0
    4.8300   -3.6900   27.4790 C   0  0  0  0  0  0  0  0  0  0  0  0
    7.1780   -3.2190   23.6390 C   0  0  0  0  0  0  0  0  0  0  0  0
    7.5900   -3.3640   22.2300 C   0  0  0  0  0  0  0  0  0  0  0  0
  1  2  1  0
  2  3  2  0
  2  4  1  0
  4  5  1  0
  5  6  1  0
  6  7  1  0
  7  8  1  0
  8  9  2  0
  8 10  1  0
 10 11  1  0
 11 12  1  0
 13 12  1  6
 13 14  1  0
 14 15  2  0
 14 16  1  0
 16 17  1  0
 17 18  2  0
 13 19  1  0
 17 19  1  0
 10 20  1  0
 19 20  1  6
  7 21  1  0
  4 22  1  0
 21 22  1  0
M  END
