piperidine-amides-29265-covalent
     RDKit          3D

 26 27  0  0  0  0  0  0  0  0999 V2000
    7.1210   -3.1860   19.1390 C   0  0  0  0  0  0  0  0  0  0  0  0
    6.3380   -3.8650   20.1640 C   0  0  0  0  0  0  0  0  0  0  0  0
    5.2760   -4.4250   19.8280 O   0  0  0  0  0  0  0  0  0  0  0  0
    6.7670   -3.9450   21.5010 N   0  0  0  0  0  0  0  0  0  0  0  0
    6.1430   -4.9700   22.2400 C   0  0  0  0  0  0  0  0  0  0  0  0
    5.4430   -4.3360   23.4110 C   0  0  0  0  0  0  0  0  0  0  0  0
    6.5040   -3.7080   24.2910 C   0  0  0  0  0  0  0  0  0  0  0  0
    5.8260   -3.1550   25.5290 C   0  0  0  0  0  0  0  0  0  0  0  0
    4.8410   -2.4660   25.2800 O   0  0  0  0  0  0  0  0  0  0  0  0
    6.2670   -3.4210   26.8480 N   0  0  0  0  0  0  0  0  0  0  0  0
    5.6630   -2.6840   27.8810 C   0  0  0  0  0  0  0  0  0  0  0  0
    4.8920   -3.6180   28.5420 C   0  0  0  0  0  0  0  0  0  0  0  0
    5.1740   -4.8510   28.0120 C   0  0  1  0  0  0  0  0  0  0  0  0
    4.1640   -5.5300   27.3240 C   0  0  2  0  0  0  0  0  0  0  0  0
    3.0530   -5.2820   28.2960 C   0  0  0  0  0  0  0  0  0  0  0  0
    4.4580   -6.7790   26.7260 N   0  0  0  0  0  0  0  0  0  0  0  0
    4.8740   -6.6310   25.4470 C   0  0  0  0  0  0  0  0  0  0  0  0
    3.9840   -6.6180   24.5610 O   0  0  0  0  0  0  0  0  0  0  0  0
    6.2150   -6.5310   25.3200 O   0  0  0  0  0  0  0  0  0  0  0  0
    6.7250   -6.5420   24.0030 C   0  0  0  0  0  0  0  0  0  0  0  0
    7.2390   -5.2280   23.5130 C   0  0  0  0  0  0  0  0  0  0  0  0
    7.7430   -7.4050   23.7830 C   0  0  0  0  0  0  0  0  0  0  0  0
    5.7440   -7.1040   23.2430 C   0  0  0  0  0  0  0  0  0  0  0  0
    6.3100   -4.7960   27.3080 C   0  0  0  0  0  0  0  0  0  0  0  0
    7.2310   -2.6250   23.5480 C   0  0  0  0  0  0  0  0  0  0  0  0
    7.6710   -3.0020   22.1370 C   0  0  0  0  0  0  0  0  0  0  0  0
  1  2  1  0
  2  3  2  0
  2  4  1  0
  4  5  1  0
  5  6  1  0
  6  7  1  0
  7  8  1  0
  8  9  2  0
  8 10  1  0
 10 11  1  0
 11 12  1  0
 13 12  1  6
 13 14  1  0
 14 15  1  1
 14 16  1  0
 16 17  1  0
 17 18  2  0
 17 19  1  0
 20 19  1  0
 20 21  1  0
 20 22  1  0
 20 23  1  0
 10 24  1  0
 13 24  1  0
  7 25  1  0
  4 26  1  0
 25 26  1  0
M  END
