piperidine-amides-13123-covalent
     RDKit          3D

 20 21  0  0  0  0  0  0  0  0999 V2000
    7.1140   -3.2720   19.1370 C   0  0  0  0  0  0  0  0  0  0  0  0
    6.3500   -3.9810   20.1910 C   0  0  0  0  0  0  0  0  0  0  0  0
    5.2640   -4.4890   19.8560 O   0  0  0  0  0  0  0  0  0  0  0  0
    6.8700   -4.1100   21.4800 N   0  0  0  0  0  0  0  0  0  0  0  0
    7.6430   -3.0490   22.0360 C   0  0  0  0  0  0  0  0  0  0  0  0
    7.2130   -2.6150   23.3560 C   0  0  0  0  0  0  0  0  0  0  0  0
    6.6210   -3.6680   24.2070 C   0  0  0  0  0  0  0  0  0  0  0  0
    5.9260   -3.0160   25.3400 C   0  0  0  0  0  0  0  0  0  0  0  0
    4.6760   -3.0130   25.3660 O   0  0  0  0  0  0  0  0  0  0  0  0
    6.6810   -2.4020   26.3670 N   0  0  0  0  0  0  0  0  0  0  0  0
    6.2720   -2.4150   27.7870 C   0  0  0  0  0  0  0  0  0  0  0  0
    6.5820   -3.6920   28.4720 C   0  0  0  0  0  0  0  0  0  0  0  0
    7.8490   -4.2830   28.1630 C   0  0  0  0  0  0  0  0  0  0  0  0
    7.8490   -5.5060   27.6000 C   0  0  2  0  0  0  0  0  0  0  0  0
    9.0570   -5.9270   27.1940 C   0  0  0  0  0  0  0  0  0  0  0  0
    9.2380   -5.7030   25.9040 C   0  0  0  0  0  0  0  0  0  0  0  0
    7.9020   -5.6440   25.4800 O   0  0  0  0  0  0  0  0  0  0  0  0
    6.9800   -5.5530   26.5380 C   0  0  0  0  0  0  0  0  0  0  0  0
    5.8050   -4.6990   23.4940 C   0  0  0  0  0  0  0  0  0  0  0  0
    6.4320   -5.1750   22.3410 C   0  0  0  0  0  0  0  0  0  0  0  0
  1  2  1  0
  2  3  2  0
  2  4  1  0
  4  5  1  0
  5  6  1  0
  6  7  1  0
  7  8  1  0
  8  9  2  0
  8 10  1  0
 10 11  1  0
 11 12  1  0
 12 13  1  0
 14 13  1  6
 14 15  1  0
 15 16  1  0
 16 17  1  0
 14 18  1  0
 17 18  1  0
  7 19  1  0
  4 20  1  0
 19 20  1  0
M  END
