piperidine-amides-25287-covalent
     RDKit          3D

 25 27  0  0  0  0  0  0  0  0999 V2000
    7.0910   -3.2970   19.2740 C   0  0  0  0  0  0  0  0  0  0  0  0
    6.3420   -4.0600   20.3060 C   0  0  0  0  0  0  0  0  0  0  0  0
    5.3210   -4.6300   19.9240 O   0  0  0  0  0  0  0  0  0  0  0  0
    6.8170   -4.1520   21.6240 N   0  0  0  0  0  0  0  0  0  0  0  0
    6.6020   -5.3250   22.4340 C   0  0  0  0  0  0  0  0  0  0  0  0
    5.7640   -4.9600   23.6290 C   0  0  0  0  0  0  0  0  0  0  0  0
    5.9400   -3.4770   23.9510 C   0  0  0  0  0  0  0  0  0  0  0  0
    5.4930   -3.2580   25.3500 C   0  0  0  0  0  0  0  0  0  0  0  0
    4.2780   -3.3080   25.6220 O   0  0  0  0  0  0  0  0  0  0  0  0
    6.3910   -2.9640   26.3980 N   0  0  0  0  0  0  0  0  0  0  0  0
    6.8940   -1.6130   26.3830 C   0  0  0  0  0  0  0  0  0  0  0  0
    6.1800   -3.6010   27.6670 C   0  0  0  0  0  0  0  0  0  0  0  0
    5.7480   -4.8900   27.5370 C   0  0  0  0  0  0  0  0  0  0  0  0
    6.1180   -5.9860   28.3650 N   0  0  0  0  0  0  0  0  0  0  0  0
    5.4620   -7.0390   27.8810 N   0  0  0  0  0  0  0  0  0  0  0  0
    4.7870   -6.5020   26.8530 C   0  0  0  0  0  0  0  0  0  0  0  0
    3.9320   -7.1200   25.9800 C   0  0  0  0  0  0  0  0  0  0  0  0
    3.8340   -7.1930   24.4700 C   0  0  0  0  0  0  0  0  0  0  0  0
    2.6930   -8.0170   23.9650 C   0  0  0  0  0  0  0  0  0  0  0  0
    1.7650   -8.6890   24.9390 C   0  0  0  0  0  0  0  0  0  0  0  0
    2.0120   -8.5090   26.4030 C   0  0  0  0  0  0  0  0  0  0  0  0
    3.0960   -7.7220   27.0600 C   0  0  0  0  0  0  0  0  0  0  0  0
    4.9470   -5.1750   26.6160 O   0  0  0  0  0  0  0  0  0  0  0  0
    7.2620   -2.9020   23.5990 C   0  0  0  0  0  0  0  0  0  0  0  0
    7.6790   -3.1250   22.1890 C   0  0  0  0  0  0  0  0  0  0  0  0
  1  2  1  0
  2  3  2  0
  2  4  1  0
  4  5  1  0
  5  6  1  0
  6  7  1  0
  7  8  1  0
  8  9  2  0
  8 10  1  0
 10 11  1  0
 10 12  1  0
 12 13  1  0
 13 14  2  0
 14 15  1  0
 15 16  2  0
 16 17  1  0
 17 18  2  0
 18 19  1  0
 19 20  2  0
 20 21  1  0
 17 22  1  0
 21 22  2  0
 13 23  1  0
 16 23  1  0
  7 24  1  0
  4 25  1  0
 24 25  1  0
M  END
