piperidine-amides-10561-covalent
     RDKit          3D

 24 26  0  0  0  0  0  0  0  0999 V2000
    7.0840   -3.2690   19.2080 C   0  0  0  0  0  0  0  0  0  0  0  0
    6.3500   -4.0280   20.2260 C   0  0  0  0  0  0  0  0  0  0  0  0
    5.2590   -4.5450   19.8720 O   0  0  0  0  0  0  0  0  0  0  0  0
    6.8780   -4.2010   21.5050 N   0  0  0  0  0  0  0  0  0  0  0  0
    7.6800   -3.1940   22.1630 C   0  0  0  0  0  0  0  0  0  0  0  0
    6.9700   -2.7570   23.4100 C   0  0  0  0  0  0  0  0  0  0  0  0
    6.4790   -3.9340   24.2100 C   0  0  0  0  0  0  0  0  0  0  0  0
    5.7870   -3.4720   25.4350 C   0  0  0  0  0  0  0  0  0  0  0  0
    4.5600   -3.2360   25.3650 O   0  0  0  0  0  0  0  0  0  0  0  0
    6.4480   -3.2880   26.6660 N   0  0  0  0  0  0  0  0  0  0  0  0
    5.8740   -3.7320   27.9130 C   0  0  1  0  0  0  0  0  0  0  0  0
    6.6300   -4.9100   28.5260 C   0  0  0  0  0  0  0  0  0  0  0  0
    5.7810   -2.6210   28.8790 C   0  0  0  0  0  0  0  0  0  0  0  0
    4.7510   -2.5410   29.8480 C   0  0  0  0  0  0  0  0  0  0  0  0
    4.6350   -1.4900   30.7820 C   0  0  0  0  0  0  0  0  0  0  0  0
    5.5640   -0.4760   30.7660 C   0  0  0  0  0  0  0  0  0  0  0  0
    5.7320    0.6210   31.4830 N   0  0  0  0  0  0  0  0  0  0  0  0
    6.8610    1.2210   30.9600 C   0  0  0  0  0  0  0  0  0  0  0  0
    7.3720    2.4300   31.4520 O   0  0  0  0  0  0  0  0  0  0  0  0
    7.4880    0.5700   29.8990 O   0  0  0  0  0  0  0  0  0  0  0  0
    6.6540   -0.5080   29.7830 C   0  0  0  0  0  0  0  0  0  0  0  0
    6.7430   -1.6410   28.8090 C   0  0  0  0  0  0  0  0  0  0  0  0
    5.5900   -4.8580   23.3650 C   0  0  0  0  0  0  0  0  0  0  0  0
    6.5000   -5.3760   22.2700 C   0  0  0  0  0  0  0  0  0  0  0  0
  1  2  1  0
  2  3  2  0
  2  4  1  0
  4  5  1  0
  5  6  1  0
  6  7  1  0
  7  8  1  0
  8  9  2  0
  8 10  1  0
 10 11  1  0
 11 12  1  1
 11 13  1  0
 13 14  2  0
 14 15  1  0
 15 16  2  0
 16 17  1  0
 17 18  1  0
 18 19  2  0
 18 20  1  0
 16 21  1  0
 20 21  1  0
 13 22  1  0
 21 22  2  0
  7 23  1  0
  4 24  1  0
 23 24  1  0
M  END
