piperidine-amides-32799-covalent
     RDKit          3D

 24 25  0  0  0  0  0  0  0  0999 V2000
    7.0540   -3.2910   19.3440 C   0  0  0  0  0  0  0  0  0  0  0  0
    6.3400   -4.1300   20.3470 C   0  0  0  0  0  0  0  0  0  0  0  0
    5.3510   -4.7820   19.9670 O   0  0  0  0  0  0  0  0  0  0  0  0
    6.8150   -4.2120   21.6860 N   0  0  0  0  0  0  0  0  0  0  0  0
    6.7460   -5.4760   22.3900 C   0  0  0  0  0  0  0  0  0  0  0  0
    6.0640   -5.2130   23.7340 C   0  0  0  0  0  0  0  0  0  0  0  0
    6.0850   -3.7440   23.9150 C   0  0  0  0  0  0  0  0  0  0  0  0
    5.5090   -3.3010   25.2200 C   0  0  0  0  0  0  0  0  0  0  0  0
    4.2880   -3.1430   25.2020 O   0  0  0  0  0  0  0  0  0  0  0  0
    6.2570   -3.0730   26.3940 N   0  0  0  0  0  0  0  0  0  0  0  0
    6.1410   -3.9060   27.5520 C   0  0  0  0  0  0  0  0  0  0  0  0
    6.0530   -5.2870   27.5330 C   0  0  0  0  0  0  0  0  0  0  0  0
    4.7290   -5.5790   28.0680 O   0  0  0  0  0  0  0  0  0  0  0  0
    6.6490   -1.7830   26.8720 C   0  0  0  0  0  0  0  0  0  0  0  0
    5.6160   -1.0300   27.3730 C   0  0  0  0  0  0  0  0  0  0  0  0
    4.6360   -0.3420   26.5010 C   0  0  0  0  0  0  0  0  0  0  0  0
    3.4850    0.4970   27.0670 C   0  0  0  0  0  0  0  0  0  0  0  0
    3.4130    0.5790   28.6010 C   0  0  0  0  0  0  0  0  0  0  0  0
    2.4170    1.3030   29.1700 F   0  0  0  0  0  0  0  0  0  0  0  0
    4.3620   -0.0880   29.3590 C   0  0  0  0  0  0  0  0  0  0  0  0
    4.2700    0.0170   31.2670 Br  0  0  0  0  0  0  0  0  0  0  0  0
    5.4480   -0.8820   28.7300 C   0  0  0  0  0  0  0  0  0  0  0  0
    7.4110   -3.1280   23.6200 C   0  0  0  0  0  0  0  0  0  0  0  0
    7.6220   -3.1420   22.2510 C   0  0  0  0  0  0  0  0  0  0  0  0
  1  2  1  0
  2  3  2  0
  2  4  1  0
  4  5  1  0
  5  6  1  0
  6  7  1  0
  7  8  1  0
  8  9  2  0
  8 10  1  0
 10 11  1  0
 11 12  1  0
 12 13  1  0
 10 14  1  0
 14 15  1  0
 15 16  2  0
 16 17  1  0
 17 18  2  0
 18 19  1  0
 18 20  1  0
 20 21  1  0
 15 22  1  0
 20 22  2  0
  7 23  1  0
  4 24  1  0
 23 24  1  0
M  END
