piperidine-amides-16121-covalent
     RDKit          3D

 19 20  0  0  0  0  0  0  0  0999 V2000
    7.0180   -3.3560   19.3910 C   0  0  0  0  0  0  0  0  0  0  0  0
    6.3470   -4.2580   20.3670 C   0  0  0  0  0  0  0  0  0  0  0  0
    5.3530   -4.8600   19.9760 O   0  0  0  0  0  0  0  0  0  0  0  0
    6.8650   -4.4310   21.6540 N   0  0  0  0  0  0  0  0  0  0  0  0
    6.6320   -5.6390   22.4220 C   0  0  0  0  0  0  0  0  0  0  0  0
    5.9410   -5.3310   23.7350 C   0  0  0  0  0  0  0  0  0  0  0  0
    5.9140   -3.8240   23.9560 C   0  0  0  0  0  0  0  0  0  0  0  0
    5.3150   -3.4760   25.2720 C   0  0  0  0  0  0  0  0  0  0  0  0
    4.5690   -2.4960   25.3150 O   0  0  0  0  0  0  0  0  0  0  0  0
    5.5400   -4.1750   26.4760 N   0  0  0  0  0  0  0  0  0  0  0  0
    6.8930   -4.2740   26.8020 C   0  0  0  0  0  0  0  0  0  0  0  0
    7.0890   -5.4560   27.7060 C   0  0  0  0  0  0  0  0  0  0  0  0
    5.9880   -5.4810   28.5130 O   0  0  0  0  0  0  0  0  0  0  0  0
    5.2620   -4.3930   28.7510 C   0  0  0  0  0  0  0  0  0  0  0  0
    4.7630   -3.8080   27.6180 C   0  0  0  0  0  0  0  0  0  0  0  0
    3.4020   -3.7100   27.4940 C   0  0  0  0  0  0  0  0  0  0  0  0
    4.1840   -2.4920   27.6750 C   0  0  0  0  0  0  0  0  0  0  0  0
    7.2550   -3.2510   23.7100 C   0  0  0  0  0  0  0  0  0  0  0  0
    7.6060   -3.3450   22.2680 C   0  0  0  0  0  0  0  0  0  0  0  0
  1  2  1  0
  2  3  2  0
  2  4  1  0
  4  5  1  0
  5  6  1  0
  6  7  1  0
  7  8  1  0
  8  9  2  0
  8 10  1  0
 10 11  1  0
 11 12  1  0
 12 13  1  0
 13 14  1  0
 10 15  1  0
 14 15  1  0
 15 16  1  0
 15 17  1  0
  7 18  1  0
  4 19  1  0
 18 19  1  0
M  END
