piperidine-amides-7135-covalent
     RDKit          3D

 21 22  0  0  0  0  0  0  0  0999 V2000
    7.0350   -3.3180   19.3040 C   0  0  0  0  0  0  0  0  0  0  0  0
    6.3440   -4.1470   20.3050 C   0  0  0  0  0  0  0  0  0  0  0  0
    5.3580   -4.8360   19.9740 O   0  0  0  0  0  0  0  0  0  0  0  0
    6.8010   -4.2110   21.6310 N   0  0  0  0  0  0  0  0  0  0  0  0
    6.6800   -5.4610   22.3540 C   0  0  0  0  0  0  0  0  0  0  0  0
    6.1530   -5.1590   23.7670 C   0  0  0  0  0  0  0  0  0  0  0  0
    6.0980   -3.6560   23.9280 C   0  0  0  0  0  0  0  0  0  0  0  0
    5.6600   -3.2700   25.2800 C   0  0  0  0  0  0  0  0  0  0  0  0
    4.4530   -3.4160   25.5880 O   0  0  0  0  0  0  0  0  0  0  0  0
    6.5980   -2.7220   26.1810 N   0  0  0  0  0  0  0  0  0  0  0  0
    6.1280   -2.0410   27.3530 C   0  0  0  0  0  0  0  0  0  0  0  0
    5.4750   -2.9870   28.3370 C   0  0  0  0  0  0  0  0  0  0  0  0
    7.1260   -1.1420   27.9600 C   0  0  0  0  0  0  0  0  0  0  0  0
    6.4050    0.0420   27.6640 N   0  0  0  0  0  0  0  0  0  0  0  0
    6.1290    0.8920   28.7340 C   0  0  0  0  0  0  0  0  0  0  0  0
    7.1820    1.2900   29.5430 O   0  0  0  0  0  0  0  0  0  0  0  0
    4.8760    1.3570   29.0060 O   0  0  0  0  0  0  0  0  0  0  0  0
    3.9690    0.4900   29.5710 C   0  0  0  0  0  0  0  0  0  0  0  0
    5.4040   -0.7750   27.0700 C   0  0  0  0  0  0  0  0  0  0  0  0
    7.4890   -3.1020   23.6600 C   0  0  0  0  0  0  0  0  0  0  0  0
    7.7070   -3.2230   22.1850 C   0  0  0  0  0  0  0  0  0  0  0  0
  1  2  1  0
  2  3  2  0
  2  4  1  0
  4  5  1  0
  5  6  1  0
  6  7  1  0
  7  8  1  0
  8  9  2  0
  8 10  1  0
 11 10  1  0
 11 12  1  0
 11 13  1  0
 13 14  1  0
 14 15  1  0
 15 16  2  0
 15 17  1  0
 17 18  1  0
 11 19  1  0
 14 19  1  0
  7 20  1  0
  4 21  1  0
 20 21  1  0
M  END
