piperidine-amides-30606-covalent
     RDKit          3D

 27 29  0  0  0  0  0  0  0  0999 V2000
    7.0260   -3.3680   19.3850 C   0  0  0  0  0  0  0  0  0  0  0  0
    6.3830   -4.2340   20.3830 C   0  0  0  0  0  0  0  0  0  0  0  0
    5.4230   -4.9280   20.0090 O   0  0  0  0  0  0  0  0  0  0  0  0
    6.8490   -4.3240   21.7210 N   0  0  0  0  0  0  0  0  0  0  0  0
    7.7340   -3.3200   22.3060 C   0  0  0  0  0  0  0  0  0  0  0  0
    7.2810   -3.0780   23.7230 C   0  0  0  0  0  0  0  0  0  0  0  0
    6.0080   -3.8120   23.9880 C   0  0  0  0  0  0  0  0  0  0  0  0
    5.2640   -3.4010   25.2250 C   0  0  0  0  0  0  0  0  0  0  0  0
    4.3130   -2.5860   25.0830 O   0  0  0  0  0  0  0  0  0  0  0  0
    5.4710   -3.7860   26.5740 N   0  0  0  0  0  0  0  0  0  0  0  0
    6.4570   -3.0030   27.2520 C   0  0  0  0  0  0  0  0  0  0  0  0
    6.7550   -3.7810   28.4640 C   0  0  0  0  0  0  0  0  0  0  0  0
    5.7960   -3.9700   29.2140 O   0  0  0  0  0  0  0  0  0  0  0  0
    4.7610   -4.6100   28.6550 C   0  0  2  0  0  0  0  0  0  0  0  0
    4.7260   -6.1170   28.5550 C   0  0  0  0  0  0  0  0  0  0  0  0
    3.7430   -6.5890   29.4810 N   0  0  0  0  0  0  0  0  0  0  0  0
    3.9910   -7.5470   30.5200 C   0  0  0  0  0  0  0  0  0  0  0  0
    2.7220   -7.7290   31.2140 C   0  0  0  0  0  0  0  0  0  0  0  0
    2.4160   -8.5350   32.2860 C   0  0  0  0  0  0  0  0  0  0  0  0
    3.0890   -8.8790   33.2720 O   0  0  0  0  0  0  0  0  0  0  0  0
    1.1160   -8.9810   32.1610 O   0  0  0  0  0  0  0  0  0  0  0  0
    0.9080  -10.2240   32.7570 C   0  0  0  0  0  0  0  0  0  0  0  0
    1.9060   -6.8970   30.5380 N   0  0  0  0  0  0  0  0  0  0  0  0
    2.4640   -6.2080   29.5130 N   0  0  0  0  0  0  0  0  0  0  0  0
    4.3950   -3.9380   27.4920 C   0  0  0  0  0  0  0  0  0  0  0  0
    6.1230   -5.2950   23.8370 C   0  0  0  0  0  0  0  0  0  0  0  0
    6.6850   -5.5760   22.4590 C   0  0  0  0  0  0  0  0  0  0  0  0
  1  2  1  0
  2  3  2  0
  2  4  1  0
  4  5  1  0
  5  6  1  0
  6  7  1  0
  7  8  1  0
  8  9  2  0
  8 10  1  0
 10 11  1  0
 11 12  1  0
 12 13  1  0
 13 14  1  0
 14 15  1  6
 15 16  1  0
 16 17  1  0
 17 18  2  0
 18 19  1  0
 19 20  2  0
 19 21  1  0
 21 22  1  0
 18 23  1  0
 16 24  1  0
 23 24  2  0
 10 25  1  0
 14 25  1  0
  7 26  1  0
  4 27  1  0
 26 27  1  0
M  END
