piperidine-amides-11670-covalent
     RDKit          3D

 30 32  0  0  0  0  0  0  0  0999 V2000
    7.0900   -3.3680   19.2930 C   0  0  0  0  0  0  0  0  0  0  0  0
    6.3520   -4.1440   20.2770 C   0  0  0  0  0  0  0  0  0  0  0  0
    5.3220   -4.7270   19.9500 O   0  0  0  0  0  0  0  0  0  0  0  0
    6.8680   -4.2750   21.6120 N   0  0  0  0  0  0  0  0  0  0  0  0
    7.6760   -3.2240   22.1680 C   0  0  0  0  0  0  0  0  0  0  0  0
    6.9680   -2.6190   23.3380 C   0  0  0  0  0  0  0  0  0  0  0  0
    6.5980   -3.7520   24.2670 C   0  0  0  0  0  0  0  0  0  0  0  0
    5.8140   -3.2240   25.4220 C   0  0  0  0  0  0  0  0  0  0  0  0
    4.6010   -2.9590   25.3330 O   0  0  0  0  0  0  0  0  0  0  0  0
    6.4710   -3.0280   26.6630 N   0  0  0  0  0  0  0  0  0  0  0  0
    6.4310   -1.7220   27.3000 C   0  0  0  0  0  0  0  0  0  0  0  0
    5.8300   -0.6150   26.4980 C   0  0  0  0  0  0  0  0  0  0  0  0
    5.7530    0.6520   27.0350 C   0  0  0  0  0  0  0  0  0  0  0  0
    6.2330    0.9100   28.3340 C   0  0  0  0  0  0  0  0  0  0  0  0
    6.1200    2.2350   28.8210 N   0  0  0  0  0  0  0  0  0  0  0  0
    7.1070    3.1570   28.4250 C   0  0  0  0  0  0  0  0  0  0  0  0
    6.6490    4.5140   28.1760 C   0  0  0  0  0  0  0  0  0  0  0  0
    5.7200    5.0930   28.9970 C   0  0  0  0  0  0  0  0  0  0  0  0
    4.6610    5.6750   28.4910 O   0  0  0  0  0  0  0  0  0  0  0  0
    3.5300    6.5120   28.7070 C   0  0  0  0  0  0  0  0  0  0  0  0
    5.4350    4.0130   30.0210 C   0  0  0  0  0  0  0  0  0  0  0  0
    5.0280    2.6980   29.4980 C   0  0  0  0  0  0  0  0  0  0  0  0
    6.8010   -0.1310   29.0970 C   0  0  0  0  0  0  0  0  0  0  0  0
    7.2650    0.1350   30.3830 C   0  0  0  0  0  0  0  0  0  0  0  0
    6.3820   -0.2370   31.3830 F   0  0  0  0  0  0  0  0  0  0  0  0
    8.4370   -0.5400   30.5710 F   0  0  0  0  0  0  0  0  0  0  0  0
    7.5450    1.4710   30.6260 F   0  0  0  0  0  0  0  0  0  0  0  0
    6.8970   -1.4080   28.5900 C   0  0  0  0  0  0  0  0  0  0  0  0
    5.7720   -4.8460   23.6530 C   0  0  0  0  0  0  0  0  0  0  0  0
    6.4950   -5.3830   22.4330 C   0  0  0  0  0  0  0  0  0  0  0  0
  1  2  1  0
  2  3  2  0
  2  4  1  0
  4  5  1  0
  5  6  1  0
  6  7  1  0
  7  8  1  0
  8  9  2  0
  8 10  1  0
 10 11  1  0
 11 12  2  0
 12 13  1  0
 13 14  2  0
 14 15  1  0
 15 16  1  0
 16 17  1  0
 17 18  1  0
 18 19  1  0
 19 20  1  0
 18 21  1  0
 15 22  1  0
 21 22  1  0
 14 23  1  0
 23 24  1  0
 24 25  1  0
 24 26  1  0
 24 27  1  0
 11 28  1  0
 23 28  2  0
  7 29  1  0
  4 30  1  0
 29 30  1  0
M  END
