piperidine-amides-31762-covalent
     RDKit          3D

 28 31  0  0  0  0  0  0  0  0999 V2000
    7.1120   -3.2740   19.3940 C   0  0  0  0  0  0  0  0  0  0  0  0
    6.3730   -4.0660   20.3540 C   0  0  0  0  0  0  0  0  0  0  0  0
    5.3510   -4.7020   19.9390 O   0  0  0  0  0  0  0  0  0  0  0  0
    6.7470   -4.2030   21.7090 N   0  0  0  0  0  0  0  0  0  0  0  0
    6.6320   -5.5930   22.2130 C   0  0  0  0  0  0  0  0  0  0  0  0
    6.8390   -5.3610   23.7450 C   0  0  0  0  0  0  0  0  0  0  0  0
    6.2170   -4.0270   24.0100 C   0  0  0  0  0  0  0  0  0  0  0  0
    5.2960   -4.1350   25.3060 C   0  0  0  0  0  0  0  0  0  0  0  0
    4.6730   -5.1640   25.2030 O   0  0  0  0  0  0  0  0  0  0  0  0
    5.3320   -3.1990   26.1580 N   0  0  0  0  0  0  0  0  0  0  0  0
    4.8870   -2.3180   27.0100 C   0  0  0  0  0  0  0  0  0  0  0  0
    4.5820   -2.4850   28.2880 C   0  0  0  0  0  0  0  0  0  0  0  0
    5.4980   -3.3510   28.8820 C   0  0  0  0  0  0  0  0  0  0  0  0
    6.3910   -4.2100   28.0560 C   0  0  0  0  0  0  0  0  0  0  0  0
    6.5080   -3.1050   26.9380 C   0  0  0  0  0  0  0  0  0  0  0  0
    4.7980   -4.4380   29.5710 C   0  0  0  0  0  0  0  0  0  0  0  0
    4.0290   -3.7800   30.5320 N   0  0  0  0  0  0  0  0  0  0  0  0
    2.9570   -4.3110   31.1960 N   0  0  0  0  0  0  0  0  0  0  0  0
    2.4880   -3.2220   32.1030 C   0  0  0  0  0  0  0  0  0  0  0  0
    1.3550   -3.0950   33.1240 C   0  0  0  0  0  0  0  0  0  0  0  0
    1.2590   -2.0360   33.9490 N   0  0  0  0  0  0  0  0  0  0  0  0
    0.5440   -4.0390   33.1300 O   0  0  0  0  0  0  0  0  0  0  0  0
    3.4030   -2.0350   31.8760 C   0  0  0  0  0  0  0  0  0  0  0  0
    4.2600   -2.4430   30.9580 C   0  0  0  0  0  0  0  0  0  0  0  0
    5.3400   -1.8340   30.3290 C   0  0  0  0  0  0  0  0  0  0  0  0
    6.2200   -2.5660   29.7700 O   0  0  0  0  0  0  0  0  0  0  0  0
    7.1530   -2.8900   23.6760 C   0  0  0  0  0  0  0  0  0  0  0  0
    7.6010   -3.2200   22.3950 C   0  0  0  0  0  0  0  0  0  0  0  0
  1  2  1  0
  2  3  2  0
  2  4  1  0
  4  5  1  0
  5  6  1  0
  6  7  1  0
  7  8  1  0
  8  9  2  0
  8 10  1  0
 10 11  1  0
 11 12  1  0
 12 13  1  0
 13 14  1  0
 10 15  1  0
 14 15  1  0
 13 16  1  0
 16 17  1  0
 17 18  1  0
 18 19  2  0
 19 20  1  0
 20 21  1  0
 20 22  2  0
 19 23  1  0
 17 24  1  0
 23 24  2  0
 24 25  1  0
 13 26  1  0
 25 26  1  0
  7 27  1  0
  4 28  1  0
 27 28  1  0
M  END
