piperidine-amides-19310-covalent
     RDKit          3D

 22 24  0  0  0  0  0  0  0  0999 V2000
    7.0350   -3.4050   19.3550 C   0  0  0  0  0  0  0  0  0  0  0  0
    6.3560   -4.1830   20.3680 C   0  0  0  0  0  0  0  0  0  0  0  0
    5.3600   -4.8710   19.9880 O   0  0  0  0  0  0  0  0  0  0  0  0
    6.7660   -4.2630   21.7200 N   0  0  0  0  0  0  0  0  0  0  0  0
    6.7000   -5.6100   22.3350 C   0  0  0  0  0  0  0  0  0  0  0  0
    5.8830   -5.3090   23.6480 C   0  0  0  0  0  0  0  0  0  0  0  0
    6.1470   -3.8660   23.9820 C   0  0  0  0  0  0  0  0  0  0  0  0
    5.4280   -3.4320   25.3420 C   0  0  0  0  0  0  0  0  0  0  0  0
    4.5850   -2.5770   25.1190 O   0  0  0  0  0  0  0  0  0  0  0  0
    5.9190   -4.0940   26.3120 N   0  0  0  0  0  0  0  0  0  0  0  0
    6.8350   -4.9230   26.9240 C   0  0  0  0  0  0  0  0  0  0  0  0
    7.1330   -6.2180   27.0690 C   0  0  0  0  0  0  0  0  0  0  0  0
    5.8820   -6.7540   26.9270 O   0  0  0  0  0  0  0  0  0  0  0  0
    5.4830   -5.5750   27.3530 C   0  0  0  0  0  0  0  0  0  0  0  0
    5.1810   -6.7230   28.3820 C   0  0  0  0  0  0  0  0  0  0  0  0
    4.8240   -5.5360   28.7870 N   0  0  0  0  0  0  0  0  0  0  0  0
    4.3310   -4.4780   29.5230 C   0  0  0  0  0  0  0  0  0  0  0  0
    4.5410   -3.4160   28.7840 C   0  0  0  0  0  0  0  0  0  0  0  0
    4.8700   -4.8240   28.4800 C   0  0  0  0  0  0  0  0  0  0  0  0
    5.1480   -3.6390   27.5130 C   0  0  0  0  0  0  0  0  0  0  0  0
    7.5500   -3.4490   23.6770 C   0  0  0  0  0  0  0  0  0  0  0  0
    7.5820   -3.2290   22.3180 C   0  0  0  0  0  0  0  0  0  0  0  0
  1  2  1  0
  2  3  2  0
  2  4  1  0
  4  5  1  0
  5  6  1  0
  6  7  1  0
  7  8  1  0
  8  9  2  0
  8 10  1  0
 10 11  1  0
 11 12  1  0
 12 13  1  0
 13 14  1  0
 14 15  1  0
 15 16  2  0
 16 17  1  0
 17 18  2  0
 14 19  2  0
 18 19  1  0
 10 20  1  0
 19 20  1  0
  7 21  1  0
  4 22  1  0
 21 22  1  0
M  END
