piperidine-amides-13263-covalent
     RDKit          3D

 17 17  0  0  0  0  0  0  0  0999 V2000
    7.1530   -3.3110   19.2970 C   0  0  0  0  0  0  0  0  0  0  0  0
    6.3900   -4.0740   20.3050 C   0  0  0  0  0  0  0  0  0  0  0  0
    5.3230   -4.5980   19.9140 O   0  0  0  0  0  0  0  0  0  0  0  0
    6.8880   -4.2330   21.6140 N   0  0  0  0  0  0  0  0  0  0  0  0
    7.6580   -3.1840   22.2080 C   0  0  0  0  0  0  0  0  0  0  0  0
    7.2010   -2.8760   23.5560 C   0  0  0  0  0  0  0  0  0  0  0  0
    5.9620   -3.6020   23.8980 C   0  0  0  0  0  0  0  0  0  0  0  0
    5.5250   -3.3030   25.2840 C   0  0  0  0  0  0  0  0  0  0  0  0
    4.3850   -2.8210   25.4340 O   0  0  0  0  0  0  0  0  0  0  0  0
    6.3340   -3.5420   26.4050 N   0  0  0  0  0  0  0  0  0  0  0  0
    6.1140   -4.6700   27.3460 C   0  0  2  0  0  0  0  0  0  0  0  0
    4.7560   -5.2250   27.2720 C   0  0  0  0  0  0  0  0  0  0  0  0
    6.4320   -4.2690   28.7180 C   0  0  0  0  0  0  0  0  0  0  0  0
    6.9570   -5.1650   29.4490 O   0  0  0  0  0  0  0  0  0  0  0  0
    6.7440   -6.4720   29.0130 C   0  0  0  0  0  0  0  0  0  0  0  0
    6.0400   -5.0740   23.6160 C   0  0  0  0  0  0  0  0  0  0  0  0
    6.4900   -5.3910   22.3580 C   0  0  0  0  0  0  0  0  0  0  0  0
  1  2  1  0
  2  3  2  0
  2  4  1  0
  4  5  1  0
  5  6  1  0
  6  7  1  0
  7  8  1  0
  8  9  2  0
  8 10  1  0
 10 11  1  0
 11 12  1  1
 11 13  1  0
 13 14  1  0
 14 15  1  0
  7 16  1  0
  4 17  1  0
 16 17  1  0
M  END
