piperidine-amides-26155-covalent
     RDKit          3D

 25 27  0  0  0  0  0  0  0  0999 V2000
    7.0260   -3.3710   19.4010 C   0  0  0  0  0  0  0  0  0  0  0  0
    6.3830   -4.2510   20.3810 C   0  0  0  0  0  0  0  0  0  0  0  0
    5.4040   -4.9180   20.0030 O   0  0  0  0  0  0  0  0  0  0  0  0
    6.8560   -4.4020   21.7080 N   0  0  0  0  0  0  0  0  0  0  0  0
    6.6240   -5.6250   22.4590 C   0  0  0  0  0  0  0  0  0  0  0  0
    6.1820   -5.2410   23.8650 C   0  0  0  0  0  0  0  0  0  0  0  0
    5.9930   -3.7630   24.0260 C   0  0  0  0  0  0  0  0  0  0  0  0
    5.2680   -3.2890   25.2580 C   0  0  0  0  0  0  0  0  0  0  0  0
    4.4110   -2.3800   25.1150 O   0  0  0  0  0  0  0  0  0  0  0  0
    5.4150   -3.7330   26.6020 N   0  0  0  0  0  0  0  0  0  0  0  0
    6.5150   -3.2200   27.3280 C   0  0  0  0  0  0  0  0  0  0  0  0
    6.7630   -4.2660   28.3420 C   0  0  0  0  0  0  0  0  0  0  0  0
    5.7440   -4.3120   29.3460 C   0  0  0  0  0  0  0  0  0  0  0  0
    4.3480   -4.3750   28.7940 C   0  0  2  0  0  0  0  0  0  0  0  0
    3.8260   -5.7060   28.7140 N   0  0  0  0  0  0  0  0  0  0  0  0
    3.4210   -6.2400   27.4500 C   0  0  0  0  0  0  0  0  0  0  0  0
    2.9340   -7.5930   27.7240 C   0  0  0  0  0  0  0  0  0  0  0  0
    3.0950   -7.7110   29.0610 N   0  0  0  0  0  0  0  0  0  0  0  0
    3.6670   -6.5440   29.7530 C   0  0  0  0  0  0  0  0  0  0  0  0
    3.9630   -6.3450   31.1080 C   0  0  0  0  0  0  0  0  0  0  0  0
    5.2470   -7.0110   31.5640 C   0  0  0  0  0  0  0  0  0  0  0  0
    2.9520   -6.9240   32.0390 C   0  0  0  0  0  0  0  0  0  0  0  0
    4.2130   -3.7700   27.4060 C   0  0  0  0  0  0  0  0  0  0  0  0
    7.2790   -3.0810   23.7090 C   0  0  0  0  0  0  0  0  0  0  0  0
    7.5860   -3.2960   22.2770 C   0  0  0  0  0  0  0  0  0  0  0  0
  1  2  1  0
  2  3  2  0
  2  4  1  0
  4  5  1  0
  5  6  1  0
  6  7  1  0
  7  8  1  0
  8  9  2  0
  8 10  1  0
 10 11  1  0
 11 12  1  0
 12 13  1  0
 13 14  1  0
 14 15  1  6
 15 16  1  0
 16 17  2  0
 17 18  1  0
 15 19  1  0
 18 19  2  0
 19 20  1  0
 20 21  1  0
 20 22  1  0
 10 23  1  0
 14 23  1  0
  7 24  1  0
  4 25  1  0
 24 25  1  0
M  END
