piperidine-amides-24649-covalent
     RDKit          3D

 24 26  0  0  0  0  0  0  0  0999 V2000
    7.0690   -3.3370   19.3590 C   0  0  0  0  0  0  0  0  0  0  0  0
    6.3900   -4.2320   20.3010 C   0  0  0  0  0  0  0  0  0  0  0  0
    5.3410   -4.8220   19.9670 O   0  0  0  0  0  0  0  0  0  0  0  0
    6.9430   -4.4910   21.5590 N   0  0  0  0  0  0  0  0  0  0  0  0
    6.6030   -5.7150   22.2270 C   0  0  0  0  0  0  0  0  0  0  0  0
    5.6300   -5.3150   23.3310 C   0  0  0  0  0  0  0  0  0  0  0  0
    6.3380   -4.2770   24.1730 C   0  0  0  0  0  0  0  0  0  0  0  0
    5.4420   -3.8640   25.2790 C   0  0  0  0  0  0  0  0  0  0  0  0
    4.3570   -3.3150   24.9960 O   0  0  0  0  0  0  0  0  0  0  0  0
    5.8380   -4.0820   26.6200 N   0  0  0  0  0  0  0  0  0  0  0  0
    5.0220   -3.5940   27.6930 C   0  0  0  0  0  0  0  0  0  0  0  0
    4.7620   -4.7420   28.6390 C   0  0  0  0  0  0  0  0  0  0  0  0
    6.0000   -5.1100   29.2790 N   0  0  0  0  0  0  0  0  0  0  0  0
    7.2080   -5.4980   28.5880 C   0  0  0  0  0  0  0  0  0  0  0  0
    7.5080   -6.7060   28.6980 O   0  0  0  0  0  0  0  0  0  0  0  0
    7.8280   -4.4970   27.9170 C   0  0  0  0  0  0  0  0  0  0  0  0
    6.9730   -3.5790   27.3130 C   0  0  0  0  0  0  0  0  0  0  0  0
    7.2670   -2.9980   26.1250 C   0  0  0  0  0  0  0  0  0  0  0  0
    8.5060   -2.2440   25.9900 C   0  0  0  0  0  0  0  0  0  0  0  0
    8.8390   -1.6030   27.1460 O   0  0  0  0  0  0  0  0  0  0  0  0
    8.1590   -1.9630   28.2890 C   0  0  0  0  0  0  0  0  0  0  0  0
    6.7740   -2.4210   28.0280 C   0  0  0  0  0  0  0  0  0  0  0  0
    6.7240   -3.0670   23.3380 C   0  0  0  0  0  0  0  0  0  0  0  0
    7.6000   -3.4560   22.3190 C   0  0  0  0  0  0  0  0  0  0  0  0
  1  2  1  0
  2  3  2  0
  2  4  1  0
  4  5  1  0
  5  6  1  0
  6  7  1  0
  7  8  1  0
  8  9  2  0
  8 10  1  0
 10 11  1  0
 11 12  1  0
 12 13  1  0
 13 14  1  0
 14 15  2  0
 14 16  1  0
 17 10  1  0
 16 17  1  0
 17 18  1  0
 18 19  1  0
 19 20  1  0
 20 21  1  0
 17 22  1  0
 21 22  1  0
  7 23  1  0
  4 24  1  0
 23 24  1  0
M  END
