piperidine-amides-24982-covalent
     RDKit          3D

 24 26  0  0  0  0  0  0  0  0999 V2000
    7.0760   -3.3370   19.3220 C   0  0  0  0  0  0  0  0  0  0  0  0
    6.3970   -4.1970   20.2960 C   0  0  0  0  0  0  0  0  0  0  0  0
    5.3530   -4.8060   19.9720 O   0  0  0  0  0  0  0  0  0  0  0  0
    6.9420   -4.4020   21.5700 N   0  0  0  0  0  0  0  0  0  0  0  0
    6.6530   -5.6180   22.2720 C   0  0  0  0  0  0  0  0  0  0  0  0
    5.7710   -5.1980   23.4420 C   0  0  0  0  0  0  0  0  0  0  0  0
    6.5340   -4.1310   24.2010 C   0  0  0  0  0  0  0  0  0  0  0  0
    5.7090   -3.6910   25.3480 C   0  0  0  0  0  0  0  0  0  0  0  0
    4.4950   -3.5140   25.1300 O   0  0  0  0  0  0  0  0  0  0  0  0
    6.2520   -3.4670   26.6400 N   0  0  0  0  0  0  0  0  0  0  0  0
    6.1290   -4.4510   27.7100 C   0  0  0  0  0  0  0  0  0  0  0  0
    4.7600   -4.5160   28.3690 C   0  0  0  0  0  0  0  0  0  0  0  0
    4.0870   -3.3320   28.0360 O   0  0  0  0  0  0  0  0  0  0  0  0
    4.7790   -2.2590   27.5890 C   0  0  0  0  0  0  0  0  0  0  0  0
    6.1410   -2.4160   27.5950 C   0  0  1  0  0  0  0  0  0  0  0  0
    6.7240   -2.9990   28.7120 C   0  0  0  0  0  0  0  0  0  0  0  0
    5.9640   -2.7780   29.8440 O   0  0  0  0  0  0  0  0  0  0  0  0
    5.4640   -1.4790   30.1630 C   0  0  0  0  0  0  0  0  0  0  0  0
    6.3710   -0.4230   29.5610 C   0  0  0  0  0  0  0  0  0  0  0  0
    6.2170   -0.2040   28.2490 N   0  0  0  0  0  0  0  0  0  0  0  0
    6.1330    1.0470   27.5740 C   0  0  0  0  0  0  0  0  0  0  0  0
    6.7040   -1.2060   27.2820 C   0  0  0  0  0  0  0  0  0  0  0  0
    6.8420   -2.9400   23.3180 C   0  0  0  0  0  0  0  0  0  0  0  0
    7.6680   -3.3660   22.2730 C   0  0  0  0  0  0  0  0  0  0  0  0
  1  2  1  0
  2  3  2  0
  2  4  1  0
  4  5  1  0
  5  6  1  0
  6  7  1  0
  7  8  1  0
  8  9  2  0
  8 10  1  0
 10 11  1  0
 11 12  1  0
 12 13  1  0
 13 14  1  0
 15 10  1  0
 15 14  1  1
 15 16  1  0
 16 17  1  0
 17 18  1  0
 18 19  1  0
 19 20  1  0
 20 21  1  0
 15 22  1  0
 20 22  1  0
  7 23  1  0
  4 24  1  0
 23 24  1  0
M  END
