piperidine-amides-15198-covalent
     RDKit          3D

 18 18  0  0  0  0  0  0  0  0999 V2000
    7.0340   -3.3010   19.3180 C   0  0  0  0  0  0  0  0  0  0  0  0
    6.3290   -4.1170   20.3220 C   0  0  0  0  0  0  0  0  0  0  0  0
    5.3490   -4.8040   19.9700 O   0  0  0  0  0  0  0  0  0  0  0  0
    6.7510   -4.1800   21.6630 N   0  0  0  0  0  0  0  0  0  0  0  0
    6.6630   -5.4560   22.3490 C   0  0  0  0  0  0  0  0  0  0  0  0
    6.1300   -5.1940   23.7630 C   0  0  0  0  0  0  0  0  0  0  0  0
    6.0360   -3.6940   23.9020 C   0  0  0  0  0  0  0  0  0  0  0  0
    5.5250   -3.2920   25.2410 C   0  0  0  0  0  0  0  0  0  0  0  0
    4.4170   -2.7200   25.2690 O   0  0  0  0  0  0  0  0  0  0  0  0
    6.2410   -3.5240   26.4480 N   0  0  0  0  0  0  0  0  0  0  0  0
    6.1740   -4.7960   27.1400 C   0  0  0  0  0  0  0  0  0  0  0  0
    4.8740   -4.9840   27.8530 C   0  0  2  0  0  0  0  0  0  0  0  0
    3.9490   -5.2830   26.8240 O   0  0  0  0  0  0  0  0  0  0  0  0
    4.4050   -3.9870   28.6570 C   0  0  0  0  0  0  0  0  0  0  0  0
    3.4410   -4.4030   29.4740 O   0  0  0  0  0  0  0  0  0  0  0  0
    2.9810   -5.3640   30.2510 C   0  0  0  0  0  0  0  0  0  0  0  0
    7.3190   -3.0000   23.5690 C   0  0  0  0  0  0  0  0  0  0  0  0
    7.6480   -3.1870   22.2440 C   0  0  0  0  0  0  0  0  0  0  0  0
  1  2  1  0
  2  3  2  0
  2  4  1  0
  4  5  1  0
  5  6  1  0
  6  7  1  0
  7  8  1  0
  8  9  2  0
  8 10  1  0
 10 11  1  0
 11 12  1  0
 12 13  1  6
 12 14  1  0
 14 15  1  0
 15 16  1  0
  7 17  1  0
  4 18  1  0
 17 18  1  0
M  END
