piperidine-amides-34391-covalent
     RDKit          3D

 32 35  0  0  0  0  0  0  0  0999 V2000
    6.9570   -3.3460   19.4370 C   0  0  0  0  0  0  0  0  0  0  0  0
    6.3470   -4.2670   20.4150 C   0  0  0  0  0  0  0  0  0  0  0  0
    5.4170   -5.0060   20.0170 O   0  0  0  0  0  0  0  0  0  0  0  0
    6.7820   -4.3720   21.7580 N   0  0  0  0  0  0  0  0  0  0  0  0
    7.5870   -3.3410   22.3720 C   0  0  0  0  0  0  0  0  0  0  0  0
    6.9090   -2.9280   23.7020 C   0  0  0  0  0  0  0  0  0  0  0  0
    6.4440   -4.1630   24.4840 C   0  0  0  0  0  0  0  0  0  0  0  0
    5.4420   -3.7390   25.5240 C   0  0  0  0  0  0  0  0  0  0  0  0
    4.3250   -3.3830   25.0990 O   0  0  0  0  0  0  0  0  0  0  0  0
    5.7130   -3.6960   26.9410 N   0  0  0  0  0  0  0  0  0  0  0  0
    6.0470   -2.3570   27.4610 C   0  0  0  0  0  0  0  0  0  0  0  0
    7.0600   -2.1620   28.5640 C   0  0  0  0  0  0  0  0  0  0  0  0
    7.3170   -0.8860   29.0170 C   0  0  0  0  0  0  0  0  0  0  0  0
    6.6860    0.2260   28.4940 C   0  0  0  0  0  0  0  0  0  0  0  0
    5.7570    0.0870   27.4700 C   0  0  0  0  0  0  0  0  0  0  0  0
    5.3900   -1.1160   26.9110 C   0  0  0  0  0  0  0  0  0  0  0  0
    5.7500   -4.9970   27.7840 C   0  0  0  0  0  0  0  0  0  0  0  0
    7.1120   -5.4080   28.0360 C   0  0  0  0  0  0  0  0  0  0  0  0
    7.6930   -6.5860   28.7660 C   0  0  0  0  0  0  0  0  0  0  0  0
    6.5470   -7.5570   29.3640 C   0  0  0  0  0  0  0  0  0  0  0  0
    6.9230   -8.8280   30.0900 O   0  0  0  0  0  0  0  0  0  0  0  0
    7.6560  -10.1360   29.4910 C   0  0  0  0  0  0  0  0  0  0  0  0
    8.3150  -11.2720   30.1200 C   0  0  0  0  0  0  0  0  0  0  0  0
    7.8530  -12.0060   31.4830 C   0  0  0  0  0  0  0  0  0  0  0  0
    8.7610  -13.0440   32.0610 C   0  0  0  0  0  0  0  0  0  0  0  0
   10.0260  -13.3270   31.2710 C   0  0  0  0  0  0  0  0  0  0  0  0
   10.3440  -12.6780   30.0780 C   0  0  0  0  0  0  0  0  0  0  0  0
    9.5410  -11.7010   29.5280 C   0  0  0  0  0  0  0  0  0  0  0  0
    5.2240   -7.1120   29.1120 C   0  0  0  0  0  0  0  0  0  0  0  0
    4.7860   -5.8620   28.3420 C   0  0  0  0  0  0  0  0  0  0  0  0
    5.7710   -5.2510   23.6840 C   0  0  0  0  0  0  0  0  0  0  0  0
    6.5970   -5.6110   22.4620 C   0  0  0  0  0  0  0  0  0  0  0  0
  1  2  1  0
  2  3  2  0
  2  4  1  0
  4  5  1  0
  5  6  1  0
  6  7  1  0
  7  8  1  0
  8  9  2  0
  8 10  1  0
 10 11  1  0
 11 12  2  0
 12 13  1  0
 13 14  2  0
 14 15  1  0
 11 16  1  0
 15 16  2  0
 10 17  1  0
 17 18  2  0
 18 19  1  0
 19 20  2  0
 20 21  1  0
 21 22  1  0
 22 23  1  0
 23 24  2  0
 24 25  1  0
 25 26  2  0
 26 27  1  0
 23 28  1  0
 27 28  2  0
 20 29  1  0
 17 30  1  0
 29 30  2  0
  7 31  1  0
  4 32  1  0
 31 32  1  0
M  END
