piperidine-amides-11609-covalent
     RDKit          3D

 31 33  0  0  0  0  0  0  0  0999 V2000
    7.1340   -3.3010   19.1980 C   0  0  0  0  0  0  0  0  0  0  0  0
    6.3200   -4.0070   20.1760 C   0  0  0  0  0  0  0  0  0  0  0  0
    5.2400   -4.4920   19.8580 O   0  0  0  0  0  0  0  0  0  0  0  0
    6.8190   -4.1930   21.5000 N   0  0  0  0  0  0  0  0  0  0  0  0
    7.7040   -3.2230   22.0880 C   0  0  0  0  0  0  0  0  0  0  0  0
    7.1060   -2.6870   23.3460 C   0  0  0  0  0  0  0  0  0  0  0  0
    6.6840   -3.8530   24.2240 C   0  0  0  0  0  0  0  0  0  0  0  0
    6.0350   -3.2800   25.4210 C   0  0  0  0  0  0  0  0  0  0  0  0
    4.8010   -3.3200   25.6190 O   0  0  0  0  0  0  0  0  0  0  0  0
    6.8910   -2.6470   26.3500 N   0  0  0  0  0  0  0  0  0  0  0  0
    7.1570   -3.2750   27.6150 C   0  0  1  0  0  0  0  0  0  0  0  0
    7.3470   -2.0860   28.5220 C   0  0  0  0  0  0  0  0  0  0  0  0
    6.4300   -1.8130   29.5360 C   0  0  0  0  0  0  0  0  0  0  0  0
    6.5760   -0.7160   30.4020 C   0  0  0  0  0  0  0  0  0  0  0  0
    7.6480    0.1270   30.2590 C   0  0  0  0  0  0  0  0  0  0  0  0
    7.9340    1.5220   31.2780 Cl  0  0  0  0  0  0  0  0  0  0  0  0
    8.5640   -0.1880   29.2020 C   0  0  0  0  0  0  0  0  0  0  0  0
    8.4340   -1.2470   28.3530 C   0  0  0  0  0  0  0  0  0  0  0  0
    6.3380   -4.2250   28.1720 C   0  0  0  0  0  0  0  0  0  0  0  0
    4.9400   -4.1820   28.1520 C   0  0  0  0  0  0  0  0  0  0  0  0
    4.1030   -5.2230   28.7680 C   0  0  0  0  0  0  0  0  0  0  0  0
    4.5970   -6.3320   29.4200 C   0  0  0  0  0  0  0  0  0  0  0  0
    3.7810   -7.2760   29.9810 O   0  0  0  0  0  0  0  0  0  0  0  0
    2.5550   -7.2320   30.6000 C   0  0  0  0  0  0  0  0  0  0  0  0
    2.6530   -7.8310   31.8450 F   0  0  0  0  0  0  0  0  0  0  0  0
    2.1870   -5.9140   30.7220 F   0  0  0  0  0  0  0  0  0  0  0  0
    1.5830   -7.8940   29.8670 F   0  0  0  0  0  0  0  0  0  0  0  0
    5.9520   -6.3920   29.4490 C   0  0  0  0  0  0  0  0  0  0  0  0
    6.8630   -5.3290   28.8170 C   0  0  0  0  0  0  0  0  0  0  0  0
    5.8170   -4.8410   23.4990 C   0  0  0  0  0  0  0  0  0  0  0  0
    6.4450   -5.3570   22.2490 C   0  0  0  0  0  0  0  0  0  0  0  0
  1  2  1  0
  2  3  2  0
  2  4  1  0
  4  5  1  0
  5  6  1  0
  6  7  1  0
  7  8  1  0
  8  9  2  0
  8 10  1  0
 11 10  1  6
 11 12  1  0
 12 13  2  0
 13 14  1  0
 14 15  2  0
 15 16  1  0
 15 17  1  0
 12 18  1  0
 17 18  2  0
 11 19  1  0
 19 20  2  0
 20 21  1  0
 21 22  2  0
 22 23  1  0
 23 24  1  0
 24 25  1  0
 24 26  1  0
 24 27  1  0
 22 28  1  0
 19 29  1  0
 28 29  2  0
  7 30  1  0
  4 31  1  0
 30 31  1  0
M  END
