piperidine-amides-10265-covalent
     RDKit          3D

 25 27  0  0  0  0  0  0  0  0999 V2000
    7.0510   -3.3330   19.3150 C   0  0  0  0  0  0  0  0  0  0  0  0
    6.3760   -4.1600   20.3180 C   0  0  0  0  0  0  0  0  0  0  0  0
    5.3330   -4.7570   19.9540 O   0  0  0  0  0  0  0  0  0  0  0  0
    6.9200   -4.3040   21.5930 N   0  0  0  0  0  0  0  0  0  0  0  0
    6.5950   -5.4340   22.4220 C   0  0  0  0  0  0  0  0  0  0  0  0
    5.8190   -4.9280   23.6110 C   0  0  0  0  0  0  0  0  0  0  0  0
    6.5010   -3.7760   24.3210 C   0  0  0  0  0  0  0  0  0  0  0  0
    5.6350   -3.2370   25.4010 C   0  0  0  0  0  0  0  0  0  0  0  0
    4.4450   -2.9960   25.1120 O   0  0  0  0  0  0  0  0  0  0  0  0
    6.0560   -2.9870   26.7310 N   0  0  0  0  0  0  0  0  0  0  0  0
    6.5840   -1.6980   27.1210 C   0  0  0  0  0  0  0  0  0  0  0  0
    5.5970   -0.5990   26.7420 C   0  0  0  0  0  0  0  0  0  0  0  0
    5.4920    0.5710   27.4530 C   0  0  0  0  0  0  0  0  0  0  0  0
    5.8020    0.5640   28.7760 N   0  0  0  0  0  0  0  0  0  0  0  0
    5.1720    1.3700   29.6490 C   0  0  0  0  0  0  0  0  0  0  0  0
    4.5800    0.8160   30.7750 C   0  0  0  0  0  0  0  0  0  0  0  0
    5.3140    0.2420   31.8150 C   0  0  0  0  0  0  0  0  0  0  0  0
    4.7910   -0.3270   32.9610 C   0  0  0  0  0  0  0  0  0  0  0  0
    3.3140   -0.4120   33.2580 C   0  0  0  0  0  0  0  0  0  0  0  0
    2.5430    0.2200   32.1070 C   0  0  0  0  0  0  0  0  0  0  0  0
    3.2040    0.8190   30.8920 C   0  0  0  0  0  0  0  0  0  0  0  0
    6.5820   -0.5840   29.2680 C   0  0  0  0  0  0  0  0  0  0  0  0
    7.0710   -1.5660   28.4330 C   0  0  0  0  0  0  0  0  0  0  0  0
    6.7970   -2.6830   23.3160 C   0  0  0  0  0  0  0  0  0  0  0  0
    7.6880   -3.2560   22.2320 C   0  0  0  0  0  0  0  0  0  0  0  0
  1  2  1  0
  2  3  2  0
  2  4  1  0
  4  5  1  0
  5  6  1  0
  6  7  1  0
  7  8  1  0
  8  9  2  0
  8 10  1  0
 10 11  1  0
 11 12  1  0
 12 13  1  0
 13 14  1  0
 14 15  1  0
 15 16  1  0
 16 17  2  0
 17 18  1  0
 18 19  2  0
 19 20  1  0
 16 21  1  0
 20 21  2  0
 14 22  1  0
 11 23  1  0
 22 23  1  0
  7 24  1  0
  4 25  1  0
 24 25  1  0
M  END
