piperidine-amides-13493-covalent
     RDKit          3D

 32 35  0  0  0  0  0  0  0  0999 V2000
    7.0970   -3.3330   19.2900 C   0  0  0  0  0  0  0  0  0  0  0  0
    6.3900   -4.1780   20.2920 C   0  0  0  0  0  0  0  0  0  0  0  0
    5.3550   -4.7790   19.9600 O   0  0  0  0  0  0  0  0  0  0  0  0
    6.9430   -4.3120   21.5810 N   0  0  0  0  0  0  0  0  0  0  0  0
    7.8120   -3.2980   22.1310 C   0  0  0  0  0  0  0  0  0  0  0  0
    7.0290   -2.6470   23.2590 C   0  0  0  0  0  0  0  0  0  0  0  0
    6.6910   -3.7380   24.2060 C   0  0  0  0  0  0  0  0  0  0  0  0
    5.9490   -3.2110   25.3640 C   0  0  0  0  0  0  0  0  0  0  0  0
    4.7100   -3.2130   25.3250 O   0  0  0  0  0  0  0  0  0  0  0  0
    6.7240   -2.7540   26.4260 N   0  0  0  0  0  0  0  0  0  0  0  0
    6.6470   -1.5660   27.2070 C   0  0  0  0  0  0  0  0  0  0  0  0
    7.0440   -1.6640   28.5230 C   0  0  0  0  0  0  0  0  0  0  0  0
    7.0360   -0.6050   29.4290 C   0  0  0  0  0  0  0  0  0  0  0  0
    6.6180    0.6270   29.0270 C   0  0  0  0  0  0  0  0  0  0  0  0
    6.1900    0.7810   27.6280 C   0  0  0  0  0  0  0  0  0  0  0  0
    5.7940    2.0780   27.2980 N   0  0  0  0  0  0  0  0  0  0  0  0
    5.3580    2.3660   25.9670 C   0  0  0  0  0  0  0  0  0  0  0  0
    4.9650    3.8210   25.7000 C   0  0  0  0  0  0  0  0  0  0  0  0
    5.3100    1.3850   25.0430 N   0  0  0  0  0  0  0  0  0  0  0  0
    4.4080    1.6430   24.0890 C   0  0  1  0  0  0  0  0  0  0  0  0
    2.9920    2.1690   24.3080 C   0  0  0  0  0  0  0  0  0  0  0  0
    2.6720    2.9600   23.0310 C   0  0  0  0  0  0  0  0  0  0  0  0
    3.0990    2.4830   21.8320 C   0  0  0  0  0  0  0  0  0  0  0  0
    2.1730    2.2560   20.9500 O   0  0  0  0  0  0  0  0  0  0  0  0
    4.4470    2.2940   21.6890 N   0  0  0  0  0  0  0  0  0  0  0  0
    5.0590    2.4470   22.9810 C   0  0  0  0  0  0  0  0  0  0  0  0
    6.0610    3.1940   23.1960 O   0  0  0  0  0  0  0  0  0  0  0  0
    5.7140    0.0900   25.3120 C   0  0  0  0  0  0  0  0  0  0  0  0
    5.6800   -0.7430   24.3750 O   0  0  0  0  0  0  0  0  0  0  0  0
    6.1970   -0.2800   26.7320 C   0  0  0  0  0  0  0  0  0  0  0  0
    5.8400   -4.8380   23.6010 C   0  0  0  0  0  0  0  0  0  0  0  0
    6.3730   -5.3160   22.4120 C   0  0  0  0  0  0  0  0  0  0  0  0
  1  2  1  0
  2  3  2  0
  2  4  1  0
  4  5  1  0
  5  6  1  0
  6  7  1  0
  7  8  1  0
  8  9  2  0
  8 10  1  0
 10 11  1  0
 11 12  2  0
 12 13  1  0
 13 14  2  0
 14 15  1  0
 15 16  1  0
 16 17  2  0
 17 18  1  0
 17 19  1  0
 20 19  1  1
 20 21  1  0
 21 22  1  0
 22 23  1  0
 23 24  2  0
 23 25  1  0
 20 26  1  0
 25 26  1  0
 26 27  2  0
 19 28  1  0
 28 29  2  0
 11 30  1  0
 15 30  2  0
 28 30  1  0
  7 31  1  0
  4 32  1  0
 31 32  1  0
M  END
