piperidine-amides-24033-covalent
     RDKit          3D

 24 27  0  0  0  0  0  0  0  0999 V2000
    7.0730   -3.3910   19.3870 C   0  0  0  0  0  0  0  0  0  0  0  0
    6.3900   -4.2200   20.3880 C   0  0  0  0  0  0  0  0  0  0  0  0
    5.3700   -4.8330   19.9880 O   0  0  0  0  0  0  0  0  0  0  0  0
    6.8920   -4.3750   21.7130 N   0  0  0  0  0  0  0  0  0  0  0  0
    6.4560   -5.4670   22.4960 C   0  0  0  0  0  0  0  0  0  0  0  0
    6.0190   -5.1120   23.8520 C   0  0  0  0  0  0  0  0  0  0  0  0
    6.3690   -3.7500   24.3600 C   0  0  0  0  0  0  0  0  0  0  0  0
    5.2650   -3.2190   25.2620 C   0  0  0  0  0  0  0  0  0  0  0  0
    4.2120   -2.8400   24.7280 O   0  0  0  0  0  0  0  0  0  0  0  0
    5.3610   -3.1250   26.6860 N   0  0  0  0  0  0  0  0  0  0  0  0
    6.5010   -3.2810   27.3860 C   0  0  0  0  0  0  0  0  0  0  0  0
    6.5360   -4.4360   28.2890 C   0  0  0  0  0  0  0  0  0  0  0  0
    5.4730   -4.7190   29.0410 N   0  0  0  0  0  0  0  0  0  0  0  0
    4.6670   -5.9070   28.9260 C   0  0  1  0  0  0  0  0  0  0  0  0
    5.2260   -6.8950   29.7840 C   0  0  0  0  0  0  0  0  0  0  0  0
    3.8120   -7.4760   30.2080 C   0  0  1  0  0  0  0  0  0  0  0  0
    3.8810   -6.7590   31.5520 C   0  0  0  0  0  0  0  0  0  0  0  0
    3.2170   -5.5440   30.8460 C   0  0  0  0  0  0  0  0  0  0  0  0
    3.2890   -5.6620   29.3650 C   0  0  2  0  0  0  0  0  0  0  0  0
    2.7680   -7.0090   29.3090 C   0  0  0  0  0  0  0  0  0  0  0  0
    4.6930   -3.5530   28.9030 C   0  0  0  0  0  0  0  0  0  0  0  0
    4.2020   -3.2470   27.5130 C   0  0  0  0  0  0  0  0  0  0  0  0
    6.7240   -2.7550   23.2920 C   0  0  0  0  0  0  0  0  0  0  0  0
    7.6000   -3.3200   22.3820 C   0  0  0  0  0  0  0  0  0  0  0  0
  1  2  1  0
  2  3  2  0
  2  4  1  0
  4  5  1  0
  5  6  1  0
  6  7  1  0
  7  8  1  0
  8  9  2  0
  8 10  1  0
 10 11  1  0
 11 12  1  0
 12 13  1  0
 14 13  1  1
 14 15  1  0
 16 15  1  6
 16 17  1  0
 17 18  1  0
 14 19  1  0
 19 18  1  1
 16 20  1  0
 19 20  1  0
 13 21  1  0
 10 22  1  0
 21 22  1  0
  7 23  1  0
  4 24  1  0
 23 24  1  0
M  END
