piperidine-amides-29459-covalent
     RDKit          3D

 26 28  0  0  0  0  0  0  0  0999 V2000
    7.0970   -3.3350   19.2570 C   0  0  0  0  0  0  0  0  0  0  0  0
    6.4310   -4.1720   20.2480 C   0  0  0  0  0  0  0  0  0  0  0  0
    5.3560   -4.7150   19.9440 O   0  0  0  0  0  0  0  0  0  0  0  0
    7.0520   -4.4030   21.4980 N   0  0  0  0  0  0  0  0  0  0  0  0
    6.6050   -5.5250   22.2520 C   0  0  0  0  0  0  0  0  0  0  0  0
    5.7330   -5.0060   23.3530 C   0  0  0  0  0  0  0  0  0  0  0  0
    6.5660   -4.0340   24.1700 C   0  0  0  0  0  0  0  0  0  0  0  0
    5.7460   -3.5420   25.3040 C   0  0  0  0  0  0  0  0  0  0  0  0
    4.7380   -2.8900   25.0500 O   0  0  0  0  0  0  0  0  0  0  0  0
    6.2090   -3.8800   26.5450 N   0  0  0  0  0  0  0  0  0  0  0  0
    6.0980   -3.0400   27.6790 C   0  0  0  0  0  0  0  0  0  0  0  0
    6.7550   -3.5920   28.7470 C   0  0  0  0  0  0  0  0  0  0  0  0
    7.0270   -4.9110   28.5680 C   0  0  1  0  0  0  0  0  0  0  0  0
    5.9960   -5.7860   28.8670 C   0  0  0  0  0  0  0  0  0  0  0  0
    5.5100   -6.3270   27.5790 C   0  0  0  0  0  0  0  0  0  0  0  0
    4.3330   -7.3250   27.7090 C   0  0  0  0  0  0  0  0  0  0  0  0
    3.8610   -7.6000   29.1080 C   0  0  0  0  0  0  0  0  0  0  0  0
    4.5230   -6.9200   30.2870 C   0  0  0  0  0  0  0  0  0  0  0  0
    3.9470   -7.2750   31.6850 C   0  0  0  0  0  0  0  0  0  0  0  0
    4.7910   -7.7920   32.6410 F   0  0  0  0  0  0  0  0  0  0  0  0
    2.9280   -8.2180   31.5250 F   0  0  0  0  0  0  0  0  0  0  0  0
    3.4540   -6.1370   32.2230 F   0  0  0  0  0  0  0  0  0  0  0  0
    5.5360   -6.0620   30.1530 N   0  0  0  0  0  0  0  0  0  0  0  0
    7.3550   -4.5190   27.1470 C   0  0  0  0  0  0  0  0  0  0  0  0
    6.9180   -2.8500   23.3270 C   0  0  0  0  0  0  0  0  0  0  0  0
    7.6810   -3.2620   22.1120 C   0  0  0  0  0  0  0  0  0  0  0  0
  1  2  1  0
  2  3  2  0
  2  4  1  0
  4  5  1  0
  5  6  1  0
  6  7  1  0
  7  8  1  0
  8  9  2  0
  8 10  1  0
 10 11  1  0
 11 12  1  0
 12 13  1  0
 13 14  1  6
 14 15  2  0
 15 16  1  0
 16 17  2  0
 17 18  1  0
 18 19  1  0
 19 20  1  0
 19 21  1  0
 19 22  1  0
 14 23  1  0
 18 23  2  0
 10 24  1  0
 13 24  1  0
  7 25  1  0
  4 26  1  0
 25 26  1  0
M  END
