piperidine-amides-24501-covalent
     RDKit          3D

 24 25  0  0  0  0  0  0  0  0999 V2000
    7.0410   -3.3090   19.3300 C   0  0  0  0  0  0  0  0  0  0  0  0
    6.3320   -4.1720   20.2870 C   0  0  0  0  0  0  0  0  0  0  0  0
    5.2890   -4.7610   19.9450 O   0  0  0  0  0  0  0  0  0  0  0  0
    6.8370   -4.3990   21.5730 N   0  0  0  0  0  0  0  0  0  0  0  0
    6.5220   -5.6600   22.2180 C   0  0  0  0  0  0  0  0  0  0  0  0
    6.0370   -5.3780   23.6560 C   0  0  0  0  0  0  0  0  0  0  0  0
    5.9640   -3.8790   23.8250 C   0  0  0  0  0  0  0  0  0  0  0  0
    5.4980   -3.5250   25.1800 C   0  0  0  0  0  0  0  0  0  0  0  0
    4.2810   -3.6590   25.4330 O   0  0  0  0  0  0  0  0  0  0  0  0
    6.3880   -3.0400   26.1560 N   0  0  0  0  0  0  0  0  0  0  0  0
    6.2240   -3.5370   27.5090 C   0  0  0  0  0  0  0  0  0  0  0  0
    5.9750   -5.0440   27.5020 C   0  0  0  0  0  0  0  0  0  0  0  0
    6.7260   -1.6380   26.0130 C   0  0  0  0  0  0  0  0  0  0  0  0
    6.9340   -1.1400   24.7300 C   0  0  0  0  0  0  0  0  0  0  0  0
    5.8910   -0.5850   23.9750 C   0  0  0  0  0  0  0  0  0  0  0  0
    6.1220   -0.0910   22.7230 C   0  0  0  0  0  0  0  0  0  0  0  0
    7.4650   -0.0900   22.0530 C   0  0  0  0  0  0  0  0  0  0  0  0
    7.6820    0.3620   20.9160 O   0  0  0  0  0  0  0  0  0  0  0  0
    6.9860   -0.0990   19.7680 C   0  0  0  0  0  0  0  0  0  0  0  0
    8.5640   -0.6670   22.8240 C   0  0  0  0  0  0  0  0  0  0  0  0
    9.8230   -0.7290   22.3480 F   0  0  0  0  0  0  0  0  0  0  0  0
    8.2230   -1.1820   24.1690 C   0  0  0  0  0  0  0  0  0  0  0  0
    7.3160   -3.3210   23.5520 C   0  0  0  0  0  0  0  0  0  0  0  0
    7.5660   -3.3680   22.2280 C   0  0  0  0  0  0  0  0  0  0  0  0
  1  2  1  0
  2  3  2  0
  2  4  1  0
  4  5  1  0
  5  6  1  0
  6  7  1  0
  7  8  1  0
  8  9  2  0
  8 10  1  0
 10 11  1  0
 11 12  1  0
 10 13  1  0
 13 14  1  0
 14 15  2  0
 15 16  1  0
 16 17  2  0
 17 18  1  0
 18 19  1  0
 17 20  1  0
 20 21  1  0
 14 22  1  0
 20 22  2  0
  7 23  1  0
  4 24  1  0
 23 24  1  0
M  END
