piperidine-amides-35626-covalent
     RDKit          3D

 30 32  0  0  0  0  0  0  0  0999 V2000
    7.0760   -3.2570   19.2820 C   0  0  0  0  0  0  0  0  0  0  0  0
    6.3570   -4.0690   20.3020 C   0  0  0  0  0  0  0  0  0  0  0  0
    5.3360   -4.6460   19.9280 O   0  0  0  0  0  0  0  0  0  0  0  0
    6.8550   -4.1910   21.6040 N   0  0  0  0  0  0  0  0  0  0  0  0
    7.5580   -3.1210   22.2590 C   0  0  0  0  0  0  0  0  0  0  0  0
    6.7860   -2.6940   23.4820 C   0  0  0  0  0  0  0  0  0  0  0  0
    6.3800   -3.9080   24.3420 C   0  0  0  0  0  0  0  0  0  0  0  0
    5.5390   -3.4110   25.4750 C   0  0  0  0  0  0  0  0  0  0  0  0
    4.4320   -2.9180   25.2190 O   0  0  0  0  0  0  0  0  0  0  0  0
    5.9720   -3.4740   26.8370 N   0  0  0  0  0  0  0  0  0  0  0  0
    7.0600   -2.5670   27.1560 C   0  0  0  0  0  0  0  0  0  0  0  0
    5.0580   -3.8890   27.9130 C   0  0  0  0  0  0  0  0  0  0  0  0
    3.7810   -4.1840   27.5940 C   0  0  0  0  0  0  0  0  0  0  0  0
    3.4020   -5.0200   26.5820 C   0  0  0  0  0  0  0  0  0  0  0  0
    2.4480   -4.5410   25.7590 C   0  0  0  0  0  0  0  0  0  0  0  0
    1.8270   -5.2550   24.5770 C   0  0  0  0  0  0  0  0  0  0  0  0
    2.3570   -6.6510   24.3220 C   0  0  0  0  0  0  0  0  0  0  0  0
    1.6420   -7.6640   22.8660 Br  0  0  0  0  0  0  0  0  0  0  0  0
    3.4430   -7.1850   25.2510 C   0  0  0  0  0  0  0  0  0  0  0  0
    3.8860   -6.2830   26.3460 C   0  0  0  0  0  0  0  0  0  0  0  0
    5.1720   -5.3470   28.2610 C   0  0  0  0  0  0  0  0  0  0  0  0
    6.4250   -5.3820   27.6140 C   0  0  0  0  0  0  0  0  0  0  0  0
    7.5680   -4.9950   28.3980 C   0  0  0  0  0  0  0  0  0  0  0  0
    8.8820   -4.9070   27.8230 C   0  0  0  0  0  0  0  0  0  0  0  0
    9.0160   -5.1960   26.5240 C   0  0  0  0  0  0  0  0  0  0  0  0
   10.6500   -5.0140   25.8030 Br  0  0  0  0  0  0  0  0  0  0  0  0
    7.8870   -5.6350   25.6640 C   0  0  0  0  0  0  0  0  0  0  0  0
    6.5480   -5.7100   26.3130 C   0  0  0  0  0  0  0  0  0  0  0  0
    5.6310   -4.8900   23.4340 C   0  0  0  0  0  0  0  0  0  0  0  0
    6.4950   -5.2920   22.4600 C   0  0  0  0  0  0  0  0  0  0  0  0
  1  2  1  0
  2  3  2  0
  2  4  1  0
  4  5  1  0
  5  6  1  0
  6  7  1  0
  7  8  1  0
  8  9  2  0
  8 10  1  0
 10 11  1  0
 10 12  1  0
 12 13  1  0
 13 14  1  0
 14 15  2  0
 15 16  1  0
 16 17  2  0
 17 18  1  0
 17 19  1  0
 14 20  1  0
 19 20  2  0
 12 21  1  0
 21 22  1  0
 22 23  2  0
 23 24  1  0
 24 25  2  0
 25 26  1  0
 25 27  1  0
 22 28  1  0
 27 28  2  0
  7 29  1  0
  4 30  1  0
 29 30  1  0
M  END
