piperidine-amides-3529-covalent
     RDKit          3D

 20 20  0  0  0  0  0  0  0  0999 V2000
    7.1400   -3.2610   19.2220 C   0  0  0  0  0  0  0  0  0  0  0  0
    6.3660   -4.0150   20.2040 C   0  0  0  0  0  0  0  0  0  0  0  0
    5.3060   -4.5520   19.8860 O   0  0  0  0  0  0  0  0  0  0  0  0
    6.8710   -4.1750   21.5330 N   0  0  0  0  0  0  0  0  0  0  0  0
    7.7770   -3.2050   22.0950 C   0  0  0  0  0  0  0  0  0  0  0  0
    7.2010   -2.6140   23.3390 C   0  0  0  0  0  0  0  0  0  0  0  0
    6.6690   -3.7410   24.2020 C   0  0  0  0  0  0  0  0  0  0  0  0
    5.9080   -3.1200   25.3080 C   0  0  0  0  0  0  0  0  0  0  0  0
    4.6660   -3.2050   25.4190 O   0  0  0  0  0  0  0  0  0  0  0  0
    6.6690   -2.3990   26.2520 N   0  0  0  0  0  0  0  0  0  0  0  0
    7.6340   -3.1550   26.9940 C   0  0  0  0  0  0  0  0  0  0  0  0
    6.8420   -4.2300   27.6610 C   0  0  0  0  0  0  0  0  0  0  0  0
    5.4730   -4.0560   27.5490 O   0  0  0  0  0  0  0  0  0  0  0  0
    7.2240   -5.2970   28.3360 N   0  0  0  0  0  0  0  0  0  0  0  0
    8.4650   -5.6620   27.9780 C   0  0  0  0  0  0  0  0  0  0  0  0
    8.8700   -5.7440   26.6390 C   0  0  0  0  0  0  0  0  0  0  0  0
    6.4780   -6.3230   28.9280 C   0  0  0  0  0  0  0  0  0  0  0  0
    5.3420   -6.8620   28.1950 C   0  0  0  0  0  0  0  0  0  0  0  0
    5.8330   -4.7790   23.4820 C   0  0  0  0  0  0  0  0  0  0  0  0
    6.4960   -5.2980   22.3880 C   0  0  0  0  0  0  0  0  0  0  0  0
  1  2  1  0
  2  3  2  0
  2  4  1  0
  4  5  1  0
  5  6  1  0
  6  7  1  0
  7  8  1  0
  8  9  2  0
  8 10  1  0
 10 11  1  0
 11 12  1  0
 12 13  2  0
 12 14  1  0
 14 15  1  0
 15 16  1  0
 14 17  1  0
 17 18  1  0
  7 19  1  0
  4 20  1  0
 19 20  1  0
M  END
