piperidine-amides-14192-covalent
     RDKit          3D

 24 25  0  0  0  0  0  0  0  0999 V2000
    7.0820   -3.2780   19.2760 C   0  0  0  0  0  0  0  0  0  0  0  0
    6.3240   -4.0830   20.2790 C   0  0  0  0  0  0  0  0  0  0  0  0
    5.2900   -4.6670   19.9180 O   0  0  0  0  0  0  0  0  0  0  0  0
    6.8130   -4.2000   21.6000 N   0  0  0  0  0  0  0  0  0  0  0  0
    6.6900   -5.4340   22.3470 C   0  0  0  0  0  0  0  0  0  0  0  0
    6.0470   -5.1160   23.7050 C   0  0  0  0  0  0  0  0  0  0  0  0
    6.0950   -3.6410   23.9070 C   0  0  0  0  0  0  0  0  0  0  0  0
    5.6380   -3.2170   25.2510 C   0  0  0  0  0  0  0  0  0  0  0  0
    4.4210   -3.0410   25.3740 O   0  0  0  0  0  0  0  0  0  0  0  0
    6.5440   -3.0380   26.3000 N   0  0  0  0  0  0  0  0  0  0  0  0
    6.2940   -3.2540   27.6800 C   0  0  0  0  0  0  0  0  0  0  0  0
    5.2790   -4.0080   28.1830 C   0  0  0  0  0  0  0  0  0  0  0  0
    3.9190   -3.7370   27.9740 C   0  0  0  0  0  0  0  0  0  0  0  0
    2.9560   -4.5440   28.5220 C   0  0  0  0  0  0  0  0  0  0  0  0
    3.3780   -5.7070   29.3380 C   0  0  0  0  0  0  0  0  0  0  0  0
    2.0090   -6.6430   29.9710 S   0  0  0  0  0  0  0  0  0  0  0  0
    2.2900   -8.3680   29.8390 C   0  0  0  0  0  0  0  0  0  0  0  0
    0.8210   -6.3080   29.0890 O   0  0  0  0  0  0  0  0  0  0  0  0
    1.6830   -6.3040   31.3900 O   0  0  0  0  0  0  0  0  0  0  0  0
    4.7000   -5.9530   29.5290 C   0  0  0  0  0  0  0  0  0  0  0  0
    5.1960   -7.3260   30.5010 Cl  0  0  0  0  0  0  0  0  0  0  0  0
    5.6090   -5.1010   28.9480 C   0  0  0  0  0  0  0  0  0  0  0  0
    7.4150   -3.0310   23.5990 C   0  0  0  0  0  0  0  0  0  0  0  0
    7.6880   -3.1660   22.1190 C   0  0  0  0  0  0  0  0  0  0  0  0
  1  2  1  0
  2  3  2  0
  2  4  1  0
  4  5  1  0
  5  6  1  0
  6  7  1  0
  7  8  1  0
  8  9  2  0
  8 10  1  0
 10 11  1  0
 11 12  1  0
 12 13  2  0
 13 14  1  0
 14 15  2  0
 15 16  1  0
 16 17  1  0
 16 18  2  0
 16 19  2  0
 15 20  1  0
 20 21  1  0
 12 22  1  0
 20 22  2  0
  7 23  1  0
  4 24  1  0
 23 24  1  0
M  END
