piperidine-amides-33308-covalent
     RDKit          3D

 24 25  0  0  0  0  0  0  0  0999 V2000
    7.0840   -3.3650   19.3750 C   0  0  0  0  0  0  0  0  0  0  0  0
    6.4070   -4.1790   20.3950 C   0  0  0  0  0  0  0  0  0  0  0  0
    5.4210   -4.8570   19.9960 O   0  0  0  0  0  0  0  0  0  0  0  0
    6.8730   -4.2340   21.7430 N   0  0  0  0  0  0  0  0  0  0  0  0
    6.5500   -5.3640   22.5450 C   0  0  0  0  0  0  0  0  0  0  0  0
    6.1090   -5.0050   23.8910 C   0  0  0  0  0  0  0  0  0  0  0  0
    6.2160   -3.5570   24.1690 C   0  0  0  0  0  0  0  0  0  0  0  0
    5.6490   -3.1890   25.5240 C   0  0  0  0  0  0  0  0  0  0  0  0
    4.4140   -3.3000   25.6480 O   0  0  0  0  0  0  0  0  0  0  0  0
    6.3690   -2.7220   26.6670 N   0  0  0  0  0  0  0  0  0  0  0  0
    6.4050   -3.4550   27.8880 C   0  0  0  0  0  0  0  0  0  0  0  0
    6.2420   -1.2580   26.8820 C   0  0  0  0  0  0  0  0  0  0  0  0
    5.5640   -0.3070   25.8730 C   0  0  0  0  0  0  0  0  0  0  0  0
    5.4370    1.0540   26.0790 C   0  0  0  0  0  0  0  0  0  0  0  0
    4.7090    1.3910   24.7750 C   0  0  0  0  0  0  0  0  0  0  0  0
    5.3980    0.8150   23.7100 F   0  0  0  0  0  0  0  0  0  0  0  0
    3.3810    1.0110   24.8450 F   0  0  0  0  0  0  0  0  0  0  0  0
    4.6770    2.7420   24.5950 F   0  0  0  0  0  0  0  0  0  0  0  0
    5.8720    1.7840   27.1680 N   0  0  0  0  0  0  0  0  0  0  0  0
    6.5030    0.8490   28.0870 C   0  0  0  0  0  0  0  0  0  0  0  0
    6.7800   -0.6410   28.1340 C   0  0  0  0  0  0  0  0  0  0  0  0
    7.6540   -1.3280   29.6160 Br  0  0  0  0  0  0  0  0  0  0  0  0
    7.5600   -2.9950   23.8020 C   0  0  0  0  0  0  0  0  0  0  0  0
    7.7260   -3.1710   22.2880 C   0  0  0  0  0  0  0  0  0  0  0  0
  1  2  1  0
  2  3  2  0
  2  4  1  0
  4  5  1  0
  5  6  1  0
  6  7  1  0
  7  8  1  0
  8  9  2  0
  8 10  1  0
 10 11  1  0
 10 12  1  0
 12 13  2  0
 13 14  1  0
 14 15  1  0
 15 16  1  0
 15 17  1  0
 15 18  1  0
 14 19  2  0
 19 20  1  0
 12 21  1  0
 20 21  2  0
 21 22  1  0
  7 23  1  0
  4 24  1  0
 23 24  1  0
M  END
