piperidine-amides-13784-covalent
     RDKit          3D

 27 29  0  0  0  0  0  0  0  0999 V2000
    7.0960   -3.2610   19.2190 C   0  0  0  0  0  0  0  0  0  0  0  0
    6.3650   -4.0520   20.2490 C   0  0  0  0  0  0  0  0  0  0  0  0
    5.3340   -4.6650   19.9270 O   0  0  0  0  0  0  0  0  0  0  0  0
    6.8900   -4.1190   21.5590 N   0  0  0  0  0  0  0  0  0  0  0  0
    7.6850   -3.0460   22.1170 C   0  0  0  0  0  0  0  0  0  0  0  0
    7.2550   -2.8360   23.5760 C   0  0  0  0  0  0  0  0  0  0  0  0
    5.8510   -3.3280   23.6900 C   0  0  0  0  0  0  0  0  0  0  0  0
    5.0900   -2.9190   24.9040 C   0  0  0  0  0  0  0  0  0  0  0  0
    4.1230   -3.6320   25.1760 O   0  0  0  0  0  0  0  0  0  0  0  0
    5.4250   -1.8090   25.6960 N   0  0  0  0  0  0  0  0  0  0  0  0
    5.8010   -1.9390   27.0460 C   0  0  0  0  0  0  0  0  0  0  0  0
    6.6000   -2.9650   27.2730 C   0  0  0  0  0  0  0  0  0  0  0  0
    7.5710   -3.1930   26.3250 C   0  0  0  0  0  0  0  0  0  0  0  0
    8.4110   -4.2190   26.4540 C   0  0  0  0  0  0  0  0  0  0  0  0
    8.2990   -5.0960   27.6230 C   0  0  0  0  0  0  0  0  0  0  0  0
    9.1800   -6.0050   27.5690 O   0  0  0  0  0  0  0  0  0  0  0  0
    9.6740   -6.4070   26.4110 C   0  0  0  0  0  0  0  0  0  0  0  0
    7.3490   -4.8590   28.5370 C   0  0  0  0  0  0  0  0  0  0  0  0
    6.5180   -3.8030   28.3490 C   0  0  0  0  0  0  0  0  0  0  0  0
    5.4840   -3.4090   29.1680 O   0  0  0  0  0  0  0  0  0  0  0  0
    4.5060   -4.2810   29.6720 C   0  0  0  0  0  0  0  0  0  0  0  0
    3.4380   -3.5530   30.4580 C   0  0  0  0  0  0  0  0  0  0  0  0
    2.2950   -4.2870   30.8460 C   0  0  0  0  0  0  0  0  0  0  0  0
    2.3910   -4.4710   29.2720 C   0  0  0  0  0  0  0  0  0  0  0  0
    3.7450   -4.8560   28.7740 C   0  0  0  0  0  0  0  0  0  0  0  0
    5.8250   -4.8390   23.6060 C   0  0  0  0  0  0  0  0  0  0  0  0
    6.5530   -5.2760   22.3870 C   0  0  0  0  0  0  0  0  0  0  0  0
  1  2  1  0
  2  3  2  0
  2  4  1  0
  4  5  1  0
  5  6  1  0
  6  7  1  0
  7  8  1  0
  8  9  2  0
  8 10  1  0
 10 11  1  0
 11 12  1  0
 12 13  2  0
 13 14  1  0
 14 15  2  0
 15 16  1  0
 16 17  1  0
 15 18  1  0
 12 19  1  0
 18 19  2  0
 19 20  1  0
 20 21  1  0
 21 22  1  0
 22 23  1  0
 23 24  1  0
 21 25  1  0
 24 25  1  0
  7 26  1  0
  4 27  1  0
 26 27  1  0
M  END
