piperidine-amides-30118-covalent
     RDKit          3D

 27 29  0  0  0  0  0  0  0  0999 V2000
    7.0730   -3.3700   19.3650 C   0  0  0  0  0  0  0  0  0  0  0  0
    6.3560   -4.1690   20.3470 C   0  0  0  0  0  0  0  0  0  0  0  0
    5.3790   -4.8270   19.9850 O   0  0  0  0  0  0  0  0  0  0  0  0
    6.8110   -4.2320   21.7160 N   0  0  0  0  0  0  0  0  0  0  0  0
    7.6810   -3.1900   22.2320 C   0  0  0  0  0  0  0  0  0  0  0  0
    7.4720   -2.9670   23.7120 C   0  0  0  0  0  0  0  0  0  0  0  0
    6.1300   -3.5750   24.0440 C   0  0  0  0  0  0  0  0  0  0  0  0
    5.6060   -3.2670   25.4260 C   0  0  0  0  0  0  0  0  0  0  0  0
    4.3780   -3.2250   25.6200 O   0  0  0  0  0  0  0  0  0  0  0  0
    6.4580   -2.9980   26.5420 N   0  0  0  0  0  0  0  0  0  0  0  0
    6.3810   -3.8750   27.7040 C   0  0  0  0  0  0  0  0  0  0  0  0
    5.9030   -5.2540   27.3650 C   0  0  2  0  0  0  0  0  0  0  0  0
    4.5380   -5.2580   27.1320 O   0  0  0  0  0  0  0  0  0  0  0  0
    6.0420   -6.2700   28.2780 C   0  0  0  0  0  0  0  0  0  0  0  0
    5.3300   -7.4370   28.1520 O   0  0  0  0  0  0  0  0  0  0  0  0
    6.4200   -1.6070   27.1080 C   0  0  0  0  0  0  0  0  0  0  0  0
    7.0020   -1.5440   28.3590 C   0  0  0  0  0  0  0  0  0  0  0  0
    7.0130   -0.2720   29.0200 C   0  0  0  0  0  0  0  0  0  0  0  0
    6.4790    0.8470   28.4570 C   0  0  0  0  0  0  0  0  0  0  0  0
    5.9040    0.7710   27.2020 C   0  0  0  0  0  0  0  0  0  0  0  0
    5.8700   -0.4680   26.5130 C   0  0  0  0  0  0  0  0  0  0  0  0
    5.2460   -0.5270   25.1790 C   0  0  0  0  0  0  0  0  0  0  0  0
    4.9480    0.6710   24.5520 C   0  0  0  0  0  0  0  0  0  0  0  0
    4.5000    1.6360   25.4370 C   0  0  0  0  0  0  0  0  0  0  0  0
    5.3670    1.8750   26.6210 C   0  0  0  0  0  0  0  0  0  0  0  0
    6.0740   -5.0560   23.8380 C   0  0  0  0  0  0  0  0  0  0  0  0
    6.6140   -5.4360   22.4710 C   0  0  0  0  0  0  0  0  0  0  0  0
  1  2  1  0
  2  3  2  0
  2  4  1  0
  4  5  1  0
  5  6  1  0
  6  7  1  0
  7  8  1  0
  8  9  2  0
  8 10  1  0
 10 11  1  0
 11 12  1  0
 12 13  1  1
 12 14  1  0
 14 15  1  0
 10 16  1  0
 16 17  2  0
 17 18  1  0
 18 19  2  0
 19 20  1  0
 16 21  1  0
 20 21  2  0
 21 22  1  0
 22 23  1  0
 23 24  1  0
 20 25  1  0
 24 25  1  0
  7 26  1  0
  4 27  1  0
 26 27  1  0
M  END
