piperidine-amides-25031-covalent
     RDKit          3D

 23 25  0  0  0  0  0  0  0  0999 V2000
    7.0700   -3.3310   19.2830 C   0  0  0  0  0  0  0  0  0  0  0  0
    6.3790   -4.1680   20.2920 C   0  0  0  0  0  0  0  0  0  0  0  0
    5.3420   -4.7300   19.9490 O   0  0  0  0  0  0  0  0  0  0  0  0
    6.9390   -4.3440   21.5560 N   0  0  0  0  0  0  0  0  0  0  0  0
    6.6390   -5.4990   22.3450 C   0  0  0  0  0  0  0  0  0  0  0  0
    5.8900   -5.0530   23.5690 C   0  0  0  0  0  0  0  0  0  0  0  0
    6.6380   -3.8940   24.2520 C   0  0  0  0  0  0  0  0  0  0  0  0
    5.8230   -3.4680   25.4040 C   0  0  0  0  0  0  0  0  0  0  0  0
    4.7910   -2.8230   25.1960 O   0  0  0  0  0  0  0  0  0  0  0  0
    6.1850   -3.7860   26.7260 N   0  0  0  0  0  0  0  0  0  0  0  0
    5.8380   -5.0860   27.1910 C   0  0  0  0  0  0  0  0  0  0  0  0
    5.2830   -4.7120   28.5080 C   0  0  1  0  0  0  0  0  0  0  0  0
    5.4170   -5.6510   29.9140 S   0  0  0  0  0  0  0  0  0  0  0  0
    6.3210   -7.0220   29.1550 C   0  0  0  0  0  0  0  0  0  0  0  0
    5.6410   -3.3890   28.8810 C   0  0  2  0  0  0  0  0  0  0  0  0
    4.5120   -2.6610   29.4250 N   0  0  0  0  0  0  0  0  0  0  0  0
    3.3440   -3.3410   29.8010 C   0  0  0  0  0  0  0  0  0  0  0  0
    2.6730   -2.4370   30.7950 C   0  0  0  0  0  0  0  0  0  0  0  0
    3.2870   -1.1860   30.1690 C   0  0  0  0  0  0  0  0  0  0  0  0
    4.7990   -1.4270   30.0720 C   0  0  0  0  0  0  0  0  0  0  0  0
    5.9590   -2.7170   27.6860 C   0  0  0  0  0  0  0  0  0  0  0  0
    6.9600   -2.7530   23.3440 C   0  0  0  0  0  0  0  0  0  0  0  0
    7.7170   -3.2790   22.1520 C   0  0  0  0  0  0  0  0  0  0  0  0
  1  2  1  0
  2  3  2  0
  2  4  1  0
  4  5  1  0
  5  6  1  0
  6  7  1  0
  7  8  1  0
  8  9  2  0
  8 10  1  0
 10 11  1  0
 11 12  1  0
 12 13  1  1
 13 14  1  0
 12 15  1  0
 15 16  1  6
 16 17  1  0
 17 18  1  0
 18 19  1  0
 16 20  1  0
 19 20  1  0
 10 21  1  0
 15 21  1  0
  7 22  1  0
  4 23  1  0
 22 23  1  0
M  END
