piperidine-amides-6669-covalent
     RDKit          3D

 24 26  0  0  0  0  0  0  0  0999 V2000
    7.0710   -3.2720   19.2730 C   0  0  0  0  0  0  0  0  0  0  0  0
    6.3470   -4.0760   20.2780 C   0  0  0  0  0  0  0  0  0  0  0  0
    5.3430   -4.7410   19.9460 O   0  0  0  0  0  0  0  0  0  0  0  0
    6.7860   -4.1380   21.6080 N   0  0  0  0  0  0  0  0  0  0  0  0
    7.6470   -3.0890   22.1220 C   0  0  0  0  0  0  0  0  0  0  0  0
    7.4610   -3.0270   23.6410 C   0  0  0  0  0  0  0  0  0  0  0  0
    6.0680   -3.5490   23.9120 C   0  0  0  0  0  0  0  0  0  0  0  0
    5.6340   -3.2990   25.3000 C   0  0  0  0  0  0  0  0  0  0  0  0
    4.4110   -3.1810   25.5190 O   0  0  0  0  0  0  0  0  0  0  0  0
    6.5860   -3.1900   26.3360 N   0  0  0  0  0  0  0  0  0  0  0  0
    6.3420   -3.7660   27.6330 C   0  0  0  0  0  0  0  0  0  0  0  0
    6.0050   -5.2440   27.4910 C   0  0  0  0  0  0  0  0  0  0  0  0
    5.9460   -6.0390   28.6010 C   0  0  0  0  0  0  0  0  0  0  0  0
    4.7260   -6.5650   28.9630 C   0  0  0  0  0  0  0  0  0  0  0  0
    3.5570   -6.6130   28.1840 C   0  0  0  0  0  0  0  0  0  0  0  0
    2.6300   -7.2060   28.9640 N   0  0  0  0  0  0  0  0  0  0  0  0
    3.2300   -7.5190   30.2120 C   0  0  0  0  0  0  0  0  0  0  0  0
    2.5350   -8.1890   31.3750 C   0  0  0  0  0  0  0  0  0  0  0  0
    3.7110   -8.2350   32.3910 C   0  0  0  0  0  0  0  0  0  0  0  0
    5.1930   -7.8420   32.5230 C   0  0  0  0  0  0  0  0  0  0  0  0
    5.4330   -7.2540   31.2160 C   0  0  0  0  0  0  0  0  0  0  0  0
    4.5360   -7.1230   30.2080 C   0  0  0  0  0  0  0  0  0  0  0  0
    6.0700   -5.0580   23.6970 C   0  0  0  0  0  0  0  0  0  0  0  0
    6.6590   -5.3780   22.3440 C   0  0  0  0  0  0  0  0  0  0  0  0
  1  2  1  0
  2  3  2  0
  2  4  1  0
  4  5  1  0
  5  6  1  0
  6  7  1  0
  7  8  1  0
  8  9  2  0
  8 10  1  0
 10 11  1  0
 11 12  1  0
 12 13  1  0
 13 14  1  0
 14 15  2  0
 15 16  1  0
 16 17  1  0
 17 18  1  0
 18 19  2  0
 19 20  1  0
 20 21  2  0
 14 22  1  0
 17 22  2  0
 21 22  1  0
  7 23  1  0
  4 24  1  0
 23 24  1  0
M  END
