piperidine-amides-26110-covalent
     RDKit          3D

 25 28  0  0  0  0  0  0  0  0999 V2000
    6.9580   -3.3790   19.4150 C   0  0  0  0  0  0  0  0  0  0  0  0
    6.2790   -4.2730   20.3580 C   0  0  0  0  0  0  0  0  0  0  0  0
    5.2860   -4.8950   19.9660 O   0  0  0  0  0  0  0  0  0  0  0  0
    6.7130   -4.5040   21.6730 N   0  0  0  0  0  0  0  0  0  0  0  0
    6.4680   -5.7310   22.3840 C   0  0  0  0  0  0  0  0  0  0  0  0
    6.4030   -5.2900   23.8280 C   0  0  0  0  0  0  0  0  0  0  0  0
    5.8860   -3.8800   23.9380 C   0  0  0  0  0  0  0  0  0  0  0  0
    5.5210   -3.3940   25.3120 C   0  0  0  0  0  0  0  0  0  0  0  0
    4.4670   -2.7050   25.4330 O   0  0  0  0  0  0  0  0  0  0  0  0
    6.2180   -3.6290   26.5350 N   0  0  0  0  0  0  0  0  0  0  0  0
    5.4830   -3.6590   27.8130 C   0  0  0  0  0  0  0  0  0  0  0  0
    5.8100   -4.9460   28.4740 C   0  0  0  0  0  0  0  0  0  0  0  0
    7.2390   -5.3360   28.5000 C   0  0  0  0  0  0  0  0  0  0  0  0
    7.9950   -5.0300   27.2350 C   0  0  0  0  0  0  0  0  0  0  0  0
    7.6220   -3.6480   26.7490 C   0  0  1  0  0  0  0  0  0  0  0  0
    8.3510   -3.2710   25.5260 C   0  0  0  0  0  0  0  0  0  0  0  0
    9.1540   -4.0800   24.6660 N   0  0  0  0  0  0  0  0  0  0  0  0
    9.5770   -3.2560   23.6980 O   0  0  0  0  0  0  0  0  0  0  0  0
    9.0260   -2.0200   24.0190 C   0  0  0  0  0  0  0  0  0  0  0  0
    9.3200   -0.9520   23.1650 C   0  0  0  0  0  0  0  0  0  0  0  0
    9.5350   -1.1720   21.8140 C   0  0  0  0  0  0  0  0  0  0  0  0
   10.7810   -0.6990   22.6210 C   0  0  0  0  0  0  0  0  0  0  0  0
    8.3010   -2.0360   25.0960 N   0  0  0  0  0  0  0  0  0  0  0  0
    6.7380   -2.8760   23.1100 C   0  0  0  0  0  0  0  0  0  0  0  0
    7.4740   -3.4730   22.3570 C   0  0  0  0  0  0  0  0  0  0  0  0
  1  2  1  0
  2  3  2  0
  2  4  1  0
  4  5  1  0
  5  6  1  0
  6  7  1  0
  7  8  1  0
  8  9  2  0
  8 10  1  0
 10 11  1  0
 11 12  1  0
 12 13  1  0
 13 14  1  0
 10 15  1  0
 14 15  1  0
 15 16  1  6
 16 17  2  0
 17 18  1  0
 18 19  1  0
 19 20  1  0
 20 21  1  0
 20 22  1  0
 21 22  1  0
 16 23  1  0
 19 23  2  0
  7 24  1  0
  4 25  1  0
 24 25  1  0
M  END
