piperidine-amides-9004-covalent
     RDKit          3D

 21 21  0  0  0  0  0  0  0  0999 V2000
    7.0100   -3.3440   19.4330 C   0  0  0  0  0  0  0  0  0  0  0  0
    6.3330   -4.2070   20.4100 C   0  0  0  0  0  0  0  0  0  0  0  0
    5.3840   -4.8960   19.9970 O   0  0  0  0  0  0  0  0  0  0  0  0
    6.7330   -4.3190   21.7690 N   0  0  0  0  0  0  0  0  0  0  0  0
    6.7070   -5.6170   22.4370 C   0  0  0  0  0  0  0  0  0  0  0  0
    6.2420   -5.4620   23.8810 C   0  0  0  0  0  0  0  0  0  0  0  0
    6.0620   -4.0380   24.2960 C   0  0  0  0  0  0  0  0  0  0  0  0
    5.5180   -3.8420   25.7010 C   0  0  0  0  0  0  0  0  0  0  0  0
    4.3710   -3.3090   25.7780 O   0  0  0  0  0  0  0  0  0  0  0  0
    6.1030   -4.1410   26.9990 N   0  0  0  0  0  0  0  0  0  0  0  0
    6.5610   -5.4990   27.5060 C   0  0  0  0  0  0  0  0  0  0  0  0
    5.6230   -6.2710   28.3750 C   0  0  0  0  0  0  0  0  0  0  0  0
    6.1450   -7.3060   29.3830 C   0  0  0  0  0  0  0  0  0  0  0  0
    6.2890   -6.7640   30.4930 O   0  0  0  0  0  0  0  0  0  0  0  0
    6.3610   -8.7390   28.9480 N   0  0  0  0  0  0  0  0  0  0  0  0
    7.4970   -9.6160   29.7280 S   0  0  0  0  0  0  0  0  0  0  0  0
    8.8350  -10.7800   29.2840 C   0  0  0  0  0  0  0  0  0  0  0  0
    7.0530   -9.1590   31.1110 O   0  0  0  0  0  0  0  0  0  0  0  0
    7.0050  -10.9520   29.8950 O   0  0  0  0  0  0  0  0  0  0  0  0
    7.1360   -3.1090   23.8340 C   0  0  0  0  0  0  0  0  0  0  0  0
    7.5410   -3.3080   22.4140 C   0  0  0  0  0  0  0  0  0  0  0  0
  1  2  1  0
  2  3  2  0
  2  4  1  0
  4  5  1  0
  5  6  1  0
  6  7  1  0
  7  8  1  0
  8  9  2  0
  8 10  1  0
 10 11  1  0
 11 12  1  0
 12 13  1  0
 13 14  2  0
 13 15  1  0
 15 16  1  0
 16 17  1  0
 16 18  2  0
 16 19  2  0
  7 20  1  0
  4 21  1  0
 20 21  1  0
M  END
