piperidine-amides-4361-covalent
     RDKit          3D

 25 26  0  0  0  0  0  0  0  0999 V2000
    7.1210   -3.2750   19.1850 C   0  0  0  0  0  0  0  0  0  0  0  0
    6.3910   -4.0260   20.2230 C   0  0  0  0  0  0  0  0  0  0  0  0
    5.2970   -4.5400   19.8840 O   0  0  0  0  0  0  0  0  0  0  0  0
    6.9280   -4.2190   21.5190 N   0  0  0  0  0  0  0  0  0  0  0  0
    6.4680   -5.3130   22.2900 C   0  0  0  0  0  0  0  0  0  0  0  0
    6.1230   -4.9610   23.6650 C   0  0  0  0  0  0  0  0  0  0  0  0
    6.7040   -3.6900   24.1710 C   0  0  0  0  0  0  0  0  0  0  0  0
    5.8650   -3.1320   25.2790 C   0  0  0  0  0  0  0  0  0  0  0  0
    4.6740   -2.8460   25.0550 O   0  0  0  0  0  0  0  0  0  0  0  0
    6.3870   -2.9240   26.5680 N   0  0  0  0  0  0  0  0  0  0  0  0
    6.1400   -3.7200   27.7080 C   0  0  0  0  0  0  0  0  0  0  0  0
    5.5530   -5.0470   27.5900 C   0  0  0  0  0  0  0  0  0  0  0  0
    5.2640   -5.8520   28.6110 N   0  0  0  0  0  0  0  0  0  0  0  0
    6.2600   -6.4400   29.4430 C   0  0  0  0  0  0  0  0  0  0  0  0
    5.7300   -7.3900   30.2840 C   0  0  0  0  0  0  0  0  0  0  0  0
    4.1050   -5.3450   29.2490 C   0  0  0  0  0  0  0  0  0  0  0  0
    2.9800   -6.3190   29.2180 C   0  0  0  0  0  0  0  0  0  0  0  0
    1.9690   -5.6350   30.1130 C   0  0  0  0  0  0  0  0  0  0  0  0
    0.6260   -6.2400   30.4040 C   0  0  0  0  0  0  0  0  0  0  0  0
    0.3400   -7.5940   29.7430 C   0  0  0  0  0  0  0  0  0  0  0  0
   -1.1930   -8.4300   29.9900 Cl  0  0  0  0  0  0  0  0  0  0  0  0
    1.4350   -8.2310   28.8370 C   0  0  0  0  0  0  0  0  0  0  0  0
    2.7310   -7.5190   28.6280 C   0  0  0  0  0  0  0  0  0  0  0  0
    6.9060   -2.6430   23.1290 C   0  0  0  0  0  0  0  0  0  0  0  0
    7.7070   -3.1940   22.1570 C   0  0  0  0  0  0  0  0  0  0  0  0
  1  2  1  0
  2  3  2  0
  2  4  1  0
  4  5  1  0
  5  6  1  0
  6  7  1  0
  7  8  1  0
  8  9  2  0
  8 10  1  0
 10 11  1  0
 11 12  1  0
 12 13  1  0
 13 14  1  0
 14 15  1  0
 13 16  1  0
 16 17  1  0
 17 18  2  0
 18 19  1  0
 19 20  2  0
 20 21  1  0
 20 22  1  0
 17 23  1  0
 22 23  2  0
  7 24  1  0
  4 25  1  0
 24 25  1  0
M  END
