piperidine-amides-32801-covalent
     RDKit          3D

 26 27  0  0  0  0  0  0  0  0999 V2000
    7.1720   -3.3380   19.3560 C   0  0  0  0  0  0  0  0  0  0  0  0
    6.3550   -4.0980   20.3400 C   0  0  0  0  0  0  0  0  0  0  0  0
    5.3300   -4.6850   19.9440 O   0  0  0  0  0  0  0  0  0  0  0  0
    6.8000   -4.1710   21.6770 N   0  0  0  0  0  0  0  0  0  0  0  0
    7.5390   -3.0540   22.2580 C   0  0  0  0  0  0  0  0  0  0  0  0
    7.4900   -3.1440   23.7920 C   0  0  0  0  0  0  0  0  0  0  0  0
    6.1470   -3.6700   24.1320 C   0  0  0  0  0  0  0  0  0  0  0  0
    5.5420   -3.1500   25.3900 C   0  0  0  0  0  0  0  0  0  0  0  0
    4.3650   -2.7980   25.2650 O   0  0  0  0  0  0  0  0  0  0  0  0
    6.2020   -3.0610   26.6340 N   0  0  0  0  0  0  0  0  0  0  0  0
    5.7890   -3.9100   27.6970 C   0  0  0  0  0  0  0  0  0  0  0  0
    6.4040   -5.0450   28.1690 C   0  0  0  0  0  0  0  0  0  0  0  0
    6.6050   -5.9840   29.2580 O   0  0  0  0  0  0  0  0  0  0  0  0
    5.6220   -4.6220   29.2410 O   0  0  0  0  0  0  0  0  0  0  0  0
    4.2250   -4.9440   29.3070 C   0  0  0  0  0  0  0  0  0  0  0  0
    3.4870   -3.7800   29.2760 C   0  0  0  0  0  0  0  0  0  0  0  0
    6.4280   -1.7330   27.1440 C   0  0  0  0  0  0  0  0  0  0  0  0
    5.8850   -0.5170   26.3940 C   0  0  0  0  0  0  0  0  0  0  0  0
    6.1630    0.8290   27.0300 C   0  0  0  0  0  0  0  0  0  0  0  0
    5.5890    2.3070   26.2720 Cl  0  0  0  0  0  0  0  0  0  0  0  0
    6.8680    0.8840   28.2020 C   0  0  0  0  0  0  0  0  0  0  0  0
    7.4720   -0.1650   29.0620 C   0  0  0  0  0  0  0  0  0  0  0  0
    8.3380    0.2490   30.5310 Cl  0  0  0  0  0  0  0  0  0  0  0  0
    7.1850   -1.5220   28.4210 C   0  0  0  0  0  0  0  0  0  0  0  0
    6.2170   -5.1120   23.9240 C   0  0  0  0  0  0  0  0  0  0  0  0
    6.5510   -5.3760   22.4450 C   0  0  0  0  0  0  0  0  0  0  0  0
  1  2  1  0
  2  3  2  0
  2  4  1  0
  4  5  1  0
  5  6  1  0
  6  7  1  0
  7  8  1  0
  8  9  2  0
  8 10  1  0
 10 11  1  0
 11 12  1  0
 12 13  2  0
 12 14  1  0
 14 15  1  0
 15 16  1  0
 10 17  1  0
 17 18  2  0
 18 19  1  0
 19 20  1  0
 19 21  2  0
 21 22  1  0
 22 23  1  0
 17 24  1  0
 22 24  2  0
  7 25  1  0
  4 26  1  0
 25 26  1  0
M  END
