piperidine-amides-13063-covalent
     RDKit          3D

 20 21  0  0  0  0  0  0  0  0999 V2000
    7.0580   -3.3400   19.3520 C   0  0  0  0  0  0  0  0  0  0  0  0
    6.4080   -4.1910   20.3730 C   0  0  0  0  0  0  0  0  0  0  0  0
    5.4070   -4.8380   19.9880 O   0  0  0  0  0  0  0  0  0  0  0  0
    6.9280   -4.2970   21.6840 N   0  0  0  0  0  0  0  0  0  0  0  0
    7.6880   -3.2330   22.2700 C   0  0  0  0  0  0  0  0  0  0  0  0
    7.2900   -2.9320   23.6440 C   0  0  0  0  0  0  0  0  0  0  0  0
    6.0660   -3.6520   24.0400 C   0  0  0  0  0  0  0  0  0  0  0  0
    5.5760   -3.2520   25.3920 C   0  0  0  0  0  0  0  0  0  0  0  0
    4.3410   -3.2000   25.5410 O   0  0  0  0  0  0  0  0  0  0  0  0
    6.4190   -2.9350   26.4830 N   0  0  0  0  0  0  0  0  0  0  0  0
    6.6850   -1.5380   26.9400 C   0  0  1  0  0  0  0  0  0  0  0  0
    5.5730   -0.6050   26.6200 C   0  0  0  0  0  0  0  0  0  0  0  0
    5.4390    0.5910   27.4230 C   0  0  0  0  0  0  0  0  0  0  0  0
    6.2510    0.7040   28.5230 C   0  0  0  0  0  0  0  0  0  0  0  0
    6.5220   -0.3990   29.3160 C   0  0  1  0  0  0  0  0  0  0  0  0
    5.5900   -0.5750   30.2980 C   0  0  0  0  0  0  0  0  0  0  0  0
    5.0480   -1.8730   30.1680 O   0  0  0  0  0  0  0  0  0  0  0  0
    7.0960   -1.4250   28.3740 C   0  0  0  0  0  0  0  0  0  0  0  0
    6.0950   -5.1160   23.7760 C   0  0  0  0  0  0  0  0  0  0  0  0
    6.6100   -5.4450   22.5080 C   0  0  0  0  0  0  0  0  0  0  0  0
  1  2  1  0
  2  3  2  0
  2  4  1  0
  4  5  1  0
  5  6  1  0
  6  7  1  0
  7  8  1  0
  8  9  2  0
  8 10  1  0
 11 10  1  1
 11 12  1  0
 12 13  1  0
 13 14  1  0
 14 15  1  0
 15 16  1  6
 16 17  1  0
 11 18  1  0
 15 18  1  0
  7 19  1  0
  4 20  1  0
 19 20  1  0
M  END
