piperidine-amides-35215-covalent
     RDKit          3D

 31 32  0  0  0  0  0  0  0  0999 V2000
    7.0890   -3.3070   19.2110 C   0  0  0  0  0  0  0  0  0  0  0  0
    6.3810   -4.1100   20.2430 C   0  0  0  0  0  0  0  0  0  0  0  0
    5.3300   -4.6600   19.9190 O   0  0  0  0  0  0  0  0  0  0  0  0
    6.9410   -4.2560   21.5050 N   0  0  0  0  0  0  0  0  0  0  0  0
    7.6770   -3.1660   22.0900 C   0  0  0  0  0  0  0  0  0  0  0  0
    6.8480   -2.6030   23.1970 C   0  0  0  0  0  0  0  0  0  0  0  0
    6.5950   -3.7140   24.2080 C   0  0  0  0  0  0  0  0  0  0  0  0
    5.8870   -3.1150   25.3540 C   0  0  0  0  0  0  0  0  0  0  0  0
    4.6840   -2.8140   25.2690 O   0  0  0  0  0  0  0  0  0  0  0  0
    6.6210   -2.9090   26.5320 N   0  0  0  0  0  0  0  0  0  0  0  0
    7.8080   -3.7050   26.6180 C   0  0  0  0  0  0  0  0  0  0  0  0
    7.4250   -5.0910   26.1790 C   0  0  0  0  0  0  0  0  0  0  0  0
    8.2390   -5.7190   25.2620 O   0  0  0  0  0  0  0  0  0  0  0  0
    6.2960   -5.6240   26.7330 O   0  0  0  0  0  0  0  0  0  0  0  0
    6.4160   -5.8310   28.0640 C   0  0  0  0  0  0  0  0  0  0  0  0
    5.8870   -6.8800   28.7370 C   0  0  0  0  0  0  0  0  0  0  0  0
    7.9080   -5.7880   28.3380 C   0  0  0  0  0  0  0  0  0  0  0  0
    5.8810   -4.5910   28.7120 C   0  0  0  0  0  0  0  0  0  0  0  0
    6.7200   -1.6350   27.1440 C   0  0  0  0  0  0  0  0  0  0  0  0
    7.3520   -1.4880   28.5020 C   0  0  0  0  0  0  0  0  0  0  0  0
    6.5140   -0.5390   29.2890 C   0  0  0  0  0  0  0  0  0  0  0  0
    6.4300    0.6720   28.5790 N   0  0  0  0  0  0  0  0  0  0  0  0
    5.6290    1.8970   29.4860 S   0  0  0  0  0  0  0  0  0  0  0  0
    6.5990    2.7080   30.3000 O   0  0  0  0  0  0  0  0  0  0  0  0
    4.9260    2.8630   28.5020 O   0  0  0  0  0  0  0  0  0  0  0  0
    4.4660    1.1770   30.5100 C   0  0  0  0  0  0  0  0  0  0  0  0
    3.3270    0.7840   29.5830 C   0  0  0  0  0  0  0  0  0  0  0  0
    5.8340    0.5610   27.2790 C   0  0  0  0  0  0  0  0  0  0  0  0
    5.6060   -0.8770   26.8630 C   0  0  0  0  0  0  0  0  0  0  0  0
    5.7650   -4.8010   23.5560 C   0  0  0  0  0  0  0  0  0  0  0  0
    6.4360   -5.3220   22.3100 C   0  0  0  0  0  0  0  0  0  0  0  0
  1  2  1  0
  2  3  2  0
  2  4  1  0
  4  5  1  0
  5  6  1  0
  6  7  1  0
  7  8  1  0
  8  9  2  0
  8 10  1  0
 10 11  1  0
 11 12  1  0
 12 13  2  0
 12 14  1  0
 15 14  1  0
 15 16  1  0
 15 17  1  0
 15 18  1  0
 10 19  1  0
 19 20  1  0
 20 21  1  0
 21 22  1  0
 22 23  1  0
 23 24  2  0
 23 25  2  0
 23 26  1  0
 26 27  1  0
 22 28  1  0
 19 29  1  0
 28 29  1  0
  7 30  1  0
  4 31  1  0
 30 31  1  0
M  END
