piperidine-amides-33277-covalent
     RDKit          3D

 29 31  0  0  0  0  0  0  0  0999 V2000
    7.0730   -3.3410   19.2960 C   0  0  0  0  0  0  0  0  0  0  0  0
    6.3680   -4.1790   20.2790 C   0  0  0  0  0  0  0  0  0  0  0  0
    5.2870   -4.7020   19.9270 O   0  0  0  0  0  0  0  0  0  0  0  0
    6.9400   -4.4190   21.5460 N   0  0  0  0  0  0  0  0  0  0  0  0
    6.4590   -5.5310   22.2970 C   0  0  0  0  0  0  0  0  0  0  0  0
    6.0170   -5.1890   23.6560 C   0  0  0  0  0  0  0  0  0  0  0  0
    6.0350   -3.7430   23.9520 C   0  0  0  0  0  0  0  0  0  0  0  0
    5.5790   -3.3810   25.3390 C   0  0  0  0  0  0  0  0  0  0  0  0
    4.5700   -2.6710   25.4300 O   0  0  0  0  0  0  0  0  0  0  0  0
    6.2410   -3.8280   26.5030 N   0  0  0  0  0  0  0  0  0  0  0  0
    6.9640   -5.0370   26.5590 C   0  0  0  0  0  0  0  0  0  0  0  0
    7.3440   -5.6540   27.8060 C   0  0  0  0  0  0  0  0  0  0  0  0
    6.6540   -4.8770   28.9200 C   0  0  0  0  0  0  0  0  0  0  0  0
    5.3440   -4.5590   28.6750 C   0  0  0  0  0  0  0  0  0  0  0  0
    5.7010   -3.3380   27.8110 C   0  0  0  0  0  0  0  0  0  0  0  0
    4.2060   -3.1120   27.5700 C   0  0  0  0  0  0  0  0  0  0  0  0
    3.8210   -3.0010   29.0720 C   0  0  0  0  0  0  0  0  0  0  0  0
    4.3940   -1.9050   29.7360 N   0  0  0  0  0  0  0  0  0  0  0  0
    4.0840   -2.0270   31.0980 C   0  0  0  0  0  0  0  0  0  0  0  0
    3.4380   -3.1270   31.6920 O   0  0  0  0  0  0  0  0  0  0  0  0
    4.4340   -0.9940   31.8970 O   0  0  0  0  0  0  0  0  0  0  0  0
    3.4560   -0.0830   32.3570 C   0  0  0  0  0  0  0  0  0  0  0  0
    4.0140    1.3280   32.5950 C   0  0  0  0  0  0  0  0  0  0  0  0
    2.7900   -0.6770   33.5680 C   0  0  0  0  0  0  0  0  0  0  0  0
    2.4290    0.3570   31.4160 C   0  0  0  0  0  0  0  0  0  0  0  0
    5.7550   -1.5300   29.4300 C   0  0  0  0  0  0  0  0  0  0  0  0
    6.4670   -2.3170   28.3730 C   0  0  0  0  0  0  0  0  0  0  0  0
    7.3680   -3.1980   23.6200 C   0  0  0  0  0  0  0  0  0  0  0  0
    7.6340   -3.3290   22.1490 C   0  0  0  0  0  0  0  0  0  0  0  0
  1  2  1  0
  2  3  2  0
  2  4  1  0
  4  5  1  0
  5  6  1  0
  6  7  1  0
  7  8  1  0
  8  9  2  0
  8 10  1  0
 10 11  1  0
 11 12  1  0
 12 13  1  0
 13 14  1  0
 15 10  1  0
 14 15  1  0
 15 16  1  0
 16 17  1  0
 17 18  1  0
 18 19  1  0
 19 20  2  0
 19 21  1  0
 22 21  1  0
 22 23  1  0
 22 24  1  0
 22 25  1  0
 18 26  1  0
 15 27  1  0
 26 27  1  0
  7 28  1  0
  4 29  1  0
 28 29  1  0
M  END
