piperidine-amides-26841-covalent
     RDKit          3D

 25 27  0  0  0  0  0  0  0  0999 V2000
    7.1590   -3.2370   19.1540 C   0  0  0  0  0  0  0  0  0  0  0  0
    6.3940   -3.9570   20.1780 C   0  0  0  0  0  0  0  0  0  0  0  0
    5.2770   -4.4250   19.8360 O   0  0  0  0  0  0  0  0  0  0  0  0
    6.9280   -4.1530   21.4460 N   0  0  0  0  0  0  0  0  0  0  0  0
    7.7600   -3.1590   22.0740 C   0  0  0  0  0  0  0  0  0  0  0  0
    7.0740   -2.6680   23.3140 C   0  0  0  0  0  0  0  0  0  0  0  0
    5.6070   -3.0120   23.3490 C   0  0  0  0  0  0  0  0  0  0  0  0
    5.0190   -2.5280   24.6190 C   0  0  0  0  0  0  0  0  0  0  0  0
    3.9910   -1.8370   24.6000 O   0  0  0  0  0  0  0  0  0  0  0  0
    5.5710   -2.8490   25.8350 N   0  0  0  0  0  0  0  0  0  0  0  0
    6.2280   -1.8560   26.6610 C   0  0  0  0  0  0  0  0  0  0  0  0
    5.9080   -4.2220   25.8750 C   0  0  2  0  0  0  0  0  0  0  0  0
    5.4350   -4.8200   27.0070 C   0  0  0  0  0  0  0  0  0  0  0  0
    6.6290   -5.3830   27.2500 C   0  0  2  0  0  0  0  0  0  0  0  0
    7.1530   -5.0550   28.3650 O   0  0  0  0  0  0  0  0  0  0  0  0
    8.3340   -5.5100   28.2260 C   0  0  0  0  0  0  0  0  0  0  0  0
    9.4770   -4.7820   28.2890 C   0  0  0  0  0  0  0  0  0  0  0  0
    7.2010   -4.6250   26.0560 C   0  0  0  0  0  0  0  0  0  0  0  0
    7.8530   -5.4750   25.0060 C   0  0  0  0  0  0  0  0  0  0  0  0
    9.0370   -5.9400   25.8740 C   0  0  0  0  0  0  0  0  0  0  0  0
   10.0360   -4.8470   26.0240 C   0  0  0  0  0  0  0  0  0  0  0  0
    9.3470   -3.5380   25.8460 C   0  0  0  0  0  0  0  0  0  0  0  0
    8.0550   -3.5740   26.3640 C   0  0  0  0  0  0  0  0  0  0  0  0
    5.4120   -4.5300   23.2270 C   0  0  0  0  0  0  0  0  0  0  0  0
    6.4240   -5.1910   22.3040 C   0  0  0  0  0  0  0  0  0  0  0  0
  1  2  1  0
  2  3  2  0
  2  4  1  0
  4  5  1  0
  5  6  1  0
  6  7  1  0
  7  8  1  0
  8  9  2  0
  8 10  1  0
 10 11  1  0
 12 10  1  1
 12 13  1  0
 13 14  1  0
 14 15  1  1
 15 16  1  0
 16 17  1  0
 12 18  1  0
 14 18  1  0
 18 19  1  0
 19 20  1  0
 20 21  1  0
 21 22  1  0
 18 23  1  0
 22 23  1  0
  7 24  1  0
  4 25  1  0
 24 25  1  0
M  END
