piperidine-amides-10006-covalent
     RDKit          3D

 26 28  0  0  0  0  0  0  0  0999 V2000
    7.0400   -3.3520   19.3590 C   0  0  0  0  0  0  0  0  0  0  0  0
    6.3990   -4.1920   20.3770 C   0  0  0  0  0  0  0  0  0  0  0  0
    5.3990   -4.8570   19.9890 O   0  0  0  0  0  0  0  0  0  0  0  0
    6.9120   -4.2680   21.6820 N   0  0  0  0  0  0  0  0  0  0  0  0
    7.7470   -3.2090   22.2370 C   0  0  0  0  0  0  0  0  0  0  0  0
    7.3920   -2.9660   23.6840 C   0  0  0  0  0  0  0  0  0  0  0  0
    6.0600   -3.5650   24.0300 C   0  0  0  0  0  0  0  0  0  0  0  0
    5.6170   -3.2170   25.4080 C   0  0  0  0  0  0  0  0  0  0  0  0
    4.4210   -3.4490   25.6740 O   0  0  0  0  0  0  0  0  0  0  0  0
    6.4330   -2.6410   26.4180 N   0  0  0  0  0  0  0  0  0  0  0  0
    6.0030   -1.4920   27.2140 C   0  0  0  0  0  0  0  0  0  0  0  0
    4.7980   -2.0060   28.0220 C   0  0  0  0  0  0  0  0  0  0  0  0
    4.9380   -2.5630   29.2830 C   0  0  0  0  0  0  0  0  0  0  0  0
    3.8510   -3.0180   29.9880 C   0  0  0  0  0  0  0  0  0  0  0  0
    2.5650   -2.9630   29.5150 C   0  0  0  0  0  0  0  0  0  0  0  0
    1.5250   -3.4260   30.2510 F   0  0  0  0  0  0  0  0  0  0  0  0
    2.4180   -2.4130   28.2610 C   0  0  0  0  0  0  0  0  0  0  0  0
    3.4900   -1.9420   27.5180 C   0  0  0  0  0  0  0  0  0  0  0  0
    3.2720   -1.4140   26.2930 F   0  0  0  0  0  0  0  0  0  0  0  0
    5.9370   -0.2890   26.4250 C   0  0  0  0  0  0  0  0  0  0  0  0
    5.0130   -0.0630   27.6190 C   0  0  0  0  0  0  0  0  0  0  0  0
    5.4940    0.2170   28.7130 O   0  0  0  0  0  0  0  0  0  0  0  0
    6.5850   -0.4340   29.2070 C   0  0  0  0  0  0  0  0  0  0  0  0
    7.1690   -1.4040   28.1950 C   0  0  0  0  0  0  0  0  0  0  0  0
    6.0480   -5.0380   23.8110 C   0  0  0  0  0  0  0  0  0  0  0  0
    6.6470   -5.4360   22.4770 C   0  0  0  0  0  0  0  0  0  0  0  0
  1  2  1  0
  2  3  2  0
  2  4  1  0
  4  5  1  0
  5  6  1  0
  6  7  1  0
  7  8  1  0
  8  9  2  0
  8 10  1  0
 11 10  1  0
 11 12  1  0
 12 13  2  0
 13 14  1  0
 14 15  2  0
 15 16  1  0
 15 17  1  0
 12 18  1  0
 17 18  2  0
 18 19  1  0
 11 20  1  0
 20 21  1  0
 21 22  1  0
 22 23  1  0
 11 24  1  0
 23 24  1  0
  7 25  1  0
  4 26  1  0
 25 26  1  0
M  END
