piperidine-amides-1323-covalent
     RDKit          3D

 22 23  0  0  0  0  0  0  0  0999 V2000
    7.1170   -3.2630   19.2180 C   0  0  0  0  0  0  0  0  0  0  0  0
    6.3460   -4.0380   20.2270 C   0  0  0  0  0  0  0  0  0  0  0  0
    5.2790   -4.5760   19.8950 O   0  0  0  0  0  0  0  0  0  0  0  0
    6.8810   -4.1790   21.5210 N   0  0  0  0  0  0  0  0  0  0  0  0
    7.6880   -3.1700   22.1580 C   0  0  0  0  0  0  0  0  0  0  0  0
    6.8580   -2.6130   23.3140 C   0  0  0  0  0  0  0  0  0  0  0  0
    6.5130   -3.7710   24.1910 C   0  0  0  0  0  0  0  0  0  0  0  0
    5.7420   -3.3680   25.3920 C   0  0  0  0  0  0  0  0  0  0  0  0
    4.5880   -2.9760   25.1910 O   0  0  0  0  0  0  0  0  0  0  0  0
    6.3150   -3.4310   26.6710 N   0  0  0  0  0  0  0  0  0  0  0  0
    6.0690   -4.3940   27.6990 C   0  0  0  0  0  0  0  0  0  0  0  0
    6.0340   -5.7690   27.5200 C   0  0  0  0  0  0  0  0  0  0  0  0
    4.8220   -6.4750   27.4480 C   0  0  0  0  0  0  0  0  0  0  0  0
    4.1870   -6.6260   26.2400 C   0  0  0  0  0  0  0  0  0  0  0  0
    2.9090   -7.3420   26.0340 C   0  0  0  0  0  0  0  0  0  0  0  0
    2.2000   -7.4720   24.4270 Cl  0  0  0  0  0  0  0  0  0  0  0  0
    2.2120   -7.9740   27.2310 C   0  0  0  0  0  0  0  0  0  0  0  0
    3.0440   -7.7200   28.4910 C   0  0  0  0  0  0  0  0  0  0  0  0
    4.2460   -7.0310   28.5690 C   0  0  0  0  0  0  0  0  0  0  0  0
    5.0600   -6.8880   30.2890 Br  0  0  0  0  0  0  0  0  0  0  0  0
    5.7660   -4.8660   23.5010 C   0  0  0  0  0  0  0  0  0  0  0  0
    6.5330   -5.3460   22.2860 C   0  0  0  0  0  0  0  0  0  0  0  0
  1  2  1  0
  2  3  2  0
  2  4  1  0
  4  5  1  0
  5  6  1  0
  6  7  1  0
  7  8  1  0
  8  9  2  0
  8 10  1  0
 10 11  1  0
 11 12  1  0
 12 13  1  0
 13 14  2  0
 14 15  1  0
 15 16  1  0
 15 17  2  0
 17 18  1  0
 13 19  1  0
 18 19  2  0
 19 20  1  0
  7 21  1  0
  4 22  1  0
 21 22  1  0
M  END
