piperidine-amides-13068-covalent
     RDKit          3D

 20 21  0  0  0  0  0  0  0  0999 V2000
    7.0800   -3.3350   19.2200 C   0  0  0  0  0  0  0  0  0  0  0  0
    6.3340   -4.0830   20.2560 C   0  0  0  0  0  0  0  0  0  0  0  0
    5.2680   -4.6120   19.9000 O   0  0  0  0  0  0  0  0  0  0  0  0
    6.8430   -4.2270   21.5490 N   0  0  0  0  0  0  0  0  0  0  0  0
    7.6000   -3.1560   22.1200 C   0  0  0  0  0  0  0  0  0  0  0  0
    7.1340   -2.7110   23.4290 C   0  0  0  0  0  0  0  0  0  0  0  0
    6.5820   -3.7920   24.2600 C   0  0  0  0  0  0  0  0  0  0  0  0
    5.8490   -3.2470   25.4400 C   0  0  0  0  0  0  0  0  0  0  0  0
    4.6100   -3.3950   25.4620 O   0  0  0  0  0  0  0  0  0  0  0  0
    6.5040   -2.5780   26.5060 N   0  0  0  0  0  0  0  0  0  0  0  0
    5.8750   -1.4270   27.2150 C   0  0  2  0  0  0  0  0  0  0  0  0
    5.8560   -0.1850   26.3870 C   0  0  0  0  0  0  0  0  0  0  0  0
    6.2450   -0.1770   25.1870 O   0  0  0  0  0  0  0  0  0  0  0  0
    5.3710    1.0060   26.9900 N   0  0  0  0  0  0  0  0  0  0  0  0
    5.5960    1.0580   28.4090 C   0  0  0  0  0  0  0  0  0  0  0  0
    6.5600    0.1240   28.6400 C   0  0  0  0  0  0  0  0  0  0  0  0
    6.2950   -1.2200   28.6170 C   0  0  2  0  0  0  0  0  0  0  0  0
    7.4020   -1.8310   29.0300 C   0  0  0  0  0  0  0  0  0  0  0  0
    5.8200   -4.8600   23.5390 C   0  0  0  0  0  0  0  0  0  0  0  0
    6.4750   -5.3060   22.4250 C   0  0  0  0  0  0  0  0  0  0  0  0
  1  2  1  0
  2  3  2  0
  2  4  1  0
  4  5  1  0
  5  6  1  0
  6  7  1  0
  7  8  1  0
  8  9  2  0
  8 10  1  0
 11 10  1  6
 11 12  1  0
 12 13  2  0
 12 14  1  0
 14 15  1  0
 15 16  1  0
 11 17  1  0
 16 17  1  0
 17 18  1  6
  7 19  1  0
  4 20  1  0
 19 20  1  0
M  END
