piperidine-amides-5467-covalent
     RDKit          3D

 19 20  0  0  0  0  0  0  0  0999 V2000
    7.0340   -3.3450   19.3330 C   0  0  0  0  0  0  0  0  0  0  0  0
    6.3650   -4.1600   20.3490 C   0  0  0  0  0  0  0  0  0  0  0  0
    5.4150   -4.8860   19.9980 O   0  0  0  0  0  0  0  0  0  0  0  0
    6.8040   -4.1720   21.6900 N   0  0  0  0  0  0  0  0  0  0  0  0
    7.7170   -3.1580   22.1970 C   0  0  0  0  0  0  0  0  0  0  0  0
    7.4460   -3.0280   23.6690 C   0  0  0  0  0  0  0  0  0  0  0  0
    6.0970   -3.5840   24.0000 C   0  0  0  0  0  0  0  0  0  0  0  0
    5.5730   -3.2660   25.3560 C   0  0  0  0  0  0  0  0  0  0  0  0
    4.3230   -3.2630   25.5420 O   0  0  0  0  0  0  0  0  0  0  0  0
    6.3630   -2.9550   26.4930 N   0  0  0  0  0  0  0  0  0  0  0  0
    6.7160   -1.5510   26.8340 C   0  0  1  0  0  0  0  0  0  0  0  0
    5.5780   -0.6360   26.5880 C   0  0  0  0  0  0  0  0  0  0  0  0
    5.7110    0.7170   27.1680 C   0  0  0  0  0  0  0  0  0  0  0  0
    5.8580    0.7160   28.6690 C   0  0  2  0  0  0  0  0  0  0  0  0
    6.7270    1.9090   29.0130 C   0  0  0  0  0  0  0  0  0  0  0  0
    6.2290   -0.5920   29.1010 N   0  0  0  0  0  0  0  0  0  0  0  0
    7.0270   -1.4810   28.2840 C   0  0  0  0  0  0  0  0  0  0  0  0
    6.1050   -5.0750   23.7200 C   0  0  0  0  0  0  0  0  0  0  0  0
    6.6260   -5.3930   22.4520 C   0  0  0  0  0  0  0  0  0  0  0  0
  1  2  1  0
  2  3  2  0
  2  4  1  0
  4  5  1  0
  5  6  1  0
  6  7  1  0
  7  8  1  0
  8  9  2  0
  8 10  1  0
 11 10  1  1
 11 12  1  0
 12 13  1  0
 13 14  1  0
 14 15  1  6
 14 16  1  0
 11 17  1  0
 16 17  1  0
  7 18  1  0
  4 19  1  0
 18 19  1  0
M  END
