piperidine-amides-30867-covalent
     RDKit          3D

 28 31  0  0  0  0  0  0  0  0999 V2000
    7.0870   -3.3660   19.3830 C   0  0  0  0  0  0  0  0  0  0  0  0
    6.3710   -4.1720   20.3690 C   0  0  0  0  0  0  0  0  0  0  0  0
    5.3880   -4.8340   19.9900 O   0  0  0  0  0  0  0  0  0  0  0  0
    6.8030   -4.2520   21.7110 N   0  0  0  0  0  0  0  0  0  0  0  0
    6.6790   -5.4800   22.4720 C   0  0  0  0  0  0  0  0  0  0  0  0
    6.0900   -5.1070   23.8120 C   0  0  0  0  0  0  0  0  0  0  0  0
    6.1210   -3.6240   24.0340 C   0  0  0  0  0  0  0  0  0  0  0  0
    5.5300   -3.1930   25.3310 C   0  0  0  0  0  0  0  0  0  0  0  0
    4.2990   -2.9130   25.3630 O   0  0  0  0  0  0  0  0  0  0  0  0
    6.2180   -3.0620   26.5640 N   0  0  0  0  0  0  0  0  0  0  0  0
    6.1710   -4.2120   27.5050 C   0  0  0  0  0  0  0  0  0  0  0  0
    4.8820   -4.2810   28.2240 C   0  0  0  0  0  0  0  0  0  0  0  0
    4.5420   -5.3750   29.1280 C   0  0  0  0  0  0  0  0  0  0  0  0
    3.2150   -5.3540   29.8070 C   0  0  0  0  0  0  0  0  0  0  0  0
    2.2370   -4.2190   29.5650 C   0  0  0  0  0  0  0  0  0  0  0  0
    2.5540   -3.0980   28.6540 N   0  0  0  0  0  0  0  0  0  0  0  0
    3.8750   -3.1900   28.0270 C   0  0  0  0  0  0  0  0  0  0  0  0
    6.3010   -1.7530   27.1600 C   0  0  0  0  0  0  0  0  0  0  0  0
    6.9200   -1.6370   28.4490 C   0  0  0  0  0  0  0  0  0  0  0  0
    7.0930   -0.3520   29.2580 C   0  0  0  0  0  0  0  0  0  0  0  0
    6.5230    0.8390   28.5320 C   0  0  0  0  0  0  0  0  0  0  0  0
    5.9760    0.3730   27.2510 C   0  0  0  0  0  0  0  0  0  0  0  0
    5.8060   -0.5810   26.5630 C   0  0  0  0  0  0  0  0  0  0  0  0
    5.5310    1.6120   26.7930 O   0  0  0  0  0  0  0  0  0  0  0  0
    5.9890    2.5760   27.5290 C   0  0  0  0  0  0  0  0  0  0  0  0
    6.4130    2.1690   28.7760 O   0  0  0  0  0  0  0  0  0  0  0  0
    7.4750   -3.0510   23.7100 C   0  0  0  0  0  0  0  0  0  0  0  0
    7.6770   -3.2040   22.2040 C   0  0  0  0  0  0  0  0  0  0  0  0
  1  2  1  0
  2  3  2  0
  2  4  1  0
  4  5  1  0
  5  6  1  0
  6  7  1  0
  7  8  1  0
  8  9  2  0
  8 10  1  0
 10 11  1  0
 11 12  1  0
 12 13  2  0
 13 14  1  0
 14 15  2  0
 15 16  1  0
 12 17  1  0
 16 17  2  0
 10 18  1  0
 18 19  2  0
 19 20  1  0
 20 21  2  0
 21 22  1  0
 18 23  1  0
 22 23  2  0
 22 24  1  0
 24 25  1  0
 21 26  1  0
 25 26  1  0
  7 27  1  0
  4 28  1  0
 27 28  1  0
M  END
