piperidine-amides-25207-covalent
     RDKit          3D

 25 28  0  0  0  0  0  0  0  0999 V2000
    7.0200   -3.3530   19.3230 C   0  0  0  0  0  0  0  0  0  0  0  0
    6.3570   -4.2270   20.3250 C   0  0  0  0  0  0  0  0  0  0  0  0
    5.3460   -4.8240   19.9660 O   0  0  0  0  0  0  0  0  0  0  0  0
    6.9030   -4.3800   21.5990 N   0  0  0  0  0  0  0  0  0  0  0  0
    6.6840   -5.5680   22.3920 C   0  0  0  0  0  0  0  0  0  0  0  0
    5.8190   -5.2360   23.5820 C   0  0  0  0  0  0  0  0  0  0  0  0
    6.0140   -3.7620   23.9200 C   0  0  0  0  0  0  0  0  0  0  0  0
    5.5690   -3.4910   25.3080 C   0  0  0  0  0  0  0  0  0  0  0  0
    4.4800   -2.9270   25.4610 O   0  0  0  0  0  0  0  0  0  0  0  0
    6.3060   -3.8410   26.4590 N   0  0  0  0  0  0  0  0  0  0  0  0
    7.0530   -5.0780   26.3840 C   0  0  0  0  0  0  0  0  0  0  0  0
    7.0710   -5.4320   27.8290 C   0  0  0  0  0  0  0  0  0  0  0  0
    6.2910   -4.5980   28.5470 C   0  0  0  0  0  0  0  0  0  0  0  0
    5.6510   -3.6980   27.7450 C   0  0  1  0  0  0  0  0  0  0  0  0
    5.5090   -2.4640   28.3130 C   0  0  0  0  0  0  0  0  0  0  0  0
    5.3410   -1.4530   27.4500 N   0  0  0  0  0  0  0  0  0  0  0  0
    5.2040   -0.2570   28.2780 C   0  0  0  0  0  0  0  0  0  0  0  0
    5.0050    1.0730   27.8570 N   0  0  0  0  0  0  0  0  0  0  0  0
    4.8880    2.1380   28.8220 C   0  0  0  0  0  0  0  0  0  0  0  0
    4.9690    1.9270   30.3160 C   0  0  0  0  0  0  0  0  0  0  0  0
    5.1830    0.4840   30.6530 C   0  0  0  0  0  0  0  0  0  0  0  0
    5.3020   -0.6220   29.6610 C   0  0  0  0  0  0  0  0  0  0  0  0
    5.4870   -1.9500   29.7030 N   0  0  0  0  0  0  0  0  0  0  0  0
    7.3360   -3.2330   23.6040 C   0  0  0  0  0  0  0  0  0  0  0  0
    7.6900   -3.3060   22.1750 C   0  0  0  0  0  0  0  0  0  0  0  0
  1  2  1  0
  2  3  2  0
  2  4  1  0
  4  5  1  0
  5  6  1  0
  6  7  1  0
  7  8  1  0
  8  9  2  0
  8 10  1  0
 10 11  1  0
 11 12  1  0
 12 13  1  0
 10 14  1  0
 13 14  1  0
 14 15  1  1
 15 16  2  0
 16 17  1  0
 17 18  2  0
 18 19  1  0
 19 20  2  0
 20 21  1  0
 17 22  1  0
 21 22  2  0
 15 23  1  0
 22 23  1  0
  7 24  1  0
  4 25  1  0
 24 25  1  0
M  END
