piperidine-amides-4969-covalent
     RDKit          3D

 23 24  0  0  0  0  0  0  0  0999 V2000
    7.1170   -3.3140   19.2560 C   0  0  0  0  0  0  0  0  0  0  0  0
    6.3510   -4.0750   20.2610 C   0  0  0  0  0  0  0  0  0  0  0  0
    5.2760   -4.5790   19.8900 O   0  0  0  0  0  0  0  0  0  0  0  0
    6.8610   -4.2580   21.5480 N   0  0  0  0  0  0  0  0  0  0  0  0
    7.6020   -3.2100   22.1770 C   0  0  0  0  0  0  0  0  0  0  0  0
    7.0770   -2.7730   23.4680 C   0  0  0  0  0  0  0  0  0  0  0  0
    6.4650   -3.8440   24.2720 C   0  0  0  0  0  0  0  0  0  0  0  0
    5.7290   -3.2720   25.4250 C   0  0  0  0  0  0  0  0  0  0  0  0
    4.5090   -3.0510   25.2930 O   0  0  0  0  0  0  0  0  0  0  0  0
    6.3790   -2.9850   26.6440 N   0  0  0  0  0  0  0  0  0  0  0  0
    6.4210   -1.6310   27.2470 C   0  0  0  0  0  0  0  0  0  0  0  0
    5.7050   -0.4710   26.6970 C   0  0  0  0  0  0  0  0  0  0  0  0
    5.7700    0.8410   27.3440 C   0  0  0  0  0  0  0  0  0  0  0  0
    6.5110    1.0810   28.5140 C   0  0  0  0  0  0  0  0  0  0  0  0
    6.5910    2.1750   29.0950 O   0  0  0  0  0  0  0  0  0  0  0  0
    6.3100    2.0690   30.3640 C   0  0  0  0  0  0  0  0  0  0  0  0
    7.2490    1.5790   31.2280 C   0  0  0  0  0  0  0  0  0  0  0  0
    7.3390    2.4200   32.2940 C   0  0  0  0  0  0  0  0  0  0  0  0
    6.9510    0.2970   31.6690 C   0  0  0  0  0  0  0  0  0  0  0  0
    7.1950   -0.0600   29.0030 N   0  0  0  0  0  0  0  0  0  0  0  0
    7.1870   -1.3620   28.4550 C   0  0  0  0  0  0  0  0  0  0  0  0
    5.6580   -4.8380   23.5280 C   0  0  0  0  0  0  0  0  0  0  0  0
    6.4680   -5.3800   22.3790 C   0  0  0  0  0  0  0  0  0  0  0  0
  1  2  1  0
  2  3  2  0
  2  4  1  0
  4  5  1  0
  5  6  1  0
  6  7  1  0
  7  8  1  0
  8  9  2  0
  8 10  1  0
 10 11  1  0
 11 12  2  0
 12 13  1  0
 13 14  2  0
 14 15  1  0
 15 16  1  0
 16 17  1  0
 17 18  1  0
 17 19  1  0
 14 20  1  0
 11 21  1  0
 20 21  2  0
  7 22  1  0
  4 23  1  0
 22 23  1  0
M  END
