piperidine-amides-29420-covalent
     RDKit          3D

 22 24  0  0  0  0  0  0  0  0999 V2000
    6.9900   -3.3450   19.4250 C   0  0  0  0  0  0  0  0  0  0  0  0
    6.3630   -4.2220   20.4220 C   0  0  0  0  0  0  0  0  0  0  0  0
    5.4440   -4.9560   20.0110 O   0  0  0  0  0  0  0  0  0  0  0  0
    6.8030   -4.2590   21.7900 N   0  0  0  0  0  0  0  0  0  0  0  0
    6.6400   -5.4840   22.5380 C   0  0  0  0  0  0  0  0  0  0  0  0
    5.9960   -5.2000   23.8750 C   0  0  0  0  0  0  0  0  0  0  0  0
    5.8100   -3.7040   23.9420 C   0  0  0  0  0  0  0  0  0  0  0  0
    5.0160   -3.2810   25.1900 C   0  0  0  0  0  0  0  0  0  0  0  0
    3.8330   -3.5750   25.1270 O   0  0  0  0  0  0  0  0  0  0  0  0
    5.5450   -2.6180   26.3110 N   0  0  0  0  0  0  0  0  0  0  0  0
    4.8590   -2.3690   27.4620 C   0  0  0  0  0  0  0  0  0  0  0  0
    5.0730   -3.4990   28.2160 C   0  0  0  0  0  0  0  0  0  0  0  0
    4.0800   -3.7730   29.1820 C   0  0  0  0  0  0  0  0  0  0  0  0
    3.9300   -4.8330   30.1010 C   0  0  0  0  0  0  0  0  0  0  0  0
    4.9920   -5.8650   30.0470 C   0  0  0  0  0  0  0  0  0  0  0  0
    4.1790   -6.3380   31.0210 F   0  0  0  0  0  0  0  0  0  0  0  0
    5.4080   -4.8560   28.9950 C   0  0  0  0  0  0  0  0  0  0  0  0
    6.7210   -6.2090   28.9200 Br  0  0  0  0  0  0  0  0  0  0  0  0
    6.2330   -4.2850   27.9480 C   0  0  0  0  0  0  0  0  0  0  0  0
    6.6290   -3.2040   26.8710 C   0  0  0  0  0  0  0  0  0  0  0  0
    7.0380   -2.9300   23.6820 C   0  0  0  0  0  0  0  0  0  0  0  0
    7.5780   -3.1930   22.4240 C   0  0  0  0  0  0  0  0  0  0  0  0
  1  2  1  0
  2  3  2  0
  2  4  1  0
  4  5  1  0
  5  6  1  0
  6  7  1  0
  7  8  1  0
  8  9  2  0
  8 10  1  0
 10 11  1  0
 11 12  1  0
 12 13  1  0
 13 14  2  0
 14 15  1  0
 15 16  1  0
 15 17  2  0
 17 18  1  0
 12 19  2  0
 17 19  1  0
 10 20  1  0
 19 20  1  0
  7 21  1  0
  4 22  1  0
 21 22  1  0
M  END
