piperidine-amides-33688-covalent
     RDKit          3D

 29 31  0  0  0  0  0  0  0  0999 V2000
    7.1910   -3.1270   18.9380 C   0  0  0  0  0  0  0  0  0  0  0  0
    6.2040   -3.6360   19.8970 C   0  0  0  0  0  0  0  0  0  0  0  0
    5.0740   -3.9670   19.5000 O   0  0  0  0  0  0  0  0  0  0  0  0
    6.5290   -3.7920   21.2280 N   0  0  0  0  0  0  0  0  0  0  0  0
    7.2720   -2.7170   21.8350 C   0  0  0  0  0  0  0  0  0  0  0  0
    7.0890   -2.5850   23.2580 C   0  0  0  0  0  0  0  0  0  0  0  0
    6.7540   -3.8850   23.7910 C   0  0  0  0  0  0  0  0  0  0  0  0
    6.8850   -4.0190   25.2290 C   0  0  0  0  0  0  0  0  0  0  0  0
    6.0090   -3.5590   26.0060 O   0  0  0  0  0  0  0  0  0  0  0  0
    8.0470   -4.6950   25.6530 N   0  0  0  0  0  0  0  0  0  0  0  0
    8.5330   -4.6960   26.9800 C   0  0  0  0  0  0  0  0  0  0  0  0
    8.7730   -5.5600   24.6230 C   0  0  0  0  0  0  0  0  0  0  0  0
    7.9490   -6.7770   24.0230 C   0  0  0  0  0  0  0  0  0  0  0  0
    8.5050   -8.0650   23.5240 N   0  0  0  0  0  0  0  0  0  0  0  0
    7.2910   -8.9270   23.2520 C   0  0  0  0  0  0  0  0  0  0  0  0
    7.6340  -10.6660   22.8880 C   0  0  0  0  0  0  0  0  0  0  0  0
    7.6400  -11.8130   21.9160 C   0  0  0  0  0  0  0  0  0  0  0  0
    8.2690  -13.0440   22.1810 C   0  0  0  0  0  0  0  0  0  0  0  0
    8.7860  -13.6890   23.1150 C   0  0  0  0  0  0  0  0  0  0  0  0
    9.5610  -15.0950   22.9520 C   0  0  0  0  0  0  0  0  0  0  0  0
   10.7180  -14.4080   22.7970 C   0  0  0  0  0  0  0  0  0  0  0  0
    9.5530  -16.6260   22.6030 C   0  0  0  0  0  0  0  0  0  0  0  0
   10.8300  -14.7420   22.3980 C   0  0  0  0  0  0  0  0  0  0  0  0
    8.6140  -12.6760   24.0900 C   0  0  0  0  0  0  0  0  0  0  0  0
    8.0780  -11.1980   23.6730 C   0  0  0  0  0  0  0  0  0  0  0  0
    6.0700   -8.1040   23.5290 C   0  0  0  0  0  0  0  0  0  0  0  0
    6.3700   -6.5370   24.0560 S   0  0  0  0  0  0  0  0  0  0  0  0
    5.4330   -4.2810   23.2460 C   0  0  0  0  0  0  0  0  0  0  0  0
    5.8660   -4.8650   21.9330 C   0  0  0  0  0  0  0  0  0  0  0  0
  1  2  1  0
  2  3  2  0
  2  4  1  0
  4  5  1  0
  5  6  1  0
  6  7  1  0
  7  8  1  0
  8  9  2  0
  8 10  1  0
 10 11  1  0
 10 12  1  0
 12 13  1  0
 13 14  2  0
 14 15  1  0
 15 16  1  0
 16 17  2  0
 17 18  1  0
 18 19  2  0
 19 20  1  0
 20 21  1  0
 20 22  1  0
 20 23  1  0
 19 24  1  0
 16 25  1  0
 24 25  2  0
 15 26  2  0
 13 27  1  0
 26 27  1  0
  7 28  1  0
  4 29  1  0
 28 29  1  0
M  END
