piperidine-amides-27307-covalent
     RDKit          3D

 24 26  0  0  0  0  0  0  0  0999 V2000
    7.1280   -3.3440   19.2890 C   0  0  0  0  0  0  0  0  0  0  0  0
    6.3900   -4.1270   20.2750 C   0  0  0  0  0  0  0  0  0  0  0  0
    5.2900   -4.6090   19.9080 O   0  0  0  0  0  0  0  0  0  0  0  0
    6.9510   -4.3640   21.5250 N   0  0  0  0  0  0  0  0  0  0  0  0
    6.6470   -5.5440   22.2890 C   0  0  0  0  0  0  0  0  0  0  0  0
    5.9550   -5.0910   23.5390 C   0  0  0  0  0  0  0  0  0  0  0  0
    6.6840   -3.9580   24.2160 C   0  0  0  0  0  0  0  0  0  0  0  0
    5.9220   -3.5200   25.3850 C   0  0  0  0  0  0  0  0  0  0  0  0
    4.9520   -2.7510   25.2150 O   0  0  0  0  0  0  0  0  0  0  0  0
    6.2460   -3.9530   26.6660 N   0  0  0  0  0  0  0  0  0  0  0  0
    7.0070   -5.1670   26.8310 C   0  0  0  0  0  0  0  0  0  0  0  0
    7.0410   -5.2160   28.3100 C   0  0  0  0  0  0  0  0  0  0  0  0
    6.1850   -4.2860   28.8080 C   0  0  0  0  0  0  0  0  0  0  0  0
    5.5090   -3.5280   27.8590 C   0  0  2  0  0  0  0  0  0  0  0  0
    4.1380   -3.7260   27.7200 C   0  0  0  0  0  0  0  0  0  0  0  0
    3.6470   -4.9800   27.4190 O   0  0  0  0  0  0  0  0  0  0  0  0
    3.3050   -2.6780   27.8900 N   0  0  0  0  0  0  0  0  0  0  0  0
    2.5900   -2.4910   29.0140 C   0  0  0  0  0  0  0  0  0  0  0  0
    2.4910   -1.2090   29.5170 C   0  0  0  0  0  0  0  0  0  0  0  0
    1.1410   -0.7630   28.5580 S   0  0  0  0  0  0  0  0  0  0  0  0
    1.4120   -1.4380   26.9280 C   0  0  0  0  0  0  0  0  0  0  0  0
    2.6050   -2.3680   26.6930 C   0  0  0  0  0  0  0  0  0  0  0  0
    6.9280   -2.7800   23.2680 C   0  0  0  0  0  0  0  0  0  0  0  0
    7.7680   -3.3360   22.1550 C   0  0  0  0  0  0  0  0  0  0  0  0
  1  2  1  0
  2  3  2  0
  2  4  1  0
  4  5  1  0
  5  6  1  0
  6  7  1  0
  7  8  1  0
  8  9  2  0
  8 10  1  0
 10 11  1  0
 11 12  1  0
 12 13  1  0
 10 14  1  0
 13 14  1  0
 14 15  1  6
 15 16  2  0
 15 17  1  0
 17 18  1  0
 18 19  1  0
 19 20  1  0
 20 21  1  0
 17 22  1  0
 21 22  1  0
  7 23  1  0
  4 24  1  0
 23 24  1  0
M  END
