piperidine-amides-10338-covalent
     RDKit          3D

 24 25  0  0  0  0  0  0  0  0999 V2000
    7.0330   -3.3270   19.3320 C   0  0  0  0  0  0  0  0  0  0  0  0
    6.3610   -4.1460   20.3490 C   0  0  0  0  0  0  0  0  0  0  0  0
    5.3590   -4.8040   19.9640 O   0  0  0  0  0  0  0  0  0  0  0  0
    6.8440   -4.2110   21.6600 N   0  0  0  0  0  0  0  0  0  0  0  0
    7.7540   -3.2130   22.1890 C   0  0  0  0  0  0  0  0  0  0  0  0
    7.4230   -3.0330   23.6350 C   0  0  0  0  0  0  0  0  0  0  0  0
    6.0740   -3.6110   23.9320 C   0  0  0  0  0  0  0  0  0  0  0  0
    5.6310   -3.2030   25.2810 C   0  0  0  0  0  0  0  0  0  0  0  0
    4.4050   -3.1330   25.5060 O   0  0  0  0  0  0  0  0  0  0  0  0
    6.5310   -2.8960   26.3080 N   0  0  0  0  0  0  0  0  0  0  0  0
    6.4580   -1.6670   27.0490 C   0  0  0  0  0  0  0  0  0  0  0  0
    7.0260   -1.5450   28.4630 C   0  0  0  0  0  0  0  0  0  0  0  0
    6.9840   -0.3950   29.2370 C   0  0  0  0  0  0  0  0  0  0  0  0
    6.4080    0.8030   28.8060 C   0  0  0  0  0  0  0  0  0  0  0  0
    6.2930    2.0160   29.4720 C   0  0  0  0  0  0  0  0  0  0  0  0
    5.0420    2.2790   30.0100 C   0  0  0  0  0  0  0  0  0  0  0  0
    4.9470    2.1320   31.3810 C   0  0  0  0  0  0  0  0  0  0  0  0
    5.2000    0.9210   31.8950 F   0  0  0  0  0  0  0  0  0  0  0  0
    3.7380    2.3740   31.9220 F   0  0  0  0  0  0  0  0  0  0  0  0
    5.8120    3.0090   31.9840 F   0  0  0  0  0  0  0  0  0  0  0  0
    5.8000    0.8900   27.4470 C   0  0  0  0  0  0  0  0  0  0  0  0
    5.8830   -0.3950   26.6660 C   0  0  0  0  0  0  0  0  0  0  0  0
    6.0760   -5.1380   23.7640 C   0  0  0  0  0  0  0  0  0  0  0  0
    6.6970   -5.4560   22.4070 C   0  0  0  0  0  0  0  0  0  0  0  0
  1  2  1  0
  2  3  2  0
  2  4  1  0
  4  5  1  0
  5  6  1  0
  6  7  1  0
  7  8  1  0
  8  9  2  0
  8 10  1  0
 10 11  1  0
 11 12  2  0
 12 13  1  0
 13 14  2  0
 14 15  1  0
 15 16  1  0
 16 17  1  0
 17 18  1  0
 17 19  1  0
 17 20  1  0
 14 21  1  0
 11 22  1  0
 21 22  2  0
  7 23  1  0
  4 24  1  0
 23 24  1  0
M  END
