piperidine-amides-11625-covalent
     RDKit          3D

 21 23  0  0  0  0  0  0  0  0999 V2000
    7.1090   -3.2960   19.2040 C   0  0  0  0  0  0  0  0  0  0  0  0
    6.3670   -4.0670   20.2020 C   0  0  0  0  0  0  0  0  0  0  0  0
    5.2870   -4.5740   19.9000 O   0  0  0  0  0  0  0  0  0  0  0  0
    6.9170   -4.2980   21.5120 N   0  0  0  0  0  0  0  0  0  0  0  0
    6.4740   -5.4460   22.2460 C   0  0  0  0  0  0  0  0  0  0  0  0
    5.7860   -4.9840   23.5000 C   0  0  0  0  0  0  0  0  0  0  0  0
    6.6420   -3.9090   24.1650 C   0  0  0  0  0  0  0  0  0  0  0  0
    5.9300   -3.4090   25.3640 C   0  0  0  0  0  0  0  0  0  0  0  0
    4.6980   -3.2090   25.3720 O   0  0  0  0  0  0  0  0  0  0  0  0
    6.6790   -3.1520   26.5330 N   0  0  0  0  0  0  0  0  0  0  0  0
    6.0060   -2.5390   27.6520 C   0  0  2  0  0  0  0  0  0  0  0  0
    6.5860   -1.2350   27.9030 C   0  0  0  0  0  0  0  0  0  0  0  0
    6.8440   -1.6870   29.1450 C   0  0  1  0  0  0  0  0  0  0  0  0
    6.4940   -0.7490   30.1750 N   0  0  0  0  0  0  0  0  0  0  0  0
    7.4080   -0.2020   31.1100 C   0  0  0  0  0  0  0  0  0  0  0  0
    6.7030    0.6250   31.9020 C   0  0  0  0  0  0  0  0  0  0  0  0
    5.3250    0.5950   31.4570 C   0  0  0  0  0  0  0  0  0  0  0  0
    5.2430   -0.2740   30.3810 N   0  0  0  0  0  0  0  0  0  0  0  0
    6.2420   -2.9790   28.9820 C   0  0  0  0  0  0  0  0  0  0  0  0
    6.8130   -2.7430   23.1970 C   0  0  0  0  0  0  0  0  0  0  0  0
    7.6150   -3.1950   22.1560 C   0  0  0  0  0  0  0  0  0  0  0  0
  1  2  1  0
  2  3  2  0
  2  4  1  0
  4  5  1  0
  5  6  1  0
  6  7  1  0
  7  8  1  0
  8  9  2  0
  8 10  1  0
 11 10  1  6
 11 12  1  0
 12 13  1  0
 13 14  1  1
 14 15  1  0
 15 16  2  0
 16 17  1  0
 14 18  1  0
 17 18  2  0
 11 19  1  0
 13 19  1  0
  7 20  1  0
  4 21  1  0
 20 21  1  0
M  END
