piperidine-amides-2234-covalent
     RDKit          3D

 29 31  0  0  0  0  0  0  0  0999 V2000
    7.0900   -3.3010   19.2630 C   0  0  0  0  0  0  0  0  0  0  0  0
    6.3820   -4.1330   20.2710 C   0  0  0  0  0  0  0  0  0  0  0  0
    5.3350   -4.6740   19.9240 O   0  0  0  0  0  0  0  0  0  0  0  0
    6.9320   -4.3180   21.5360 N   0  0  0  0  0  0  0  0  0  0  0  0
    6.4950   -5.4090   22.3530 C   0  0  0  0  0  0  0  0  0  0  0  0
    5.7130   -4.8350   23.5020 C   0  0  0  0  0  0  0  0  0  0  0  0
    6.5710   -3.7910   24.2270 C   0  0  0  0  0  0  0  0  0  0  0  0
    5.8110   -3.2670   25.3730 C   0  0  0  0  0  0  0  0  0  0  0  0
    4.6160   -2.9680   25.2310 O   0  0  0  0  0  0  0  0  0  0  0  0
    6.4330   -3.1080   26.6180 N   0  0  0  0  0  0  0  0  0  0  0  0
    6.4100   -1.8210   27.2730 C   0  0  0  0  0  0  0  0  0  0  0  0
    5.7950   -0.5640   26.7080 C   0  0  0  0  0  0  0  0  0  0  0  0
    5.7230    0.6920   27.2640 C   0  0  0  0  0  0  0  0  0  0  0  0
    6.2720    0.8940   28.5080 C   0  0  0  0  0  0  0  0  0  0  0  0
    6.1730    2.1740   29.0370 O   0  0  0  0  0  0  0  0  0  0  0  0
    5.0240    2.8540   28.6730 C   0  0  0  0  0  0  0  0  0  0  0  0
    4.2340    3.1730   29.9310 C   0  0  0  0  0  0  0  0  0  0  0  0
    2.8630    3.5900   29.4760 C   0  0  0  0  0  0  0  0  0  0  0  0
    1.9410    3.9440   30.6160 C   0  0  0  0  0  0  0  0  0  0  0  0
    2.4900    3.8370   31.9930 C   0  0  0  0  0  0  0  0  0  0  0  0
    3.8840    3.4030   32.2590 C   0  0  0  0  0  0  0  0  0  0  0  0
    4.3010    3.3240   33.4330 O   0  0  0  0  0  0  0  0  0  0  0  0
    4.4580    1.9990   33.9700 C   0  0  0  0  0  0  0  0  0  0  0  0
    4.7180    3.0820   31.1880 N   0  0  0  0  0  0  0  0  0  0  0  0
    6.9530   -0.2120   29.2770 C   0  0  0  0  0  0  0  0  0  0  0  0
    7.6300    0.1280   30.8650 Cl  0  0  0  0  0  0  0  0  0  0  0  0
    7.0310   -1.5780   28.6700 C   0  0  0  0  0  0  0  0  0  0  0  0
    6.8800   -2.6660   23.2890 C   0  0  0  0  0  0  0  0  0  0  0  0
    7.6320   -3.2060   22.1130 C   0  0  0  0  0  0  0  0  0  0  0  0
  1  2  1  0
  2  3  2  0
  2  4  1  0
  4  5  1  0
  5  6  1  0
  6  7  1  0
  7  8  1  0
  8  9  2  0
  8 10  1  0
 10 11  1  0
 11 12  2  0
 12 13  1  0
 13 14  2  0
 14 15  1  0
 15 16  1  0
 16 17  1  0
 17 18  2  0
 18 19  1  0
 19 20  2  0
 20 21  1  0
 21 22  1  0
 22 23  1  0
 17 24  1  0
 21 24  2  0
 14 25  1  0
 25 26  1  0
 11 27  1  0
 25 27  2  0
  7 28  1  0
  4 29  1  0
 28 29  1  0
M  END
