piperidine-amides-5439-covalent
     RDKit          3D

 20 21  0  0  0  0  0  0  0  0999 V2000
    7.1030   -3.2810   19.1810 C   0  0  0  0  0  0  0  0  0  0  0  0
    6.3600   -4.0140   20.2120 C   0  0  0  0  0  0  0  0  0  0  0  0
    5.3140   -4.6090   19.9050 O   0  0  0  0  0  0  0  0  0  0  0  0
    6.8410   -4.0890   21.5260 N   0  0  0  0  0  0  0  0  0  0  0  0
    7.7530   -3.0950   22.0370 C   0  0  0  0  0  0  0  0  0  0  0  0
    7.2170   -2.6990   23.3730 C   0  0  0  0  0  0  0  0  0  0  0  0
    6.8530   -3.8880   24.2130 C   0  0  0  0  0  0  0  0  0  0  0  0
    6.2830   -3.4540   25.5040 C   0  0  0  0  0  0  0  0  0  0  0  0
    5.0230   -3.3390   25.6500 O   0  0  0  0  0  0  0  0  0  0  0  0
    7.1190   -3.1240   26.6020 N   0  0  0  0  0  0  0  0  0  0  0  0
    7.6510   -4.1630   27.5210 C   0  0  2  0  0  0  0  0  0  0  0  0
    8.5320   -5.1100   26.7920 C   0  0  0  0  0  0  0  0  0  0  0  0
    6.5200   -5.0120   28.1010 C   0  0  0  0  0  0  0  0  0  0  0  0
    5.1070   -5.0100   27.8990 N   0  0  0  0  0  0  0  0  0  0  0  0
    4.7270   -5.9960   28.6970 N   0  0  0  0  0  0  0  0  0  0  0  0
    5.8750   -6.5240   29.3150 C   0  0  0  0  0  0  0  0  0  0  0  0
    5.8380   -7.6670   30.2910 C   0  0  0  0  0  0  0  0  0  0  0  0
    6.9730   -5.8220   28.8690 O   0  0  0  0  0  0  0  0  0  0  0  0
    5.8770   -4.7650   23.4900 C   0  0  0  0  0  0  0  0  0  0  0  0
    6.4150   -5.2090   22.3110 C   0  0  0  0  0  0  0  0  0  0  0  0
  1  2  1  0
  2  3  2  0
  2  4  1  0
  4  5  1  0
  5  6  1  0
  6  7  1  0
  7  8  1  0
  8  9  2  0
  8 10  1  0
 10 11  1  0
 11 12  1  6
 11 13  1  0
 13 14  2  0
 14 15  1  0
 15 16  2  0
 16 17  1  0
 13 18  1  0
 16 18  1  0
  7 19  1  0
  4 20  1  0
 19 20  1  0
M  END
