piperidine-amides-13564-covalent
     RDKit          3D

 29 31  0  0  0  0  0  0  0  0999 V2000
    7.0920   -3.2930   19.2710 C   0  0  0  0  0  0  0  0  0  0  0  0
    6.3410   -4.1280   20.2490 C   0  0  0  0  0  0  0  0  0  0  0  0
    5.2700   -4.6440   19.9060 O   0  0  0  0  0  0  0  0  0  0  0  0
    6.8930   -4.3550   21.5190 N   0  0  0  0  0  0  0  0  0  0  0  0
    7.5090   -3.2850   22.2480 C   0  0  0  0  0  0  0  0  0  0  0  0
    6.4270   -2.8380   23.2210 C   0  0  0  0  0  0  0  0  0  0  0  0
    6.2290   -3.9760   24.1810 C   0  0  0  0  0  0  0  0  0  0  0  0
    5.3760   -3.6060   25.3470 C   0  0  0  0  0  0  0  0  0  0  0  0
    4.1880   -3.3950   25.0870 O   0  0  0  0  0  0  0  0  0  0  0  0
    5.8800   -3.4820   26.6660 N   0  0  0  0  0  0  0  0  0  0  0  0
    6.9290   -4.1930   27.2980 C   0  0  2  0  0  0  0  0  0  0  0  0
    8.1420   -4.3600   26.7080 C   0  0  0  0  0  0  0  0  0  0  0  0
    8.5550   -3.3450   25.8360 C   0  0  0  0  0  0  0  0  0  0  0  0
    7.7580   -2.4320   25.2190 C   0  0  0  0  0  0  0  0  0  0  0  0
    8.4950   -1.6250   24.4610 N   0  0  0  0  0  0  0  0  0  0  0  0
    9.7740   -1.9760   24.5700 C   0  0  0  0  0  0  0  0  0  0  0  0
   10.9940   -1.3490   23.9040 C   0  0  0  0  0  0  0  0  0  0  0  0
   12.2100   -2.1130   24.3920 C   0  0  0  0  0  0  0  0  0  0  0  0
   12.1570   -3.1770   25.2710 C   0  0  0  0  0  0  0  0  0  0  0  0
   13.3820   -3.6260   25.5590 O   0  0  0  0  0  0  0  0  0  0  0  0
   14.2280   -2.5500   25.6510 C   0  0  0  0  0  0  0  0  0  0  0  0
   10.9870   -3.6640   25.7830 C   0  0  0  0  0  0  0  0  0  0  0  0
    9.8430   -3.0620   25.4380 C   0  0  0  0  0  0  0  0  0  0  0  0
    6.4820   -5.5490   27.7800 C   0  0  0  0  0  0  0  0  0  0  0  0
    7.0380   -6.0810   28.7880 O   0  0  0  0  0  0  0  0  0  0  0  0
    5.5140   -6.2100   27.2080 O   0  0  0  0  0  0  0  0  0  0  0  0
    4.7270   -7.1400   27.9400 C   0  0  0  0  0  0  0  0  0  0  0  0
    5.5800   -5.1350   23.4440 C   0  0  0  0  0  0  0  0  0  0  0  0
    6.4270   -5.5190   22.2750 C   0  0  0  0  0  0  0  0  0  0  0  0
  1  2  1  0
  2  3  2  0
  2  4  1  0
  4  5  1  0
  5  6  1  0
  6  7  1  0
  7  8  1  0
  8  9  2  0
  8 10  1  0
 10 11  1  0
 11 12  1  6
 12 13  1  0
 13 14  2  0
 14 15  1  0
 15 16  1  0
 16 17  1  0
 17 18  2  0
 18 19  1  0
 19 20  1  0
 20 21  1  0
 19 22  2  0
 13 23  1  0
 16 23  2  0
 22 23  1  0
 11 24  1  0
 24 25  2  0
 24 26  1  0
 26 27  1  0
  7 28  1  0
  4 29  1  0
 28 29  1  0
M  END
