piperidine-amides-12105-covalent
     RDKit          3D

 25 26  0  0  0  0  0  0  0  0999 V2000
    7.0370   -3.3120   19.2790 C   0  0  0  0  0  0  0  0  0  0  0  0
    6.3360   -4.1000   20.2920 C   0  0  0  0  0  0  0  0  0  0  0  0
    5.3460   -4.7490   19.9590 O   0  0  0  0  0  0  0  0  0  0  0  0
    6.8130   -4.1660   21.6560 N   0  0  0  0  0  0  0  0  0  0  0  0
    6.6560   -5.4040   22.3830 C   0  0  0  0  0  0  0  0  0  0  0  0
    6.0320   -5.1270   23.7200 C   0  0  0  0  0  0  0  0  0  0  0  0
    6.1040   -3.6310   23.9310 C   0  0  0  0  0  0  0  0  0  0  0  0
    5.6040   -3.2460   25.2940 C   0  0  0  0  0  0  0  0  0  0  0  0
    4.3950   -3.0340   25.4950 O   0  0  0  0  0  0  0  0  0  0  0  0
    6.5050   -3.1060   26.3850 N   0  0  0  0  0  0  0  0  0  0  0  0
    6.2070   -3.7310   27.6730 C   0  0  2  0  0  0  0  0  0  0  0  0
    5.1550   -4.7870   27.4700 C   0  0  0  0  0  0  0  0  0  0  0  0
    4.6890   -6.0850   27.3910 O   0  0  0  0  0  0  0  0  0  0  0  0
    6.2020   -5.6360   27.6950 O   0  0  0  0  0  0  0  0  0  0  0  0
    6.4150   -6.4010   28.8440 C   0  0  0  0  0  0  0  0  0  0  0  0
    5.8460   -2.7610   28.7200 C   0  0  0  0  0  0  0  0  0  0  0  0
    6.6430   -1.6860   29.0900 C   0  0  0  0  0  0  0  0  0  0  0  0
    6.2920   -0.7410   30.1220 C   0  0  0  0  0  0  0  0  0  0  0  0
    5.1860   -0.6960   30.9050 C   0  0  0  0  0  0  0  0  0  0  0  0
    4.8610    0.2070   31.8890 O   0  0  0  0  0  0  0  0  0  0  0  0
    5.6970    1.3250   32.0910 C   0  0  0  0  0  0  0  0  0  0  0  0
    4.2830   -1.8470   30.5400 C   0  0  0  0  0  0  0  0  0  0  0  0
    4.6640   -2.8000   29.4800 C   0  0  0  0  0  0  0  0  0  0  0  0
    7.4840   -3.0910   23.6040 C   0  0  0  0  0  0  0  0  0  0  0  0
    7.6360   -3.1090   22.2100 C   0  0  0  0  0  0  0  0  0  0  0  0
  1  2  1  0
  2  3  2  0
  2  4  1  0
  4  5  1  0
  5  6  1  0
  6  7  1  0
  7  8  1  0
  8  9  2  0
  8 10  1  0
 11 10  1  6
 11 12  1  0
 12 13  2  0
 12 14  1  0
 14 15  1  0
 11 16  1  0
 16 17  2  0
 17 18  1  0
 18 19  2  0
 19 20  1  0
 20 21  1  0
 19 22  1  0
 16 23  1  0
 22 23  2  0
  7 24  1  0
  4 25  1  0
 24 25  1  0
M  END
