piperidine-amides-33212-covalent
     RDKit          3D

 25 27  0  0  0  0  0  0  0  0999 V2000
    7.0960   -3.3970   19.4260 C   0  0  0  0  0  0  0  0  0  0  0  0
    6.4410   -4.2650   20.4130 C   0  0  0  0  0  0  0  0  0  0  0  0
    5.4280   -4.8920   20.0070 O   0  0  0  0  0  0  0  0  0  0  0  0
    6.9700   -4.4210   21.7330 N   0  0  0  0  0  0  0  0  0  0  0  0
    6.6230   -5.5940   22.4750 C   0  0  0  0  0  0  0  0  0  0  0  0
    6.1300   -5.3000   23.8240 C   0  0  0  0  0  0  0  0  0  0  0  0
    5.9790   -3.8550   24.0470 C   0  0  0  0  0  0  0  0  0  0  0  0
    5.1080   -3.4490   25.2210 C   0  0  0  0  0  0  0  0  0  0  0  0
    4.0570   -2.8720   24.9180 O   0  0  0  0  0  0  0  0  0  0  0  0
    5.3240   -3.6550   26.6130 N   0  0  0  0  0  0  0  0  0  0  0  0
    4.2980   -3.8880   27.5600 C   0  0  0  0  0  0  0  0  0  0  0  0
    4.5760   -4.1720   28.9600 C   0  0  0  0  0  0  0  0  0  0  0  0
    5.4240   -5.4350   28.9650 C   0  0  0  0  0  0  0  0  0  0  0  0
    6.4290   -5.3370   28.0620 C   0  0  0  0  0  0  0  0  0  0  0  0
    6.7550   -3.9220   28.5800 C   0  0  0  0  0  0  0  0  0  0  0  0
    6.4780   -3.1980   27.2640 C   0  0  2  0  0  0  0  0  0  0  0  0
    6.2790   -1.8980   28.1030 C   0  0  0  0  0  0  0  0  0  0  0  0
    7.3380   -1.6090   29.1510 C   0  0  0  0  0  0  0  0  0  0  0  0
    7.2120   -0.3780   30.0050 C   0  0  0  0  0  0  0  0  0  0  0  0
    6.0360    0.5450   29.7920 C   0  0  0  0  0  0  0  0  0  0  0  0
    5.0710    0.1650   28.7340 C   0  0  0  0  0  0  0  0  0  0  0  0
    5.1810   -0.9900   27.9300 C   0  0  0  0  0  0  0  0  0  0  0  0
    3.7850   -1.1950   26.6520 Br  0  0  0  0  0  0  0  0  0  0  0  0
    7.2230   -3.0840   23.7860 C   0  0  0  0  0  0  0  0  0  0  0  0
    7.6830   -3.3220   22.3580 C   0  0  0  0  0  0  0  0  0  0  0  0
  1  2  1  0
  2  3  2  0
  2  4  1  0
  4  5  1  0
  5  6  1  0
  6  7  1  0
  7  8  1  0
  8  9  2  0
  8 10  1  0
 10 11  1  0
 11 12  1  0
 12 13  1  0
 13 14  1  0
 14 15  1  0
 10 16  1  0
 15 16  1  0
 16 17  1  1
 17 18  2  0
 18 19  1  0
 19 20  2  0
 20 21  1  0
 17 22  1  0
 21 22  2  0
 22 23  1  0
  7 24  1  0
  4 25  1  0
 24 25  1  0
M  END
