piperidine-amides-35387-covalent
     RDKit          3D

 33 36  0  0  0  0  0  0  0  0999 V2000
    7.0240   -3.3360   19.3990 C   0  0  0  0  0  0  0  0  0  0  0  0
    6.3890   -4.2210   20.4160 C   0  0  0  0  0  0  0  0  0  0  0  0
    5.4510   -4.9170   20.0090 O   0  0  0  0  0  0  0  0  0  0  0  0
    6.8620   -4.2700   21.7470 N   0  0  0  0  0  0  0  0  0  0  0  0
    6.6670   -5.4550   22.5550 C   0  0  0  0  0  0  0  0  0  0  0  0
    6.0540   -5.0850   23.8830 C   0  0  0  0  0  0  0  0  0  0  0  0
    6.0950   -3.5650   24.0380 C   0  0  0  0  0  0  0  0  0  0  0  0
    5.5870   -3.1450   25.3790 C   0  0  0  0  0  0  0  0  0  0  0  0
    4.3810   -2.8860   25.4580 O   0  0  0  0  0  0  0  0  0  0  0  0
    6.3570   -3.0260   26.5710 N   0  0  0  0  0  0  0  0  0  0  0  0
    6.1860   -4.1450   27.4740 C   0  0  0  0  0  0  0  0  0  0  0  0
    6.3560   -1.7530   27.2450 C   0  0  0  0  0  0  0  0  0  0  0  0
    5.9530   -0.6490   26.4860 C   0  0  0  0  0  0  0  0  0  0  0  0
    5.9020    0.6150   27.0580 C   0  0  0  0  0  0  0  0  0  0  0  0
    5.4960    1.6910   26.2650 F   0  0  0  0  0  0  0  0  0  0  0  0
    6.2290    0.8590   28.3620 C   0  0  0  0  0  0  0  0  0  0  0  0
    6.1890    2.0770   28.9670 O   0  0  0  0  0  0  0  0  0  0  0  0
    5.0580    2.8210   28.9000 C   0  0  0  0  0  0  0  0  0  0  0  0
    6.6480   -0.2230   29.1920 C   0  0  0  0  0  0  0  0  0  0  0  0
    6.9730    0.0990   30.6360 C   0  0  0  0  0  0  0  0  0  0  0  0
    8.3170    0.1180   31.0900 C   0  0  0  0  0  0  0  0  0  0  0  0
    8.4180    0.5180   32.7120 S   0  0  0  0  0  0  0  0  0  0  0  0
    6.6670    0.6660   32.8520 C   0  0  0  0  0  0  0  0  0  0  0  0
    5.8750    0.9900   33.9590 N   0  0  0  0  0  0  0  0  0  0  0  0
    5.0010    0.0510   34.5390 C   0  0  0  0  0  0  0  0  0  0  0  0
    4.3260    0.7350   35.6760 C   0  0  0  0  0  0  0  0  0  0  0  0
    3.8390    1.9610   35.3010 O   0  0  0  0  0  0  0  0  0  0  0  0
    4.6880    2.7860   34.5950 C   0  0  0  0  0  0  0  0  0  0  0  0
    5.9590    2.2490   34.5960 C   0  0  0  0  0  0  0  0  0  0  0  0
    6.0020    0.3760   31.5000 N   0  0  0  0  0  0  0  0  0  0  0  0
    6.7170   -1.5820   28.5990 C   0  0  0  0  0  0  0  0  0  0  0  0
    7.4710   -2.9840   23.7370 C   0  0  0  0  0  0  0  0  0  0  0  0
    7.7020   -3.1720   22.2370 C   0  0  0  0  0  0  0  0  0  0  0  0
  1  2  1  0
  2  3  2  0
  2  4  1  0
  4  5  1  0
  5  6  1  0
  6  7  1  0
  7  8  1  0
  8  9  2  0
  8 10  1  0
 10 11  1  0
 10 12  1  0
 12 13  2  0
 13 14  1  0
 14 15  1  0
 14 16  2  0
 16 17  1  0
 17 18  1  0
 16 19  1  0
 19 20  1  0
 20 21  2  0
 21 22  1  0
 22 23  1  0
 23 24  1  0
 24 25  1  0
 25 26  1  0
 26 27  1  0
 27 28  1  0
 24 29  1  0
 28 29  1  0
 20 30  1  0
 23 30  2  0
 12 31  1  0
 19 31  2  0
  7 32  1  0
  4 33  1  0
 32 33  1  0
M  END
