piperidine-amides-24185-covalent
     RDKit          3D

 24 26  0  0  0  0  0  0  0  0999 V2000
    7.0330   -3.3660   19.3880 C   0  0  0  0  0  0  0  0  0  0  0  0
    6.4010   -4.2580   20.3750 C   0  0  0  0  0  0  0  0  0  0  0  0
    5.4240   -4.9540   20.0120 O   0  0  0  0  0  0  0  0  0  0  0  0
    6.9000   -4.3780   21.6950 N   0  0  0  0  0  0  0  0  0  0  0  0
    6.6090   -5.5790   22.4730 C   0  0  0  0  0  0  0  0  0  0  0  0
    6.0560   -5.1920   23.8750 C   0  0  0  0  0  0  0  0  0  0  0  0
    5.9650   -3.6840   23.9050 C   0  0  0  0  0  0  0  0  0  0  0  0
    5.2800   -3.0890   25.0930 C   0  0  0  0  0  0  0  0  0  0  0  0
    4.5820   -2.0950   24.8500 O   0  0  0  0  0  0  0  0  0  0  0  0
    5.3380   -3.5420   26.4390 N   0  0  0  0  0  0  0  0  0  0  0  0
    6.5110   -3.2990   27.1410 C   0  0  0  0  0  0  0  0  0  0  0  0
    6.6030   -4.3690   28.2210 C   0  0  0  0  0  0  0  0  0  0  0  0
    5.4020   -4.1480   29.0360 N   0  0  0  0  0  0  0  0  0  0  0  0
    4.5730   -5.1960   29.6240 C   0  0  0  0  0  0  0  0  0  0  0  0
    5.3780   -6.2670   29.5820 C   0  0  0  0  0  0  0  0  0  0  0  0
    6.4080   -6.1500   28.7540 N   0  0  0  0  0  0  0  0  0  0  0  0
    7.0670   -7.2590   28.8570 N   0  0  0  0  0  0  0  0  0  0  0  0
    6.5440   -8.1290   29.7040 C   0  0  0  0  0  0  0  0  0  0  0  0
    7.2360   -9.3520   29.8630 C   0  0  0  0  0  0  0  0  0  0  0  0
    5.3930   -7.4780   30.2110 N   0  0  0  0  0  0  0  0  0  0  0  0
    4.7660   -3.0240   28.8130 C   0  0  0  0  0  0  0  0  0  0  0  0
    4.2970   -3.1930   27.3860 C   0  0  0  0  0  0  0  0  0  0  0  0
    7.2400   -3.0110   23.6340 C   0  0  0  0  0  0  0  0  0  0  0  0
    7.6780   -3.3310   22.2890 C   0  0  0  0  0  0  0  0  0  0  0  0
  1  2  1  0
  2  3  2  0
  2  4  1  0
  4  5  1  0
  5  6  1  0
  6  7  1  0
  7  8  1  0
  8  9  2  0
  8 10  1  0
 10 11  1  0
 11 12  1  0
 12 13  1  0
 13 14  1  0
 14 15  1  0
 15 16  2  0
 16 17  1  0
 17 18  1  0
 18 19  1  0
 15 20  1  0
 18 20  2  0
 13 21  1  0
 10 22  1  0
 21 22  1  0
  7 23  1  0
  4 24  1  0
 23 24  1  0
M  END
