piperidine-amides-6838-covalent
     RDKit          3D

 23 24  0  0  0  0  0  0  0  0999 V2000
    7.1110   -3.2370   19.2640 C   0  0  0  0  0  0  0  0  0  0  0  0
    6.3470   -4.0190   20.2450 C   0  0  0  0  0  0  0  0  0  0  0  0
    5.2930   -4.5970   19.9020 O   0  0  0  0  0  0  0  0  0  0  0  0
    6.8020   -4.1750   21.5600 N   0  0  0  0  0  0  0  0  0  0  0  0
    6.6130   -5.4420   22.2150 C   0  0  0  0  0  0  0  0  0  0  0  0
    5.7090   -5.1900   23.4250 C   0  0  0  0  0  0  0  0  0  0  0  0
    5.6370   -3.6860   23.6360 C   0  0  0  0  0  0  0  0  0  0  0  0
    4.8990   -3.3600   24.8890 C   0  0  0  0  0  0  0  0  0  0  0  0
    3.6580   -3.3470   24.8220 O   0  0  0  0  0  0  0  0  0  0  0  0
    5.5220   -3.0680   26.1130 N   0  0  0  0  0  0  0  0  0  0  0  0
    6.2210   -4.0760   26.8360 C   0  0  0  0  0  0  0  0  0  0  0  0
    5.3300   -4.7340   27.8550 C   0  0  0  0  0  0  0  0  0  0  0  0
    6.6140   -5.1110   25.8510 C   0  0  0  0  0  0  0  0  0  0  0  0
    7.3490   -3.4440   27.4080 C   0  0  0  0  0  0  0  0  0  0  0  0
    8.4490   -3.8950   26.7960 C   0  0  0  0  0  0  0  0  0  0  0  0
    9.1850   -3.2100   25.9470 C   0  0  0  0  0  0  0  0  0  0  0  0
   10.3960   -3.5800   25.2100 C   0  0  0  0  0  0  0  0  0  0  0  0
   10.4250   -5.0160   25.7860 C   0  0  0  0  0  0  0  0  0  0  0  0
    9.6950   -5.9710   26.7220 C   0  0  0  0  0  0  0  0  0  0  0  0
    8.6650   -5.1260   27.1590 C   0  0  0  0  0  0  0  0  0  0  0  0
    7.8300   -5.7720   28.0780 C   0  0  0  0  0  0  0  0  0  0  0  0
    7.0450   -3.0910   23.6470 C   0  0  0  0  0  0  0  0  0  0  0  0
    7.5760   -3.1530   22.2340 C   0  0  0  0  0  0  0  0  0  0  0  0
  1  2  1  0
  2  3  2  0
  2  4  1  0
  4  5  1  0
  5  6  1  0
  6  7  1  0
  7  8  1  0
  8  9  2  0
  8 10  1  0
 11 10  1  0
 11 12  1  0
 11 13  1  0
 11 14  1  0
 14 15  1  0
 15 16  2  0
 16 17  1  0
 17 18  2  0
 18 19  1  0
 15 20  1  0
 19 20  2  0
 20 21  1  0
  7 22  1  0
  4 23  1  0
 22 23  1  0
M  END
