piperidine-amides-29443-covalent
     RDKit          3D

 24 26  0  0  0  0  0  0  0  0999 V2000
    7.1330   -3.3780   19.3260 C   0  0  0  0  0  0  0  0  0  0  0  0
    6.4210   -4.1850   20.3010 C   0  0  0  0  0  0  0  0  0  0  0  0
    5.3500   -4.7200   19.9530 O   0  0  0  0  0  0  0  0  0  0  0  0
    7.0050   -4.3890   21.5690 N   0  0  0  0  0  0  0  0  0  0  0  0
    6.6040   -5.5180   22.3480 C   0  0  0  0  0  0  0  0  0  0  0  0
    5.8260   -5.0290   23.5340 C   0  0  0  0  0  0  0  0  0  0  0  0
    6.6650   -3.9890   24.2680 C   0  0  0  0  0  0  0  0  0  0  0  0
    5.9150   -3.5050   25.4590 C   0  0  0  0  0  0  0  0  0  0  0  0
    4.9410   -2.7870   25.2500 O   0  0  0  0  0  0  0  0  0  0  0  0
    6.3640   -3.9060   26.7030 N   0  0  0  0  0  0  0  0  0  0  0  0
    6.9850   -5.1690   26.8360 C   0  0  0  0  0  0  0  0  0  0  0  0
    6.9910   -5.3780   28.2050 C   0  0  0  0  0  0  0  0  0  0  0  0
    6.0990   -4.4710   28.7470 C   0  0  0  0  0  0  0  0  0  0  0  0
    5.4740   -3.6290   27.8220 C   0  0  1  0  0  0  0  0  0  0  0  0
    5.4370   -2.2640   28.4480 C   0  0  0  0  0  0  0  0  0  0  0  0
    6.6520   -1.7350   29.2580 C   0  0  0  0  0  0  0  0  0  0  0  0
    6.6050   -0.3930   29.9040 C   0  0  0  0  0  0  0  0  0  0  0  0
    7.9320    0.2480   30.8430 Cl  0  0  0  0  0  0  0  0  0  0  0  0
    5.3320    0.3690   29.6960 C   0  0  0  0  0  0  0  0  0  0  0  0
    4.1430   -0.1730   28.8810 C   0  0  0  0  0  0  0  0  0  0  0  0
    2.6860    0.7960   28.6890 Cl  0  0  0  0  0  0  0  0  0  0  0  0
    4.1900   -1.4110   28.2940 C   0  0  0  0  0  0  0  0  0  0  0  0
    6.8440   -2.8250   23.3480 C   0  0  0  0  0  0  0  0  0  0  0  0
    7.6380   -3.2390   22.1620 C   0  0  0  0  0  0  0  0  0  0  0  0
  1  2  1  0
  2  3  2  0
  2  4  1  0
  4  5  1  0
  5  6  1  0
  6  7  1  0
  7  8  1  0
  8  9  2  0
  8 10  1  0
 10 11  1  0
 11 12  1  0
 12 13  1  0
 10 14  1  0
 13 14  1  0
 14 15  1  1
 15 16  2  0
 16 17  1  0
 17 18  1  0
 17 19  2  0
 19 20  1  0
 20 21  1  0
 15 22  1  0
 20 22  2  0
  7 23  1  0
  4 24  1  0
 23 24  1  0
M  END
