piperidine-amides-32288-covalent
     RDKit          3D

 24 26  0  0  0  0  0  0  0  0999 V2000
    7.1080   -3.3420   19.2950 C   0  0  0  0  0  0  0  0  0  0  0  0
    6.4330   -4.1990   20.3070 C   0  0  0  0  0  0  0  0  0  0  0  0
    5.4000   -4.8120   19.9780 O   0  0  0  0  0  0  0  0  0  0  0  0
    7.0130   -4.3400   21.5870 N   0  0  0  0  0  0  0  0  0  0  0  0
    6.6010   -5.3830   22.4800 C   0  0  0  0  0  0  0  0  0  0  0  0
    5.7590   -4.6880   23.5590 C   0  0  0  0  0  0  0  0  0  0  0  0
    6.5950   -3.6340   24.2450 C   0  0  0  0  0  0  0  0  0  0  0  0
    5.9300   -3.1210   25.4710 C   0  0  0  0  0  0  0  0  0  0  0  0
    5.2090   -2.1320   25.3330 O   0  0  0  0  0  0  0  0  0  0  0  0
    6.1010   -3.7840   26.6830 N   0  0  0  0  0  0  0  0  0  0  0  0
    5.9410   -5.1590   26.6730 C   0  0  0  0  0  0  0  0  0  0  0  0
    4.6840   -5.6140   26.7270 C   0  0  0  0  0  0  0  0  0  0  0  0
    3.9520   -4.3860   27.0880 O   0  0  0  0  0  0  0  0  0  0  0  0
    4.4680   -3.8660   28.2590 C   0  0  1  0  0  0  0  0  0  0  0  0
    4.8120   -4.9410   28.9930 C   0  0  0  0  0  0  0  0  0  0  0  0
    6.1120   -5.5400   28.6670 C   0  0  0  0  0  0  0  0  0  0  0  0
    6.6700   -6.7610   29.3300 C   0  0  0  0  0  0  0  0  0  0  0  0
    5.7290   -7.2930   30.4030 C   0  0  0  0  0  0  0  0  0  0  0  0
    4.5300   -6.7010   30.6780 C   0  0  0  0  0  0  0  0  0  0  0  0
    4.0270   -5.5050   29.9780 C   0  0  0  0  0  0  0  0  0  0  0  0
    2.3200   -4.7700   30.4310 Br  0  0  0  0  0  0  0  0  0  0  0  0
    5.5370   -3.0440   27.8110 C   0  0  0  0  0  0  0  0  0  0  0  0
    6.9220   -2.6040   23.2570 C   0  0  0  0  0  0  0  0  0  0  0  0
    7.7690   -3.2590   22.1640 C   0  0  0  0  0  0  0  0  0  0  0  0
  1  2  1  0
  2  3  2  0
  2  4  1  0
  4  5  1  0
  5  6  1  0
  6  7  1  0
  7  8  1  0
  8  9  2  0
  8 10  1  0
 10 11  1  0
 11 12  1  0
 12 13  1  0
 13 14  1  0
 14 15  1  1
 15 16  2  0
 16 17  1  0
 17 18  2  0
 18 19  1  0
 15 20  1  0
 19 20  2  0
 20 21  1  0
 10 22  1  0
 14 22  1  0
  7 23  1  0
  4 24  1  0
 23 24  1  0
M  END
