piperidine-amides-5472-covalent
     RDKit          3D

 19 20  0  0  0  0  0  0  0  0999 V2000
    7.1340   -3.2800   19.2190 C   0  0  0  0  0  0  0  0  0  0  0  0
    6.3440   -4.0120   20.2130 C   0  0  0  0  0  0  0  0  0  0  0  0
    5.2640   -4.5180   19.8730 O   0  0  0  0  0  0  0  0  0  0  0  0
    6.8080   -4.2040   21.5210 N   0  0  0  0  0  0  0  0  0  0  0  0
    7.6690   -3.2530   22.1930 C   0  0  0  0  0  0  0  0  0  0  0  0
    6.8840   -2.7270   23.3610 C   0  0  0  0  0  0  0  0  0  0  0  0
    6.2500   -3.8260   24.1570 C   0  0  0  0  0  0  0  0  0  0  0  0
    5.2940   -3.2820   25.1440 C   0  0  0  0  0  0  0  0  0  0  0  0
    4.1670   -3.8210   25.3140 O   0  0  0  0  0  0  0  0  0  0  0  0
    5.5680   -2.1510   25.9270 N   0  0  0  0  0  0  0  0  0  0  0  0
    6.7070   -2.1920   26.8340 C   0  0  0  0  0  0  0  0  0  0  0  0
    6.3720   -1.4290   28.0460 C   0  0  0  0  0  0  0  0  0  0  0  0
    6.3190   -1.8980   29.3990 C   0  0  0  0  0  0  0  0  0  0  0  0
    5.8830   -0.6300   30.4520 S   0  0  0  0  0  0  0  0  0  0  0  0
    5.7300    0.6220   29.2140 C   0  0  0  0  0  0  0  0  0  0  0  0
    5.2570    2.4710   29.3900 Br  0  0  0  0  0  0  0  0  0  0  0  0
    6.0580   -0.1010   27.9740 N   0  0  0  0  0  0  0  0  0  0  0  0
    5.6620   -4.9720   23.4040 C   0  0  0  0  0  0  0  0  0  0  0  0
    6.4970   -5.3850   22.2600 C   0  0  0  0  0  0  0  0  0  0  0  0
  1  2  1  0
  2  3  2  0
  2  4  1  0
  4  5  1  0
  5  6  1  0
  6  7  1  0
  7  8  1  0
  8  9  2  0
  8 10  1  0
 10 11  1  0
 11 12  1  0
 12 13  2  0
 13 14  1  0
 14 15  1  0
 15 16  1  0
 12 17  1  0
 15 17  2  0
  7 18  1  0
  4 19  1  0
 18 19  1  0
M  END
