piperidine-amides-4074-covalent
     RDKit          3D

 28 30  0  0  0  0  0  0  0  0999 V2000
    7.1500   -3.2770   19.2250 C   0  0  0  0  0  0  0  0  0  0  0  0
    6.4230   -4.0400   20.2510 C   0  0  0  0  0  0  0  0  0  0  0  0
    5.3380   -4.5710   19.9040 O   0  0  0  0  0  0  0  0  0  0  0  0
    6.9630   -4.2120   21.5520 N   0  0  0  0  0  0  0  0  0  0  0  0
    6.4980   -5.3030   22.3300 C   0  0  0  0  0  0  0  0  0  0  0  0
    6.0230   -4.9010   23.6510 C   0  0  0  0  0  0  0  0  0  0  0  0
    6.0900   -3.4500   23.9140 C   0  0  0  0  0  0  0  0  0  0  0  0
    5.6080   -3.0980   25.2870 C   0  0  0  0  0  0  0  0  0  0  0  0
    4.4670   -2.6230   25.4240 O   0  0  0  0  0  0  0  0  0  0  0  0
    6.4220   -3.2800   26.4160 N   0  0  0  0  0  0  0  0  0  0  0  0
    6.0700   -3.5420   27.7610 C   0  0  0  0  0  0  0  0  0  0  0  0
    5.1600   -4.5980   28.2270 C   0  0  0  0  0  0  0  0  0  0  0  0
    4.1350   -5.1540   27.5220 N   0  0  0  0  0  0  0  0  0  0  0  0
    3.1870   -4.4720   26.6740 C   0  0  0  0  0  0  0  0  0  0  0  0
    4.9860   -5.9770   26.7130 C   0  0  0  0  0  0  0  0  0  0  0  0
    3.9930   -6.8630   25.9410 C   0  0  0  0  0  0  0  0  0  0  0  0
    3.2650   -7.6030   27.0190 C   0  0  0  0  0  0  0  0  0  0  0  0
    2.2490   -8.5060   26.2740 C   0  0  0  0  0  0  0  0  0  0  0  0
    1.9770   -8.6730   24.7960 C   0  0  0  0  0  0  0  0  0  0  0  0
    2.7970   -7.8520   23.8330 C   0  0  0  0  0  0  0  0  0  0  0  0
    3.8340   -6.9270   24.4520 C   0  0  0  0  0  0  0  0  0  0  0  0
    6.0960   -5.7970   28.5730 C   0  0  0  0  0  0  0  0  0  0  0  0
    5.6790   -6.7770   29.4790 C   0  0  0  0  0  0  0  0  0  0  0  0
    5.0480   -6.2960   30.6250 O   0  0  0  0  0  0  0  0  0  0  0  0
    4.1150   -5.2570   30.3780 C   0  0  0  0  0  0  0  0  0  0  0  0
    4.5590   -4.1690   29.4310 C   0  0  0  0  0  0  0  0  0  0  0  0
    7.4590   -2.9460   23.5960 C   0  0  0  0  0  0  0  0  0  0  0  0
    7.7410   -3.1420   22.1190 C   0  0  0  0  0  0  0  0  0  0  0  0
  1  2  1  0
  2  3  2  0
  2  4  1  0
  4  5  1  0
  5  6  1  0
  6  7  1  0
  7  8  1  0
  8  9  2  0
  8 10  1  0
 10 11  1  0
 11 12  1  0
 12 13  1  0
 13 14  1  0
 13 15  1  0
 15 16  1  0
 16 17  2  0
 17 18  1  0
 18 19  2  0
 19 20  1  0
 16 21  1  0
 20 21  2  0
 12 22  1  0
 22 23  1  0
 23 24  1  0
 24 25  1  0
 12 26  1  0
 25 26  1  0
  7 27  1  0
  4 28  1  0
 27 28  1  0
M  END
