piperidine-amides-32472-covalent
     RDKit          3D

 24 26  0  0  0  0  0  0  0  0999 V2000
    7.0170   -3.3600   19.4030 C   0  0  0  0  0  0  0  0  0  0  0  0
    6.3590   -4.2600   20.3970 C   0  0  0  0  0  0  0  0  0  0  0  0
    5.4060   -4.9570   20.0040 O   0  0  0  0  0  0  0  0  0  0  0  0
    6.8460   -4.3260   21.7330 N   0  0  0  0  0  0  0  0  0  0  0  0
    6.5660   -5.4790   22.5740 C   0  0  0  0  0  0  0  0  0  0  0  0
    6.0800   -5.0330   23.9880 C   0  0  0  0  0  0  0  0  0  0  0  0
    6.0720   -3.5340   24.0750 C   0  0  0  0  0  0  0  0  0  0  0  0
    5.3280   -2.8920   25.2190 C   0  0  0  0  0  0  0  0  0  0  0  0
    4.6780   -1.9100   24.8830 O   0  0  0  0  0  0  0  0  0  0  0  0
    5.2920   -3.3210   26.5660 N   0  0  0  0  0  0  0  0  0  0  0  0
    4.2720   -4.0460   27.1930 C   0  0  0  0  0  0  0  0  0  0  0  0
    4.6310   -5.0150   28.0760 C   0  0  0  0  0  0  0  0  0  0  0  0
    5.9380   -4.9180   28.5520 C   0  0  0  0  0  0  0  0  0  0  0  0
    6.4880   -5.8090   29.3910 C   0  0  0  0  0  0  0  0  0  0  0  0
    5.6950   -6.9450   29.8910 C   0  0  0  0  0  0  0  0  0  0  0  0
    4.2520   -7.1330   29.4640 C   0  0  0  0  0  0  0  0  0  0  0  0
    3.5480   -8.2220   29.9860 F   0  0  0  0  0  0  0  0  0  0  0  0
    3.8270   -6.0370   28.4910 C   0  0  0  0  0  0  0  0  0  0  0  0
    2.0450   -6.0760   27.7910 Br  0  0  0  0  0  0  0  0  0  0  0  0
    6.6630   -3.8500   28.1170 C   0  0  0  0  0  0  0  0  0  0  0  0
    5.8590   -2.7010   27.7330 C   0  0  1  0  0  0  0  0  0  0  0  0
    6.9210   -1.6330   27.6030 C   0  0  0  0  0  0  0  0  0  0  0  0
    7.4300   -3.0800   23.7780 C   0  0  0  0  0  0  0  0  0  0  0  0
    7.6520   -3.2570   22.2710 C   0  0  0  0  0  0  0  0  0  0  0  0
  1  2  1  0
  2  3  2  0
  2  4  1  0
  4  5  1  0
  5  6  1  0
  6  7  1  0
  7  8  1  0
  8  9  2  0
  8 10  1  0
 10 11  1  0
 11 12  1  0
 12 13  2  0
 13 14  1  0
 14 15  2  0
 15 16  1  0
 16 17  1  0
 12 18  1  0
 16 18  2  0
 18 19  1  0
 13 20  1  0
 10 21  1  0
 20 21  1  0
 21 22  1  6
  7 23  1  0
  4 24  1  0
 23 24  1  0
M  END
