piperidine-amides-745-covalent
     RDKit          3D

 25 26  0  0  0  0  0  0  0  0999 V2000
    7.0740   -3.3180   19.2270 C   0  0  0  0  0  0  0  0  0  0  0  0
    6.3400   -4.0050   20.2680 C   0  0  0  0  0  0  0  0  0  0  0  0
    5.2840   -4.6170   19.9170 O   0  0  0  0  0  0  0  0  0  0  0  0
    6.7570   -4.0730   21.6150 N   0  0  0  0  0  0  0  0  0  0  0  0
    7.5740   -2.9520   22.1440 C   0  0  0  0  0  0  0  0  0  0  0  0
    7.5710   -3.2930   23.6840 C   0  0  0  0  0  0  0  0  0  0  0  0
    6.1670   -3.7650   23.9670 C   0  0  0  0  0  0  0  0  0  0  0  0
    5.6490   -3.4840   25.4460 C   0  0  0  0  0  0  0  0  0  0  0  0
    4.9290   -4.3940   25.8150 O   0  0  0  0  0  0  0  0  0  0  0  0
    6.0890   -2.3810   25.8800 N   0  0  0  0  0  0  0  0  0  0  0  0
    6.4950   -1.1920   26.3810 C   0  0  0  0  0  0  0  0  0  0  0  0
    6.1350    0.1250   26.4810 C   0  0  0  0  0  0  0  0  0  0  0  0
    5.7370    0.9130   25.3990 C   0  0  0  0  0  0  0  0  0  0  0  0
    5.3340    2.3260   25.3730 C   0  0  0  0  0  0  0  0  0  0  0  0
    5.3820    2.9600   26.7880 C   0  0  0  0  0  0  0  0  0  0  0  0
    5.7960    2.0910   27.8330 C   0  0  0  0  0  0  0  0  0  0  0  0
    5.8330    2.6220   28.9700 O   0  0  0  0  0  0  0  0  0  0  0  0
    4.7960    2.6370   29.8730 C   0  0  0  0  0  0  0  0  0  0  0  0
    4.8770    3.5100   31.1350 C   0  0  0  0  0  0  0  0  0  0  0  0
    5.6130    3.0700   32.1760 F   0  0  0  0  0  0  0  0  0  0  0  0
    3.5830    3.6760   31.7030 F   0  0  0  0  0  0  0  0  0  0  0  0
    5.3890    4.7270   30.7380 F   0  0  0  0  0  0  0  0  0  0  0  0
    6.1750    0.7290   27.8010 N   0  0  0  0  0  0  0  0  0  0  0  0
    5.9100   -5.1360   23.4300 C   0  0  0  0  0  0  0  0  0  0  0  0
    6.6960   -5.3200   22.3220 C   0  0  0  0  0  0  0  0  0  0  0  0
  1  2  1  0
  2  3  2  0
  2  4  1  0
  4  5  1  0
  5  6  1  0
  6  7  1  0
  7  8  1  0
  8  9  2  0
  8 10  1  0
 10 11  1  0
 11 12  1  0
 12 13  2  0
 13 14  1  0
 14 15  2  0
 15 16  1  0
 16 17  1  0
 17 18  1  0
 18 19  1  0
 19 20  1  0
 19 21  1  0
 19 22  1  0
 12 23  1  0
 16 23  2  0
  7 24  1  0
  4 25  1  0
 24 25  1  0
M  END
