piperidine-amides-11235-covalent
     RDKit          3D

 19 19  0  0  0  0  0  0  0  0999 V2000
    7.1780   -3.2770   19.1660 C   0  0  0  0  0  0  0  0  0  0  0  0
    6.3500   -3.9590   20.1580 C   0  0  0  0  0  0  0  0  0  0  0  0
    5.2510   -4.4320   19.8340 O   0  0  0  0  0  0  0  0  0  0  0  0
    6.8250   -4.1330   21.4560 N   0  0  0  0  0  0  0  0  0  0  0  0
    7.7100   -3.1860   22.0800 C   0  0  0  0  0  0  0  0  0  0  0  0
    6.9960   -2.7620   23.3240 C   0  0  0  0  0  0  0  0  0  0  0  0
    6.5720   -3.9460   24.1410 C   0  0  0  0  0  0  0  0  0  0  0  0
    5.8070   -3.5390   25.3250 C   0  0  0  0  0  0  0  0  0  0  0  0
    4.7070   -2.9110   25.2150 O   0  0  0  0  0  0  0  0  0  0  0  0
    6.2650   -3.8340   26.6090 N   0  0  0  0  0  0  0  0  0  0  0  0
    7.7010   -4.0610   26.8480 C   0  0  0  0  0  0  0  0  0  0  0  0
    7.8230   -4.0980   28.3010 C   0  0  0  0  0  0  0  0  0  0  0  0
    6.8070   -3.8130   28.9910 O   0  0  0  0  0  0  0  0  0  0  0  0
    6.2490   -2.5900   28.8470 C   0  0  0  0  0  0  0  0  0  0  0  0
    6.5170   -1.4590   29.8130 C   0  0  0  0  0  0  0  0  0  0  0  0
    7.8970   -0.8830   30.0300 C   0  0  0  0  0  0  0  0  0  0  0  0
    5.3120   -0.9000   30.5810 C   0  0  0  0  0  0  0  0  0  0  0  0
    5.7670   -4.9190   23.3080 C   0  0  0  0  0  0  0  0  0  0  0  0
    6.4640   -5.3280   22.1700 C   0  0  0  0  0  0  0  0  0  0  0  0
  1  2  1  0
  2  3  2  0
  2  4  1  0
  4  5  1  0
  5  6  1  0
  6  7  1  0
  7  8  1  0
  8  9  2  0
  8 10  1  0
 10 11  1  0
 11 12  1  0
 12 13  1  0
 13 14  1  0
 14 15  1  0
 15 16  2  3
 15 17  1  0
  7 18  1  0
  4 19  1  0
 18 19  1  0
M  END
