piperidine-amides-29185-covalent
     RDKit          3D

 26 27  0  0  0  0  0  0  0  0999 V2000
    7.1250   -3.2840   19.2400 C   0  0  0  0  0  0  0  0  0  0  0  0
    6.4210   -4.0690   20.2530 C   0  0  0  0  0  0  0  0  0  0  0  0
    5.3500   -4.6150   19.9210 O   0  0  0  0  0  0  0  0  0  0  0  0
    6.9830   -4.2490   21.5460 N   0  0  0  0  0  0  0  0  0  0  0  0
    6.4960   -5.3210   22.3480 C   0  0  0  0  0  0  0  0  0  0  0  0
    5.6670   -4.7270   23.4480 C   0  0  0  0  0  0  0  0  0  0  0  0
    6.5590   -3.7930   24.2550 C   0  0  0  0  0  0  0  0  0  0  0  0
    5.7660   -3.2510   25.4120 C   0  0  0  0  0  0  0  0  0  0  0  0
    4.5580   -3.1270   25.2160 O   0  0  0  0  0  0  0  0  0  0  0  0
    6.4120   -2.9170   26.6070 N   0  0  0  0  0  0  0  0  0  0  0  0
    6.5630   -1.5390   26.9310 C   0  0  0  0  0  0  0  0  0  0  0  0
    6.1750   -0.6430   25.9290 C   0  0  0  0  0  0  0  0  0  0  0  0
    6.1790   -3.7730   27.7810 C   0  0  0  0  0  0  0  0  0  0  0  0
    5.8700   -5.0980   27.4900 C   0  0  0  0  0  0  0  0  0  0  0  0
    5.4550   -5.2590   26.1740 O   0  0  0  0  0  0  0  0  0  0  0  0
    5.9410   -6.1560   28.4140 N   0  0  0  0  0  0  0  0  0  0  0  0
    4.6890   -6.7280   28.9210 C   0  0  0  0  0  0  0  0  0  0  0  0
    4.7950   -7.2880   30.3700 C   0  0  0  0  0  0  0  0  0  0  0  0
    6.0260   -7.1750   30.9720 F   0  0  0  0  0  0  0  0  0  0  0  0
    3.6420   -7.9090   31.0780 C   0  0  0  0  0  0  0  0  0  0  0  0
    2.3800   -7.9520   30.2810 C   0  0  0  0  0  0  0  0  0  0  0  0
    2.3410   -7.3810   28.8540 C   0  0  0  0  0  0  0  0  0  0  0  0
    3.3740   -6.8000   28.1660 C   0  0  0  0  0  0  0  0  0  0  0  0
    3.0760   -6.3680   26.8950 F   0  0  0  0  0  0  0  0  0  0  0  0
    6.9460   -2.6420   23.3720 C   0  0  0  0  0  0  0  0  0  0  0  0
    7.6560   -3.1110   22.1330 C   0  0  0  0  0  0  0  0  0  0  0  0
  1  2  1  0
  2  3  2  0
  2  4  1  0
  4  5  1  0
  5  6  1  0
  6  7  1  0
  7  8  1  0
  8  9  2  0
  8 10  1  0
 10 11  1  0
 11 12  1  0
 10 13  1  0
 13 14  1  0
 14 15  2  0
 14 16  1  0
 16 17  1  0
 17 18  2  0
 18 19  1  0
 18 20  1  0
 20 21  2  0
 21 22  1  0
 17 23  1  0
 22 23  2  0
 23 24  1  0
  7 25  1  0
  4 26  1  0
 25 26  1  0
M  END
