piperidine-amides-9944-covalent
     RDKit          3D

 26 27  0  0  0  0  0  0  0  0999 V2000
    7.0860   -3.2750   19.1880 C   0  0  0  0  0  0  0  0  0  0  0  0
    6.3520   -4.0410   20.2030 C   0  0  0  0  0  0  0  0  0  0  0  0
    5.2530   -4.5400   19.8650 O   0  0  0  0  0  0  0  0  0  0  0  0
    6.9050   -4.2260   21.4620 N   0  0  0  0  0  0  0  0  0  0  0  0
    7.7200   -3.1970   22.0580 C   0  0  0  0  0  0  0  0  0  0  0  0
    7.3780   -3.1260   23.5010 C   0  0  0  0  0  0  0  0  0  0  0  0
    5.9840   -3.5560   23.7760 C   0  0  0  0  0  0  0  0  0  0  0  0
    5.6560   -3.2070   25.1680 C   0  0  0  0  0  0  0  0  0  0  0  0
    4.5740   -2.6200   25.3790 O   0  0  0  0  0  0  0  0  0  0  0  0
    6.4920   -3.4850   26.2640 N   0  0  0  0  0  0  0  0  0  0  0  0
    5.9050   -3.6510   27.5650 C   0  0  2  0  0  0  0  0  0  0  0  0
    6.9330   -4.0500   28.5960 C   0  0  0  0  0  0  0  0  0  0  0  0
    4.7950   -4.6240   27.5640 C   0  0  0  0  0  0  0  0  0  0  0  0
    3.4580   -4.3280   27.6560 N   0  0  0  0  0  0  0  0  0  0  0  0
    2.5140   -5.2780   27.8610 C   0  0  0  0  0  0  0  0  0  0  0  0
    1.7020   -5.1260   28.8810 O   0  0  0  0  0  0  0  0  0  0  0  0
    2.3170   -6.4050   27.0760 O   0  0  0  0  0  0  0  0  0  0  0  0
    3.0320   -7.6000   27.2830 C   0  0  0  0  0  0  0  0  0  0  0  0
    4.2790   -7.2360   27.7410 C   0  0  0  0  0  0  0  0  0  0  0  0
    5.2320   -6.6520   26.8880 C   0  0  0  0  0  0  0  0  0  0  0  0
    6.6480   -6.1700   27.1870 C   0  0  0  0  0  0  0  0  0  0  0  0
    7.0150   -6.3860   28.6360 C   0  0  0  0  0  0  0  0  0  0  0  0
    6.0660   -7.0030   29.6030 C   0  0  0  0  0  0  0  0  0  0  0  0
    4.6880   -7.4440   29.1980 C   0  0  0  0  0  0  0  0  0  0  0  0
    5.8060   -5.0030   23.4950 C   0  0  0  0  0  0  0  0  0  0  0  0
    6.5400   -5.3900   22.2310 C   0  0  0  0  0  0  0  0  0  0  0  0
  1  2  1  0
  2  3  2  0
  2  4  1  0
  4  5  1  0
  5  6  1  0
  6  7  1  0
  7  8  1  0
  8  9  2  0
  8 10  1  0
 10 11  1  0
 11 12  1  1
 11 13  1  0
 13 14  1  0
 14 15  1  0
 15 16  2  0
 15 17  1  0
 17 18  1  0
 18 19  1  0
 19 20  2  0
 20 21  1  0
 21 22  2  0
 22 23  1  0
 19 24  1  0
 23 24  2  0
  7 25  1  0
  4 26  1  0
 25 26  1  0
M  END
