piperidine-amides-10116-covalent
     RDKit          3D

 25 27  0  0  0  0  0  0  0  0999 V2000
    7.0430   -3.3390   19.3150 C   0  0  0  0  0  0  0  0  0  0  0  0
    6.3890   -4.1670   20.3380 C   0  0  0  0  0  0  0  0  0  0  0  0
    5.3700   -4.8110   19.9690 O   0  0  0  0  0  0  0  0  0  0  0  0
    6.9100   -4.2550   21.6340 N   0  0  0  0  0  0  0  0  0  0  0  0
    6.6970   -5.4320   22.4490 C   0  0  0  0  0  0  0  0  0  0  0  0
    6.0140   -5.0240   23.7290 C   0  0  0  0  0  0  0  0  0  0  0  0
    5.9900   -3.5250   23.9030 C   0  0  0  0  0  0  0  0  0  0  0  0
    5.5880   -3.1320   25.2620 C   0  0  0  0  0  0  0  0  0  0  0  0
    4.3700   -3.0850   25.5410 O   0  0  0  0  0  0  0  0  0  0  0  0
    6.5330   -2.8160   26.2410 N   0  0  0  0  0  0  0  0  0  0  0  0
    6.4750   -1.6310   27.0560 C   0  0  0  0  0  0  0  0  0  0  0  0
    6.0540   -0.3130   26.4160 C   0  0  0  0  0  0  0  0  0  0  0  0
    6.0010    0.8180   27.1930 C   0  0  0  0  0  0  0  0  0  0  0  0
    5.6420    2.0870   26.7930 C   0  0  0  0  0  0  0  0  0  0  0  0
    6.3640    2.8840   25.9110 C   0  0  0  0  0  0  0  0  0  0  0  0
    5.9160    4.1430   25.5720 C   0  0  0  0  0  0  0  0  0  0  0  0
    4.7520    4.6350   26.0960 C   0  0  0  0  0  0  0  0  0  0  0  0
    3.8630    3.8910   27.0630 C   0  0  0  0  0  0  0  0  0  0  0  0
    4.4540    2.5090   27.3690 C   0  0  0  0  0  0  0  0  0  0  0  0
    6.3150    0.8290   28.5310 C   0  0  0  0  0  0  0  0  0  0  0  0
    6.7350   -0.4760   29.1800 C   0  0  0  0  0  0  0  0  0  0  0  0
    6.7830   -1.6160   28.4060 C   0  0  0  0  0  0  0  0  0  0  0  0
    7.1480   -2.7680   29.0230 F   0  0  0  0  0  0  0  0  0  0  0  0
    7.3830   -2.9930   23.6380 C   0  0  0  0  0  0  0  0  0  0  0  0
    7.7680   -3.2200   22.1930 C   0  0  0  0  0  0  0  0  0  0  0  0
  1  2  1  0
  2  3  2  0
  2  4  1  0
  4  5  1  0
  5  6  1  0
  6  7  1  0
  7  8  1  0
  8  9  2  0
  8 10  1  0
 10 11  1  0
 11 12  2  0
 12 13  1  0
 13 14  1  0
 14 15  2  0
 15 16  1  0
 16 17  2  0
 17 18  1  0
 14 19  1  0
 18 19  2  0
 13 20  2  0
 20 21  1  0
 11 22  1  0
 21 22  2  0
 22 23  1  0
  7 24  1  0
  4 25  1  0
 24 25  1  0
M  END
