piperidine-amides-4370-covalent
     RDKit          3D

 26 28  0  0  0  0  0  0  0  0999 V2000
    7.0990   -3.2720   19.2320 C   0  0  0  0  0  0  0  0  0  0  0  0
    6.3670   -4.0390   20.2590 C   0  0  0  0  0  0  0  0  0  0  0  0
    5.2940   -4.5810   19.8970 O   0  0  0  0  0  0  0  0  0  0  0  0
    6.8730   -4.2070   21.5770 N   0  0  0  0  0  0  0  0  0  0  0  0
    6.4510   -5.3250   22.3370 C   0  0  0  0  0  0  0  0  0  0  0  0
    6.1090   -5.0160   23.7260 C   0  0  0  0  0  0  0  0  0  0  0  0
    6.6170   -3.7230   24.2510 C   0  0  0  0  0  0  0  0  0  0  0  0
    5.7770   -3.2670   25.4170 C   0  0  0  0  0  0  0  0  0  0  0  0
    4.5770   -3.0020   25.2170 O   0  0  0  0  0  0  0  0  0  0  0  0
    6.2950   -3.1330   26.7310 N   0  0  0  0  0  0  0  0  0  0  0  0
    6.2200   -4.0530   27.8170 C   0  0  0  0  0  0  0  0  0  0  0  0
    5.1960   -4.0010   28.8530 C   0  0  0  0  0  0  0  0  0  0  0  0
    4.4520   -2.7020   29.1500 C   0  0  0  0  0  0  0  0  0  0  0  0
    3.4800   -2.6580   30.1380 C   0  0  0  0  0  0  0  0  0  0  0  0
    3.1730   -3.8310   30.8850 N   0  0  0  0  0  0  0  0  0  0  0  0
    3.8110   -5.0940   30.6860 C   0  0  0  0  0  0  0  0  0  0  0  0
    3.3310   -6.1190   31.5610 N   0  0  0  0  0  0  0  0  0  0  0  0
    2.1830   -6.8140   31.3530 C   0  0  0  0  0  0  0  0  0  0  0  0
    2.6970   -8.2590   31.4200 C   0  0  0  0  0  0  0  0  0  0  0  0
    3.6170   -8.6400   32.3960 O   0  0  0  0  0  0  0  0  0  0  0  0
    4.1270   -7.6260   33.2410 C   0  0  1  0  0  0  0  0  0  0  0  0
    5.6400   -7.6120   33.1140 C   0  0  0  0  0  0  0  0  0  0  0  0
    3.6560   -6.2140   32.9860 C   0  0  0  0  0  0  0  0  0  0  0  0
    4.8040   -5.2140   29.7020 C   0  0  0  0  0  0  0  0  0  0  0  0
    6.7420   -2.6530   23.2190 C   0  0  0  0  0  0  0  0  0  0  0  0
    7.5810   -3.1400   22.2350 C   0  0  0  0  0  0  0  0  0  0  0  0
  1  2  1  0
  2  3  2  0
  2  4  1  0
  4  5  1  0
  5  6  1  0
  6  7  1  0
  7  8  1  0
  8  9  2  0
  8 10  1  0
 10 11  1  0
 11 12  1  0
 12 13  2  0
 13 14  1  0
 14 15  2  0
 15 16  1  0
 16 17  1  0
 17 18  1  0
 18 19  1  0
 19 20  1  0
 20 21  1  0
 21 22  1  6
 17 23  1  0
 21 23  1  0
 12 24  1  0
 16 24  2  0
  7 25  1  0
  4 26  1  0
 25 26  1  0
M  END
