piperidine-amides-10491-covalent
     RDKit          3D

 24 26  0  0  0  0  0  0  0  0999 V2000
    7.0830   -3.2140   19.1680 C   0  0  0  0  0  0  0  0  0  0  0  0
    6.2950   -3.9250   20.1850 C   0  0  0  0  0  0  0  0  0  0  0  0
    5.2080   -4.4320   19.8170 O   0  0  0  0  0  0  0  0  0  0  0  0
    6.7590   -4.0620   21.4820 N   0  0  0  0  0  0  0  0  0  0  0  0
    7.5950   -3.0860   22.1180 C   0  0  0  0  0  0  0  0  0  0  0  0
    6.8230   -2.5350   23.2800 C   0  0  0  0  0  0  0  0  0  0  0  0
    5.5860   -3.3500   23.6450 C   0  0  0  0  0  0  0  0  0  0  0  0
    5.1280   -3.0260   25.0260 C   0  0  0  0  0  0  0  0  0  0  0  0
    3.9760   -3.3710   25.3490 O   0  0  0  0  0  0  0  0  0  0  0  0
    5.8880   -2.3580   26.0030 N   0  0  0  0  0  0  0  0  0  0  0  0
    5.7770   -2.7420   27.3900 C   0  0  0  0  0  0  0  0  0  0  0  0
    6.5920   -1.8350   28.2930 C   0  0  0  0  0  0  0  0  0  0  0  0
    7.9070   -2.0360   28.4370 C   0  0  0  0  0  0  0  0  0  0  0  0
    8.2580   -3.2680   28.0250 C   0  0  0  0  0  0  0  0  0  0  0  0
    8.7580   -4.2240   28.8240 N   0  0  0  0  0  0  0  0  0  0  0  0
    9.0050   -5.3480   28.1860 N   0  0  0  0  0  0  0  0  0  0  0  0
    8.6300   -5.0340   26.9140 C   0  0  0  0  0  0  0  0  0  0  0  0
    8.7230   -5.9390   25.9890 C   0  0  0  0  0  0  0  0  0  0  0  0
    8.2580   -5.6340   24.7440 C   0  0  0  0  0  0  0  0  0  0  0  0
    7.7590   -4.2640   24.4520 C   0  0  0  0  0  0  0  0  0  0  0  0
    7.7730   -3.3180   25.6390 C   0  0  0  0  0  0  0  0  0  0  0  0
    8.1940   -3.8090   26.8210 N   0  0  0  0  0  0  0  0  0  0  0  0
    5.6810   -4.8940   23.4720 C   0  0  0  0  0  0  0  0  0  0  0  0
    6.4570   -5.2770   22.2150 C   0  0  0  0  0  0  0  0  0  0  0  0
  1  2  1  0
  2  3  2  0
  2  4  1  0
  4  5  1  0
  5  6  1  0
  6  7  1  0
  7  8  1  0
  8  9  2  0
  8 10  1  0
 10 11  1  0
 11 12  1  0
 12 13  1  0
 13 14  1  0
 14 15  2  0
 15 16  1  0
 16 17  2  0
 17 18  1  0
 18 19  2  0
 19 20  1  0
 20 21  2  0
 14 22  1  0
 17 22  1  0
 21 22  1  0
  7 23  1  0
  4 24  1  0
 23 24  1  0
M  END
