piperidine-amides-16217-covalent
     RDKit          3D

 18 20  0  0  0  0  0  0  0  0999 V2000
    7.0050   -3.3450   19.3370 C   0  0  0  0  0  0  0  0  0  0  0  0
    6.3190   -4.2090   20.3360 C   0  0  0  0  0  0  0  0  0  0  0  0
    5.3140   -4.8010   19.9570 O   0  0  0  0  0  0  0  0  0  0  0  0
    6.8300   -4.3740   21.6270 N   0  0  0  0  0  0  0  0  0  0  0  0
    6.6760   -5.6330   22.3200 C   0  0  0  0  0  0  0  0  0  0  0  0
    6.1500   -5.4260   23.7160 C   0  0  0  0  0  0  0  0  0  0  0  0
    6.0220   -3.9410   24.0180 C   0  0  0  0  0  0  0  0  0  0  0  0
    5.5780   -3.7290   25.4230 C   0  0  0  0  0  0  0  0  0  0  0  0
    4.3630   -3.5490   25.6130 O   0  0  0  0  0  0  0  0  0  0  0  0
    6.4120   -3.6950   26.5780 N   0  0  0  0  0  0  0  0  0  0  0  0
    5.8510   -2.8340   27.5970 C   0  0  0  0  0  0  0  0  0  0  0  0
    5.8120   -3.9000   28.6120 C   0  0  2  0  0  0  0  0  0  0  0  0
    6.9230   -4.6040   28.5420 C   0  0  0  0  0  0  0  0  0  0  0  0
    6.8630   -4.9380   27.2200 C   0  0  1  0  0  0  0  0  0  0  0  0
    5.9270   -5.9190   27.1730 C   0  0  0  0  0  0  0  0  0  0  0  0
    4.9030   -5.3030   28.4110 S   0  0  0  0  0  0  0  0  0  0  0  0
    7.3360   -3.2900   23.7180 C   0  0  0  0  0  0  0  0  0  0  0  0
    7.5440   -3.3050   22.2460 C   0  0  0  0  0  0  0  0  0  0  0  0
  1  2  1  0
  2  3  2  0
  2  4  1  0
  4  5  1  0
  5  6  1  0
  6  7  1  0
  7  8  1  0
  8  9  2  0
  8 10  1  0
 10 11  1  0
 12 11  1  6
 12 13  1  0
 10 14  1  0
 13 14  1  0
 14 15  1  1
 12 16  1  0
 15 16  1  0
  7 17  1  0
  4 18  1  0
 17 18  1  0
M  END
