piperidine-amides-29650-covalent
     RDKit          3D

 25 26  0  0  0  0  0  0  0  0999 V2000
    7.0780   -3.2820   19.3180 C   0  0  0  0  0  0  0  0  0  0  0  0
    6.3430   -4.0750   20.2980 C   0  0  0  0  0  0  0  0  0  0  0  0
    5.3450   -4.7020   19.9450 O   0  0  0  0  0  0  0  0  0  0  0  0
    6.7930   -4.1740   21.6620 N   0  0  0  0  0  0  0  0  0  0  0  0
    6.6480   -5.4400   22.3360 C   0  0  0  0  0  0  0  0  0  0  0  0
    6.0560   -5.2170   23.6950 C   0  0  0  0  0  0  0  0  0  0  0  0
    6.0750   -3.7250   23.9310 C   0  0  0  0  0  0  0  0  0  0  0  0
    5.5360   -3.3990   25.2900 C   0  0  0  0  0  0  0  0  0  0  0  0
    4.3110   -3.4080   25.5080 O   0  0  0  0  0  0  0  0  0  0  0  0
    6.3990   -3.0640   26.3660 N   0  0  0  0  0  0  0  0  0  0  0  0
    6.2050   -3.7360   27.6320 C   0  0  0  0  0  0  0  0  0  0  0  0
    5.8500   -5.1780   27.3780 C   0  0  0  0  0  0  0  0  0  0  0  0
    6.5870   -5.9880   28.2140 O   0  0  0  0  0  0  0  0  0  0  0  0
    6.0870   -6.7290   29.2400 C   0  0  0  0  0  0  0  0  0  0  0  0
    6.6330   -1.6010   26.5340 C   0  0  0  0  0  0  0  0  0  0  0  0
    6.1060   -1.1510   27.7300 C   0  0  0  0  0  0  0  0  0  0  0  0
    4.6890   -0.9920   27.9580 C   0  0  0  0  0  0  0  0  0  0  0  0
    4.1920   -0.5420   29.1400 C   0  0  0  0  0  0  0  0  0  0  0  0
    5.0070   -0.2080   30.1950 C   0  0  0  0  0  0  0  0  0  0  0  0
    4.3590    0.2280   31.3070 F   0  0  0  0  0  0  0  0  0  0  0  0
    6.4000   -0.3280   30.0750 C   0  0  0  0  0  0  0  0  0  0  0  0
    7.4000    0.1150   31.4370 Cl  0  0  0  0  0  0  0  0  0  0  0  0
    6.9480   -0.8250   28.7830 C   0  0  0  0  0  0  0  0  0  0  0  0
    7.4340   -3.1290   23.6360 C   0  0  0  0  0  0  0  0  0  0  0  0
    7.6150   -3.1270   22.2470 C   0  0  0  0  0  0  0  0  0  0  0  0
  1  2  1  0
  2  3  2  0
  2  4  1  0
  4  5  1  0
  5  6  1  0
  6  7  1  0
  7  8  1  0
  8  9  2  0
  8 10  1  0
 10 11  1  0
 11 12  1  0
 12 13  1  0
 13 14  1  0
 10 15  1  0
 15 16  1  0
 16 17  2  0
 17 18  1  0
 18 19  2  0
 19 20  1  0
 19 21  1  0
 21 22  1  0
 16 23  1  0
 21 23  2  0
  7 24  1  0
  4 25  1  0
 24 25  1  0
M  END
