piperidine-amides-2703-covalent
     RDKit          3D

 25 27  0  0  0  0  0  0  0  0999 V2000
    7.1090   -3.2710   19.2650 C   0  0  0  0  0  0  0  0  0  0  0  0
    6.3470   -4.0450   20.2440 C   0  0  0  0  0  0  0  0  0  0  0  0
    5.3090   -4.6110   19.9070 O   0  0  0  0  0  0  0  0  0  0  0  0
    6.8270   -4.1840   21.5900 N   0  0  0  0  0  0  0  0  0  0  0  0
    7.7420   -3.2060   22.1310 C   0  0  0  0  0  0  0  0  0  0  0  0
    7.5410   -3.0790   23.6050 C   0  0  0  0  0  0  0  0  0  0  0  0
    6.1260   -3.5440   23.8890 C   0  0  0  0  0  0  0  0  0  0  0  0
    5.7600   -3.2310   25.2920 C   0  0  0  0  0  0  0  0  0  0  0  0
    4.6540   -3.5320   25.7820 O   0  0  0  0  0  0  0  0  0  0  0  0
    6.7140   -2.5540   26.0790 N   0  0  0  0  0  0  0  0  0  0  0  0
    6.2900   -1.4290   26.8810 C   0  0  0  0  0  0  0  0  0  0  0  0
    5.7830   -0.3640   25.9330 C   0  0  0  0  0  0  0  0  0  0  0  0
    6.2820   -0.2680   24.6200 C   0  0  0  0  0  0  0  0  0  0  0  0
    5.8390    0.7110   23.6950 C   0  0  0  0  0  0  0  0  0  0  0  0
    4.8830    1.6070   24.0940 C   0  0  0  0  0  0  0  0  0  0  0  0
    4.4040    1.4810   25.4280 C   0  0  0  0  0  0  0  0  0  0  0  0
    4.8150    0.5520   26.3260 C   0  0  0  0  0  0  0  0  0  0  0  0
    4.2160    0.6310   27.5320 N   0  0  0  0  0  0  0  0  0  0  0  0
    2.7870    0.5380   27.4650 C   0  0  0  0  0  0  0  0  0  0  0  0
    2.2080    1.6620   28.0570 C   0  0  0  0  0  0  0  0  0  0  0  0
    3.0300    2.8720   28.1720 C   0  0  0  0  0  0  0  0  0  0  0  0
    4.3330    2.7460   28.6230 C   0  0  0  0  0  0  0  0  0  0  0  0
    4.8240    1.4460   28.5390 C   0  0  0  0  0  0  0  0  0  0  0  0
    6.0000   -5.0340   23.6750 C   0  0  0  0  0  0  0  0  0  0  0  0
    6.6300   -5.4120   22.3240 C   0  0  0  0  0  0  0  0  0  0  0  0
  1  2  1  0
  2  3  2  0
  2  4  1  0
  4  5  1  0
  5  6  1  0
  6  7  1  0
  7  8  1  0
  8  9  2  0
  8 10  1  0
 10 11  1  0
 11 12  1  0
 12 13  2  0
 13 14  1  0
 14 15  2  0
 15 16  1  0
 12 17  1  0
 16 17  2  0
 17 18  1  0
 18 19  1  0
 19 20  1  0
 20 21  1  0
 21 22  1  0
 18 23  1  0
 22 23  1  0
  7 24  1  0
  4 25  1  0
 24 25  1  0
M  END
