piperidine-amides-9200-covalent
     RDKit          3D

 20 20  0  0  0  0  0  0  0  0999 V2000
    7.0830   -3.2830   19.2320 C   0  0  0  0  0  0  0  0  0  0  0  0
    6.3560   -4.0350   20.2600 C   0  0  0  0  0  0  0  0  0  0  0  0
    5.3390   -4.6710   19.9330 O   0  0  0  0  0  0  0  0  0  0  0  0
    6.8050   -4.0900   21.5940 N   0  0  0  0  0  0  0  0  0  0  0  0
    7.7210   -3.0930   22.1210 C   0  0  0  0  0  0  0  0  0  0  0  0
    7.4550   -3.0360   23.5940 C   0  0  0  0  0  0  0  0  0  0  0  0
    6.0850   -3.5510   23.9050 C   0  0  0  0  0  0  0  0  0  0  0  0
    5.6520   -3.2770   25.2940 C   0  0  0  0  0  0  0  0  0  0  0  0
    4.4230   -3.1540   25.5710 O   0  0  0  0  0  0  0  0  0  0  0  0
    6.5710   -3.1320   26.3490 N   0  0  0  0  0  0  0  0  0  0  0  0
    6.1370   -3.1040   27.7600 C   0  0  0  0  0  0  0  0  0  0  0  0
    6.3910   -4.4030   28.4340 C   0  0  0  0  0  0  0  0  0  0  0  0
    5.9680   -5.6850   27.8240 C   0  0  0  0  0  0  0  0  0  0  0  0
    4.8870   -6.3730   28.6180 C   0  0  0  0  0  0  0  0  0  0  0  0
    5.0900   -6.1830   30.1080 C   0  0  0  0  0  0  0  0  0  0  0  0
    5.0560   -7.5120   30.7540 C   0  0  0  0  0  0  0  0  0  0  0  0
    4.5220   -7.5690   32.0160 C   0  0  0  0  0  0  0  0  0  0  0  0
    5.1010   -7.1890   33.2300 C   0  0  0  0  0  0  0  0  0  0  0  0
    5.9290   -5.0550   23.6230 C   0  0  0  0  0  0  0  0  0  0  0  0
    6.6550   -5.3440   22.2990 C   0  0  0  0  0  0  0  0  0  0  0  0
  1  2  1  0
  2  3  2  0
  2  4  1  0
  4  5  1  0
  5  6  1  0
  6  7  1  0
  7  8  1  0
  8  9  2  0
  8 10  1  0
 10 11  1  0
 11 12  1  0
 12 13  1  0
 13 14  1  0
 14 15  1  0
 15 16  1  0
 16 17  1  0
 17 18  2  3
  7 19  1  0
  4 20  1  0
 19 20  1  0
M  END
