piperidine-amides-11842-covalent
     RDKit          3D

 27 29  0  0  0  0  0  0  0  0999 V2000
    7.0700   -3.3000   19.2440 C   0  0  0  0  0  0  0  0  0  0  0  0
    6.3400   -4.0760   20.2440 C   0  0  0  0  0  0  0  0  0  0  0  0
    5.3140   -4.6690   19.9240 O   0  0  0  0  0  0  0  0  0  0  0  0
    6.8310   -4.2010   21.5900 N   0  0  0  0  0  0  0  0  0  0  0  0
    7.7120   -3.1920   22.1400 C   0  0  0  0  0  0  0  0  0  0  0  0
    7.4470   -2.9920   23.6020 C   0  0  0  0  0  0  0  0  0  0  0  0
    6.0770   -3.5760   23.8740 C   0  0  0  0  0  0  0  0  0  0  0  0
    5.6300   -3.2630   25.2570 C   0  0  0  0  0  0  0  0  0  0  0  0
    4.4350   -3.3590   25.5850 O   0  0  0  0  0  0  0  0  0  0  0  0
    6.6020   -2.8330   26.1950 N   0  0  0  0  0  0  0  0  0  0  0  0
    6.3120   -2.7680   27.6190 C   0  0  2  0  0  0  0  0  0  0  0  0
    4.9010   -3.2590   27.8170 C   0  0  0  0  0  0  0  0  0  0  0  0
    3.7860   -2.4600   27.5620 C   0  0  0  0  0  0  0  0  0  0  0  0
    2.4770   -2.9010   27.7470 C   0  0  0  0  0  0  0  0  0  0  0  0
    2.2410   -4.1650   28.1970 C   0  0  0  0  0  0  0  0  0  0  0  0
    3.3040   -5.0900   28.4970 C   0  0  0  0  0  0  0  0  0  0  0  0
    3.1100   -6.3730   28.9530 C   0  0  0  0  0  0  0  0  0  0  0  0
    4.1540   -7.1190   29.3480 F   0  0  0  0  0  0  0  0  0  0  0  0
    2.4090   -7.0880   28.0170 F   0  0  0  0  0  0  0  0  0  0  0  0
    2.2420   -6.2050   30.0430 F   0  0  0  0  0  0  0  0  0  0  0  0
    4.5690   -4.6190   28.3020 C   0  0  0  0  0  0  0  0  0  0  0  0
    6.6380   -1.6480   28.3310 C   0  0  0  0  0  0  0  0  0  0  0  0
    6.0760   -0.3980   27.9580 C   0  0  0  0  0  0  0  0  0  0  0  0
    5.4090   -0.3110   29.1240 C   0  0  0  0  0  0  0  0  0  0  0  0
    5.9040   -1.5240   29.6990 C   0  0  0  0  0  0  0  0  0  0  0  0
    6.0870   -5.0760   23.6930 C   0  0  0  0  0  0  0  0  0  0  0  0
    6.6580   -5.4360   22.3160 C   0  0  0  0  0  0  0  0  0  0  0  0
  1  2  1  0
  2  3  2  0
  2  4  1  0
  4  5  1  0
  5  6  1  0
  6  7  1  0
  7  8  1  0
  8  9  2  0
  8 10  1  0
 11 10  1  6
 11 12  1  0
 12 13  2  0
 13 14  1  0
 14 15  2  0
 15 16  1  0
 16 17  1  0
 17 18  1  0
 17 19  1  0
 17 20  1  0
 12 21  1  0
 16 21  2  0
 11 22  1  0
 22 23  1  0
 23 24  1  0
 22 25  1  0
 24 25  1  0
  7 26  1  0
  4 27  1  0
 26 27  1  0
M  END
