piperidine-amides-6638-covalent
     RDKit          3D

 24 25  0  0  0  0  0  0  0  0999 V2000
    7.1150   -3.3560   19.3290 C   0  0  0  0  0  0  0  0  0  0  0  0
    6.3840   -4.1690   20.3050 C   0  0  0  0  0  0  0  0  0  0  0  0
    5.3490   -4.7840   19.9660 O   0  0  0  0  0  0  0  0  0  0  0  0
    6.8750   -4.3050   21.6100 N   0  0  0  0  0  0  0  0  0  0  0  0
    7.7850   -3.3150   22.1350 C   0  0  0  0  0  0  0  0  0  0  0  0
    7.0680   -2.7080   23.3220 C   0  0  0  0  0  0  0  0  0  0  0  0
    6.6570   -3.8740   24.1770 C   0  0  0  0  0  0  0  0  0  0  0  0
    6.0640   -3.3340   25.4070 C   0  0  0  0  0  0  0  0  0  0  0  0
    4.8200   -3.3470   25.5630 O   0  0  0  0  0  0  0  0  0  0  0  0
    6.9760   -2.8150   26.3530 N   0  0  0  0  0  0  0  0  0  0  0  0
    6.7290   -1.6120   27.1050 C   0  0  0  0  0  0  0  0  0  0  0  0
    7.2620   -1.5970   28.5150 C   0  0  0  0  0  0  0  0  0  0  0  0
    7.0950   -0.5160   29.3290 C   0  0  0  0  0  0  0  0  0  0  0  0
    6.4240    0.5760   28.8340 C   0  0  0  0  0  0  0  0  0  0  0  0
    6.3210    1.6010   29.7640 F   0  0  0  0  0  0  0  0  0  0  0  0
    5.9150    0.6150   27.5390 C   0  0  0  0  0  0  0  0  0  0  0  0
    6.0000   -0.3880   26.5970 C   0  0  0  0  0  0  0  0  0  0  0  0
    5.4920   -0.2960   25.3510 O   0  0  0  0  0  0  0  0  0  0  0  0
    4.9330    0.7910   24.7490 C   0  0  2  0  0  0  0  0  0  0  0  0
    3.4620    0.8090   25.0760 C   0  0  0  0  0  0  0  0  0  0  0  0
    5.2210    0.9950   23.3240 C   0  0  0  0  0  0  0  0  0  0  0  0
    5.4830    1.2010   22.0440 N   0  0  0  0  0  0  0  0  0  0  0  0
    5.6970   -4.7930   23.4490 C   0  0  0  0  0  0  0  0  0  0  0  0
    6.4830   -5.4060   22.4530 C   0  0  0  0  0  0  0  0  0  0  0  0
  1  2  1  0
  2  3  2  0
  2  4  1  0
  4  5  1  0
  5  6  1  0
  6  7  1  0
  7  8  1  0
  8  9  2  0
  8 10  1  0
 10 11  1  0
 11 12  2  0
 12 13  1  0
 13 14  2  0
 14 15  1  0
 14 16  1  0
 11 17  1  0
 16 17  2  0
 17 18  1  0
 18 19  1  0
 19 20  1  6
 19 21  1  0
 21 22  3  0
  7 23  1  0
  4 24  1  0
 23 24  1  0
M  END
