piperidine-amides-3172-covalent
     RDKit          3D

 22 24  0  0  0  0  0  0  0  0999 V2000
    7.0610   -3.3000   19.2580 C   0  0  0  0  0  0  0  0  0  0  0  0
    6.3420   -4.0770   20.2600 C   0  0  0  0  0  0  0  0  0  0  0  0
    5.3230   -4.6830   19.9380 O   0  0  0  0  0  0  0  0  0  0  0  0
    6.8430   -4.1870   21.6080 N   0  0  0  0  0  0  0  0  0  0  0  0
    6.6340   -5.4190   22.3290 C   0  0  0  0  0  0  0  0  0  0  0  0
    6.0660   -5.1290   23.6870 C   0  0  0  0  0  0  0  0  0  0  0  0
    6.1200   -3.6280   23.8760 C   0  0  0  0  0  0  0  0  0  0  0  0
    5.6030   -3.2920   25.2290 C   0  0  0  0  0  0  0  0  0  0  0  0
    4.3800   -3.2440   25.4670 O   0  0  0  0  0  0  0  0  0  0  0  0
    6.5080   -3.0230   26.2760 N   0  0  0  0  0  0  0  0  0  0  0  0
    6.1520   -3.4630   27.6070 C   0  0  0  0  0  0  0  0  0  0  0  0
    6.5620   -2.3770   28.5710 C   0  0  1  0  0  0  0  0  0  0  0  0
    6.7800   -1.1120   28.1100 C   0  0  0  0  0  0  0  0  0  0  0  0
    5.9170   -0.2310   28.6850 C   0  0  0  0  0  0  0  0  0  0  0  0
    5.0810   -0.9440   29.4960 C   0  0  0  0  0  0  0  0  0  0  0  0
    3.6790   -0.6270   29.2210 C   0  0  0  0  0  0  0  0  0  0  0  0
    3.1010    0.1570   30.1540 C   0  0  0  0  0  0  0  0  0  0  0  0
    3.9940    0.3140   31.1630 C   0  0  0  0  0  0  0  0  0  0  0  0
    5.1510   -0.4500   30.9360 C   0  0  0  0  0  0  0  0  0  0  0  0
    5.4990   -2.1490   29.4850 O   0  0  0  0  0  0  0  0  0  0  0  0
    7.3940   -3.0120   23.5690 C   0  0  0  0  0  0  0  0  0  0  0  0
    7.6600   -3.1520   22.2170 C   0  0  0  0  0  0  0  0  0  0  0  0
  1  2  1  0
  2  3  2  0
  2  4  1  0
  4  5  1  0
  5  6  1  0
  6  7  1  0
  7  8  1  0
  8  9  2  0
  8 10  1  0
 10 11  1  0
 12 11  1  6
 12 13  1  0
 13 14  1  0
 14 15  1  0
 15 16  1  0
 16 17  1  0
 17 18  1  0
 15 19  1  0
 18 19  1  0
 12 20  1  0
 15 20  1  0
  7 21  1  0
  4 22  1  0
 21 22  1  0
M  END
