piperidine-amides-2600-covalent
     RDKit          3D

 25 28  0  0  0  0  0  0  0  0999 V2000
    7.0460   -3.3380   19.3420 C   0  0  0  0  0  0  0  0  0  0  0  0
    6.3960   -4.2130   20.3530 C   0  0  0  0  0  0  0  0  0  0  0  0
    5.4060   -4.8470   19.9840 O   0  0  0  0  0  0  0  0  0  0  0  0
    6.9330   -4.3310   21.6450 N   0  0  0  0  0  0  0  0  0  0  0  0
    6.6300   -5.4850   22.4570 C   0  0  0  0  0  0  0  0  0  0  0  0
    6.1100   -5.0500   23.8070 C   0  0  0  0  0  0  0  0  0  0  0  0
    6.0670   -3.5190   23.8840 C   0  0  0  0  0  0  0  0  0  0  0  0
    5.5810   -3.0700   25.2070 C   0  0  0  0  0  0  0  0  0  0  0  0
    4.4240   -2.6600   25.2940 O   0  0  0  0  0  0  0  0  0  0  0  0
    6.3950   -3.0820   26.3470 N   0  0  0  0  0  0  0  0  0  0  0  0
    6.0150   -2.2460   27.4680 C   0  0  0  0  0  0  0  0  0  0  0  0
    4.7990   -2.6710   28.2740 C   0  0  1  0  0  0  0  0  0  0  0  0
    3.4550   -2.3350   28.0420 C   0  0  0  0  0  0  0  0  0  0  0  0
    2.7450   -3.2560   27.2920 C   0  0  0  0  0  0  0  0  0  0  0  0
    2.5940   -4.4430   27.9680 C   0  0  0  0  0  0  0  0  0  0  0  0
    3.9080   -5.0510   28.3030 C   0  0  0  0  0  0  0  0  0  0  0  0
    3.8120   -6.5440   28.4170 C   0  0  0  0  0  0  0  0  0  0  0  0
    5.0820   -7.2940   28.7460 C   0  0  0  0  0  0  0  0  0  0  0  0
    6.3180   -6.4770   28.9290 C   0  0  0  0  0  0  0  0  0  0  0  0
    6.2750   -5.0020   28.7890 C   0  0  0  0  0  0  0  0  0  0  0  0
    5.0700   -4.1630   28.4650 C   0  0  0  0  0  0  0  0  0  0  0  0
    6.9480   -1.0610   28.0190 C   0  0  0  0  0  0  0  0  0  0  0  0
    5.9320   -0.7640   27.0950 C   0  0  0  0  0  0  0  0  0  0  0  0
    7.4440   -3.0010   23.5960 C   0  0  0  0  0  0  0  0  0  0  0  0
    7.7400   -3.2480   22.1470 C   0  0  0  0  0  0  0  0  0  0  0  0
  1  2  1  0
  2  3  2  0
  2  4  1  0
  4  5  1  0
  5  6  1  0
  6  7  1  0
  7  8  1  0
  8  9  2  0
  8 10  1  0
 11 10  1  0
 12 11  1  6
 12 13  1  0
 13 14  1  0
 14 15  1  0
 15 16  1  0
 16 17  2  0
 17 18  1  0
 18 19  2  0
 19 20  1  0
 12 21  1  0
 16 21  1  0
 20 21  2  0
 11 22  1  0
 11 23  1  0
 22 23  1  0
  7 24  1  0
  4 25  1  0
 24 25  1  0
M  END
