piperidine-amides-10083-covalent
     RDKit          3D

 25 27  0  0  0  0  0  0  0  0999 V2000
    7.0080   -3.3480   19.3570 C   0  0  0  0  0  0  0  0  0  0  0  0
    6.3620   -4.1810   20.3780 C   0  0  0  0  0  0  0  0  0  0  0  0
    5.3840   -4.8740   19.9870 O   0  0  0  0  0  0  0  0  0  0  0  0
    6.8450   -4.2160   21.6930 N   0  0  0  0  0  0  0  0  0  0  0  0
    6.7170   -5.4190   22.4880 C   0  0  0  0  0  0  0  0  0  0  0  0
    6.0700   -5.0560   23.7980 C   0  0  0  0  0  0  0  0  0  0  0  0
    6.0270   -3.5650   24.0030 C   0  0  0  0  0  0  0  0  0  0  0  0
    5.5480   -3.2000   25.3660 C   0  0  0  0  0  0  0  0  0  0  0  0
    4.3100   -3.1280   25.5130 O   0  0  0  0  0  0  0  0  0  0  0  0
    6.3580   -2.9410   26.4940 N   0  0  0  0  0  0  0  0  0  0  0  0
    6.7960   -1.6030   26.8550 C   0  0  1  0  0  0  0  0  0  0  0  0
    5.7440   -0.5430   26.5560 C   0  0  0  0  0  0  0  0  0  0  0  0
    5.6610    0.6260   27.3230 C   0  0  0  0  0  0  0  0  0  0  0  0
    6.0850    0.5960   28.7450 O   0  0  0  0  0  0  0  0  0  0  0  0
    6.9430   -0.3590   29.1850 C   0  0  0  0  0  0  0  0  0  0  0  0
    7.5710   -0.4790   30.4160 C   0  0  0  0  0  0  0  0  0  0  0  0
    7.5500   -1.1280   29.3180 C   0  0  0  0  0  0  0  0  0  0  0  0
    6.6820    0.1200   29.3760 C   0  0  0  0  0  0  0  0  0  0  0  0
    5.7310    1.3270   29.1820 C   0  0  0  0  0  0  0  0  0  0  0  0
    4.3480    0.6340   29.1880 C   0  0  0  0  0  0  0  0  0  0  0  0
    6.0800    2.3310   28.2780 C   0  0  0  0  0  0  0  0  0  0  0  0
    6.4360   -0.3180   28.1090 C   0  0  0  0  0  0  0  0  0  0  0  0
    7.1710   -1.3300   28.1510 C   0  0  0  0  0  0  0  0  0  0  0  0
    7.4040   -3.0060   23.6980 C   0  0  0  0  0  0  0  0  0  0  0  0
    7.7250   -3.1720   22.2170 C   0  0  0  0  0  0  0  0  0  0  0  0
  1  2  1  0
  2  3  2  0
  2  4  1  0
  4  5  1  0
  5  6  1  0
  6  7  1  0
  7  8  1  0
  8  9  2  0
  8 10  1  0
 11 10  1  1
 11 12  1  0
 12 13  1  0
 13 14  1  0
 14 15  1  0
 15 16  2  0
 16 17  1  0
 17 18  2  0
 18 19  1  0
 19 20  1  0
 19 21  1  0
 18 22  1  0
 11 23  1  0
 15 23  1  0
 22 23  2  0
  7 24  1  0
  4 25  1  0
 24 25  1  0
M  END
