piperidine-amides-19590-covalent
     RDKit          3D

 22 24  0  0  0  0  0  0  0  0999 V2000
    7.0760   -3.3420   19.3840 C   0  0  0  0  0  0  0  0  0  0  0  0
    6.3610   -4.1540   20.3500 C   0  0  0  0  0  0  0  0  0  0  0  0
    5.3870   -4.8750   19.9710 O   0  0  0  0  0  0  0  0  0  0  0  0
    6.7430   -4.1700   21.6990 N   0  0  0  0  0  0  0  0  0  0  0  0
    6.6190   -5.4810   22.4040 C   0  0  0  0  0  0  0  0  0  0  0  0
    5.8660   -5.0980   23.7540 C   0  0  0  0  0  0  0  0  0  0  0  0
    6.4090   -3.7380   24.1070 C   0  0  0  0  0  0  0  0  0  0  0  0
    5.7570   -3.0620   25.4110 C   0  0  0  0  0  0  0  0  0  0  0  0
    5.4250   -1.9310   25.1090 O   0  0  0  0  0  0  0  0  0  0  0  0
    5.6760   -3.8060   26.4580 N   0  0  0  0  0  0  0  0  0  0  0  0
    5.0260   -4.4640   27.4430 C   0  0  0  0  0  0  0  0  0  0  0  0
    5.0760   -4.4800   28.7940 C   0  0  0  0  0  0  0  0  0  0  0  0
    6.3870   -4.7660   29.1180 C   0  0  0  0  0  0  0  0  0  0  0  0
    7.0880   -5.2360   27.9530 C   0  0  0  0  0  0  0  0  0  0  0  0
    6.9030   -3.8520   27.2630 C   0  0  1  0  0  0  0  0  0  0  0  0
    7.9610   -4.3910   26.6350 C   0  0  0  0  0  0  0  0  0  0  0  0
    8.4410   -5.6410   26.9220 N   0  0  0  0  0  0  0  0  0  0  0  0
    9.5430   -5.8940   26.1070 C   0  0  0  0  0  0  0  0  0  0  0  0
    9.6880   -4.7020   25.3010 N   0  0  0  0  0  0  0  0  0  0  0  0
    8.7490   -3.7970   25.6070 N   0  0  0  0  0  0  0  0  0  0  0  0
    7.7490   -3.4730   23.7160 C   0  0  0  0  0  0  0  0  0  0  0  0
    7.6330   -3.1920   22.2030 C   0  0  0  0  0  0  0  0  0  0  0  0
  1  2  1  0
  2  3  2  0
  2  4  1  0
  4  5  1  0
  5  6  1  0
  6  7  1  0
  7  8  1  0
  8  9  2  0
  8 10  1  0
 10 11  1  0
 11 12  1  0
 12 13  1  0
 13 14  1  0
 10 15  1  0
 14 15  1  0
 15 16  1  6
 16 17  1  0
 17 18  2  0
 18 19  1  0
 16 20  2  0
 19 20  1  0
  7 21  1  0
  4 22  1  0
 21 22  1  0
M  END
