piperidine-amides-10375-covalent
     RDKit          3D

 25 27  0  0  0  0  0  0  0  0999 V2000
    7.0640   -3.3270   19.2900 C   0  0  0  0  0  0  0  0  0  0  0  0
    6.3790   -4.1440   20.2960 C   0  0  0  0  0  0  0  0  0  0  0  0
    5.3210   -4.7210   19.9380 O   0  0  0  0  0  0  0  0  0  0  0  0
    6.9260   -4.2930   21.5660 N   0  0  0  0  0  0  0  0  0  0  0  0
    6.6200   -5.4390   22.3850 C   0  0  0  0  0  0  0  0  0  0  0  0
    5.8840   -4.9510   23.6000 C   0  0  0  0  0  0  0  0  0  0  0  0
    6.6130   -3.8180   24.2860 C   0  0  0  0  0  0  0  0  0  0  0  0
    5.8260   -3.2770   25.4090 C   0  0  0  0  0  0  0  0  0  0  0  0
    4.6120   -3.0540   25.2230 O   0  0  0  0  0  0  0  0  0  0  0  0
    6.3780   -3.0060   26.6740 N   0  0  0  0  0  0  0  0  0  0  0  0
    6.3500   -1.6830   27.2520 C   0  0  0  0  0  0  0  0  0  0  0  0
    7.0790   -1.5650   28.5710 C   0  0  0  0  0  0  0  0  0  0  0  0
    7.1240   -0.3730   29.2200 C   0  0  0  0  0  0  0  0  0  0  0  0
    6.4880    0.7030   28.6400 C   0  0  0  0  0  0  0  0  0  0  0  0
    5.7940    0.6810   27.4290 C   0  0  0  0  0  0  0  0  0  0  0  0
    5.0470    2.0940   26.8220 S   0  0  0  0  0  0  0  0  0  0  0  0
    3.4230    1.5620   26.8360 C   0  0  0  0  0  0  0  0  0  0  0  0
    2.7690    1.4900   28.0500 C   0  0  0  0  0  0  0  0  0  0  0  0
    3.3420    0.4490   29.0240 C   0  0  0  0  0  0  0  0  0  0  0  0
    2.0450   -0.2650   29.4630 C   0  0  0  0  0  0  0  0  0  0  0  0
    0.8480    0.3280   28.7890 C   0  0  0  0  0  0  0  0  0  0  0  0
    1.3790    1.4280   27.9280 C   0  0  0  0  0  0  0  0  0  0  0  0
    5.7410   -0.5250   26.7530 C   0  0  0  0  0  0  0  0  0  0  0  0
    6.8700   -2.7130   23.2890 C   0  0  0  0  0  0  0  0  0  0  0  0
    7.7420   -3.2640   22.1820 C   0  0  0  0  0  0  0  0  0  0  0  0
  1  2  1  0
  2  3  2  0
  2  4  1  0
  4  5  1  0
  5  6  1  0
  6  7  1  0
  7  8  1  0
  8  9  2  0
  8 10  1  0
 10 11  1  0
 11 12  2  0
 12 13  1  0
 13 14  2  0
 14 15  1  0
 15 16  1  0
 16 17  1  0
 17 18  1  0
 18 19  1  0
 19 20  1  0
 20 21  1  0
 18 22  1  0
 21 22  1  0
 11 23  1  0
 15 23  2  0
  7 24  1  0
  4 25  1  0
 24 25  1  0
M  END
