piperidine-amides-24159-covalent
     RDKit          3D

 24 26  0  0  0  0  0  0  0  0999 V2000
    6.9970   -3.3720   19.4440 C   0  0  0  0  0  0  0  0  0  0  0  0
    6.3730   -4.2840   20.4210 C   0  0  0  0  0  0  0  0  0  0  0  0
    5.4340   -5.0130   20.0240 O   0  0  0  0  0  0  0  0  0  0  0  0
    6.8300   -4.3820   21.7600 N   0  0  0  0  0  0  0  0  0  0  0  0
    6.5280   -5.5950   22.5160 C   0  0  0  0  0  0  0  0  0  0  0  0
    6.1130   -5.2090   23.9620 C   0  0  0  0  0  0  0  0  0  0  0  0
    5.9920   -3.7050   23.9680 C   0  0  0  0  0  0  0  0  0  0  0  0
    5.3300   -3.0480   25.1500 C   0  0  0  0  0  0  0  0  0  0  0  0
    4.6790   -2.0370   24.8610 O   0  0  0  0  0  0  0  0  0  0  0  0
    5.3330   -3.4340   26.5290 N   0  0  0  0  0  0  0  0  0  0  0  0
    6.4960   -3.2380   27.2500 C   0  0  0  0  0  0  0  0  0  0  0  0
    6.4490   -4.2210   28.4340 C   0  0  0  0  0  0  0  0  0  0  0  0
    5.2320   -4.6500   28.9290 C   0  0  0  0  0  0  0  0  0  0  0  0
    4.9330   -5.5100   29.9810 C   0  0  0  0  0  0  0  0  0  0  0  0
    5.7910   -6.5440   30.2580 C   0  0  0  0  0  0  0  0  0  0  0  0
    6.1840   -6.8290   31.5290 O   0  0  0  0  0  0  0  0  0  0  0  0
    6.1840   -7.2750   29.1920 O   0  0  0  0  0  0  0  0  0  0  0  0
    5.3610   -7.1950   28.0360 C   0  0  0  0  0  0  0  0  0  0  0  0
    4.0160   -5.0500   30.9730 C   0  0  0  0  0  0  0  0  0  0  0  0
    3.5970   -5.9570   29.9520 C   0  0  0  0  0  0  0  0  0  0  0  0
    4.1440   -4.1780   28.3020 C   0  0  0  0  0  0  0  0  0  0  0  0
    4.4080   -2.9730   27.5290 C   0  0  0  0  0  0  0  0  0  0  0  0
    7.3330   -3.1170   23.6650 C   0  0  0  0  0  0  0  0  0  0  0  0
    7.5930   -3.3060   22.3380 C   0  0  0  0  0  0  0  0  0  0  0  0
  1  2  1  0
  2  3  2  0
  2  4  1  0
  4  5  1  0
  5  6  1  0
  6  7  1  0
  7  8  1  0
  8  9  2  0
  8 10  1  0
 10 11  1  0
 11 12  1  0
 12 13  2  0
 13 14  1  0
 14 15  1  0
 15 16  2  0
 15 17  1  0
 17 18  1  0
 14 19  1  0
 14 20  1  0
 19 20  1  0
 13 21  1  0
 10 22  1  0
 21 22  1  0
  7 23  1  0
  4 24  1  0
 23 24  1  0
M  END
