piperidine-amides-6349-covalent
     RDKit          3D

 25 26  0  0  0  0  0  0  0  0999 V2000
    7.0810   -3.2770   19.2980 C   0  0  0  0  0  0  0  0  0  0  0  0
    6.3600   -4.0950   20.2920 C   0  0  0  0  0  0  0  0  0  0  0  0
    5.3500   -4.7470   19.9500 O   0  0  0  0  0  0  0  0  0  0  0  0
    6.8030   -4.1860   21.6230 N   0  0  0  0  0  0  0  0  0  0  0  0
    7.6690   -3.1480   22.1690 C   0  0  0  0  0  0  0  0  0  0  0  0
    7.4110   -3.0580   23.6770 C   0  0  0  0  0  0  0  0  0  0  0  0
    6.0240   -3.6140   23.8830 C   0  0  0  0  0  0  0  0  0  0  0  0
    5.4800   -3.3530   25.2330 C   0  0  0  0  0  0  0  0  0  0  0  0
    4.2420   -3.3040   25.3570 O   0  0  0  0  0  0  0  0  0  0  0  0
    6.3320   -3.1640   26.3430 N   0  0  0  0  0  0  0  0  0  0  0  0
    6.4470   -1.8630   26.9210 C   0  0  0  0  0  0  0  0  0  0  0  0
    5.7520   -1.8310   28.2640 C   0  0  0  0  0  0  0  0  0  0  0  0
    4.6180   -2.5560   28.5030 C   0  0  0  0  0  0  0  0  0  0  0  0
    3.9910   -2.5150   29.7230 C   0  0  0  0  0  0  0  0  0  0  0  0
    4.4590   -1.7470   30.7800 C   0  0  0  0  0  0  0  0  0  0  0  0
    3.8330   -1.6990   32.0070 C   0  0  0  0  0  0  0  0  0  0  0  0
    4.0420   -0.4890   32.8960 C   0  0  0  0  0  0  0  0  0  0  0  0
    5.1220   -0.0470   33.2940 O   0  0  0  0  0  0  0  0  0  0  0  0
    2.9090    0.1570   33.2750 O   0  0  0  0  0  0  0  0  0  0  0  0
    2.7220    1.3440   32.6000 C   0  0  0  0  0  0  0  0  0  0  0  0
    2.9960    1.1600   31.1400 C   0  0  0  0  0  0  0  0  0  0  0  0
    5.6080   -1.0290   30.5000 C   0  0  0  0  0  0  0  0  0  0  0  0
    6.2750   -1.0480   29.2680 C   0  0  0  0  0  0  0  0  0  0  0  0
    6.1000   -5.1180   23.7040 C   0  0  0  0  0  0  0  0  0  0  0  0
    6.6480   -5.4390   22.3390 C   0  0  0  0  0  0  0  0  0  0  0  0
  1  2  1  0
  2  3  2  0
  2  4  1  0
  4  5  1  0
  5  6  1  0
  6  7  1  0
  7  8  1  0
  8  9  2  0
  8 10  1  0
 10 11  1  0
 11 12  1  0
 12 13  2  0
 13 14  1  0
 14 15  2  0
 15 16  1  0
 16 17  1  0
 17 18  2  0
 17 19  1  0
 19 20  1  0
 20 21  1  0
 15 22  1  0
 12 23  1  0
 22 23  2  0
  7 24  1  0
  4 25  1  0
 24 25  1  0
M  END
