piperidine-amides-11557-covalent
     RDKit          3D

 24 25  0  0  0  0  0  0  0  0999 V2000
    7.0480   -3.3350   19.3210 C   0  0  0  0  0  0  0  0  0  0  0  0
    6.3730   -4.1510   20.3330 C   0  0  0  0  0  0  0  0  0  0  0  0
    5.4010   -4.8450   19.9870 O   0  0  0  0  0  0  0  0  0  0  0  0
    6.8280   -4.1950   21.6680 N   0  0  0  0  0  0  0  0  0  0  0  0
    7.7630   -3.2110   22.1910 C   0  0  0  0  0  0  0  0  0  0  0  0
    7.4920   -3.0730   23.6600 C   0  0  0  0  0  0  0  0  0  0  0  0
    6.1360   -3.6070   23.9870 C   0  0  0  0  0  0  0  0  0  0  0  0
    5.6640   -3.2780   25.3570 C   0  0  0  0  0  0  0  0  0  0  0  0
    4.4210   -3.2520   25.5910 O   0  0  0  0  0  0  0  0  0  0  0  0
    6.5070   -2.9890   26.4570 N   0  0  0  0  0  0  0  0  0  0  0  0
    6.4210   -1.6490   27.0920 C   0  0  0  0  0  0  0  0  0  0  0  0
    6.8470   -1.4650   28.4780 C   0  0  0  0  0  0  0  0  0  0  0  0
    6.7200   -0.1240   29.0480 C   0  0  0  0  0  0  0  0  0  0  0  0
    7.1410    0.0820   30.4810 C   0  0  0  0  0  0  0  0  0  0  0  0
    8.3670   -0.5160   30.6970 F   0  0  0  0  0  0  0  0  0  0  0  0
    7.3490    1.4210   30.7370 F   0  0  0  0  0  0  0  0  0  0  0  0
    6.2510   -0.4240   31.3700 F   0  0  0  0  0  0  0  0  0  0  0  0
    6.2170    1.1360   28.4210 C   0  0  0  0  0  0  0  0  0  0  0  0
    6.0800    2.7310   29.1350 Cl  0  0  0  0  0  0  0  0  0  0  0  0
    5.8260    0.7960   27.0110 C   0  0  0  0  0  0  0  0  0  0  0  0
    5.8830   -0.4140   26.3390 C   0  0  0  0  0  0  0  0  0  0  0  0
    5.4750   -0.5440   25.0410 F   0  0  0  0  0  0  0  0  0  0  0  0
    6.0760   -5.0970   23.7560 C   0  0  0  0  0  0  0  0  0  0  0  0
    6.6970   -5.4400   22.4130 C   0  0  0  0  0  0  0  0  0  0  0  0
  1  2  1  0
  2  3  2  0
  2  4  1  0
  4  5  1  0
  5  6  1  0
  6  7  1  0
  7  8  1  0
  8  9  2  0
  8 10  1  0
 10 11  1  0
 11 12  2  0
 12 13  1  0
 13 14  1  0
 14 15  1  0
 14 16  1  0
 14 17  1  0
 13 18  2  0
 18 19  1  0
 18 20  1  0
 11 21  1  0
 20 21  2  0
 21 22  1  0
  7 23  1  0
  4 24  1  0
 23 24  1  0
M  END
