piperidine-amides-13230-covalent
     RDKit          3D

 19 20  0  0  0  0  0  0  0  0999 V2000
    7.1190   -3.2590   19.1980 C   0  0  0  0  0  0  0  0  0  0  0  0
    6.3100   -3.9790   20.2040 C   0  0  0  0  0  0  0  0  0  0  0  0
    5.2220   -4.4440   19.8260 O   0  0  0  0  0  0  0  0  0  0  0  0
    6.7660   -4.1770   21.5060 N   0  0  0  0  0  0  0  0  0  0  0  0
    7.5560   -3.1620   22.1420 C   0  0  0  0  0  0  0  0  0  0  0  0
    7.2070   -2.8820   23.5360 C   0  0  0  0  0  0  0  0  0  0  0  0
    6.4670   -3.9590   24.2120 C   0  0  0  0  0  0  0  0  0  0  0  0
    5.7660   -3.4410   25.4160 C   0  0  0  0  0  0  0  0  0  0  0  0
    4.5290   -3.2930   25.3670 O   0  0  0  0  0  0  0  0  0  0  0  0
    6.4870   -3.1160   26.5870 N   0  0  0  0  0  0  0  0  0  0  0  0
    6.0240   -3.4540   27.9530 C   0  0  1  0  0  0  0  0  0  0  0  0
    6.6390   -4.7000   28.5130 C   0  0  0  0  0  0  0  0  0  0  0  0
    6.2230   -2.2950   28.8600 C   0  0  0  0  0  0  0  0  0  0  0  0
    7.0420   -1.2180   28.7350 C   0  0  0  0  0  0  0  0  0  0  0  0
    6.9710   -0.3430   29.7450 C   0  0  0  0  0  0  0  0  0  0  0  0
    6.0630   -0.8530   30.5920 C   0  0  0  0  0  0  0  0  0  0  0  0
    5.6110   -2.0890   30.0080 O   0  0  0  0  0  0  0  0  0  0  0  0
    5.5970   -4.8060   23.3420 C   0  0  0  0  0  0  0  0  0  0  0  0
    6.3420   -5.2880   22.3050 C   0  0  0  0  0  0  0  0  0  0  0  0
  1  2  1  0
  2  3  2  0
  2  4  1  0
  4  5  1  0
  5  6  1  0
  6  7  1  0
  7  8  1  0
  8  9  2  0
  8 10  1  0
 10 11  1  0
 11 12  1  1
 11 13  1  0
 13 14  2  0
 14 15  1  0
 15 16  2  0
 13 17  1  0
 16 17  1  0
  7 18  1  0
  4 19  1  0
 18 19  1  0
M  END
