piperidine-amides-23744-covalent
     RDKit          3D

 24 25  0  0  0  0  0  0  0  0999 V2000
    7.1220   -3.2630   19.1700 C   0  0  0  0  0  0  0  0  0  0  0  0
    6.3750   -3.9930   20.2120 C   0  0  0  0  0  0  0  0  0  0  0  0
    5.2790   -4.4940   19.8680 O   0  0  0  0  0  0  0  0  0  0  0  0
    6.8850   -4.1810   21.5250 N   0  0  0  0  0  0  0  0  0  0  0  0
    7.6840   -3.1580   22.1190 C   0  0  0  0  0  0  0  0  0  0  0  0
    7.2490   -2.8650   23.4640 C   0  0  0  0  0  0  0  0  0  0  0  0
    6.0440   -3.6330   23.7760 C   0  0  0  0  0  0  0  0  0  0  0  0
    5.4200   -3.2270   25.0790 C   0  0  0  0  0  0  0  0  0  0  0  0
    4.4710   -2.4280   25.0570 O   0  0  0  0  0  0  0  0  0  0  0  0
    5.8410   -3.7150   26.3210 N   0  0  0  0  0  0  0  0  0  0  0  0
    6.4560   -4.9870   26.5110 C   0  0  0  0  0  0  0  0  0  0  0  0
    5.9900   -5.8860   27.5470 C   0  0  0  0  0  0  0  0  0  0  0  0
    5.0030   -6.6400   27.2740 O   0  0  0  0  0  0  0  0  0  0  0  0
    6.5360   -5.9890   28.8090 O   0  0  0  0  0  0  0  0  0  0  0  0
    6.0180   -6.9480   29.7140 C   0  0  0  0  0  0  0  0  0  0  0  0
    5.1610   -3.1190   27.4560 C   0  0  0  0  0  0  0  0  0  0  0  0
    5.4150   -1.6130   27.6080 C   0  0  0  0  0  0  0  0  0  0  0  0
    5.5480   -1.4090   29.0850 C   0  0  0  0  0  0  0  0  0  0  0  0
    5.8150    0.1060   29.2760 C   0  0  0  0  0  0  0  0  0  0  0  0
    5.9400    1.2580   28.2810 C   0  0  0  0  0  0  0  0  0  0  0  0
    5.7740    0.8580   26.8230 C   0  0  0  0  0  0  0  0  0  0  0  0
    5.5110   -0.6030   26.5130 C   0  0  0  0  0  0  0  0  0  0  0  0
    6.3140   -5.0980   23.6350 C   0  0  0  0  0  0  0  0  0  0  0  0
    6.5780   -5.3860   22.2820 C   0  0  0  0  0  0  0  0  0  0  0  0
  1  2  1  0
  2  3  2  0
  2  4  1  0
  4  5  1  0
  5  6  1  0
  6  7  1  0
  7  8  1  0
  8  9  2  0
  8 10  1  0
 10 11  1  0
 11 12  1  0
 12 13  2  0
 12 14  1  0
 14 15  1  0
 10 16  1  0
 16 17  1  0
 17 18  2  0
 18 19  1  0
 19 20  2  0
 20 21  1  0
 17 22  1  0
 21 22  2  0
  7 23  1  0
  4 24  1  0
 23 24  1  0
M  END
