piperidine-amides-32883-covalent
     RDKit          3D

 25 27  0  0  0  0  0  0  0  0999 V2000
    7.0670   -3.3370   19.3700 C   0  0  0  0  0  0  0  0  0  0  0  0
    6.3780   -4.2020   20.3700 C   0  0  0  0  0  0  0  0  0  0  0  0
    5.3970   -4.8680   19.9930 O   0  0  0  0  0  0  0  0  0  0  0  0
    6.8740   -4.2800   21.6980 N   0  0  0  0  0  0  0  0  0  0  0  0
    6.7530   -5.4960   22.4890 C   0  0  0  0  0  0  0  0  0  0  0  0
    6.1880   -5.1290   23.8730 C   0  0  0  0  0  0  0  0  0  0  0  0
    6.1670   -3.6450   23.9340 C   0  0  0  0  0  0  0  0  0  0  0  0
    5.5470   -3.0220   25.1360 C   0  0  0  0  0  0  0  0  0  0  0  0
    4.4970   -2.4170   24.9050 O   0  0  0  0  0  0  0  0  0  0  0  0
    6.0670   -3.0750   26.4370 N   0  0  0  0  0  0  0  0  0  0  0  0
    6.2440   -1.8500   27.1670 C   0  0  0  0  0  0  0  0  0  0  0  0
    5.8070   -0.6060   26.7180 C   0  0  0  0  0  0  0  0  0  0  0  0
    5.9570    0.6150   27.4200 C   0  0  0  0  0  0  0  0  0  0  0  0
    6.5790    0.6510   28.6500 C   0  0  0  0  0  0  0  0  0  0  0  0
    7.0790   -0.6220   29.1980 C   0  0  0  0  0  0  0  0  0  0  0  0
    6.8920   -1.9020   28.4120 C   0  0  0  0  0  0  0  0  0  0  0  0
    5.5700   -4.2500   27.1870 C   0  0  0  0  0  0  0  0  0  0  0  0
    6.2960   -4.5700   28.2990 C   0  0  0  0  0  0  0  0  0  0  0  0
    5.9230   -5.7000   29.1160 C   0  0  0  0  0  0  0  0  0  0  0  0
    4.7990   -6.4620   28.7490 N   0  0  0  0  0  0  0  0  0  0  0  0
    4.0870   -6.0730   27.5830 C   0  0  0  0  0  0  0  0  0  0  0  0
    4.4250   -4.9740   26.7610 C   0  0  0  0  0  0  0  0  0  0  0  0
    3.3520   -4.5780   25.2120 Br  0  0  0  0  0  0  0  0  0  0  0  0
    7.4860   -3.0210   23.6630 C   0  0  0  0  0  0  0  0  0  0  0  0
    7.7810   -3.2370   22.1970 C   0  0  0  0  0  0  0  0  0  0  0  0
  1  2  1  0
  2  3  2  0
  2  4  1  0
  4  5  1  0
  5  6  1  0
  6  7  1  0
  7  8  1  0
  8  9  2  0
  8 10  1  0
 10 11  1  0
 11 12  2  0
 12 13  1  0
 13 14  2  0
 14 15  1  0
 11 16  1  0
 15 16  2  0
 10 17  1  0
 17 18  2  0
 18 19  1  0
 19 20  2  0
 20 21  1  0
 17 22  1  0
 21 22  2  0
 22 23  1  0
  7 24  1  0
  4 25  1  0
 24 25  1  0
M  END
