piperidine-amides-28012-covalent
     RDKit          3D

 26 27  0  0  0  0  0  0  0  0999 V2000
    7.0900   -3.2910   19.1760 C   0  0  0  0  0  0  0  0  0  0  0  0
    6.3530   -4.0440   20.2140 C   0  0  0  0  0  0  0  0  0  0  0  0
    5.2610   -4.5300   19.8730 O   0  0  0  0  0  0  0  0  0  0  0  0
    6.9010   -4.2470   21.4880 N   0  0  0  0  0  0  0  0  0  0  0  0
    6.4620   -5.3420   22.2710 C   0  0  0  0  0  0  0  0  0  0  0  0
    5.8980   -4.9510   23.5710 C   0  0  0  0  0  0  0  0  0  0  0  0
    6.5270   -3.7820   24.2370 C   0  0  0  0  0  0  0  0  0  0  0  0
    5.7220   -3.3680   25.4140 C   0  0  0  0  0  0  0  0  0  0  0  0
    4.4800   -3.4200   25.3170 O   0  0  0  0  0  0  0  0  0  0  0  0
    6.3190   -2.9140   26.6030 N   0  0  0  0  0  0  0  0  0  0  0  0
    6.9610   -1.5710   26.6570 C   0  0  0  0  0  0  0  0  0  0  0  0
    6.0910   -0.4420   26.2310 C   0  0  0  0  0  0  0  0  0  0  0  0
    6.7370    0.8310   25.9310 C   0  0  0  0  0  0  0  0  0  0  0  0
    6.3080   -3.5450   27.9350 C   0  0  1  0  0  0  0  0  0  0  0  0
    5.6310   -2.7240   28.7920 C   0  0  0  0  0  0  0  0  0  0  0  0
    6.1800   -1.5640   29.2760 C   0  0  0  0  0  0  0  0  0  0  0  0
    7.5300   -1.3910   29.3590 C   0  0  0  0  0  0  0  0  0  0  0  0
    5.7550   -4.8260   27.7740 C   0  0  0  0  0  0  0  0  0  0  0  0
    5.3800   -5.4890   28.9430 C   0  0  0  0  0  0  0  0  0  0  0  0
    4.1850   -5.0880   29.7520 C   0  0  0  0  0  0  0  0  0  0  0  0
    3.8580   -5.8770   31.0110 C   0  0  0  0  0  0  0  0  0  0  0  0
    4.7740   -7.0110   31.3400 C   0  0  0  0  0  0  0  0  0  0  0  0
    5.8740   -7.3660   30.5760 C   0  0  0  0  0  0  0  0  0  0  0  0
    6.1880   -6.5790   29.3400 C   0  0  0  0  0  0  0  0  0  0  0  0
    6.8320   -2.6340   23.3010 C   0  0  0  0  0  0  0  0  0  0  0  0
    7.5980   -3.1860   22.1550 C   0  0  0  0  0  0  0  0  0  0  0  0
  1  2  1  0
  2  3  2  0
  2  4  1  0
  4  5  1  0
  5  6  1  0
  6  7  1  0
  7  8  1  0
  8  9  2  0
  8 10  1  0
 10 11  1  0
 11 12  1  0
 12 13  1  0
 10 14  1  0
 14 15  1  1
 15 16  1  0
 16 17  1  0
 14 18  1  0
 18 19  1  0
 19 20  2  0
 20 21  1  0
 21 22  2  0
 22 23  1  0
 19 24  1  0
 23 24  2  0
  7 25  1  0
  4 26  1  0
 25 26  1  0
M  END
