piperidine-amides-29925-covalent
     RDKit          3D

 27 29  0  0  0  0  0  0  0  0999 V2000
    7.0800   -3.3010   19.3240 C   0  0  0  0  0  0  0  0  0  0  0  0
    6.3770   -4.1140   20.3090 C   0  0  0  0  0  0  0  0  0  0  0  0
    5.3850   -4.7640   19.9650 O   0  0  0  0  0  0  0  0  0  0  0  0
    6.8480   -4.2020   21.6710 N   0  0  0  0  0  0  0  0  0  0  0  0
    6.6560   -5.4370   22.3930 C   0  0  0  0  0  0  0  0  0  0  0  0
    6.1080   -5.1710   23.7730 C   0  0  0  0  0  0  0  0  0  0  0  0
    5.9940   -3.6690   23.9370 C   0  0  0  0  0  0  0  0  0  0  0  0
    5.4240   -3.2900   25.2730 C   0  0  0  0  0  0  0  0  0  0  0  0
    4.1930   -3.2020   25.4170 O   0  0  0  0  0  0  0  0  0  0  0  0
    6.2410   -3.0200   26.4030 N   0  0  0  0  0  0  0  0  0  0  0  0
    6.7430   -1.6700   26.5470 C   0  0  0  0  0  0  0  0  0  0  0  0
    5.5730   -0.7140   26.5910 C   0  0  0  0  0  0  0  0  0  0  0  0
    5.2090   -0.1520   27.8060 C   0  0  0  0  0  0  0  0  0  0  0  0
    4.1400    0.7350   27.8820 C   0  0  0  0  0  0  0  0  0  0  0  0
    3.4340    1.0580   26.7280 N   0  0  0  0  0  0  0  0  0  0  0  0
    3.8160    0.4820   25.5240 C   0  0  0  0  0  0  0  0  0  0  0  0
    4.9290   -0.4620   25.3560 C   0  0  0  0  0  0  0  0  0  0  0  0
    6.1290   -3.8950   27.5450 C   0  0  0  0  0  0  0  0  0  0  0  0
    4.9340   -4.1300   28.1950 C   0  0  2  0  0  0  0  0  0  0  0  0
    4.4330   -3.1930   29.1010 C   0  0  0  0  0  0  0  0  0  0  0  0
    3.7240   -3.8850   30.1450 C   0  0  0  0  0  0  0  0  0  0  0  0
    4.0320   -5.2110   30.0370 C   0  0  0  0  0  0  0  0  0  0  0  0
    4.9160   -5.3240   28.8910 N   0  0  0  0  0  0  0  0  0  0  0  0
    5.9150   -6.3220   28.9010 C   0  0  0  0  0  0  0  0  0  0  0  0
    5.6630   -7.2610   30.0360 C   0  0  0  0  0  0  0  0  0  0  0  0
    7.2700   -2.9420   23.6860 C   0  0  0  0  0  0  0  0  0  0  0  0
    7.6720   -3.1580   22.2370 C   0  0  0  0  0  0  0  0  0  0  0  0
  1  2  1  0
  2  3  2  0
  2  4  1  0
  4  5  1  0
  5  6  1  0
  6  7  1  0
  7  8  1  0
  8  9  2  0
  8 10  1  0
 10 11  1  0
 11 12  1  0
 12 13  2  0
 13 14  1  0
 14 15  2  0
 15 16  1  0
 12 17  1  0
 16 17  2  0
 10 18  1  0
 19 18  1  1
 19 20  1  0
 20 21  1  0
 21 22  1  0
 19 23  1  0
 22 23  1  0
 23 24  1  0
 24 25  1  0
  7 26  1  0
  4 27  1  0
 26 27  1  0
M  END
