piperidine-amides-11860-covalent
     RDKit          3D

 27 29  0  0  0  0  0  0  0  0999 V2000
    7.1020   -3.2760   19.2710 C   0  0  0  0  0  0  0  0  0  0  0  0
    6.3530   -4.0520   20.2560 C   0  0  0  0  0  0  0  0  0  0  0  0
    5.3290   -4.6500   19.9220 O   0  0  0  0  0  0  0  0  0  0  0  0
    6.8260   -4.1600   21.6080 N   0  0  0  0  0  0  0  0  0  0  0  0
    7.7110   -3.1480   22.1450 C   0  0  0  0  0  0  0  0  0  0  0  0
    7.4260   -2.8890   23.5980 C   0  0  0  0  0  0  0  0  0  0  0  0
    6.0630   -3.4800   23.8900 C   0  0  0  0  0  0  0  0  0  0  0  0
    5.6080   -3.2030   25.2850 C   0  0  0  0  0  0  0  0  0  0  0  0
    4.3920   -3.1670   25.5680 O   0  0  0  0  0  0  0  0  0  0  0  0
    6.5520   -2.9650   26.3200 N   0  0  0  0  0  0  0  0  0  0  0  0
    6.0990   -3.1500   27.6860 C   0  0  1  0  0  0  0  0  0  0  0  0
    6.6640   -4.4700   28.1230 C   0  0  0  0  0  0  0  0  0  0  0  0
    5.7160   -5.4000   28.5170 O   0  0  0  0  0  0  0  0  0  0  0  0
    7.9270   -4.8330   28.2020 N   0  0  0  0  0  0  0  0  0  0  0  0
    8.0740   -6.0160   27.6250 C   0  0  0  0  0  0  0  0  0  0  0  0
    9.2460   -6.1320   26.8980 C   0  0  0  0  0  0  0  0  0  0  0  0
    9.2830   -5.1960   25.9130 C   0  0  0  0  0  0  0  0  0  0  0  0
    8.8480   -3.9630   26.5030 C   0  0  0  0  0  0  0  0  0  0  0  0
    8.9290   -3.8810   27.8710 C   0  0  0  0  0  0  0  0  0  0  0  0
    6.2310   -2.2160   28.6880 C   0  0  0  0  0  0  0  0  0  0  0  0
    7.4210   -1.5580   29.0490 C   0  0  0  0  0  0  0  0  0  0  0  0
    7.4940   -0.5750   30.1400 C   0  0  0  0  0  0  0  0  0  0  0  0
    6.3760   -0.2450   30.8680 C   0  0  0  0  0  0  0  0  0  0  0  0
    5.1990   -0.8770   30.5280 C   0  0  0  0  0  0  0  0  0  0  0  0
    5.1350   -1.8760   29.4220 C   0  0  0  0  0  0  0  0  0  0  0  0
    5.9740   -4.9590   23.6720 C   0  0  0  0  0  0  0  0  0  0  0  0
    6.5830   -5.3640   22.3460 C   0  0  0  0  0  0  0  0  0  0  0  0
  1  2  1  0
  2  3  2  0
  2  4  1  0
  4  5  1  0
  5  6  1  0
  6  7  1  0
  7  8  1  0
  8  9  2  0
  8 10  1  0
 11 10  1  6
 11 12  1  0
 12 13  2  0
 12 14  1  0
 14 15  1  0
 15 16  1  0
 16 17  1  0
 17 18  1  0
 14 19  1  0
 18 19  1  0
 11 20  1  0
 20 21  2  0
 21 22  1  0
 22 23  2  0
 23 24  1  0
 20 25  1  0
 24 25  2  0
  7 26  1  0
  4 27  1  0
 26 27  1  0
M  END
