piperidine-amides-13577-covalent
     RDKit          3D

 21 22  0  0  0  0  0  0  0  0999 V2000
    7.0460   -3.3080   19.2830 C   0  0  0  0  0  0  0  0  0  0  0  0
    6.3200   -4.1300   20.2930 C   0  0  0  0  0  0  0  0  0  0  0  0
    5.3130   -4.7650   19.9480 O   0  0  0  0  0  0  0  0  0  0  0  0
    6.8180   -4.2030   21.6050 N   0  0  0  0  0  0  0  0  0  0  0  0
    6.7520   -5.4450   22.3510 C   0  0  0  0  0  0  0  0  0  0  0  0
    6.0980   -5.1810   23.7120 C   0  0  0  0  0  0  0  0  0  0  0  0
    6.1520   -3.7200   23.9990 C   0  0  0  0  0  0  0  0  0  0  0  0
    5.6940   -3.3850   25.3650 C   0  0  0  0  0  0  0  0  0  0  0  0
    4.5500   -3.7570   25.6500 O   0  0  0  0  0  0  0  0  0  0  0  0
    6.5100   -2.6680   26.2630 N   0  0  0  0  0  0  0  0  0  0  0  0
    6.3180   -1.3010   26.6560 C   0  0  0  0  0  0  0  0  0  0  0  0
    6.1890   -0.1160   27.2000 C   0  0  0  0  0  0  0  0  0  0  0  0
    6.0970   -0.8490   25.9700 N   0  0  0  0  0  0  0  0  0  0  0  0
    5.7680   -0.4340   24.6780 C   0  0  0  0  0  0  0  0  0  0  0  0
    6.4600   -2.1200   26.5380 N   0  0  0  0  0  0  0  0  0  0  0  0
    6.6440   -1.7920   27.8460 C   0  0  0  0  0  0  0  0  0  0  0  0
    6.5020   -0.4770   28.5350 C   0  0  0  0  0  0  0  0  0  0  0  0
    7.2090   -0.3060   29.7120 F   0  0  0  0  0  0  0  0  0  0  0  0
    5.1660   -0.3670   28.9050 F   0  0  0  0  0  0  0  0  0  0  0  0
    7.5140   -3.1770   23.6510 C   0  0  0  0  0  0  0  0  0  0  0  0
    7.6270   -3.1520   22.1440 C   0  0  0  0  0  0  0  0  0  0  0  0
  1  2  1  0
  2  3  2  0
  2  4  1  0
  4  5  1  0
  5  6  1  0
  6  7  1  0
  7  8  1  0
  8  9  2  0
  8 10  1  0
 10 11  1  0
 11 12  2  0
 12 13  1  0
 13 14  1  0
 13 15  1  0
 11 16  1  0
 15 16  2  0
 16 17  1  0
 17 18  1  0
 17 19  1  0
  7 20  1  0
  4 21  1  0
 20 21  1  0
M  END
