piperidine-amides-24872-covalent
     RDKit          3D

 24 26  0  0  0  0  0  0  0  0999 V2000
    7.1040   -3.3570   19.3940 C   0  0  0  0  0  0  0  0  0  0  0  0
    6.4040   -4.2190   20.3520 C   0  0  0  0  0  0  0  0  0  0  0  0
    5.3930   -4.8650   19.9920 O   0  0  0  0  0  0  0  0  0  0  0  0
    6.9020   -4.3540   21.6570 N   0  0  0  0  0  0  0  0  0  0  0  0
    6.6340   -5.5870   22.3840 C   0  0  0  0  0  0  0  0  0  0  0  0
    6.3640   -5.2320   23.8610 C   0  0  0  0  0  0  0  0  0  0  0  0
    6.2540   -3.7280   23.9080 C   0  0  0  0  0  0  0  0  0  0  0  0
    5.8290   -3.1720   25.2020 C   0  0  0  0  0  0  0  0  0  0  0  0
    5.3830   -2.0120   25.1940 O   0  0  0  0  0  0  0  0  0  0  0  0
    5.8460   -3.8890   26.4060 N   0  0  0  0  0  0  0  0  0  0  0  0
    4.5360   -4.0000   26.9740 C   0  0  0  0  0  0  0  0  0  0  0  0
    4.4890   -5.1550   27.9300 C   0  0  0  0  0  0  0  0  0  0  0  0
    5.2540   -5.0250   28.9980 C   0  0  0  0  0  0  0  0  0  0  0  0
    6.4640   -4.6230   28.6240 C   0  0  0  0  0  0  0  0  0  0  0  0
    6.2790   -3.5370   27.7490 C   0  0  0  0  0  0  0  0  0  0  0  0
    4.9180   -5.7590   30.0790 C   0  0  2  0  0  0  0  0  0  0  0  0
    4.4480   -6.8490   29.4270 O   0  0  0  0  0  0  0  0  0  0  0  0
    3.8380   -5.1420   30.9460 C   0  0  0  0  0  0  0  0  0  0  0  0
    4.5220   -4.2530   29.8610 C   0  0  1  0  0  0  0  0  0  0  0  0
    5.0860   -3.1650   30.2440 O   0  0  0  0  0  0  0  0  0  0  0  0
    5.0920   -1.9450   29.5270 C   0  0  0  0  0  0  0  0  0  0  0  0
    6.4740   -1.4460   29.4240 C   0  0  0  0  0  0  0  0  0  0  0  0
    7.5640   -3.1500   23.5230 C   0  0  0  0  0  0  0  0  0  0  0  0
    7.7170   -3.3000   22.1900 C   0  0  0  0  0  0  0  0  0  0  0  0
  1  2  1  0
  2  3  2  0
  2  4  1  0
  4  5  1  0
  5  6  1  0
  6  7  1  0
  7  8  1  0
  8  9  2  0
  8 10  1  0
 10 11  1  0
 11 12  1  0
 13 12  1  0
 13 14  1  0
 10 15  1  0
 14 15  1  0
 13 16  1  0
 16 17  1  6
 16 18  1  0
 13 19  1  0
 18 19  1  0
 19 20  1  1
 20 21  1  0
 21 22  1  0
  7 23  1  0
  4 24  1  0
 23 24  1  0
M  END
