piperidine-amides-13826-covalent
     RDKit          3D

 26 26  0  0  0  0  0  0  0  0999 V2000
    7.1260   -3.2760   19.2200 C   0  0  0  0  0  0  0  0  0  0  0  0
    6.3710   -4.0710   20.2240 C   0  0  0  0  0  0  0  0  0  0  0  0
    5.2920   -4.5900   19.8970 O   0  0  0  0  0  0  0  0  0  0  0  0
    6.9320   -4.2660   21.5000 N   0  0  0  0  0  0  0  0  0  0  0  0
    7.6480   -3.2180   22.1710 C   0  0  0  0  0  0  0  0  0  0  0  0
    6.6950   -2.6880   23.2410 C   0  0  0  0  0  0  0  0  0  0  0  0
    6.4290   -3.7970   24.2070 C   0  0  0  0  0  0  0  0  0  0  0  0
    5.7770   -3.2700   25.4290 C   0  0  0  0  0  0  0  0  0  0  0  0
    4.5620   -3.0620   25.3430 O   0  0  0  0  0  0  0  0  0  0  0  0
    6.5190   -3.0290   26.5850 N   0  0  0  0  0  0  0  0  0  0  0  0
    6.2700   -3.5140   27.9020 C   0  0  0  0  0  0  0  0  0  0  0  0
    6.3450   -4.8320   28.2980 C   0  0  0  0  0  0  0  0  0  0  0  0
    5.3130   -5.4080   29.0520 C   0  0  0  0  0  0  0  0  0  0  0  0
    4.0130   -5.0100   28.7740 O   0  0  0  0  0  0  0  0  0  0  0  0
    3.1910   -4.2520   29.6040 C   0  0  0  0  0  0  0  0  0  0  0  0
    3.2640   -4.5440   31.0600 C   0  0  0  0  0  0  0  0  0  0  0  0
    2.0740   -4.6990   31.7630 O   0  0  0  0  0  0  0  0  0  0  0  0
    0.8470   -5.0540   31.1410 C   0  0  0  0  0  0  0  0  0  0  0  0
    0.8970   -6.4860   30.5950 C   0  0  0  0  0  0  0  0  0  0  0  0
    0.7730   -7.6310   31.3080 O   0  0  0  0  0  0  0  0  0  0  0  0
    1.3570   -8.8400   31.2240 C   0  0  0  0  0  0  0  0  0  0  0  0
    0.4000   -9.8860   30.7900 C   0  0  0  0  0  0  0  0  0  0  0  0
   -0.4550  -10.1870   31.8720 O   0  0  0  0  0  0  0  0  0  0  0  0
   -1.0970   -9.1050   32.5220 C   0  0  0  0  0  0  0  0  0  0  0  0
    5.6850   -4.8570   23.5050 C   0  0  0  0  0  0  0  0  0  0  0  0
    6.4950   -5.3670   22.2980 C   0  0  0  0  0  0  0  0  0  0  0  0
  1  2  1  0
  2  3  2  0
  2  4  1  0
  4  5  1  0
  5  6  1  0
  6  7  1  0
  7  8  1  0
  8  9  2  0
  8 10  1  0
 10 11  1  0
 11 12  1  0
 12 13  1  0
 13 14  1  0
 14 15  1  0
 15 16  1  0
 16 17  1  0
 17 18  1  0
 18 19  1  0
 19 20  1  0
 20 21  1  0
 21 22  1  0
 22 23  1  0
 23 24  1  0
  7 25  1  0
  4 26  1  0
 25 26  1  0
M  END
