piperidine-amides-33147-covalent
     RDKit          3D

 30 33  0  0  0  0  0  0  0  0999 V2000
    7.0810   -3.3280   19.2800 C   0  0  0  0  0  0  0  0  0  0  0  0
    6.3990   -4.1350   20.3040 C   0  0  0  0  0  0  0  0  0  0  0  0
    5.3430   -4.7130   19.9490 O   0  0  0  0  0  0  0  0  0  0  0  0
    6.9370   -4.3010   21.6040 N   0  0  0  0  0  0  0  0  0  0  0  0
    6.6190   -5.4880   22.3190 C   0  0  0  0  0  0  0  0  0  0  0  0
    6.1250   -5.2260   23.6580 C   0  0  0  0  0  0  0  0  0  0  0  0
    6.1130   -3.7970   24.0120 C   0  0  0  0  0  0  0  0  0  0  0  0
    5.6740   -3.5720   25.4240 C   0  0  0  0  0  0  0  0  0  0  0  0
    4.6100   -4.0950   25.7940 O   0  0  0  0  0  0  0  0  0  0  0  0
    6.3640   -2.7660   26.3450 N   0  0  0  0  0  0  0  0  0  0  0  0
    6.9730   -3.2260   27.5330 C   0  0  0  0  0  0  0  0  0  0  0  0
    6.8810   -2.2960   28.6530 C   0  0  0  0  0  0  0  0  0  0  0  0
    5.4950   -2.2630   29.2280 C   0  0  0  0  0  0  0  0  0  0  0  0
    5.1370   -1.4680   30.2690 C   0  0  0  0  0  0  0  0  0  0  0  0
    6.1980   -0.5420   30.9070 C   0  0  0  0  0  0  0  0  0  0  0  0
    7.6210   -0.5580   30.3490 C   0  0  0  0  0  0  0  0  0  0  0  0
    7.9680   -1.4920   29.1540 C   0  0  0  0  0  0  0  0  0  0  0  0
    5.9920   -1.4240   26.6330 C   0  0  0  0  0  0  0  0  0  0  0  0
    4.6220   -1.3380   26.9680 N   0  0  0  0  0  0  0  0  0  0  0  0
    4.3480   -0.0740   27.2270 C   0  0  0  0  0  0  0  0  0  0  0  0
    2.9880    0.5120   27.6400 C   0  0  0  0  0  0  0  0  0  0  0  0
    2.9900    1.9960   27.8700 C   0  0  0  0  0  0  0  0  0  0  0  0
    1.9200    2.5630   28.2110 O   0  0  0  0  0  0  0  0  0  0  0  0
    1.6830    3.8770   27.7590 C   0  0  0  0  0  0  0  0  0  0  0  0
    4.1640    2.7270   27.7050 C   0  0  0  0  0  0  0  0  0  0  0  0
    5.4420    2.0400   27.2950 C   0  0  0  0  0  0  0  0  0  0  0  0
    5.4990    0.6880   27.0720 C   0  0  0  0  0  0  0  0  0  0  0  0
    6.4950   -0.1640   26.7050 N   0  0  0  0  0  0  0  0  0  0  0  0
    7.4790   -3.2270   23.7080 C   0  0  0  0  0  0  0  0  0  0  0  0
    7.7240   -3.2400   22.2090 C   0  0  0  0  0  0  0  0  0  0  0  0
  1  2  1  0
  2  3  2  0
  2  4  1  0
  4  5  1  0
  5  6  1  0
  6  7  1  0
  7  8  1  0
  8  9  2  0
  8 10  1  0
 10 11  1  0
 11 12  1  0
 12 13  2  0
 13 14  1  0
 14 15  2  0
 15 16  1  0
 12 17  1  0
 16 17  2  0
 10 18  1  0
 18 19  2  0
 19 20  1  0
 20 21  2  0
 21 22  1  0
 22 23  1  0
 23 24  1  0
 22 25  2  0
 25 26  1  0
 20 27  1  0
 26 27  2  0
 18 28  1  0
 27 28  1  0
  7 29  1  0
  4 30  1  0
 29 30  1  0
M  END
