piperidine-amides-33169-covalent
     RDKit          3D

 30 33  0  0  0  0  0  0  0  0999 V2000
    7.1290   -3.2710   19.2580 C   0  0  0  0  0  0  0  0  0  0  0  0
    6.4090   -4.0460   20.2850 C   0  0  0  0  0  0  0  0  0  0  0  0
    5.3370   -4.5920   19.9140 O   0  0  0  0  0  0  0  0  0  0  0  0
    6.9120   -4.2230   21.6070 N   0  0  0  0  0  0  0  0  0  0  0  0
    7.6940   -3.1760   22.2020 C   0  0  0  0  0  0  0  0  0  0  0  0
    7.3380   -2.9120   23.5900 C   0  0  0  0  0  0  0  0  0  0  0  0
    6.1170   -3.6360   23.9700 C   0  0  0  0  0  0  0  0  0  0  0  0
    5.5580   -3.3840   25.3470 C   0  0  0  0  0  0  0  0  0  0  0  0
    4.3550   -3.6550   25.5110 O   0  0  0  0  0  0  0  0  0  0  0  0
    6.2590   -2.8470   26.4550 N   0  0  0  0  0  0  0  0  0  0  0  0
    6.6420   -1.4820   26.5160 C   0  0  0  0  0  0  0  0  0  0  0  0
    5.6140   -0.4350   26.5460 C   0  0  0  0  0  0  0  0  0  0  0  0
    4.2330   -1.0210   26.5630 C   0  0  0  0  0  0  0  0  0  0  0  0
    3.1020   -0.2700   26.5910 C   0  0  0  0  0  0  0  0  0  0  0  0
    3.2180    1.2710   26.6090 C   0  0  0  0  0  0  0  0  0  0  0  0
    4.6070    1.9060   26.5930 C   0  0  0  0  0  0  0  0  0  0  0  0
    5.8670    0.9980   26.5610 C   0  0  0  0  0  0  0  0  0  0  0  0
    6.1520   -3.3160   27.8060 C   0  0  0  0  0  0  0  0  0  0  0  0
    4.8420   -3.9800   28.2000 C   0  0  2  0  0  0  0  0  0  0  0  0
    4.1300   -4.4900   27.2990 O   0  0  0  0  0  0  0  0  0  0  0  0
    3.9830   -3.1130   29.1710 C   0  0  0  0  0  0  0  0  0  0  0  0
    3.5810   -3.9680   30.3010 C   0  0  0  0  0  0  0  0  0  0  0  0
    4.3220   -5.1100   30.2270 C   0  0  0  0  0  0  0  0  0  0  0  0
    4.3260   -6.0790   31.2160 C   0  0  0  0  0  0  0  0  0  0  0  0
    5.1590   -7.3370   31.1200 C   0  0  0  0  0  0  0  0  0  0  0  0
    5.9470   -7.5230   29.9960 C   0  0  0  0  0  0  0  0  0  0  0  0
    5.9470   -6.4620   28.9110 C   0  0  0  0  0  0  0  0  0  0  0  0
    5.0920   -5.2200   29.0600 C   0  0  0  0  0  0  0  0  0  0  0  0
    6.3470   -5.1400   23.8060 C   0  0  0  0  0  0  0  0  0  0  0  0
    6.5520   -5.4480   22.3080 C   0  0  0  0  0  0  0  0  0  0  0  0
  1  2  1  0
  2  3  2  0
  2  4  1  0
  4  5  1  0
  5  6  1  0
  6  7  1  0
  7  8  1  0
  8  9  2  0
  8 10  1  0
 10 11  1  0
 11 12  1  0
 12 13  2  0
 13 14  1  0
 14 15  2  0
 15 16  1  0
 12 17  1  0
 16 17  2  0
 10 18  1  0
 18 19  1  0
 19 20  1  6
 19 21  1  0
 21 22  1  0
 22 23  1  0
 23 24  1  0
 24 25  2  0
 25 26  1  0
 26 27  2  0
 19 28  1  0
 23 28  2  0
 27 28  1  0
  7 29  1  0
  4 30  1  0
 29 30  1  0
M  END
