piperidine-amides-5109-covalent
     RDKit          3D

 22 23  0  0  0  0  0  0  0  0999 V2000
    7.0770   -3.3080   19.2040 C   0  0  0  0  0  0  0  0  0  0  0  0
    6.3630   -4.0800   20.2470 C   0  0  0  0  0  0  0  0  0  0  0  0
    5.2890   -4.6080   19.9040 O   0  0  0  0  0  0  0  0  0  0  0  0
    6.9100   -4.2550   21.5290 N   0  0  0  0  0  0  0  0  0  0  0  0
    7.6250   -3.1820   22.1430 C   0  0  0  0  0  0  0  0  0  0  0  0
    7.1230   -2.7820   23.4550 C   0  0  0  0  0  0  0  0  0  0  0  0
    6.4900   -3.8610   24.2320 C   0  0  0  0  0  0  0  0  0  0  0  0
    5.7150   -3.2600   25.3460 C   0  0  0  0  0  0  0  0  0  0  0  0
    4.4770   -3.1690   25.2290 O   0  0  0  0  0  0  0  0  0  0  0  0
    6.3630   -2.8080   26.5060 N   0  0  0  0  0  0  0  0  0  0  0  0
    6.2910   -1.4100   26.9960 C   0  0  0  0  0  0  0  0  0  0  0  0
    5.8310   -0.2760   26.1850 C   0  0  0  0  0  0  0  0  0  0  0  0
    5.7980    1.0590   26.7740 C   0  0  0  0  0  0  0  0  0  0  0  0
    5.3840    2.1800   26.0960 C   0  0  0  0  0  0  0  0  0  0  0  0
    4.1850    2.0640   25.4130 C   0  0  0  0  0  0  0  0  0  0  0  0
    6.3450    2.4910   25.0050 C   0  0  0  0  0  0  0  0  0  0  0  0
    6.2110    1.1700   28.0790 C   0  0  0  0  0  0  0  0  0  0  0  0
    6.6520    0.1680   28.8990 C   0  0  0  0  0  0  0  0  0  0  0  0
    6.6890   -1.1100   28.3610 C   0  0  0  0  0  0  0  0  0  0  0  0
    7.1190   -2.2730   29.0870 C   0  0  0  0  0  0  0  0  0  0  0  0
    5.6490   -4.8040   23.4440 C   0  0  0  0  0  0  0  0  0  0  0  0
    6.5090   -5.3690   22.3540 C   0  0  0  0  0  0  0  0  0  0  0  0
  1  2  1  0
  2  3  2  0
  2  4  1  0
  4  5  1  0
  5  6  1  0
  6  7  1  0
  7  8  1  0
  8  9  2  0
  8 10  1  0
 10 11  1  0
 11 12  2  0
 12 13  1  0
 13 14  1  0
 14 15  1  0
 14 16  1  0
 13 17  2  0
 17 18  1  0
 11 19  1  0
 18 19  2  0
 19 20  1  0
  7 21  1  0
  4 22  1  0
 21 22  1  0
M  END
