piperidine-amides-5601-covalent
     RDKit          3D

 18 19  0  0  0  0  0  0  0  0999 V2000
    7.0340   -3.3410   19.3520 C   0  0  0  0  0  0  0  0  0  0  0  0
    6.3560   -4.1680   20.3530 C   0  0  0  0  0  0  0  0  0  0  0  0
    5.3920   -4.8630   19.9890 O   0  0  0  0  0  0  0  0  0  0  0  0
    6.7960   -4.2290   21.6920 N   0  0  0  0  0  0  0  0  0  0  0  0
    7.7360   -3.2490   22.2190 C   0  0  0  0  0  0  0  0  0  0  0  0
    7.3430   -2.9390   23.6410 C   0  0  0  0  0  0  0  0  0  0  0  0
    6.0840   -3.6400   24.0160 C   0  0  0  0  0  0  0  0  0  0  0  0
    5.6200   -3.3160   25.3930 C   0  0  0  0  0  0  0  0  0  0  0  0
    4.3780   -3.2610   25.6460 O   0  0  0  0  0  0  0  0  0  0  0  0
    6.4830   -3.0540   26.4840 N   0  0  0  0  0  0  0  0  0  0  0  0
    6.4440   -1.7270   27.1520 C   0  0  0  0  0  0  0  0  0  0  0  0
    6.9620   -1.7830   28.5570 C   0  0  0  0  0  0  0  0  0  0  0  0
    6.6800   -0.1440   28.7940 S   0  0  0  0  0  0  0  0  0  0  0  0
    6.0510    0.4220   27.3680 N   0  0  0  0  0  0  0  0  0  0  0  0
    5.8880   -0.5260   26.3300 C   0  0  0  0  0  0  0  0  0  0  0  0
    5.5320    0.9350   26.2090 C   0  0  0  0  0  0  0  0  0  0  0  0
    6.0390   -5.0970   23.7180 C   0  0  0  0  0  0  0  0  0  0  0  0
    6.6890   -5.4570   22.4320 C   0  0  0  0  0  0  0  0  0  0  0  0
  1  2  1  0
  2  3  2  0
  2  4  1  0
  4  5  1  0
  5  6  1  0
  6  7  1  0
  7  8  1  0
  8  9  2  0
  8 10  1  0
 10 11  1  0
 11 12  2  0
 12 13  1  0
 13 14  1  0
 11 15  1  0
 14 15  2  0
 15 16  1  0
  7 17  1  0
  4 18  1  0
 17 18  1  0
M  END
