piperidine-amides-25751-covalent
     RDKit          3D

 25 27  0  0  0  0  0  0  0  0999 V2000
    7.0330   -3.3550   19.3700 C   0  0  0  0  0  0  0  0  0  0  0  0
    6.3780   -4.2310   20.3770 C   0  0  0  0  0  0  0  0  0  0  0  0
    5.4000   -4.8680   19.9940 O   0  0  0  0  0  0  0  0  0  0  0  0
    6.8950   -4.3410   21.6800 N   0  0  0  0  0  0  0  0  0  0  0  0
    6.7410   -5.5650   22.4450 C   0  0  0  0  0  0  0  0  0  0  0  0
    6.2440   -5.2410   23.8270 C   0  0  0  0  0  0  0  0  0  0  0  0
    6.2580   -3.7290   23.9600 C   0  0  0  0  0  0  0  0  0  0  0  0
    5.8370   -3.2590   25.3020 C   0  0  0  0  0  0  0  0  0  0  0  0
    5.0510   -2.3050   25.3350 O   0  0  0  0  0  0  0  0  0  0  0  0
    6.2160   -3.8220   26.5420 N   0  0  0  0  0  0  0  0  0  0  0  0
    7.6080   -3.7510   27.0240 C   0  0  0  0  0  0  0  0  0  0  0  0
    7.9730   -4.8430   28.0530 C   0  0  0  0  0  0  0  0  0  0  0  0
    6.9020   -5.2120   28.8370 O   0  0  0  0  0  0  0  0  0  0  0  0
    5.7150   -5.1190   28.3200 C   0  0  0  0  0  0  0  0  0  0  0  0
    5.5200   -6.0270   27.3260 C   0  0  0  0  0  0  0  0  0  0  0  0
    4.7810   -5.4260   29.4830 C   0  0  0  0  0  0  0  0  0  0  0  0
    5.5310   -3.7390   27.8230 C   0  0  1  0  0  0  0  0  0  0  0  0
    6.0720   -2.6200   28.6770 C   0  0  0  0  0  0  0  0  0  0  0  0
    4.8480   -2.0390   29.3580 C   0  0  0  0  0  0  0  0  0  0  0  0
    5.1300   -0.9020   30.2790 C   0  0  0  0  0  0  0  0  0  0  0  0
    6.5180   -0.4150   30.4790 C   0  0  0  0  0  0  0  0  0  0  0  0
    7.6690   -1.0620   29.7540 C   0  0  0  0  0  0  0  0  0  0  0  0
    7.3900   -2.1960   28.8310 C   0  0  0  0  0  0  0  0  0  0  0  0
    7.6180   -3.1860   23.5900 C   0  0  0  0  0  0  0  0  0  0  0  0
    7.7580   -3.2810   22.2190 C   0  0  0  0  0  0  0  0  0  0  0  0
  1  2  1  0
  2  3  2  0
  2  4  1  0
  4  5  1  0
  5  6  1  0
  6  7  1  0
  7  8  1  0
  8  9  2  0
  8 10  1  0
 10 11  1  0
 11 12  1  0
 12 13  1  0
 13 14  1  0
 14 15  1  0
 14 16  1  0
 10 17  1  0
 14 17  1  0
 17 18  1  1
 18 19  2  0
 19 20  1  0
 20 21  2  0
 21 22  1  0
 18 23  1  0
 22 23  2  0
  7 24  1  0
  4 25  1  0
 24 25  1  0
M  END
