piperidine-amides-1735-covalent
     RDKit          3D

 20 21  0  0  0  0  0  0  0  0999 V2000
    7.1250   -3.2530   19.1870 C   0  0  0  0  0  0  0  0  0  0  0  0
    6.3510   -4.0070   20.2130 C   0  0  0  0  0  0  0  0  0  0  0  0
    5.2820   -4.5460   19.8830 O   0  0  0  0  0  0  0  0  0  0  0  0
    6.8740   -4.1390   21.5190 N   0  0  0  0  0  0  0  0  0  0  0  0
    7.7410   -3.1480   22.1250 C   0  0  0  0  0  0  0  0  0  0  0  0
    7.0660   -2.6170   23.3960 C   0  0  0  0  0  0  0  0  0  0  0  0
    6.4610   -3.7790   24.1040 C   0  0  0  0  0  0  0  0  0  0  0  0
    5.7260   -3.4000   25.3380 C   0  0  0  0  0  0  0  0  0  0  0  0
    4.6150   -2.8800   25.1820 O   0  0  0  0  0  0  0  0  0  0  0  0
    6.2880   -3.6280   26.6050 N   0  0  0  0  0  0  0  0  0  0  0  0
    5.8520   -4.5540   27.6000 C   0  0  2  0  0  0  0  0  0  0  0  0
    6.6670   -5.2950   28.4310 C   0  0  0  0  0  0  0  0  0  0  0  0
    5.7640   -5.8400   29.4320 O   0  0  0  0  0  0  0  0  0  0  0  0
    4.9850   -5.6270   26.9440 C   0  0  0  0  0  0  0  0  0  0  0  0
    4.0020   -6.2980   27.6450 C   0  0  0  0  0  0  0  0  0  0  0  0
    3.2180   -7.3180   26.9300 C   0  0  0  0  0  0  0  0  0  0  0  0
    3.9050   -7.2690   25.3150 S   0  0  0  0  0  0  0  0  0  0  0  0
    5.1130   -6.0130   25.6140 C   0  0  0  0  0  0  0  0  0  0  0  0
    5.5460   -4.6170   23.2570 C   0  0  0  0  0  0  0  0  0  0  0  0
    6.3710   -5.2040   22.3290 C   0  0  0  0  0  0  0  0  0  0  0  0
  1  2  1  0
  2  3  2  0
  2  4  1  0
  4  5  1  0
  5  6  1  0
  6  7  1  0
  7  8  1  0
  8  9  2  0
  8 10  1  0
 10 11  1  0
 11 12  1  6
 12 13  1  0
 11 14  1  0
 14 15  1  0
 15 16  2  0
 16 17  1  0
 14 18  2  0
 17 18  1  0
  7 19  1  0
  4 20  1  0
 19 20  1  0
M  END
