piperidine-amides-31508-covalent
     RDKit          3D

 28 30  0  0  0  0  0  0  0  0999 V2000
    7.0410   -3.3360   19.2460 C   0  0  0  0  0  0  0  0  0  0  0  0
    6.3190   -4.0740   20.2580 C   0  0  0  0  0  0  0  0  0  0  0  0
    5.2370   -4.6230   19.9070 O   0  0  0  0  0  0  0  0  0  0  0  0
    6.7780   -4.2630   21.5730 N   0  0  0  0  0  0  0  0  0  0  0  0
    7.4810   -3.1440   22.2340 C   0  0  0  0  0  0  0  0  0  0  0  0
    6.3030   -2.6300   23.1410 C   0  0  0  0  0  0  0  0  0  0  0  0
    6.0680   -3.7740   24.1000 C   0  0  0  0  0  0  0  0  0  0  0  0
    5.0810   -3.3800   25.2970 C   0  0  0  0  0  0  0  0  0  0  0  0
    3.9870   -3.8820   25.1090 O   0  0  0  0  0  0  0  0  0  0  0  0
    5.6560   -2.6350   26.1620 N   0  0  0  0  0  0  0  0  0  0  0  0
    5.9960   -1.4830   26.8050 C   0  0  0  0  0  0  0  0  0  0  0  0
    6.2730   -3.5230   27.0520 C   0  0  0  0  0  0  0  0  0  0  0  0
    7.5570   -3.8810   26.6730 C   0  0  0  0  0  0  0  0  0  0  0  0
    8.0530   -2.9420   25.6420 C   0  0  0  0  0  0  0  0  0  0  0  0
    7.5730   -1.7330   25.1280 N   0  0  0  0  0  0  0  0  0  0  0  0
    8.6240   -1.4980   24.1750 C   0  0  0  0  0  0  0  0  0  0  0  0
    8.6300   -0.3670   23.3450 C   0  0  0  0  0  0  0  0  0  0  0  0
    9.5680    0.0870   22.3170 C   0  0  0  0  0  0  0  0  0  0  0  0
   10.6300   -1.0900   22.3850 C   0  0  0  0  0  0  0  0  0  0  0  0
   10.5680   -2.3190   23.3270 C   0  0  0  0  0  0  0  0  0  0  0  0
    9.5730   -2.4400   24.1550 C   0  0  0  0  0  0  0  0  0  0  0  0
    9.1660   -3.3760   25.1310 N   0  0  0  0  0  0  0  0  0  0  0  0
    9.7930   -4.4690   25.4310 C   0  0  0  0  0  0  0  0  0  0  0  0
   10.3360   -4.6140   26.5800 C   0  0  0  0  0  0  0  0  0  0  0  0
   11.7020   -4.3810   26.4250 O   0  0  0  0  0  0  0  0  0  0  0  0
   12.1110   -3.3490   25.5060 C   0  0  0  0  0  0  0  0  0  0  0  0
    5.6570   -5.0820   23.4970 C   0  0  0  0  0  0  0  0  0  0  0  0
    6.4600   -5.4760   22.2860 C   0  0  0  0  0  0  0  0  0  0  0  0
  1  2  1  0
  2  3  2  0
  2  4  1  0
  4  5  1  0
  5  6  1  0
  6  7  1  0
  7  8  1  0
  8  9  2  0
  8 10  1  0
 10 11  1  0
 10 12  1  0
 12 13  1  0
 13 14  1  0
 14 15  2  0
 15 16  1  0
 16 17  2  0
 17 18  1  0
 18 19  2  0
 19 20  1  0
 16 21  1  0
 20 21  2  0
 14 22  1  0
 21 22  1  0
 22 23  1  0
 23 24  1  0
 24 25  1  0
 25 26  1  0
  7 27  1  0
  4 28  1  0
 27 28  1  0
M  END
