piperidine-amides-11326-covalent
     RDKit          3D

 17 17  0  0  0  0  0  0  0  0999 V2000
    7.0850   -3.2720   19.2240 C   0  0  0  0  0  0  0  0  0  0  0  0
    6.3290   -4.0200   20.2290 C   0  0  0  0  0  0  0  0  0  0  0  0
    5.2780   -4.5860   19.8930 O   0  0  0  0  0  0  0  0  0  0  0  0
    6.7860   -4.1620   21.5490 N   0  0  0  0  0  0  0  0  0  0  0  0
    7.7000   -3.2090   22.1580 C   0  0  0  0  0  0  0  0  0  0  0  0
    7.1650   -2.8320   23.5220 C   0  0  0  0  0  0  0  0  0  0  0  0
    5.9760   -3.6550   23.9290 C   0  0  0  0  0  0  0  0  0  0  0  0
    5.5700   -3.3880   25.3300 C   0  0  0  0  0  0  0  0  0  0  0  0
    4.3450   -3.2990   25.6270 O   0  0  0  0  0  0  0  0  0  0  0  0
    6.4920   -3.2160   26.3800 N   0  0  0  0  0  0  0  0  0  0  0  0
    6.7120   -4.2670   27.3990 C   0  0  1  0  0  0  0  0  0  0  0  0
    6.0490   -5.5240   27.0060 C   0  0  0  0  0  0  0  0  0  0  0  0
    8.2040   -4.5130   27.4710 C   0  0  2  0  0  0  0  0  0  0  0  0
    8.4010   -5.9970   27.4820 C   0  0  0  0  0  0  0  0  0  0  0  0
    8.5620   -4.0650   28.5610 O   0  0  0  0  0  0  0  0  0  0  0  0
    6.0520   -5.1010   23.6140 C   0  0  0  0  0  0  0  0  0  0  0  0
    6.5800   -5.3820   22.2680 C   0  0  0  0  0  0  0  0  0  0  0  0
  1  2  1  0
  2  3  2  0
  2  4  1  0
  4  5  1  0
  5  6  1  0
  6  7  1  0
  7  8  1  0
  8  9  2  0
  8 10  1  0
 10 11  1  0
 11 12  1  6
 11 13  1  0
 13 14  1  1
 13 15  1  0
  7 16  1  0
  4 17  1  0
 16 17  1  0
M  END
