piperidine-amides-34359-covalent
     RDKit          3D

 31 33  0  0  0  0  0  0  0  0999 V2000
    7.0720   -3.3090   19.2910 C   0  0  0  0  0  0  0  0  0  0  0  0
    6.4090   -4.1270   20.3180 C   0  0  0  0  0  0  0  0  0  0  0  0
    5.4210   -4.8280   19.9930 O   0  0  0  0  0  0  0  0  0  0  0  0
    6.9000   -4.1680   21.6430 N   0  0  0  0  0  0  0  0  0  0  0  0
    7.7180   -3.0780   22.1610 C   0  0  0  0  0  0  0  0  0  0  0  0
    7.4590   -2.9550   23.6770 C   0  0  0  0  0  0  0  0  0  0  0  0
    6.1070   -3.5890   23.8860 C   0  0  0  0  0  0  0  0  0  0  0  0
    5.4910   -3.2770   25.2130 C   0  0  0  0  0  0  0  0  0  0  0  0
    4.2600   -3.0630   25.2090 O   0  0  0  0  0  0  0  0  0  0  0  0
    6.2100   -3.2020   26.4400 N   0  0  0  0  0  0  0  0  0  0  0  0
    6.2900   -1.8960   27.0900 C   0  0  0  0  0  0  0  0  0  0  0  0
    7.0120   -1.7200   28.3950 C   0  0  0  0  0  0  0  0  0  0  0  0
    7.0440   -0.4840   28.9630 C   0  0  0  0  0  0  0  0  0  0  0  0
    6.4510    0.6340   28.4140 C   0  0  0  0  0  0  0  0  0  0  0  0
    5.7350    0.6630   27.1980 C   0  0  0  0  0  0  0  0  0  0  0  0
    5.1880    1.8150   26.7410 O   0  0  0  0  0  0  0  0  0  0  0  0
    4.4400    1.9110   25.5930 C   0  0  0  0  0  0  0  0  0  0  0  0
    5.6650   -0.7130   26.5050 C   0  0  0  0  0  0  0  0  0  0  0  0
    6.0930   -4.2070   27.5060 C   0  0  0  0  0  0  0  0  0  0  0  0
    6.5960   -4.1750   28.8540 N   0  0  0  0  0  0  0  0  0  0  0  0
    6.2950   -5.2740   29.5160 N   0  0  0  0  0  0  0  0  0  0  0  0
    5.5380   -6.1440   28.6030 C   0  0  0  0  0  0  0  0  0  0  0  0
    4.9470   -7.4740   28.7580 C   0  0  0  0  0  0  0  0  0  0  0  0
    5.4080   -5.4740   27.3560 C   0  0  0  0  0  0  0  0  0  0  0  0
    4.7490   -6.0130   26.2940 C   0  0  0  0  0  0  0  0  0  0  0  0
    5.2720   -6.1650   25.2010 O   0  0  0  0  0  0  0  0  0  0  0  0
    3.4890   -6.3640   26.5810 N   0  0  0  0  0  0  0  0  0  0  0  0
    2.5550   -5.5470   27.3220 C   0  0  0  0  0  0  0  0  0  0  0  0
    3.0340   -7.5560   26.1150 C   0  0  0  0  0  0  0  0  0  0  0  0
    6.0580   -5.0560   23.6130 C   0  0  0  0  0  0  0  0  0  0  0  0
    6.6380   -5.3650   22.4070 C   0  0  0  0  0  0  0  0  0  0  0  0
  1  2  1  0
  2  3  2  0
  2  4  1  0
  4  5  1  0
  5  6  1  0
  6  7  1  0
  7  8  1  0
  8  9  2  0
  8 10  1  0
 10 11  1  0
 11 12  2  0
 12 13  1  0
 13 14  2  0
 14 15  1  0
 15 16  1  0
 16 17  1  0
 11 18  1  0
 15 18  2  0
 10 19  1  0
 19 20  1  0
 20 21  1  0
 21 22  2  0
 22 23  1  0
 19 24  2  0
 22 24  1  0
 24 25  1  0
 25 26  2  0
 25 27  1  0
 27 28  1  0
 27 29  1  0
  7 30  1  0
  4 31  1  0
 30 31  1  0
M  END
