piperidine-amides-1630-covalent
     RDKit          3D

 21 22  0  0  0  0  0  0  0  0999 V2000
    7.0450   -3.3280   19.3470 C   0  0  0  0  0  0  0  0  0  0  0  0
    6.3520   -4.2020   20.3410 C   0  0  0  0  0  0  0  0  0  0  0  0
    5.3560   -4.8460   19.9750 O   0  0  0  0  0  0  0  0  0  0  0  0
    6.8580   -4.3160   21.6570 N   0  0  0  0  0  0  0  0  0  0  0  0
    6.6520   -5.5260   22.4180 C   0  0  0  0  0  0  0  0  0  0  0  0
    6.0970   -5.1430   23.8000 C   0  0  0  0  0  0  0  0  0  0  0  0
    6.1760   -3.6590   23.9440 C   0  0  0  0  0  0  0  0  0  0  0  0
    5.7900   -3.1660   25.2860 C   0  0  0  0  0  0  0  0  0  0  0  0
    4.6140   -3.3210   25.6320 O   0  0  0  0  0  0  0  0  0  0  0  0
    6.7720   -2.5520   26.0650 N   0  0  0  0  0  0  0  0  0  0  0  0
    6.5920   -1.4630   26.9540 C   0  0  0  0  0  0  0  0  0  0  0  0
    6.9890   -1.4260   28.2820 C   0  0  0  0  0  0  0  0  0  0  0  0
    6.7860   -0.2980   29.1000 C   0  0  0  0  0  0  0  0  0  0  0  0
    7.3290   -0.3460   30.7760 Cl  0  0  0  0  0  0  0  0  0  0  0  0
    6.1780    0.8350   28.6250 C   0  0  0  0  0  0  0  0  0  0  0  0
    5.9310    2.0620   29.4280 C   0  0  0  0  0  0  0  0  0  0  0  0
    5.7360    0.9220   27.3220 C   0  0  0  0  0  0  0  0  0  0  0  0
    4.9520    2.3810   26.7140 Cl  0  0  0  0  0  0  0  0  0  0  0  0
    5.9720   -0.3100   26.4680 C   0  0  0  0  0  0  0  0  0  0  0  0
    7.5910   -3.1830   23.6260 C   0  0  0  0  0  0  0  0  0  0  0  0
    7.6150   -3.1830   22.1520 C   0  0  0  0  0  0  0  0  0  0  0  0
  1  2  1  0
  2  3  2  0
  2  4  1  0
  4  5  1  0
  5  6  1  0
  6  7  1  0
  7  8  1  0
  8  9  2  0
  8 10  1  0
 10 11  1  0
 11 12  2  0
 12 13  1  0
 13 14  1  0
 13 15  2  0
 15 16  1  0
 15 17  1  0
 17 18  1  0
 11 19  1  0
 17 19  2  0
  7 20  1  0
  4 21  1  0
 20 21  1  0
M  END
