piperidine-amides-531-covalent
     RDKit          3D

 27 28  0  0  0  0  0  0  0  0999 V2000
    7.1400   -3.3390   19.4080 C   0  0  0  0  0  0  0  0  0  0  0  0
    6.4580   -4.1870   20.3570 C   0  0  0  0  0  0  0  0  0  0  0  0
    5.4130   -4.8130   19.9780 O   0  0  0  0  0  0  0  0  0  0  0  0
    6.9440   -4.3820   21.6660 N   0  0  0  0  0  0  0  0  0  0  0  0
    7.8660   -3.3840   22.2510 C   0  0  0  0  0  0  0  0  0  0  0  0
    6.9300   -2.8070   23.3630 C   0  0  0  0  0  0  0  0  0  0  0  0
    6.5800   -3.9830   24.2380 C   0  0  0  0  0  0  0  0  0  0  0  0
    5.5960   -3.5630   25.4090 C   0  0  0  0  0  0  0  0  0  0  0  0
    4.5810   -4.2360   25.3380 O   0  0  0  0  0  0  0  0  0  0  0  0
    6.0570   -2.6310   26.1390 N   0  0  0  0  0  0  0  0  0  0  0  0
    6.2910   -1.6250   27.0250 C   0  0  0  0  0  0  0  0  0  0  0  0
    6.8250   -1.3900   28.2980 C   0  0  0  0  0  0  0  0  0  0  0  0
    6.9160   -0.1620   29.0410 C   0  0  0  0  0  0  0  0  0  0  0  0
    7.4880   -0.0620   30.3930 C   0  0  0  0  0  0  0  0  0  0  0  0
    8.6990   -0.7310   30.3590 F   0  0  0  0  0  0  0  0  0  0  0  0
    7.6630    1.2940   30.6370 F   0  0  0  0  0  0  0  0  0  0  0  0
    6.6230   -0.4430   31.4030 F   0  0  0  0  0  0  0  0  0  0  0  0
    6.4150    1.1210   28.4790 C   0  0  0  0  0  0  0  0  0  0  0  0
    5.8910    0.9290   27.2340 C   0  0  0  0  0  0  0  0  0  0  0  0
    5.8030   -0.2520   26.5370 C   0  0  0  0  0  0  0  0  0  0  0  0
    5.2010   -0.0520   25.3240 O   0  0  0  0  0  0  0  0  0  0  0  0
    5.8210   -0.4350   24.1560 C   0  0  0  0  0  0  0  0  0  0  0  0
    7.1770    0.2940   23.8670 C   0  0  0  0  0  0  0  0  0  0  0  0
    7.5620    0.4550   22.6730 O   0  0  0  0  0  0  0  0  0  0  0  0
    8.8770    0.1250   22.2240 C   0  0  0  0  0  0  0  0  0  0  0  0
    5.9840   -5.1950   23.5130 C   0  0  0  0  0  0  0  0  0  0  0  0
    6.6580   -5.5790   22.3990 C   0  0  0  0  0  0  0  0  0  0  0  0
  1  2  1  0
  2  3  2  0
  2  4  1  0
  4  5  1  0
  5  6  1  0
  6  7  1  0
  7  8  1  0
  8  9  2  0
  8 10  1  0
 10 11  1  0
 11 12  2  0
 12 13  1  0
 13 14  1  0
 14 15  1  0
 14 16  1  0
 14 17  1  0
 13 18  2  0
 18 19  1  0
 11 20  1  0
 19 20  2  0
 20 21  1  0
 21 22  1  0
 22 23  1  0
 23 24  1  0
 24 25  1  0
  7 26  1  0
  4 27  1  0
 26 27  1  0
M  END
