piperidine-amides-12296-covalent
     RDKit          3D

 24 26  0  0  0  0  0  0  0  0999 V2000
    7.1060   -3.3600   19.2650 C   0  0  0  0  0  0  0  0  0  0  0  0
    6.4280   -4.1770   20.2630 C   0  0  0  0  0  0  0  0  0  0  0  0
    5.3860   -4.7610   19.9700 O   0  0  0  0  0  0  0  0  0  0  0  0
    7.0190   -4.3530   21.5590 N   0  0  0  0  0  0  0  0  0  0  0  0
    7.7840   -3.2770   22.1240 C   0  0  0  0  0  0  0  0  0  0  0  0
    6.9940   -2.6690   23.2270 C   0  0  0  0  0  0  0  0  0  0  0  0
    6.4470   -3.7910   24.0860 C   0  0  0  0  0  0  0  0  0  0  0  0
    5.6210   -3.1880   25.1420 C   0  0  0  0  0  0  0  0  0  0  0  0
    4.4340   -2.8420   24.9770 O   0  0  0  0  0  0  0  0  0  0  0  0
    6.2280   -3.0150   26.3800 N   0  0  0  0  0  0  0  0  0  0  0  0
    6.2430   -1.7390   27.0400 C   0  0  0  0  0  0  0  0  0  0  0  0
    6.2840   -0.3540   26.4510 C   0  0  0  0  0  0  0  0  0  0  0  0
    6.3040    0.7540   27.2950 C   0  0  0  0  0  0  0  0  0  0  0  0
    6.3440    2.5520   26.6290 Br  0  0  0  0  0  0  0  0  0  0  0  0
    6.3000    0.5610   28.6860 C   0  0  0  0  0  0  0  0  0  0  0  0
    6.2570   -0.6720   29.3070 C   0  0  0  0  0  0  0  0  0  0  0  0
    6.2110   -1.8850   28.5100 C   0  0  0  0  0  0  0  0  0  0  0  0
    6.1180   -3.2100   28.8680 C   0  0  0  0  0  0  0  0  0  0  0  0
    4.9180   -3.6440   29.2860 N   0  0  0  0  0  0  0  0  0  0  0  0
    5.0230   -4.9400   29.5670 N   0  0  0  0  0  0  0  0  0  0  0  0
    6.2720   -5.3100   29.3280 N   0  0  0  0  0  0  0  0  0  0  0  0
    6.9490   -4.2620   28.9010 N   0  0  0  0  0  0  0  0  0  0  0  0
    5.5740   -4.7330   23.2560 C   0  0  0  0  0  0  0  0  0  0  0  0
    6.4460   -5.3860   22.3900 C   0  0  0  0  0  0  0  0  0  0  0  0
  1  2  1  0
  2  3  2  0
  2  4  1  0
  4  5  1  0
  5  6  1  0
  6  7  1  0
  7  8  1  0
  8  9  2  0
  8 10  1  0
 10 11  1  0
 11 12  2  0
 12 13  1  0
 13 14  1  0
 13 15  2  0
 15 16  1  0
 11 17  1  0
 16 17  2  0
 17 18  1  0
 18 19  2  0
 19 20  1  0
 20 21  2  0
 18 22  1  0
 21 22  1  0
  7 23  1  0
  4 24  1  0
 23 24  1  0
M  END
