piperidine-amides-29054-covalent
     RDKit          3D

 27 30  0  0  0  0  0  0  0  0999 V2000
    7.0040   -3.3140   19.3400 C   0  0  0  0  0  0  0  0  0  0  0  0
    6.3320   -4.1500   20.3400 C   0  0  0  0  0  0  0  0  0  0  0  0
    5.3370   -4.7940   19.9640 O   0  0  0  0  0  0  0  0  0  0  0  0
    6.8090   -4.2640   21.6800 N   0  0  0  0  0  0  0  0  0  0  0  0
    7.5720   -3.1780   22.2540 C   0  0  0  0  0  0  0  0  0  0  0  0
    7.3200   -3.0480   23.7360 C   0  0  0  0  0  0  0  0  0  0  0  0
    6.0050   -3.7370   24.0330 C   0  0  0  0  0  0  0  0  0  0  0  0
    5.4800   -3.4510   25.4230 C   0  0  0  0  0  0  0  0  0  0  0  0
    4.5720   -2.6260   25.4780 O   0  0  0  0  0  0  0  0  0  0  0  0
    6.0190   -4.0970   26.5460 N   0  0  0  0  0  0  0  0  0  0  0  0
    6.1050   -3.5390   27.8140 C   0  0  0  0  0  0  0  0  0  0  0  0
    5.9700   -4.7980   28.3510 C   0  0  0  0  0  0  0  0  0  0  0  0
    4.9030   -5.1770   29.1360 C   0  0  0  0  0  0  0  0  0  0  0  0
    3.6100   -4.8410   28.7620 C   0  0  0  0  0  0  0  0  0  0  0  0
    2.6090   -5.3310   29.7360 C   0  0  0  0  0  0  0  0  0  0  0  0
    2.9580   -6.0110   30.8290 N   0  0  0  0  0  0  0  0  0  0  0  0
    4.2300   -6.2960   31.1190 C   0  0  0  0  0  0  0  0  0  0  0  0
    4.6480   -7.0540   32.3420 C   0  0  0  0  0  0  0  0  0  0  0  0
    3.7620   -8.1620   32.7390 N   0  0  0  0  0  0  0  0  0  0  0  0
    3.9720   -9.0210   33.8820 C   0  0  0  0  0  0  0  0  0  0  0  0
    5.2660   -8.5330   34.5530 C   0  0  0  0  0  0  0  0  0  0  0  0
    6.0440   -7.4860   34.1280 C   0  0  0  0  0  0  0  0  0  0  0  0
    5.7680   -6.7360   33.0380 N   0  0  0  0  0  0  0  0  0  0  0  0
    4.9990   -5.8850   30.3110 N   0  0  0  0  0  0  0  0  0  0  0  0
    5.6490   -5.4520   26.9630 C   0  0  0  0  0  0  0  0  0  0  0  0
    6.1000   -5.2020   23.7930 C   0  0  0  0  0  0  0  0  0  0  0  0
    6.6320   -5.4930   22.4170 C   0  0  0  0  0  0  0  0  0  0  0  0
  1  2  1  0
  2  3  2  0
  2  4  1  0
  4  5  1  0
  5  6  1  0
  6  7  1  0
  7  8  1  0
  8  9  2  0
  8 10  1  0
 10 11  1  0
 11 12  1  0
 12 13  1  0
 13 14  2  0
 14 15  1  0
 15 16  2  0
 16 17  1  0
 17 18  1  0
 18 19  2  0
 19 20  1  0
 20 21  2  0
 21 22  1  0
 18 23  1  0
 22 23  2  0
 13 24  1  0
 17 24  2  0
 10 25  1  0
 12 25  1  0
  7 26  1  0
  4 27  1  0
 26 27  1  0
M  END
