piperidine-amides-606-covalent
     RDKit          3D

 26 28  0  0  0  0  0  0  0  0999 V2000
    7.0940   -3.3100   19.4080 C   0  0  0  0  0  0  0  0  0  0  0  0
    6.3720   -4.1100   20.3760 C   0  0  0  0  0  0  0  0  0  0  0  0
    5.3890   -4.8060   19.9680 O   0  0  0  0  0  0  0  0  0  0  0  0
    6.7440   -4.1670   21.7360 N   0  0  0  0  0  0  0  0  0  0  0  0
    6.6370   -5.5070   22.3760 C   0  0  0  0  0  0  0  0  0  0  0  0
    6.0480   -5.1790   23.8120 C   0  0  0  0  0  0  0  0  0  0  0  0
    6.2770   -3.7090   24.0330 C   0  0  0  0  0  0  0  0  0  0  0  0
    5.6250   -3.1060   25.3580 C   0  0  0  0  0  0  0  0  0  0  0  0
    5.0130   -2.0880   25.0780 O   0  0  0  0  0  0  0  0  0  0  0  0
    5.8740   -3.8220   26.3890 N   0  0  0  0  0  0  0  0  0  0  0  0
    6.0070   -4.5200   27.5600 C   0  0  0  0  0  0  0  0  0  0  0  0
    6.1140   -5.7750   28.1230 C   0  0  2  0  0  0  0  0  0  0  0  0
    4.8680   -6.4730   28.1560 C   0  0  0  0  0  0  0  0  0  0  0  0
    4.7800   -6.7400   29.5480 C   0  0  0  0  0  0  0  0  0  0  0  0
    3.4910   -7.5080   29.9020 C   0  0  0  0  0  0  0  0  0  0  0  0
    2.8370   -7.6690   28.6770 C   0  0  0  0  0  0  0  0  0  0  0  0
    1.5790   -8.3160   28.3710 C   0  0  0  0  0  0  0  0  0  0  0  0
    1.1470   -8.7910   29.8100 C   0  0  0  0  0  0  0  0  0  0  0  0
    0.0620   -9.3960   29.7760 O   0  0  0  0  0  0  0  0  0  0  0  0
    0.3250  -10.6980   29.3550 C   0  0  0  0  0  0  0  0  0  0  0  0
    1.8870   -8.5850   31.0800 C   0  0  0  0  0  0  0  0  0  0  0  0
    3.0400   -7.9450   31.0730 C   0  0  0  0  0  0  0  0  0  0  0  0
    5.7670   -6.3270   30.3850 N   0  0  0  0  0  0  0  0  0  0  0  0
    6.5540   -5.7310   29.4760 O   0  0  0  0  0  0  0  0  0  0  0  0
    7.6590   -3.2380   23.6430 C   0  0  0  0  0  0  0  0  0  0  0  0
    7.6690   -3.1820   22.2750 C   0  0  0  0  0  0  0  0  0  0  0  0
  1  2  1  0
  2  3  2  0
  2  4  1  0
  4  5  1  0
  5  6  1  0
  6  7  1  0
  7  8  1  0
  8  9  2  0
  8 10  1  0
 10 11  1  0
 12 11  1  1
 12 13  1  0
 13 14  1  0
 14 15  1  0
 15 16  2  0
 16 17  1  0
 17 18  2  0
 18 19  1  0
 19 20  1  0
 18 21  1  0
 15 22  1  0
 21 22  2  0
 14 23  2  0
 12 24  1  0
 23 24  1  0
  7 25  1  0
  4 26  1  0
 25 26  1  0
M  END
