piperidine-amides-10004-covalent
     RDKit          3D

 26 28  0  0  0  0  0  0  0  0999 V2000
    7.1220   -3.3370   19.2790 C   0  0  0  0  0  0  0  0  0  0  0  0
    6.3750   -4.1030   20.2730 C   0  0  0  0  0  0  0  0  0  0  0  0
    5.2860   -4.6100   19.9030 O   0  0  0  0  0  0  0  0  0  0  0  0
    6.9130   -4.2850   21.5430 N   0  0  0  0  0  0  0  0  0  0  0  0
    7.7180   -3.2550   22.1570 C   0  0  0  0  0  0  0  0  0  0  0  0
    6.9440   -2.7120   23.3160 C   0  0  0  0  0  0  0  0  0  0  0  0
    6.5630   -3.8290   24.2360 C   0  0  0  0  0  0  0  0  0  0  0  0
    5.8190   -3.2840   25.3880 C   0  0  0  0  0  0  0  0  0  0  0  0
    4.6010   -3.0380   25.2450 O   0  0  0  0  0  0  0  0  0  0  0  0
    6.4240   -3.0440   26.6290 N   0  0  0  0  0  0  0  0  0  0  0  0
    6.4140   -1.7430   27.2520 C   0  0  0  0  0  0  0  0  0  0  0  0
    5.8600   -0.4540   26.6580 C   0  0  0  0  0  0  0  0  0  0  0  0
    5.9130    0.7180   27.3820 C   0  0  0  0  0  0  0  0  0  0  0  0
    6.4770    0.6980   28.6490 C   0  0  0  0  0  0  0  0  0  0  0  0
    7.0050   -0.4090   29.2720 C   0  0  0  0  0  0  0  0  0  0  0  0
    7.4610   -0.0310   30.5030 C   0  0  0  0  0  0  0  0  0  0  0  0
    7.2160    1.3170   30.6530 C   0  0  0  0  0  0  0  0  0  0  0  0
    6.6160    1.7430   29.5100 N   0  0  0  0  0  0  0  0  0  0  0  0
    6.2730    3.0300   29.4030 C   0  0  0  0  0  0  0  0  0  0  0  0
    4.8440    3.3730   29.8330 C   0  0  0  0  0  0  0  0  0  0  0  0
    4.3720    4.4440   29.3960 O   0  0  0  0  0  0  0  0  0  0  0  0
    4.0840    2.8630   30.4800 O   0  0  0  0  0  0  0  0  0  0  0  0
    3.8310    1.4880   30.5030 C   0  0  0  0  0  0  0  0  0  0  0  0
    6.9890   -1.6050   28.6140 C   0  0  0  0  0  0  0  0  0  0  0  0
    5.7890   -4.9120   23.5800 C   0  0  0  0  0  0  0  0  0  0  0  0
    6.4810   -5.4040   22.3280 C   0  0  0  0  0  0  0  0  0  0  0  0
  1  2  1  0
  2  3  2  0
  2  4  1  0
  4  5  1  0
  5  6  1  0
  6  7  1  0
  7  8  1  0
  8  9  2  0
  8 10  1  0
 10 11  1  0
 11 12  2  0
 12 13  1  0
 13 14  2  0
 14 15  1  0
 15 16  1  0
 16 17  2  0
 14 18  1  0
 17 18  1  0
 18 19  1  0
 19 20  1  0
 20 21  2  0
 20 22  1  0
 22 23  1  0
 11 24  1  0
 15 24  2  0
  7 25  1  0
  4 26  1  0
 25 26  1  0
M  END
