piperidine-amides-3724-covalent
     RDKit          3D

 25 26  0  0  0  0  0  0  0  0999 V2000
    7.1410   -3.2900   19.1910 C   0  0  0  0  0  0  0  0  0  0  0  0
    6.4180   -4.0500   20.2240 C   0  0  0  0  0  0  0  0  0  0  0  0
    5.3140   -4.5380   19.8910 O   0  0  0  0  0  0  0  0  0  0  0  0
    6.9830   -4.2820   21.5080 N   0  0  0  0  0  0  0  0  0  0  0  0
    6.4330   -5.3110   22.3050 C   0  0  0  0  0  0  0  0  0  0  0  0
    5.9840   -4.8690   23.6260 C   0  0  0  0  0  0  0  0  0  0  0  0
    6.6150   -3.6380   24.1740 C   0  0  0  0  0  0  0  0  0  0  0  0
    5.8410   -3.0900   25.3320 C   0  0  0  0  0  0  0  0  0  0  0  0
    4.6550   -2.7520   25.1530 O   0  0  0  0  0  0  0  0  0  0  0  0
    6.4080   -2.9520   26.6130 N   0  0  0  0  0  0  0  0  0  0  0  0
    6.1130   -3.7260   27.7550 C   0  0  0  0  0  0  0  0  0  0  0  0
    5.2800   -4.9240   27.6500 C   0  0  2  0  0  0  0  0  0  0  0  0
    3.9890   -4.7720   28.4850 C   0  0  0  0  0  0  0  0  0  0  0  0
    3.7040   -3.8560   29.4770 C   0  0  0  0  0  0  0  0  0  0  0  0
    2.2660   -4.0090   30.1160 C   0  0  0  0  0  0  0  0  0  0  0  0
    1.2630   -5.0910   29.6700 C   0  0  0  0  0  0  0  0  0  0  0  0
    0.0300   -5.0990   30.3320 F   0  0  0  0  0  0  0  0  0  0  0  0
    1.8360   -5.9630   28.5610 C   0  0  0  0  0  0  0  0  0  0  0  0
    3.1590   -5.8460   27.9500 C   0  0  0  0  0  0  0  0  0  0  0  0
    3.6480   -6.9460   26.6770 Cl  0  0  0  0  0  0  0  0  0  0  0  0
    5.9630   -6.1400   28.2000 C   0  0  0  0  0  0  0  0  0  0  0  0
    6.8540   -6.5230   27.2740 F   0  0  0  0  0  0  0  0  0  0  0  0
    6.6240   -5.9660   29.3690 F   0  0  0  0  0  0  0  0  0  0  0  0
    6.7700   -2.5410   23.1180 C   0  0  0  0  0  0  0  0  0  0  0  0
    7.6910   -3.1540   22.1340 C   0  0  0  0  0  0  0  0  0  0  0  0
  1  2  1  0
  2  3  2  0
  2  4  1  0
  4  5  1  0
  5  6  1  0
  6  7  1  0
  7  8  1  0
  8  9  2  0
  8 10  1  0
 10 11  1  0
 12 11  1  1
 12 13  1  0
 13 14  2  0
 14 15  1  0
 15 16  2  0
 16 17  1  0
 16 18  1  0
 13 19  1  0
 18 19  2  0
 19 20  1  0
 12 21  1  0
 21 22  1  0
 21 23  1  0
  7 24  1  0
  4 25  1  0
 24 25  1  0
M  END
