piperidine-amides-15248-covalent
     RDKit          3D

 17 17  0  0  0  0  0  0  0  0999 V2000
    7.1260   -3.2540   19.2230 C   0  0  0  0  0  0  0  0  0  0  0  0
    6.3570   -4.0280   20.2070 C   0  0  0  0  0  0  0  0  0  0  0  0
    5.2770   -4.5670   19.8870 O   0  0  0  0  0  0  0  0  0  0  0  0
    6.8540   -4.2170   21.4990 N   0  0  0  0  0  0  0  0  0  0  0  0
    6.4110   -5.3650   22.2540 C   0  0  0  0  0  0  0  0  0  0  0  0
    5.5350   -4.8000   23.3730 C   0  0  0  0  0  0  0  0  0  0  0  0
    6.4520   -3.9000   24.1670 C   0  0  0  0  0  0  0  0  0  0  0  0
    5.7510   -3.4230   25.3720 C   0  0  0  0  0  0  0  0  0  0  0  0
    4.5100   -3.2720   25.3320 O   0  0  0  0  0  0  0  0  0  0  0  0
    6.5080   -3.1430   26.5350 N   0  0  0  0  0  0  0  0  0  0  0  0
    6.2390   -3.7760   27.8030 C   0  0  0  0  0  0  0  0  0  0  0  0
    5.7730   -5.2170   27.6460 C   0  0  0  0  0  0  0  0  0  0  0  0
    5.4830   -5.7850   26.4340 C   0  0  0  0  0  0  0  0  0  0  0  0
    4.6310   -5.4310   28.3400 F   0  0  0  0  0  0  0  0  0  0  0  0
    6.7850   -5.9790   28.2730 F   0  0  0  0  0  0  0  0  0  0  0  0
    6.9080   -2.7750   23.3030 C   0  0  0  0  0  0  0  0  0  0  0  0
    7.6020   -3.2030   22.1810 C   0  0  0  0  0  0  0  0  0  0  0  0
  1  2  1  0
  2  3  2  0
  2  4  1  0
  4  5  1  0
  5  6  1  0
  6  7  1  0
  7  8  1  0
  8  9  2  0
  8 10  1  0
 10 11  1  0
 11 12  1  0
 12 13  1  0
 12 14  1  0
 12 15  1  0
  7 16  1  0
  4 17  1  0
 16 17  1  0
M  END
