piperidine-amides-24279-covalent
     RDKit          3D

 24 25  0  0  0  0  0  0  0  0999 V2000
    7.1510   -3.3140   19.2970 C   0  0  0  0  0  0  0  0  0  0  0  0
    6.3940   -4.1120   20.2610 C   0  0  0  0  0  0  0  0  0  0  0  0
    5.3280   -4.6720   19.9340 O   0  0  0  0  0  0  0  0  0  0  0  0
    6.9090   -4.2960   21.5390 N   0  0  0  0  0  0  0  0  0  0  0  0
    6.4330   -5.4090   22.3230 C   0  0  0  0  0  0  0  0  0  0  0  0
    5.4960   -4.7850   23.3540 C   0  0  0  0  0  0  0  0  0  0  0  0
    6.3690   -3.8320   24.1320 C   0  0  0  0  0  0  0  0  0  0  0  0
    5.5900   -3.1820   25.1870 C   0  0  0  0  0  0  0  0  0  0  0  0
    4.4640   -2.7200   24.9160 O   0  0  0  0  0  0  0  0  0  0  0  0
    6.1430   -3.1220   26.4730 N   0  0  0  0  0  0  0  0  0  0  0  0
    6.1890   -4.3390   27.2260 C   0  0  0  0  0  0  0  0  0  0  0  0
    6.1760   -1.8690   27.2050 C   0  0  0  0  0  0  0  0  0  0  0  0
    6.3850   -0.6920   26.5200 C   0  0  0  0  0  0  0  0  0  0  0  0
    6.4260    0.5240   27.1860 C   0  0  0  0  0  0  0  0  0  0  0  0
    6.2720    0.5980   28.5590 C   0  0  0  0  0  0  0  0  0  0  0  0
    6.0530   -0.4380   29.4060 C   0  0  0  0  0  0  0  0  0  0  0  0
    5.8920   -0.3610   30.7500 O   0  0  0  0  0  0  0  0  0  0  0  0
    4.7840   -0.1990   31.5210 C   0  0  0  0  0  0  0  0  0  0  0  0
    5.9790   -1.7530   28.7450 C   0  0  0  0  0  0  0  0  0  0  0  0
    5.6920   -2.9820   29.5140 N   0  0  0  0  0  0  0  0  0  0  0  0
    4.6770   -3.1220   30.4330 O   0  0  0  0  0  0  0  0  0  0  0  0
    6.3340   -4.0330   29.3530 O   0  0  0  0  0  0  0  0  0  0  0  0
    7.0050   -2.7620   23.3500 C   0  0  0  0  0  0  0  0  0  0  0  0
    7.6640   -3.2610   22.1620 C   0  0  0  0  0  0  0  0  0  0  0  0
  1  2  1  0
  2  3  2  0
  2  4  1  0
  4  5  1  0
  5  6  1  0
  6  7  1  0
  7  8  1  0
  8  9  2  0
  8 10  1  0
 10 11  1  0
 10 12  1  0
 12 13  2  0
 13 14  1  0
 14 15  2  0
 15 16  1  0
 16 17  1  0
 17 18  1  0
 12 19  1  0
 16 19  2  0
 19 20  1  0
 20 21  2  0
 20 22  1  0
  7 23  1  0
  4 24  1  0
 23 24  1  0
M  CHG  2  20   1  22  -1
M  END
