piperidine-amides-27904-covalent
     RDKit          3D

 26 28  0  0  0  0  0  0  0  0999 V2000
    7.0170   -3.3640   19.3470 C   0  0  0  0  0  0  0  0  0  0  0  0
    6.3980   -4.2400   20.3650 C   0  0  0  0  0  0  0  0  0  0  0  0
    5.3840   -4.8650   19.9880 O   0  0  0  0  0  0  0  0  0  0  0  0
    6.9500   -4.4000   21.6520 N   0  0  0  0  0  0  0  0  0  0  0  0
    6.5600   -5.4910   22.4710 C   0  0  0  0  0  0  0  0  0  0  0  0
    5.9400   -5.1000   23.7480 C   0  0  0  0  0  0  0  0  0  0  0  0
    6.4110   -3.8220   24.3610 C   0  0  0  0  0  0  0  0  0  0  0  0
    5.3890   -3.2970   25.3330 C   0  0  0  0  0  0  0  0  0  0  0  0
    4.5270   -2.5410   24.8670 O   0  0  0  0  0  0  0  0  0  0  0  0
    5.3360   -3.6050   26.7310 N   0  0  0  0  0  0  0  0  0  0  0  0
    4.1970   -3.2760   27.5720 C   0  0  0  0  0  0  0  0  0  0  0  0
    4.6270   -3.5510   28.9700 C   0  0  0  0  0  0  0  0  0  0  0  0
    5.3910   -4.6990   29.2240 N   0  0  0  0  0  0  0  0  0  0  0  0
    4.6240   -5.9220   29.2450 C   0  0  0  0  0  0  0  0  0  0  0  0
    4.0610   -6.3450   30.3920 C   0  0  0  0  0  0  0  0  0  0  0  0
    4.0450   -5.8390   31.6740 C   0  0  0  0  0  0  0  0  0  0  0  0
    4.5590   -6.5890   32.7730 N   0  0  0  0  0  0  0  0  0  0  0  0
    3.3360   -7.5860   30.1720 C   0  0  0  0  0  0  0  0  0  0  0  0
    2.6620   -8.2430   31.1560 C   0  0  0  0  0  0  0  0  0  0  0  0
    3.5280   -7.8290   28.8460 N   0  0  0  0  0  0  0  0  0  0  0  0
    4.2810   -6.8470   28.3290 N   0  0  0  0  0  0  0  0  0  0  0  0
    4.7200   -6.7150   26.9540 C   0  0  0  0  0  0  0  0  0  0  0  0
    6.5440   -4.6390   28.3750 C   0  0  0  0  0  0  0  0  0  0  0  0
    6.4480   -3.3810   27.5430 C   0  0  0  0  0  0  0  0  0  0  0  0
    6.7660   -2.7630   23.3710 C   0  0  0  0  0  0  0  0  0  0  0  0
    7.6740   -3.3390   22.3230 C   0  0  0  0  0  0  0  0  0  0  0  0
  1  2  1  0
  2  3  2  0
  2  4  1  0
  4  5  1  0
  5  6  1  0
  6  7  1  0
  7  8  1  0
  8  9  2  0
  8 10  1  0
 10 11  1  0
 11 12  1  0
 12 13  1  0
 13 14  1  0
 14 15  2  0
 15 16  1  0
 16 17  3  0
 15 18  1  0
 18 19  1  0
 18 20  2  0
 14 21  1  0
 20 21  1  0
 21 22  1  0
 13 23  1  0
 10 24  1  0
 23 24  1  0
  7 25  1  0
  4 26  1  0
 25 26  1  0
M  END
