piperidine-amides-10687-covalent
     RDKit          3D

 23 24  0  0  0  0  0  0  0  0999 V2000
    7.1310   -3.2990   19.2550 C   0  0  0  0  0  0  0  0  0  0  0  0
    6.3570   -4.0330   20.2560 C   0  0  0  0  0  0  0  0  0  0  0  0
    5.2680   -4.5350   19.8800 O   0  0  0  0  0  0  0  0  0  0  0  0
    6.8700   -4.1910   21.5440 N   0  0  0  0  0  0  0  0  0  0  0  0
    7.6990   -3.1920   22.1710 C   0  0  0  0  0  0  0  0  0  0  0  0
    7.0120   -2.7280   23.4180 C   0  0  0  0  0  0  0  0  0  0  0  0
    6.4840   -3.8690   24.2450 C   0  0  0  0  0  0  0  0  0  0  0  0
    5.7560   -3.3350   25.4200 C   0  0  0  0  0  0  0  0  0  0  0  0
    4.5390   -3.0890   25.2790 O   0  0  0  0  0  0  0  0  0  0  0  0
    6.3520   -3.0760   26.6770 N   0  0  0  0  0  0  0  0  0  0  0  0
    6.2460   -4.0280   27.7630 C   0  0  0  0  0  0  0  0  0  0  0  0
    4.9850   -3.8600   28.5950 C   0  0  0  0  0  0  0  0  0  0  0  0
    4.0890   -4.8600   28.8560 C   0  0  0  0  0  0  0  0  0  0  0  0
    4.2430   -6.1880   28.3700 O   0  0  0  0  0  0  0  0  0  0  0  0
    5.3800   -6.9050   28.5140 C   0  0  0  0  0  0  0  0  0  0  0  0
    2.9670   -4.7150   29.5950 C   0  0  0  0  0  0  0  0  0  0  0  0
    2.6660   -3.5030   30.1420 C   0  0  0  0  0  0  0  0  0  0  0  0
    3.4910   -2.4150   29.9550 C   0  0  0  0  0  0  0  0  0  0  0  0
    4.7910   -2.4120   29.1510 C   0  0  0  0  0  0  0  0  0  0  0  0
    5.6250   -1.3750   28.9480 O   0  0  0  0  0  0  0  0  0  0  0  0
    7.0610   -1.5250   29.0450 C   0  0  0  0  0  0  0  0  0  0  0  0
    5.5900   -4.8160   23.4220 C   0  0  0  0  0  0  0  0  0  0  0  0
    6.5000   -5.3520   22.3320 C   0  0  0  0  0  0  0  0  0  0  0  0
  1  2  1  0
  2  3  2  0
  2  4  1  0
  4  5  1  0
  5  6  1  0
  6  7  1  0
  7  8  1  0
  8  9  2  0
  8 10  1  0
 10 11  1  0
 11 12  1  0
 12 13  2  0
 13 14  1  0
 14 15  1  0
 13 16  1  0
 16 17  2  0
 17 18  1  0
 12 19  1  0
 18 19  2  0
 19 20  1  0
 20 21  1  0
  7 22  1  0
  4 23  1  0
 22 23  1  0
M  END
