piperidine-amides-32414-covalent
     RDKit          3D

 26 28  0  0  0  0  0  0  0  0999 V2000
    7.0880   -3.3490   19.3600 C   0  0  0  0  0  0  0  0  0  0  0  0
    6.3550   -4.1850   20.3470 C   0  0  0  0  0  0  0  0  0  0  0  0
    5.3480   -4.8100   19.9720 O   0  0  0  0  0  0  0  0  0  0  0  0
    6.8460   -4.2880   21.6670 N   0  0  0  0  0  0  0  0  0  0  0  0
    6.7260   -5.5120   22.4340 C   0  0  0  0  0  0  0  0  0  0  0  0
    6.1950   -5.1580   23.8340 C   0  0  0  0  0  0  0  0  0  0  0  0
    6.2080   -3.6720   23.9360 C   0  0  0  0  0  0  0  0  0  0  0  0
    5.6640   -3.1020   25.1920 C   0  0  0  0  0  0  0  0  0  0  0  0
    4.7850   -2.2530   25.0460 O   0  0  0  0  0  0  0  0  0  0  0  0
    6.0920   -3.5110   26.4540 N   0  0  0  0  0  0  0  0  0  0  0  0
    6.1380   -2.7000   27.5880 C   0  0  0  0  0  0  0  0  0  0  0  0
    5.9300   -3.4650   28.6780 C   0  0  2  0  0  0  0  0  0  0  0  0
    5.6730   -4.7780   28.2040 C   0  0  1  0  0  0  0  0  0  0  0  0
    6.2940   -5.8480   28.7170 C   0  0  0  0  0  0  0  0  0  0  0  0
    5.5180   -6.5890   29.5600 F   0  0  0  0  0  0  0  0  0  0  0  0
    7.4210   -5.4610   29.3010 F   0  0  0  0  0  0  0  0  0  0  0  0
    6.6210   -6.5660   27.5850 F   0  0  0  0  0  0  0  0  0  0  0  0
    4.2860   -5.0880   28.5430 C   0  0  0  0  0  0  0  0  0  0  0  0
    4.0040   -5.3240   30.0320 C   0  0  0  0  0  0  0  0  0  0  0  0
    3.6440   -3.9170   30.4610 C   0  0  0  0  0  0  0  0  0  0  0  0
    4.6010   -2.6800   29.6540 S   0  0  0  0  0  0  0  0  0  0  0  0
    5.0850   -1.6690   30.6760 O   0  0  0  0  0  0  0  0  0  0  0  0
    3.6670   -1.9960   28.7060 O   0  0  0  0  0  0  0  0  0  0  0  0
    5.6720   -4.8130   26.8180 C   0  0  0  0  0  0  0  0  0  0  0  0
    7.5220   -3.0730   23.6240 C   0  0  0  0  0  0  0  0  0  0  0  0
    7.7560   -3.2520   22.1440 C   0  0  0  0  0  0  0  0  0  0  0  0
  1  2  1  0
  2  3  2  0
  2  4  1  0
  4  5  1  0
  5  6  1  0
  6  7  1  0
  7  8  1  0
  8  9  2  0
  8 10  1  0
 10 11  1  0
 12 11  1  6
 12 13  1  0
 13 14  1  1
 14 15  1  0
 14 16  1  0
 14 17  1  0
 13 18  1  0
 18 19  1  0
 19 20  1  0
 12 21  1  0
 21 20  1  0
 21 22  2  0
 21 23  2  0
 10 24  1  0
 13 24  1  0
  7 25  1  0
  4 26  1  0
 25 26  1  0
M  END
