piperidine-amides-30918-covalent
     RDKit          3D

 27 28  0  0  0  0  0  0  0  0999 V2000
    7.0380   -3.3600   19.3590 C   0  0  0  0  0  0  0  0  0  0  0  0
    6.3720   -4.2060   20.3530 C   0  0  0  0  0  0  0  0  0  0  0  0
    5.3990   -4.8930   19.9940 O   0  0  0  0  0  0  0  0  0  0  0  0
    6.8340   -4.2860   21.6830 N   0  0  0  0  0  0  0  0  0  0  0  0
    7.6800   -3.2570   22.2530 C   0  0  0  0  0  0  0  0  0  0  0  0
    6.9240   -2.7070   23.4300 C   0  0  0  0  0  0  0  0  0  0  0  0
    6.5710   -3.7960   24.3910 C   0  0  0  0  0  0  0  0  0  0  0  0
    5.7180   -3.2730   25.5160 C   0  0  0  0  0  0  0  0  0  0  0  0
    5.0270   -2.2440   25.2770 O   0  0  0  0  0  0  0  0  0  0  0  0
    5.5110   -3.7870   26.8540 N   0  0  0  0  0  0  0  0  0  0  0  0
    4.1620   -3.5060   27.3410 C   0  0  0  0  0  0  0  0  0  0  0  0
    3.6300   -4.6750   28.0550 C   0  0  0  0  0  0  0  0  0  0  0  0
    4.2670   -4.8690   29.2060 N   0  0  0  0  0  0  0  0  0  0  0  0
    3.5870   -5.3460   30.3570 C   0  0  0  0  0  0  0  0  0  0  0  0
    3.0800   -6.4780   30.4490 O   0  0  0  0  0  0  0  0  0  0  0  0
    3.4610   -4.5660   31.4000 O   0  0  0  0  0  0  0  0  0  0  0  0
    2.4970   -3.5500   31.5070 C   0  0  0  0  0  0  0  0  0  0  0  0
    2.6390   -2.5340   30.3920 C   0  0  0  0  0  0  0  0  0  0  0  0
    2.4370   -2.9070   32.8960 C   0  0  0  0  0  0  0  0  0  0  0  0
    1.1030   -3.9240   31.0280 C   0  0  0  0  0  0  0  0  0  0  0  0
    5.3920   -5.7050   28.8680 C   0  0  2  0  0  0  0  0  0  0  0  0
    5.7610   -6.6220   30.0110 C   0  0  0  0  0  0  0  0  0  0  0  0
    6.5550   -5.0040   28.2850 C   0  0  0  0  0  0  0  0  0  0  0  0
    6.4540   -3.5180   27.9240 C   0  0  1  0  0  0  0  0  0  0  0  0
    6.7000   -2.3560   27.7220 C   0  0  0  0  0  0  0  0  0  0  0  0
    5.9420   -4.9890   23.7690 C   0  0  0  0  0  0  0  0  0  0  0  0
    6.4830   -5.3710   22.5500 C   0  0  0  0  0  0  0  0  0  0  0  0
  1  2  1  0
  2  3  2  0
  2  4  1  0
  4  5  1  0
  5  6  1  0
  6  7  1  0
  7  8  1  0
  8  9  2  0
  8 10  1  0
 10 11  1  0
 11 12  1  0
 12 13  1  0
 13 14  1  0
 14 15  2  0
 14 16  1  0
 17 16  1  0
 17 18  1  0
 17 19  1  0
 17 20  1  0
 13 21  1  0
 21 22  1  1
 21 23  1  0
 10 24  1  0
 23 24  1  0
 24 25  1  6
  7 26  1  0
  4 27  1  0
 26 27  1  0
M  END
