piperidine-amides-19424-covalent
     RDKit          3D

 22 23  0  0  0  0  0  0  0  0999 V2000
    7.1050   -3.2770   19.3340 C   0  0  0  0  0  0  0  0  0  0  0  0
    6.3200   -4.0410   20.2890 C   0  0  0  0  0  0  0  0  0  0  0  0
    5.2730   -4.6360   19.8950 O   0  0  0  0  0  0  0  0  0  0  0  0
    6.6960   -4.1580   21.6350 N   0  0  0  0  0  0  0  0  0  0  0  0
    6.6570   -5.5220   22.2270 C   0  0  0  0  0  0  0  0  0  0  0  0
    5.9410   -5.2410   23.6080 C   0  0  0  0  0  0  0  0  0  0  0  0
    5.9710   -3.7470   23.7620 C   0  0  0  0  0  0  0  0  0  0  0  0
    5.3580   -3.2090   25.1270 C   0  0  0  0  0  0  0  0  0  0  0  0
    4.3420   -2.5750   24.8990 O   0  0  0  0  0  0  0  0  0  0  0  0
    6.0850   -3.5860   26.1070 N   0  0  0  0  0  0  0  0  0  0  0  0
    6.7150   -4.4620   26.9460 C   0  0  0  0  0  0  0  0  0  0  0  0
    6.3930   -2.3810   26.7830 C   0  0  0  0  0  0  0  0  0  0  0  0
    5.3550   -1.4270   26.9310 C   0  0  0  0  0  0  0  0  0  0  0  0
    5.6360    0.0150   26.9700 C   0  0  0  0  0  0  0  0  0  0  0  0
    4.3530    0.8820   27.1340 C   0  0  0  0  0  0  0  0  0  0  0  0
    3.1060    0.2050   27.2240 C   0  0  0  0  0  0  0  0  0  0  0  0
    2.7540   -1.1630   27.1960 C   0  0  0  0  0  0  0  0  0  0  0  0
    1.4710   -1.5940   27.2990 O   0  0  0  0  0  0  0  0  0  0  0  0
    1.0750   -2.5190   26.3610 C   0  0  0  0  0  0  0  0  0  0  0  0
    4.0000   -2.0080   27.0390 C   0  0  0  0  0  0  0  0  0  0  0  0
    7.3750   -3.2200   23.5430 C   0  0  0  0  0  0  0  0  0  0  0  0
    7.5960   -3.1770   22.2020 C   0  0  0  0  0  0  0  0  0  0  0  0
  1  2  1  0
  2  3  2  0
  2  4  1  0
  4  5  1  0
  5  6  1  0
  6  7  1  0
  7  8  1  0
  8  9  2  0
  8 10  1  0
 10 11  1  0
 10 12  1  0
 12 13  1  0
 13 14  2  0
 14 15  1  0
 15 16  2  0
 16 17  1  0
 17 18  1  0
 18 19  1  0
 13 20  1  0
 17 20  2  0
  7 21  1  0
  4 22  1  0
 21 22  1  0
M  END
