piperidine-amides-31701-covalent
     RDKit          3D

 28 30  0  0  0  0  0  0  0  0999 V2000
    7.0610   -3.4490   19.3750 C   0  0  0  0  0  0  0  0  0  0  0  0
    6.3690   -4.2460   20.3610 C   0  0  0  0  0  0  0  0  0  0  0  0
    5.3270   -4.8580   19.9840 O   0  0  0  0  0  0  0  0  0  0  0  0
    6.8460   -4.4130   21.6770 N   0  0  0  0  0  0  0  0  0  0  0  0
    6.2790   -5.5200   22.4910 C   0  0  0  0  0  0  0  0  0  0  0  0
    5.2580   -4.7490   23.4370 C   0  0  0  0  0  0  0  0  0  0  0  0
    6.0280   -3.6250   24.1060 C   0  0  0  0  0  0  0  0  0  0  0  0
    5.1820   -2.8650   25.2470 C   0  0  0  0  0  0  0  0  0  0  0  0
    4.0910   -2.5130   24.8270 O   0  0  0  0  0  0  0  0  0  0  0  0
    5.8940   -2.8470   26.3080 N   0  0  0  0  0  0  0  0  0  0  0  0
    6.5730   -3.3600   27.3290 C   0  0  0  0  0  0  0  0  0  0  0  0
    7.5030   -4.2880   27.2410 C   0  0  0  0  0  0  0  0  0  0  0  0
    7.5590   -4.7130   25.9330 C   0  0  0  0  0  0  0  0  0  0  0  0
    8.4390   -5.7180   25.3810 C   0  0  0  0  0  0  0  0  0  0  0  0
    9.3450   -6.2680   26.5060 C   0  0  0  0  0  0  0  0  0  0  0  0
    9.1470   -5.7200   27.7710 C   0  0  0  0  0  0  0  0  0  0  0  0
    8.2570   -4.7610   28.1460 C   0  0  0  0  0  0  0  0  0  0  0  0
    6.5500   -1.5740   26.5110 C   0  0  1  0  0  0  0  0  0  0  0  0
    7.2860   -1.2050   25.1800 C   0  0  0  0  0  0  0  0  0  0  0  0
    6.8200   -0.2910   24.4460 O   0  0  0  0  0  0  0  0  0  0  0  0
    8.3410   -1.8050   24.8250 O   0  0  0  0  0  0  0  0  0  0  0  0
    9.1260   -1.4390   23.6900 C   0  0  0  0  0  0  0  0  0  0  0  0
    5.5990   -0.4980   26.8390 C   0  0  0  0  0  0  0  0  0  0  0  0
    6.0710    0.3590   27.7430 C   0  0  0  0  0  0  0  0  0  0  0  0
    7.0480   -0.1730   28.2410 O   0  0  0  0  0  0  0  0  0  0  0  0
    7.3720   -1.4590   27.6870 C   0  0  0  0  0  0  0  0  0  0  0  0
    6.7250   -2.6760   23.2040 C   0  0  0  0  0  0  0  0  0  0  0  0
    7.6430   -3.3920   22.2870 C   0  0  0  0  0  0  0  0  0  0  0  0
  1  2  1  0
  2  3  2  0
  2  4  1  0
  4  5  1  0
  5  6  1  0
  6  7  1  0
  7  8  1  0
  8  9  2  0
  8 10  1  0
 10 11  1  0
 11 12  1  0
 12 13  2  0
 13 14  1  0
 14 15  2  0
 15 16  1  0
 12 17  1  0
 16 17  2  0
 10 18  1  0
 18 19  1  6
 19 20  2  0
 19 21  1  0
 21 22  1  0
 18 23  1  0
 23 24  1  0
 24 25  1  0
 18 26  1  0
 25 26  1  0
  7 27  1  0
  4 28  1  0
 27 28  1  0
M  END
