piperidine-amides-23363-covalent
     RDKit          3D

 24 26  0  0  0  0  0  0  0  0999 V2000
    7.0420   -3.3690   19.3610 C   0  0  0  0  0  0  0  0  0  0  0  0
    6.4210   -4.2270   20.3830 C   0  0  0  0  0  0  0  0  0  0  0  0
    5.4270   -4.8960   20.0030 O   0  0  0  0  0  0  0  0  0  0  0  0
    6.9520   -4.3280   21.7030 N   0  0  0  0  0  0  0  0  0  0  0  0
    6.6980   -5.5230   22.4560 C   0  0  0  0  0  0  0  0  0  0  0  0
    6.2420   -5.2350   23.8080 C   0  0  0  0  0  0  0  0  0  0  0  0
    6.3110   -3.7960   24.0490 C   0  0  0  0  0  0  0  0  0  0  0  0
    5.8150   -3.3220   25.3890 C   0  0  0  0  0  0  0  0  0  0  0  0
    4.8900   -2.4920   25.3700 O   0  0  0  0  0  0  0  0  0  0  0  0
    6.2510   -3.7270   26.6740 N   0  0  0  0  0  0  0  0  0  0  0  0
    5.8630   -2.9830   27.7460 C   0  0  0  0  0  0  0  0  0  0  0  0
    4.5200   -3.3480   28.0830 C   0  0  0  0  0  0  0  0  0  0  0  0
    4.5640   -4.3260   29.2320 C   0  0  0  0  0  0  0  0  0  0  0  0
    3.9880   -4.3230   30.4810 C   0  0  0  0  0  0  0  0  0  0  0  0
    4.4290   -5.6120   31.1790 C   0  0  0  0  0  0  0  0  0  0  0  0
    3.9710   -5.8640   32.4690 O   0  0  0  0  0  0  0  0  0  0  0  0
    3.1020   -6.9550   32.4360 C   0  0  0  0  0  0  0  0  0  0  0  0
    5.3780   -6.6090   30.4830 C   0  0  0  0  0  0  0  0  0  0  0  0
    5.7890   -7.8080   31.2460 C   0  0  0  0  0  0  0  0  0  0  0  0
    5.9480   -6.5040   29.0850 C   0  0  0  0  0  0  0  0  0  0  0  0
    5.4640   -5.2470   28.4230 C   0  0  0  0  0  0  0  0  0  0  0  0
    5.9160   -5.0790   26.9960 C   0  0  0  0  0  0  0  0  0  0  0  0
    7.6200   -3.2320   23.6370 C   0  0  0  0  0  0  0  0  0  0  0  0
    7.7480   -3.2330   22.2520 C   0  0  0  0  0  0  0  0  0  0  0  0
  1  2  1  0
  2  3  2  0
  2  4  1  0
  4  5  1  0
  5  6  1  0
  6  7  1  0
  7  8  1  0
  8  9  2  0
  8 10  1  0
 10 11  1  0
 11 12  1  0
 12 13  1  0
 13 14  2  0
 14 15  1  0
 15 16  1  0
 16 17  1  0
 15 18  2  0
 18 19  1  0
 18 20  1  0
 13 21  1  0
 20 21  2  0
 10 22  1  0
 21 22  1  0
  7 23  1  0
  4 24  1  0
 23 24  1  0
M  END
