piperidine-amides-4270-covalent
     RDKit          3D

 26 28  0  0  0  0  0  0  0  0999 V2000
    7.1010   -3.3490   19.3230 C   0  0  0  0  0  0  0  0  0  0  0  0
    6.3640   -4.1500   20.3100 C   0  0  0  0  0  0  0  0  0  0  0  0
    5.2970   -4.6840   19.9300 O   0  0  0  0  0  0  0  0  0  0  0  0
    6.8850   -4.3550   21.6110 N   0  0  0  0  0  0  0  0  0  0  0  0
    7.6150   -3.2890   22.2040 C   0  0  0  0  0  0  0  0  0  0  0  0
    7.2330   -3.0090   23.5690 C   0  0  0  0  0  0  0  0  0  0  0  0
    5.9850   -3.6700   23.9940 C   0  0  0  0  0  0  0  0  0  0  0  0
    5.6780   -3.2650   25.3950 C   0  0  0  0  0  0  0  0  0  0  0  0
    4.5540   -3.4800   25.8880 O   0  0  0  0  0  0  0  0  0  0  0  0
    6.6760   -2.6250   26.1340 N   0  0  0  0  0  0  0  0  0  0  0  0
    6.5560   -1.5850   27.0800 C   0  0  0  0  0  0  0  0  0  0  0  0
    7.0120   -1.5900   28.4650 C   0  0  0  0  0  0  0  0  0  0  0  0
    6.8150   -0.3370   29.3590 C   0  0  0  0  0  0  0  0  0  0  0  0
    6.2050    0.8410   28.9160 C   0  0  0  0  0  0  0  0  0  0  0  0
    5.7620    0.7370   27.4570 C   0  0  0  0  0  0  0  0  0  0  0  0
    5.1730    2.1040   27.2910 C   0  0  0  0  0  0  0  0  0  0  0  0
    3.8460    2.1630   27.4940 N   0  0  0  0  0  0  0  0  0  0  0  0
    3.3110    2.3980   28.7050 C   0  0  0  0  0  0  0  0  0  0  0  0
    1.8150    2.5690   28.7680 C   0  0  0  0  0  0  0  0  0  0  0  0
    1.0780    3.3920   27.3800 S   0  0  0  0  0  0  0  0  0  0  0  0
    2.4610    3.9610   26.3900 C   0  0  0  0  0  0  0  0  0  0  0  0
    3.7070    3.0500   26.3880 C   0  0  0  0  0  0  0  0  0  0  0  0
    5.9030   -0.3440   26.5930 C   0  0  0  0  0  0  0  0  0  0  0  0
    5.5040   -0.4330   25.2630 C   0  0  0  0  0  0  0  0  0  0  0  0
    5.9600   -5.1420   23.7480 C   0  0  0  0  0  0  0  0  0  0  0  0
    6.4920   -5.5090   22.3760 C   0  0  0  0  0  0  0  0  0  0  0  0
  1  2  1  0
  2  3  2  0
  2  4  1  0
  4  5  1  0
  5  6  1  0
  6  7  1  0
  7  8  1  0
  8  9  2  0
  8 10  1  0
 10 11  1  0
 11 12  2  0
 12 13  1  0
 13 14  2  0
 14 15  1  0
 15 16  1  0
 16 17  1  0
 17 18  1  0
 18 19  1  0
 19 20  1  0
 20 21  1  0
 17 22  1  0
 21 22  1  0
 11 23  1  0
 15 23  2  0
 23 24  1  0
  7 25  1  0
  4 26  1  0
 25 26  1  0
M  END
