piperidine-amides-28080-covalent
     RDKit          3D

 26 28  0  0  0  0  0  0  0  0999 V2000
    7.0720   -3.3490   19.3580 C   0  0  0  0  0  0  0  0  0  0  0  0
    6.4230   -4.2170   20.3660 C   0  0  0  0  0  0  0  0  0  0  0  0
    5.4000   -4.8260   19.9840 O   0  0  0  0  0  0  0  0  0  0  0  0
    6.9660   -4.3790   21.6580 N   0  0  0  0  0  0  0  0  0  0  0  0
    7.6250   -3.2820   22.2960 C   0  0  0  0  0  0  0  0  0  0  0  0
    6.8440   -2.7200   23.3940 C   0  0  0  0  0  0  0  0  0  0  0  0
    5.9770   -3.7230   24.0320 C   0  0  0  0  0  0  0  0  0  0  0  0
    5.5700   -3.3210   25.4090 C   0  0  0  0  0  0  0  0  0  0  0  0
    4.3490   -3.1550   25.5840 O   0  0  0  0  0  0  0  0  0  0  0  0
    6.4380   -3.1140   26.5070 N   0  0  0  0  0  0  0  0  0  0  0  0
    6.5980   -4.2350   27.4870 C   0  0  0  0  0  0  0  0  0  0  0  0
    7.3280   -5.4380   26.9710 C   0  0  0  0  0  0  0  0  0  0  0  0
    6.4610   -1.8490   27.1880 C   0  0  0  0  0  0  0  0  0  0  0  0
    6.9930   -1.7100   28.4400 C   0  0  0  0  0  0  0  0  0  0  0  0
    7.0470   -0.5490   29.1780 C   0  0  0  0  0  0  0  0  0  0  0  0
    6.5280    0.6030   28.6420 C   0  0  0  0  0  0  0  0  0  0  0  0
    6.5560    1.8190   29.3710 N   0  0  0  0  0  0  0  0  0  0  0  0
    6.9260    1.7360   30.7640 C   0  0  0  0  0  0  0  0  0  0  0  0
    5.7530    1.7990   31.4460 C   0  0  0  0  0  0  0  0  0  0  0  0
    5.2290    3.0250   31.3600 O   0  0  0  0  0  0  0  0  0  0  0  0
    5.6910    3.7810   30.2790 C   0  0  0  0  0  0  0  0  0  0  0  0
    5.5810    2.9100   29.0850 C   0  0  0  0  0  0  0  0  0  0  0  0
    5.9660    0.6000   27.3820 C   0  0  0  0  0  0  0  0  0  0  0  0
    5.9350   -0.6990   26.6190 C   0  0  0  0  0  0  0  0  0  0  0  0
    6.4200   -5.1200   23.9070 C   0  0  0  0  0  0  0  0  0  0  0  0
    6.6630   -5.5520   22.4680 C   0  0  0  0  0  0  0  0  0  0  0  0
  1  2  1  0
  2  3  2  0
  2  4  1  0
  4  5  1  0
  5  6  1  0
  6  7  1  0
  7  8  1  0
  8  9  2  0
  8 10  1  0
 10 11  1  0
 11 12  1  0
 10 13  1  0
 13 14  2  0
 14 15  1  0
 15 16  2  0
 16 17  1  0
 17 18  1  0
 18 19  1  0
 19 20  1  0
 20 21  1  0
 17 22  1  0
 21 22  1  0
 16 23  1  0
 13 24  1  0
 23 24  2  0
  7 25  1  0
  4 26  1  0
 25 26  1  0
M  END
