piperidine-amides-1928-covalent
     RDKit          3D

 25 26  0  0  0  0  0  0  0  0999 V2000
    7.1000   -3.2520   19.2320 C   0  0  0  0  0  0  0  0  0  0  0  0
    6.3590   -4.0230   20.2680 C   0  0  0  0  0  0  0  0  0  0  0  0
    5.3280   -4.5890   19.9060 O   0  0  0  0  0  0  0  0  0  0  0  0
    6.8570   -4.1150   21.5750 N   0  0  0  0  0  0  0  0  0  0  0  0
    7.7360   -3.0990   22.1180 C   0  0  0  0  0  0  0  0  0  0  0  0
    7.4690   -2.9080   23.5840 C   0  0  0  0  0  0  0  0  0  0  0  0
    6.1290   -3.5540   23.9150 C   0  0  0  0  0  0  0  0  0  0  0  0
    5.6890   -3.1060   25.2560 C   0  0  0  0  0  0  0  0  0  0  0  0
    4.6820   -2.3910   25.3380 O   0  0  0  0  0  0  0  0  0  0  0  0
    6.3550   -3.4690   26.4450 N   0  0  0  0  0  0  0  0  0  0  0  0
    5.5680   -4.1810   27.4190 C   0  0  2  0  0  0  0  0  0  0  0  0
    6.3420   -4.7120   28.5840 C   0  0  0  0  0  0  0  0  0  0  0  0
    5.5670   -5.5120   29.8610 S   0  0  0  0  0  0  0  0  0  0  0  0
    6.1880   -7.1800   29.4590 C   0  0  0  0  0  0  0  0  0  0  0  0
    4.9120   -5.3240   26.7190 C   0  0  0  0  0  0  0  0  0  0  0  0
    5.5480   -6.0270   25.7320 O   0  0  0  0  0  0  0  0  0  0  0  0
    3.5840   -5.8560   26.9430 N   0  0  0  0  0  0  0  0  0  0  0  0
    3.3310   -7.2390   26.6630 C   0  0  0  0  0  0  0  0  0  0  0  0
    1.9350   -7.6810   27.0700 C   0  0  0  0  0  0  0  0  0  0  0  0
    1.9670   -6.8500   28.3170 C   0  0  2  0  0  0  0  0  0  0  0  0
    0.5250   -6.4350   28.4610 C   0  0  0  0  0  0  0  0  0  0  0  0
    0.3790   -5.8900   29.7320 O   0  0  0  0  0  0  0  0  0  0  0  0
    2.6540   -5.5350   28.0110 C   0  0  0  0  0  0  0  0  0  0  0  0
    6.1630   -5.0390   23.7120 C   0  0  0  0  0  0  0  0  0  0  0  0
    6.6480   -5.3490   22.3060 C   0  0  0  0  0  0  0  0  0  0  0  0
  1  2  1  0
  2  3  2  0
  2  4  1  0
  4  5  1  0
  5  6  1  0
  6  7  1  0
  7  8  1  0
  8  9  2  0
  8 10  1  0
 10 11  1  0
 11 12  1  1
 12 13  1  0
 13 14  1  0
 11 15  1  0
 15 16  2  0
 15 17  1  0
 17 18  1  0
 18 19  1  0
 19 20  1  0
 20 21  1  6
 21 22  1  0
 17 23  1  0
 20 23  1  0
  7 24  1  0
  4 25  1  0
 24 25  1  0
M  END
