piperidine-amides-23511-covalent
     RDKit          3D

 22 23  0  0  0  0  0  0  0  0999 V2000
    7.0770   -3.3640   19.3050 C   0  0  0  0  0  0  0  0  0  0  0  0
    6.4250   -4.2030   20.3210 C   0  0  0  0  0  0  0  0  0  0  0  0
    5.3780   -4.8030   19.9750 O   0  0  0  0  0  0  0  0  0  0  0  0
    7.0040   -4.3630   21.6080 N   0  0  0  0  0  0  0  0  0  0  0  0
    6.6740   -5.5270   22.3700 C   0  0  0  0  0  0  0  0  0  0  0  0
    6.1870   -5.2010   23.7000 C   0  0  0  0  0  0  0  0  0  0  0  0
    6.1930   -3.7530   23.9310 C   0  0  0  0  0  0  0  0  0  0  0  0
    5.5510   -3.3410   25.2090 C   0  0  0  0  0  0  0  0  0  0  0  0
    4.5890   -2.5580   25.1600 O   0  0  0  0  0  0  0  0  0  0  0  0
    5.9490   -3.7810   26.4700 N   0  0  0  0  0  0  0  0  0  0  0  0
    6.4430   -2.8760   27.4100 C   0  0  0  0  0  0  0  0  0  0  0  0
    6.8490   -3.3160   28.7260 C   0  0  0  0  0  0  0  0  0  0  0  0
    5.5750   -3.7050   29.4720 C   0  0  0  0  0  0  0  0  0  0  0  0
    4.7260   -2.8820   30.1920 C   0  0  0  0  0  0  0  0  0  0  0  0
    4.4080   -2.9290   28.8280 C   0  0  0  0  0  0  0  0  0  0  0  0
    5.1040   -5.3350   29.5300 S   0  0  0  0  0  0  0  0  0  0  0  0
    5.7100   -6.0720   30.6890 O   0  0  0  0  0  0  0  0  0  0  0  0
    3.6420   -5.5550   29.3710 O   0  0  0  0  0  0  0  0  0  0  0  0
    5.9080   -5.5200   28.0810 C   0  0  0  0  0  0  0  0  0  0  0  0
    5.0960   -4.8030   27.0030 C   0  0  0  0  0  0  0  0  0  0  0  0
    7.5360   -3.1370   23.6790 C   0  0  0  0  0  0  0  0  0  0  0  0
    7.7950   -3.2840   22.1920 C   0  0  0  0  0  0  0  0  0  0  0  0
  1  2  1  0
  2  3  2  0
  2  4  1  0
  4  5  1  0
  5  6  1  0
  6  7  1  0
  7  8  1  0
  8  9  2  0
  8 10  1  0
 10 11  1  0
 11 12  1  0
 12 13  1  0
 13 14  1  0
 13 15  1  0
 13 16  1  0
 16 17  2  0
 16 18  2  0
 16 19  1  0
 10 20  1  0
 19 20  1  0
  7 21  1  0
  4 22  1  0
 21 22  1  0
M  END
