piperidine-amides-25164-covalent
     RDKit          3D

 24 24  0  0  0  0  0  0  0  0999 V2000
    7.1390   -3.2670   19.1750 C   0  0  0  0  0  0  0  0  0  0  0  0
    6.3210   -3.9780   20.1830 C   0  0  0  0  0  0  0  0  0  0  0  0
    5.2350   -4.4220   19.8260 O   0  0  0  0  0  0  0  0  0  0  0  0
    6.8270   -4.1730   21.4580 N   0  0  0  0  0  0  0  0  0  0  0  0
    6.5270   -5.3550   22.2180 C   0  0  0  0  0  0  0  0  0  0  0  0
    5.7320   -4.9540   23.4210 C   0  0  0  0  0  0  0  0  0  0  0  0
    6.5210   -3.8890   24.1750 C   0  0  0  0  0  0  0  0  0  0  0  0
    5.7080   -3.5120   25.3410 C   0  0  0  0  0  0  0  0  0  0  0  0
    4.5840   -3.0400   25.1590 O   0  0  0  0  0  0  0  0  0  0  0  0
    6.1740   -3.7110   26.6500 N   0  0  0  0  0  0  0  0  0  0  0  0
    6.3070   -2.5360   27.4940 C   0  0  0  0  0  0  0  0  0  0  0  0
    4.9310   -1.9080   27.6420 C   0  0  0  0  0  0  0  0  0  0  0  0
    3.9800   -2.6100   28.3550 O   0  0  0  0  0  0  0  0  0  0  0  0
    4.6960   -0.6750   27.0740 O   0  0  0  0  0  0  0  0  0  0  0  0
    4.1230   -0.5300   25.8220 C   0  0  0  0  0  0  0  0  0  0  0  0
    4.7780   -0.8000   24.6620 C   0  0  0  0  0  0  0  0  0  0  0  0
    3.5530    0.8750   25.6490 C   0  0  0  0  0  0  0  0  0  0  0  0
    2.9160   -1.4180   25.8380 C   0  0  0  0  0  0  0  0  0  0  0  0
    6.0420   -5.0480   27.1630 C   0  0  2  0  0  0  0  0  0  0  0  0
    4.8080   -5.8500   27.3180 C   0  0  0  0  0  0  0  0  0  0  0  0
    6.5820   -5.3210   28.5490 C   0  0  0  0  0  0  0  0  0  0  0  0
    5.7430   -6.0760   29.5280 C   0  0  0  0  0  0  0  0  0  0  0  0
    7.0010   -2.7460   23.3750 C   0  0  0  0  0  0  0  0  0  0  0  0
    7.6210   -3.1390   22.0960 C   0  0  0  0  0  0  0  0  0  0  0  0
  1  2  1  0
  2  3  2  0
  2  4  1  0
  4  5  1  0
  5  6  1  0
  6  7  1  0
  7  8  1  0
  8  9  2  0
  8 10  1  0
 10 11  1  0
 11 12  1  0
 12 13  2  0
 12 14  1  0
 15 14  1  0
 15 16  1  0
 15 17  1  0
 15 18  1  0
 10 19  1  0
 19 20  1  1
 19 21  1  0
 21 22  1  0
  7 23  1  0
  4 24  1  0
 23 24  1  0
M  END
