piperidine-amides-11633-covalent
     RDKit          3D

 19 20  0  0  0  0  0  0  0  0999 V2000
    7.0780   -3.3530   19.3370 C   0  0  0  0  0  0  0  0  0  0  0  0
    6.3940   -4.2080   20.2970 C   0  0  0  0  0  0  0  0  0  0  0  0
    5.3760   -4.8190   19.9760 O   0  0  0  0  0  0  0  0  0  0  0  0
    6.9540   -4.3730   21.6070 N   0  0  0  0  0  0  0  0  0  0  0  0
    7.6990   -3.2910   22.1770 C   0  0  0  0  0  0  0  0  0  0  0  0
    6.9280   -2.7280   23.3240 C   0  0  0  0  0  0  0  0  0  0  0  0
    6.4750   -3.8890   24.1940 C   0  0  0  0  0  0  0  0  0  0  0  0
    5.7730   -3.3450   25.3960 C   0  0  0  0  0  0  0  0  0  0  0  0
    4.5300   -3.3960   25.5680 O   0  0  0  0  0  0  0  0  0  0  0  0
    6.5900   -2.7180   26.3670 N   0  0  0  0  0  0  0  0  0  0  0  0
    6.0310   -1.7590   27.2940 C   0  0  1  0  0  0  0  0  0  0  0  0
    7.0450   -1.4290   28.3570 C   0  0  0  0  0  0  0  0  0  0  0  0
    6.7580   -0.4030   29.2060 C   0  0  0  0  0  0  0  0  0  0  0  0
    6.1860    0.7510   28.6830 C   0  0  0  0  0  0  0  0  0  0  0  0
    5.7880    0.7480   27.3520 C   0  0  0  0  0  0  0  0  0  0  0  0
    5.7650   -0.4690   26.5340 C   0  0  1  0  0  0  0  0  0  0  0  0
    6.3450   -0.5050   25.2860 C   0  0  0  0  0  0  0  0  0  0  0  0
    5.5570   -4.7940   23.3790 C   0  0  0  0  0  0  0  0  0  0  0  0
    6.3730   -5.4140   22.4280 C   0  0  0  0  0  0  0  0  0  0  0  0
  1  2  1  0
  2  3  2  0
  2  4  1  0
  4  5  1  0
  5  6  1  0
  6  7  1  0
  7  8  1  0
  8  9  2  0
  8 10  1  0
 11 10  1  6
 11 12  1  0
 12 13  1  0
 13 14  1  0
 14 15  1  0
 11 16  1  0
 15 16  1  0
 16 17  1  6
  7 18  1  0
  4 19  1  0
 18 19  1  0
M  END
