piperidine-amides-5520-covalent
     RDKit          3D

 19 19  0  0  0  0  0  0  0  0999 V2000
    7.1390   -3.2620   19.1740 C   0  0  0  0  0  0  0  0  0  0  0  0
    6.3640   -3.9840   20.1820 C   0  0  0  0  0  0  0  0  0  0  0  0
    5.2840   -4.5070   19.8690 O   0  0  0  0  0  0  0  0  0  0  0  0
    6.8550   -4.1420   21.4820 N   0  0  0  0  0  0  0  0  0  0  0  0
    7.7180   -3.1700   22.1120 C   0  0  0  0  0  0  0  0  0  0  0  0
    6.9530   -2.6760   23.3040 C   0  0  0  0  0  0  0  0  0  0  0  0
    6.4530   -3.8110   24.1450 C   0  0  0  0  0  0  0  0  0  0  0  0
    5.6590   -3.3660   25.3070 C   0  0  0  0  0  0  0  0  0  0  0  0
    4.6660   -2.5920   25.1730 O   0  0  0  0  0  0  0  0  0  0  0  0
    5.9720   -3.7890   26.6020 N   0  0  0  0  0  0  0  0  0  0  0  0
    6.6840   -5.0670   26.7700 C   0  0  2  0  0  0  0  0  0  0  0  0
    6.0880   -5.7750   27.9170 C   0  0  0  0  0  0  0  0  0  0  0  0
    5.5940   -6.9130   27.7210 O   0  0  0  0  0  0  0  0  0  0  0  0
    8.1180   -4.7650   27.1260 C   0  0  0  0  0  0  0  0  0  0  0  0
    8.6920   -4.3330   25.7960 C   0  0  0  0  0  0  0  0  0  0  0  0
    8.8670   -5.9170   27.6760 C   0  0  0  0  0  0  0  0  0  0  0  0
    8.1140   -3.6350   28.1800 C   0  0  0  0  0  0  0  0  0  0  0  0
    5.6640   -4.7920   23.3030 C   0  0  0  0  0  0  0  0  0  0  0  0
    6.4240   -5.2860   22.2400 C   0  0  0  0  0  0  0  0  0  0  0  0
  1  2  1  0
  2  3  2  0
  2  4  1  0
  4  5  1  0
  5  6  1  0
  6  7  1  0
  7  8  1  0
  8  9  2  0
  8 10  1  0
 10 11  1  0
 11 12  1  1
 12 13  1  0
 11 14  1  0
 14 15  1  0
 14 16  1  0
 14 17  1  0
  7 18  1  0
  4 19  1  0
 18 19  1  0
M  END
