piperidine-amides-15154-covalent
     RDKit          3D

 20 21  0  0  0  0  0  0  0  0999 V2000
    7.0770   -3.2850   19.2290 C   0  0  0  0  0  0  0  0  0  0  0  0
    6.3650   -4.0630   20.2440 C   0  0  0  0  0  0  0  0  0  0  0  0
    5.3030   -4.6130   19.9100 O   0  0  0  0  0  0  0  0  0  0  0  0
    6.9040   -4.2210   21.5480 N   0  0  0  0  0  0  0  0  0  0  0  0
    7.6400   -3.1380   22.1430 C   0  0  0  0  0  0  0  0  0  0  0  0
    6.8840   -2.6070   23.3210 C   0  0  0  0  0  0  0  0  0  0  0  0
    6.6230   -3.7920   24.2150 C   0  0  0  0  0  0  0  0  0  0  0  0
    5.8140   -3.3630   25.4060 C   0  0  0  0  0  0  0  0  0  0  0  0
    4.6070   -3.2270   25.2250 O   0  0  0  0  0  0  0  0  0  0  0  0
    6.4850   -3.1340   26.6110 N   0  0  0  0  0  0  0  0  0  0  0  0
    6.0480   -3.6460   27.8790 C   0  0  0  0  0  0  0  0  0  0  0  0
    6.3200   -5.0040   28.1530 C   0  0  0  0  0  0  0  0  0  0  0  0
    5.2300   -5.4890   29.0250 N   0  0  0  0  0  0  0  0  0  0  0  0
    5.2670   -6.5440   29.9730 C   0  0  0  0  0  0  0  0  0  0  0  0
    4.1070   -7.3130   30.0700 C   0  0  0  0  0  0  0  0  0  0  0  0
    3.1740   -6.5030   29.2140 C   0  0  1  0  0  0  0  0  0  0  0  0
    2.0310   -6.3640   29.9620 O   0  0  0  0  0  0  0  0  0  0  0  0
    3.9890   -5.3560   28.5940 C   0  0  0  0  0  0  0  0  0  0  0  0
    5.8560   -4.9040   23.5800 C   0  0  0  0  0  0  0  0  0  0  0  0
    6.4550   -5.3540   22.2820 C   0  0  0  0  0  0  0  0  0  0  0  0
  1  2  1  0
  2  3  2  0
  2  4  1  0
  4  5  1  0
  5  6  1  0
  6  7  1  0
  7  8  1  0
  8  9  2  0
  8 10  1  0
 10 11  1  0
 11 12  1  0
 12 13  1  0
 13 14  1  0
 14 15  1  0
 15 16  1  0
 16 17  1  1
 13 18  1  0
 16 18  1  0
  7 19  1  0
  4 20  1  0
 19 20  1  0
M  END
