piperidine-amides-34308-covalent
     RDKit          3D

 26 28  0  0  0  0  0  0  0  0999 V2000
    7.0750   -3.3390   19.3480 C   0  0  0  0  0  0  0  0  0  0  0  0
    6.4130   -4.2200   20.3180 C   0  0  0  0  0  0  0  0  0  0  0  0
    5.3780   -4.8360   19.9830 O   0  0  0  0  0  0  0  0  0  0  0  0
    6.9560   -4.4350   21.5950 N   0  0  0  0  0  0  0  0  0  0  0  0
    6.4800   -5.5720   22.3310 C   0  0  0  0  0  0  0  0  0  0  0  0
    5.5600   -4.9790   23.3980 C   0  0  0  0  0  0  0  0  0  0  0  0
    6.4130   -4.0370   24.2220 C   0  0  0  0  0  0  0  0  0  0  0  0
    5.5770   -3.4100   25.2730 C   0  0  0  0  0  0  0  0  0  0  0  0
    4.7850   -2.5230   24.9070 O   0  0  0  0  0  0  0  0  0  0  0  0
    5.6220   -3.7840   26.6420 N   0  0  0  0  0  0  0  0  0  0  0  0
    4.3820   -3.8040   27.3310 C   0  0  0  0  0  0  0  0  0  0  0  0
    4.4950   -4.6190   28.6100 C   0  0  0  0  0  0  0  0  0  0  0  0
    5.6840   -4.7880   29.2510 C   0  0  0  0  0  0  0  0  0  0  0  0
    5.6060   -5.9750   30.0140 N   0  0  0  0  0  0  0  0  0  0  0  0
    4.3910   -6.2410   30.6860 C   0  0  0  0  0  0  0  0  0  0  0  0
    3.1420   -5.7370   30.3580 O   0  0  0  0  0  0  0  0  0  0  0  0
    4.5140   -7.0970   31.7800 C   0  0  0  0  0  0  0  0  0  0  0  0
    5.6030   -7.7790   32.1170 C   0  0  0  0  0  0  0  0  0  0  0  0
    5.5490   -8.6570   33.3420 C   0  0  0  0  0  0  0  0  0  0  0  0
    4.0760   -8.1920   33.5020 C   0  0  0  0  0  0  0  0  0  0  0  0
    3.1250   -8.9130   34.9860 Br  0  0  0  0  0  0  0  0  0  0  0  0
    3.5220   -7.3570   32.6700 O   0  0  0  0  0  0  0  0  0  0  0  0
    6.7200   -4.5720   28.4460 C   0  0  0  0  0  0  0  0  0  0  0  0
    6.4720   -3.3460   27.6800 C   0  0  0  0  0  0  0  0  0  0  0  0
    6.9600   -2.9250   23.3640 C   0  0  0  0  0  0  0  0  0  0  0  0
    7.6330   -3.3680   22.2630 C   0  0  0  0  0  0  0  0  0  0  0  0
  1  2  1  0
  2  3  2  0
  2  4  1  0
  4  5  1  0
  5  6  1  0
  6  7  1  0
  7  8  1  0
  8  9  2  0
  8 10  1  0
 10 11  1  0
 11 12  1  0
 12 13  1  0
 13 14  1  0
 14 15  1  0
 15 16  2  0
 15 17  1  0
 17 18  2  0
 18 19  1  0
 19 20  2  0
 20 21  1  0
 17 22  1  0
 20 22  1  0
 13 23  1  0
 10 24  1  0
 23 24  1  0
  7 25  1  0
  4 26  1  0
 25 26  1  0
M  END
