piperidine-amides-31623-covalent
     RDKit          3D

 28 30  0  0  0  0  0  0  0  0999 V2000
    7.0660   -3.3880   19.2750 C   0  0  0  0  0  0  0  0  0  0  0  0
    6.3840   -4.1540   20.2880 C   0  0  0  0  0  0  0  0  0  0  0  0
    5.3190   -4.7550   19.9560 O   0  0  0  0  0  0  0  0  0  0  0  0
    6.8850   -4.3140   21.5920 N   0  0  0  0  0  0  0  0  0  0  0  0
    6.3590   -5.4620   22.3630 C   0  0  0  0  0  0  0  0  0  0  0  0
    5.4860   -4.6660   23.4040 C   0  0  0  0  0  0  0  0  0  0  0  0
    6.5220   -4.0540   24.3020 C   0  0  0  0  0  0  0  0  0  0  0  0
    5.9750   -2.9420   25.3030 C   0  0  0  0  0  0  0  0  0  0  0  0
    6.4630   -1.8650   25.0650 O   0  0  0  0  0  0  0  0  0  0  0  0
    5.1450   -3.4520   26.0990 N   0  0  0  0  0  0  0  0  0  0  0  0
    4.1440   -3.8970   26.8010 C   0  0  0  0  0  0  0  0  0  0  0  0
    4.2160   -5.0190   27.6430 C   0  0  0  0  0  0  0  0  0  0  0  0
    5.6470   -5.3600   28.1140 N   0  0  0  0  0  0  0  0  0  0  0  0
    5.6300   -5.1140   29.4530 C   0  0  0  0  0  0  0  0  0  0  0  0
    5.2510   -3.8640   29.9620 O   0  0  0  0  0  0  0  0  0  0  0  0
    5.9750   -6.1580   30.3300 O   0  0  0  0  0  0  0  0  0  0  0  0
    5.0540   -6.9530   31.0050 C   0  0  0  0  0  0  0  0  0  0  0  0
    5.4770   -7.7280   32.2580 C   0  0  0  0  0  0  0  0  0  0  0  0
    4.4490   -6.4240   32.3150 C   0  0  0  0  0  0  0  0  0  0  0  0
    4.1300   -7.7590   30.1300 C   0  0  0  0  0  0  0  0  0  0  0  0
    6.5410   -4.2440   27.8850 C   0  0  0  0  0  0  0  0  0  0  0  0
    7.0010   -5.1820   28.9450 C   0  0  0  0  0  0  0  0  0  0  0  0
    6.2270   -6.3000   29.0060 C   0  0  0  0  0  0  0  0  0  0  0  0
    5.1540   -6.4510   28.1360 C   0  0  0  0  0  0  0  0  0  0  0  0
    4.8230   -5.4850   27.1820 C   0  0  0  0  0  0  0  0  0  0  0  0
    5.5900   -4.3110   27.0740 C   0  0  0  0  0  0  0  0  0  0  0  0
    7.7910   -3.5970   23.6660 C   0  0  0  0  0  0  0  0  0  0  0  0
    7.6230   -3.2430   22.2240 C   0  0  0  0  0  0  0  0  0  0  0  0
  1  2  1  0
  2  3  2  0
  2  4  1  0
  4  5  1  0
  5  6  1  0
  6  7  1  0
  7  8  1  0
  8  9  2  0
  8 10  1  0
 10 11  1  0
 11 12  1  0
 12 13  1  0
 13 14  1  0
 14 15  2  0
 14 16  1  0
 17 16  1  0
 17 18  1  0
 17 19  1  0
 17 20  1  0
 13 21  1  0
 21 22  2  0
 22 23  1  0
 23 24  2  0
 24 25  1  0
 10 26  1  0
 21 26  1  0
 25 26  2  0
  7 27  1  0
  4 28  1  0
 27 28  1  0
M  END
