piperidine-amides-32604-covalent
     RDKit          3D

 28 30  0  0  0  0  0  0  0  0999 V2000
    6.9990   -3.3670   19.4290 C   0  0  0  0  0  0  0  0  0  0  0  0
    6.3320   -4.2690   20.4210 C   0  0  0  0  0  0  0  0  0  0  0  0
    5.4180   -5.0060   20.0120 O   0  0  0  0  0  0  0  0  0  0  0  0
    6.7620   -4.2820   21.7780 N   0  0  0  0  0  0  0  0  0  0  0  0
    6.6900   -5.4790   22.6070 C   0  0  0  0  0  0  0  0  0  0  0  0
    6.1480   -5.1480   24.0310 C   0  0  0  0  0  0  0  0  0  0  0  0
    6.3650   -3.6980   24.3260 C   0  0  0  0  0  0  0  0  0  0  0  0
    6.2830   -3.2110   25.7560 C   0  0  0  0  0  0  0  0  0  0  0  0
    6.6410   -2.0550   25.8990 O   0  0  0  0  0  0  0  0  0  0  0  0
    5.7550   -3.9430   26.8580 N   0  0  0  0  0  0  0  0  0  0  0  0
    4.4060   -3.8480   27.1290 C   0  0  0  0  0  0  0  0  0  0  0  0
    3.9460   -4.6790   28.0690 C   0  0  0  0  0  0  0  0  0  0  0  0
    4.6340   -5.8710   28.1170 C   0  0  0  0  0  0  0  0  0  0  0  0
    5.4270   -5.7930   29.2670 N   0  0  0  0  0  0  0  0  0  0  0  0
    5.0990   -6.5330   30.3860 C   0  0  0  0  0  0  0  0  0  0  0  0
    3.8460   -7.3210   30.5300 C   0  0  0  0  0  0  0  0  0  0  0  0
    3.4440   -8.1270   31.7590 C   0  0  0  0  0  0  0  0  0  0  0  0
    4.4490   -8.0870   32.9070 C   0  0  0  0  0  0  0  0  0  0  0  0
    4.3500   -8.7110   34.1370 C   0  0  0  0  0  0  0  0  0  0  0  0
    4.2060   -7.9540   35.2670 F   0  0  0  0  0  0  0  0  0  0  0  0
    3.1500   -9.4830   34.1320 F   0  0  0  0  0  0  0  0  0  0  0  0
    5.3530   -9.6930   34.3000 F   0  0  0  0  0  0  0  0  0  0  0  0
    5.6760   -7.2760   32.6650 C   0  0  0  0  0  0  0  0  0  0  0  0
    5.9470   -6.5900   31.5280 N   0  0  0  0  0  0  0  0  0  0  0  0
    6.6300   -5.2920   28.6510 C   0  0  0  0  0  0  0  0  0  0  0  0
    6.4590   -3.9600   28.1830 C   0  0  0  0  0  0  0  0  0  0  0  0
    7.6400   -3.1660   23.7560 C   0  0  0  0  0  0  0  0  0  0  0  0
    7.6360   -3.2180   22.2490 C   0  0  0  0  0  0  0  0  0  0  0  0
  1  2  1  0
  2  3  2  0
  2  4  1  0
  4  5  1  0
  5  6  1  0
  6  7  1  0
  7  8  1  0
  8  9  2  0
  8 10  1  0
 10 11  1  0
 11 12  1  0
 12 13  1  0
 13 14  1  0
 14 15  1  0
 15 16  2  0
 16 17  1  0
 17 18  2  0
 18 19  1  0
 19 20  1  0
 19 21  1  0
 19 22  1  0
 18 23  1  0
 15 24  1  0
 23 24  2  0
 14 25  1  0
 10 26  1  0
 25 26  1  0
  7 27  1  0
  4 28  1  0
 27 28  1  0
M  END
