piperidine-amides-429-covalent
     RDKit          3D

 27 29  0  0  0  0  0  0  0  0999 V2000
    7.1470   -3.3230   19.3860 C   0  0  0  0  0  0  0  0  0  0  0  0
    6.4540   -4.1400   20.3500 C   0  0  0  0  0  0  0  0  0  0  0  0
    5.4230   -4.7950   19.9770 O   0  0  0  0  0  0  0  0  0  0  0  0
    6.9230   -4.2560   21.6710 N   0  0  0  0  0  0  0  0  0  0  0  0
    7.5900   -3.0490   22.2460 C   0  0  0  0  0  0  0  0  0  0  0  0
    7.5520   -3.2940   23.8060 C   0  0  0  0  0  0  0  0  0  0  0  0
    6.1170   -3.6300   24.1320 C   0  0  0  0  0  0  0  0  0  0  0  0
    5.8550   -3.8120   25.6870 C   0  0  0  0  0  0  0  0  0  0  0  0
    5.7650   -4.9950   25.9190 O   0  0  0  0  0  0  0  0  0  0  0  0
    5.7640   -2.7120   26.3220 N   0  0  0  0  0  0  0  0  0  0  0  0
    5.5460   -1.6300   27.1280 C   0  0  0  0  0  0  0  0  0  0  0  0
    4.5770   -1.2220   28.0180 C   0  0  0  0  0  0  0  0  0  0  0  0
    4.4970   -1.7660   29.3820 C   0  0  0  0  0  0  0  0  0  0  0  0
    3.5130   -1.4350   30.4650 C   0  0  0  0  0  0  0  0  0  0  0  0
    2.6720   -0.4200   29.7530 C   0  0  0  0  0  0  0  0  0  0  0  0
    1.5900    0.1910   30.3970 C   0  0  0  0  0  0  0  0  0  0  0  0
    0.4520   -0.1420   29.6780 F   0  0  0  0  0  0  0  0  0  0  0  0
    1.3820   -0.3180   31.6880 F   0  0  0  0  0  0  0  0  0  0  0  0
    1.7160    1.5470   30.4370 F   0  0  0  0  0  0  0  0  0  0  0  0
    2.4850    0.2990   28.4860 C   0  0  0  0  0  0  0  0  0  0  0  0
    3.5560   -0.1610   27.5260 C   0  0  0  0  0  0  0  0  0  0  0  0
    6.0500   -0.3660   26.3070 C   0  0  0  0  0  0  0  0  0  0  0  0
    6.1790    0.2070   27.6020 C   0  0  0  0  0  0  0  0  0  0  0  0
    6.7540   -0.5240   28.5990 C   0  0  0  0  0  0  0  0  0  0  0  0
    6.4420   -1.7410   28.3580 C   0  0  0  0  0  0  0  0  0  0  0  0
    5.5450   -4.7820   23.3730 C   0  0  0  0  0  0  0  0  0  0  0  0
    6.4940   -5.3220   22.5200 C   0  0  0  0  0  0  0  0  0  0  0  0
  1  2  1  0
  2  3  2  0
  2  4  1  0
  4  5  1  0
  5  6  1  0
  6  7  1  0
  7  8  1  0
  8  9  2  0
  8 10  1  0
 11 10  1  0
 11 12  1  0
 12 13  2  0
 13 14  1  0
 14 15  2  0
 15 16  1  0
 16 17  1  0
 16 18  1  0
 16 19  1  0
 15 20  1  0
 12 21  1  0
 20 21  2  0
 11 22  1  0
 22 23  1  0
 23 24  1  0
 11 25  1  0
 24 25  1  0
  7 26  1  0
  4 27  1  0
 26 27  1  0
M  END
