piperidine-amides-35490-covalent
     RDKit          3D

 36 40  0  0  0  0  0  0  0  0999 V2000
    7.0440   -3.3470   19.3400 C   0  0  0  0  0  0  0  0  0  0  0  0
    6.4030   -4.2060   20.3720 C   0  0  0  0  0  0  0  0  0  0  0  0
    5.4280   -4.8620   19.9980 O   0  0  0  0  0  0  0  0  0  0  0  0
    6.9320   -4.2790   21.6760 N   0  0  0  0  0  0  0  0  0  0  0  0
    7.7910   -3.2180   22.1940 C   0  0  0  0  0  0  0  0  0  0  0  0
    7.4570   -2.8790   23.6220 C   0  0  0  0  0  0  0  0  0  0  0  0
    6.1200   -3.5230   23.9330 C   0  0  0  0  0  0  0  0  0  0  0  0
    5.5690   -2.9800   25.1980 C   0  0  0  0  0  0  0  0  0  0  0  0
    4.4610   -2.4350   25.1300 O   0  0  0  0  0  0  0  0  0  0  0  0
    6.1780   -3.0460   26.4740 N   0  0  0  0  0  0  0  0  0  0  0  0
    5.6720   -4.2010   27.1770 C   0  0  0  0  0  0  0  0  0  0  0  0
    6.3100   -4.5370   28.4750 C   0  0  0  0  0  0  0  0  0  0  0  0
    5.8520   -5.5710   29.2150 C   0  0  0  0  0  0  0  0  0  0  0  0
    4.7960   -6.3000   28.7710 C   0  0  0  0  0  0  0  0  0  0  0  0
    4.1610   -7.4250   29.4790 N   0  0  0  0  0  0  0  0  0  0  0  0
    3.1200   -7.8710   28.6160 C   0  0  0  0  0  0  0  0  0  0  0  0
    3.2210   -6.9760   27.4600 C   0  0  0  0  0  0  0  0  0  0  0  0
    2.1620   -7.4090   26.5010 C   0  0  0  0  0  0  0  0  0  0  0  0
    2.9250   -7.7020   25.2240 C   0  0  0  0  0  0  0  0  0  0  0  0
    2.0090   -8.1640   24.1330 C   0  0  0  0  0  0  0  0  0  0  0  0
    0.5410   -8.2940   24.3560 C   0  0  0  0  0  0  0  0  0  0  0  0
   -0.2240   -8.7210   23.3190 F   0  0  0  0  0  0  0  0  0  0  0  0
   -0.0510   -7.9540   25.7070 C   0  0  0  0  0  0  0  0  0  0  0  0
   -1.5120   -8.0670   25.9860 C   0  0  0  0  0  0  0  0  0  0  0  0
   -1.9820   -9.1260   26.6690 N   0  0  0  0  0  0  0  0  0  0  0  0
    0.8110   -7.5260   26.7080 C   0  0  0  0  0  0  0  0  0  0  0  0
    4.1980   -6.0180   27.5310 N   0  0  0  0  0  0  0  0  0  0  0  0
    4.6510   -5.0090   26.7950 N   0  0  0  0  0  0  0  0  0  0  0  0
    6.0590   -1.8200   27.2610 C   0  0  0  0  0  0  0  0  0  0  0  0
    7.0440   -1.5860   28.4150 C   0  0  0  0  0  0  0  0  0  0  0  0
    6.6260   -0.3740   29.1940 C   0  0  0  0  0  0  0  0  0  0  0  0
    6.0910    0.2560   28.2950 O   0  0  0  0  0  0  0  0  0  0  0  0
    5.6340    0.6030   27.1770 C   0  0  0  0  0  0  0  0  0  0  0  0
    5.9530   -0.4860   26.3700 C   0  0  0  0  0  0  0  0  0  0  0  0
    6.1050   -4.9770   23.8140 C   0  0  0  0  0  0  0  0  0  0  0  0
    6.7000   -5.4170   22.5180 C   0  0  0  0  0  0  0  0  0  0  0  0
  1  2  1  0
  2  3  2  0
  2  4  1  0
  4  5  1  0
  5  6  1  0
  6  7  1  0
  7  8  1  0
  8  9  2  0
  8 10  1  0
 10 11  1  0
 11 12  1  0
 12 13  2  0
 13 14  1  0
 14 15  2  0
 15 16  1  0
 16 17  2  0
 17 18  1  0
 18 19  2  0
 19 20  1  0
 20 21  2  0
 21 22  1  0
 21 23  1  0
 23 24  1  0
 24 25  3  0
 18 26  1  0
 23 26  2  0
 14 27  1  0
 17 27  1  0
 11 28  2  0
 27 28  1  0
 10 29  1  0
 29 30  1  0
 30 31  1  0
 31 32  1  0
 32 33  1  0
 29 34  1  0
 33 34  1  0
  7 35  1  0
  4 36  1  0
 35 36  1  0
M  END
