piperidine-amides-12594-covalent
     RDKit          3D

 23 24  0  0  0  0  0  0  0  0999 V2000
    7.0700   -3.3020   19.2150 C   0  0  0  0  0  0  0  0  0  0  0  0
    6.3510   -4.0810   20.2470 C   0  0  0  0  0  0  0  0  0  0  0  0
    5.2740   -4.6010   19.8980 O   0  0  0  0  0  0  0  0  0  0  0  0
    6.8850   -4.2720   21.5250 N   0  0  0  0  0  0  0  0  0  0  0  0
    7.6280   -3.2210   22.1540 C   0  0  0  0  0  0  0  0  0  0  0  0
    7.3010   -2.9690   23.5540 C   0  0  0  0  0  0  0  0  0  0  0  0
    6.4580   -3.9830   24.2140 C   0  0  0  0  0  0  0  0  0  0  0  0
    5.7610   -3.3480   25.3570 C   0  0  0  0  0  0  0  0  0  0  0  0
    4.5250   -3.1940   25.2960 O   0  0  0  0  0  0  0  0  0  0  0  0
    6.4900   -2.9350   26.4900 N   0  0  0  0  0  0  0  0  0  0  0  0
    6.4080   -1.5970   27.1240 C   0  0  0  0  0  0  0  0  0  0  0  0
    6.8970   -1.4220   28.4960 C   0  0  0  0  0  0  0  0  0  0  0  0
    6.8320   -0.1360   29.1730 C   0  0  0  0  0  0  0  0  0  0  0  0
    7.4890    0.0020   30.9740 Br  0  0  0  0  0  0  0  0  0  0  0  0
    6.3130    1.0210   28.5900 C   0  0  0  0  0  0  0  0  0  0  0  0
    5.8390    0.8650   27.2550 N   0  0  0  0  0  0  0  0  0  0  0  0
    5.8770   -0.3890   26.5320 C   0  0  0  0  0  0  0  0  0  0  0  0
    5.4260   -0.4680   25.3100 O   0  0  0  0  0  0  0  0  0  0  0  0
    4.7560    0.5060   24.5800 C   0  0  0  0  0  0  0  0  0  0  0  0
    5.4230    1.6980   24.5580 C   0  0  0  0  0  0  0  0  0  0  0  0
    4.6060    2.8350   24.2750 O   0  0  0  0  0  0  0  0  0  0  0  0
    5.6030   -4.7940   23.3240 C   0  0  0  0  0  0  0  0  0  0  0  0
    6.3950   -5.3570   22.3290 C   0  0  0  0  0  0  0  0  0  0  0  0
  1  2  1  0
  2  3  2  0
  2  4  1  0
  4  5  1  0
  5  6  1  0
  6  7  1  0
  7  8  1  0
  8  9  2  0
  8 10  1  0
 10 11  1  0
 11 12  2  0
 12 13  1  0
 13 14  1  0
 13 15  2  0
 15 16  1  0
 11 17  1  0
 16 17  2  0
 17 18  1  0
 18 19  1  0
 19 20  1  0
 20 21  1  0
  7 22  1  0
  4 23  1  0
 22 23  1  0
M  END
