piperidine-amides-23479-covalent
     RDKit          3D

 24 26  0  0  0  0  0  0  0  0999 V2000
    7.0870   -3.4040   19.3510 C   0  0  0  0  0  0  0  0  0  0  0  0
    6.4220   -4.2430   20.3520 C   0  0  0  0  0  0  0  0  0  0  0  0
    5.3760   -4.8330   19.9850 O   0  0  0  0  0  0  0  0  0  0  0  0
    6.9910   -4.4170   21.6440 N   0  0  0  0  0  0  0  0  0  0  0  0
    6.6720   -5.5940   22.3790 C   0  0  0  0  0  0  0  0  0  0  0  0
    6.0530   -5.2450   23.6380 C   0  0  0  0  0  0  0  0  0  0  0  0
    6.0250   -3.7870   23.7590 C   0  0  0  0  0  0  0  0  0  0  0  0
    5.2010   -3.2990   24.9140 C   0  0  0  0  0  0  0  0  0  0  0  0
    4.2310   -2.5670   24.6840 O   0  0  0  0  0  0  0  0  0  0  0  0
    5.4450   -3.6170   26.2400 N   0  0  0  0  0  0  0  0  0  0  0  0
    4.4510   -4.0440   27.1530 C   0  0  0  0  0  0  0  0  0  0  0  0
    4.7640   -4.4520   28.5210 C   0  0  0  0  0  0  0  0  0  0  0  0
    5.8220   -3.5060   29.0670 C   0  0  0  0  0  0  0  0  0  0  0  0
    5.3390   -2.2660   29.4750 C   0  0  0  0  0  0  0  0  0  0  0  0
    4.5110   -1.9750   30.5460 N   0  0  0  0  0  0  0  0  0  0  0  0
    4.1000   -0.6590   30.8500 C   0  0  0  0  0  0  0  0  0  0  0  0
    4.5290    0.5240   30.0330 C   0  0  0  0  0  0  0  0  0  0  0  0
    5.4490    0.0830   28.8660 C   0  0  0  0  0  0  0  0  0  0  0  0
    6.0540    1.0290   27.8540 C   0  0  0  0  0  0  0  0  0  0  0  0
    5.7440   -1.2450   28.7230 N   0  0  0  0  0  0  0  0  0  0  0  0
    6.7650   -3.2940   28.1800 C   0  0  0  0  0  0  0  0  0  0  0  0
    6.4920   -2.8630   26.7650 C   0  0  0  0  0  0  0  0  0  0  0  0
    7.4140   -3.2520   23.6650 C   0  0  0  0  0  0  0  0  0  0  0  0
    7.7050   -3.3130   22.2880 C   0  0  0  0  0  0  0  0  0  0  0  0
  1  2  1  0
  2  3  2  0
  2  4  1  0
  4  5  1  0
  5  6  1  0
  6  7  1  0
  7  8  1  0
  8  9  2  0
  8 10  1  0
 10 11  1  0
 11 12  1  0
 12 13  1  0
 13 14  1  0
 14 15  2  0
 15 16  1  0
 16 17  2  0
 17 18  1  0
 18 19  1  0
 14 20  1  0
 18 20  2  0
 13 21  1  0
 10 22  1  0
 21 22  1  0
  7 23  1  0
  4 24  1  0
 23 24  1  0
M  END
