piperidine-amides-4375-covalent
     RDKit          3D

 25 27  0  0  0  0  0  0  0  0999 V2000
    7.0640   -3.3520   19.2950 C   0  0  0  0  0  0  0  0  0  0  0  0
    6.4020   -4.1700   20.3240 C   0  0  0  0  0  0  0  0  0  0  0  0
    5.3660   -4.7860   19.9710 O   0  0  0  0  0  0  0  0  0  0  0  0
    6.9460   -4.3010   21.6280 N   0  0  0  0  0  0  0  0  0  0  0  0
    6.5880   -5.4400   22.4070 C   0  0  0  0  0  0  0  0  0  0  0  0
    6.1200   -5.1030   23.7490 C   0  0  0  0  0  0  0  0  0  0  0  0
    6.1730   -3.6640   24.0630 C   0  0  0  0  0  0  0  0  0  0  0  0
    5.7330   -3.3770   25.4670 C   0  0  0  0  0  0  0  0  0  0  0  0
    4.6310   -3.8180   25.8370 O   0  0  0  0  0  0  0  0  0  0  0  0
    6.4890   -2.6090   26.3730 N   0  0  0  0  0  0  0  0  0  0  0  0
    5.9790   -1.5470   27.1650 C   0  0  2  0  0  0  0  0  0  0  0  0
    5.3950   -0.3540   26.4710 C   0  0  0  0  0  0  0  0  0  0  0  0
    4.9440    0.8340   27.4250 C   0  0  0  0  0  0  0  0  0  0  0  0
    6.0040    1.6720   27.7760 C   0  0  0  0  0  0  0  0  0  0  0  0
    6.5490    0.3540   27.4180 C   0  0  0  0  0  0  0  0  0  0  0  0
    6.1880    1.4480   26.5970 C   0  0  0  0  0  0  0  0  0  0  0  0
    6.0290    1.6980   28.2420 C   0  0  0  0  0  0  0  0  0  0  0  0
    6.2130    1.0120   29.7210 C   0  0  0  0  0  0  0  0  0  0  0  0
    5.8950    1.7780   30.8620 O   0  0  0  0  0  0  0  0  0  0  0  0
    4.5570    1.7820   31.3250 C   0  0  0  0  0  0  0  0  0  0  0  0
    6.7120   -0.4300   29.9030 C   0  0  0  0  0  0  0  0  0  0  0  0
    6.5920    0.0740   28.6550 C   0  0  0  0  0  0  0  0  0  0  0  0
    6.9900   -1.1310   28.1590 C   0  0  0  0  0  0  0  0  0  0  0  0
    7.4470   -3.0100   23.6630 C   0  0  0  0  0  0  0  0  0  0  0  0
    7.7120   -3.2100   22.1920 C   0  0  0  0  0  0  0  0  0  0  0  0
  1  2  1  0
  2  3  2  0
  2  4  1  0
  4  5  1  0
  5  6  1  0
  6  7  1  0
  7  8  1  0
  8  9  2  0
  8 10  1  0
 11 10  1  6
 11 12  1  0
 12 13  1  0
 13 14  1  0
 14 15  1  0
 15 16  1  0
 16 17  2  0
 17 18  1  0
 18 19  1  0
 19 20  1  0
 18 21  2  0
 15 22  2  0
 21 22  1  0
 11 23  1  0
 22 23  1  0
  7 24  1  0
  4 25  1  0
 24 25  1  0
M  END
