piperidine-amides-23328-covalent
     RDKit          3D

 24 26  0  0  0  0  0  0  0  0999 V2000
    7.0400   -3.3740   19.3820 C   0  0  0  0  0  0  0  0  0  0  0  0
    6.4060   -4.2320   20.3950 C   0  0  0  0  0  0  0  0  0  0  0  0
    5.4090   -4.8930   20.0020 O   0  0  0  0  0  0  0  0  0  0  0  0
    6.9190   -4.3580   21.7250 N   0  0  0  0  0  0  0  0  0  0  0  0
    6.4410   -5.3920   22.5610 C   0  0  0  0  0  0  0  0  0  0  0  0
    6.1420   -4.9920   23.9490 C   0  0  0  0  0  0  0  0  0  0  0  0
    6.4670   -3.5970   24.3890 C   0  0  0  0  0  0  0  0  0  0  0  0
    5.3520   -3.0310   25.2650 C   0  0  0  0  0  0  0  0  0  0  0  0
    4.2620   -2.8000   24.7260 O   0  0  0  0  0  0  0  0  0  0  0  0
    5.4540   -2.7640   26.6630 N   0  0  0  0  0  0  0  0  0  0  0  0
    6.5100   -3.1590   27.4070 C   0  0  0  0  0  0  0  0  0  0  0  0
    6.0390   -4.2350   28.2660 C   0  0  0  0  0  0  0  0  0  0  0  0
    6.7960   -5.4270   29.1950 C   0  0  0  0  0  0  0  0  0  0  0  0
    6.0360   -6.4310   29.9920 C   0  0  0  0  0  0  0  0  0  0  0  0
    4.8900   -5.7970   29.5190 C   0  0  0  0  0  0  0  0  0  0  0  0
    3.4960   -6.2060   29.8680 C   0  0  0  0  0  0  0  0  0  0  0  0
    2.5790   -6.0660   28.8220 O   0  0  0  0  0  0  0  0  0  0  0  0
    3.1380   -6.6790   31.1300 O   0  0  0  0  0  0  0  0  0  0  0  0
    3.1190   -8.0780   31.3270 C   0  0  0  0  0  0  0  0  0  0  0  0
    5.6990   -4.9120   28.8080 C   0  0  0  0  0  0  0  0  0  0  0  0
    4.5100   -4.3140   28.3590 C   0  0  0  0  0  0  0  0  0  0  0  0
    4.2720   -3.1120   27.4070 C   0  0  0  0  0  0  0  0  0  0  0  0
    6.7780   -2.7010   23.2240 C   0  0  0  0  0  0  0  0  0  0  0  0
    7.6930   -3.3200   22.3690 C   0  0  0  0  0  0  0  0  0  0  0  0
  1  2  1  0
  2  3  2  0
  2  4  1  0
  4  5  1  0
  5  6  1  0
  6  7  1  0
  7  8  1  0
  8  9  2  0
  8 10  1  0
 10 11  1  0
 11 12  1  0
 12 13  1  0
 13 14  2  0
 14 15  1  0
 15 16  1  0
 16 17  2  0
 16 18  1  0
 18 19  1  0
 15 20  2  0
 12 21  2  0
 20 21  1  0
 10 22  1  0
 21 22  1  0
  7 23  1  0
  4 24  1  0
 23 24  1  0
M  END
