piperidine-amides-12552-covalent
     RDKit          3D

 23 25  0  0  0  0  0  0  0  0999 V2000
    7.1280   -3.2080   19.1140 C   0  0  0  0  0  0  0  0  0  0  0  0
    6.3290   -3.8800   20.1640 C   0  0  0  0  0  0  0  0  0  0  0  0
    5.2580   -4.4190   19.8190 O   0  0  0  0  0  0  0  0  0  0  0  0
    6.7850   -3.9370   21.4800 N   0  0  0  0  0  0  0  0  0  0  0  0
    7.5040   -2.8440   22.0230 C   0  0  0  0  0  0  0  0  0  0  0  0
    6.8560   -2.2370   23.1930 C   0  0  0  0  0  0  0  0  0  0  0  0
    5.6390   -2.9090   23.7390 C   0  0  0  0  0  0  0  0  0  0  0  0
    5.4700   -2.6400   25.2070 C   0  0  0  0  0  0  0  0  0  0  0  0
    4.4240   -3.0560   25.7420 O   0  0  0  0  0  0  0  0  0  0  0  0
    6.4280   -1.9280   25.9840 N   0  0  0  0  0  0  0  0  0  0  0  0
    6.4990   -1.9980   27.4720 C   0  0  0  0  0  0  0  0  0  0  0  0
    7.2020   -3.2170   27.9010 C   0  0  1  0  0  0  0  0  0  0  0  0
    6.8140   -4.2810   27.2130 C   0  0  0  0  0  0  0  0  0  0  0  0
    8.0490   -4.2310   26.9470 C   0  0  0  0  0  0  0  0  0  0  0  0
    8.5440   -3.5730   25.8100 C   0  0  0  0  0  0  0  0  0  0  0  0
    7.9040   -3.9000   24.7000 C   0  0  0  0  0  0  0  0  0  0  0  0
    7.8680   -5.6620   25.0110 S   0  0  0  0  0  0  0  0  0  0  0  0
    6.5840   -5.8800   25.7140 O   0  0  0  0  0  0  0  0  0  0  0  0
    7.9530   -6.3730   23.7150 O   0  0  0  0  0  0  0  0  0  0  0  0
    9.2910   -5.9380   26.1630 C   0  0  0  0  0  0  0  0  0  0  0  0
    8.7270   -5.3950   27.2470 C   0  0  0  0  0  0  0  0  0  0  0  0
    5.4830   -4.3990   23.4230 C   0  0  0  0  0  0  0  0  0  0  0  0
    6.4000   -4.9630   22.3940 C   0  0  0  0  0  0  0  0  0  0  0  0
  1  2  1  0
  2  3  2  0
  2  4  1  0
  4  5  1  0
  5  6  1  0
  6  7  1  0
  7  8  1  0
  8  9  2  0
  8 10  1  0
 10 11  1  0
 12 11  1  6
 12 13  1  0
 12 14  1  0
 14 13  1  0
 14 15  1  0
 15 16  1  0
 17 16  1  0
 17 18  2  0
 17 19  2  0
 17 20  1  0
 14 21  1  0
 20 21  1  0
  7 22  1  0
  4 23  1  0
 22 23  1  0
M  END
