piperidine-amides-34838-covalent
     RDKit          3D

 30 33  0  0  0  0  0  0  0  0999 V2000
    7.0670   -3.3120   19.3000 C   0  0  0  0  0  0  0  0  0  0  0  0
    6.3810   -4.1430   20.3230 C   0  0  0  0  0  0  0  0  0  0  0  0
    5.3950   -4.7890   19.9660 O   0  0  0  0  0  0  0  0  0  0  0  0
    6.8840   -4.1980   21.6230 N   0  0  0  0  0  0  0  0  0  0  0  0
    7.7690   -3.1940   22.1590 C   0  0  0  0  0  0  0  0  0  0  0  0
    7.2330   -2.6980   23.4610 C   0  0  0  0  0  0  0  0  0  0  0  0
    5.8230   -3.2570   23.6630 C   0  0  0  0  0  0  0  0  0  0  0  0
    5.2140   -2.5730   24.8340 C   0  0  0  0  0  0  0  0  0  0  0  0
    4.1080   -2.0450   24.7090 O   0  0  0  0  0  0  0  0  0  0  0  0
    5.8440   -2.5460   26.0860 N   0  0  0  0  0  0  0  0  0  0  0  0
    6.0820   -1.3830   26.9040 C   0  0  0  0  0  0  0  0  0  0  0  0
    5.3330   -0.1170   26.5810 C   0  0  0  0  0  0  0  0  0  0  0  0
    5.4630    1.0410   27.3180 C   0  0  0  0  0  0  0  0  0  0  0  0
    6.3090    1.0300   28.3920 C   0  0  0  0  0  0  0  0  0  0  0  0
    7.0090   -0.0890   28.7170 C   0  0  0  0  0  0  0  0  0  0  0  0
    6.9400   -1.3790   27.9700 C   0  0  0  0  0  0  0  0  0  0  0  0
    7.8480   -2.7960   28.3830 Cl  0  0  0  0  0  0  0  0  0  0  0  0
    5.7720   -3.6690   26.8620 C   0  0  0  0  0  0  0  0  0  0  0  0
    4.5680   -3.7210   27.7060 N   0  0  0  0  0  0  0  0  0  0  0  0
    4.2490   -5.1130   27.9050 C   0  0  0  0  0  0  0  0  0  0  0  0
    2.6110   -5.5230   27.6930 S   0  0  0  0  0  0  0  0  0  0  0  0
    5.2810   -5.8990   28.2370 N   0  0  0  0  0  0  0  0  0  0  0  0
    6.5850   -5.6320   27.6940 C   0  0  0  0  0  0  0  0  0  0  0  0
    7.8700   -6.2800   27.9040 C   0  0  0  0  0  0  0  0  0  0  0  0
    9.0970   -6.0440   27.0820 C   0  0  0  0  0  0  0  0  0  0  0  0
    9.0140   -5.0810   26.0050 C   0  0  0  0  0  0  0  0  0  0  0  0
    7.7340   -4.3350   25.9350 C   0  0  0  0  0  0  0  0  0  0  0  0
    6.7130   -4.5860   26.8460 C   0  0  0  0  0  0  0  0  0  0  0  0
    5.8450   -4.7700   23.6910 C   0  0  0  0  0  0  0  0  0  0  0  0
    6.5970   -5.3520   22.4820 C   0  0  0  0  0  0  0  0  0  0  0  0
  1  2  1  0
  2  3  2  0
  2  4  1  0
  4  5  1  0
  5  6  1  0
  6  7  1  0
  7  8  1  0
  8  9  2  0
  8 10  1  0
 10 11  1  0
 11 12  2  0
 12 13  1  0
 13 14  2  0
 14 15  1  0
 11 16  1  0
 15 16  2  0
 16 17  1  0
 10 18  1  0
 18 19  1  0
 19 20  1  0
 20 21  2  0
 20 22  1  0
 22 23  2  0
 23 24  1  0
 24 25  2  0
 25 26  1  0
 26 27  2  0
 18 28  2  0
 23 28  1  0
 27 28  1  0
  7 29  1  0
  4 30  1  0
 29 30  1  0
M  END
