piperidine-amides-9322-covalent
     RDKit          3D

 20 21  0  0  0  0  0  0  0  0999 V2000
    7.1180   -3.3390   19.2800 C   0  0  0  0  0  0  0  0  0  0  0  0
    6.3710   -4.0970   20.2770 C   0  0  0  0  0  0  0  0  0  0  0  0
    5.3290   -4.6860   19.9420 O   0  0  0  0  0  0  0  0  0  0  0  0
    6.8580   -4.2090   21.5850 N   0  0  0  0  0  0  0  0  0  0  0  0
    7.7350   -3.2210   22.1680 C   0  0  0  0  0  0  0  0  0  0  0  0
    6.9960   -2.7010   23.3580 C   0  0  0  0  0  0  0  0  0  0  0  0
    6.5530   -3.8150   24.2480 C   0  0  0  0  0  0  0  0  0  0  0  0
    5.7750   -3.3160   25.3980 C   0  0  0  0  0  0  0  0  0  0  0  0
    4.5460   -3.0350   25.2640 O   0  0  0  0  0  0  0  0  0  0  0  0
    6.3340   -3.1250   26.6780 N   0  0  0  0  0  0  0  0  0  0  0  0
    6.3510   -1.7710   27.2700 C   0  0  0  0  0  0  0  0  0  0  0  0
    5.8090   -0.5990   26.5600 C   0  0  0  0  0  0  0  0  0  0  0  0
    5.8340    0.7270   27.1990 C   0  0  0  0  0  0  0  0  0  0  0  0
    6.4050    0.9280   28.5820 C   0  0  0  0  0  0  0  0  0  0  0  0
    6.4220    2.6660   29.3950 Br  0  0  0  0  0  0  0  0  0  0  0  0
    6.9630   -0.2940   29.2920 C   0  0  0  0  0  0  0  0  0  0  0  0
    7.5130   -0.1150   30.6060 F   0  0  0  0  0  0  0  0  0  0  0  0
    6.9230   -1.6110   28.6180 C   0  0  0  0  0  0  0  0  0  0  0  0
    5.7650   -4.8470   23.4620 C   0  0  0  0  0  0  0  0  0  0  0  0
    6.4880   -5.3550   22.3770 C   0  0  0  0  0  0  0  0  0  0  0  0
  1  2  1  0
  2  3  2  0
  2  4  1  0
  4  5  1  0
  5  6  1  0
  6  7  1  0
  7  8  1  0
  8  9  2  0
  8 10  1  0
 10 11  1  0
 11 12  2  0
 12 13  1  0
 13 14  2  0
 14 15  1  0
 14 16  1  0
 16 17  1  0
 11 18  1  0
 16 18  2  0
  7 19  1  0
  4 20  1  0
 19 20  1  0
M  END
