piperidine-amides-3631-covalent
     RDKit          3D

 19 20  0  0  0  0  0  0  0  0999 V2000
    7.1750   -3.2720   19.1870 C   0  0  0  0  0  0  0  0  0  0  0  0
    6.3460   -3.9800   20.1690 C   0  0  0  0  0  0  0  0  0  0  0  0
    5.2180   -4.3770   19.8030 O   0  0  0  0  0  0  0  0  0  0  0  0
    6.8370   -4.2730   21.4560 N   0  0  0  0  0  0  0  0  0  0  0  0
    7.5980   -3.2540   22.1050 C   0  0  0  0  0  0  0  0  0  0  0  0
    7.1980   -2.9310   23.4670 C   0  0  0  0  0  0  0  0  0  0  0  0
    6.3900   -3.9450   24.1710 C   0  0  0  0  0  0  0  0  0  0  0  0
    5.7840   -3.3370   25.3930 C   0  0  0  0  0  0  0  0  0  0  0  0
    4.5800   -3.0100   25.3910 O   0  0  0  0  0  0  0  0  0  0  0  0
    6.5700   -3.1230   26.5380 N   0  0  0  0  0  0  0  0  0  0  0  0
    6.2960   -3.4590   27.8830 C   0  0  0  0  0  0  0  0  0  0  0  0
    6.7290   -4.6790   28.5560 C   0  0  0  0  0  0  0  0  0  0  0  0
    6.1960   -5.9350   27.8440 C   0  0  0  0  0  0  0  0  0  0  0  0
    5.0210   -5.8990   27.1340 C   0  0  0  0  0  0  0  0  0  0  0  0
    4.2240   -5.8940   28.4640 C   0  0  0  0  0  0  0  0  0  0  0  0
    4.6950   -7.2790   28.8380 C   0  0  0  0  0  0  0  0  0  0  0  0
    6.0480   -6.6220   29.1160 C   0  0  0  0  0  0  0  0  0  0  0  0
    5.4020   -4.6780   23.3110 C   0  0  0  0  0  0  0  0  0  0  0  0
    6.2310   -5.3260   22.2260 C   0  0  0  0  0  0  0  0  0  0  0  0
  1  2  1  0
  2  3  2  0
  2  4  1  0
  4  5  1  0
  5  6  1  0
  6  7  1  0
  7  8  1  0
  8  9  2  0
  8 10  1  0
 10 11  1  0
 11 12  1  0
 12 13  1  0
 13 14  1  0
 14 15  1  0
 15 16  1  0
 13 17  1  0
 16 17  1  0
  7 18  1  0
  4 19  1  0
 18 19  1  0
M  END
