piperidine-amides-27198-covalent
     RDKit          3D

 24 25  0  0  0  0  0  0  0  0999 V2000
    7.0890   -3.2870   19.2610 C   0  0  0  0  0  0  0  0  0  0  0  0
    6.3060   -4.0180   20.2610 C   0  0  0  0  0  0  0  0  0  0  0  0
    5.2270   -4.5260   19.8670 O   0  0  0  0  0  0  0  0  0  0  0  0
    6.7830   -4.1710   21.5620 N   0  0  0  0  0  0  0  0  0  0  0  0
    6.5640   -5.3990   22.2830 C   0  0  0  0  0  0  0  0  0  0  0  0
    6.0090   -5.0560   23.6390 C   0  0  0  0  0  0  0  0  0  0  0  0
    6.7750   -3.9390   24.3120 C   0  0  0  0  0  0  0  0  0  0  0  0
    6.0170   -3.4230   25.4810 C   0  0  0  0  0  0  0  0  0  0  0  0
    4.8940   -2.9170   25.2660 O   0  0  0  0  0  0  0  0  0  0  0  0
    6.4810   -3.4730   26.8260 N   0  0  0  0  0  0  0  0  0  0  0  0
    6.5290   -2.2070   27.5360 C   0  0  0  0  0  0  0  0  0  0  0  0
    5.3520   -2.0640   28.4980 C   0  0  0  0  0  0  0  0  0  0  0  0
    4.1270   -2.6730   28.2870 C   0  0  0  0  0  0  0  0  0  0  0  0
    3.1010   -2.5160   29.1770 C   0  0  0  0  0  0  0  0  0  0  0  0
    3.2030   -1.7630   30.3150 C   0  0  0  0  0  0  0  0  0  0  0  0
    4.4220   -1.1550   30.5270 C   0  0  0  0  0  0  0  0  0  0  0  0
    5.4880   -1.2900   29.6490 C   0  0  0  0  0  0  0  0  0  0  0  0
    6.9840   -0.4610   30.0370 Cl  0  0  0  0  0  0  0  0  0  0  0  0
    6.3040   -4.7050   27.5330 C   0  0  1  0  0  0  0  0  0  0  0  0
    5.4740   -5.7360   26.8000 C   0  0  0  0  0  0  0  0  0  0  0  0
    7.4360   -5.2390   28.0970 C   0  0  0  0  0  0  0  0  0  0  0  0
    7.1910   -6.3900   28.8590 O   0  0  0  0  0  0  0  0  0  0  0  0
    6.9630   -2.7850   23.3620 C   0  0  0  0  0  0  0  0  0  0  0  0
    7.6220   -3.1690   22.2240 C   0  0  0  0  0  0  0  0  0  0  0  0
  1  2  1  0
  2  3  2  0
  2  4  1  0
  4  5  1  0
  5  6  1  0
  6  7  1  0
  7  8  1  0
  8  9  2  0
  8 10  1  0
 10 11  1  0
 11 12  1  0
 12 13  2  0
 13 14  1  0
 14 15  2  0
 15 16  1  0
 12 17  1  0
 16 17  2  0
 17 18  1  0
 10 19  1  0
 19 20  1  6
 19 21  1  0
 21 22  1  0
  7 23  1  0
  4 24  1  0
 23 24  1  0
M  END
