piperidine-amides-9040-covalent
     RDKit          3D

 21 23  0  0  0  0  0  0  0  0999 V2000
    7.0460   -3.3600   19.3220 C   0  0  0  0  0  0  0  0  0  0  0  0
    6.3520   -4.2240   20.2780 C   0  0  0  0  0  0  0  0  0  0  0  0
    5.2940   -4.7700   19.9460 O   0  0  0  0  0  0  0  0  0  0  0  0
    6.8900   -4.5010   21.5380 N   0  0  0  0  0  0  0  0  0  0  0  0
    6.5620   -5.7050   22.2760 C   0  0  0  0  0  0  0  0  0  0  0  0
    5.7940   -5.2730   23.5050 C   0  0  0  0  0  0  0  0  0  0  0  0
    6.4410   -4.1120   24.2000 C   0  0  0  0  0  0  0  0  0  0  0  0
    5.6920   -3.6150   25.3700 C   0  0  0  0  0  0  0  0  0  0  0  0
    4.4520   -3.3560   25.2900 O   0  0  0  0  0  0  0  0  0  0  0  0
    6.3120   -3.3990   26.6100 N   0  0  0  0  0  0  0  0  0  0  0  0
    7.1130   -2.1820   26.8030 C   0  0  0  0  0  0  0  0  0  0  0  0
    8.2030   -2.0240   25.7950 C   0  0  0  0  0  0  0  0  0  0  0  0
    7.7760   -1.7830   24.5270 N   0  0  0  0  0  0  0  0  0  0  0  0
    8.8690   -1.6970   23.8110 N   0  0  0  0  0  0  0  0  0  0  0  0
   10.0500   -1.8820   24.6190 C   0  0  0  0  0  0  0  0  0  0  0  0
   11.3870   -1.8170   23.9250 C   0  0  0  0  0  0  0  0  0  0  0  0
    9.5600   -2.0690   25.8460 N   0  0  0  0  0  0  0  0  0  0  0  0
    6.9370   -1.1010   27.8110 C   0  0  0  0  0  0  0  0  0  0  0  0
    6.1880   -0.9520   26.7170 C   0  0  0  0  0  0  0  0  0  0  0  0
    6.6070   -3.0180   23.1760 C   0  0  0  0  0  0  0  0  0  0  0  0
    7.5310   -3.4170   22.2280 C   0  0  0  0  0  0  0  0  0  0  0  0
  1  2  1  0
  2  3  2  0
  2  4  1  0
  4  5  1  0
  5  6  1  0
  6  7  1  0
  7  8  1  0
  8  9  2  0
  8 10  1  0
 11 10  1  0
 11 12  1  0
 12 13  2  0
 13 14  1  0
 14 15  1  0
 15 16  1  0
 12 17  1  0
 15 17  2  0
 11 18  1  0
 11 19  1  0
 18 19  1  0
  7 20  1  0
  4 21  1  0
 20 21  1  0
M  END
