piperidine-amides-29380-covalent
     RDKit          3D

 27 29  0  0  0  0  0  0  0  0999 V2000
    7.0310   -3.3380   19.3600 C   0  0  0  0  0  0  0  0  0  0  0  0
    6.3870   -4.1890   20.3630 C   0  0  0  0  0  0  0  0  0  0  0  0
    5.4140   -4.8740   19.9920 O   0  0  0  0  0  0  0  0  0  0  0  0
    6.8820   -4.2590   21.7010 N   0  0  0  0  0  0  0  0  0  0  0  0
    7.6990   -3.1820   22.2130 C   0  0  0  0  0  0  0  0  0  0  0  0
    7.5150   -3.0520   23.7020 C   0  0  0  0  0  0  0  0  0  0  0  0
    6.1400   -3.6080   23.9750 C   0  0  0  0  0  0  0  0  0  0  0  0
    5.4820   -3.0710   25.2280 C   0  0  0  0  0  0  0  0  0  0  0  0
    4.3030   -2.7730   25.0630 O   0  0  0  0  0  0  0  0  0  0  0  0
    6.1290   -2.9330   26.4670 N   0  0  0  0  0  0  0  0  0  0  0  0
    5.6710   -3.8560   27.4660 C   0  0  0  0  0  0  0  0  0  0  0  0
    4.6840   -3.4950   28.3780 C   0  0  0  0  0  0  0  0  0  0  0  0
    4.2670   -4.4010   29.3050 C   0  0  0  0  0  0  0  0  0  0  0  0
    4.8290   -5.6640   29.3270 C   0  0  0  0  0  0  0  0  0  0  0  0
    4.1980   -6.4520   30.4330 C   0  0  0  0  0  0  0  0  0  0  0  0
    4.9850   -6.8580   31.4580 N   0  0  0  0  0  0  0  0  0  0  0  0
    5.8060   -6.0600   28.4450 C   0  0  0  0  0  0  0  0  0  0  0  0
    6.1490   -5.1090   27.5730 N   0  0  0  0  0  0  0  0  0  0  0  0
    6.5230   -1.5850   26.9070 C   0  0  2  0  0  0  0  0  0  0  0  0
    7.0330   -1.6770   28.3330 C   0  0  0  0  0  0  0  0  0  0  0  0
    6.4320   -0.5370   29.1750 C   0  0  0  0  0  0  0  0  0  0  0  0
    6.1880    0.6700   28.5860 C   0  0  0  0  0  0  0  0  0  0  0  0
    5.9040    0.7400   27.2420 C   0  0  2  0  0  0  0  0  0  0  0  0
    4.6770    1.5270   26.8660 C   0  0  0  0  0  0  0  0  0  0  0  0
    5.5330   -0.6420   26.7480 C   0  0  0  0  0  0  0  0  0  0  0  0
    6.2290   -5.1220   23.9000 C   0  0  0  0  0  0  0  0  0  0  0  0
    6.6140   -5.4740   22.4520 C   0  0  0  0  0  0  0  0  0  0  0  0
  1  2  1  0
  2  3  2  0
  2  4  1  0
  4  5  1  0
  5  6  1  0
  6  7  1  0
  7  8  1  0
  8  9  2  0
  8 10  1  0
 10 11  1  0
 11 12  2  0
 12 13  1  0
 13 14  2  0
 14 15  1  0
 15 16  3  0
 14 17  1  0
 11 18  1  0
 17 18  2  0
 19 10  1  1
 19 20  1  0
 20 21  1  0
 21 22  1  0
 22 23  1  0
 23 24  1  1
 19 25  1  0
 23 25  1  0
  7 26  1  0
  4 27  1  0
 26 27  1  0
M  END
