piperidine-amides-24097-covalent
     RDKit          3D

 24 26  0  0  0  0  0  0  0  0999 V2000
    7.0330   -3.3950   19.4140 C   0  0  0  0  0  0  0  0  0  0  0  0
    6.4130   -4.2710   20.4280 C   0  0  0  0  0  0  0  0  0  0  0  0
    5.4280   -4.9400   20.0160 O   0  0  0  0  0  0  0  0  0  0  0  0
    6.9220   -4.3980   21.7630 N   0  0  0  0  0  0  0  0  0  0  0  0
    6.5540   -5.5270   22.5550 C   0  0  0  0  0  0  0  0  0  0  0  0
    6.0270   -5.1520   23.8640 C   0  0  0  0  0  0  0  0  0  0  0  0
    5.9130   -3.6880   24.0190 C   0  0  0  0  0  0  0  0  0  0  0  0
    5.0350   -3.1820   25.1690 C   0  0  0  0  0  0  0  0  0  0  0  0
    3.8740   -2.8880   24.8570 O   0  0  0  0  0  0  0  0  0  0  0  0
    5.3410   -3.0020   26.5510 N   0  0  0  0  0  0  0  0  0  0  0  0
    6.4980   -3.3260   27.1650 C   0  0  0  0  0  0  0  0  0  0  0  0
    6.4330   -4.4850   28.0740 C   0  0  0  0  0  0  0  0  0  0  0  0
    5.3530   -4.5810   28.8230 N   0  0  0  0  0  0  0  0  0  0  0  0
    4.6920   -5.7850   29.2530 C   0  0  0  0  0  0  0  0  0  0  0  0
    3.9160   -6.3740   28.3210 C   0  0  0  0  0  0  0  0  0  0  0  0
    3.2640   -7.6240   28.9680 C   0  0  0  0  0  0  0  0  0  0  0  0
    3.5780   -7.9610   30.4320 C   0  0  0  0  0  0  0  0  0  0  0  0
    4.5480   -7.0390   31.2060 C   0  0  0  0  0  0  0  0  0  0  0  0
    4.8950   -7.2620   32.5090 F   0  0  0  0  0  0  0  0  0  0  0  0
    5.0080   -6.0140   30.4950 N   0  0  0  0  0  0  0  0  0  0  0  0
    4.6170   -3.4070   28.8590 C   0  0  0  0  0  0  0  0  0  0  0  0
    4.3310   -2.7280   27.5190 C   0  0  0  0  0  0  0  0  0  0  0  0
    7.2850   -3.0350   23.8200 C   0  0  0  0  0  0  0  0  0  0  0  0
    7.6030   -3.2080   22.3580 C   0  0  0  0  0  0  0  0  0  0  0  0
  1  2  1  0
  2  3  2  0
  2  4  1  0
  4  5  1  0
  5  6  1  0
  6  7  1  0
  7  8  1  0
  8  9  2  0
  8 10  1  0
 10 11  1  0
 11 12  1  0
 12 13  1  0
 13 14  1  0
 14 15  2  0
 15 16  1  0
 16 17  2  0
 17 18  1  0
 18 19  1  0
 14 20  1  0
 18 20  2  0
 13 21  1  0
 10 22  1  0
 21 22  1  0
  7 23  1  0
  4 24  1  0
 23 24  1  0
M  END
