piperidine-amides-12910-covalent
     RDKit          3D

 21 22  0  0  0  0  0  0  0  0999 V2000
    7.0740   -3.3250   19.2370 C   0  0  0  0  0  0  0  0  0  0  0  0
    6.3860   -4.1280   20.2700 C   0  0  0  0  0  0  0  0  0  0  0  0
    5.3130   -4.6600   19.9280 O   0  0  0  0  0  0  0  0  0  0  0  0
    6.9530   -4.3290   21.5410 N   0  0  0  0  0  0  0  0  0  0  0  0
    6.5080   -5.4160   22.3440 C   0  0  0  0  0  0  0  0  0  0  0  0
    6.0030   -5.0060   23.6570 C   0  0  0  0  0  0  0  0  0  0  0  0
    6.6050   -3.7660   24.1980 C   0  0  0  0  0  0  0  0  0  0  0  0
    5.8210   -3.2900   25.3580 C   0  0  0  0  0  0  0  0  0  0  0  0
    4.5960   -3.1200   25.2180 O   0  0  0  0  0  0  0  0  0  0  0  0
    6.4390   -3.0330   26.5870 N   0  0  0  0  0  0  0  0  0  0  0  0
    6.3910   -1.7070   27.2300 C   0  0  0  0  0  0  0  0  0  0  0  0
    7.0080   -1.5230   28.5460 C   0  0  0  0  0  0  0  0  0  0  0  0
    6.9840   -0.2550   29.2260 C   0  0  0  0  0  0  0  0  0  0  0  0
    6.3640    0.8270   28.6290 C   0  0  0  0  0  0  0  0  0  0  0  0
    6.3540    2.0070   29.2960 F   0  0  0  0  0  0  0  0  0  0  0  0
    5.7350    0.8090   27.3790 C   0  0  0  0  0  0  0  0  0  0  0  0
    5.1830    1.9070   26.9330 O   0  0  0  0  0  0  0  0  0  0  0  0
    4.1360    2.0090   26.0290 C   0  0  0  0  0  0  0  0  0  0  0  0
    5.7530   -0.5130   26.6530 C   0  0  0  0  0  0  0  0  0  0  0  0
    6.8790   -2.7020   23.2160 C   0  0  0  0  0  0  0  0  0  0  0  0
    7.6520   -3.2440   22.1960 C   0  0  0  0  0  0  0  0  0  0  0  0
  1  2  1  0
  2  3  2  0
  2  4  1  0
  4  5  1  0
  5  6  1  0
  6  7  1  0
  7  8  1  0
  8  9  2  0
  8 10  1  0
 10 11  1  0
 11 12  2  0
 12 13  1  0
 13 14  2  0
 14 15  1  0
 14 16  1  0
 16 17  1  0
 17 18  1  0
 11 19  1  0
 16 19  2  0
  7 20  1  0
  4 21  1  0
 20 21  1  0
M  END
