piperidine-amides-5363-covalent
     RDKit          3D

 21 23  0  0  0  0  0  0  0  0999 V2000
    7.1190   -3.3460   19.2930 C   0  0  0  0  0  0  0  0  0  0  0  0
    6.3570   -4.1200   20.2690 C   0  0  0  0  0  0  0  0  0  0  0  0
    5.2900   -4.6490   19.9210 O   0  0  0  0  0  0  0  0  0  0  0  0
    6.8430   -4.3310   21.5680 N   0  0  0  0  0  0  0  0  0  0  0  0
    6.4820   -5.4830   22.3550 C   0  0  0  0  0  0  0  0  0  0  0  0
    5.7620   -4.9350   23.5620 C   0  0  0  0  0  0  0  0  0  0  0  0
    6.5370   -3.8220   24.2110 C   0  0  0  0  0  0  0  0  0  0  0  0
    5.8980   -3.2190   25.3960 C   0  0  0  0  0  0  0  0  0  0  0  0
    4.6480   -3.3230   25.5970 O   0  0  0  0  0  0  0  0  0  0  0  0
    6.6640   -2.4950   26.3350 N   0  0  0  0  0  0  0  0  0  0  0  0
    6.0460   -1.5890   27.3220 C   0  0  1  0  0  0  0  0  0  0  0  0
    6.9880   -1.4720   28.4510 C   0  0  0  0  0  0  0  0  0  0  0  0
    6.7180   -0.3710   29.3690 C   0  0  0  0  0  0  0  0  0  0  0  0
    6.9120    0.6790   28.7390 O   0  0  0  0  0  0  0  0  0  0  0  0
    5.9380    0.8950   27.7400 C   0  0  1  0  0  0  0  0  0  0  0  0
    6.1520    2.2220   27.0340 C   0  0  0  0  0  0  0  0  0  0  0  0
    5.6010    3.1650   27.8140 C   0  0  0  0  0  0  0  0  0  0  0  0
    4.9630    3.1860   26.5400 C   0  0  0  0  0  0  0  0  0  0  0  0
    5.8520   -0.2310   26.7220 C   0  0  0  0  0  0  0  0  0  0  0  0
    6.8500   -2.6770   23.2510 C   0  0  0  0  0  0  0  0  0  0  0  0
    7.6860   -3.3100   22.1540 C   0  0  0  0  0  0  0  0  0  0  0  0
  1  2  1  0
  2  3  2  0
  2  4  1  0
  4  5  1  0
  5  6  1  0
  6  7  1  0
  7  8  1  0
  8  9  2  0
  8 10  1  0
 11 10  1  6
 11 12  1  0
 12 13  1  0
 13 14  1  0
 14 15  1  0
 15 16  1  6
 16 17  1  0
 16 18  1  0
 17 18  1  0
 11 19  1  0
 15 19  1  0
  7 20  1  0
  4 21  1  0
 20 21  1  0
M  END
