piperidine-amides-2052-covalent
     RDKit          3D

 21 22  0  0  0  0  0  0  0  0999 V2000
    7.0760   -3.2610   19.2410 C   0  0  0  0  0  0  0  0  0  0  0  0
    6.3310   -4.0500   20.2580 C   0  0  0  0  0  0  0  0  0  0  0  0
    5.2870   -4.5850   19.8950 O   0  0  0  0  0  0  0  0  0  0  0  0
    6.8420   -4.1990   21.5510 N   0  0  0  0  0  0  0  0  0  0  0  0
    7.6680   -3.1890   22.1800 C   0  0  0  0  0  0  0  0  0  0  0  0
    7.3550   -3.0570   23.6480 C   0  0  0  0  0  0  0  0  0  0  0  0
    6.0310   -3.7560   23.9690 C   0  0  0  0  0  0  0  0  0  0  0  0
    5.6740   -3.5040   25.3780 C   0  0  0  0  0  0  0  0  0  0  0  0
    4.5500   -3.8360   25.7730 O   0  0  0  0  0  0  0  0  0  0  0  0
    6.5540   -2.8680   26.2720 N   0  0  0  0  0  0  0  0  0  0  0  0
    6.4290   -1.4390   26.3020 C   0  0  0  0  0  0  0  0  0  0  0  0
    6.5190   -0.9310   27.7210 C   0  0  0  0  0  0  0  0  0  0  0  0
    7.4420   -0.9180   28.6930 C   0  0  0  0  0  0  0  0  0  0  0  0
    7.1110   -0.2890   29.9140 N   0  0  0  0  0  0  0  0  0  0  0  0
    8.0030   -0.1710   31.0320 C   0  0  0  0  0  0  0  0  0  0  0  0
    5.8580    0.1630   29.8090 N   0  0  0  0  0  0  0  0  0  0  0  0
    5.4380   -0.2090   28.4630 C   0  0  0  0  0  0  0  0  0  0  0  0
    4.2090    0.0800   27.9580 O   0  0  0  0  0  0  0  0  0  0  0  0
    3.5580    1.1850   28.4000 C   0  0  0  0  0  0  0  0  0  0  0  0
    6.0720   -5.2090   23.6250 C   0  0  0  0  0  0  0  0  0  0  0  0
    6.6090   -5.4420   22.2520 C   0  0  0  0  0  0  0  0  0  0  0  0
  1  2  1  0
  2  3  2  0
  2  4  1  0
  4  5  1  0
  5  6  1  0
  6  7  1  0
  7  8  1  0
  8  9  2  0
  8 10  1  0
 10 11  1  0
 11 12  1  0
 12 13  2  0
 13 14  1  0
 14 15  1  0
 14 16  1  0
 12 17  1  0
 16 17  2  0
 17 18  1  0
 18 19  1  0
  7 20  1  0
  4 21  1  0
 20 21  1  0
M  END
