piperidine-amides-25208-covalent
     RDKit          3D

 25 27  0  0  0  0  0  0  0  0999 V2000
    7.0200   -3.3120   19.3370 C   0  0  0  0  0  0  0  0  0  0  0  0
    6.3460   -4.1460   20.3710 C   0  0  0  0  0  0  0  0  0  0  0  0
    5.3830   -4.8060   19.9780 O   0  0  0  0  0  0  0  0  0  0  0  0
    6.8140   -4.2000   21.7050 N   0  0  0  0  0  0  0  0  0  0  0  0
    6.6620   -5.3950   22.5120 C   0  0  0  0  0  0  0  0  0  0  0  0
    5.9850   -5.0540   23.8190 C   0  0  0  0  0  0  0  0  0  0  0  0
    5.9760   -3.5380   23.9890 C   0  0  0  0  0  0  0  0  0  0  0  0
    5.3420   -3.1810   25.2960 C   0  0  0  0  0  0  0  0  0  0  0  0
    4.1150   -3.0360   25.3030 O   0  0  0  0  0  0  0  0  0  0  0  0
    6.0300   -2.9920   26.5190 N   0  0  0  0  0  0  0  0  0  0  0  0
    6.6840   -1.7140   26.7340 C   0  0  0  0  0  0  0  0  0  0  0  0
    6.2150   -4.0950   27.4200 C   0  0  0  0  0  0  0  0  0  0  0  0
    5.3190   -4.3060   28.4210 C   0  0  0  0  0  0  0  0  0  0  0  0
    4.1970   -3.6240   28.6810 C   0  0  0  0  0  0  0  0  0  0  0  0
    3.5110   -4.1230   29.8070 N   0  0  0  0  0  0  0  0  0  0  0  0
    4.2660   -5.1180   30.2010 N   0  0  0  0  0  0  0  0  0  0  0  0
    4.0520   -6.0020   31.3330 C   0  0  0  0  0  0  0  0  0  0  0  0
    5.1460   -7.0370   31.6160 C   0  0  0  0  0  0  0  0  0  0  0  0
    4.9570   -7.9630   32.7830 C   0  0  0  0  0  0  0  0  0  0  0  0
    3.7310   -7.8770   33.6420 C   0  0  0  0  0  0  0  0  0  0  0  0
    2.7510   -6.8320   33.2580 C   0  0  0  0  0  0  0  0  0  0  0  0
    2.7960   -5.8490   32.1430 C   0  0  0  0  0  0  0  0  0  0  0  0
    5.3470   -5.2690   29.4140 N   0  0  0  0  0  0  0  0  0  0  0  0
    7.2510   -2.8700   23.6480 C   0  0  0  0  0  0  0  0  0  0  0  0
    7.6890   -3.1650   22.2490 C   0  0  0  0  0  0  0  0  0  0  0  0
  1  2  1  0
  2  3  2  0
  2  4  1  0
  4  5  1  0
  5  6  1  0
  6  7  1  0
  7  8  1  0
  8  9  2  0
  8 10  1  0
 10 11  1  0
 10 12  1  0
 12 13  1  0
 13 14  1  0
 14 15  2  0
 15 16  1  0
 16 17  1  0
 17 18  2  0
 18 19  1  0
 19 20  2  0
 20 21  1  0
 17 22  1  0
 21 22  2  0
 13 23  2  0
 16 23  1  0
  7 24  1  0
  4 25  1  0
 24 25  1  0
M  END
