piperidine-amides-32477-covalent
     RDKit          3D

 24 25  0  0  0  0  0  0  0  0999 V2000
    7.0980   -3.2580   19.2300 C   0  0  0  0  0  0  0  0  0  0  0  0
    6.3320   -4.0430   20.2400 C   0  0  0  0  0  0  0  0  0  0  0  0
    5.2690   -4.5810   19.8920 O   0  0  0  0  0  0  0  0  0  0  0  0
    6.8390   -4.2070   21.5490 N   0  0  0  0  0  0  0  0  0  0  0  0
    6.6090   -5.4470   22.2570 C   0  0  0  0  0  0  0  0  0  0  0  0
    6.3680   -5.1700   23.7540 C   0  0  0  0  0  0  0  0  0  0  0  0
    6.1820   -3.7010   23.9740 C   0  0  0  0  0  0  0  0  0  0  0  0
    5.5380   -3.4010   25.2730 C   0  0  0  0  0  0  0  0  0  0  0  0
    4.3100   -3.5270   25.2920 O   0  0  0  0  0  0  0  0  0  0  0  0
    6.2600   -2.9990   26.4050 N   0  0  0  0  0  0  0  0  0  0  0  0
    6.2290   -3.7640   27.6100 C   0  0  0  0  0  0  0  0  0  0  0  0
    6.1710   -5.1430   27.6320 C   0  0  0  0  0  0  0  0  0  0  0  0
    6.3120   -6.0020   28.7260 C   0  0  0  0  0  0  0  0  0  0  0  0
    6.6230   -1.6600   26.6180 C   0  0  0  0  0  0  0  0  0  0  0  0
    5.9320   -0.5150   25.9570 C   0  0  0  0  0  0  0  0  0  0  0  0
    6.3430    0.0780   24.6000 C   0  0  0  0  0  0  0  0  0  0  0  0
    5.5180    1.2320   24.0900 C   0  0  0  0  0  0  0  0  0  0  0  0
    5.9300    2.0550   22.4080 Br  0  0  0  0  0  0  0  0  0  0  0  0
    4.4700    1.6930   24.8280 C   0  0  0  0  0  0  0  0  0  0  0  0
    3.9440    1.2430   26.1420 C   0  0  0  0  0  0  0  0  0  0  0  0
    4.7570    0.0650   26.7040 C   0  0  0  0  0  0  0  0  0  0  0  0
    4.3590   -0.4320   27.9170 F   0  0  0  0  0  0  0  0  0  0  0  0
    7.4620   -3.0740   23.6560 C   0  0  0  0  0  0  0  0  0  0  0  0
    7.6760   -3.1880   22.1450 C   0  0  0  0  0  0  0  0  0  0  0  0
  1  2  1  0
  2  3  2  0
  2  4  1  0
  4  5  1  0
  5  6  1  0
  6  7  1  0
  7  8  1  0
  8  9  2  0
  8 10  1  0
 10 11  1  0
 11 12  1  0
 12 13  2  3
 10 14  1  0
 14 15  1  0
 15 16  2  0
 16 17  1  0
 17 18  1  0
 17 19  2  0
 19 20  1  0
 15 21  1  0
 20 21  2  0
 21 22  1  0
  7 23  1  0
  4 24  1  0
 23 24  1  0
M  END
