piperidine-amides-26195-covalent
     RDKit          3D

 25 26  0  0  0  0  0  0  0  0999 V2000
    7.1240   -3.2460   19.1520 C   0  0  0  0  0  0  0  0  0  0  0  0
    6.3350   -3.9580   20.1590 C   0  0  0  0  0  0  0  0  0  0  0  0
    5.2460   -4.4580   19.8400 O   0  0  0  0  0  0  0  0  0  0  0  0
    6.8090   -4.1480   21.4600 N   0  0  0  0  0  0  0  0  0  0  0  0
    6.5540   -5.3720   22.1780 C   0  0  0  0  0  0  0  0  0  0  0  0
    5.8450   -4.9440   23.4300 C   0  0  0  0  0  0  0  0  0  0  0  0
    6.6420   -3.9110   24.1720 C   0  0  0  0  0  0  0  0  0  0  0  0
    5.8370   -3.2980   25.2480 C   0  0  0  0  0  0  0  0  0  0  0  0
    4.7490   -2.7210   24.9660 O   0  0  0  0  0  0  0  0  0  0  0  0
    6.1990   -3.3330   26.6090 N   0  0  0  0  0  0  0  0  0  0  0  0
    6.4520   -2.0310   27.2700 C   0  0  0  0  0  0  0  0  0  0  0  0
    5.3170   -1.1280   26.9710 C   0  0  0  0  0  0  0  0  0  0  0  0
    3.9460   -1.6540   26.9190 C   0  0  0  0  0  0  0  0  0  0  0  0
    2.8250   -0.7070   26.6050 C   0  0  0  0  0  0  0  0  0  0  0  0
    3.1190    0.7620   26.3520 C   0  0  0  0  0  0  0  0  0  0  0  0
    4.5680    1.1140   26.4510 C   0  0  0  0  0  0  0  0  0  0  0  0
    5.0040    2.3950   26.2510 O   0  0  0  0  0  0  0  0  0  0  0  0
    5.5520    0.1970   26.7410 C   0  0  0  0  0  0  0  0  0  0  0  0
    5.7020   -4.4140   27.4060 C   0  0  1  0  0  0  0  0  0  0  0  0
    5.8160   -5.7680   26.7440 C   0  0  0  0  0  0  0  0  0  0  0  0
    6.2510   -4.5960   28.7740 C   0  0  0  0  0  0  0  0  0  0  0  0
    5.8130   -5.9200   29.3770 C   0  0  0  0  0  0  0  0  0  0  0  0
    5.7770   -6.9770   29.9570 C   0  0  0  0  0  0  0  0  0  0  0  0
    7.2170   -2.8180   23.3760 C   0  0  0  0  0  0  0  0  0  0  0  0
    7.6030   -3.1540   22.1090 C   0  0  0  0  0  0  0  0  0  0  0  0
  1  2  1  0
  2  3  2  0
  2  4  1  0
  4  5  1  0
  5  6  1  0
  6  7  1  0
  7  8  1  0
  8  9  2  0
  8 10  1  0
 10 11  1  0
 11 12  1  0
 12 13  2  0
 13 14  1  0
 14 15  2  0
 15 16  1  0
 16 17  1  0
 12 18  1  0
 16 18  2  0
 10 19  1  0
 19 20  1  6
 19 21  1  0
 21 22  1  0
 22 23  1  0
  7 24  1  0
  4 25  1  0
 24 25  1  0
M  END
