piperidine-amides-8543-covalent
     RDKit          3D

 24 25  0  0  0  0  0  0  0  0999 V2000
    7.0400   -3.2980   19.3380 C   0  0  0  0  0  0  0  0  0  0  0  0
    6.3470   -4.1050   20.3460 C   0  0  0  0  0  0  0  0  0  0  0  0
    5.3700   -4.7790   19.9660 O   0  0  0  0  0  0  0  0  0  0  0  0
    6.7900   -4.1530   21.7030 N   0  0  0  0  0  0  0  0  0  0  0  0
    6.6540   -5.3960   22.4100 C   0  0  0  0  0  0  0  0  0  0  0  0
    6.1160   -5.1300   23.7840 C   0  0  0  0  0  0  0  0  0  0  0  0
    6.0790   -3.6290   23.9190 C   0  0  0  0  0  0  0  0  0  0  0  0
    5.6370   -3.1770   25.2980 C   0  0  0  0  0  0  0  0  0  0  0  0
    4.6850   -2.4050   25.3030 O   0  0  0  0  0  0  0  0  0  0  0  0
    6.2700   -3.6330   26.4600 N   0  0  0  0  0  0  0  0  0  0  0  0
    5.6810   -4.6580   27.2740 C   0  0  1  0  0  0  0  0  0  0  0  0
    5.7810   -5.9520   26.7720 C   0  0  0  0  0  0  0  0  0  0  0  0
    6.3720   -4.7770   28.5720 C   0  0  0  0  0  0  0  0  0  0  0  0
    5.6310   -5.3040   29.6070 O   0  0  0  0  0  0  0  0  0  0  0  0
    4.6370   -6.1840   29.7990 C   0  0  0  0  0  0  0  0  0  0  0  0
    3.5530   -6.2850   28.7850 C   0  0  0  0  0  0  0  0  0  0  0  0
    2.3440   -7.2430   28.8670 C   0  0  0  0  0  0  0  0  0  0  0  0
    2.2840   -8.1210   30.0710 C   0  0  0  0  0  0  0  0  0  0  0  0
    1.1690   -8.9510   30.0820 F   0  0  0  0  0  0  0  0  0  0  0  0
    3.3890   -8.0100   31.0910 C   0  0  0  0  0  0  0  0  0  0  0  0
    4.5660   -7.0170   30.9160 C   0  0  0  0  0  0  0  0  0  0  0  0
    5.4940   -7.0550   31.9630 F   0  0  0  0  0  0  0  0  0  0  0  0
    7.4660   -3.1080   23.6340 C   0  0  0  0  0  0  0  0  0  0  0  0
    7.6420   -3.1050   22.2550 C   0  0  0  0  0  0  0  0  0  0  0  0
  1  2  1  0
  2  3  2  0
  2  4  1  0
  4  5  1  0
  5  6  1  0
  6  7  1  0
  7  8  1  0
  8  9  2  0
  8 10  1  0
 10 11  1  0
 11 12  1  6
 11 13  1  0
 13 14  1  0
 14 15  1  0
 15 16  2  0
 16 17  1  0
 17 18  2  0
 18 19  1  0
 18 20  1  0
 15 21  1  0
 20 21  2  0
 21 22  1  0
  7 23  1  0
  4 24  1  0
 23 24  1  0
M  END
