piperidine-amides-297-covalent
     RDKit          3D

 29 31  0  0  0  0  0  0  0  0999 V2000
    7.0780   -3.3620   19.2400 C   0  0  0  0  0  0  0  0  0  0  0  0
    6.4020   -4.0950   20.2790 C   0  0  0  0  0  0  0  0  0  0  0  0
    5.3450   -4.7160   19.9560 O   0  0  0  0  0  0  0  0  0  0  0  0
    6.8980   -4.2040   21.5940 N   0  0  0  0  0  0  0  0  0  0  0  0
    6.6380   -5.4710   22.2990 C   0  0  0  0  0  0  0  0  0  0  0  0
    5.5820   -4.9200   23.3130 C   0  0  0  0  0  0  0  0  0  0  0  0
    6.3500   -3.9250   24.1530 C   0  0  0  0  0  0  0  0  0  0  0  0
    5.4480   -3.5060   25.3940 C   0  0  0  0  0  0  0  0  0  0  0  0
    4.3620   -4.0570   25.3060 O   0  0  0  0  0  0  0  0  0  0  0  0
    6.0150   -2.6880   26.1880 N   0  0  0  0  0  0  0  0  0  0  0  0
    6.3540   -1.7750   27.1380 C   0  0  0  0  0  0  0  0  0  0  0  0
    6.9940   -1.7080   28.3580 C   0  0  0  0  0  0  0  0  0  0  0  0
    7.1500   -0.5050   29.1290 C   0  0  0  0  0  0  0  0  0  0  0  0
    7.7600   -0.4100   30.3100 N   0  0  0  0  0  0  0  0  0  0  0  0
    6.6720    0.8670   28.7860 C   0  0  0  0  0  0  0  0  0  0  0  0
    5.9950    0.6900   27.4410 C   0  0  0  0  0  0  0  0  0  0  0  0
    5.5200    1.9480   27.0470 C   0  0  0  0  0  0  0  0  0  0  0  0
    5.6900    2.3440   25.8750 O   0  0  0  0  0  0  0  0  0  0  0  0
    4.8780    2.7300   27.9320 N   0  0  0  0  0  0  0  0  0  0  0  0
    3.6720    3.3920   27.4590 C   0  0  0  0  0  0  0  0  0  0  0  0
    3.7800    4.7030   26.6750 C   0  0  0  0  0  0  0  0  0  0  0  0
    2.5610    5.4010   26.0330 C   0  0  0  0  0  0  0  0  0  0  0  0
    2.7160    6.5540   25.3520 C   0  0  0  0  0  0  0  0  0  0  0  0
    3.9570    7.1160   25.2270 C   0  0  0  0  0  0  0  0  0  0  0  0
    5.0400    6.5160   25.7860 N   0  0  0  0  0  0  0  0  0  0  0  0
    4.9950    5.3530   26.4910 C   0  0  0  0  0  0  0  0  0  0  0  0
    5.8290   -0.4430   26.6780 C   0  0  0  0  0  0  0  0  0  0  0  0
    7.0200   -2.7730   23.4880 C   0  0  0  0  0  0  0  0  0  0  0  0
    7.6890   -3.1500   22.2000 C   0  0  0  0  0  0  0  0  0  0  0  0
  1  2  1  0
  2  3  2  0
  2  4  1  0
  4  5  1  0
  5  6  1  0
  6  7  1  0
  7  8  1  0
  8  9  2  0
  8 10  1  0
 10 11  1  0
 11 12  2  0
 12 13  1  0
 13 14  1  0
 13 15  2  0
 15 16  1  0
 16 17  1  0
 17 18  2  0
 17 19  1  0
 19 20  1  0
 20 21  1  0
 21 22  2  0
 22 23  1  0
 23 24  2  0
 24 25  1  0
 21 26  1  0
 25 26  2  0
 11 27  1  0
 16 27  2  0
  7 28  1  0
  4 29  1  0
 28 29  1  0
M  END
