piperidine-amides-24193-covalent
     RDKit          3D

 24 25  0  0  0  0  0  0  0  0999 V2000
    7.0800   -3.2670   19.2220 C   0  0  0  0  0  0  0  0  0  0  0  0
    6.3330   -4.0430   20.2300 C   0  0  0  0  0  0  0  0  0  0  0  0
    5.2800   -4.6320   19.9100 O   0  0  0  0  0  0  0  0  0  0  0  0
    6.8040   -4.1760   21.5440 N   0  0  0  0  0  0  0  0  0  0  0  0
    7.6890   -3.1650   22.1010 C   0  0  0  0  0  0  0  0  0  0  0  0
    7.4240   -3.1150   23.6060 C   0  0  0  0  0  0  0  0  0  0  0  0
    6.0020   -3.5870   23.7740 C   0  0  0  0  0  0  0  0  0  0  0  0
    5.4890   -3.3490   25.1280 C   0  0  0  0  0  0  0  0  0  0  0  0
    4.2550   -3.2730   25.2930 O   0  0  0  0  0  0  0  0  0  0  0  0
    6.3910   -3.2230   26.2000 N   0  0  0  0  0  0  0  0  0  0  0  0
    6.8220   -1.9050   26.5980 C   0  0  0  0  0  0  0  0  0  0  0  0
    5.8750   -1.3460   27.6510 C   0  0  0  0  0  0  0  0  0  0  0  0
    5.4580   -1.9590   28.8360 C   0  0  0  0  0  0  0  0  0  0  0  0
    4.5900   -1.3670   29.7410 C   0  0  0  0  0  0  0  0  0  0  0  0
    4.0710   -0.1090   29.5260 C   0  0  0  0  0  0  0  0  0  0  0  0
    4.4010    0.5750   28.4180 C   0  0  0  0  0  0  0  0  0  0  0  0
    5.3260    0.0540   27.3630 C   0  0  0  0  0  0  0  0  0  0  0  0
    5.6410    0.7650   26.2510 F   0  0  0  0  0  0  0  0  0  0  0  0
    6.5640   -4.2220   27.2350 C   0  0  0  0  0  0  0  0  0  0  0  0
    7.9150   -4.0210   27.7990 C   0  0  0  0  0  0  0  0  0  0  0  0
    7.2260   -5.1460   28.4370 C   0  0  0  0  0  0  0  0  0  0  0  0
    8.1700   -2.8000   28.4570 C   0  0  0  0  0  0  0  0  0  0  0  0
    5.9690   -5.0930   23.5530 C   0  0  0  0  0  0  0  0  0  0  0  0
    6.6240   -5.4290   22.2400 C   0  0  0  0  0  0  0  0  0  0  0  0
  1  2  1  0
  2  3  2  0
  2  4  1  0
  4  5  1  0
  5  6  1  0
  6  7  1  0
  7  8  1  0
  8  9  2  0
  8 10  1  0
 10 11  1  0
 11 12  1  0
 12 13  2  0
 13 14  1  0
 14 15  2  0
 15 16  1  0
 12 17  1  0
 16 17  2  0
 17 18  1  0
 10 19  1  0
 19 20  1  0
 20 21  1  0
 20 22  1  0
  7 23  1  0
  4 24  1  0
 23 24  1  0
M  END
