piperidine-amides-24401-covalent
     RDKit          3D

 24 26  0  0  0  0  0  0  0  0999 V2000
    7.1060   -3.3320   19.2550 C   0  0  0  0  0  0  0  0  0  0  0  0
    6.4220   -4.1650   20.2510 C   0  0  0  0  0  0  0  0  0  0  0  0
    5.3670   -4.7660   19.9610 O   0  0  0  0  0  0  0  0  0  0  0  0
    7.0000   -4.3320   21.5120 N   0  0  0  0  0  0  0  0  0  0  0  0
    6.6850   -5.5090   22.2850 C   0  0  0  0  0  0  0  0  0  0  0  0
    5.7950   -5.0190   23.4280 C   0  0  0  0  0  0  0  0  0  0  0  0
    6.5880   -3.9850   24.2010 C   0  0  0  0  0  0  0  0  0  0  0  0
    5.7750   -3.4590   25.2980 C   0  0  0  0  0  0  0  0  0  0  0  0
    4.8640   -2.6350   25.0630 O   0  0  0  0  0  0  0  0  0  0  0  0
    6.0470   -3.9320   26.5780 N   0  0  0  0  0  0  0  0  0  0  0  0
    6.0810   -3.0010   27.6740 C   0  0  0  0  0  0  0  0  0  0  0  0
    6.0360   -3.7410   28.9680 C   0  0  0  0  0  0  0  0  0  0  0  0
    6.8030   -4.8410   29.0520 C   0  0  0  0  0  0  0  0  0  0  0  0
    6.6830   -5.7120   28.0520 C   0  0  1  0  0  0  0  0  0  0  0  0
    5.4940   -6.4790   28.2680 N   0  0  0  0  0  0  0  0  0  0  0  0
    5.4170   -7.4490   29.2520 C   0  0  0  0  0  0  0  0  0  0  0  0
    4.4750   -7.0170   30.1620 C   0  0  0  0  0  0  0  0  0  0  0  0
    3.0180   -7.4530   30.0560 C   0  0  0  0  0  0  0  0  0  0  0  0
    3.6660   -7.0370   28.7510 C   0  0  0  0  0  0  0  0  0  0  0  0
    3.3770   -5.6400   28.2890 C   0  0  0  0  0  0  0  0  0  0  0  0
    4.3540   -6.2800   27.3930 C   0  0  0  0  0  0  0  0  0  0  0  0
    6.8070   -5.1730   26.7940 C   0  0  0  0  0  0  0  0  0  0  0  0
    6.8970   -2.8000   23.3020 C   0  0  0  0  0  0  0  0  0  0  0  0
    7.7160   -3.2520   22.1390 C   0  0  0  0  0  0  0  0  0  0  0  0
  1  2  1  0
  2  3  2  0
  2  4  1  0
  4  5  1  0
  5  6  1  0
  6  7  1  0
  7  8  1  0
  8  9  2  0
  8 10  1  0
 10 11  1  0
 11 12  1  0
 12 13  1  0
 13 14  1  0
 14 15  1  6
 15 16  1  0
 16 17  1  0
 17 18  1  0
 18 19  1  0
 19 20  1  0
 15 21  1  0
 20 21  1  0
 10 22  1  0
 14 22  1  0
  7 23  1  0
  4 24  1  0
 23 24  1  0
M  END
