piperidine-amides-2051-covalent
     RDKit          3D

 21 22  0  0  0  0  0  0  0  0999 V2000
    7.1070   -3.2870   19.2380 C   0  0  0  0  0  0  0  0  0  0  0  0
    6.3180   -4.0310   20.2490 C   0  0  0  0  0  0  0  0  0  0  0  0
    5.2560   -4.5180   19.8730 O   0  0  0  0  0  0  0  0  0  0  0  0
    6.8120   -4.2080   21.5420 N   0  0  0  0  0  0  0  0  0  0  0  0
    6.5980   -5.4260   22.2740 C   0  0  0  0  0  0  0  0  0  0  0  0
    5.9190   -5.1360   23.5880 C   0  0  0  0  0  0  0  0  0  0  0  0
    5.8370   -3.6250   23.8580 C   0  0  0  0  0  0  0  0  0  0  0  0
    5.2480   -3.4790   25.2140 C   0  0  0  0  0  0  0  0  0  0  0  0
    4.2490   -4.1470   25.4890 O   0  0  0  0  0  0  0  0  0  0  0  0
    5.7380   -2.5990   26.1910 N   0  0  0  0  0  0  0  0  0  0  0  0
    6.9190   -2.9320   26.9320 C   0  0  2  0  0  0  0  0  0  0  0  0
    7.3560   -4.3430   26.5690 C   0  0  0  0  0  0  0  0  0  0  0  0
    6.3710   -5.3080   26.5040 O   0  0  0  0  0  0  0  0  0  0  0  0
    8.6820   -4.6020   26.3400 O   0  0  0  0  0  0  0  0  0  0  0  0
    9.2160   -5.8160   26.7130 C   0  0  0  0  0  0  0  0  0  0  0  0
    6.6760   -2.7230   28.4920 C   0  0  0  0  0  0  0  0  0  0  0  0
    7.7350   -1.8830   28.5340 C   0  0  2  0  0  0  0  0  0  0  0  0
    7.3950   -0.5650   28.8870 O   0  0  0  0  0  0  0  0  0  0  0  0
    7.8400   -1.9400   27.1030 C   0  0  0  0  0  0  0  0  0  0  0  0
    7.1410   -2.9350   23.5970 C   0  0  0  0  0  0  0  0  0  0  0  0
    7.5870   -3.1610   22.1830 C   0  0  0  0  0  0  0  0  0  0  0  0
  1  2  1  0
  2  3  2  0
  2  4  1  0
  4  5  1  0
  5  6  1  0
  6  7  1  0
  7  8  1  0
  8  9  2  0
  8 10  1  0
 11 10  1  6
 11 12  1  0
 12 13  2  0
 12 14  1  0
 14 15  1  0
 11 16  1  0
 16 17  1  0
 17 18  1  6
 11 19  1  0
 17 19  1  0
  7 20  1  0
  4 21  1  0
 20 21  1  0
M  END
