piperidine-amides-23545-covalent
     RDKit          3D

 24 26  0  0  0  0  0  0  0  0999 V2000
    7.0340   -3.4070   19.4790 C   0  0  0  0  0  0  0  0  0  0  0  0
    6.3620   -4.2960   20.4420 C   0  0  0  0  0  0  0  0  0  0  0  0
    5.3810   -4.9390   20.0010 O   0  0  0  0  0  0  0  0  0  0  0  0
    6.8270   -4.4550   21.7800 N   0  0  0  0  0  0  0  0  0  0  0  0
    6.5560   -5.6670   22.4780 C   0  0  0  0  0  0  0  0  0  0  0  0
    6.2030   -5.4730   23.8860 C   0  0  0  0  0  0  0  0  0  0  0  0
    6.0060   -4.0640   24.2520 C   0  0  0  0  0  0  0  0  0  0  0  0
    5.4340   -3.7700   25.6530 C   0  0  0  0  0  0  0  0  0  0  0  0
    4.8990   -2.6380   25.7600 O   0  0  0  0  0  0  0  0  0  0  0  0
    5.4090   -4.6360   26.8660 N   0  0  0  0  0  0  0  0  0  0  0  0
    6.4060   -4.8490   27.9450 C   0  0  0  0  0  0  0  0  0  0  0  0
    7.6880   -5.6880   27.7680 C   0  0  0  0  0  0  0  0  0  0  0  0
    8.4900   -6.5480   27.3130 O   0  0  0  0  0  0  0  0  0  0  0  0
    6.9410   -6.2490   26.8750 N   0  0  0  0  0  0  0  0  0  0  0  0
    6.0360   -5.2270   26.8040 C   0  0  0  0  0  0  0  0  0  0  0  0
    4.6320   -4.5820   26.8840 C   0  0  0  0  0  0  0  0  0  0  0  0
    5.7540   -3.7360   26.5590 C   0  0  0  0  0  0  0  0  0  0  0  0
    5.5320   -5.1300   26.8470 C   0  0  0  0  0  0  0  0  0  0  0  0
    4.9290   -6.4030   27.1700 O   0  0  0  0  0  0  0  0  0  0  0  0
    5.1080   -7.0520   28.4380 C   0  0  0  0  0  0  0  0  0  0  0  0
    4.0120   -5.0410   27.0800 C   0  0  0  0  0  0  0  0  0  0  0  0
    4.9880   -5.9680   27.0410 C   0  0  0  0  0  0  0  0  0  0  0  0
    7.2900   -3.2750   23.9190 C   0  0  0  0  0  0  0  0  0  0  0  0
    7.4660   -3.2830   22.4240 C   0  0  0  0  0  0  0  0  0  0  0  0
  1  2  1  0
  2  3  2  0
  2  4  1  0
  4  5  1  0
  5  6  1  0
  6  7  1  0
  7  8  1  0
  8  9  2  0
  8 10  1  0
 10 11  1  0
 11 12  1  0
 12 13  2  0
 12 14  1  0
 14 15  1  0
 15 16  2  0
 16 17  1  0
 17 18  2  0
 18 19  1  0
 19 20  1  0
 18 21  1  0
 10 22  1  0
 15 22  1  0
 21 22  2  0
  7 23  1  0
  4 24  1  0
 23 24  1  0
M  END
