piperidine-amides-25917-covalent
     RDKit          3D

 25 27  0  0  0  0  0  0  0  0999 V2000
    7.0870   -3.3690   19.3870 C   0  0  0  0  0  0  0  0  0  0  0  0
    6.3630   -4.2000   20.3410 C   0  0  0  0  0  0  0  0  0  0  0  0
    5.3280   -4.7710   19.9640 O   0  0  0  0  0  0  0  0  0  0  0  0
    6.8390   -4.4340   21.6470 N   0  0  0  0  0  0  0  0  0  0  0  0
    6.5300   -5.6250   22.3810 C   0  0  0  0  0  0  0  0  0  0  0  0
    5.8530   -5.1230   23.6290 C   0  0  0  0  0  0  0  0  0  0  0  0
    6.5670   -3.9480   24.2460 C   0  0  0  0  0  0  0  0  0  0  0  0
    5.8550   -3.4440   25.4650 C   0  0  0  0  0  0  0  0  0  0  0  0
    4.9420   -2.5740   25.3450 O   0  0  0  0  0  0  0  0  0  0  0  0
    6.1100   -3.9030   26.7890 N   0  0  0  0  0  0  0  0  0  0  0  0
    5.8590   -3.1020   27.9960 C   0  0  0  0  0  0  0  0  0  0  0  0
    4.9810   -3.9360   28.8890 C   0  0  0  0  0  0  0  0  0  0  0  0
    5.6160   -4.9450   29.5670 N   0  0  0  0  0  0  0  0  0  0  0  0
    4.9900   -6.0150   30.2590 C   0  0  0  0  0  0  0  0  0  0  0  0
    5.5850   -6.5450   31.3390 N   0  0  0  0  0  0  0  0  0  0  0  0
    5.0820   -7.5520   32.0990 C   0  0  0  0  0  0  0  0  0  0  0  0
    5.6220   -8.2430   33.3300 C   0  0  0  0  0  0  0  0  0  0  0  0
    3.7270   -8.0550   31.5910 C   0  0  0  0  0  0  0  0  0  0  0  0
    3.1650   -7.4920   30.4790 C   0  0  0  0  0  0  0  0  0  0  0  0
    1.9370   -7.9220   29.9650 C   0  0  0  0  0  0  0  0  0  0  0  0
    3.7990   -6.4800   29.8290 N   0  0  0  0  0  0  0  0  0  0  0  0
    6.4810   -5.2650   28.5910 C   0  0  0  0  0  0  0  0  0  0  0  0
    5.9750   -5.2850   27.1510 C   0  0  0  0  0  0  0  0  0  0  0  0
    6.7640   -2.8720   23.1600 C   0  0  0  0  0  0  0  0  0  0  0  0
    7.5220   -3.3370   22.3410 C   0  0  0  0  0  0  0  0  0  0  0  0
  1  2  1  0
  2  3  2  0
  2  4  1  0
  4  5  1  0
  5  6  1  0
  6  7  1  0
  7  8  1  0
  8  9  2  0
  8 10  1  0
 10 11  1  0
 11 12  1  0
 12 13  1  0
 13 14  1  0
 14 15  2  0
 15 16  1  0
 16 17  1  0
 16 18  2  0
 18 19  1  0
 19 20  1  0
 14 21  1  0
 19 21  2  0
 13 22  1  0
 10 23  1  0
 22 23  1  0
  7 24  1  0
  4 25  1  0
 24 25  1  0
M  END
