piperidine-amides-17206-covalent
     RDKit          3D

 20 21  0  0  0  0  0  0  0  0999 V2000
    7.0710   -3.3580   19.3720 C   0  0  0  0  0  0  0  0  0  0  0  0
    6.4150   -4.2130   20.3770 C   0  0  0  0  0  0  0  0  0  0  0  0
    5.4090   -4.8610   19.9930 O   0  0  0  0  0  0  0  0  0  0  0  0
    6.9390   -4.3270   21.6930 N   0  0  0  0  0  0  0  0  0  0  0  0
    6.6700   -5.5170   22.4470 C   0  0  0  0  0  0  0  0  0  0  0  0
    6.3070   -5.2490   23.8340 C   0  0  0  0  0  0  0  0  0  0  0  0
    6.3030   -3.8100   24.1260 C   0  0  0  0  0  0  0  0  0  0  0  0
    5.6680   -3.4130   25.4360 C   0  0  0  0  0  0  0  0  0  0  0  0
    4.6000   -2.7840   25.3410 O   0  0  0  0  0  0  0  0  0  0  0  0
    6.1060   -3.6650   26.7670 N   0  0  0  0  0  0  0  0  0  0  0  0
    5.4060   -3.0320   27.8150 C   0  0  0  0  0  0  0  0  0  0  0  0
    4.5150   -4.0260   28.3260 C   0  0  2  0  0  0  0  0  0  0  0  0
    3.9350   -3.6800   29.7020 C   0  0  0  0  0  0  0  0  0  0  0  0
    5.1950   -5.2900   28.1840 C   0  0  1  0  0  0  0  0  0  0  0  0
    6.3080   -5.6700   29.1620 C   0  0  0  0  0  0  0  0  0  0  0  0
    4.4180   -6.5620   27.8000 C   0  0  0  0  0  0  0  0  0  0  0  0
    3.1270   -6.4940   28.3280 O   0  0  0  0  0  0  0  0  0  0  0  0
    6.2450   -5.0610   27.2030 C   0  0  0  0  0  0  0  0  0  0  0  0
    7.5950   -3.1320   23.7710 C   0  0  0  0  0  0  0  0  0  0  0  0
    7.7510   -3.2490   22.2600 C   0  0  0  0  0  0  0  0  0  0  0  0
  1  2  1  0
  2  3  2  0
  2  4  1  0
  4  5  1  0
  5  6  1  0
  6  7  1  0
  7  8  1  0
  8  9  2  0
  8 10  1  0
 10 11  1  0
 11 12  1  0
 12 13  1  1
 12 14  1  0
 14 15  1  1
 14 16  1  0
 16 17  1  0
 10 18  1  0
 14 18  1  0
  7 19  1  0
  4 20  1  0
 19 20  1  0
M  END
