piperidine-amides-12157-covalent
     RDKit          3D

 25 27  0  0  0  0  0  0  0  0999 V2000
    7.0730   -3.3540   19.3110 C   0  0  0  0  0  0  0  0  0  0  0  0
    6.3920   -4.1860   20.2930 C   0  0  0  0  0  0  0  0  0  0  0  0
    5.3670   -4.7850   19.9730 O   0  0  0  0  0  0  0  0  0  0  0  0
    6.9480   -4.3620   21.6110 N   0  0  0  0  0  0  0  0  0  0  0  0
    6.6140   -5.5220   22.3770 C   0  0  0  0  0  0  0  0  0  0  0  0
    5.9000   -5.1000   23.6320 C   0  0  0  0  0  0  0  0  0  0  0  0
    6.5620   -3.8440   24.1950 C   0  0  0  0  0  0  0  0  0  0  0  0
    5.7040   -3.2990   25.2880 C   0  0  0  0  0  0  0  0  0  0  0  0
    4.4990   -3.0610   25.0990 O   0  0  0  0  0  0  0  0  0  0  0  0
    6.2560   -3.0490   26.5670 N   0  0  0  0  0  0  0  0  0  0  0  0
    5.8060   -1.8720   27.2910 C   0  0  0  0  0  0  0  0  0  0  0  0
    4.3100   -2.0540   27.4230 C   0  0  0  0  0  0  0  0  0  0  0  0
    3.6930   -2.9180   28.2790 N   0  0  0  0  0  0  0  0  0  0  0  0
    2.4220   -2.7900   28.1040 O   0  0  0  0  0  0  0  0  0  0  0  0
    2.3360   -1.8440   27.1370 C   0  0  0  0  0  0  0  0  0  0  0  0
    1.0130   -1.5580   26.7960 C   0  0  0  0  0  0  0  0  0  0  0  0
    3.4580   -1.3400   26.6690 N   0  0  0  0  0  0  0  0  0  0  0  0
    6.5070   -2.0220   28.5950 C   0  0  0  0  0  0  0  0  0  0  0  0
    7.2980   -0.9550   29.1530 C   0  0  0  0  0  0  0  0  0  0  0  0
    6.7180    0.2040   29.5790 C   0  0  0  0  0  0  0  0  0  0  0  0
    5.6570    0.5630   28.7880 C   0  0  0  0  0  0  0  0  0  0  0  0
    5.8290    0.6310   27.4040 C   0  0  0  0  0  0  0  0  0  0  0  0
    6.1640   -0.6420   26.7080 C   0  0  0  0  0  0  0  0  0  0  0  0
    6.8280   -2.7660   23.1620 C   0  0  0  0  0  0  0  0  0  0  0  0
    7.7110   -3.3270   22.2530 C   0  0  0  0  0  0  0  0  0  0  0  0
  1  2  1  0
  2  3  2  0
  2  4  1  0
  4  5  1  0
  5  6  1  0
  6  7  1  0
  7  8  1  0
  8  9  2  0
  8 10  1  0
 11 10  1  0
 11 12  1  0
 12 13  2  0
 13 14  1  0
 14 15  1  0
 15 16  1  0
 12 17  1  0
 15 17  2  0
 11 18  1  0
 18 19  1  0
 19 20  1  0
 20 21  1  0
 21 22  1  0
 11 23  1  0
 22 23  1  0
  7 24  1  0
  4 25  1  0
 24 25  1  0
M  END
