piperidine-amides-5431-covalent
     RDKit          3D

 20 21  0  0  0  0  0  0  0  0999 V2000
    7.1070   -3.3430   19.2750 C   0  0  0  0  0  0  0  0  0  0  0  0
    6.3510   -4.1010   20.2650 C   0  0  0  0  0  0  0  0  0  0  0  0
    5.3030   -4.6730   19.9290 O   0  0  0  0  0  0  0  0  0  0  0  0
    6.8370   -4.2320   21.5700 N   0  0  0  0  0  0  0  0  0  0  0  0
    7.7010   -3.2400   22.1670 C   0  0  0  0  0  0  0  0  0  0  0  0
    6.9280   -2.7220   23.3390 C   0  0  0  0  0  0  0  0  0  0  0  0
    6.5010   -3.8480   24.2200 C   0  0  0  0  0  0  0  0  0  0  0  0
    5.7690   -3.4070   25.4360 C   0  0  0  0  0  0  0  0  0  0  0  0
    4.4980   -3.3300   25.4690 O   0  0  0  0  0  0  0  0  0  0  0  0
    6.4440   -3.0750   26.6270 N   0  0  0  0  0  0  0  0  0  0  0  0
    6.4270   -1.7170   27.2350 C   0  0  0  0  0  0  0  0  0  0  0  0
    7.0230   -1.6170   28.5760 C   0  0  0  0  0  0  0  0  0  0  0  0
    7.0620   -0.3440   29.2920 C   0  0  0  0  0  0  0  0  0  0  0  0
    6.4840    0.8800   28.6490 C   0  0  0  0  0  0  0  0  0  0  0  0
    5.8680    0.8110   27.2690 C   0  0  0  0  0  0  0  0  0  0  0  0
    5.3290    2.0140   26.6930 F   0  0  0  0  0  0  0  0  0  0  0  0
    5.8490   -0.5070   26.5690 C   0  0  0  0  0  0  0  0  0  0  0  0
    5.2860   -0.5390   25.3250 O   0  0  0  0  0  0  0  0  0  0  0  0
    5.7150   -4.8640   23.4170 C   0  0  0  0  0  0  0  0  0  0  0  0
    6.4490   -5.3850   22.3460 C   0  0  0  0  0  0  0  0  0  0  0  0
  1  2  1  0
  2  3  2  0
  2  4  1  0
  4  5  1  0
  5  6  1  0
  6  7  1  0
  7  8  1  0
  8  9  2  0
  8 10  1  0
 10 11  1  0
 11 12  2  0
 12 13  1  0
 13 14  2  0
 14 15  1  0
 15 16  1  0
 11 17  1  0
 15 17  2  0
 17 18  1  0
  7 19  1  0
  4 20  1  0
 19 20  1  0
M  END
