piperidine-amides-4640-covalent
     RDKit          3D

 24 25  0  0  0  0  0  0  0  0999 V2000
    7.0670   -3.3660   19.2910 C   0  0  0  0  0  0  0  0  0  0  0  0
    6.3690   -4.1630   20.3220 C   0  0  0  0  0  0  0  0  0  0  0  0
    5.3350   -4.7520   19.9540 O   0  0  0  0  0  0  0  0  0  0  0  0
    6.8910   -4.2820   21.6210 N   0  0  0  0  0  0  0  0  0  0  0  0
    7.6690   -3.2330   22.1880 C   0  0  0  0  0  0  0  0  0  0  0  0
    7.2310   -2.8990   23.5300 C   0  0  0  0  0  0  0  0  0  0  0  0
    6.0070   -3.6300   23.9080 C   0  0  0  0  0  0  0  0  0  0  0  0
    5.5980   -3.2150   25.2690 C   0  0  0  0  0  0  0  0  0  0  0  0
    4.3900   -3.2240   25.5540 O   0  0  0  0  0  0  0  0  0  0  0  0
    6.5540   -2.8180   26.2020 N   0  0  0  0  0  0  0  0  0  0  0  0
    6.4600   -1.5840   27.0100 C   0  0  0  0  0  0  0  0  0  0  0  0
    6.0640   -0.2880   26.4310 C   0  0  0  0  0  0  0  0  0  0  0  0
    5.9880    0.8920   27.2580 C   0  0  0  0  0  0  0  0  0  0  0  0
    5.6070    2.0150   26.5560 F   0  0  0  0  0  0  0  0  0  0  0  0
    6.2790    0.8650   28.6060 C   0  0  0  0  0  0  0  0  0  0  0  0
    6.2170    1.8890   29.3130 O   0  0  0  0  0  0  0  0  0  0  0  0
    5.1530    1.9230   30.0720 C   0  0  0  0  0  0  0  0  0  0  0  0
    4.7990    3.2440   30.2690 F   0  0  0  0  0  0  0  0  0  0  0  0
    5.4360    1.4120   31.3340 F   0  0  0  0  0  0  0  0  0  0  0  0
    6.6820   -0.4530   29.2050 C   0  0  0  0  0  0  0  0  0  0  0  0
    6.7610   -1.6010   28.4460 C   0  0  0  0  0  0  0  0  0  0  0  0
    7.1150   -2.7700   29.0320 F   0  0  0  0  0  0  0  0  0  0  0  0
    6.0380   -5.1020   23.6920 C   0  0  0  0  0  0  0  0  0  0  0  0
    6.5850   -5.4360   22.4360 C   0  0  0  0  0  0  0  0  0  0  0  0
  1  2  1  0
  2  3  2  0
  2  4  1  0
  4  5  1  0
  5  6  1  0
  6  7  1  0
  7  8  1  0
  8  9  2  0
  8 10  1  0
 10 11  1  0
 11 12  2  0
 12 13  1  0
 13 14  1  0
 13 15  2  0
 15 16  1  0
 16 17  1  0
 17 18  1  0
 17 19  1  0
 15 20  1  0
 11 21  1  0
 20 21  2  0
 21 22  1  0
  7 23  1  0
  4 24  1  0
 23 24  1  0
M  END
