piperidine-amides-9218-covalent
     RDKit          3D

 20 20  0  0  0  0  0  0  0  0999 V2000
    7.1260   -3.2750   19.2050 C   0  0  0  0  0  0  0  0  0  0  0  0
    6.3860   -4.0090   20.2350 C   0  0  0  0  0  0  0  0  0  0  0  0
    5.3460   -4.6150   19.9190 O   0  0  0  0  0  0  0  0  0  0  0  0
    6.8630   -4.0770   21.5570 N   0  0  0  0  0  0  0  0  0  0  0  0
    7.7730   -3.0650   22.0630 C   0  0  0  0  0  0  0  0  0  0  0  0
    7.4380   -2.9110   23.5120 C   0  0  0  0  0  0  0  0  0  0  0  0
    6.0960   -3.4980   23.7940 C   0  0  0  0  0  0  0  0  0  0  0  0
    5.6070   -3.2180   25.1570 C   0  0  0  0  0  0  0  0  0  0  0  0
    4.4070   -2.8550   25.3390 O   0  0  0  0  0  0  0  0  0  0  0  0
    6.4140   -3.3320   26.2990 N   0  0  0  0  0  0  0  0  0  0  0  0
    5.8990   -4.0780   27.4580 C   0  0  2  0  0  0  0  0  0  0  0  0
    6.6050   -3.6060   28.6520 C   0  0  0  0  0  0  0  0  0  0  0  0
    6.8440   -2.1470   28.7540 C   0  0  0  0  0  0  0  0  0  0  0  0
    5.8460   -1.4490   29.6330 C   0  0  0  0  0  0  0  0  0  0  0  0
    5.8930   -5.4880   27.5680 C   0  0  0  0  0  0  0  0  0  0  0  0
    4.6760   -5.9320   28.1890 F   0  0  0  0  0  0  0  0  0  0  0  0
    6.0420   -5.9810   26.3350 F   0  0  0  0  0  0  0  0  0  0  0  0
    6.8520   -5.9710   28.4660 F   0  0  0  0  0  0  0  0  0  0  0  0
    6.1310   -4.9740   23.5530 C   0  0  0  0  0  0  0  0  0  0  0  0
    6.5600   -5.2770   22.2830 C   0  0  0  0  0  0  0  0  0  0  0  0
  1  2  1  0
  2  3  2  0
  2  4  1  0
  4  5  1  0
  5  6  1  0
  6  7  1  0
  7  8  1  0
  8  9  2  0
  8 10  1  0
 10 11  1  0
 11 12  1  1
 12 13  1  0
 13 14  1  0
 11 15  1  0
 15 16  1  0
 15 17  1  0
 15 18  1  0
  7 19  1  0
  4 20  1  0
 19 20  1  0
M  END
