piperidine-amides-32540-covalent
     RDKit          3D

 29 32  0  0  0  0  0  0  0  0999 V2000
    6.9930   -3.3640   19.4450 C   0  0  0  0  0  0  0  0  0  0  0  0
    6.3410   -4.2850   20.4230 C   0  0  0  0  0  0  0  0  0  0  0  0
    5.4020   -4.9870   20.0100 O   0  0  0  0  0  0  0  0  0  0  0  0
    6.8050   -4.3780   21.7680 N   0  0  0  0  0  0  0  0  0  0  0  0
    6.6030   -5.5760   22.5630 C   0  0  0  0  0  0  0  0  0  0  0  0
    6.0620   -5.1910   23.9640 C   0  0  0  0  0  0  0  0  0  0  0  0
    5.9670   -3.7040   24.0420 C   0  0  0  0  0  0  0  0  0  0  0  0
    5.2180   -3.0950   25.2130 C   0  0  0  0  0  0  0  0  0  0  0  0
    4.5880   -2.0870   24.9230 O   0  0  0  0  0  0  0  0  0  0  0  0
    5.1980   -3.5990   26.5400 N   0  0  0  0  0  0  0  0  0  0  0  0
    6.2380   -4.2570   27.0570 C   0  0  0  0  0  0  0  0  0  0  0  0
    6.2510   -4.4040   28.3670 C   0  0  0  0  0  0  0  0  0  0  0  0
    5.1490   -3.6920   28.7550 C   0  0  0  0  0  0  0  0  0  0  0  0
    4.4870   -3.0700   27.6680 C   0  0  1  0  0  0  0  0  0  0  0  0
    4.1500   -1.6360   27.8370 C   0  0  0  0  0  0  0  0  0  0  0  0
    2.9270   -1.3960   28.7340 C   0  0  0  0  0  0  0  0  0  0  0  0
    1.6180   -1.2580   28.0720 C   0  0  0  0  0  0  0  0  0  0  0  0
    1.2950   -1.3120   26.7290 C   0  0  0  0  0  0  0  0  0  0  0  0
    0.6540   -1.0540   28.9660 N   0  0  0  0  0  0  0  0  0  0  0  0
    1.4200   -1.0740   30.2080 C   0  0  0  0  0  0  0  0  0  0  0  0
    0.8880   -0.8960   31.6200 C   0  0  0  0  0  0  0  0  0  0  0  0
    1.4450   -0.8830   32.9140 C   0  0  0  0  0  0  0  0  0  0  0  0
    2.9810   -1.1290   32.5680 C   0  0  0  0  0  0  0  0  0  0  0  0
    3.8240   -1.1850   33.5000 O   0  0  0  0  0  0  0  0  0  0  0  0
    3.2540   -1.2550   34.8230 C   0  0  0  0  0  0  0  0  0  0  0  0
    3.5330   -1.3000   31.2920 C   0  0  0  0  0  0  0  0  0  0  0  0
    2.7610   -1.2760   30.0730 C   0  0  0  0  0  0  0  0  0  0  0  0
    7.3120   -3.0850   23.7040 C   0  0  0  0  0  0  0  0  0  0  0  0
    7.5620   -3.2810   22.3690 C   0  0  0  0  0  0  0  0  0  0  0  0
  1  2  1  0
  2  3  2  0
  2  4  1  0
  4  5  1  0
  5  6  1  0
  6  7  1  0
  7  8  1  0
  8  9  2  0
  8 10  1  0
 10 11  1  0
 11 12  1  0
 12 13  1  0
 10 14  1  0
 13 14  1  0
 14 15  1  1
 15 16  1  0
 16 17  2  0
 17 18  1  0
 17 19  1  0
 19 20  1  0
 20 21  1  0
 21 22  2  0
 22 23  1  0
 23 24  1  0
 24 25  1  0
 23 26  2  0
 16 27  1  0
 20 27  2  0
 26 27  1  0
  7 28  1  0
  4 29  1  0
 28 29  1  0
M  END
