piperidine-amides-27772-covalent
     RDKit          3D

 26 28  0  0  0  0  0  0  0  0999 V2000
    7.0310   -3.3560   19.3070 C   0  0  0  0  0  0  0  0  0  0  0  0
    6.3780   -4.1860   20.3430 C   0  0  0  0  0  0  0  0  0  0  0  0
    5.3710   -4.8260   19.9770 O   0  0  0  0  0  0  0  0  0  0  0  0
    6.9010   -4.2800   21.6470 N   0  0  0  0  0  0  0  0  0  0  0  0
    6.5680   -5.3610   22.5100 C   0  0  0  0  0  0  0  0  0  0  0  0
    6.0740   -4.9740   23.8470 C   0  0  0  0  0  0  0  0  0  0  0  0
    6.4870   -3.6410   24.3790 C   0  0  0  0  0  0  0  0  0  0  0  0
    5.5330   -3.2340   25.4600 C   0  0  0  0  0  0  0  0  0  0  0  0
    4.3390   -3.1130   25.1300 O   0  0  0  0  0  0  0  0  0  0  0  0
    5.9210   -2.9810   26.8090 N   0  0  0  0  0  0  0  0  0  0  0  0
    6.2850   -4.0750   27.7560 C   0  0  0  0  0  0  0  0  0  0  0  0
    5.2890   -4.4320   28.8030 C   0  0  0  0  0  0  0  0  0  0  0  0
    4.1690   -3.6230   29.2170 C   0  0  0  0  0  0  0  0  0  0  0  0
    3.3640   -4.1180   30.1960 C   0  0  0  0  0  0  0  0  0  0  0  0
    3.5880   -5.3440   30.7880 C   0  0  0  0  0  0  0  0  0  0  0  0
    4.6430   -6.1450   30.4220 C   0  0  0  0  0  0  0  0  0  0  0  0
    5.5500   -5.7880   29.4460 C   0  0  0  0  0  0  0  0  0  0  0  0
    6.4980   -1.6440   27.1500 C   0  0  0  0  0  0  0  0  0  0  0  0
    5.6340   -0.6280   26.7230 C   0  0  0  0  0  0  0  0  0  0  0  0
    5.6110    0.6140   27.5450 C   0  0  0  0  0  0  0  0  0  0  0  0
    5.4760    0.2150   28.6200 N   0  0  0  0  0  0  0  0  0  0  0  0
    4.1580   -0.1880   28.9660 C   0  0  0  0  0  0  0  0  0  0  0  0
    6.6920   -0.3760   29.0840 C   0  0  0  0  0  0  0  0  0  0  0  0
    6.8050   -1.6500   28.4920 C   0  0  0  0  0  0  0  0  0  0  0  0
    6.8010   -2.6580   23.3470 C   0  0  0  0  0  0  0  0  0  0  0  0
    7.6630   -3.2030   22.2650 C   0  0  0  0  0  0  0  0  0  0  0  0
  1  2  1  0
  2  3  2  0
  2  4  1  0
  4  5  1  0
  5  6  1  0
  6  7  1  0
  7  8  1  0
  8  9  2  0
  8 10  1  0
 10 11  1  0
 11 12  1  0
 12 13  2  0
 13 14  1  0
 14 15  2  0
 15 16  1  0
 12 17  1  0
 16 17  2  0
 10 18  1  0
 18 19  1  0
 19 20  1  0
 20 21  1  0
 21 22  1  0
 21 23  1  0
 18 24  1  0
 23 24  1  0
  7 25  1  0
  4 26  1  0
 25 26  1  0
M  END
