piperidine-amides-6463-covalent
     RDKit          3D

 20 21  0  0  0  0  0  0  0  0999 V2000
    7.1110   -3.3360   19.3290 C   0  0  0  0  0  0  0  0  0  0  0  0
    6.3770   -4.1490   20.3040 C   0  0  0  0  0  0  0  0  0  0  0  0
    5.3530   -4.7810   19.9650 O   0  0  0  0  0  0  0  0  0  0  0  0
    6.8650   -4.2590   21.6080 N   0  0  0  0  0  0  0  0  0  0  0  0
    7.6650   -3.1910   22.1640 C   0  0  0  0  0  0  0  0  0  0  0  0
    6.8620   -2.6270   23.3330 C   0  0  0  0  0  0  0  0  0  0  0  0
    6.7270   -3.7730   24.2980 C   0  0  0  0  0  0  0  0  0  0  0  0
    5.9200   -3.3330   25.4560 C   0  0  0  0  0  0  0  0  0  0  0  0
    4.7070   -3.6440   25.4600 O   0  0  0  0  0  0  0  0  0  0  0  0
    6.4700   -2.5620   26.5210 N   0  0  0  0  0  0  0  0  0  0  0  0
    5.6160   -1.5200   27.0080 C   0  0  2  0  0  0  0  0  0  0  0  0
    5.8390   -0.2610   26.2170 C   0  0  0  0  0  0  0  0  0  0  0  0
    5.9090    0.7870   27.0680 C   0  0  0  0  0  0  0  0  0  0  0  0
    5.9950    0.2860   28.3320 C   0  0  0  0  0  0  0  0  0  0  0  0
    5.8000   -1.0950   28.4620 C   0  0  2  0  0  0  0  0  0  0  0  0
    6.7130   -1.7070   29.2360 C   0  0  0  0  0  0  0  0  0  0  0  0
    8.1270   -1.2630   29.2560 C   0  0  0  0  0  0  0  0  0  0  0  0
    7.2620   -0.9030   30.3570 C   0  0  0  0  0  0  0  0  0  0  0  0
    6.0780   -4.9850   23.7420 C   0  0  0  0  0  0  0  0  0  0  0  0
    6.5560   -5.3810   22.4150 C   0  0  0  0  0  0  0  0  0  0  0  0
  1  2  1  0
  2  3  2  0
  2  4  1  0
  4  5  1  0
  5  6  1  0
  6  7  1  0
  7  8  1  0
  8  9  2  0
  8 10  1  0
 11 10  1  6
 11 12  1  0
 12 13  1  0
 13 14  1  0
 11 15  1  0
 14 15  1  0
 15 16  1  6
 16 17  1  0
 16 18  1  0
  7 19  1  0
  4 20  1  0
 19 20  1  0
M  END
