piperidine-amides-27878-covalent
     RDKit          3D

 26 28  0  0  0  0  0  0  0  0999 V2000
    7.0350   -3.3620   19.2990 C   0  0  0  0  0  0  0  0  0  0  0  0
    6.3850   -4.2010   20.3370 C   0  0  0  0  0  0  0  0  0  0  0  0
    5.3720   -4.8350   19.9730 O   0  0  0  0  0  0  0  0  0  0  0  0
    6.9020   -4.3130   21.6380 N   0  0  0  0  0  0  0  0  0  0  0  0
    6.3260   -5.2560   22.5410 C   0  0  0  0  0  0  0  0  0  0  0  0
    5.6680   -4.6520   23.7180 C   0  0  0  0  0  0  0  0  0  0  0  0
    6.3130   -3.4110   24.2340 C   0  0  0  0  0  0  0  0  0  0  0  0
    5.4740   -2.6470   25.2290 C   0  0  0  0  0  0  0  0  0  0  0  0
    4.2700   -2.4710   24.9790 O   0  0  0  0  0  0  0  0  0  0  0  0
    6.0500   -2.1810   26.4460 N   0  0  0  0  0  0  0  0  0  0  0  0
    5.1470   -1.7810   27.5580 C   0  0  0  0  0  0  0  0  0  0  0  0
    4.9100   -2.8750   28.5440 C   0  0  0  0  0  0  0  0  0  0  0  0
    6.0580   -3.6380   28.8850 C   0  0  0  0  0  0  0  0  0  0  0  0
    6.8620   -3.9220   27.8430 C   0  0  0  0  0  0  0  0  0  0  0  0
    7.6300   -4.9500   27.9150 C   0  0  0  0  0  0  0  0  0  0  0  0
    8.4390   -5.3630   26.9850 C   0  0  0  0  0  0  0  0  0  0  0  0
    9.0060   -6.3930   27.2220 C   0  0  0  0  0  0  0  0  0  0  0  0
    9.9660   -6.7190   26.5630 O   0  0  0  0  0  0  0  0  0  0  0  0
    8.3220   -7.0960   28.2500 O   0  0  0  0  0  0  0  0  0  0  0  0
    7.0330   -6.6070   28.7160 C   0  0  0  0  0  0  0  0  0  0  0  0
    6.0450   -6.4260   27.7380 C   0  0  0  0  0  0  0  0  0  0  0  0
    8.6670   -4.7160   25.7160 C   0  0  0  0  0  0  0  0  0  0  0  0
    7.8840   -3.5410   25.4570 C   0  0  0  0  0  0  0  0  0  0  0  0
    6.9630   -3.2190   26.5770 C   0  0  0  0  0  0  0  0  0  0  0  0
    6.8680   -2.5350   23.1970 C   0  0  0  0  0  0  0  0  0  0  0  0
    7.7420   -3.2780   22.2220 C   0  0  0  0  0  0  0  0  0  0  0  0
  1  2  1  0
  2  3  2  0
  2  4  1  0
  4  5  1  0
  5  6  1  0
  6  7  1  0
  7  8  1  0
  8  9  2  0
  8 10  1  0
 10 11  1  0
 11 12  1  0
 12 13  1  0
 13 14  1  0
 14 15  2  0
 15 16  1  0
 16 17  1  0
 17 18  2  0
 17 19  1  0
 19 20  1  0
 20 21  1  0
 16 22  2  0
 22 23  1  0
 10 24  1  0
 14 24  1  0
 23 24  2  0
  7 25  1  0
  4 26  1  0
 25 26  1  0
M  END
