piperidine-amides-8159-covalent
     RDKit          3D

 25 27  0  0  0  0  0  0  0  0999 V2000
    7.0590   -3.2950   19.2730 C   0  0  0  0  0  0  0  0  0  0  0  0
    6.3670   -4.1000   20.2790 C   0  0  0  0  0  0  0  0  0  0  0  0
    5.3290   -4.6930   19.9360 O   0  0  0  0  0  0  0  0  0  0  0  0
    6.8990   -4.2360   21.5890 N   0  0  0  0  0  0  0  0  0  0  0  0
    6.4890   -5.3640   22.3690 C   0  0  0  0  0  0  0  0  0  0  0  0
    5.6420   -4.8800   23.5100 C   0  0  0  0  0  0  0  0  0  0  0  0
    6.4770   -3.8930   24.3090 C   0  0  0  0  0  0  0  0  0  0  0  0
    5.6940   -3.4020   25.5000 C   0  0  0  0  0  0  0  0  0  0  0  0
    4.4970   -3.2150   25.3000 O   0  0  0  0  0  0  0  0  0  0  0  0
    6.3410   -3.1810   26.7290 N   0  0  0  0  0  0  0  0  0  0  0  0
    6.3120   -4.1090   27.8350 C   0  0  2  0  0  0  0  0  0  0  0  0
    5.8840   -5.4150   27.5440 C   0  0  0  0  0  0  0  0  0  0  0  0
    5.3890   -3.5770   28.8530 C   0  0  0  0  0  0  0  0  0  0  0  0
    4.3940   -4.3840   29.3970 C   0  0  0  0  0  0  0  0  0  0  0  0
    3.5020   -3.7800   30.4280 C   0  0  0  0  0  0  0  0  0  0  0  0
    3.6540   -2.3270   30.8890 C   0  0  0  0  0  0  0  0  0  0  0  0
    4.7490   -1.5970   30.2250 C   0  0  0  0  0  0  0  0  0  0  0  0
    4.9760   -0.2300   30.5830 N   0  0  0  0  0  0  0  0  0  0  0  0
    4.4070    0.9370   30.0390 C   0  0  0  0  0  0  0  0  0  0  0  0
    5.0920    1.8940   30.8750 C   0  0  0  0  0  0  0  0  0  0  0  0
    5.8340    1.7280   31.6870 N   0  0  0  0  0  0  0  0  0  0  0  0
    5.9130    0.3030   31.6670 C   0  0  0  0  0  0  0  0  0  0  0  0
    5.5240   -2.2650   29.2710 C   0  0  0  0  0  0  0  0  0  0  0  0
    6.9160   -2.7240   23.4900 C   0  0  0  0  0  0  0  0  0  0  0  0
    7.6070   -3.1570   22.2290 C   0  0  0  0  0  0  0  0  0  0  0  0
  1  2  1  0
  2  3  2  0
  2  4  1  0
  4  5  1  0
  5  6  1  0
  6  7  1  0
  7  8  1  0
  8  9  2  0
  8 10  1  0
 10 11  1  0
 11 12  1  6
 11 13  1  0
 13 14  2  0
 14 15  1  0
 15 16  2  0
 16 17  1  0
 17 18  1  0
 18 19  1  0
 19 20  2  0
 20 21  1  0
 18 22  1  0
 21 22  2  0
 13 23  1  0
 17 23  2  0
  7 24  1  0
  4 25  1  0
 24 25  1  0
M  END
