piperidine-amides-3406-covalent
     RDKit          3D

 21 22  0  0  0  0  0  0  0  0999 V2000
    7.1000   -3.2770   19.1840 C   0  0  0  0  0  0  0  0  0  0  0  0
    6.3390   -4.0190   20.1860 C   0  0  0  0  0  0  0  0  0  0  0  0
    5.2700   -4.5390   19.8800 O   0  0  0  0  0  0  0  0  0  0  0  0
    6.8600   -4.2000   21.5040 N   0  0  0  0  0  0  0  0  0  0  0  0
    7.6480   -3.1590   22.1160 C   0  0  0  0  0  0  0  0  0  0  0  0
    6.9420   -2.6170   23.3220 C   0  0  0  0  0  0  0  0  0  0  0  0
    6.5390   -3.7920   24.1970 C   0  0  0  0  0  0  0  0  0  0  0  0
    5.7570   -3.2830   25.3480 C   0  0  0  0  0  0  0  0  0  0  0  0
    4.5210   -3.1440   25.3040 O   0  0  0  0  0  0  0  0  0  0  0  0
    6.4410   -2.9470   26.5380 N   0  0  0  0  0  0  0  0  0  0  0  0
    6.4820   -1.5670   26.9480 C   0  0  0  0  0  0  0  0  0  0  0  0
    5.8490   -1.4980   28.3150 C   0  0  0  0  0  0  0  0  0  0  0  0
    4.7130   -2.1970   28.6710 C   0  0  0  0  0  0  0  0  0  0  0  0
    4.1110   -2.1430   29.9390 C   0  0  0  0  0  0  0  0  0  0  0  0
    2.9750   -2.8660   30.2410 C   0  0  0  0  0  0  0  0  0  0  0  0
    4.5620   -1.3770   31.0400 N   0  0  0  0  0  0  0  0  0  0  0  0
    5.7400   -0.6630   30.6490 C   0  0  0  0  0  0  0  0  0  0  0  0
    6.1760    0.0780   31.7230 C   0  0  0  0  0  0  0  0  0  0  0  0
    6.3360   -0.7000   29.4370 C   0  0  0  0  0  0  0  0  0  0  0  0
    5.8600   -4.9250   23.5130 C   0  0  0  0  0  0  0  0  0  0  0  0
    6.4460   -5.3350   22.2400 C   0  0  0  0  0  0  0  0  0  0  0  0
  1  2  1  0
  2  3  2  0
  2  4  1  0
  4  5  1  0
  5  6  1  0
  6  7  1  0
  7  8  1  0
  8  9  2  0
  8 10  1  0
 10 11  1  0
 11 12  1  0
 12 13  2  0
 13 14  1  0
 14 15  1  0
 14 16  2  0
 16 17  1  0
 17 18  1  0
 12 19  1  0
 17 19  2  0
  7 20  1  0
  4 21  1  0
 20 21  1  0
M  END
