piperidine-amides-24127-covalent
     RDKit          3D

 24 26  0  0  0  0  0  0  0  0999 V2000
    7.0420   -3.4000   19.4150 C   0  0  0  0  0  0  0  0  0  0  0  0
    6.3730   -4.2370   20.4230 C   0  0  0  0  0  0  0  0  0  0  0  0
    5.4020   -4.9170   20.0060 O   0  0  0  0  0  0  0  0  0  0  0  0
    6.8360   -4.3090   21.7720 N   0  0  0  0  0  0  0  0  0  0  0  0
    6.5980   -5.4930   22.5230 C   0  0  0  0  0  0  0  0  0  0  0  0
    6.0460   -5.1800   23.8260 C   0  0  0  0  0  0  0  0  0  0  0  0
    5.9070   -3.7220   23.9860 C   0  0  0  0  0  0  0  0  0  0  0  0
    5.0300   -3.2890   25.1650 C   0  0  0  0  0  0  0  0  0  0  0  0
    3.8520   -3.0130   24.9010 O   0  0  0  0  0  0  0  0  0  0  0  0
    5.3900   -3.1620   26.5300 N   0  0  0  0  0  0  0  0  0  0  0  0
    6.6320   -3.1220   27.0370 C   0  0  0  0  0  0  0  0  0  0  0  0
    6.7390   -4.0330   28.1720 C   0  0  0  0  0  0  0  0  0  0  0  0
    5.2770   -4.0010   28.6280 C   0  0  0  0  0  0  0  0  0  0  0  0
    4.4850   -3.4730   27.6080 C   0  0  2  0  0  0  0  0  0  0  0  0
    3.8170   -4.8430   27.5550 C   0  0  0  0  0  0  0  0  0  0  0  0
    4.6740   -5.6650   26.5980 C   0  0  0  0  0  0  0  0  0  0  0  0
    3.8140   -6.8880   26.7420 C   0  0  0  0  0  0  0  0  0  0  0  0
    2.7020   -6.6320   27.6650 C   0  0  0  0  0  0  0  0  0  0  0  0
    1.6620   -7.6750   28.0230 C   0  0  0  0  0  0  0  0  0  0  0  0
    0.4750   -7.3040   28.2090 O   0  0  0  0  0  0  0  0  0  0  0  0
   -0.4860   -8.2590   28.6010 C   0  0  0  0  0  0  0  0  0  0  0  0
    2.6710   -5.3880   28.1820 O   0  0  0  0  0  0  0  0  0  0  0  0
    7.2440   -3.0620   23.7890 C   0  0  0  0  0  0  0  0  0  0  0  0
    7.5410   -3.1860   22.4030 C   0  0  0  0  0  0  0  0  0  0  0  0
  1  2  1  0
  2  3  2  0
  2  4  1  0
  4  5  1  0
  5  6  1  0
  6  7  1  0
  7  8  1  0
  8  9  2  0
  8 10  1  0
 10 11  1  0
 11 12  1  0
 12 13  1  0
 10 14  1  0
 13 14  1  0
 14 15  1  6
 15 16  2  0
 16 17  1  0
 17 18  2  0
 18 19  1  0
 19 20  1  0
 20 21  1  0
 15 22  1  0
 18 22  1  0
  7 23  1  0
  4 24  1  0
 23 24  1  0
M  END
