piperidine-amides-33724-covalent
     RDKit          3D

 30 33  0  0  0  0  0  0  0  0999 V2000
    7.0270   -3.3000   19.2060 C   0  0  0  0  0  0  0  0  0  0  0  0
    6.2760   -4.0420   20.2340 C   0  0  0  0  0  0  0  0  0  0  0  0
    5.2390   -4.6430   19.8870 O   0  0  0  0  0  0  0  0  0  0  0  0
    6.7290   -4.1000   21.5570 N   0  0  0  0  0  0  0  0  0  0  0  0
    6.3240   -5.2170   22.3250 C   0  0  0  0  0  0  0  0  0  0  0  0
    5.5060   -4.8710   23.4940 C   0  0  0  0  0  0  0  0  0  0  0  0
    5.1530   -3.4230   23.6740 C   0  0  0  0  0  0  0  0  0  0  0  0
    4.4480   -3.1610   25.0040 C   0  0  0  0  0  0  0  0  0  0  0  0
    3.2320   -3.3590   25.0580 O   0  0  0  0  0  0  0  0  0  0  0  0
    5.0530   -2.7190   26.1970 N   0  0  0  0  0  0  0  0  0  0  0  0
    4.4040   -2.5260   27.4480 C   0  0  0  0  0  0  0  0  0  0  0  0
    4.9590   -3.0500   28.7080 C   0  0  0  0  0  0  0  0  0  0  0  0
    5.2270   -4.5450   28.5630 C   0  0  0  0  0  0  0  0  0  0  0  0
    6.5060   -4.7950   28.1500 C   0  0  0  0  0  0  0  0  0  0  0  0
    5.9930   -4.7580   26.6850 C   0  0  0  0  0  0  0  0  0  0  0  0
    6.2520   -3.2630   26.4980 C   0  0  1  0  0  0  0  0  0  0  0  0
    7.0960   -3.3610   25.2100 C   0  0  0  0  0  0  0  0  0  0  0  0
    7.1610   -4.3620   24.2200 N   0  0  0  0  0  0  0  0  0  0  0  0
    8.2330   -4.0260   23.3790 O   0  0  0  0  0  0  0  0  0  0  0  0
    8.6930   -2.7990   23.9850 C   0  0  0  0  0  0  0  0  0  0  0  0
    9.9440   -2.2690   23.3370 C   0  0  0  0  0  0  0  0  0  0  0  0
   10.9080   -1.4940   24.2330 C   0  0  0  0  0  0  0  0  0  0  0  0
   12.1530   -0.9880   23.6580 C   0  0  0  0  0  0  0  0  0  0  0  0
   12.4700   -1.1970   22.3470 C   0  0  0  0  0  0  0  0  0  0  0  0
   13.6780   -0.6560   21.9640 F   0  0  0  0  0  0  0  0  0  0  0  0
   11.6130   -1.8930   21.5430 C   0  0  0  0  0  0  0  0  0  0  0  0
   10.2960   -2.4470   22.0390 C   0  0  0  0  0  0  0  0  0  0  0  0
    7.9780   -2.3570   25.0490 N   0  0  0  0  0  0  0  0  0  0  0  0
    6.2600   -2.4520   23.3370 C   0  0  0  0  0  0  0  0  0  0  0  0
    7.1090   -2.8460   22.1260 C   0  0  0  0  0  0  0  0  0  0  0  0
  1  2  1  0
  2  3  2  0
  2  4  1  0
  4  5  1  0
  5  6  1  0
  6  7  1  0
  7  8  1  0
  8  9  2  0
  8 10  1  0
 10 11  1  0
 11 12  1  0
 12 13  1  0
 13 14  1  0
 14 15  1  0
 10 16  1  0
 15 16  1  0
 16 17  1  6
 17 18  2  0
 18 19  1  0
 19 20  1  0
 20 21  1  0
 21 22  2  0
 22 23  1  0
 23 24  2  0
 24 25  1  0
 24 26  1  0
 21 27  1  0
 26 27  2  0
 17 28  1  0
 20 28  2  0
  7 29  1  0
  4 30  1  0
 29 30  1  0
M  END
