piperidine-amides-23961-covalent
     RDKit          3D

 24 26  0  0  0  0  0  0  0  0999 V2000
    7.0450   -3.3860   19.3750 C   0  0  0  0  0  0  0  0  0  0  0  0
    6.4190   -4.2640   20.3770 C   0  0  0  0  0  0  0  0  0  0  0  0
    5.3900   -4.8800   19.9960 O   0  0  0  0  0  0  0  0  0  0  0  0
    6.9790   -4.4620   21.6770 N   0  0  0  0  0  0  0  0  0  0  0  0
    6.4950   -5.5190   22.4750 C   0  0  0  0  0  0  0  0  0  0  0  0
    5.9160   -5.1080   23.7660 C   0  0  0  0  0  0  0  0  0  0  0  0
    6.3080   -3.7890   24.3520 C   0  0  0  0  0  0  0  0  0  0  0  0
    5.2610   -3.2980   25.3360 C   0  0  0  0  0  0  0  0  0  0  0  0
    4.2310   -2.7980   24.8670 O   0  0  0  0  0  0  0  0  0  0  0  0
    5.3770   -3.3770   26.7540 N   0  0  0  0  0  0  0  0  0  0  0  0
    6.5450   -3.3900   27.4360 C   0  0  0  0  0  0  0  0  0  0  0  0
    6.7510   -4.5370   28.3070 C   0  0  0  0  0  0  0  0  0  0  0  0
    5.7870   -4.9090   29.1240 N   0  0  0  0  0  0  0  0  0  0  0  0
    5.8160   -6.1920   29.7910 C   0  0  0  0  0  0  0  0  0  0  0  0
    6.7110   -7.0730   29.2540 O   0  0  0  0  0  0  0  0  0  0  0  0
    5.0500   -6.5330   30.8950 C   0  0  0  0  0  0  0  0  0  0  0  0
    3.8240   -5.5990   31.0650 C   0  0  0  0  0  0  0  0  0  0  0  0
    3.2270   -6.2000   32.2930 C   0  0  0  0  0  0  0  0  0  0  0  0
    3.9080   -7.2820   32.8080 O   0  0  0  0  0  0  0  0  0  0  0  0
    5.0260   -7.5350   32.0040 C   0  0  0  0  0  0  0  0  0  0  0  0
    4.5680   -4.2420   28.9470 C   0  0  0  0  0  0  0  0  0  0  0  0
    4.2690   -3.4820   27.6380 C   0  0  0  0  0  0  0  0  0  0  0  0
    6.5810   -2.7200   23.2790 C   0  0  0  0  0  0  0  0  0  0  0  0
    7.5810   -3.2940   22.3350 C   0  0  0  0  0  0  0  0  0  0  0  0
  1  2  1  0
  2  3  2  0
  2  4  1  0
  4  5  1  0
  5  6  1  0
  6  7  1  0
  7  8  1  0
  8  9  2  0
  8 10  1  0
 10 11  1  0
 11 12  1  0
 12 13  1  0
 13 14  1  0
 14 15  2  0
 14 16  1  0
 16 17  1  0
 17 18  2  0
 18 19  1  0
 16 20  2  0
 19 20  1  0
 13 21  1  0
 10 22  1  0
 21 22  1  0
  7 23  1  0
  4 24  1  0
 23 24  1  0
M  END
