piperidine-amides-35285-covalent
     RDKit          3D

 29 30  0  0  0  0  0  0  0  0999 V2000
    7.0660   -3.2480   19.2170 C   0  0  0  0  0  0  0  0  0  0  0  0
    6.2950   -4.0230   20.2290 C   0  0  0  0  0  0  0  0  0  0  0  0
    5.2520   -4.5540   19.8680 O   0  0  0  0  0  0  0  0  0  0  0  0
    6.7770   -4.1560   21.5270 N   0  0  0  0  0  0  0  0  0  0  0  0
    7.6090   -3.1560   22.1170 C   0  0  0  0  0  0  0  0  0  0  0  0
    7.3280   -3.1780   23.5770 C   0  0  0  0  0  0  0  0  0  0  0  0
    5.8430   -3.4480   23.7760 C   0  0  0  0  0  0  0  0  0  0  0  0
    5.4470   -3.0760   25.1640 C   0  0  0  0  0  0  0  0  0  0  0  0
    4.3060   -3.3670   25.5500 O   0  0  0  0  0  0  0  0  0  0  0  0
    6.3130   -2.3970   26.0560 N   0  0  0  0  0  0  0  0  0  0  0  0
    6.7900   -3.0820   27.2310 C   0  0  0  0  0  0  0  0  0  0  0  0
    8.2450   -3.2600   26.9510 C   0  0  0  0  0  0  0  0  0  0  0  0
    8.6940   -3.0860   25.6830 C   0  0  0  0  0  0  0  0  0  0  0  0
    9.5260   -4.0180   25.1910 C   0  0  0  0  0  0  0  0  0  0  0  0
    9.8790   -4.9840   26.0750 C   0  0  0  0  0  0  0  0  0  0  0  0
    8.9990   -6.1470   26.4070 C   0  0  0  0  0  0  0  0  0  0  0  0
    8.4740   -5.6680   27.7120 C   0  0  0  0  0  0  0  0  0  0  0  0
    9.5420   -4.7240   28.1290 C   0  0  0  0  0  0  0  0  0  0  0  0
    6.4390   -0.9480   25.9110 C   0  0  1  0  0  0  0  0  0  0  0  0
    6.5980   -0.3080   27.2540 C   0  0  0  0  0  0  0  0  0  0  0  0
    7.6440   -0.6190   25.0730 C   0  0  0  0  0  0  0  0  0  0  0  0
    8.9450   -0.4140   25.7450 C   0  0  0  0  0  0  0  0  0  0  0  0
   10.1830   -0.1020   24.9750 C   0  0  0  0  0  0  0  0  0  0  0  0
   10.2400    0.0250   23.6380 C   0  0  0  0  0  0  0  0  0  0  0  0
   11.9360    0.4230   22.8840 Br  0  0  0  0  0  0  0  0  0  0  0  0
    8.9310   -0.1670   22.9110 C   0  0  0  0  0  0  0  0  0  0  0  0
    7.6320   -0.4940   23.6910 C   0  0  0  0  0  0  0  0  0  0  0  0
    5.6020   -4.9150   23.4190 C   0  0  0  0  0  0  0  0  0  0  0  0
    6.4100   -5.2780   22.3710 C   0  0  0  0  0  0  0  0  0  0  0  0
  1  2  1  0
  2  3  2  0
  2  4  1  0
  4  5  1  0
  5  6  1  0
  6  7  1  0
  7  8  1  0
  8  9  2  0
  8 10  1  0
 10 11  1  0
 11 12  1  0
 12 13  1  0
 13 14  1  0
 14 15  1  0
 15 16  1  0
 16 17  1  0
 17 18  1  0
 10 19  1  0
 19 20  1  1
 19 21  1  0
 21 22  2  0
 22 23  1  0
 23 24  2  0
 24 25  1  0
 24 26  1  0
 21 27  1  0
 26 27  2  0
  7 28  1  0
  4 29  1  0
 28 29  1  0
M  END
