piperidine-amides-23478-covalent
     RDKit          3D

 24 26  0  0  0  0  0  0  0  0999 V2000
    7.0910   -3.3520   19.3760 C   0  0  0  0  0  0  0  0  0  0  0  0
    6.4380   -4.2270   20.3580 C   0  0  0  0  0  0  0  0  0  0  0  0
    5.3850   -4.7990   19.9790 O   0  0  0  0  0  0  0  0  0  0  0  0
    7.0040   -4.4660   21.6410 N   0  0  0  0  0  0  0  0  0  0  0  0
    6.4600   -5.5130   22.4110 C   0  0  0  0  0  0  0  0  0  0  0  0
    5.8660   -5.0620   23.6680 C   0  0  0  0  0  0  0  0  0  0  0  0
    6.3340   -3.7530   24.2140 C   0  0  0  0  0  0  0  0  0  0  0  0
    5.3080   -3.1880   25.1770 C   0  0  0  0  0  0  0  0  0  0  0  0
    4.6210   -2.2210   24.8290 O   0  0  0  0  0  0  0  0  0  0  0  0
    5.0990   -3.7320   26.4640 N   0  0  0  0  0  0  0  0  0  0  0  0
    4.6350   -3.0550   27.5990 C   0  0  0  0  0  0  0  0  0  0  0  0
    4.6710   -3.7730   28.8660 C   0  0  0  0  0  0  0  0  0  0  0  0
    6.1030   -4.2520   29.0890 C   0  0  0  0  0  0  0  0  0  0  0  0
    6.0660   -5.6760   28.8260 N   0  0  0  0  0  0  0  0  0  0  0  0
    5.2980   -6.4310   29.7940 C   0  0  0  0  0  0  0  0  0  0  0  0
    4.0010   -6.9270   29.1320 C   0  0  0  0  0  0  0  0  0  0  0  0
    3.1940   -7.7240   30.1350 C   0  0  0  0  0  0  0  0  0  0  0  0
    3.9190   -7.7860   31.4920 C   0  0  0  0  0  0  0  0  0  0  0  0
    5.2260   -7.2130   31.9410 C   0  0  0  0  0  0  0  0  0  0  0  0
    5.8860   -6.5200   31.0020 N   0  0  0  0  0  0  0  0  0  0  0  0
    5.9200   -5.9520   27.5580 C   0  0  0  0  0  0  0  0  0  0  0  0
    6.0690   -4.6850   26.7150 C   0  0  0  0  0  0  0  0  0  0  0  0
    6.6880   -2.7690   23.1340 C   0  0  0  0  0  0  0  0  0  0  0  0
    7.6720   -3.4220   22.3900 C   0  0  0  0  0  0  0  0  0  0  0  0
  1  2  1  0
  2  3  2  0
  2  4  1  0
  4  5  1  0
  5  6  1  0
  6  7  1  0
  7  8  1  0
  8  9  2  0
  8 10  1  0
 10 11  1  0
 11 12  1  0
 12 13  1  0
 13 14  1  0
 14 15  1  0
 15 16  2  0
 16 17  1  0
 17 18  2  0
 18 19  1  0
 15 20  1  0
 19 20  2  0
 14 21  1  0
 10 22  1  0
 21 22  1  0
  7 23  1  0
  4 24  1  0
 23 24  1  0
M  END
