piperidine-amides-26071-covalent
     RDKit          3D

 25 26  0  0  0  0  0  0  0  0999 V2000
    7.1820   -3.2760   19.1640 C   0  0  0  0  0  0  0  0  0  0  0  0
    6.4260   -4.0140   20.1700 C   0  0  0  0  0  0  0  0  0  0  0  0
    5.3200   -4.5010   19.8740 O   0  0  0  0  0  0  0  0  0  0  0  0
    6.9740   -4.2370   21.4360 N   0  0  0  0  0  0  0  0  0  0  0  0
    7.7460   -3.2210   22.1000 C   0  0  0  0  0  0  0  0  0  0  0  0
    6.8670   -2.7750   23.2230 C   0  0  0  0  0  0  0  0  0  0  0  0
    6.4360   -3.9180   24.0910 C   0  0  0  0  0  0  0  0  0  0  0  0
    5.6310   -3.4320   25.2120 C   0  0  0  0  0  0  0  0  0  0  0  0
    4.4170   -3.1200   25.0350 O   0  0  0  0  0  0  0  0  0  0  0  0
    6.1270   -3.2930   26.5030 N   0  0  0  0  0  0  0  0  0  0  0  0
    6.3130   -1.8960   26.9650 C   0  0  0  0  0  0  0  0  0  0  0  0
    5.4230   -1.0500   26.1310 C   0  0  0  0  0  0  0  0  0  0  0  0
    3.9680   -1.0630   26.3660 C   0  0  0  0  0  0  0  0  0  0  0  0
    3.0840   -0.2010   25.5040 C   0  0  0  0  0  0  0  0  0  0  0  0
    3.6920    0.6620   24.4170 C   0  0  0  0  0  0  0  0  0  0  0  0
    5.1760    0.5360   24.3370 C   0  0  0  0  0  0  0  0  0  0  0  0
    5.9450   -0.2640   25.1440 C   0  0  0  0  0  0  0  0  0  0  0  0
    5.7750   -4.2870   27.4590 C   0  0  1  0  0  0  0  0  0  0  0  0
    5.9180   -5.7110   26.9580 C   0  0  0  0  0  0  0  0  0  0  0  0
    6.4910   -4.1480   28.7390 C   0  0  0  0  0  0  0  0  0  0  0  0
    7.1730   -3.1080   28.9670 O   0  0  0  0  0  0  0  0  0  0  0  0
    6.3780   -5.1320   29.7040 O   0  0  0  0  0  0  0  0  0  0  0  0
    6.4280   -6.5000   29.3440 C   0  0  0  0  0  0  0  0  0  0  0  0
    5.6950   -4.9720   23.3260 C   0  0  0  0  0  0  0  0  0  0  0  0
    6.4780   -5.3610   22.1410 C   0  0  0  0  0  0  0  0  0  0  0  0
  1  2  1  0
  2  3  2  0
  2  4  1  0
  4  5  1  0
  5  6  1  0
  6  7  1  0
  7  8  1  0
  8  9  2  0
  8 10  1  0
 10 11  1  0
 11 12  1  0
 12 13  2  0
 13 14  1  0
 14 15  2  0
 15 16  1  0
 12 17  1  0
 16 17  2  0
 10 18  1  0
 18 19  1  6
 18 20  1  0
 20 21  2  0
 20 22  1  0
 22 23  1  0
  7 24  1  0
  4 25  1  0
 24 25  1  0
M  END
