piperidine-amides-1781-covalent
     RDKit          3D

 19 20  0  0  0  0  0  0  0  0999 V2000
    7.1380   -3.2570   19.1760 C   0  0  0  0  0  0  0  0  0  0  0  0
    6.3660   -4.0210   20.1990 C   0  0  0  0  0  0  0  0  0  0  0  0
    5.2880   -4.5450   19.8800 O   0  0  0  0  0  0  0  0  0  0  0  0
    6.9080   -4.1720   21.4870 N   0  0  0  0  0  0  0  0  0  0  0  0
    7.7560   -3.1690   22.0890 C   0  0  0  0  0  0  0  0  0  0  0  0
    6.9760   -2.5890   23.2580 C   0  0  0  0  0  0  0  0  0  0  0  0
    6.5000   -3.7640   24.0330 C   0  0  0  0  0  0  0  0  0  0  0  0
    5.7580   -3.3800   25.2420 C   0  0  0  0  0  0  0  0  0  0  0  0
    4.6730   -2.8110   25.0730 O   0  0  0  0  0  0  0  0  0  0  0  0
    6.2850   -3.6660   26.4960 N   0  0  0  0  0  0  0  0  0  0  0  0
    5.6490   -4.3910   27.5230 C   0  0  0  0  0  0  0  0  0  0  0  0
    5.7360   -5.7710   27.5370 C   0  0  0  0  0  0  0  0  0  0  0  0
    5.3970   -6.4170   28.7390 C   0  0  0  0  0  0  0  0  0  0  0  0
    4.0840   -6.6310   28.9980 F   0  0  0  0  0  0  0  0  0  0  0  0
    4.2320   -4.1900   27.7480 C   0  0  0  0  0  0  0  0  0  0  0  0
    4.4700   -3.5590   29.0560 C   0  0  0  0  0  0  0  0  0  0  0  0
    5.9260   -3.7880   28.7660 C   0  0  0  0  0  0  0  0  0  0  0  0
    5.6770   -4.7690   23.2800 C   0  0  0  0  0  0  0  0  0  0  0  0
    6.4750   -5.2860   22.2820 C   0  0  0  0  0  0  0  0  0  0  0  0
  1  2  1  0
  2  3  2  0
  2  4  1  0
  4  5  1  0
  5  6  1  0
  6  7  1  0
  7  8  1  0
  8  9  2  0
  8 10  1  0
 11 10  1  0
 11 12  1  0
 12 13  1  0
 13 14  1  0
 11 15  1  0
 15 16  1  0
 11 17  1  0
 16 17  1  0
  7 18  1  0
  4 19  1  0
 18 19  1  0
M  END
