piperidine-amides-27676-covalent
     RDKit          3D

 23 24  0  0  0  0  0  0  0  0999 V2000
    7.0670   -3.3060   19.3110 C   0  0  0  0  0  0  0  0  0  0  0  0
    6.3110   -4.0440   20.3320 C   0  0  0  0  0  0  0  0  0  0  0  0
    5.2920   -4.6570   19.9210 O   0  0  0  0  0  0  0  0  0  0  0  0
    6.7330   -4.0890   21.6710 N   0  0  0  0  0  0  0  0  0  0  0  0
    6.5750   -5.2770   22.4700 C   0  0  0  0  0  0  0  0  0  0  0  0
    6.0340   -4.8390   23.8050 C   0  0  0  0  0  0  0  0  0  0  0  0
    5.8720   -3.3390   23.8530 C   0  0  0  0  0  0  0  0  0  0  0  0
    5.1340   -2.9070   25.0880 C   0  0  0  0  0  0  0  0  0  0  0  0
    3.9010   -3.0870   25.0660 O   0  0  0  0  0  0  0  0  0  0  0  0
    5.6640   -2.3320   26.2840 N   0  0  0  0  0  0  0  0  0  0  0  0
    6.5310   -1.1770   26.2690 C   0  0  0  0  0  0  0  0  0  0  0  0
    5.4540   -3.0710   27.5120 C   0  0  1  0  0  0  0  0  0  0  0  0
    4.3220   -3.8220   27.5080 C   0  0  0  0  0  0  0  0  0  0  0  0
    6.4310   -4.0960   27.5140 C   0  0  0  0  0  0  0  0  0  0  0  0
    7.1850   -3.5690   26.5290 C   0  0  0  0  0  0  0  0  0  0  0  0
    8.2420   -4.2060   26.1260 C   0  0  0  0  0  0  0  0  0  0  0  0
    8.5710   -5.3610   26.6990 C   0  0  0  0  0  0  0  0  0  0  0  0
    9.9010   -6.1200   26.1110 Cl  0  0  0  0  0  0  0  0  0  0  0  0
    7.8180   -6.0180   27.8180 C   0  0  0  0  0  0  0  0  0  0  0  0
    6.6040   -5.2460   28.2140 C   0  0  0  0  0  0  0  0  0  0  0  0
    5.5020   -5.7850   29.4480 Cl  0  0  0  0  0  0  0  0  0  0  0  0
    7.2030   -2.6210   23.5830 C   0  0  0  0  0  0  0  0  0  0  0  0
    7.6500   -3.0610   22.1830 C   0  0  0  0  0  0  0  0  0  0  0  0
  1  2  1  0
  2  3  2  0
  2  4  1  0
  4  5  1  0
  5  6  1  0
  6  7  1  0
  7  8  1  0
  8  9  2  0
  8 10  1  0
 10 11  1  0
 10 12  1  0
 12 13  1  6
 12 14  1  0
 14 15  2  0
 15 16  1  0
 16 17  2  0
 17 18  1  0
 17 19  1  0
 14 20  1  0
 19 20  2  0
 20 21  1  0
  7 22  1  0
  4 23  1  0
 22 23  1  0
M  END
