piperidine-amides-31064-covalent
     RDKit          3D

 28 30  0  0  0  0  0  0  0  0999 V2000
    7.1390   -3.2970   19.2250 C   0  0  0  0  0  0  0  0  0  0  0  0
    6.4060   -4.0650   20.2350 C   0  0  0  0  0  0  0  0  0  0  0  0
    5.3420   -4.6270   19.9210 O   0  0  0  0  0  0  0  0  0  0  0  0
    6.9250   -4.2100   21.5310 N   0  0  0  0  0  0  0  0  0  0  0  0
    7.7660   -3.1970   22.1180 C   0  0  0  0  0  0  0  0  0  0  0  0
    6.9530   -2.6750   23.2500 C   0  0  0  0  0  0  0  0  0  0  0  0
    6.6080   -3.7790   24.2010 C   0  0  0  0  0  0  0  0  0  0  0  0
    5.8470   -3.2350   25.3350 C   0  0  0  0  0  0  0  0  0  0  0  0
    4.5950   -3.1070   25.2340 O   0  0  0  0  0  0  0  0  0  0  0  0
    6.4520   -2.8090   26.5390 N   0  0  0  0  0  0  0  0  0  0  0  0
    6.6840   -1.3660   26.7340 C   0  0  0  0  0  0  0  0  0  0  0  0
    6.3730   -3.6220   27.7630 C   0  0  2  0  0  0  0  0  0  0  0  0
    6.6250   -5.0400   27.4050 C   0  0  0  0  0  0  0  0  0  0  0  0
    5.7010   -5.9800   28.1180 C   0  0  0  0  0  0  0  0  0  0  0  0
    4.6480   -6.6610   27.2310 C   0  0  0  0  0  0  0  0  0  0  0  0
    3.7250   -7.5910   27.9630 C   0  0  0  0  0  0  0  0  0  0  0  0
    3.8670   -7.7770   29.3120 C   0  0  0  0  0  0  0  0  0  0  0  0
    4.8150   -7.1670   30.0980 C   0  0  0  0  0  0  0  0  0  0  0  0
    5.7680   -6.2250   29.4550 C   0  0  0  0  0  0  0  0  0  0  0  0
    5.1050   -3.2480   28.4550 C   0  0  0  0  0  0  0  0  0  0  0  0
    5.2100   -2.9500   29.8080 N   0  0  0  0  0  0  0  0  0  0  0  0
    3.8700   -2.6530   30.1210 C   0  0  0  0  0  0  0  0  0  0  0  0
    3.0170   -2.7110   29.2370 C   0  0  0  0  0  0  0  0  0  0  0  0
    3.8060   -3.0970   28.1360 N   0  0  0  0  0  0  0  0  0  0  0  0
    3.1080   -3.2330   27.0150 C   0  0  0  0  0  0  0  0  0  0  0  0
    3.3030   -4.5170   26.5670 C   0  0  0  0  0  0  0  0  0  0  0  0
    5.8300   -4.8960   23.5430 C   0  0  0  0  0  0  0  0  0  0  0  0
    6.6310   -5.3780   22.3360 C   0  0  0  0  0  0  0  0  0  0  0  0
  1  2  1  0
  2  3  2  0
  2  4  1  0
  4  5  1  0
  5  6  1  0
  6  7  1  0
  7  8  1  0
  8  9  2  0
  8 10  1  0
 10 11  1  0
 10 12  1  0
 12 13  1  6
 13 14  1  0
 14 15  2  0
 15 16  1  0
 16 17  2  0
 17 18  1  0
 14 19  1  0
 18 19  2  0
 12 20  1  0
 20 21  2  0
 21 22  1  0
 22 23  2  0
 20 24  1  0
 23 24  1  0
 24 25  1  0
 25 26  1  0
  7 27  1  0
  4 28  1  0
 27 28  1  0
M  END
