piperidine-amides-5228-covalent
     RDKit          3D

 22 23  0  0  0  0  0  0  0  0999 V2000
    7.1360   -3.2920   19.2680 C   0  0  0  0  0  0  0  0  0  0  0  0
    6.3590   -4.0430   20.2750 C   0  0  0  0  0  0  0  0  0  0  0  0
    5.2870   -4.5570   19.8910 O   0  0  0  0  0  0  0  0  0  0  0  0
    6.8530   -4.1940   21.5770 N   0  0  0  0  0  0  0  0  0  0  0  0
    6.5730   -5.3770   22.3140 C   0  0  0  0  0  0  0  0  0  0  0  0
    6.0640   -5.0800   23.6480 C   0  0  0  0  0  0  0  0  0  0  0  0
    5.9990   -3.6290   23.9280 C   0  0  0  0  0  0  0  0  0  0  0  0
    5.5880   -3.3600   25.3200 C   0  0  0  0  0  0  0  0  0  0  0  0
    4.3700   -3.3060   25.5720 O   0  0  0  0  0  0  0  0  0  0  0  0
    6.5390   -3.1640   26.3270 N   0  0  0  0  0  0  0  0  0  0  0  0
    6.2350   -3.2960   27.7640 C   0  0  0  0  0  0  0  0  0  0  0  0
    6.3150   -1.9550   28.4030 C   0  0  0  0  0  0  0  0  0  0  0  0
    6.4700   -1.4580   29.6940 N   0  0  0  0  0  0  0  0  0  0  0  0
    6.4770   -0.0250   29.6600 C   0  0  0  0  0  0  0  0  0  0  0  0
    6.6340    0.5400   30.9000 C   0  0  0  0  0  0  0  0  0  0  0  0
    5.7560    0.1030   31.8680 C   0  0  0  0  0  0  0  0  0  0  0  0
    7.9600    0.1760   31.4600 C   0  0  0  0  0  0  0  0  0  0  0  0
    6.3420    0.6940   28.4950 C   0  0  0  0  0  0  0  0  0  0  0  0
    6.3300    2.0480   28.3090 C   0  0  0  0  0  0  0  0  0  0  0  0
    6.1880   -0.5770   27.2790 S   0  0  0  0  0  0  0  0  0  0  0  0
    7.3070   -2.9570   23.6040 C   0  0  0  0  0  0  0  0  0  0  0  0
    7.7140   -3.1990   22.1970 C   0  0  0  0  0  0  0  0  0  0  0  0
  1  2  1  0
  2  3  2  0
  2  4  1  0
  4  5  1  0
  5  6  1  0
  6  7  1  0
  7  8  1  0
  8  9  2  0
  8 10  1  0
 10 11  1  0
 11 12  1  0
 12 13  2  0
 13 14  1  0
 14 15  1  0
 15 16  1  0
 15 17  1  0
 14 18  2  0
 18 19  1  0
 12 20  1  0
 18 20  1  0
  7 21  1  0
  4 22  1  0
 21 22  1  0
M  END
