piperidine-amides-18871-covalent
     RDKit          3D

 21 22  0  0  0  0  0  0  0  0999 V2000
    7.0530   -3.4090   19.3430 C   0  0  0  0  0  0  0  0  0  0  0  0
    6.4070   -4.2010   20.3620 C   0  0  0  0  0  0  0  0  0  0  0  0
    5.3940   -4.8770   20.0000 O   0  0  0  0  0  0  0  0  0  0  0  0
    6.8850   -4.2950   21.6920 N   0  0  0  0  0  0  0  0  0  0  0  0
    6.5840   -5.5310   22.4280 C   0  0  0  0  0  0  0  0  0  0  0  0
    5.5400   -4.9210   23.4300 C   0  0  0  0  0  0  0  0  0  0  0  0
    6.2750   -3.8850   24.2680 C   0  0  0  0  0  0  0  0  0  0  0  0
    5.2510   -3.4490   25.4150 C   0  0  0  0  0  0  0  0  0  0  0  0
    4.2080   -3.1110   24.8800 O   0  0  0  0  0  0  0  0  0  0  0  0
    5.7280   -3.5410   26.6060 N   0  0  0  0  0  0  0  0  0  0  0  0
    6.4380   -3.6530   27.7050 C   0  0  0  0  0  0  0  0  0  0  0  0
    6.7640   -4.6540   28.5310 C   0  0  0  0  0  0  0  0  0  0  0  0
    5.6600   -4.7260   29.3130 O   0  0  0  0  0  0  0  0  0  0  0  0
    4.5250   -4.4870   28.5530 C   0  0  0  0  0  0  0  0  0  0  0  0
    4.6800   -3.2670   27.6450 C   0  0  1  0  0  0  0  0  0  0  0  0
    5.2490   -2.3380   28.7440 C   0  0  0  0  0  0  0  0  0  0  0  0
    4.0270   -1.6550   28.8440 C   0  0  0  0  0  0  0  0  0  0  0  0
    3.8900   -0.7950   29.9530 O   0  0  0  0  0  0  0  0  0  0  0  0
    3.5160   -1.1810   31.2230 C   0  0  0  0  0  0  0  0  0  0  0  0
    7.0320   -2.8350   23.6150 C   0  0  0  0  0  0  0  0  0  0  0  0
    7.7450   -3.3890   22.3390 C   0  0  0  0  0  0  0  0  0  0  0  0
  1  2  1  0
  2  3  2  0
  2  4  1  0
  4  5  1  0
  5  6  1  0
  6  7  1  0
  7  8  1  0
  8  9  2  0
  8 10  1  0
 10 11  1  0
 11 12  1  0
 12 13  1  0
 13 14  1  0
 10 15  1  0
 14 15  1  0
 15 16  1  1
 16 17  1  0
 17 18  1  0
 18 19  1  0
  7 20  1  0
  4 21  1  0
 20 21  1  0
M  END
