piperidine-amides-26048-covalent
     RDKit          3D

 25 27  0  0  0  0  0  0  0  0999 V2000
    7.0440   -3.3590   19.4070 C   0  0  0  0  0  0  0  0  0  0  0  0
    6.3860   -4.2390   20.3780 C   0  0  0  0  0  0  0  0  0  0  0  0
    5.3830   -4.8670   19.9950 O   0  0  0  0  0  0  0  0  0  0  0  0
    6.8630   -4.4480   21.6960 N   0  0  0  0  0  0  0  0  0  0  0  0
    6.4110   -5.5580   22.4810 C   0  0  0  0  0  0  0  0  0  0  0  0
    5.4780   -4.9280   23.4910 C   0  0  0  0  0  0  0  0  0  0  0  0
    6.1530   -3.9070   24.3790 C   0  0  0  0  0  0  0  0  0  0  0  0
    5.2140   -3.3420   25.4110 C   0  0  0  0  0  0  0  0  0  0  0  0
    4.1660   -2.7570   25.0320 O   0  0  0  0  0  0  0  0  0  0  0  0
    5.3970   -3.4110   26.8280 N   0  0  0  0  0  0  0  0  0  0  0  0
    6.6830   -3.4150   27.3860 C   0  0  0  0  0  0  0  0  0  0  0  0
    6.7710   -4.6710   28.1910 C   0  0  0  0  0  0  0  0  0  0  0  0
    5.5500   -4.9840   28.9330 C   0  0  0  0  0  0  0  0  0  0  0  0
    5.6540   -6.1230   29.8820 C   0  0  0  0  0  0  0  0  0  0  0  0
    4.4070   -6.4410   30.6270 C   0  0  0  0  0  0  0  0  0  0  0  0
    4.4490   -7.5270   31.5350 O   0  0  0  0  0  0  0  0  0  0  0  0
    5.6970   -7.6560   32.0670 C   0  0  0  0  0  0  0  0  0  0  0  0
    3.1570   -5.6140   30.3880 C   0  0  0  0  0  0  0  0  0  0  0  0
    2.1900   -5.9820   31.0700 O   0  0  0  0  0  0  0  0  0  0  0  0
    1.5660   -7.1320   30.6260 C   0  0  0  0  0  0  0  0  0  0  0  0
    2.9410   -4.4140   29.4300 C   0  0  0  0  0  0  0  0  0  0  0  0
    4.3530   -4.2770   28.7670 C   0  0  0  0  0  0  0  0  0  0  0  0
    4.3470   -3.1490   27.7570 C   0  0  0  0  0  0  0  0  0  0  0  0
    6.8450   -2.8350   23.5670 C   0  0  0  0  0  0  0  0  0  0  0  0
    7.5290   -3.3630   22.3470 C   0  0  0  0  0  0  0  0  0  0  0  0
  1  2  1  0
  2  3  2  0
  2  4  1  0
  4  5  1  0
  5  6  1  0
  6  7  1  0
  7  8  1  0
  8  9  2  0
  8 10  1  0
 10 11  1  0
 11 12  1  0
 12 13  1  0
 13 14  2  0
 14 15  1  0
 15 16  1  0
 16 17  1  0
 15 18  2  0
 18 19  1  0
 19 20  1  0
 18 21  1  0
 13 22  1  0
 21 22  2  0
 10 23  1  0
 22 23  1  0
  7 24  1  0
  4 25  1  0
 24 25  1  0
M  END
