piperidine-amides-12681-covalent
     RDKit          3D

 22 22  0  0  0  0  0  0  0  0999 V2000
    7.1420   -3.2760   19.2150 C   0  0  0  0  0  0  0  0  0  0  0  0
    6.4150   -4.0590   20.2360 C   0  0  0  0  0  0  0  0  0  0  0  0
    5.3230   -4.5530   19.8920 O   0  0  0  0  0  0  0  0  0  0  0  0
    6.9740   -4.2760   21.5060 N   0  0  0  0  0  0  0  0  0  0  0  0
    6.5850   -5.4110   22.2670 C   0  0  0  0  0  0  0  0  0  0  0  0
    5.9240   -5.0330   23.5120 C   0  0  0  0  0  0  0  0  0  0  0  0
    5.9750   -3.5790   23.7640 C   0  0  0  0  0  0  0  0  0  0  0  0
    5.4940   -3.2840   25.1250 C   0  0  0  0  0  0  0  0  0  0  0  0
    4.3030   -2.9570   25.2740 O   0  0  0  0  0  0  0  0  0  0  0  0
    6.3540   -3.3720   26.2170 N   0  0  0  0  0  0  0  0  0  0  0  0
    5.9230   -3.8620   27.5340 C   0  0  2  0  0  0  0  0  0  0  0  0
    6.5940   -3.0460   28.5570 C   0  0  0  0  0  0  0  0  0  0  0  0
    5.8030   -2.3050   29.5320 C   0  0  0  0  0  0  0  0  0  0  0  0
    4.8920   -1.3730   29.0900 C   0  0  0  0  0  0  0  0  0  0  0  0
    4.8240   -0.4330   30.1280 N   0  0  0  0  0  0  0  0  0  0  0  0
    6.0810   -5.3050   27.7290 C   0  0  0  0  0  0  0  0  0  0  0  0
    5.8070   -6.0450   26.6940 O   0  0  0  0  0  0  0  0  0  0  0  0
    6.5040   -5.8150   28.9670 O   0  0  0  0  0  0  0  0  0  0  0  0
    5.8190   -6.9480   29.4770 C   0  0  0  0  0  0  0  0  0  0  0  0
    4.7870   -7.2340   28.6440 C   0  0  0  0  0  0  0  0  0  0  0  0
    7.2730   -2.9370   23.4460 C   0  0  0  0  0  0  0  0  0  0  0  0
    7.7160   -3.2140   22.1520 C   0  0  0  0  0  0  0  0  0  0  0  0
  1  2  1  0
  2  3  2  0
  2  4  1  0
  4  5  1  0
  5  6  1  0
  6  7  1  0
  7  8  1  0
  8  9  2  0
  8 10  1  0
 10 11  1  0
 11 12  1  1
 12 13  1  0
 13 14  1  0
 14 15  3  0
 11 16  1  0
 16 17  2  0
 16 18  1  0
 18 19  1  0
 19 20  1  0
  7 21  1  0
  4 22  1  0
 21 22  1  0
M  END
