piperidine-amides-32261-covalent
     RDKit          3D

 25 26  0  0  0  0  0  0  0  0999 V2000
    7.0820   -3.3660   19.4240 C   0  0  0  0  0  0  0  0  0  0  0  0
    6.3770   -4.2540   20.3850 C   0  0  0  0  0  0  0  0  0  0  0  0
    5.3650   -4.8620   19.9890 O   0  0  0  0  0  0  0  0  0  0  0  0
    6.8940   -4.4330   21.6900 N   0  0  0  0  0  0  0  0  0  0  0  0
    6.5940   -5.6010   22.4630 C   0  0  0  0  0  0  0  0  0  0  0  0
    5.6520   -5.1420   23.5810 C   0  0  0  0  0  0  0  0  0  0  0  0
    6.1920   -3.8820   24.1960 C   0  0  0  0  0  0  0  0  0  0  0  0
    5.2110   -3.2450   25.1360 C   0  0  0  0  0  0  0  0  0  0  0  0
    4.2620   -2.6680   24.6090 O   0  0  0  0  0  0  0  0  0  0  0  0
    5.3720   -3.3000   26.5320 N   0  0  0  0  0  0  0  0  0  0  0  0
    4.5030   -2.8930   27.5770 C   0  0  0  0  0  0  0  0  0  0  0  0
    4.9170   -2.7870   28.8970 C   0  0  0  0  0  0  0  0  0  0  0  0
    5.7360   -3.9330   29.1560 N   0  0  0  0  0  0  0  0  0  0  0  0
    4.6190   -5.0940   29.6690 S   0  0  0  0  0  0  0  0  0  0  0  0
    5.3010   -6.1990   30.4490 O   0  0  0  0  0  0  0  0  0  0  0  0
    3.6280   -4.4120   30.5570 O   0  0  0  0  0  0  0  0  0  0  0  0
    3.7410   -5.6530   28.3000 N   0  0  0  0  0  0  0  0  0  0  0  0
    4.2360   -6.9930   27.7300 S   0  0  0  0  0  0  0  0  0  0  0  0
    2.9480   -7.7670   26.7530 C   0  0  0  0  0  0  0  0  0  0  0  0
    4.7580   -7.9690   29.0850 C   0  0  0  0  0  0  0  0  0  0  0  0
    5.3620   -6.6780   26.7710 O   0  0  0  0  0  0  0  0  0  0  0  0
    6.7030   -4.1540   28.2640 C   0  0  0  0  0  0  0  0  0  0  0  0
    6.6300   -3.1430   27.1080 C   0  0  0  0  0  0  0  0  0  0  0  0
    6.6780   -2.8160   23.2410 C   0  0  0  0  0  0  0  0  0  0  0  0
    7.5900   -3.3720   22.3600 C   0  0  0  0  0  0  0  0  0  0  0  0
  1  2  1  0
  2  3  2  0
  2  4  1  0
  4  5  1  0
  5  6  1  0
  6  7  1  0
  7  8  1  0
  8  9  2  0
  8 10  1  0
 10 11  1  0
 11 12  1  0
 12 13  1  0
 13 14  1  0
 14 15  2  0
 14 16  2  0
 14 17  1  0
 17 18  2  0
 18 19  1  0
 18 20  1  0
 18 21  2  0
 13 22  1  0
 10 23  1  0
 22 23  1  0
  7 24  1  0
  4 25  1  0
 24 25  1  0
M  END
