piperidine-amides-32357-covalent
     RDKit          3D

 28 31  0  0  0  0  0  0  0  0999 V2000
    7.0710   -3.2540   19.1680 C   0  0  0  0  0  0  0  0  0  0  0  0
    6.1910   -3.9940   20.1190 C   0  0  0  0  0  0  0  0  0  0  0  0
    5.0900   -4.4070   19.7660 O   0  0  0  0  0  0  0  0  0  0  0  0
    6.6470   -4.2480   21.4020 N   0  0  0  0  0  0  0  0  0  0  0  0
    6.2770   -5.4420   22.1090 C   0  0  0  0  0  0  0  0  0  0  0  0
    6.4220   -5.1510   23.6110 C   0  0  0  0  0  0  0  0  0  0  0  0
    5.8550   -3.7950   23.9280 C   0  0  0  0  0  0  0  0  0  0  0  0
    6.1980   -3.3210   25.2750 C   0  0  0  0  0  0  0  0  0  0  0  0
    5.2730   -2.8020   25.9210 O   0  0  0  0  0  0  0  0  0  0  0  0
    7.5120   -3.4800   25.7410 N   0  0  0  0  0  0  0  0  0  0  0  0
    7.8290   -4.4630   26.7140 C   0  0  0  0  0  0  0  0  0  0  0  0
    6.8440   -5.2240   27.2980 C   0  0  0  0  0  0  0  0  0  0  0  0
    5.7480   -5.7130   26.4880 C   0  0  0  0  0  0  0  0  0  0  0  0
    4.6930   -6.4840   26.9740 C   0  0  0  0  0  0  0  0  0  0  0  0
    4.7730   -6.7680   28.3950 C   0  0  0  0  0  0  0  0  0  0  0  0
    3.8330   -7.5120   29.1070 N   0  0  0  0  0  0  0  0  0  0  0  0
    4.2040   -7.5930   30.4320 C   0  0  0  0  0  0  0  0  0  0  0  0
    5.4940   -6.8160   30.4910 C   0  0  0  0  0  0  0  0  0  0  0  0
    5.8950   -6.2750   29.2410 C   0  0  0  0  0  0  0  0  0  0  0  0
    6.9710   -5.4710   28.6510 C   0  0  0  0  0  0  0  0  0  0  0  0
    8.3580   -2.3290   25.3600 C   0  0  0  0  0  0  0  0  0  0  0  0
    8.9390   -2.3420   24.0790 C   0  0  0  0  0  0  0  0  0  0  0  0
    9.9920   -1.6380   24.8150 C   0  0  0  0  0  0  0  0  0  0  0  0
   11.0740   -1.2920   23.8460 C   0  0  0  0  0  0  0  0  0  0  0  0
   10.7590   -1.7930   22.4030 C   0  0  0  0  0  0  0  0  0  0  0  0
    9.2000   -2.6000   22.4300 S   0  0  0  0  0  0  0  0  0  0  0  0
    6.3880   -2.6710   23.0780 C   0  0  0  0  0  0  0  0  0  0  0  0
    7.1690   -3.1350   22.0650 C   0  0  0  0  0  0  0  0  0  0  0  0
  1  2  1  0
  2  3  2  0
  2  4  1  0
  4  5  1  0
  5  6  1  0
  6  7  1  0
  7  8  1  0
  8  9  2  0
  8 10  1  0
 10 11  1  0
 11 12  1  0
 12 13  2  0
 13 14  1  0
 14 15  2  0
 15 16  1  0
 16 17  1  0
 17 18  2  0
 15 19  1  0
 18 19  1  0
 12 20  1  0
 19 20  2  0
 10 21  1  0
 21 22  1  0
 22 23  2  0
 23 24  1  0
 24 25  2  0
 22 26  1  0
 25 26  1  0
  7 27  1  0
  4 28  1  0
 27 28  1  0
M  END
