piperidine-amides-23503-covalent
     RDKit          3D

 22 23  0  0  0  0  0  0  0  0999 V2000
    7.1420   -3.3470   19.2660 C   0  0  0  0  0  0  0  0  0  0  0  0
    6.3970   -4.1180   20.2660 C   0  0  0  0  0  0  0  0  0  0  0  0
    5.2980   -4.6020   19.9110 O   0  0  0  0  0  0  0  0  0  0  0  0
    6.9560   -4.3570   21.5440 N   0  0  0  0  0  0  0  0  0  0  0  0
    6.5130   -5.4710   22.2890 C   0  0  0  0  0  0  0  0  0  0  0  0
    6.0190   -5.1180   23.6130 C   0  0  0  0  0  0  0  0  0  0  0  0
    6.6710   -3.9690   24.2910 C   0  0  0  0  0  0  0  0  0  0  0  0
    5.7510   -3.4500   25.3390 C   0  0  0  0  0  0  0  0  0  0  0  0
    4.6370   -3.0070   25.0040 O   0  0  0  0  0  0  0  0  0  0  0  0
    6.0900   -3.4570   26.6930 N   0  0  0  0  0  0  0  0  0  0  0  0
    5.2320   -3.8070   27.7390 C   0  0  0  0  0  0  0  0  0  0  0  0
    5.5670   -4.9940   28.4860 C   0  0  0  0  0  0  0  0  0  0  0  0
    7.0990   -4.9930   28.6350 C   0  0  0  0  0  0  0  0  0  0  0  0
    7.8470   -5.0220   27.4700 C   0  0  0  0  0  0  0  0  0  0  0  0
    7.4990   -3.5700   27.0490 C   0  0  2  0  0  0  0  0  0  0  0  0
    7.6160   -3.0280   28.4340 C   0  0  0  0  0  0  0  0  0  0  0  0
    7.1190   -1.3860   28.7740 S   0  0  0  0  0  0  0  0  0  0  0  0
    5.7090   -1.4170   29.8790 C   0  0  0  0  0  0  0  0  0  0  0  0
    8.1900   -0.6050   29.4800 O   0  0  0  0  0  0  0  0  0  0  0  0
    6.7090   -0.6910   27.5280 O   0  0  0  0  0  0  0  0  0  0  0  0
    7.0900   -2.8220   23.3980 C   0  0  0  0  0  0  0  0  0  0  0  0
    7.7950   -3.3720   22.1840 C   0  0  0  0  0  0  0  0  0  0  0  0
  1  2  1  0
  2  3  2  0
  2  4  1  0
  4  5  1  0
  5  6  1  0
  6  7  1  0
  7  8  1  0
  8  9  2  0
  8 10  1  0
 10 11  1  0
 11 12  1  0
 12 13  1  0
 13 14  1  0
 10 15  1  0
 14 15  1  0
 15 16  1  1
 17 16  1  0
 17 18  1  0
 17 19  2  0
 17 20  2  0
  7 21  1  0
  4 22  1  0
 21 22  1  0
M  END
