piperidine-amides-35347-covalent
     RDKit          3D

 34 37  0  0  0  0  0  0  0  0999 V2000
    7.0920   -3.3400   19.3220 C   0  0  0  0  0  0  0  0  0  0  0  0
    6.3750   -4.1640   20.3240 C   0  0  0  0  0  0  0  0  0  0  0  0
    5.3600   -4.7530   19.9550 O   0  0  0  0  0  0  0  0  0  0  0  0
    6.8900   -4.2770   21.6150 N   0  0  0  0  0  0  0  0  0  0  0  0
    6.5880   -5.4130   22.4370 C   0  0  0  0  0  0  0  0  0  0  0  0
    5.8340   -4.9460   23.6530 C   0  0  0  0  0  0  0  0  0  0  0  0
    6.6190   -3.8340   24.3710 C   0  0  0  0  0  0  0  0  0  0  0  0
    5.6780   -3.1370   25.2810 C   0  0  0  0  0  0  0  0  0  0  0  0
    4.4710   -3.0860   25.0100 O   0  0  0  0  0  0  0  0  0  0  0  0
    6.1770   -2.5330   26.4560 N   0  0  0  0  0  0  0  0  0  0  0  0
    7.1980   -3.2620   27.0800 C   0  0  0  0  0  0  0  0  0  0  0  0
    6.6930   -4.5610   27.6950 C   0  0  0  0  0  0  0  0  0  0  0  0
    7.8850   -5.0360   28.0260 C   0  0  0  0  0  0  0  0  0  0  0  0
    8.0860   -6.0730   28.5680 C   0  0  0  0  0  0  0  0  0  0  0  0
    7.0140   -6.6520   28.8080 C   0  0  0  0  0  0  0  0  0  0  0  0
    5.6860   -6.2000   28.4750 C   0  0  0  0  0  0  0  0  0  0  0  0
    5.1270   -4.9660   27.7800 C   0  0  0  0  0  0  0  0  0  0  0  0
    4.8070   -3.8650   27.1730 O   0  0  0  0  0  0  0  0  0  0  0  0
    4.4250   -2.8430   27.9810 C   0  0  0  0  0  0  0  0  0  0  0  0
    2.9790   -2.5240   27.7980 C   0  0  0  0  0  0  0  0  0  0  0  0
    2.1460   -3.5280   28.5360 C   0  0  0  0  0  0  0  0  0  0  0  0
    2.7260   -3.9370   29.7420 N   0  0  0  0  0  0  0  0  0  0  0  0
    2.3810   -5.1900   30.3150 C   0  0  0  0  0  0  0  0  0  0  0  0
    1.2470   -5.8350   30.0860 O   0  0  0  0  0  0  0  0  0  0  0  0
    3.2620   -5.8090   31.1830 O   0  0  0  0  0  0  0  0  0  0  0  0
    3.8640   -7.0810   30.9410 C   0  0  0  0  0  0  0  0  0  0  0  0
    5.3610   -6.9740   31.1350 C   0  0  0  0  0  0  0  0  0  0  0  0
    3.5360   -7.7430   29.6500 C   0  0  0  0  0  0  0  0  0  0  0  0
    3.3740   -8.0630   31.9820 C   0  0  0  0  0  0  0  0  0  0  0  0
    3.7500   -3.1710   30.3590 C   0  0  0  0  0  0  0  0  0  0  0  0
    4.8490   -3.1250   29.2950 C   0  0  0  0  0  0  0  0  0  0  0  0
    5.2960   -1.8260   27.4050 C   0  0  0  0  0  0  0  0  0  0  0  0
    7.2830   -2.8390   23.5320 C   0  0  0  0  0  0  0  0  0  0  0  0
    7.7220   -3.2660   22.1840 C   0  0  0  0  0  0  0  0  0  0  0  0
  1  2  1  0
  2  3  2  0
  2  4  1  0
  4  5  1  0
  5  6  1  0
  6  7  1  0
  7  8  1  0
  8  9  2  0
  8 10  1  0
 10 11  1  0
 11 12  1  0
 12 13  1  0
 13 14  2  0
 14 15  1  0
 15 16  2  0
 12 17  2  0
 16 17  1  0
 17 18  1  0
 19 18  1  0
 19 20  1  0
 20 21  1  0
 21 22  1  0
 22 23  1  0
 23 24  2  0
 23 25  1  0
 26 25  1  0
 26 27  1  0
 26 28  1  0
 26 29  1  0
 22 30  1  0
 19 31  1  0
 30 31  1  0
 10 32  1  0
 19 32  1  0
  7 33  1  0
  4 34  1  0
 33 34  1  0
M  END
