piperidine-amides-8529-covalent
     RDKit          3D

 24 25  0  0  0  0  0  0  0  0999 V2000
    7.0640   -3.2620   19.2000 C   0  0  0  0  0  0  0  0  0  0  0  0
    6.3170   -4.0130   20.2160 C   0  0  0  0  0  0  0  0  0  0  0  0
    5.2630   -4.5730   19.8770 O   0  0  0  0  0  0  0  0  0  0  0  0
    6.8030   -4.1320   21.5390 N   0  0  0  0  0  0  0  0  0  0  0  0
    7.7190   -3.1420   22.0550 C   0  0  0  0  0  0  0  0  0  0  0  0
    7.2310   -2.6160   23.3610 C   0  0  0  0  0  0  0  0  0  0  0  0
    6.9130   -3.8250   24.1980 C   0  0  0  0  0  0  0  0  0  0  0  0
    6.2810   -3.3550   25.4660 C   0  0  0  0  0  0  0  0  0  0  0  0
    5.0460   -3.3320   25.5090 O   0  0  0  0  0  0  0  0  0  0  0  0
    7.1610   -2.9620   26.4810 N   0  0  0  0  0  0  0  0  0  0  0  0
    7.2580   -3.6070   27.7520 C   0  0  0  0  0  0  0  0  0  0  0  0
    7.2570   -5.0080   27.7370 C   0  0  0  0  0  0  0  0  0  0  0  0
    6.0680   -5.9780   28.4870 S   0  0  0  0  0  0  0  0  0  0  0  0
    5.5690   -7.0740   27.5770 O   0  0  0  0  0  0  0  0  0  0  0  0
    6.6670   -6.5720   29.7160 O   0  0  0  0  0  0  0  0  0  0  0  0
    4.6670   -5.0310   28.9240 N   0  0  0  0  0  0  0  0  0  0  0  0
    3.5840   -5.5850   29.6500 C   0  0  0  0  0  0  0  0  0  0  0  0
    3.4020   -6.9570   29.4870 C   0  0  0  0  0  0  0  0  0  0  0  0
    2.5790   -7.3200   30.6840 C   0  0  0  0  0  0  0  0  0  0  0  0
    1.1910   -6.6400   30.7550 C   0  0  0  0  0  0  0  0  0  0  0  0
    1.2790   -5.1750   30.5340 C   0  0  0  0  0  0  0  0  0  0  0  0
    2.3880   -4.9020   29.5610 C   0  0  0  0  0  0  0  0  0  0  0  0
    6.0410   -4.8290   23.5680 C   0  0  0  0  0  0  0  0  0  0  0  0
    6.5060   -5.2880   22.3570 C   0  0  0  0  0  0  0  0  0  0  0  0
  1  2  1  0
  2  3  2  0
  2  4  1  0
  4  5  1  0
  5  6  1  0
  6  7  1  0
  7  8  1  0
  8  9  2  0
  8 10  1  0
 10 11  1  0
 11 12  1  0
 12 13  1  0
 13 14  2  0
 13 15  2  0
 13 16  1  0
 16 17  1  0
 17 18  1  0
 18 19  1  0
 19 20  1  0
 20 21  1  0
 17 22  1  0
 21 22  1  0
  7 23  1  0
  4 24  1  0
 23 24  1  0
M  END
