piperidine-amides-4388-covalent
     RDKit          3D

 25 26  0  0  0  0  0  0  0  0999 V2000
    7.1300   -3.2520   19.2090 C   0  0  0  0  0  0  0  0  0  0  0  0
    6.3490   -4.0060   20.2060 C   0  0  0  0  0  0  0  0  0  0  0  0
    5.2410   -4.4580   19.8400 O   0  0  0  0  0  0  0  0  0  0  0  0
    6.8520   -4.2720   21.4970 N   0  0  0  0  0  0  0  0  0  0  0  0
    7.5680   -3.2420   22.1740 C   0  0  0  0  0  0  0  0  0  0  0  0
    7.2470   -3.0940   23.5880 C   0  0  0  0  0  0  0  0  0  0  0  0
    6.4230   -4.1700   24.1790 C   0  0  0  0  0  0  0  0  0  0  0  0
    5.6030   -3.6510   25.3260 C   0  0  0  0  0  0  0  0  0  0  0  0
    4.4150   -3.3290   25.1300 O   0  0  0  0  0  0  0  0  0  0  0  0
    6.1410   -3.5300   26.6210 N   0  0  0  0  0  0  0  0  0  0  0  0
    5.6310   -2.7800   27.7020 C   0  0  0  0  0  0  0  0  0  0  0  0
    5.9470   -1.3830   27.9030 C   0  0  0  0  0  0  0  0  0  0  0  0
    6.3030   -0.8490   26.5080 C   0  0  0  0  0  0  0  0  0  0  0  0
    7.1760   -1.7360   25.9320 O   0  0  0  0  0  0  0  0  0  0  0  0
    5.9010    0.1710   25.9140 O   0  0  0  0  0  0  0  0  0  0  0  0
    5.8110    0.3070   24.5880 C   0  0  0  0  0  0  0  0  0  0  0  0
    7.1440    0.1080   23.8620 C   0  0  0  0  0  0  0  0  0  0  0  0
    4.7230   -0.5530   23.9280 C   0  0  0  0  0  0  0  0  0  0  0  0
    5.7760    1.7140   24.1240 C   0  0  0  0  0  0  0  0  0  0  0  0
    7.1270   -1.2300   28.8230 C   0  0  0  0  0  0  0  0  0  0  0  0
    6.5580   -0.3310   29.9300 C   0  0  0  0  0  0  0  0  0  0  0  0
    5.0600   -0.0010   29.7850 C   0  0  0  0  0  0  0  0  0  0  0  0
    4.7440   -0.6350   28.4940 C   0  0  0  0  0  0  0  0  0  0  0  0
    5.5680   -4.9020   23.2020 C   0  0  0  0  0  0  0  0  0  0  0  0
    6.3850   -5.4160   22.2210 C   0  0  0  0  0  0  0  0  0  0  0  0
  1  2  1  0
  2  3  2  0
  2  4  1  0
  4  5  1  0
  5  6  1  0
  6  7  1  0
  7  8  1  0
  8  9  2  0
  8 10  1  0
 10 11  1  0
 11 12  1  0
 12 13  1  0
 13 14  2  0
 13 15  1  0
 16 15  1  0
 16 17  1  0
 16 18  1  0
 16 19  1  0
 12 20  1  0
 20 21  1  0
 21 22  1  0
 12 23  1  0
 22 23  1  0
  7 24  1  0
  4 25  1  0
 24 25  1  0
M  END
