piperidine-amides-14548-covalent
     RDKit          3D

 23 24  0  0  0  0  0  0  0  0999 V2000
    7.0600   -3.2890   19.2690 C   0  0  0  0  0  0  0  0  0  0  0  0
    6.3640   -4.0760   20.2900 C   0  0  0  0  0  0  0  0  0  0  0  0
    5.3540   -4.7130   19.9430 O   0  0  0  0  0  0  0  0  0  0  0  0
    6.8460   -4.1460   21.6250 N   0  0  0  0  0  0  0  0  0  0  0  0
    7.7290   -3.1220   22.1240 C   0  0  0  0  0  0  0  0  0  0  0  0
    7.5110   -2.9650   23.5920 C   0  0  0  0  0  0  0  0  0  0  0  0
    6.1320   -3.5280   23.8150 C   0  0  0  0  0  0  0  0  0  0  0  0
    5.6040   -3.2260   25.1890 C   0  0  0  0  0  0  0  0  0  0  0  0
    4.3790   -3.2110   25.2810 O   0  0  0  0  0  0  0  0  0  0  0  0
    6.4850   -2.9840   26.2420 N   0  0  0  0  0  0  0  0  0  0  0  0
    6.2620   -3.5010   27.5590 C   0  0  2  0  0  0  0  0  0  0  0  0
    5.9460   -4.8720   27.6040 C   0  0  0  0  0  0  0  0  0  0  0  0
    5.7930   -5.5900   26.5930 O   0  0  0  0  0  0  0  0  0  0  0  0
    5.7950   -5.5000   28.8120 O   0  0  0  0  0  0  0  0  0  0  0  0
    6.2720   -6.7120   29.2340 C   0  0  0  0  0  0  0  0  0  0  0  0
    5.1190   -2.6900   28.1140 C   0  0  0  0  0  0  0  0  0  0  0  0
    5.7280   -1.6190   28.9730 C   0  0  0  0  0  0  0  0  0  0  0  0
    4.7240   -0.8020   29.8110 C   0  0  0  0  0  0  0  0  0  0  0  0
    3.3680   -0.9860   29.2390 C   0  0  0  0  0  0  0  0  0  0  0  0
    2.9750   -2.4330   29.3790 C   0  0  0  0  0  0  0  0  0  0  0  0
    4.0500   -3.3530   28.7330 C   0  0  0  0  0  0  0  0  0  0  0  0
    6.1670   -5.0300   23.6450 C   0  0  0  0  0  0  0  0  0  0  0  0
    6.6650   -5.3560   22.3950 C   0  0  0  0  0  0  0  0  0  0  0  0
  1  2  1  0
  2  3  2  0
  2  4  1  0
  4  5  1  0
  5  6  1  0
  6  7  1  0
  7  8  1  0
  8  9  2  0
  8 10  1  0
 11 10  1  6
 11 12  1  0
 12 13  2  0
 12 14  1  0
 14 15  1  0
 11 16  1  0
 16 17  1  0
 17 18  1  0
 18 19  1  0
 19 20  1  0
 16 21  1  0
 20 21  1  0
  7 22  1  0
  4 23  1  0
 22 23  1  0
M  END
