piperidine-amides-11644-covalent
     RDKit          3D

 30 32  0  0  0  0  0  0  0  0999 V2000
    7.0590   -3.3490   19.2790 C   0  0  0  0  0  0  0  0  0  0  0  0
    6.3660   -4.1560   20.2760 C   0  0  0  0  0  0  0  0  0  0  0  0
    5.3520   -4.7740   19.9640 O   0  0  0  0  0  0  0  0  0  0  0  0
    6.8960   -4.2770   21.6050 N   0  0  0  0  0  0  0  0  0  0  0  0
    7.6890   -3.2090   22.1570 C   0  0  0  0  0  0  0  0  0  0  0  0
    6.9740   -2.5940   23.3200 C   0  0  0  0  0  0  0  0  0  0  0  0
    6.6510   -3.7210   24.2710 C   0  0  0  0  0  0  0  0  0  0  0  0
    5.8520   -3.2100   25.4210 C   0  0  0  0  0  0  0  0  0  0  0  0
    4.6320   -2.9720   25.3280 O   0  0  0  0  0  0  0  0  0  0  0  0
    6.5060   -3.0000   26.6580 N   0  0  0  0  0  0  0  0  0  0  0  0
    6.4310   -1.6980   27.2970 C   0  0  0  0  0  0  0  0  0  0  0  0
    5.7680   -0.6180   26.5050 C   0  0  0  0  0  0  0  0  0  0  0  0
    5.6480    0.6460   27.0450 C   0  0  0  0  0  0  0  0  0  0  0  0
    6.1410    0.9270   28.3310 C   0  0  0  0  0  0  0  0  0  0  0  0
    6.0000    2.2060   28.8550 C   0  0  0  0  0  0  0  0  0  0  0  0
    5.0830    3.0680   28.1670 N   0  0  0  0  0  0  0  0  0  0  0  0
    3.6940    2.7540   27.9770 C   0  0  0  0  0  0  0  0  0  0  0  0
    3.0010    3.0400   29.1330 C   0  0  0  0  0  0  0  0  0  0  0  0
    3.1150    4.3990   29.2470 N   0  0  0  0  0  0  0  0  0  0  0  0
    1.9110    5.1980   29.4340 C   0  0  0  0  0  0  0  0  0  0  0  0
    4.3490    4.9380   29.1740 C   0  0  0  0  0  0  0  0  0  0  0  0
    5.2200    4.4190   28.1100 C   0  0  0  0  0  0  0  0  0  0  0  0
    6.7730   -0.0910   29.0830 C   0  0  0  0  0  0  0  0  0  0  0  0
    7.2590    0.1860   30.3600 C   0  0  0  0  0  0  0  0  0  0  0  0
    8.4000   -0.5060   30.6870 F   0  0  0  0  0  0  0  0  0  0  0  0
    7.5420    1.5270   30.4840 F   0  0  0  0  0  0  0  0  0  0  0  0
    6.3490   -0.1020   31.3670 F   0  0  0  0  0  0  0  0  0  0  0  0
    6.9120   -1.3650   28.5740 C   0  0  0  0  0  0  0  0  0  0  0  0
    5.8720   -4.8510   23.6620 C   0  0  0  0  0  0  0  0  0  0  0  0
    6.5500   -5.4000   22.4210 C   0  0  0  0  0  0  0  0  0  0  0  0
  1  2  1  0
  2  3  2  0
  2  4  1  0
  4  5  1  0
  5  6  1  0
  6  7  1  0
  7  8  1  0
  8  9  2  0
  8 10  1  0
 10 11  1  0
 11 12  2  0
 12 13  1  0
 13 14  2  0
 14 15  1  0
 15 16  1  0
 16 17  1  0
 17 18  1  0
 18 19  1  0
 19 20  1  0
 19 21  1  0
 16 22  1  0
 21 22  1  0
 14 23  1  0
 23 24  1  0
 24 25  1  0
 24 26  1  0
 24 27  1  0
 11 28  1  0
 23 28  2  0
  7 29  1  0
  4 30  1  0
 29 30  1  0
M  END
