piperidine-amides-27502-covalent
     RDKit          3D

 26 29  0  0  0  0  0  0  0  0999 V2000
    7.0140   -3.3790   19.4270 C   0  0  0  0  0  0  0  0  0  0  0  0
    6.4050   -4.2740   20.4220 C   0  0  0  0  0  0  0  0  0  0  0  0
    5.4200   -4.9440   20.0070 O   0  0  0  0  0  0  0  0  0  0  0  0
    6.9220   -4.4000   21.7280 N   0  0  0  0  0  0  0  0  0  0  0  0
    6.7030   -5.6120   22.5090 C   0  0  0  0  0  0  0  0  0  0  0  0
    6.1280   -5.2600   23.8690 C   0  0  0  0  0  0  0  0  0  0  0  0
    5.9360   -3.7770   23.9990 C   0  0  0  0  0  0  0  0  0  0  0  0
    5.2010   -3.3230   25.2320 C   0  0  0  0  0  0  0  0  0  0  0  0
    4.2670   -2.5310   25.0100 O   0  0  0  0  0  0  0  0  0  0  0  0
    5.3940   -3.6410   26.6050 N   0  0  0  0  0  0  0  0  0  0  0  0
    4.6300   -2.8670   27.5850 C   0  0  0  0  0  0  0  0  0  0  0  0
    4.6380   -3.3370   29.0580 C   0  0  0  0  0  0  0  0  0  0  0  0
    5.3890   -4.5700   29.2290 N   0  0  0  0  0  0  0  0  0  0  0  0
    4.7430   -5.7030   29.4010 C   0  0  0  0  0  0  0  0  0  0  0  0
    4.8070   -6.4680   30.5500 C   0  0  0  0  0  0  0  0  0  0  0  0
    4.0550   -7.6310   30.6100 C   0  0  0  0  0  0  0  0  0  0  0  0
    3.2680   -8.0060   29.5390 C   0  0  0  0  0  0  0  0  0  0  0  0
    3.2240   -7.2400   28.4100 C   0  0  0  0  0  0  0  0  0  0  0  0
    2.5150   -7.4590   27.2720 N   0  0  0  0  0  0  0  0  0  0  0  0
    2.7750   -6.4100   26.3810 C   0  0  0  0  0  0  0  0  0  0  0  0
    3.6540   -5.5940   27.0640 N   0  0  0  0  0  0  0  0  0  0  0  0
    3.9630   -6.0860   28.3430 C   0  0  0  0  0  0  0  0  0  0  0  0
    6.4840   -4.6510   28.3290 C   0  0  0  0  0  0  0  0  0  0  0  0
    6.4510   -3.3810   27.4900 C   0  0  0  0  0  0  0  0  0  0  0  0
    7.1950   -3.0430   23.7310 C   0  0  0  0  0  0  0  0  0  0  0  0
    7.6790   -3.3120   22.3210 C   0  0  0  0  0  0  0  0  0  0  0  0
  1  2  1  0
  2  3  2  0
  2  4  1  0
  4  5  1  0
  5  6  1  0
  6  7  1  0
  7  8  1  0
  8  9  2  0
  8 10  1  0
 10 11  1  0
 11 12  1  0
 12 13  1  0
 13 14  1  0
 14 15  2  0
 15 16  1  0
 16 17  2  0
 17 18  1  0
 18 19  1  0
 19 20  1  0
 20 21  2  0
 14 22  1  0
 18 22  2  0
 21 22  1  0
 13 23  1  0
 10 24  1  0
 23 24  1  0
  7 25  1  0
  4 26  1  0
 25 26  1  0
M  END
