piperidine-amides-27329-covalent
     RDKit          3D

 25 27  0  0  0  0  0  0  0  0999 V2000
    7.0620   -3.3630   19.3390 C   0  0  0  0  0  0  0  0  0  0  0  0
    6.3580   -4.1800   20.3250 C   0  0  0  0  0  0  0  0  0  0  0  0
    5.3000   -4.7370   19.9440 O   0  0  0  0  0  0  0  0  0  0  0  0
    6.8980   -4.3560   21.6010 N   0  0  0  0  0  0  0  0  0  0  0  0
    6.5790   -5.5250   22.3800 C   0  0  0  0  0  0  0  0  0  0  0  0
    5.7910   -5.0650   23.5790 C   0  0  0  0  0  0  0  0  0  0  0  0
    6.4230   -3.8600   24.2200 C   0  0  0  0  0  0  0  0  0  0  0  0
    5.5530   -3.3210   25.3030 C   0  0  0  0  0  0  0  0  0  0  0  0
    4.7870   -2.3850   25.0100 O   0  0  0  0  0  0  0  0  0  0  0  0
    5.5210   -3.8110   26.6330 N   0  0  0  0  0  0  0  0  0  0  0  0
    6.4720   -3.4340   27.6190 C   0  0  0  0  0  0  0  0  0  0  0  0
    6.9270   -4.7120   28.3150 C   0  0  0  0  0  0  0  0  0  0  0  0
    6.0000   -5.3840   28.9720 C   0  0  0  0  0  0  0  0  0  0  0  0
    4.7840   -4.7880   28.8360 C   0  0  0  0  0  0  0  0  0  0  0  0
    3.7450   -4.8880   29.7550 C   0  0  0  0  0  0  0  0  0  0  0  0
    2.5140   -4.2480   29.5630 C   0  0  0  0  0  0  0  0  0  0  0  0
    2.2470   -3.4700   28.4390 C   0  0  0  0  0  0  0  0  0  0  0  0
    0.9070   -2.7930   28.2620 C   0  0  0  0  0  0  0  0  0  0  0  0
    0.7420   -2.0350   27.1510 F   0  0  0  0  0  0  0  0  0  0  0  0
   -0.0120   -3.8100   28.2820 F   0  0  0  0  0  0  0  0  0  0  0  0
    0.6760   -1.9940   29.3870 F   0  0  0  0  0  0  0  0  0  0  0  0
    3.2420   -3.3510   27.5150 C   0  0  0  0  0  0  0  0  0  0  0  0
    4.5640   -4.0280   27.7070 C   0  0  0  0  0  0  0  0  0  0  0  0
    6.7190   -2.7800   23.2270 C   0  0  0  0  0  0  0  0  0  0  0  0
    7.6020   -3.2780   22.2940 C   0  0  0  0  0  0  0  0  0  0  0  0
  1  2  1  0
  2  3  2  0
  2  4  1  0
  4  5  1  0
  5  6  1  0
  6  7  1  0
  7  8  1  0
  8  9  2  0
  8 10  1  0
 10 11  1  0
 11 12  1  0
 12 13  1  0
 13 14  1  0
 14 15  2  0
 15 16  1  0
 16 17  2  0
 17 18  1  0
 18 19  1  0
 18 20  1  0
 18 21  1  0
 17 22  1  0
 10 23  1  0
 14 23  1  0
 22 23  2  0
  7 24  1  0
  4 25  1  0
 24 25  1  0
M  END
