piperidine-amides-3649-covalent
     RDKit          3D

 18 19  0  0  0  0  0  0  0  0999 V2000
    7.1720   -3.3100   19.1850 C   0  0  0  0  0  0  0  0  0  0  0  0
    6.3540   -3.9930   20.1920 C   0  0  0  0  0  0  0  0  0  0  0  0
    5.2360   -4.4300   19.8340 O   0  0  0  0  0  0  0  0  0  0  0  0
    6.8600   -4.2010   21.4920 N   0  0  0  0  0  0  0  0  0  0  0  0
    6.2510   -5.2200   22.2680 C   0  0  0  0  0  0  0  0  0  0  0  0
    5.6760   -4.7330   23.5200 C   0  0  0  0  0  0  0  0  0  0  0  0
    6.4700   -3.7090   24.2370 C   0  0  0  0  0  0  0  0  0  0  0  0
    5.7650   -3.2030   25.4530 C   0  0  0  0  0  0  0  0  0  0  0  0
    4.5280   -3.0470   25.4160 O   0  0  0  0  0  0  0  0  0  0  0  0
    6.4640   -2.9030   26.6390 N   0  0  0  0  0  0  0  0  0  0  0  0
    6.2900   -3.4600   27.9280 C   0  0  0  0  0  0  0  0  0  0  0  0
    5.7480   -4.7930   28.1450 C   0  0  0  0  0  0  0  0  0  0  0  0
    4.3440   -5.2100   27.7550 C   0  0  0  0  0  0  0  0  0  0  0  0
    4.0770   -6.6260   28.1060 N   0  0  0  0  0  0  0  0  0  0  0  0
    5.1840   -7.3520   28.7470 C   0  0  0  0  0  0  0  0  0  0  0  0
    6.5590   -6.1660   28.8820 S   0  0  0  0  0  0  0  0  0  0  0  0
    6.8540   -2.6060   23.2980 C   0  0  0  0  0  0  0  0  0  0  0  0
    7.5620   -3.1210   22.1060 C   0  0  0  0  0  0  0  0  0  0  0  0
  1  2  1  0
  2  3  2  0
  2  4  1  0
  4  5  1  0
  5  6  1  0
  6  7  1  0
  7  8  1  0
  8  9  2  0
  8 10  1  0
 10 11  1  0
 11 12  1  0
 12 13  2  0
 13 14  1  0
 14 15  2  0
 12 16  1  0
 15 16  1  0
  7 17  1  0
  4 18  1  0
 17 18  1  0
M  END
