piperidine-amides-12554-covalent
     RDKit          3D

 23 24  0  0  0  0  0  0  0  0999 V2000
    7.1160   -3.2880   19.2420 C   0  0  0  0  0  0  0  0  0  0  0  0
    6.3480   -4.0370   20.2580 C   0  0  0  0  0  0  0  0  0  0  0  0
    5.2730   -4.5420   19.8830 O   0  0  0  0  0  0  0  0  0  0  0  0
    6.8440   -4.2030   21.5620 N   0  0  0  0  0  0  0  0  0  0  0  0
    7.6400   -3.1890   22.1680 C   0  0  0  0  0  0  0  0  0  0  0  0
    7.1260   -2.7730   23.4660 C   0  0  0  0  0  0  0  0  0  0  0  0
    5.9240   -3.5210   23.8970 C   0  0  0  0  0  0  0  0  0  0  0  0
    5.5750   -3.1880   25.3020 C   0  0  0  0  0  0  0  0  0  0  0  0
    4.4030   -3.3970   25.6730 O   0  0  0  0  0  0  0  0  0  0  0  0
    6.5140   -2.6350   26.1970 N   0  0  0  0  0  0  0  0  0  0  0  0
    6.3540   -2.6960   27.6690 C   0  0  0  0  0  0  0  0  0  0  0  0
    7.4650   -1.9810   28.3590 C   0  0  1  0  0  0  0  0  0  0  0  0
    7.1570   -1.2390   29.5770 C   0  0  0  0  0  0  0  0  0  0  0  0
    8.5320   -2.5940   28.4370 O   0  0  0  0  0  0  0  0  0  0  0  0
    8.6870   -3.6910   27.6420 C   0  0  0  0  0  0  0  0  0  0  0  0
    8.7020   -4.9920   28.0080 C   0  0  0  0  0  0  0  0  0  0  0  0
    8.8420   -5.9460   27.0890 C   0  0  0  0  0  0  0  0  0  0  0  0
    8.9700   -5.6310   25.7980 C   0  0  0  0  0  0  0  0  0  0  0  0
    8.9650   -4.3460   25.3740 C   0  0  0  0  0  0  0  0  0  0  0  0
    8.8170   -3.3520   26.3280 C   0  0  0  0  0  0  0  0  0  0  0  0
    8.7950   -2.0510   25.9440 F   0  0  0  0  0  0  0  0  0  0  0  0
    5.9350   -4.9990   23.6810 C   0  0  0  0  0  0  0  0  0  0  0  0
    6.5830   -5.3900   22.3630 C   0  0  0  0  0  0  0  0  0  0  0  0
  1  2  1  0
  2  3  2  0
  2  4  1  0
  4  5  1  0
  5  6  1  0
  6  7  1  0
  7  8  1  0
  8  9  2  0
  8 10  1  0
 10 11  1  0
 11 12  1  0
 12 13  1  1
 12 14  1  0
 14 15  1  0
 15 16  2  0
 16 17  1  0
 17 18  2  0
 18 19  1  0
 15 20  1  0
 19 20  2  0
 20 21  1  0
  7 22  1  0
  4 23  1  0
 22 23  1  0
M  END
