piperidine-amides-4512-covalent
     RDKit          3D

 25 26  0  0  0  0  0  0  0  0999 V2000
    7.1600   -3.2600   19.1650 C   0  0  0  0  0  0  0  0  0  0  0  0
    6.3950   -4.0090   20.1860 C   0  0  0  0  0  0  0  0  0  0  0  0
    5.2920   -4.4810   19.8510 O   0  0  0  0  0  0  0  0  0  0  0  0
    6.9410   -4.2140   21.4520 N   0  0  0  0  0  0  0  0  0  0  0  0
    7.6710   -3.1580   22.0510 C   0  0  0  0  0  0  0  0  0  0  0  0
    7.3110   -2.9460   23.4360 C   0  0  0  0  0  0  0  0  0  0  0  0
    5.9120   -3.2120   23.7680 C   0  0  0  0  0  0  0  0  0  0  0  0
    5.7320   -3.0550   25.2330 C   0  0  0  0  0  0  0  0  0  0  0  0
    4.8020   -2.3310   25.6350 O   0  0  0  0  0  0  0  0  0  0  0  0
    6.5820   -3.7070   26.1430 N   0  0  0  0  0  0  0  0  0  0  0  0
    6.5050   -5.1700   26.2640 C   0  0  1  0  0  0  0  0  0  0  0  0
    7.0210   -5.7370   27.5130 C   0  0  0  0  0  0  0  0  0  0  0  0
    6.0280   -6.3990   28.3570 C   0  0  0  0  0  0  0  0  0  0  0  0
    4.9220   -7.1000   27.9110 C   0  0  0  0  0  0  0  0  0  0  0  0
    4.0260   -7.6860   28.7900 C   0  0  0  0  0  0  0  0  0  0  0  0
    4.2760   -7.5540   30.1120 C   0  0  0  0  0  0  0  0  0  0  0  0
    3.3100   -8.1880   30.9180 O   0  0  0  0  0  0  0  0  0  0  0  0
    5.3530   -6.8780   30.5510 C   0  0  0  0  0  0  0  0  0  0  0  0
    5.6790   -6.6990   31.9240 O   0  0  0  0  0  0  0  0  0  0  0  0
    6.2130   -6.3060   29.6740 C   0  0  0  0  0  0  0  0  0  0  0  0
    5.1260   -5.6080   26.0120 C   0  0  0  0  0  0  0  0  0  0  0  0
    4.1880   -4.9340   26.8060 N   0  0  0  0  0  0  0  0  0  0  0  0
    4.8670   -6.5930   25.0590 O   0  0  0  0  0  0  0  0  0  0  0  0
    5.3870   -4.5140   23.2580 C   0  0  0  0  0  0  0  0  0  0  0  0
    6.4050   -5.2020   22.3740 C   0  0  0  0  0  0  0  0  0  0  0  0
  1  2  1  0
  2  3  2  0
  2  4  1  0
  4  5  1  0
  5  6  1  0
  6  7  1  0
  7  8  1  0
  8  9  2  0
  8 10  1  0
 10 11  1  0
 11 12  1  1
 12 13  1  0
 13 14  2  0
 14 15  1  0
 15 16  2  0
 16 17  1  0
 16 18  1  0
 18 19  1  0
 13 20  1  0
 18 20  2  0
 11 21  1  0
 21 22  1  0
 21 23  2  0
  7 24  1  0
  4 25  1  0
 24 25  1  0
M  END
