piperidine-amides-13693-covalent
     RDKit          3D

 27 28  0  0  0  0  0  0  0  0999 V2000
    7.0930   -3.2550   19.2210 C   0  0  0  0  0  0  0  0  0  0  0  0
    6.2950   -4.0410   20.2060 C   0  0  0  0  0  0  0  0  0  0  0  0
    5.2250   -4.5460   19.8630 O   0  0  0  0  0  0  0  0  0  0  0  0
    6.8010   -4.2330   21.4970 N   0  0  0  0  0  0  0  0  0  0  0  0
    7.6320   -3.2270   22.1060 C   0  0  0  0  0  0  0  0  0  0  0  0
    7.3090   -3.1610   23.5910 C   0  0  0  0  0  0  0  0  0  0  0  0
    5.9870   -3.8190   23.8260 C   0  0  0  0  0  0  0  0  0  0  0  0
    5.4830   -3.5660   25.1890 C   0  0  0  0  0  0  0  0  0  0  0  0
    4.3070   -3.8610   25.4270 O   0  0  0  0  0  0  0  0  0  0  0  0
    6.3370   -2.9940   26.1140 N   0  0  0  0  0  0  0  0  0  0  0  0
    7.1380   -1.8810   25.8080 C   0  0  2  0  0  0  0  0  0  0  0  0
    8.4030   -1.7410   26.2550 C   0  0  0  0  0  0  0  0  0  0  0  0
    9.3370   -2.3340   25.3230 O   0  0  0  0  0  0  0  0  0  0  0  0
    8.7380   -1.0860   27.4220 O   0  0  0  0  0  0  0  0  0  0  0  0
    7.9260   -1.4070   28.5390 C   0  0  0  0  0  0  0  0  0  0  0  0
    8.5540   -1.0560   29.6950 C   0  0  0  0  0  0  0  0  0  0  0  0
    7.8290   -2.8870   28.4990 C   0  0  0  0  0  0  0  0  0  0  0  0
    6.6700   -0.8910   28.3600 C   0  0  0  0  0  0  0  0  0  0  0  0
    6.4600   -0.6480   25.7950 C   0  0  0  0  0  0  0  0  0  0  0  0
    5.1410   -0.6950   25.8270 C   0  0  0  0  0  0  0  0  0  0  0  0
    4.2820    0.4580   25.8190 C   0  0  0  0  0  0  0  0  0  0  0  0
    5.1370    1.7400   25.7680 C   0  0  0  0  0  0  0  0  0  0  0  0
    4.3620    2.8670   25.7600 F   0  0  0  0  0  0  0  0  0  0  0  0
    6.5340    2.0260   25.7280 C   0  0  0  0  0  0  0  0  0  0  0  0
    7.0990    0.5510   25.7510 C   0  0  0  0  0  0  0  0  0  0  0  0
    5.9660   -5.2730   23.5110 C   0  0  0  0  0  0  0  0  0  0  0  0
    6.6330   -5.5100   22.1590 C   0  0  0  0  0  0  0  0  0  0  0  0
  1  2  1  0
  2  3  2  0
  2  4  1  0
  4  5  1  0
  5  6  1  0
  6  7  1  0
  7  8  1  0
  8  9  2  0
  8 10  1  0
 11 10  1  1
 11 12  1  0
 12 13  2  0
 12 14  1  0
 15 14  1  0
 15 16  1  0
 15 17  1  0
 15 18  1  0
 11 19  1  0
 19 20  2  0
 20 21  1  0
 21 22  2  0
 22 23  1  0
 22 24  1  0
 19 25  1  0
 24 25  2  0
  7 26  1  0
  4 27  1  0
 26 27  1  0
M  END
