piperidine-amides-12785-covalent
     RDKit          3D

 22 23  0  0  0  0  0  0  0  0999 V2000
    7.1100   -3.2920   19.1820 C   0  0  0  0  0  0  0  0  0  0  0  0
    6.3230   -4.0070   20.2100 C   0  0  0  0  0  0  0  0  0  0  0  0
    5.2320   -4.4760   19.8480 O   0  0  0  0  0  0  0  0  0  0  0  0
    6.8180   -4.1950   21.5070 N   0  0  0  0  0  0  0  0  0  0  0  0
    7.5720   -3.1620   22.1360 C   0  0  0  0  0  0  0  0  0  0  0  0
    7.1730   -2.8550   23.5110 C   0  0  0  0  0  0  0  0  0  0  0  0
    6.5040   -3.9480   24.2570 C   0  0  0  0  0  0  0  0  0  0  0  0
    5.7870   -3.4140   25.4480 C   0  0  0  0  0  0  0  0  0  0  0  0
    4.5410   -3.3700   25.4110 O   0  0  0  0  0  0  0  0  0  0  0  0
    6.4840   -2.9500   26.5880 N   0  0  0  0  0  0  0  0  0  0  0  0
    6.3490   -3.5190   27.9620 C   0  0  2  0  0  0  0  0  0  0  0  0
    5.6640   -4.8430   28.0120 C   0  0  0  0  0  0  0  0  0  0  0  0
    5.6610   -5.5430   29.0660 O   0  0  0  0  0  0  0  0  0  0  0  0
    5.8230   -2.4980   28.8960 C   0  0  0  0  0  0  0  0  0  0  0  0
    6.7140   -1.5920   29.4130 C   0  0  0  0  0  0  0  0  0  0  0  0
    6.4340   -0.5810   30.2870 C   0  0  0  0  0  0  0  0  0  0  0  0
    5.1490   -0.4450   30.6920 C   0  0  0  0  0  0  0  0  0  0  0  0
    4.2100   -1.3210   30.2080 C   0  0  0  0  0  0  0  0  0  0  0  0
    2.5540   -1.1230   30.7450 Cl  0  0  0  0  0  0  0  0  0  0  0  0
    4.5180   -2.3370   29.3250 C   0  0  0  0  0  0  0  0  0  0  0  0
    5.5950   -4.7590   23.3700 C   0  0  0  0  0  0  0  0  0  0  0  0
    6.4460   -5.3320   22.3110 C   0  0  0  0  0  0  0  0  0  0  0  0
  1  2  1  0
  2  3  2  0
  2  4  1  0
  4  5  1  0
  5  6  1  0
  6  7  1  0
  7  8  1  0
  8  9  2  0
  8 10  1  0
 10 11  1  0
 11 12  1  6
 12 13  1  0
 11 14  1  0
 14 15  2  0
 15 16  1  0
 16 17  2  0
 17 18  1  0
 18 19  1  0
 14 20  1  0
 18 20  2  0
  7 21  1  0
  4 22  1  0
 21 22  1  0
M  END
