piperidine-amides-4447-covalent
     RDKit          3D

 25 27  0  0  0  0  0  0  0  0999 V2000
    7.0460   -3.3270   19.2580 C   0  0  0  0  0  0  0  0  0  0  0  0
    6.3690   -4.1270   20.2940 C   0  0  0  0  0  0  0  0  0  0  0  0
    5.3330   -4.7430   19.9470 O   0  0  0  0  0  0  0  0  0  0  0  0
    6.9000   -4.2410   21.6040 N   0  0  0  0  0  0  0  0  0  0  0  0
    6.5500   -5.3730   22.3920 C   0  0  0  0  0  0  0  0  0  0  0  0
    6.3020   -5.0730   23.8020 C   0  0  0  0  0  0  0  0  0  0  0  0
    6.7350   -3.7410   24.2790 C   0  0  0  0  0  0  0  0  0  0  0  0
    5.8760   -3.2790   25.4270 C   0  0  0  0  0  0  0  0  0  0  0  0
    4.6380   -3.4220   25.3490 O   0  0  0  0  0  0  0  0  0  0  0  0
    6.4040   -2.6760   26.5950 N   0  0  0  0  0  0  0  0  0  0  0  0
    5.9570   -1.4720   27.2010 C   0  0  2  0  0  0  0  0  0  0  0  0
    5.8930   -0.2750   26.3790 C   0  0  0  0  0  0  0  0  0  0  0  0
    5.9840    1.0060   27.2380 C   0  0  0  0  0  0  0  0  0  0  0  0
    5.8390    0.8760   28.6010 C   0  0  0  0  0  0  0  0  0  0  0  0
    6.3870   -0.2460   29.2380 N   0  0  0  0  0  0  0  0  0  0  0  0
    5.9970   -0.3420   30.6030 C   0  0  0  0  0  0  0  0  0  0  0  0
    4.6950   -1.0980   30.7760 C   0  0  0  0  0  0  0  0  0  0  0  0
    4.3230   -1.1420   32.2730 C   0  0  0  0  0  0  0  0  0  0  0  0
    5.0330   -0.5790   33.4800 C   0  0  0  0  0  0  0  0  0  0  0  0
    6.3160    0.1520   33.2160 C   0  0  0  0  0  0  0  0  0  0  0  0
    6.7800    0.2590   31.7660 C   0  0  0  0  0  0  0  0  0  0  0  0
    8.2890    1.1250   31.4450 Cl  0  0  0  0  0  0  0  0  0  0  0  0
    6.8050   -1.2220   28.4150 C   0  0  0  0  0  0  0  0  0  0  0  0
    6.8110   -2.7170   23.2070 C   0  0  0  0  0  0  0  0  0  0  0  0
    7.6340   -3.1620   22.2000 C   0  0  0  0  0  0  0  0  0  0  0  0
  1  2  1  0
  2  3  2  0
  2  4  1  0
  4  5  1  0
  5  6  1  0
  6  7  1  0
  7  8  1  0
  8  9  2  0
  8 10  1  0
 11 10  1  6
 11 12  1  0
 12 13  1  0
 13 14  1  0
 14 15  1  0
 15 16  1  0
 16 17  2  0
 17 18  1  0
 18 19  2  0
 19 20  1  0
 16 21  1  0
 20 21  2  0
 21 22  1  0
 11 23  1  0
 15 23  1  0
  7 24  1  0
  4 25  1  0
 24 25  1  0
M  END
