piperidine-amides-34151-covalent
     RDKit          3D

 30 32  0  0  0  0  0  0  0  0999 V2000
    7.0380   -3.3270   19.3490 C   0  0  0  0  0  0  0  0  0  0  0  0
    6.3360   -4.2010   20.3050 C   0  0  0  0  0  0  0  0  0  0  0  0
    5.3220   -4.8350   19.9620 O   0  0  0  0  0  0  0  0  0  0  0  0
    6.8220   -4.3680   21.6010 N   0  0  0  0  0  0  0  0  0  0  0  0
    6.5610   -5.6170   22.2990 C   0  0  0  0  0  0  0  0  0  0  0  0
    5.9140   -5.3110   23.6670 C   0  0  0  0  0  0  0  0  0  0  0  0
    6.0530   -3.8290   23.8930 C   0  0  0  0  0  0  0  0  0  0  0  0
    5.6900   -3.4300   25.2760 C   0  0  0  0  0  0  0  0  0  0  0  0
    4.6430   -2.7610   25.4040 O   0  0  0  0  0  0  0  0  0  0  0  0
    6.4520   -3.7790   26.4250 N   0  0  0  0  0  0  0  0  0  0  0  0
    7.0770   -5.0830   26.4550 C   0  0  0  0  0  0  0  0  0  0  0  0
    6.8020   -5.4790   27.8750 C   0  0  0  0  0  0  0  0  0  0  0  0
    5.7470   -4.7140   28.2420 C   0  0  1  0  0  0  0  0  0  0  0  0
    5.2950   -4.8400   29.5680 N   0  0  0  0  0  0  0  0  0  0  0  0
    4.1050   -4.1270   29.8770 C   0  0  0  0  0  0  0  0  0  0  0  0
    3.0840   -5.0410   30.1410 C   0  0  0  0  0  0  0  0  0  0  0  0
    3.2510   -5.7590   31.2900 C   0  0  0  0  0  0  0  0  0  0  0  0
    3.1810   -5.1340   32.4760 N   0  0  0  0  0  0  0  0  0  0  0  0
    2.0680   -5.5440   33.1200 C   0  0  0  0  0  0  0  0  0  0  0  0
    1.7430   -6.7310   33.0680 O   0  0  0  0  0  0  0  0  0  0  0  0
    1.2630   -4.7170   33.8440 O   0  0  0  0  0  0  0  0  0  0  0  0
    0.1820   -5.3680   34.3940 C   0  0  0  0  0  0  0  0  0  0  0  0
    0.5900   -6.4190   35.3810 C   0  0  0  0  0  0  0  0  0  0  0  0
   -0.2850   -5.2370   35.8390 C   0  0  0  0  0  0  0  0  0  0  0  0
   -0.7140   -6.0600   33.4780 C   0  0  0  0  0  0  0  0  0  0  0  0
    4.4520   -6.4330   31.3080 C   0  0  0  0  0  0  0  0  0  0  0  0
    5.1980   -6.1970   30.0080 C   0  0  0  0  0  0  0  0  0  0  0  0
    5.8180   -3.4680   27.7030 C   0  0  0  0  0  0  0  0  0  0  0  0
    7.3780   -3.2940   23.5290 C   0  0  0  0  0  0  0  0  0  0  0  0
    7.5660   -3.2820   22.1880 C   0  0  0  0  0  0  0  0  0  0  0  0
  1  2  1  0
  2  3  2  0
  2  4  1  0
  4  5  1  0
  5  6  1  0
  6  7  1  0
  7  8  1  0
  8  9  2  0
  8 10  1  0
 10 11  1  0
 11 12  1  0
 12 13  1  0
 13 14  1  1
 14 15  1  0
 15 16  1  0
 16 17  1  0
 17 18  1  0
 18 19  1  0
 19 20  2  0
 19 21  1  0
 22 21  1  0
 22 23  1  0
 22 24  1  0
 22 25  1  0
 17 26  1  0
 14 27  1  0
 26 27  1  0
 10 28  1  0
 13 28  1  0
  7 29  1  0
  4 30  1  0
 29 30  1  0
M  END
