piperidine-amides-23908-covalent
     RDKit          3D

 24 25  0  0  0  0  0  0  0  0999 V2000
    7.0900   -3.2820   19.2880 C   0  0  0  0  0  0  0  0  0  0  0  0
    6.3840   -4.0790   20.3090 C   0  0  0  0  0  0  0  0  0  0  0  0
    5.3340   -4.6540   19.9290 O   0  0  0  0  0  0  0  0  0  0  0  0
    6.8700   -4.2370   21.6400 N   0  0  0  0  0  0  0  0  0  0  0  0
    7.6510   -3.1860   22.2280 C   0  0  0  0  0  0  0  0  0  0  0  0
    7.2300   -2.8760   23.5820 C   0  0  0  0  0  0  0  0  0  0  0  0
    6.0940   -3.7220   23.9440 C   0  0  0  0  0  0  0  0  0  0  0  0
    5.4960   -3.4250   25.2930 C   0  0  0  0  0  0  0  0  0  0  0  0
    4.2580   -3.5060   25.4060 O   0  0  0  0  0  0  0  0  0  0  0  0
    6.2260   -3.0410   26.4430 N   0  0  0  0  0  0  0  0  0  0  0  0
    6.7140   -1.7230   26.6350 C   0  0  0  0  0  0  0  0  0  0  0  0
    5.8110   -0.5790   26.5770 C   0  0  0  0  0  0  0  0  0  0  0  0
    4.9720   -0.5970   25.3280 C   0  0  0  0  0  0  0  0  0  0  0  0
    4.0520    0.3540   25.0300 C   0  0  0  0  0  0  0  0  0  0  0  0
    3.8340    1.5320   26.0100 C   0  0  0  0  0  0  0  0  0  0  0  0
    4.6790    1.5660   27.2850 C   0  0  0  0  0  0  0  0  0  0  0  0
    4.4930    2.6250   28.1780 O   0  0  0  0  0  0  0  0  0  0  0  0
    5.7200    0.4600   27.5890 C   0  0  0  0  0  0  0  0  0  0  0  0
    6.1330   -3.6530   27.7330 C   0  0  0  0  0  0  0  0  0  0  0  0
    5.8850   -5.1520   27.8060 C   0  0  0  0  0  0  0  0  0  0  0  0
    4.4050   -5.4990   27.9690 C   0  0  0  0  0  0  0  0  0  0  0  0
    6.6210   -5.8510   28.9130 C   0  0  0  0  0  0  0  0  0  0  0  0
    6.3780   -5.1780   23.7400 C   0  0  0  0  0  0  0  0  0  0  0  0
    6.5550   -5.4440   22.3770 C   0  0  0  0  0  0  0  0  0  0  0  0
  1  2  1  0
  2  3  2  0
  2  4  1  0
  4  5  1  0
  5  6  1  0
  6  7  1  0
  7  8  1  0
  8  9  2  0
  8 10  1  0
 10 11  1  0
 11 12  1  0
 12 13  2  0
 13 14  1  0
 14 15  2  0
 15 16  1  0
 16 17  1  0
 12 18  1  0
 16 18  2  0
 10 19  1  0
 19 20  1  0
 20 21  1  0
 20 22  1  0
  7 23  1  0
  4 24  1  0
 23 24  1  0
M  END
