piperidine-amides-21617-covalent
     RDKit          3D

 23 25  0  0  0  0  0  0  0  0999 V2000
    6.9800   -3.4020   19.4230 C   0  0  0  0  0  0  0  0  0  0  0  0
    6.3400   -4.3150   20.3860 C   0  0  0  0  0  0  0  0  0  0  0  0
    5.3210   -4.9210   19.9770 O   0  0  0  0  0  0  0  0  0  0  0  0
    6.8630   -4.5290   21.6640 N   0  0  0  0  0  0  0  0  0  0  0  0
    6.4580   -5.6290   22.5060 C   0  0  0  0  0  0  0  0  0  0  0  0
    6.3750   -5.1250   23.9330 C   0  0  0  0  0  0  0  0  0  0  0  0
    5.8030   -3.7280   24.0210 C   0  0  0  0  0  0  0  0  0  0  0  0
    5.5290   -3.1760   25.3980 C   0  0  0  0  0  0  0  0  0  0  0  0
    4.7690   -2.1920   25.4130 O   0  0  0  0  0  0  0  0  0  0  0  0
    5.9600   -3.6180   26.6890 N   0  0  0  0  0  0  0  0  0  0  0  0
    4.9690   -3.7210   27.7120 C   0  0  0  0  0  0  0  0  0  0  0  0
    5.4120   -4.8350   28.6250 C   0  0  0  0  0  0  0  0  0  0  0  0
    6.7220   -5.2040   28.6890 C   0  0  0  0  0  0  0  0  0  0  0  0
    7.7060   -4.4420   28.0910 C   0  0  0  0  0  0  0  0  0  0  0  0
    7.3410   -3.5570   27.0790 C   0  0  1  0  0  0  0  0  0  0  0  0
    8.0760   -3.7360   25.9970 C   0  0  0  0  0  0  0  0  0  0  0  0
    7.9430   -2.5590   25.3250 C   0  0  0  0  0  0  0  0  0  0  0  0
    8.6840   -2.6050   24.1000 C   0  0  0  0  0  0  0  0  0  0  0  0
    9.2420   -3.8910   24.1350 N   0  0  0  0  0  0  0  0  0  0  0  0
    8.7770   -4.3890   25.3320 N   0  0  0  0  0  0  0  0  0  0  0  0
    9.1720   -5.6270   25.6410 C   0  0  0  0  0  0  0  0  0  0  0  0
    6.5350   -2.6980   23.1260 C   0  0  0  0  0  0  0  0  0  0  0  0
    7.5820   -3.4730   22.3460 C   0  0  0  0  0  0  0  0  0  0  0  0
  1  2  1  0
  2  3  2  0
  2  4  1  0
  4  5  1  0
  5  6  1  0
  6  7  1  0
  7  8  1  0
  8  9  2  0
  8 10  1  0
 10 11  1  0
 11 12  1  0
 12 13  1  0
 13 14  1  0
 10 15  1  0
 14 15  1  0
 15 16  1  6
 16 17  2  0
 17 18  1  0
 18 19  2  0
 16 20  1  0
 19 20  1  0
 20 21  1  0
  7 22  1  0
  4 23  1  0
 22 23  1  0
M  END
