piperidine-amides-33791-covalent
     RDKit          3D

 30 32  0  0  0  0  0  0  0  0999 V2000
    7.0500   -3.4230   19.4230 C   0  0  0  0  0  0  0  0  0  0  0  0
    6.3930   -4.2790   20.4210 C   0  0  0  0  0  0  0  0  0  0  0  0
    5.4040   -4.9350   20.0120 O   0  0  0  0  0  0  0  0  0  0  0  0
    6.8970   -4.3880   21.7540 N   0  0  0  0  0  0  0  0  0  0  0  0
    6.5430   -5.5220   22.5540 C   0  0  0  0  0  0  0  0  0  0  0  0
    6.0550   -5.1600   23.8910 C   0  0  0  0  0  0  0  0  0  0  0  0
    6.0000   -3.7010   24.0830 C   0  0  0  0  0  0  0  0  0  0  0  0
    5.3660   -3.1500   25.3570 C   0  0  0  0  0  0  0  0  0  0  0  0
    4.7660   -2.0760   25.2380 O   0  0  0  0  0  0  0  0  0  0  0  0
    5.3520   -3.7090   26.6590 N   0  0  0  0  0  0  0  0  0  0  0  0
    4.2420   -3.7390   27.5150 C   0  0  0  0  0  0  0  0  0  0  0  0
    4.5270   -3.9780   28.9200 C   0  0  0  0  0  0  0  0  0  0  0  0
    5.5670   -4.7120   29.2760 N   0  0  0  0  0  0  0  0  0  0  0  0
    5.4320   -6.1020   29.6250 C   0  0  0  0  0  0  0  0  0  0  0  0
    6.1710   -6.5340   30.7050 O   0  0  0  0  0  0  0  0  0  0  0  0
    4.5780   -6.9380   28.9200 C   0  0  2  0  0  0  0  0  0  0  0  0
    5.4060   -6.6970   27.6630 C   0  0  0  0  0  0  0  0  0  0  0  0
    3.4630   -6.4020   28.8000 O   0  0  0  0  0  0  0  0  0  0  0  0
    2.4890   -6.3720   29.6600 C   0  0  0  0  0  0  0  0  0  0  0  0
    1.4200   -5.3590   29.2620 C   0  0  0  0  0  0  0  0  0  0  0  0
    0.1620   -5.0650   30.0240 C   0  0  0  0  0  0  0  0  0  0  0  0
    0.0880   -5.9230   31.2680 C   0  0  0  0  0  0  0  0  0  0  0  0
   -1.1000   -5.8240   32.2360 C   0  0  0  0  0  0  0  0  0  0  0  0
    1.1730   -6.9180   31.6250 C   0  0  0  0  0  0  0  0  0  0  0  0
    2.3200   -7.1170   30.8330 C   0  0  0  0  0  0  0  0  0  0  0  0
    3.2570   -8.0410   31.2260 C   0  0  0  0  0  0  0  0  0  0  0  0
    6.6480   -4.4650   28.3990 C   0  0  0  0  0  0  0  0  0  0  0  0
    6.4020   -3.3720   27.5450 C   0  0  0  0  0  0  0  0  0  0  0  0
    7.3780   -3.1520   23.8020 C   0  0  0  0  0  0  0  0  0  0  0  0
    7.6710   -3.2940   22.3140 C   0  0  0  0  0  0  0  0  0  0  0  0
  1  2  1  0
  2  3  2  0
  2  4  1  0
  4  5  1  0
  5  6  1  0
  6  7  1  0
  7  8  1  0
  8  9  2  0
  8 10  1  0
 10 11  1  0
 11 12  1  0
 12 13  1  0
 13 14  1  0
 14 15  2  0
 14 16  1  0
 16 17  1  6
 16 18  1  0
 18 19  1  0
 19 20  2  0
 20 21  1  0
 21 22  2  0
 22 23  1  0
 22 24  1  0
 19 25  1  0
 24 25  2  0
 25 26  1  0
 13 27  1  0
 10 28  1  0
 27 28  1  0
  7 29  1  0
  4 30  1  0
 29 30  1  0
M  END
