piperidine-amides-478-covalent
     RDKit          3D

 27 28  0  0  0  0  0  0  0  0999 V2000
    7.0020   -3.3920   19.4520 C   0  0  0  0  0  0  0  0  0  0  0  0
    6.3580   -4.2210   20.4590 C   0  0  0  0  0  0  0  0  0  0  0  0
    5.4170   -4.9610   20.0200 O   0  0  0  0  0  0  0  0  0  0  0  0
    6.7100   -4.2930   21.8470 N   0  0  0  0  0  0  0  0  0  0  0  0
    7.7100   -3.3270   22.3920 C   0  0  0  0  0  0  0  0  0  0  0  0
    7.2500   -3.0890   23.9020 C   0  0  0  0  0  0  0  0  0  0  0  0
    7.0960   -4.4460   24.5940 C   0  0  0  0  0  0  0  0  0  0  0  0
    6.6670   -4.3400   26.1670 C   0  0  0  0  0  0  0  0  0  0  0  0
    5.5360   -3.8310   26.2020 O   0  0  0  0  0  0  0  0  0  0  0  0
    7.6030   -4.7990   27.0250 N   0  0  0  0  0  0  0  0  0  0  0  0
    8.6540   -5.1320   27.9620 C   0  0  0  0  0  0  0  0  0  0  0  0
    9.9210   -4.5700   28.1370 C   0  0  0  0  0  0  0  0  0  0  0  0
    9.8200   -3.7040   27.0540 O   0  0  0  0  0  0  0  0  0  0  0  0
   11.3000   -4.5330   29.2320 N   0  0  0  0  0  0  0  0  0  0  0  0
   12.8120   -5.0780   29.1250 C   0  0  0  0  0  0  0  0  0  0  0  0
   14.3270   -4.9960   27.9540 C   0  0  0  0  0  0  0  0  0  0  0  0
   15.2170   -6.9120   28.0380 C   0  0  0  0  0  0  0  0  0  0  0  0
   14.5420   -8.1810   29.6960 C   0  0  0  0  0  0  0  0  0  0  0  0
   13.6340   -8.2260   30.9710 C   0  0  0  0  0  0  0  0  0  0  0  0
   13.4430   -9.4060   32.2770 S   0  0  0  0  0  0  0  0  0  0  0  0
   14.4970   -9.1530   33.3040 O   0  0  0  0  0  0  0  0  0  0  0  0
   12.2430   -9.2800   33.1310 O   0  0  0  0  0  0  0  0  0  0  0  0
   13.5690  -11.0820   31.8350 N   0  0  0  0  0  0  0  0  0  0  0  0
   12.2720  -11.5170   31.4710 C   0  0  0  0  0  0  0  0  0  0  0  0
   12.6760   -6.4170   30.5670 C   0  0  0  0  0  0  0  0  0  0  0  0
    6.0430   -5.2350   23.7810 C   0  0  0  0  0  0  0  0  0  0  0  0
    6.5960   -5.5550   22.5590 C   0  0  0  0  0  0  0  0  0  0  0  0
  1  2  1  0
  2  3  2  0
  2  4  1  0
  4  5  1  0
  5  6  1  0
  6  7  1  0
  7  8  1  0
  8  9  2  0
  8 10  1  0
 10 11  1  0
 11 12  1  0
 12 13  2  0
 12 14  1  0
 14 15  1  0
 15 16  2  0
 16 17  1  0
 17 18  2  0
 18 19  1  0
 19 20  1  0
 20 21  2  0
 20 22  2  0
 20 23  1  0
 23 24  1  0
 15 25  1  0
 19 25  2  0
  7 26  1  0
  4 27  1  0
 26 27  1  0
M  END
