piperidine-amides-9150-covalent
     RDKit          3D

 20 21  0  0  0  0  0  0  0  0999 V2000
    7.1320   -3.2600   19.1550 C   0  0  0  0  0  0  0  0  0  0  0  0
    6.3520   -3.9800   20.1650 C   0  0  0  0  0  0  0  0  0  0  0  0
    5.2640   -4.4900   19.8540 O   0  0  0  0  0  0  0  0  0  0  0  0
    6.8390   -4.1560   21.4610 N   0  0  0  0  0  0  0  0  0  0  0  0
    7.7180   -3.2050   22.1070 C   0  0  0  0  0  0  0  0  0  0  0  0
    6.9760   -2.7380   23.3160 C   0  0  0  0  0  0  0  0  0  0  0  0
    6.5440   -3.9000   24.1500 C   0  0  0  0  0  0  0  0  0  0  0  0
    5.8260   -3.4460   25.3540 C   0  0  0  0  0  0  0  0  0  0  0  0
    4.5610   -3.4130   25.3840 O   0  0  0  0  0  0  0  0  0  0  0  0
    6.5180   -3.0240   26.4990 N   0  0  0  0  0  0  0  0  0  0  0  0
    5.9540   -3.2350   27.8390 C   0  0  1  0  0  0  0  0  0  0  0  0
    6.5620   -4.4290   28.4800 C   0  0  0  0  0  0  0  0  0  0  0  0
    6.2680   -1.9870   28.6830 C   0  0  0  0  0  0  0  0  0  0  0  0
    7.4400   -2.0370   29.0940 O   0  0  0  0  0  0  0  0  0  0  0  0
    7.8060   -1.0190   29.9760 C   0  0  0  0  0  0  0  0  0  0  0  0
    5.1970   -1.6860   29.7790 C   0  0  0  0  0  0  0  0  0  0  0  0
    5.1010   -0.3840   29.1060 C   0  0  0  0  0  0  0  0  0  0  0  0
    5.9920   -0.7060   28.2060 C   0  0  0  0  0  0  0  0  0  0  0  0
    5.6880   -4.8750   23.3840 C   0  0  0  0  0  0  0  0  0  0  0  0
    6.4940   -5.3510   22.2000 C   0  0  0  0  0  0  0  0  0  0  0  0
  1  2  1  0
  2  3  2  0
  2  4  1  0
  4  5  1  0
  5  6  1  0
  6  7  1  0
  7  8  1  0
  8  9  2  0
  8 10  1  0
 10 11  1  0
 11 12  1  1
 11 13  1  0
 13 14  1  0
 14 15  1  0
 13 16  1  0
 16 17  1  0
 13 18  1  0
 17 18  1  0
  7 19  1  0
  4 20  1  0
 19 20  1  0
M  END
