piperidine-amides-15223-covalent
     RDKit          3D

 19 19  0  0  0  0  0  0  0  0999 V2000
    7.0600   -3.2640   19.2180 C   0  0  0  0  0  0  0  0  0  0  0  0
    6.3010   -4.0360   20.2180 C   0  0  0  0  0  0  0  0  0  0  0  0
    5.2510   -4.6240   19.8960 O   0  0  0  0  0  0  0  0  0  0  0  0
    6.7670   -4.1600   21.5260 N   0  0  0  0  0  0  0  0  0  0  0  0
    6.5070   -5.3800   22.2670 C   0  0  0  0  0  0  0  0  0  0  0  0
    5.6630   -5.0570   23.5260 C   0  0  0  0  0  0  0  0  0  0  0  0
    5.7790   -3.5760   23.8670 C   0  0  0  0  0  0  0  0  0  0  0  0
    5.3250   -3.3440   25.2590 C   0  0  0  0  0  0  0  0  0  0  0  0
    4.1100   -3.1330   25.4400 O   0  0  0  0  0  0  0  0  0  0  0  0
    6.2260   -3.3470   26.3540 N   0  0  0  0  0  0  0  0  0  0  0  0
    6.9120   -4.5480   26.7240 C   0  0  2  0  0  0  0  0  0  0  0  0
    6.4060   -5.0630   28.0530 C   0  0  0  0  0  0  0  0  0  0  0  0
    8.3180   -4.1820   26.8080 C   0  0  0  0  0  0  0  0  0  0  0  0
    9.0990   -4.1890   25.6940 C   0  0  0  0  0  0  0  0  0  0  0  0
    9.1510   -3.1590   24.7710 O   0  0  0  0  0  0  0  0  0  0  0  0
    9.8760   -5.2600   25.5500 O   0  0  0  0  0  0  0  0  0  0  0  0
    9.3280   -6.4220   25.9850 C   0  0  0  0  0  0  0  0  0  0  0  0
    7.1140   -2.9930   23.6020 C   0  0  0  0  0  0  0  0  0  0  0  0
    7.5290   -3.1340   22.1730 C   0  0  0  0  0  0  0  0  0  0  0  0
  1  2  1  0
  2  3  2  0
  2  4  1  0
  4  5  1  0
  5  6  1  0
  6  7  1  0
  7  8  1  0
  8  9  2  0
  8 10  1  0
 10 11  1  0
 11 12  1  1
 11 13  1  0
 13 14  1  0
 14 15  2  0
 14 16  1  0
 16 17  1  0
  7 18  1  0
  4 19  1  0
 18 19  1  0
M  END
