piperidine-amides-13024-covalent
     RDKit          3D

 20 20  0  0  0  0  0  0  0  0999 V2000
    7.1080   -3.2800   19.2330 C   0  0  0  0  0  0  0  0  0  0  0  0
    6.3700   -4.0500   20.2590 C   0  0  0  0  0  0  0  0  0  0  0  0
    5.3030   -4.5890   19.8980 O   0  0  0  0  0  0  0  0  0  0  0  0
    6.8900   -4.1930   21.5540 N   0  0  0  0  0  0  0  0  0  0  0  0
    7.5740   -3.0880   22.1360 C   0  0  0  0  0  0  0  0  0  0  0  0
    7.0000   -2.6980   23.4150 C   0  0  0  0  0  0  0  0  0  0  0  0
    6.6130   -3.8450   24.2590 C   0  0  0  0  0  0  0  0  0  0  0  0
    5.9000   -3.3330   25.4560 C   0  0  0  0  0  0  0  0  0  0  0  0
    4.6520   -3.3340   25.4510 O   0  0  0  0  0  0  0  0  0  0  0  0
    6.6170   -2.8430   26.5640 N   0  0  0  0  0  0  0  0  0  0  0  0
    6.5960   -3.4630   27.9130 C   0  0  0  0  0  0  0  0  0  0  0  0
    6.9830   -4.9070   27.9280 C   0  0  0  0  0  0  0  0  0  0  0  0
    5.9840   -5.8300   28.4540 C   0  0  0  0  0  0  0  0  0  0  0  0
    6.2900   -6.2840   29.6060 O   0  0  0  0  0  0  0  0  0  0  0  0
    6.0710   -7.6610   29.6850 C   0  0  0  0  0  0  0  0  0  0  0  0
    4.9940   -8.1550   30.3420 O   0  0  0  0  0  0  0  0  0  0  0  0
    6.9990   -8.5200   29.0650 N   0  0  0  0  0  0  0  0  0  0  0  0
    7.4640   -9.7130   29.7130 C   0  0  0  0  0  0  0  0  0  0  0  0
    5.8850   -4.9190   23.5040 C   0  0  0  0  0  0  0  0  0  0  0  0
    6.5410   -5.3110   22.3620 C   0  0  0  0  0  0  0  0  0  0  0  0
  1  2  1  0
  2  3  2  0
  2  4  1  0
  4  5  1  0
  5  6  1  0
  6  7  1  0
  7  8  1  0
  8  9  2  0
  8 10  1  0
 10 11  1  0
 11 12  1  0
 12 13  1  0
 13 14  1  0
 14 15  1  0
 15 16  2  0
 15 17  1  0
 17 18  1  0
  7 19  1  0
  4 20  1  0
 19 20  1  0
M  END
