piperidine-amides-12180-covalent
     RDKit          3D

 25 26  0  0  0  0  0  0  0  0999 V2000
    7.0540   -3.2830   19.2950 C   0  0  0  0  0  0  0  0  0  0  0  0
    6.3260   -4.0780   20.2850 C   0  0  0  0  0  0  0  0  0  0  0  0
    5.3330   -4.7160   19.9420 O   0  0  0  0  0  0  0  0  0  0  0  0
    6.7770   -4.1650   21.6490 N   0  0  0  0  0  0  0  0  0  0  0  0
    6.6600   -5.4330   22.3250 C   0  0  0  0  0  0  0  0  0  0  0  0
    6.1230   -5.2280   23.7100 C   0  0  0  0  0  0  0  0  0  0  0  0
    6.0770   -3.7330   23.9310 C   0  0  0  0  0  0  0  0  0  0  0  0
    5.5380   -3.3690   25.2830 C   0  0  0  0  0  0  0  0  0  0  0  0
    4.6460   -2.5070   25.4080 O   0  0  0  0  0  0  0  0  0  0  0  0
    6.0160   -3.9860   26.4730 N   0  0  0  0  0  0  0  0  0  0  0  0
    6.0210   -5.4360   26.6010 C   0  0  0  0  0  0  0  0  0  0  0  0
    4.6270   -5.9670   26.8110 C   0  0  0  0  0  0  0  0  0  0  0  0
    4.1240   -7.0480   26.0540 C   0  0  0  0  0  0  0  0  0  0  0  0
    4.5440   -7.3720   24.9130 O   0  0  0  0  0  0  0  0  0  0  0  0
    3.0370   -7.7830   26.6300 N   0  0  0  0  0  0  0  0  0  0  0  0
    1.9490   -7.8300   25.6930 C   0  0  0  0  0  0  0  0  0  0  0  0
    1.5980   -6.6070   25.1370 C   0  0  0  0  0  0  0  0  0  0  0  0
    0.5140   -6.5860   24.1800 C   0  0  0  0  0  0  0  0  0  0  0  0
   -0.1600   -7.7090   23.8140 C   0  0  0  0  0  0  0  0  0  0  0  0
    0.1980   -8.9140   24.3730 C   0  0  0  0  0  0  0  0  0  0  0  0
   -0.6640  -10.3770   23.9160 Cl  0  0  0  0  0  0  0  0  0  0  0  0
    1.2470   -8.9740   25.3060 C   0  0  0  0  0  0  0  0  0  0  0  0
    1.5770  -10.2930   25.8600 C   0  0  0  0  0  0  0  0  0  0  0  0
    7.4060   -3.0760   23.6080 C   0  0  0  0  0  0  0  0  0  0  0  0
    7.5980   -3.1130   22.2210 C   0  0  0  0  0  0  0  0  0  0  0  0
  1  2  1  0
  2  3  2  0
  2  4  1  0
  4  5  1  0
  5  6  1  0
  6  7  1  0
  7  8  1  0
  8  9  2  0
  8 10  1  0
 10 11  1  0
 11 12  1  0
 12 13  1  0
 13 14  2  0
 13 15  1  0
 15 16  1  0
 16 17  2  0
 17 18  1  0
 18 19  2  0
 19 20  1  0
 20 21  1  0
 16 22  1  0
 20 22  2  0
 22 23  1  0
  7 24  1  0
  4 25  1  0
 24 25  1  0
M  END
