piperidine-amides-356-covalent
     RDKit          3D

 28 29  0  0  0  0  0  0  0  0999 V2000
    7.1490   -3.3540   19.1900 C   0  0  0  0  0  0  0  0  0  0  0  0
    6.3900   -4.0120   20.2280 C   0  0  0  0  0  0  0  0  0  0  0  0
    5.2880   -4.5440   19.8940 O   0  0  0  0  0  0  0  0  0  0  0  0
    6.8460   -4.1440   21.5590 N   0  0  0  0  0  0  0  0  0  0  0  0
    7.8520   -3.1970   22.0830 C   0  0  0  0  0  0  0  0  0  0  0  0
    7.0080   -2.5370   23.2220 C   0  0  0  0  0  0  0  0  0  0  0  0
    6.5260   -3.6720   24.0940 C   0  0  0  0  0  0  0  0  0  0  0  0
    5.6830   -3.0180   25.2710 C   0  0  0  0  0  0  0  0  0  0  0  0
    5.1230   -2.0090   24.8740 O   0  0  0  0  0  0  0  0  0  0  0  0
    5.7790   -3.7100   26.3320 N   0  0  0  0  0  0  0  0  0  0  0  0
    5.7470   -4.4170   27.4940 C   0  0  1  0  0  0  0  0  0  0  0  0
    5.7660   -5.7360   27.8480 C   0  0  0  0  0  0  0  0  0  0  0  0
    4.8610   -6.4130   26.9930 C   0  0  0  0  0  0  0  0  0  0  0  0
    4.9270   -6.3510   25.5260 C   0  0  0  0  0  0  0  0  0  0  0  0
    3.8680   -7.1430   24.7490 C   0  0  0  0  0  0  0  0  0  0  0  0
    2.9200   -7.8580   25.4820 C   0  0  0  0  0  0  0  0  0  0  0  0
    2.6230   -8.0870   26.8370 C   0  0  0  0  0  0  0  0  0  0  0  0
    3.7340   -7.2620   27.4950 C   0  0  0  0  0  0  0  0  0  0  0  0
    6.6490   -3.6140   28.4540 C   0  0  0  0  0  0  0  0  0  0  0  0
    6.8660   -2.6350   29.1930 O   0  0  0  0  0  0  0  0  0  0  0  0
    5.4010   -2.8820   28.3580 N   0  0  0  0  0  0  0  0  0  0  0  0
    5.1290   -2.1220   29.5460 C   0  0  0  0  0  0  0  0  0  0  0  0
    3.9870   -2.6590   30.0890 C   0  0  0  0  0  0  0  0  0  0  0  0
    3.6560   -2.1470   31.3040 C   0  0  0  0  0  0  0  0  0  0  0  0
    2.5730   -2.6260   32.0760 N   0  0  0  0  0  0  0  0  0  0  0  0
    4.3830   -1.1910   31.7310 O   0  0  0  0  0  0  0  0  0  0  0  0
    5.8160   -4.8290   23.4420 C   0  0  0  0  0  0  0  0  0  0  0  0
    6.5440   -5.2900   22.3500 C   0  0  0  0  0  0  0  0  0  0  0  0
  1  2  1  0
  2  3  2  0
  2  4  1  0
  4  5  1  0
  5  6  1  0
  6  7  1  0
  7  8  1  0
  8  9  2  0
  8 10  1  0
 10 11  1  0
 11 12  1  6
 12 13  1  0
 13 14  2  0
 14 15  1  0
 15 16  2  0
 16 17  1  0
 13 18  1  0
 17 18  2  0
 11 19  1  0
 19 20  2  0
 19 21  1  0
 21 22  1  0
 22 23  1  0
 23 24  1  0
 24 25  1  0
 24 26  2  0
  7 27  1  0
  4 28  1  0
 27 28  1  0
M  END
