piperidine-amides-5516-covalent
     RDKit          3D

 20 21  0  0  0  0  0  0  0  0999 V2000
    7.0520   -3.2640   19.1750 C   0  0  0  0  0  0  0  0  0  0  0  0
    6.2510   -3.9950   20.1660 C   0  0  0  0  0  0  0  0  0  0  0  0
    5.1860   -4.5220   19.8370 O   0  0  0  0  0  0  0  0  0  0  0  0
    6.6860   -4.1380   21.4760 N   0  0  0  0  0  0  0  0  0  0  0  0
    7.3960   -3.0720   22.1060 C   0  0  0  0  0  0  0  0  0  0  0  0
    6.5360   -2.6790   23.2790 C   0  0  0  0  0  0  0  0  0  0  0  0
    5.2880   -3.5070   23.3810 C   0  0  0  0  0  0  0  0  0  0  0  0
    4.4760   -3.2140   24.6000 C   0  0  0  0  0  0  0  0  0  0  0  0
    3.2470   -3.4670   24.6310 O   0  0  0  0  0  0  0  0  0  0  0  0
    5.0010   -2.6670   25.7760 N   0  0  0  0  0  0  0  0  0  0  0  0
    6.1760   -3.3350   26.2530 C   0  0  0  0  0  0  0  0  0  0  0  0
    5.8150   -4.7860   26.1640 C   0  0  0  0  0  0  0  0  0  0  0  0
    6.3550   -3.0220   27.7560 C   0  0  0  0  0  0  0  0  0  0  0  0
    7.2950   -2.7880   25.3510 C   0  0  0  0  0  0  0  0  0  0  0  0
    8.0350   -3.7080   24.4520 C   0  0  0  0  0  0  0  0  0  0  0  0
    9.0410   -2.9580   23.7370 N   0  0  0  0  0  0  0  0  0  0  0  0
    8.8850   -1.6980   24.1770 N   0  0  0  0  0  0  0  0  0  0  0  0
    7.8870   -1.5800   25.1020 N   0  0  0  0  0  0  0  0  0  0  0  0
    5.6150   -4.9680   23.3250 C   0  0  0  0  0  0  0  0  0  0  0  0
    6.2880   -5.3190   22.1790 C   0  0  0  0  0  0  0  0  0  0  0  0
  1  2  1  0
  2  3  2  0
  2  4  1  0
  4  5  1  0
  5  6  1  0
  6  7  1  0
  7  8  1  0
  8  9  2  0
  8 10  1  0
 11 10  1  0
 11 12  1  0
 11 13  1  0
 11 14  1  0
 14 15  2  0
 15 16  1  0
 16 17  1  0
 14 18  1  0
 17 18  2  0
  7 19  1  0
  4 20  1  0
 19 20  1  0
M  END
