piperidine-amides-14122-covalent
     RDKit          3D

 25 26  0  0  0  0  0  0  0  0999 V2000
    7.0850   -3.3010   19.2730 C   0  0  0  0  0  0  0  0  0  0  0  0
    6.3320   -4.0830   20.2930 C   0  0  0  0  0  0  0  0  0  0  0  0
    5.3190   -4.7130   19.9390 O   0  0  0  0  0  0  0  0  0  0  0  0
    6.8040   -4.1220   21.6250 N   0  0  0  0  0  0  0  0  0  0  0  0
    7.7110   -3.1080   22.1260 C   0  0  0  0  0  0  0  0  0  0  0  0
    7.5250   -3.0720   23.6380 C   0  0  0  0  0  0  0  0  0  0  0  0
    6.1320   -3.5270   23.8690 C   0  0  0  0  0  0  0  0  0  0  0  0
    5.6770   -3.3100   25.2580 C   0  0  0  0  0  0  0  0  0  0  0  0
    4.4910   -3.5580   25.4940 O   0  0  0  0  0  0  0  0  0  0  0  0
    6.5740   -2.8410   26.2170 N   0  0  0  0  0  0  0  0  0  0  0  0
    6.4490   -1.6560   26.9800 C   0  0  0  0  0  0  0  0  0  0  0  0
    5.2490   -1.0490   27.2610 C   0  0  0  0  0  0  0  0  0  0  0  0
    4.2860   -0.8170   26.2590 C   0  0  0  0  0  0  0  0  0  0  0  0
    3.0770   -0.2090   26.5420 C   0  0  0  0  0  0  0  0  0  0  0  0
    2.7490    0.2270   27.9290 C   0  0  0  0  0  0  0  0  0  0  0  0
    1.5670    0.8080   28.1350 O   0  0  0  0  0  0  0  0  0  0  0  0
    0.4860    0.9920   27.3410 C   0  0  0  0  0  0  0  0  0  0  0  0
    3.6900   -0.0060   28.8740 C   0  0  0  0  0  0  0  0  0  0  0  0
    3.5360    0.3440   30.2070 O   0  0  0  0  0  0  0  0  0  0  0  0
    3.9310   -0.5420   31.2320 C   0  0  0  0  0  0  0  0  0  0  0  0
    2.8100   -0.8720   31.9490 F   0  0  0  0  0  0  0  0  0  0  0  0
    4.7800    0.0440   32.2170 F   0  0  0  0  0  0  0  0  0  0  0  0
    4.9680   -0.6590   28.5280 C   0  0  0  0  0  0  0  0  0  0  0  0
    5.8420   -4.9450   23.4750 C   0  0  0  0  0  0  0  0  0  0  0  0
    6.6530   -5.3110   22.4220 C   0  0  0  0  0  0  0  0  0  0  0  0
  1  2  1  0
  2  3  2  0
  2  4  1  0
  4  5  1  0
  5  6  1  0
  6  7  1  0
  7  8  1  0
  8  9  2  0
  8 10  1  0
 10 11  1  0
 11 12  1  0
 12 13  2  0
 13 14  1  0
 14 15  2  0
 15 16  1  0
 16 17  1  0
 15 18  1  0
 18 19  1  0
 19 20  1  0
 20 21  1  0
 20 22  1  0
 12 23  1  0
 18 23  2  0
  7 24  1  0
  4 25  1  0
 24 25  1  0
M  END
