piperidine-amides-14854-covalent
     RDKit          3D

 22 23  0  0  0  0  0  0  0  0999 V2000
    7.1060   -3.3160   19.2610 C   0  0  0  0  0  0  0  0  0  0  0  0
    6.3730   -4.0790   20.2650 C   0  0  0  0  0  0  0  0  0  0  0  0
    5.3070   -4.6200   19.9160 O   0  0  0  0  0  0  0  0  0  0  0  0
    6.9050   -4.2360   21.5690 N   0  0  0  0  0  0  0  0  0  0  0  0
    7.6190   -3.1180   22.1560 C   0  0  0  0  0  0  0  0  0  0  0  0
    7.4350   -3.0360   23.6540 C   0  0  0  0  0  0  0  0  0  0  0  0
    6.0610   -3.5760   23.9790 C   0  0  0  0  0  0  0  0  0  0  0  0
    5.5870   -3.1950   25.3490 C   0  0  0  0  0  0  0  0  0  0  0  0
    4.3970   -2.9050   25.4330 O   0  0  0  0  0  0  0  0  0  0  0  0
    6.4820   -3.1830   26.4140 N   0  0  0  0  0  0  0  0  0  0  0  0
    6.1960   -3.8250   27.6600 C   0  0  0  0  0  0  0  0  0  0  0  0
    5.6640   -5.1240   27.5640 C   0  0  2  0  0  0  0  0  0  0  0  0
    4.5020   -5.2110   27.1150 O   0  0  0  0  0  0  0  0  0  0  0  0
    5.5320   -5.8170   28.7370 C   0  0  0  0  0  0  0  0  0  0  0  0
    6.3900   -6.7030   29.3520 C   0  0  0  0  0  0  0  0  0  0  0  0
    6.0730   -7.3330   30.5810 N   0  0  0  0  0  0  0  0  0  0  0  0
    4.8840   -6.7990   30.7850 N   0  0  0  0  0  0  0  0  0  0  0  0
    4.1180   -7.1340   31.9440 C   0  0  0  0  0  0  0  0  0  0  0  0
    3.7590   -5.9990   32.9300 C   0  0  0  0  0  0  0  0  0  0  0  0
    4.4530   -5.8980   29.7860 C   0  0  0  0  0  0  0  0  0  0  0  0
    6.0390   -5.0270   23.6900 C   0  0  0  0  0  0  0  0  0  0  0  0
    6.5630   -5.4240   22.3090 C   0  0  0  0  0  0  0  0  0  0  0  0
  1  2  1  0
  2  3  2  0
  2  4  1  0
  4  5  1  0
  5  6  1  0
  6  7  1  0
  7  8  1  0
  8  9  2  0
  8 10  1  0
 10 11  1  0
 11 12  1  0
 12 13  1  1
 12 14  1  0
 14 15  1  0
 15 16  2  0
 16 17  1  0
 17 18  1  0
 18 19  1  0
 14 20  2  0
 17 20  1  0
  7 21  1  0
  4 22  1  0
 21 22  1  0
M  END
