piperidine-amides-11291-covalent
     RDKit          3D

 17 18  0  0  0  0  0  0  0  0999 V2000
    7.0700   -3.2990   19.3110 C   0  0  0  0  0  0  0  0  0  0  0  0
    6.3420   -4.0970   20.3010 C   0  0  0  0  0  0  0  0  0  0  0  0
    5.3060   -4.6760   19.9370 O   0  0  0  0  0  0  0  0  0  0  0  0
    6.7970   -4.2760   21.6260 N   0  0  0  0  0  0  0  0  0  0  0  0
    6.5960   -5.5330   22.3120 C   0  0  0  0  0  0  0  0  0  0  0  0
    6.1660   -5.1920   23.7210 C   0  0  0  0  0  0  0  0  0  0  0  0
    6.0230   -3.7120   23.9290 C   0  0  0  0  0  0  0  0  0  0  0  0
    5.5690   -3.3200   25.2990 C   0  0  0  0  0  0  0  0  0  0  0  0
    4.4030   -2.8540   25.4460 O   0  0  0  0  0  0  0  0  0  0  0  0
    6.3400   -3.4220   26.4830 N   0  0  0  0  0  0  0  0  0  0  0  0
    6.2500   -4.6090   27.3810 C   0  0  0  0  0  0  0  0  0  0  0  0
    4.9050   -4.7110   27.9360 C   0  0  0  0  0  0  0  0  0  0  0  0
    4.4770   -5.9700   28.5820 C   0  0  0  0  0  0  0  0  0  0  0  0
    5.3480   -7.0200   28.4280 C   0  0  0  0  0  0  0  0  0  0  0  0
    5.0400   -6.6130   29.8970 C   0  0  0  0  0  0  0  0  0  0  0  0
    7.2870   -3.0270   23.5410 C   0  0  0  0  0  0  0  0  0  0  0  0
    7.5650   -3.2050   22.2080 C   0  0  0  0  0  0  0  0  0  0  0  0
  1  2  1  0
  2  3  2  0
  2  4  1  0
  4  5  1  0
  5  6  1  0
  6  7  1  0
  7  8  1  0
  8  9  2  0
  8 10  1  0
 10 11  1  0
 11 12  1  0
 12 13  1  0
 13 14  1  0
 13 15  1  0
 14 15  1  0
  7 16  1  0
  4 17  1  0
 16 17  1  0
M  END
