piperidine-amides-21582-covalent
     RDKit          3D

 23 25  0  0  0  0  0  0  0  0999 V2000
    7.0390   -3.3510   19.3600 C   0  0  0  0  0  0  0  0  0  0  0  0
    6.4010   -4.1820   20.3900 C   0  0  0  0  0  0  0  0  0  0  0  0
    5.4310   -4.8880   19.9980 O   0  0  0  0  0  0  0  0  0  0  0  0
    6.8870   -4.1900   21.7120 N   0  0  0  0  0  0  0  0  0  0  0  0
    7.7460   -3.1500   22.2220 C   0  0  0  0  0  0  0  0  0  0  0  0
    7.0470   -2.4660   23.3680 C   0  0  0  0  0  0  0  0  0  0  0  0
    6.4520   -3.4430   24.3500 C   0  0  0  0  0  0  0  0  0  0  0  0
    5.4960   -2.7370   25.2670 C   0  0  0  0  0  0  0  0  0  0  0  0
    4.4510   -2.3050   24.7370 O   0  0  0  0  0  0  0  0  0  0  0  0
    5.6430   -2.5360   26.6800 N   0  0  0  0  0  0  0  0  0  0  0  0
    4.7450   -3.2580   27.5330 C   0  0  0  0  0  0  0  0  0  0  0  0
    5.3620   -4.5400   27.8010 C   0  0  0  0  0  0  0  0  0  0  0  0
    5.9660   -5.2410   26.8390 C   0  0  0  0  0  0  0  0  0  0  0  0
    6.4420   -6.3160   27.3690 C   0  0  0  0  0  0  0  0  0  0  0  0
    6.1550   -6.3640   28.6850 C   0  0  0  0  0  0  0  0  0  0  0  0
    5.4640   -5.2040   28.9000 O   0  0  0  0  0  0  0  0  0  0  0  0
    5.6940   -1.2360   27.2460 C   0  0  0  0  0  0  0  0  0  0  0  0
    5.9280   -0.1320   26.4740 C   0  0  0  0  0  0  0  0  0  0  0  0
    6.1630    1.0690   27.4070 C   0  0  0  0  0  0  0  0  0  0  0  0
    6.4930    0.2270   28.6550 C   0  0  0  0  0  0  0  0  0  0  0  0
    6.5390   -1.2140   28.2970 C   0  0  0  0  0  0  0  0  0  0  0  0
    5.7130   -4.5710   23.6480 C   0  0  0  0  0  0  0  0  0  0  0  0
    6.5020   -5.2000   22.6930 C   0  0  0  0  0  0  0  0  0  0  0  0
  1  2  1  0
  2  3  2  0
  2  4  1  0
  4  5  1  0
  5  6  1  0
  6  7  1  0
  7  8  1  0
  8  9  2  0
  8 10  1  0
 10 11  1  0
 11 12  1  0
 12 13  2  0
 13 14  1  0
 14 15  2  0
 12 16  1  0
 15 16  1  0
 10 17  1  0
 17 18  1  0
 18 19  1  0
 19 20  1  0
 17 21  1  0
 20 21  1  0
  7 22  1  0
  4 23  1  0
 22 23  1  0
M  END
