piperidine-amides-15096-covalent
     RDKit          3D

 20 21  0  0  0  0  0  0  0  0999 V2000
    7.0760   -3.2710   19.1900 C   0  0  0  0  0  0  0  0  0  0  0  0
    6.3100   -4.0190   20.1930 C   0  0  0  0  0  0  0  0  0  0  0  0
    5.2390   -4.5390   19.8600 O   0  0  0  0  0  0  0  0  0  0  0  0
    6.8180   -4.1730   21.5000 N   0  0  0  0  0  0  0  0  0  0  0  0
    7.6220   -3.1320   22.0730 C   0  0  0  0  0  0  0  0  0  0  0  0
    6.9540   -2.6330   23.3020 C   0  0  0  0  0  0  0  0  0  0  0  0
    6.7250   -3.8720   24.1260 C   0  0  0  0  0  0  0  0  0  0  0  0
    6.1370   -3.4910   25.4430 C   0  0  0  0  0  0  0  0  0  0  0  0
    4.9140   -3.3300   25.4950 O   0  0  0  0  0  0  0  0  0  0  0  0
    7.0380   -3.3370   26.4970 N   0  0  0  0  0  0  0  0  0  0  0  0
    7.4930   -4.4260   27.3000 C   0  0  0  0  0  0  0  0  0  0  0  0
    8.6730   -5.0980   26.9040 C   0  0  0  0  0  0  0  0  0  0  0  0
    9.5210   -4.2040   26.0730 N   0  0  0  0  0  0  0  0  0  0  0  0
    9.4090   -3.1430   25.1650 C   0  0  0  0  0  0  0  0  0  0  0  0
   10.6040   -2.6760   24.6620 C   0  0  0  0  0  0  0  0  0  0  0  0
   11.1960   -1.1830   23.2990 I   0  0  0  0  0  0  0  0  0  0  0  0
   11.5080   -3.6090   25.4080 C   0  0  0  0  0  0  0  0  0  0  0  0
   10.8060   -4.4630   26.1960 N   0  0  0  0  0  0  0  0  0  0  0  0
    5.7890   -4.8470   23.4760 C   0  0  0  0  0  0  0  0  0  0  0  0
    6.3930   -5.3820   22.2270 C   0  0  0  0  0  0  0  0  0  0  0  0
  1  2  1  0
  2  3  2  0
  2  4  1  0
  4  5  1  0
  5  6  1  0
  6  7  1  0
  7  8  1  0
  8  9  2  0
  8 10  1  0
 10 11  1  0
 11 12  1  0
 12 13  1  0
 13 14  1  0
 14 15  2  0
 15 16  1  0
 15 17  1  0
 13 18  1  0
 17 18  2  0
  7 19  1  0
  4 20  1  0
 19 20  1  0
M  END
