piperidine-amides-9996-covalent
     RDKit          3D

 26 27  0  0  0  0  0  0  0  0999 V2000
    7.0820   -3.2800   19.2890 C   0  0  0  0  0  0  0  0  0  0  0  0
    6.3700   -4.0770   20.3000 C   0  0  0  0  0  0  0  0  0  0  0  0
    5.2990   -4.6130   19.9130 O   0  0  0  0  0  0  0  0  0  0  0  0
    6.8900   -4.2630   21.5970 N   0  0  0  0  0  0  0  0  0  0  0  0
    6.6160   -5.4580   22.3670 C   0  0  0  0  0  0  0  0  0  0  0  0
    6.1280   -5.0690   23.7460 C   0  0  0  0  0  0  0  0  0  0  0  0
    6.0430   -3.5770   23.9260 C   0  0  0  0  0  0  0  0  0  0  0  0
    5.5960   -3.2330   25.2990 C   0  0  0  0  0  0  0  0  0  0  0  0
    4.3670   -3.1120   25.4740 O   0  0  0  0  0  0  0  0  0  0  0  0
    6.4420   -3.0310   26.4080 N   0  0  0  0  0  0  0  0  0  0  0  0
    6.1990   -3.7010   27.6700 C   0  0  0  0  0  0  0  0  0  0  0  0
    5.2130   -2.9740   28.5820 C   0  0  0  0  0  0  0  0  0  0  0  0
    3.8770   -3.3180   28.8380 C   0  0  0  0  0  0  0  0  0  0  0  0
    2.9890   -2.6440   29.6860 C   0  0  0  0  0  0  0  0  0  0  0  0
    1.7320   -3.1260   29.8080 N   0  0  0  0  0  0  0  0  0  0  0  0
    1.3100   -3.0040   31.0270 O   0  0  0  0  0  0  0  0  0  0  0  0
    1.2530   -4.1270   29.0430 O   0  0  0  0  0  0  0  0  0  0  0  0
    3.3950   -1.5160   30.3750 C   0  0  0  0  0  0  0  0  0  0  0  0
    4.6850   -1.1290   30.1690 C   0  0  0  0  0  0  0  0  0  0  0  0
    5.6410   -0.1850   30.5080 C   0  0  0  0  0  0  0  0  0  0  0  0
    6.8920   -0.3310   30.0580 F   0  0  0  0  0  0  0  0  0  0  0  0
    5.8850   -0.0360   31.8270 F   0  0  0  0  0  0  0  0  0  0  0  0
    5.2130    1.0430   30.0760 F   0  0  0  0  0  0  0  0  0  0  0  0
    5.7930   -1.7190   29.3000 C   0  0  0  0  0  0  0  0  0  0  0  0
    7.3430   -2.9330   23.6100 C   0  0  0  0  0  0  0  0  0  0  0  0
    7.6810   -3.1540   22.1560 C   0  0  0  0  0  0  0  0  0  0  0  0
  1  2  1  0
  2  3  2  0
  2  4  1  0
  4  5  1  0
  5  6  1  0
  6  7  1  0
  7  8  1  0
  8  9  2  0
  8 10  1  0
 10 11  1  0
 11 12  1  0
 12 13  2  0
 13 14  1  0
 14 15  1  0
 15 16  2  0
 15 17  1  0
 14 18  2  0
 18 19  1  0
 19 20  1  0
 20 21  1  0
 20 22  1  0
 20 23  1  0
 12 24  1  0
 19 24  2  0
  7 25  1  0
  4 26  1  0
 25 26  1  0
M  CHG  2  15   1  17  -1
M  END
