piperidine-amides-25114-covalent
     RDKit          3D

 25 27  0  0  0  0  0  0  0  0999 V2000
    7.0800   -3.3480   19.3200 C   0  0  0  0  0  0  0  0  0  0  0  0
    6.4170   -4.2170   20.3190 C   0  0  0  0  0  0  0  0  0  0  0  0
    5.3750   -4.7720   19.9680 O   0  0  0  0  0  0  0  0  0  0  0  0
    7.0140   -4.4230   21.5690 N   0  0  0  0  0  0  0  0  0  0  0  0
    6.6930   -5.5530   22.3750 C   0  0  0  0  0  0  0  0  0  0  0  0
    5.7720   -5.0940   23.4680 C   0  0  0  0  0  0  0  0  0  0  0  0
    6.3290   -3.8750   24.2300 C   0  0  0  0  0  0  0  0  0  0  0  0
    5.2120   -3.4030   25.0720 C   0  0  0  0  0  0  0  0  0  0  0  0
    4.0590   -3.5750   24.6750 O   0  0  0  0  0  0  0  0  0  0  0  0
    5.3800   -2.7600   26.3010 N   0  0  0  0  0  0  0  0  0  0  0  0
    6.5830   -2.9520   27.0100 C   0  0  0  0  0  0  0  0  0  0  0  0
    6.4430   -4.0850   28.0530 C   0  0  0  0  0  0  0  0  0  0  0  0
    5.5270   -3.9720   29.0420 C   0  0  0  0  0  0  0  0  0  0  0  0
    5.5930   -2.8670   29.8170 C   0  0  0  0  0  0  0  0  0  0  0  0
    6.4270   -1.7460   29.4600 N   0  0  0  0  0  0  0  0  0  0  0  0
    5.2980   -5.2340   29.8450 C   0  0  0  0  0  0  0  0  0  0  0  0
    6.2620   -6.4140   29.5760 C   0  0  0  0  0  0  0  0  0  0  0  0
    5.9920   -7.6640   30.4270 C   0  0  0  0  0  0  0  0  0  0  0  0
    4.8560   -7.6520   31.4230 C   0  0  0  0  0  0  0  0  0  0  0  0
    4.1190   -6.4190   31.4530 C   0  0  0  0  0  0  0  0  0  0  0  0
    4.3270   -5.3510   30.7430 N   0  0  0  0  0  0  0  0  0  0  0  0
    4.5700   -3.9790   28.1100 C   0  0  0  0  0  0  0  0  0  0  0  0
    4.3660   -2.7270   27.3310 C   0  0  0  0  0  0  0  0  0  0  0  0
    6.7930   -2.7680   23.3080 C   0  0  0  0  0  0  0  0  0  0  0  0
    7.6940   -3.3550   22.2620 C   0  0  0  0  0  0  0  0  0  0  0  0
  1  2  1  0
  2  3  2  0
  2  4  1  0
  4  5  1  0
  5  6  1  0
  6  7  1  0
  7  8  1  0
  8  9  2  0
  8 10  1  0
 10 11  1  0
 11 12  1  0
 12 13  1  0
 13 14  1  0
 14 15  3  0
 13 16  1  0
 16 17  2  0
 17 18  1  0
 18 19  2  0
 19 20  1  0
 16 21  1  0
 20 21  2  0
 13 22  1  0
 10 23  1  0
 22 23  1  0
  7 24  1  0
  4 25  1  0
 24 25  1  0
M  END
