piperidine-amides-13886-covalent
     RDKit          3D

 26 27  0  0  0  0  0  0  0  0999 V2000
    7.1200   -3.2820   19.2420 C   0  0  0  0  0  0  0  0  0  0  0  0
    6.3660   -4.0800   20.2440 C   0  0  0  0  0  0  0  0  0  0  0  0
    5.2900   -4.5990   19.9060 O   0  0  0  0  0  0  0  0  0  0  0  0
    6.9150   -4.2770   21.5270 N   0  0  0  0  0  0  0  0  0  0  0  0
    7.6220   -3.2340   22.2160 C   0  0  0  0  0  0  0  0  0  0  0  0
    6.6710   -2.7370   23.3100 C   0  0  0  0  0  0  0  0  0  0  0  0
    6.3960   -3.8670   24.2610 C   0  0  0  0  0  0  0  0  0  0  0  0
    5.7010   -3.3750   25.4780 C   0  0  0  0  0  0  0  0  0  0  0  0
    4.6420   -2.7700   25.2760 O   0  0  0  0  0  0  0  0  0  0  0  0
    6.2160   -3.5970   26.7650 N   0  0  0  0  0  0  0  0  0  0  0  0
    6.0980   -4.7820   27.5580 C   0  0  1  0  0  0  0  0  0  0  0  0
    6.6970   -4.9500   28.7880 C   0  0  0  0  0  0  0  0  0  0  0  0
    4.6390   -5.0890   27.7670 C   0  0  0  0  0  0  0  0  0  0  0  0
    4.1100   -5.3360   29.0140 C   0  0  0  0  0  0  0  0  0  0  0  0
    3.2210   -4.5060   29.6130 N   0  0  0  0  0  0  0  0  0  0  0  0
    2.2610   -5.5050   30.6130 S   0  0  0  0  0  0  0  0  0  0  0  0
    1.2520   -4.7290   31.4390 O   0  0  0  0  0  0  0  0  0  0  0  0
    1.6080   -6.5730   29.7970 O   0  0  0  0  0  0  0  0  0  0  0  0
    3.5110   -6.2050   31.7040 C   0  0  0  0  0  0  0  0  0  0  0  0
    4.5720   -7.1750   31.1870 C   0  0  0  0  0  0  0  0  0  0  0  0
    5.5620   -7.6920   32.1990 C   0  0  0  0  0  0  0  0  0  0  0  0
    5.5440   -7.3360   33.5170 C   0  0  0  0  0  0  0  0  0  0  0  0
    4.5890   -6.4120   34.1880 C   0  0  0  0  0  0  0  0  0  0  0  0
    3.5740   -5.8770   33.1650 C   0  0  0  0  0  0  0  0  0  0  0  0
    5.6790   -4.9320   23.5350 C   0  0  0  0  0  0  0  0  0  0  0  0
    6.4970   -5.3930   22.3150 C   0  0  0  0  0  0  0  0  0  0  0  0
  1  2  1  0
  2  3  2  0
  2  4  1  0
  4  5  1  0
  5  6  1  0
  6  7  1  0
  7  8  1  0
  8  9  2  0
  8 10  1  0
 10 11  1  0
 11 12  1  1
 11 13  1  0
 13 14  1  0
 14 15  1  0
 16 15  1  0
 16 17  2  0
 16 18  2  0
 16 19  1  0
 19 20  2  0
 20 21  1  0
 21 22  2  0
 22 23  1  0
 19 24  1  0
 23 24  2  0
  7 25  1  0
  4 26  1  0
 25 26  1  0
M  END
