piperidine-amides-15301-covalent
     RDKit          3D

 16 16  0  0  0  0  0  0  0  0999 V2000
    7.0570   -3.2980   19.3470 C   0  0  0  0  0  0  0  0  0  0  0  0
    6.3390   -4.1170   20.3410 C   0  0  0  0  0  0  0  0  0  0  0  0
    5.3760   -4.8280   19.9770 O   0  0  0  0  0  0  0  0  0  0  0  0
    6.7390   -4.1410   21.6900 N   0  0  0  0  0  0  0  0  0  0  0  0
    7.6570   -3.1210   22.1870 C   0  0  0  0  0  0  0  0  0  0  0  0
    7.4470   -2.9590   23.6980 C   0  0  0  0  0  0  0  0  0  0  0  0
    6.1100   -3.5920   23.9650 C   0  0  0  0  0  0  0  0  0  0  0  0
    5.5660   -3.2980   25.3130 C   0  0  0  0  0  0  0  0  0  0  0  0
    4.3380   -3.0810   25.3770 O   0  0  0  0  0  0  0  0  0  0  0  0
    6.3440   -3.2490   26.5030 N   0  0  0  0  0  0  0  0  0  0  0  0
    6.6410   -1.9130   26.9560 C   0  0  0  0  0  0  0  0  0  0  0  0
    6.8000   -1.8910   28.4660 C   0  0  0  0  0  0  0  0  0  0  0  0
    5.8480   -4.1720   27.5250 C   0  0  0  0  0  0  0  0  0  0  0  0
    6.6830   -4.8260   28.4020 C   0  0  0  0  0  0  0  0  0  0  0  0
    6.1090   -5.0640   23.7200 C   0  0  0  0  0  0  0  0  0  0  0  0
    6.6110   -5.3690   22.4720 C   0  0  0  0  0  0  0  0  0  0  0  0
  1  2  1  0
  2  3  2  0
  2  4  1  0
  4  5  1  0
  5  6  1  0
  6  7  1  0
  7  8  1  0
  8  9  2  0
  8 10  1  0
 10 11  1  0
 11 12  1  0
 10 13  1  0
 13 14  1  0
  7 15  1  0
  4 16  1  0
 15 16  1  0
M  END
