piperidine-amides-29910-covalent
     RDKit          3D

 27 29  0  0  0  0  0  0  0  0999 V2000
    7.1120   -3.3080   19.2830 C   0  0  0  0  0  0  0  0  0  0  0  0
    6.3590   -4.1300   20.2170 C   0  0  0  0  0  0  0  0  0  0  0  0
    5.2780   -4.6180   19.9000 O   0  0  0  0  0  0  0  0  0  0  0  0
    6.9190   -4.4250   21.4900 N   0  0  0  0  0  0  0  0  0  0  0  0
    7.6340   -3.3860   22.1910 C   0  0  0  0  0  0  0  0  0  0  0  0
    6.7760   -2.8530   23.2880 C   0  0  0  0  0  0  0  0  0  0  0  0
    6.3980   -4.0480   24.1380 C   0  0  0  0  0  0  0  0  0  0  0  0
    5.7210   -3.6070   25.3740 C   0  0  0  0  0  0  0  0  0  0  0  0
    4.6100   -3.0390   25.4120 O   0  0  0  0  0  0  0  0  0  0  0  0
    6.4380   -3.8750   26.5420 N   0  0  0  0  0  0  0  0  0  0  0  0
    6.0080   -3.3170   27.8050 C   0  0  0  0  0  0  0  0  0  0  0  0
    5.3290   -4.4440   28.5090 C   0  0  0  0  0  0  0  0  0  0  0  0
    5.9580   -5.6460   28.3900 C   0  0  0  0  0  0  0  0  0  0  0  0
    7.3350   -5.6690   28.5660 C   0  0  0  0  0  0  0  0  0  0  0  0
    8.2020   -4.9150   27.7940 C   0  0  0  0  0  0  0  0  0  0  0  0
    7.8250   -4.3200   26.5110 C   0  0  2  0  0  0  0  0  0  0  0  0
    8.4960   -3.4630   25.6290 C   0  0  0  0  0  0  0  0  0  0  0  0
    9.8710   -3.3410   25.5260 C   0  0  0  0  0  0  0  0  0  0  0  0
   10.8380   -4.1460   26.0970 C   0  0  0  0  0  0  0  0  0  0  0  0
   12.2350   -3.7780   25.8320 C   0  0  0  0  0  0  0  0  0  0  0  0
   12.6020   -2.7130   25.0510 C   0  0  0  0  0  0  0  0  0  0  0  0
   11.6190   -1.9320   24.4850 C   0  0  0  0  0  0  0  0  0  0  0  0
   11.9460   -0.9530   23.7630 O   0  0  0  0  0  0  0  0  0  0  0  0
   12.8680   -1.0850   22.7210 C   0  0  0  0  0  0  0  0  0  0  0  0
   10.2960   -2.2670   24.7420 C   0  0  0  0  0  0  0  0  0  0  0  0
    5.6510   -5.0720   23.3530 C   0  0  0  0  0  0  0  0  0  0  0  0
    6.4480   -5.5830   22.2060 C   0  0  0  0  0  0  0  0  0  0  0  0
  1  2  1  0
  2  3  2  0
  2  4  1  0
  4  5  1  0
  5  6  1  0
  6  7  1  0
  7  8  1  0
  8  9  2  0
  8 10  1  0
 10 11  1  0
 11 12  1  0
 12 13  1  0
 13 14  1  0
 14 15  1  0
 10 16  1  0
 15 16  1  0
 16 17  1  1
 17 18  1  0
 18 19  2  0
 19 20  1  0
 20 21  2  0
 21 22  1  0
 22 23  1  0
 23 24  1  0
 18 25  1  0
 22 25  2  0
  7 26  1  0
  4 27  1  0
 26 27  1  0
M  END
