piperidine-amides-29879-covalent
     RDKit          3D

 27 29  0  0  0  0  0  0  0  0999 V2000
    7.0580   -3.3410   19.3670 C   0  0  0  0  0  0  0  0  0  0  0  0
    6.3730   -4.2150   20.3130 C   0  0  0  0  0  0  0  0  0  0  0  0
    5.3520   -4.8070   19.9680 O   0  0  0  0  0  0  0  0  0  0  0  0
    6.9090   -4.4450   21.6280 N   0  0  0  0  0  0  0  0  0  0  0  0
    7.6770   -3.4260   22.3010 C   0  0  0  0  0  0  0  0  0  0  0  0
    6.9600   -2.9020   23.5220 C   0  0  0  0  0  0  0  0  0  0  0  0
    6.2880   -4.0460   24.2850 C   0  0  0  0  0  0  0  0  0  0  0  0
    5.3520   -3.4820   25.3170 C   0  0  0  0  0  0  0  0  0  0  0  0
    4.4620   -2.6820   24.9910 O   0  0  0  0  0  0  0  0  0  0  0  0
    5.4570   -3.8260   26.7020 N   0  0  0  0  0  0  0  0  0  0  0  0
    6.5760   -3.3070   27.3550 C   0  0  0  0  0  0  0  0  0  0  0  0
    6.9410   -4.4180   28.2940 C   0  0  0  0  0  0  0  0  0  0  0  0
    5.9760   -4.7130   29.1540 C   0  0  0  0  0  0  0  0  0  0  0  0
    4.6840   -4.2970   28.8450 C   0  0  0  0  0  0  0  0  0  0  0  0
    4.2890   -3.9580   27.5410 C   0  0  2  0  0  0  0  0  0  0  0  0
    3.1380   -4.6940   27.0290 C   0  0  0  0  0  0  0  0  0  0  0  0
    3.2890   -5.9200   26.7110 O   0  0  0  0  0  0  0  0  0  0  0  0
    1.9000   -4.1030   26.8870 O   0  0  0  0  0  0  0  0  0  0  0  0
    0.6730   -4.7280   27.1130 C   0  0  0  0  0  0  0  0  0  0  0  0
   -0.1580   -4.3350   26.0850 C   0  0  0  0  0  0  0  0  0  0  0  0
   -0.1690   -4.9770   24.8430 C   0  0  0  0  0  0  0  0  0  0  0  0
   -1.0430   -4.5830   23.7390 C   0  0  0  0  0  0  0  0  0  0  0  0
   -1.9190   -3.5340   23.8690 C   0  0  0  0  0  0  0  0  0  0  0  0
   -1.9310   -2.8750   25.0870 C   0  0  0  0  0  0  0  0  0  0  0  0
   -1.0290   -3.2910   26.2110 C   0  0  0  0  0  0  0  0  0  0  0  0
    5.5050   -4.9960   23.4400 C   0  0  0  0  0  0  0  0  0  0  0  0
    6.4350   -5.5520   22.3840 C   0  0  0  0  0  0  0  0  0  0  0  0
  1  2  1  0
  2  3  2  0
  2  4  1  0
  4  5  1  0
  5  6  1  0
  6  7  1  0
  7  8  1  0
  8  9  2  0
  8 10  1  0
 10 11  1  0
 11 12  1  0
 12 13  1  0
 13 14  1  0
 10 15  1  0
 14 15  1  0
 15 16  1  6
 16 17  2  0
 16 18  1  0
 18 19  1  0
 19 20  1  0
 20 21  2  0
 21 22  1  0
 22 23  2  0
 23 24  1  0
 20 25  1  0
 24 25  2  0
  7 26  1  0
  4 27  1  0
 26 27  1  0
M  END
