piperidine-amides-15439-covalent
     RDKit          3D

 18 20  0  0  0  0  0  0  0  0999 V2000
    7.0650   -3.3310   19.3650 C   0  0  0  0  0  0  0  0  0  0  0  0
    6.3630   -4.1920   20.3260 C   0  0  0  0  0  0  0  0  0  0  0  0
    5.3570   -4.8400   19.9760 O   0  0  0  0  0  0  0  0  0  0  0  0
    6.8460   -4.3320   21.6320 N   0  0  0  0  0  0  0  0  0  0  0  0
    6.6990   -5.6120   22.3070 C   0  0  0  0  0  0  0  0  0  0  0  0
    6.2790   -5.3460   23.7590 C   0  0  0  0  0  0  0  0  0  0  0  0
    5.9840   -3.8740   23.8370 C   0  0  0  0  0  0  0  0  0  0  0  0
    5.2620   -3.4940   25.0610 C   0  0  0  0  0  0  0  0  0  0  0  0
    4.2060   -2.8530   24.9240 O   0  0  0  0  0  0  0  0  0  0  0  0
    5.7100   -3.8140   26.3490 N   0  0  0  0  0  0  0  0  0  0  0  0
    4.6850   -4.2580   27.2710 C   0  0  0  0  0  0  0  0  0  0  0  0
    5.4700   -3.8480   28.3700 C   0  0  2  0  0  0  0  0  0  0  0  0
    5.5350   -2.7700   29.0260 C   0  0  0  0  0  0  0  0  0  0  0  0
    6.6880   -3.1500   28.5040 C   0  0  1  0  0  0  0  0  0  0  0  0
    6.6370   -4.5970   28.7350 C   0  0  0  0  0  0  0  0  0  0  0  0
    6.4940   -2.7700   27.1410 C   0  0  0  0  0  0  0  0  0  0  0  0
    7.3000   -3.1240   23.7030 C   0  0  0  0  0  0  0  0  0  0  0  0
    7.6700   -3.3100   22.2620 C   0  0  0  0  0  0  0  0  0  0  0  0
  1  2  1  0
  2  3  2  0
  2  4  1  0
  4  5  1  0
  5  6  1  0
  6  7  1  0
  7  8  1  0
  8  9  2  0
  8 10  1  0
 10 11  1  0
 12 11  1  6
 12 13  1  0
 14 13  1  1
 12 15  1  0
 14 15  1  0
 10 16  1  0
 14 16  1  0
  7 17  1  0
  4 18  1  0
 17 18  1  0
M  END
