piperidine-amides-19198-covalent
     RDKit          3D

 22 24  0  0  0  0  0  0  0  0999 V2000
    7.1430   -3.2850   19.3400 C   0  0  0  0  0  0  0  0  0  0  0  0
    6.4040   -4.0550   20.3150 C   0  0  0  0  0  0  0  0  0  0  0  0
    5.3670   -4.6890   19.9370 O   0  0  0  0  0  0  0  0  0  0  0  0
    6.8180   -4.1540   21.6600 N   0  0  0  0  0  0  0  0  0  0  0  0
    7.7450   -3.0990   22.1770 C   0  0  0  0  0  0  0  0  0  0  0  0
    7.6540   -3.2960   23.7410 C   0  0  0  0  0  0  0  0  0  0  0  0
    6.2240   -3.7010   23.9730 C   0  0  0  0  0  0  0  0  0  0  0  0
    5.6110   -3.5220   25.4320 C   0  0  0  0  0  0  0  0  0  0  0  0
    4.5320   -4.0980   25.4590 O   0  0  0  0  0  0  0  0  0  0  0  0
    6.3280   -2.8270   26.2330 N   0  0  0  0  0  0  0  0  0  0  0  0
    6.5580   -1.8480   27.1630 C   0  0  0  0  0  0  0  0  0  0  0  0
    7.1790   -1.6420   28.3480 C   0  0  0  0  0  0  0  0  0  0  0  0
    7.1680   -0.4290   29.0510 C   0  0  0  0  0  0  0  0  0  0  0  0
    6.5120    0.8420   28.6670 C   0  0  0  0  0  0  0  0  0  0  0  0
    5.7680    0.7370   27.3100 C   0  0  0  0  0  0  0  0  0  0  0  0
    5.8800   -0.5480   26.7500 C   0  0  0  0  0  0  0  0  0  0  0  0
    7.6330   -3.3670   26.5390 C   0  0  0  0  0  0  0  0  0  0  0  0
    7.5540   -4.0570   27.8630 C   0  0  0  0  0  0  0  0  0  0  0  0
    7.9450   -5.1290   27.3190 O   0  0  0  0  0  0  0  0  0  0  0  0
    8.0890   -4.6990   25.9620 C   0  0  0  0  0  0  0  0  0  0  0  0
    5.9640   -5.1340   23.4760 C   0  0  0  0  0  0  0  0  0  0  0  0
    6.7100   -5.4110   22.3700 C   0  0  0  0  0  0  0  0  0  0  0  0
  1  2  1  0
  2  3  2  0
  2  4  1  0
  4  5  1  0
  5  6  1  0
  6  7  1  0
  7  8  1  0
  8  9  2  0
  8 10  1  0
 10 11  1  0
 11 12  2  0
 12 13  1  0
 13 14  2  0
 14 15  1  0
 11 16  1  0
 15 16  2  0
 10 17  1  0
 17 18  1  0
 18 19  1  0
 17 20  1  0
 19 20  1  0
  7 21  1  0
  4 22  1  0
 21 22  1  0
M  END
