piperidine-amides-29913-covalent
     RDKit          3D

 27 29  0  0  0  0  0  0  0  0999 V2000
    7.1070   -3.3080   19.2670 C   0  0  0  0  0  0  0  0  0  0  0  0
    6.3550   -4.1330   20.1950 C   0  0  0  0  0  0  0  0  0  0  0  0
    5.2580   -4.5870   19.8900 O   0  0  0  0  0  0  0  0  0  0  0  0
    6.9440   -4.4760   21.4430 N   0  0  0  0  0  0  0  0  0  0  0  0
    7.6650   -3.4610   22.1670 C   0  0  0  0  0  0  0  0  0  0  0  0
    6.7620   -2.8860   23.2080 C   0  0  0  0  0  0  0  0  0  0  0  0
    6.3100   -4.0630   24.0520 C   0  0  0  0  0  0  0  0  0  0  0  0
    5.5650   -3.6020   25.2410 C   0  0  0  0  0  0  0  0  0  0  0  0
    4.4580   -3.0310   25.2210 O   0  0  0  0  0  0  0  0  0  0  0  0
    6.2210   -3.8690   26.4320 N   0  0  0  0  0  0  0  0  0  0  0  0
    5.8040   -3.2030   27.6420 C   0  0  0  0  0  0  0  0  0  0  0  0
    5.0710   -4.2710   28.3830 C   0  0  0  0  0  0  0  0  0  0  0  0
    5.7890   -5.4130   28.5090 C   0  0  0  0  0  0  0  0  0  0  0  0
    7.1460   -5.2230   28.6800 C   0  0  0  0  0  0  0  0  0  0  0  0
    7.9970   -4.9320   27.6270 C   0  0  0  0  0  0  0  0  0  0  0  0
    7.6200   -4.2280   26.4040 C   0  0  2  0  0  0  0  0  0  0  0  0
    8.2380   -3.2520   25.6160 C   0  0  0  0  0  0  0  0  0  0  0  0
    9.6030   -3.1000   25.4370 C   0  0  0  0  0  0  0  0  0  0  0  0
   10.0640   -1.9850   24.7050 C   0  0  0  0  0  0  0  0  0  0  0  0
   11.5030   -1.7740   24.4870 C   0  0  0  0  0  0  0  0  0  0  0  0
   12.4400   -2.6310   24.9790 C   0  0  0  0  0  0  0  0  0  0  0  0
   11.9690   -3.7020   25.6860 C   0  0  0  0  0  0  0  0  0  0  0  0
   10.5220   -3.9680   25.9260 C   0  0  0  0  0  0  0  0  0  0  0  0
   10.0840   -5.0660   26.6260 O   0  0  0  0  0  0  0  0  0  0  0  0
    9.5820   -5.0930   27.9460 C   0  0  0  0  0  0  0  0  0  0  0  0
    5.6000   -5.0940   23.2510 C   0  0  0  0  0  0  0  0  0  0  0  0
    6.4410   -5.6270   22.1490 C   0  0  0  0  0  0  0  0  0  0  0  0
  1  2  1  0
  2  3  2  0
  2  4  1  0
  4  5  1  0
  5  6  1  0
  6  7  1  0
  7  8  1  0
  8  9  2  0
  8 10  1  0
 10 11  1  0
 11 12  1  0
 12 13  1  0
 13 14  1  0
 14 15  1  0
 10 16  1  0
 15 16  1  0
 16 17  1  1
 17 18  1  0
 18 19  2  0
 19 20  1  0
 20 21  2  0
 21 22  1  0
 18 23  1  0
 22 23  2  0
 23 24  1  0
 24 25  1  0
  7 26  1  0
  4 27  1  0
 26 27  1  0
M  END
