piperidine-amides-34-covalent
     RDKit          3D

 22 24  0  0  0  0  0  0  0  0999 V2000
    7.1260   -3.3540   19.4630 C   0  0  0  0  0  0  0  0  0  0  0  0
    6.4440   -4.2030   20.4040 C   0  0  0  0  0  0  0  0  0  0  0  0
    5.4410   -4.8760   19.9980 O   0  0  0  0  0  0  0  0  0  0  0  0
    6.8950   -4.3330   21.7360 N   0  0  0  0  0  0  0  0  0  0  0  0
    7.6230   -3.2130   22.3580 C   0  0  0  0  0  0  0  0  0  0  0  0
    6.4930   -2.7020   23.3280 C   0  0  0  0  0  0  0  0  0  0  0  0
    6.2100   -3.8540   24.2730 C   0  0  0  0  0  0  0  0  0  0  0  0
    5.0220   -3.5650   25.3020 C   0  0  0  0  0  0  0  0  0  0  0  0
    4.0040   -4.0800   24.8820 O   0  0  0  0  0  0  0  0  0  0  0  0
    5.3760   -2.8690   26.3070 N   0  0  0  0  0  0  0  0  0  0  0  0
    5.5840   -2.0520   27.3670 C   0  0  1  0  0  0  0  0  0  0  0  0
    6.5950   -1.7810   28.1950 C   0  0  1  0  0  0  0  0  0  0  0  0
    7.2180   -0.7530   27.5710 C   0  0  0  0  0  0  0  0  0  0  0  0
    6.5100   -0.2910   26.3280 C   0  0  0  0  0  0  0  0  0  0  0  0
    5.2040   -0.6460   26.9830 C   0  0  2  0  0  0  0  0  0  0  0  0
    5.4350    0.4320   27.8450 C   0  0  0  0  0  0  0  0  0  0  0  0
    5.1750    0.2010   29.2030 C   0  0  2  0  0  0  0  0  0  0  0  0
    5.4700    1.6480   28.7670 C   0  0  0  0  0  0  0  0  0  0  0  0
    4.8690    2.4170   29.5440 O   0  0  0  0  0  0  0  0  0  0  0  0
    6.3700   -0.7760   29.3050 C   0  0  0  0  0  0  0  0  0  0  0  0
    5.8220   -5.1620   23.5340 C   0  0  0  0  0  0  0  0  0  0  0  0
    6.6920   -5.5140   22.5350 C   0  0  0  0  0  0  0  0  0  0  0  0
  1  2  1  0
  2  3  2  0
  2  4  1  0
  4  5  1  0
  5  6  1  0
  6  7  1  0
  7  8  1  0
  8  9  2  0
  8 10  1  0
 11 10  1  6
 11 12  1  0
 12 13  1  6
 13 14  1  0
 11 15  1  0
 15 14  1  6
 15 16  1  0
 16 17  1  0
 17 18  1  1
 18 19  1  0
 12 20  1  0
 17 20  1  0
  7 21  1  0
  4 22  1  0
 21 22  1  0
M  END
