piperidine-amides-25826-covalent
     RDKit          3D

 25 26  0  0  0  0  0  0  0  0999 V2000
    7.1300   -3.2780   19.2030 C   0  0  0  0  0  0  0  0  0  0  0  0
    6.4170   -4.0600   20.2440 C   0  0  0  0  0  0  0  0  0  0  0  0
    5.3520   -4.5820   19.9080 O   0  0  0  0  0  0  0  0  0  0  0  0
    6.9860   -4.2250   21.5110 N   0  0  0  0  0  0  0  0  0  0  0  0
    7.7610   -3.1660   22.1320 C   0  0  0  0  0  0  0  0  0  0  0  0
    7.3240   -3.0110   23.5600 C   0  0  0  0  0  0  0  0  0  0  0  0
    5.9600   -3.6720   23.6700 C   0  0  0  0  0  0  0  0  0  0  0  0
    5.2550   -3.2690   24.8980 C   0  0  0  0  0  0  0  0  0  0  0  0
    4.1080   -2.8310   24.7760 O   0  0  0  0  0  0  0  0  0  0  0  0
    5.7590   -3.3320   26.2000 N   0  0  0  0  0  0  0  0  0  0  0  0
    5.3540   -2.0900   26.8590 C   0  0  0  0  0  0  0  0  0  0  0  0
    4.8740   -2.3030   28.2720 C   0  0  0  0  0  0  0  0  0  0  0  0
    5.4380   -1.4540   29.1960 C   0  0  0  0  0  0  0  0  0  0  0  0
    5.1580   -1.4530   30.4760 C   0  0  0  0  0  0  0  0  0  0  0  0
    4.2750   -2.3400   30.8710 C   0  0  0  0  0  0  0  0  0  0  0  0
    3.5730   -3.3330   30.0080 C   0  0  0  0  0  0  0  0  0  0  0  0
    3.8420   -3.3960   28.5050 C   0  0  0  0  0  0  0  0  0  0  0  0
    5.4340   -4.6050   26.8350 C   0  0  1  0  0  0  0  0  0  0  0  0
    5.4660   -5.7280   25.8910 C   0  0  0  0  0  0  0  0  0  0  0  0
    6.0520   -5.3450   27.9920 C   0  0  0  0  0  0  0  0  0  0  0  0
    7.4350   -5.7270   27.5070 C   0  0  0  0  0  0  0  0  0  0  0  0
    6.1630   -4.6650   29.3230 C   0  0  0  0  0  0  0  0  0  0  0  0
    5.4170   -6.6740   28.4050 C   0  0  0  0  0  0  0  0  0  0  0  0
    6.1570   -5.1600   23.5540 C   0  0  0  0  0  0  0  0  0  0  0  0
    6.7060   -5.4570   22.1910 C   0  0  0  0  0  0  0  0  0  0  0  0
  1  2  1  0
  2  3  2  0
  2  4  1  0
  4  5  1  0
  5  6  1  0
  6  7  1  0
  7  8  1  0
  8  9  2  0
  8 10  1  0
 10 11  1  0
 11 12  1  0
 12 13  2  0
 13 14  1  0
 14 15  2  0
 15 16  1  0
 12 17  1  0
 16 17  2  0
 10 18  1  0
 18 19  1  6
 18 20  1  0
 20 21  1  0
 20 22  1  0
 20 23  1  0
  7 24  1  0
  4 25  1  0
 24 25  1  0
M  END
