piperidine-amides-12179-covalent
     RDKit          3D

 25 27  0  0  0  0  0  0  0  0999 V2000
    7.1220   -3.3430   19.3240 C   0  0  0  0  0  0  0  0  0  0  0  0
    6.3660   -4.1310   20.2830 C   0  0  0  0  0  0  0  0  0  0  0  0
    5.3270   -4.6970   19.9410 O   0  0  0  0  0  0  0  0  0  0  0  0
    6.8750   -4.2950   21.6150 N   0  0  0  0  0  0  0  0  0  0  0  0
    6.5150   -5.4510   22.3830 C   0  0  0  0  0  0  0  0  0  0  0  0
    5.8380   -5.0180   23.6540 C   0  0  0  0  0  0  0  0  0  0  0  0
    6.5850   -3.8150   24.2200 C   0  0  0  0  0  0  0  0  0  0  0  0
    5.7910   -3.2720   25.3550 C   0  0  0  0  0  0  0  0  0  0  0  0
    4.5680   -3.0480   25.2630 O   0  0  0  0  0  0  0  0  0  0  0  0
    6.4470   -3.0110   26.5780 N   0  0  0  0  0  0  0  0  0  0  0  0
    6.3870   -1.6770   27.1300 C   0  0  0  0  0  0  0  0  0  0  0  0
    6.9980   -1.6260   28.4960 C   0  0  0  0  0  0  0  0  0  0  0  0
    7.0410   -0.4490   29.2050 C   0  0  0  0  0  0  0  0  0  0  0  0
    6.5040    0.7320   28.6520 C   0  0  0  0  0  0  0  0  0  0  0  0
    5.9220    0.7520   27.3890 C   0  0  0  0  0  0  0  0  0  0  0  0
    5.3810    1.9540   26.8410 N   0  0  0  0  0  0  0  0  0  0  0  0
    3.9520    2.0470   26.5390 C   0  0  0  0  0  0  0  0  0  0  0  0
    3.5550    3.3910   26.7020 C   0  0  0  0  0  0  0  0  0  0  0  0
    4.5150    4.3420   26.9510 C   0  0  0  0  0  0  0  0  0  0  0  0
    6.0060    3.5150   27.0590 S   0  0  0  0  0  0  0  0  0  0  0  0
    6.9470    3.8480   25.9520 O   0  0  0  0  0  0  0  0  0  0  0  0
    6.6420    3.7280   28.3870 O   0  0  0  0  0  0  0  0  0  0  0  0
    5.8860   -0.5300   26.6280 C   0  0  0  0  0  0  0  0  0  0  0  0
    6.9380   -2.7670   23.2860 C   0  0  0  0  0  0  0  0  0  0  0  0
    7.6860   -3.2880   22.2530 C   0  0  0  0  0  0  0  0  0  0  0  0
  1  2  1  0
  2  3  2  0
  2  4  1  0
  4  5  1  0
  5  6  1  0
  6  7  1  0
  7  8  1  0
  8  9  2  0
  8 10  1  0
 10 11  1  0
 11 12  2  0
 12 13  1  0
 13 14  2  0
 14 15  1  0
 15 16  1  0
 16 17  1  0
 17 18  1  0
 18 19  1  0
 20 16  1  0
 19 20  1  0
 20 21  2  0
 20 22  2  0
 11 23  1  0
 15 23  2  0
  7 24  1  0
  4 25  1  0
 24 25  1  0
M  END
