piperidine-amides-12894-covalent
     RDKit          3D

 21 22  0  0  0  0  0  0  0  0999 V2000
    7.0850   -3.3200   19.2330 C   0  0  0  0  0  0  0  0  0  0  0  0
    6.3810   -4.1110   20.2610 C   0  0  0  0  0  0  0  0  0  0  0  0
    5.3060   -4.6340   19.9170 O   0  0  0  0  0  0  0  0  0  0  0  0
    6.9440   -4.3060   21.5300 N   0  0  0  0  0  0  0  0  0  0  0  0
    6.5240   -5.4000   22.3310 C   0  0  0  0  0  0  0  0  0  0  0  0
    6.0370   -4.9960   23.6550 C   0  0  0  0  0  0  0  0  0  0  0  0
    6.5920   -3.7260   24.1790 C   0  0  0  0  0  0  0  0  0  0  0  0
    5.7480   -3.2320   25.2880 C   0  0  0  0  0  0  0  0  0  0  0  0
    4.5390   -3.0340   25.0660 O   0  0  0  0  0  0  0  0  0  0  0  0
    6.2860   -2.9990   26.5570 N   0  0  0  0  0  0  0  0  0  0  0  0
    6.3220   -1.6430   27.1540 C   0  0  0  0  0  0  0  0  0  0  0  0
    5.9020   -0.4210   26.4490 C   0  0  0  0  0  0  0  0  0  0  0  0
    5.9480    0.8880   27.0890 C   0  0  0  0  0  0  0  0  0  0  0  0
    5.6050    2.1250   26.6030 C   0  0  0  0  0  0  0  0  0  0  0  0
    6.4680    0.8940   28.5480 C   0  0  0  0  0  0  0  0  0  0  0  0
    6.5360    2.0830   29.2030 F   0  0  0  0  0  0  0  0  0  0  0  0
    6.8560   -0.2580   29.1800 C   0  0  0  0  0  0  0  0  0  0  0  0
    6.7810   -1.4430   28.5150 C   0  0  0  0  0  0  0  0  0  0  0  0
    7.1570   -2.5490   29.1750 F   0  0  0  0  0  0  0  0  0  0  0  0
    6.8780   -2.6790   23.1780 C   0  0  0  0  0  0  0  0  0  0  0  0
    7.6560   -3.2330   22.1740 C   0  0  0  0  0  0  0  0  0  0  0  0
  1  2  1  0
  2  3  2  0
  2  4  1  0
  4  5  1  0
  5  6  1  0
  6  7  1  0
  7  8  1  0
  8  9  2  0
  8 10  1  0
 10 11  1  0
 11 12  2  0
 12 13  1  0
 13 14  1  0
 13 15  2  0
 15 16  1  0
 15 17  1  0
 11 18  1  0
 17 18  2  0
 18 19  1  0
  7 20  1  0
  4 21  1  0
 20 21  1  0
M  END
