piperidine-amides-8092-covalent
     RDKit          3D

 26 28  0  0  0  0  0  0  0  0999 V2000
    7.0410   -3.2970   19.2760 C   0  0  0  0  0  0  0  0  0  0  0  0
    6.3640   -4.1380   20.2610 C   0  0  0  0  0  0  0  0  0  0  0  0
    5.3040   -4.6860   19.9280 O   0  0  0  0  0  0  0  0  0  0  0  0
    6.9330   -4.3620   21.5390 N   0  0  0  0  0  0  0  0  0  0  0  0
    6.4090   -5.4300   22.3240 C   0  0  0  0  0  0  0  0  0  0  0  0
    6.4360   -4.9900   23.7570 C   0  0  0  0  0  0  0  0  0  0  0  0
    5.8430   -3.5950   23.8180 C   0  0  0  0  0  0  0  0  0  0  0  0
    5.5540   -3.1900   25.2290 C   0  0  0  0  0  0  0  0  0  0  0  0
    4.3770   -3.2100   25.5800 O   0  0  0  0  0  0  0  0  0  0  0  0
    6.6300   -2.8250   26.0280 N   0  0  0  0  0  0  0  0  0  0  0  0
    7.6570   -3.7520   26.3280 C   0  0  0  0  0  0  0  0  0  0  0  0
    8.9020   -3.4630   25.7530 C   0  0  0  0  0  0  0  0  0  0  0  0
    9.0910   -2.5900   24.7060 C   0  0  0  0  0  0  0  0  0  0  0  0
   10.3630   -2.3770   24.2140 C   0  0  0  0  0  0  0  0  0  0  0  0
   11.5060   -3.0030   24.7270 N   0  0  0  0  0  0  0  0  0  0  0  0
   11.2540   -3.9140   25.8350 C   0  0  0  0  0  0  0  0  0  0  0  0
   12.1410   -4.6470   26.5400 O   0  0  0  0  0  0  0  0  0  0  0  0
   13.4940   -4.7090   26.2890 C   0  0  0  0  0  0  0  0  0  0  0  0
   14.2600   -6.0540   26.1510 C   0  0  0  0  0  0  0  0  0  0  0  0
   15.1650   -7.4850   27.1250 C   0  0  0  0  0  0  0  0  0  0  0  0
   15.7360   -6.2940   27.7630 C   0  0  0  0  0  0  0  0  0  0  0  0
   14.9440   -5.4620   26.9130 C   0  0  0  0  0  0  0  0  0  0  0  0
   14.2010   -4.4430   27.0940 C   0  0  0  0  0  0  0  0  0  0  0  0
    9.9570   -4.0920   26.2810 C   0  0  0  0  0  0  0  0  0  0  0  0
    6.7690   -2.5720   23.1350 C   0  0  0  0  0  0  0  0  0  0  0  0
    7.6820   -3.3570   22.2180 C   0  0  0  0  0  0  0  0  0  0  0  0
  1  2  1  0
  2  3  2  0
  2  4  1  0
  4  5  1  0
  5  6  1  0
  6  7  1  0
  7  8  1  0
  8  9  2  0
  8 10  1  0
 10 11  1  0
 11 12  1  0
 12 13  2  0
 13 14  1  0
 14 15  2  0
 15 16  1  0
 16 17  1  0
 17 18  1  0
 18 19  1  0
 19 20  1  0
 20 21  1  0
 21 22  1  0
 18 23  1  0
 22 23  1  0
 12 24  1  0
 16 24  2  0
  7 25  1  0
  4 26  1  0
 25 26  1  0
M  END
