piperidine-amides-19299-covalent
     RDKit          3D

 22 23  0  0  0  0  0  0  0  0999 V2000
    7.0230   -3.4090   19.3640 C   0  0  0  0  0  0  0  0  0  0  0  0
    6.3910   -4.2050   20.3970 C   0  0  0  0  0  0  0  0  0  0  0  0
    5.4240   -4.9370   20.0120 O   0  0  0  0  0  0  0  0  0  0  0  0
    6.8010   -4.2520   21.7590 N   0  0  0  0  0  0  0  0  0  0  0  0
    6.4510   -5.4710   22.5260 C   0  0  0  0  0  0  0  0  0  0  0  0
    6.6890   -4.9400   23.9980 C   0  0  0  0  0  0  0  0  0  0  0  0
    6.1710   -3.5210   23.9770 C   0  0  0  0  0  0  0  0  0  0  0  0
    5.4510   -3.0120   25.3120 C   0  0  0  0  0  0  0  0  0  0  0  0
    4.3930   -2.4810   25.0170 O   0  0  0  0  0  0  0  0  0  0  0  0
    6.1290   -3.2880   26.3540 N   0  0  0  0  0  0  0  0  0  0  0  0
    6.7030   -4.1200   27.2730 C   0  0  0  0  0  0  0  0  0  0  0  0
    6.2870   -2.0280   27.0440 C   0  0  0  0  0  0  0  0  0  0  0  0
    6.9030   -1.9430   28.3090 C   0  0  0  0  0  0  0  0  0  0  0  0
    7.1250   -0.7140   29.1410 C   0  0  0  0  0  0  0  0  0  0  0  0
    6.5830    0.6110   28.4760 C   0  0  0  0  0  0  0  0  0  0  0  0
    5.9940    0.3940   27.2140 C   0  0  0  0  0  0  0  0  0  0  0  0
    5.8990   -0.8480   26.6280 C   0  0  0  0  0  0  0  0  0  0  0  0
    5.2250   -0.0160   25.5300 C   0  0  0  0  0  0  0  0  0  0  0  0
    5.0750    0.5970   24.5510 N   0  0  0  0  0  0  0  0  0  0  0  0
    4.1250    0.0060   26.1220 O   0  0  0  0  0  0  0  0  0  0  0  0
    7.0520   -2.5740   23.2280 C   0  0  0  0  0  0  0  0  0  0  0  0
    7.7550   -3.3280   22.3270 C   0  0  0  0  0  0  0  0  0  0  0  0
  1  2  1  0
  2  3  2  0
  2  4  1  0
  4  5  1  0
  5  6  1  0
  6  7  1  0
  7  8  1  0
  8  9  2  0
  8 10  1  0
 10 11  1  0
 10 12  1  0
 12 13  2  0
 13 14  1  0
 14 15  2  0
 15 16  1  0
 12 17  1  0
 16 17  2  0
 17 18  1  0
 18 19  1  0
 18 20  2  0
  7 21  1  0
  4 22  1  0
 21 22  1  0
M  END
