piperidine-amides-26134-covalent
     RDKit          3D

 25 27  0  0  0  0  0  0  0  0999 V2000
    7.0570   -3.3330   19.3400 C   0  0  0  0  0  0  0  0  0  0  0  0
    6.3610   -4.1680   20.3190 C   0  0  0  0  0  0  0  0  0  0  0  0
    5.3420   -4.7820   19.9660 O   0  0  0  0  0  0  0  0  0  0  0  0
    6.8430   -4.3440   21.6280 N   0  0  0  0  0  0  0  0  0  0  0  0
    6.5530   -5.5410   22.3750 C   0  0  0  0  0  0  0  0  0  0  0  0
    5.6490   -5.0880   23.4940 C   0  0  0  0  0  0  0  0  0  0  0  0
    6.2910   -4.0140   24.3200 C   0  0  0  0  0  0  0  0  0  0  0  0
    5.2960   -3.2710   25.1500 C   0  0  0  0  0  0  0  0  0  0  0  0
    4.3960   -2.6020   24.5810 O   0  0  0  0  0  0  0  0  0  0  0  0
    5.2630   -3.2530   26.5680 N   0  0  0  0  0  0  0  0  0  0  0  0
    6.4840   -3.1730   27.3090 C   0  0  0  0  0  0  0  0  0  0  0  0
    6.4940   -4.3110   28.2990 C   0  0  0  0  0  0  0  0  0  0  0  0
    5.1850   -4.3560   28.9520 C   0  0  0  0  0  0  0  0  0  0  0  0
    4.7840   -3.0570   29.1650 F   0  0  0  0  0  0  0  0  0  0  0  0
    4.7740   -5.1380   30.1650 C   0  0  0  0  0  0  0  0  0  0  0  0
    3.4940   -4.6350   30.8460 C   0  0  0  0  0  0  0  0  0  0  0  0
    3.1000   -5.3840   32.0370 C   0  0  0  0  0  0  0  0  0  0  0  0
    3.8260   -6.4150   32.4690 C   0  0  0  0  0  0  0  0  0  0  0  0
    4.9770   -6.8830   31.8720 C   0  0  0  0  0  0  0  0  0  0  0  0
    5.7180   -8.0460   32.4620 C   0  0  0  0  0  0  0  0  0  0  0  0
    5.6240   -6.3280   30.6260 C   0  0  0  0  0  0  0  0  0  0  0  0
    4.5320   -4.8290   27.7350 C   0  0  0  0  0  0  0  0  0  0  0  0
    4.1270   -3.8420   27.1900 C   0  0  0  0  0  0  0  0  0  0  0  0
    7.1210   -3.0210   23.5920 C   0  0  0  0  0  0  0  0  0  0  0  0
    7.5680   -3.3220   22.3190 C   0  0  0  0  0  0  0  0  0  0  0  0
  1  2  1  0
  2  3  2  0
  2  4  1  0
  4  5  1  0
  5  6  1  0
  6  7  1  0
  7  8  1  0
  8  9  2  0
  8 10  1  0
 10 11  1  0
 11 12  1  0
 12 13  1  0
 13 14  1  0
 13 15  1  0
 15 16  2  0
 16 17  1  0
 17 18  2  0
 18 19  1  0
 19 20  1  0
 15 21  1  0
 19 21  2  0
 13 22  1  0
 10 23  1  0
 22 23  1  0
  7 24  1  0
  4 25  1  0
 24 25  1  0
M  END
