piperidine-amides-13707-covalent
     RDKit          3D

 27 29  0  0  0  0  0  0  0  0999 V2000
    7.1590   -3.2590   19.2150 C   0  0  0  0  0  0  0  0  0  0  0  0
    6.3010   -3.9690   20.2080 C   0  0  0  0  0  0  0  0  0  0  0  0
    5.2260   -4.4690   19.8430 O   0  0  0  0  0  0  0  0  0  0  0  0
    6.7470   -4.1040   21.5330 N   0  0  0  0  0  0  0  0  0  0  0  0
    7.5850   -3.0910   22.1430 C   0  0  0  0  0  0  0  0  0  0  0  0
    6.9030   -2.5690   23.4040 C   0  0  0  0  0  0  0  0  0  0  0  0
    6.1000   -3.6690   24.0160 C   0  0  0  0  0  0  0  0  0  0  0  0
    5.9180   -3.4560   25.4600 C   0  0  0  0  0  0  0  0  0  0  0  0
    4.7720   -3.1660   25.8320 O   0  0  0  0  0  0  0  0  0  0  0  0
    7.0230   -3.5860   26.3210 N   0  0  0  0  0  0  0  0  0  0  0  0
    7.1630   -3.0750   27.6320 C   0  0  0  0  0  0  0  0  0  0  0  0
    7.1740   -1.7250   27.9280 C   0  0  2  0  0  0  0  0  0  0  0  0
    8.1750   -1.2390   28.7860 C   0  0  0  0  0  0  0  0  0  0  0  0
    7.5820   -0.5060   29.7510 C   0  0  0  0  0  0  0  0  0  0  0  0
    8.3150    0.1360   30.8710 C   0  0  0  0  0  0  0  0  0  0  0  0
    7.9020    0.1710   32.3840 C   0  0  0  0  0  0  0  0  0  0  0  0
    8.9040    0.9090   33.3150 C   0  0  0  0  0  0  0  0  0  0  0  0
   10.0680    1.5070   32.9040 C   0  0  0  0  0  0  0  0  0  0  0  0
   10.8260    2.1050   33.8840 O   0  0  0  0  0  0  0  0  0  0  0  0
   11.6360    1.2950   34.6990 C   0  0  0  0  0  0  0  0  0  0  0  0
   10.3160    1.4230   31.5660 C   0  0  0  0  0  0  0  0  0  0  0  0
   11.1970    1.7730   30.5980 C   0  0  0  0  0  0  0  0  0  0  0  0
    9.5610    0.7960   30.5050 C   0  0  0  0  0  0  0  0  0  0  0  0
    6.2670   -0.4510   29.5640 N   0  0  0  0  0  0  0  0  0  0  0  0
    5.9640   -1.1710   28.4350 O   0  0  0  0  0  0  0  0  0  0  0  0
    6.5890   -5.0520   23.7400 C   0  0  0  0  0  0  0  0  0  0  0  0
    6.5100   -5.3400   22.2470 C   0  0  0  0  0  0  0  0  0  0  0  0
  1  2  1  0
  2  3  2  0
  2  4  1  0
  4  5  1  0
  5  6  1  0
  6  7  1  0
  7  8  1  0
  8  9  2  0
  8 10  1  0
 10 11  1  0
 12 11  1  1
 12 13  1  0
 13 14  1  0
 14 15  1  0
 15 16  2  0
 16 17  1  0
 17 18  2  0
 18 19  1  0
 19 20  1  0
 18 21  1  0
 21 22  1  0
 15 23  1  0
 21 23  2  0
 14 24  2  0
 12 25  1  0
 24 25  1  0
  7 26  1  0
  4 27  1  0
 26 27  1  0
M  END
