piperidine-amides-34228-covalent
     RDKit          3D

 30 32  0  0  0  0  0  0  0  0999 V2000
    7.0240   -3.2980   19.3630 C   0  0  0  0  0  0  0  0  0  0  0  0
    6.3640   -4.1920   20.3250 C   0  0  0  0  0  0  0  0  0  0  0  0
    5.3620   -4.8520   19.9760 O   0  0  0  0  0  0  0  0  0  0  0  0
    6.8580   -4.3660   21.6240 N   0  0  0  0  0  0  0  0  0  0  0  0
    6.5310   -5.5850   22.3270 C   0  0  0  0  0  0  0  0  0  0  0  0
    5.9610   -5.2060   23.7080 C   0  0  0  0  0  0  0  0  0  0  0  0
    5.9110   -3.6880   23.7980 C   0  0  0  0  0  0  0  0  0  0  0  0
    5.3710   -3.2310   25.1130 C   0  0  0  0  0  0  0  0  0  0  0  0
    4.2750   -2.6400   25.1150 O   0  0  0  0  0  0  0  0  0  0  0  0
    6.0630   -3.4620   26.3190 N   0  0  0  0  0  0  0  0  0  0  0  0
    5.4090   -3.3850   27.5920 C   0  0  0  0  0  0  0  0  0  0  0  0
    5.9780   -4.5520   28.3940 C   0  0  1  0  0  0  0  0  0  0  0  0
    5.2920   -5.7310   28.5090 C   0  0  0  0  0  0  0  0  0  0  0  0
    4.1310   -5.7260   29.0150 O   0  0  0  0  0  0  0  0  0  0  0  0
    7.3010   -4.8650   27.6850 C   0  0  0  0  0  0  0  0  0  0  0  0
    8.1740   -3.9320   27.8760 C   0  0  0  0  0  0  0  0  0  0  0  0
    9.4430   -4.2680   27.4950 C   0  0  0  0  0  0  0  0  0  0  0  0
    9.8290   -5.1350   26.5950 N   0  0  0  0  0  0  0  0  0  0  0  0
   10.1310   -4.3730   25.5030 C   0  0  0  0  0  0  0  0  0  0  0  0
    9.6030   -4.5650   24.2780 O   0  0  0  0  0  0  0  0  0  0  0  0
   11.0120   -3.2580   25.5910 O   0  0  0  0  0  0  0  0  0  0  0  0
   12.4090   -3.1630   25.2360 C   0  0  0  0  0  0  0  0  0  0  0  0
   12.8670   -2.7490   23.8650 C   0  0  0  0  0  0  0  0  0  0  0  0
   12.7960   -1.7470   24.8380 C   0  0  0  0  0  0  0  0  0  0  0  0
   13.4600   -3.7260   26.0660 C   0  0  0  0  0  0  0  0  0  0  0  0
    8.9550   -6.2160   26.5130 C   0  0  0  0  0  0  0  0  0  0  0  0
    7.8370   -6.1700   27.5480 C   0  0  0  0  0  0  0  0  0  0  0  0
    6.9700   -4.5070   26.2950 C   0  0  0  0  0  0  0  0  0  0  0  0
    7.1870   -2.9750   23.4740 C   0  0  0  0  0  0  0  0  0  0  0  0
    7.6560   -3.3200   22.2320 C   0  0  0  0  0  0  0  0  0  0  0  0
  1  2  1  0
  2  3  2  0
  2  4  1  0
  4  5  1  0
  5  6  1  0
  6  7  1  0
  7  8  1  0
  8  9  2  0
  8 10  1  0
 10 11  1  0
 11 12  1  0
 12 13  1  6
 13 14  1  0
 12 15  1  0
 15 16  1  0
 16 17  1  0
 17 18  1  0
 18 19  1  0
 19 20  2  0
 19 21  1  0
 22 21  1  0
 22 23  1  0
 22 24  1  0
 22 25  1  0
 18 26  1  0
 15 27  1  0
 26 27  1  0
 10 28  1  0
 15 28  1  0
  7 29  1  0
  4 30  1  0
 29 30  1  0
M  END
