piperidine-amides-23586-covalent
     RDKit          3D

 24 26  0  0  0  0  0  0  0  0999 V2000
    7.1300   -3.3070   19.2530 C   0  0  0  0  0  0  0  0  0  0  0  0
    6.4210   -4.1140   20.2530 C   0  0  0  0  0  0  0  0  0  0  0  0
    5.3220   -4.6150   19.9130 O   0  0  0  0  0  0  0  0  0  0  0  0
    7.0000   -4.3750   21.5160 N   0  0  0  0  0  0  0  0  0  0  0  0
    6.5020   -5.4720   22.2540 C   0  0  0  0  0  0  0  0  0  0  0  0
    6.0230   -5.0910   23.5730 C   0  0  0  0  0  0  0  0  0  0  0  0
    6.7070   -3.9220   24.1620 C   0  0  0  0  0  0  0  0  0  0  0  0
    5.9810   -3.4630   25.3740 C   0  0  0  0  0  0  0  0  0  0  0  0
    5.0140   -2.6790   25.2830 O   0  0  0  0  0  0  0  0  0  0  0  0
    6.3810   -3.9420   26.6110 N   0  0  0  0  0  0  0  0  0  0  0  0
    6.9500   -5.1360   26.8050 C   0  0  0  0  0  0  0  0  0  0  0  0
    6.6890   -5.4980   28.1540 C   0  0  0  0  0  0  0  0  0  0  0  0
    6.0480   -4.2860   28.9790 C   0  0  2  0  0  0  0  0  0  0  0  0
    5.2140   -4.8430   29.9340 O   0  0  0  0  0  0  0  0  0  0  0  0
    5.3550   -6.2300   30.0220 C   0  0  0  0  0  0  0  0  0  0  0  0
    4.8790   -6.6450   31.4150 C   0  0  0  0  0  0  0  0  0  0  0  0
    3.7450   -5.7010   31.6530 C   0  0  0  0  0  0  0  0  0  0  0  0
    3.2750   -6.1110   33.0420 C   0  0  0  0  0  0  0  0  0  0  0  0
    3.8590   -7.2050   33.8900 C   0  0  0  0  0  0  0  0  0  0  0  0
    4.9560   -7.9960   33.4590 N   0  0  0  0  0  0  0  0  0  0  0  0
    5.4660   -7.7320   32.2470 C   0  0  0  0  0  0  0  0  0  0  0  0
    5.4210   -3.8350   27.6480 C   0  0  0  0  0  0  0  0  0  0  0  0
    6.8990   -2.8260   23.1710 C   0  0  0  0  0  0  0  0  0  0  0  0
    7.7580   -3.3570   22.2200 C   0  0  0  0  0  0  0  0  0  0  0  0
  1  2  1  0
  2  3  2  0
  2  4  1  0
  4  5  1  0
  5  6  1  0
  6  7  1  0
  7  8  1  0
  8  9  2  0
  8 10  1  0
 10 11  1  0
 11 12  1  0
 12 13  1  0
 13 14  1  1
 14 15  1  0
 15 16  1  0
 16 17  2  0
 17 18  1  0
 18 19  2  0
 19 20  1  0
 16 21  1  0
 20 21  2  0
 10 22  1  0
 13 22  1  0
  7 23  1  0
  4 24  1  0
 23 24  1  0
M  END
