piperidine-amides-29308-covalent
     RDKit          3D

 26 28  0  0  0  0  0  0  0  0999 V2000
    7.0760   -3.3450   19.3410 C   0  0  0  0  0  0  0  0  0  0  0  0
    6.4270   -4.2110   20.3190 C   0  0  0  0  0  0  0  0  0  0  0  0
    5.3890   -4.8060   19.9770 O   0  0  0  0  0  0  0  0  0  0  0  0
    7.0160   -4.3980   21.5930 N   0  0  0  0  0  0  0  0  0  0  0  0
    6.5680   -5.5000   22.3800 C   0  0  0  0  0  0  0  0  0  0  0  0
    5.6770   -4.9660   23.4640 C   0  0  0  0  0  0  0  0  0  0  0  0
    6.4730   -3.9430   24.2530 C   0  0  0  0  0  0  0  0  0  0  0  0
    5.6090   -3.3330   25.3180 C   0  0  0  0  0  0  0  0  0  0  0  0
    4.9250   -2.3790   24.9730 O   0  0  0  0  0  0  0  0  0  0  0  0
    5.6040   -3.8690   26.5950 N   0  0  0  0  0  0  0  0  0  0  0  0
    4.4830   -4.4790   27.1390 C   0  0  0  0  0  0  0  0  0  0  0  0
    4.7980   -5.2320   28.2670 C   0  0  0  0  0  0  0  0  0  0  0  0
    5.4620   -4.6380   29.3110 C   0  0  0  0  0  0  0  0  0  0  0  0
    5.8520   -5.5510   30.2370 F   0  0  0  0  0  0  0  0  0  0  0  0
    4.9230   -3.4630   29.8240 C   0  0  0  0  0  0  0  0  0  0  0  0
    3.5630   -3.7320   30.3510 C   0  0  0  0  0  0  0  0  0  0  0  0
    2.8390   -2.5160   30.9630 C   0  0  0  0  0  0  0  0  0  0  0  0
    1.5460   -2.7070   31.4830 F   0  0  0  0  0  0  0  0  0  0  0  0
    3.4170   -1.1430   31.0440 C   0  0  0  0  0  0  0  0  0  0  0  0
    4.8150   -0.9680   30.4790 C   0  0  0  0  0  0  0  0  0  0  0  0
    5.3380    0.2980   30.5620 F   0  0  0  0  0  0  0  0  0  0  0  0
    5.5240   -2.2100   29.8670 C   0  0  0  0  0  0  0  0  0  0  0  0
    6.6380   -4.4580   28.4040 C   0  0  0  0  0  0  0  0  0  0  0  0
    6.3890   -3.3380   27.6110 C   0  0  0  0  0  0  0  0  0  0  0  0
    7.0170   -2.8250   23.4290 C   0  0  0  0  0  0  0  0  0  0  0  0
    7.7500   -3.3430   22.2360 C   0  0  0  0  0  0  0  0  0  0  0  0
  1  2  1  0
  2  3  2  0
  2  4  1  0
  4  5  1  0
  5  6  1  0
  6  7  1  0
  7  8  1  0
  8  9  2  0
  8 10  1  0
 10 11  1  0
 11 12  1  0
 12 13  1  0
 13 14  1  0
 13 15  1  0
 15 16  2  0
 16 17  1  0
 17 18  1  0
 17 19  2  0
 19 20  1  0
 20 21  1  0
 15 22  1  0
 20 22  2  0
 13 23  1  0
 10 24  1  0
 23 24  1  0
  7 25  1  0
  4 26  1  0
 25 26  1  0
M  END
