piperidine-amides-3660-covalent
     RDKit          3D

 17 17  0  0  0  0  0  0  0  0999 V2000
    7.1530   -3.2980   19.2270 C   0  0  0  0  0  0  0  0  0  0  0  0
    6.3800   -4.0310   20.2410 C   0  0  0  0  0  0  0  0  0  0  0  0
    5.2820   -4.5160   19.8740 O   0  0  0  0  0  0  0  0  0  0  0  0
    6.8870   -4.2340   21.5510 N   0  0  0  0  0  0  0  0  0  0  0  0
    6.3860   -5.3240   22.3000 C   0  0  0  0  0  0  0  0  0  0  0  0
    6.0020   -4.9730   23.6700 C   0  0  0  0  0  0  0  0  0  0  0  0
    6.5850   -3.7180   24.2080 C   0  0  0  0  0  0  0  0  0  0  0  0
    5.8000   -3.2420   25.4000 C   0  0  0  0  0  0  0  0  0  0  0  0
    4.6410   -2.8230   25.2280 O   0  0  0  0  0  0  0  0  0  0  0  0
    6.3240   -3.2670   26.7080 N   0  0  0  0  0  0  0  0  0  0  0  0
    6.1210   -4.2690   27.6940 C   0  0  0  0  0  0  0  0  0  0  0  0
    5.8340   -5.6560   27.3250 C   0  0  0  0  0  0  0  0  0  0  0  0
    5.2030   -6.3700   28.5250 C   0  0  0  0  0  0  0  0  0  0  0  0
    4.0040   -6.6000   29.1710 C   0  0  0  0  0  0  0  0  0  0  0  0
    5.8490   -7.2330   29.6090 C   0  0  0  0  0  0  0  0  0  0  0  0
    6.7400   -2.5980   23.2490 C   0  0  0  0  0  0  0  0  0  0  0  0
    7.6530   -3.1640   22.1570 C   0  0  0  0  0  0  0  0  0  0  0  0
  1  2  1  0
  2  3  2  0
  2  4  1  0
  4  5  1  0
  5  6  1  0
  6  7  1  0
  7  8  1  0
  8  9  2  0
  8 10  1  0
 10 11  1  0
 11 12  1  0
 12 13  1  0
 13 14  2  3
 13 15  1  0
  7 16  1  0
  4 17  1  0
 16 17  1  0
M  END
