piperidine-amides-24903-covalent
     RDKit          3D

 23 25  0  0  0  0  0  0  0  0999 V2000
    6.9860   -3.3660   19.4100 C   0  0  0  0  0  0  0  0  0  0  0  0
    6.3540   -4.2530   20.4110 C   0  0  0  0  0  0  0  0  0  0  0  0
    5.4440   -5.0190   20.0240 O   0  0  0  0  0  0  0  0  0  0  0  0
    6.7710   -4.2650   21.7670 N   0  0  0  0  0  0  0  0  0  0  0  0
    6.6240   -5.4990   22.5400 C   0  0  0  0  0  0  0  0  0  0  0  0
    5.9930   -5.1430   23.9050 C   0  0  0  0  0  0  0  0  0  0  0  0
    6.0580   -3.6390   23.9670 C   0  0  0  0  0  0  0  0  0  0  0  0
    5.4100   -2.9720   25.1560 C   0  0  0  0  0  0  0  0  0  0  0  0
    4.7620   -1.9550   24.8760 O   0  0  0  0  0  0  0  0  0  0  0  0
    5.4250   -3.3730   26.5320 N   0  0  0  0  0  0  0  0  0  0  0  0
    4.8440   -2.4770   27.5130 C   0  0  0  0  0  0  0  0  0  0  0  0
    4.8480   -3.0670   28.9310 C   0  0  0  0  0  0  0  0  0  0  0  0
    4.8900   -4.4030   29.0530 C   0  0  0  0  0  0  0  0  0  0  0  0
    4.1360   -5.1680   29.8560 C   0  0  0  0  0  0  0  0  0  0  0  0
    4.3540   -6.5030   29.7950 C   0  0  0  0  0  0  0  0  0  0  0  0
    3.4260   -7.6110   30.8010 Cl  0  0  0  0  0  0  0  0  0  0  0  0
    5.3160   -6.9370   28.9170 C   0  0  0  0  0  0  0  0  0  0  0  0
    6.2710   -6.2460   27.9230 C   0  0  0  0  0  0  0  0  0  0  0  0
    7.1770   -6.6390   27.0790 F   0  0  0  0  0  0  0  0  0  0  0  0
    5.7970   -4.8680   28.2320 C   0  0  0  0  0  0  0  0  0  0  0  0
    6.3310   -3.6570   27.5660 C   0  0  0  0  0  0  0  0  0  0  0  0
    7.4710   -3.1960   23.7050 C   0  0  0  0  0  0  0  0  0  0  0  0
    7.5960   -3.1790   22.2970 C   0  0  0  0  0  0  0  0  0  0  0  0
  1  2  1  0
  2  3  2  0
  2  4  1  0
  4  5  1  0
  5  6  1  0
  6  7  1  0
  7  8  1  0
  8  9  2  0
  8 10  1  0
 10 11  1  0
 11 12  1  0
 12 13  1  0
 13 14  2  0
 14 15  1  0
 15 16  1  0
 15 17  2  0
 17 18  1  0
 18 19  1  0
 13 20  1  0
 18 20  2  0
 10 21  1  0
 20 21  1  0
  7 22  1  0
  4 23  1  0
 22 23  1  0
M  END
