piperidine-amides-25015-covalent
     RDKit          3D

 23 25  0  0  0  0  0  0  0  0999 V2000
    7.1150   -3.2880   19.2820 C   0  0  0  0  0  0  0  0  0  0  0  0
    6.3360   -4.0520   20.2610 C   0  0  0  0  0  0  0  0  0  0  0  0
    5.2750   -4.6100   19.9110 O   0  0  0  0  0  0  0  0  0  0  0  0
    6.7920   -4.2310   21.5710 N   0  0  0  0  0  0  0  0  0  0  0  0
    6.6650   -5.5600   22.1190 C   0  0  0  0  0  0  0  0  0  0  0  0
    6.3940   -5.4650   23.6190 C   0  0  0  0  0  0  0  0  0  0  0  0
    6.1670   -4.0200   23.9990 C   0  0  0  0  0  0  0  0  0  0  0  0
    5.8140   -4.0880   25.4250 C   0  0  0  0  0  0  0  0  0  0  0  0
    5.3290   -5.1630   25.7800 O   0  0  0  0  0  0  0  0  0  0  0  0
    5.9020   -3.0490   26.3620 N   0  0  0  0  0  0  0  0  0  0  0  0
    4.6930   -2.9050   27.1220 C   0  0  0  0  0  0  0  0  0  0  0  0
    4.5210   -4.1210   28.0310 C   0  0  0  0  0  0  0  0  0  0  0  0
    5.4170   -4.2880   29.0200 C   0  0  0  0  0  0  0  0  0  0  0  0
    6.5840   -4.0760   28.4020 C   0  0  0  0  0  0  0  0  0  0  0  0
    6.4840   -2.8880   27.6690 C   0  0  0  0  0  0  0  0  0  0  0  0
    5.0960   -5.7450   29.9690 S   0  0  0  0  0  0  0  0  0  0  0  0
    3.7240   -5.0670   30.8440 C   0  0  0  0  0  0  0  0  0  0  0  0
    3.9070   -3.5930   30.6510 C   0  0  0  0  0  0  0  0  0  0  0  0
    3.1700   -2.6940   31.0570 O   0  0  0  0  0  0  0  0  0  0  0  0
    5.0140   -3.2900   29.9520 N   0  0  0  0  0  0  0  0  0  0  0  0
    5.6300   -2.0010   29.9540 C   0  0  0  0  0  0  0  0  0  0  0  0
    7.3020   -3.1530   23.6640 C   0  0  0  0  0  0  0  0  0  0  0  0
    7.5970   -3.2460   22.2390 C   0  0  0  0  0  0  0  0  0  0  0  0
  1  2  1  0
  2  3  2  0
  2  4  1  0
  4  5  1  0
  5  6  1  0
  6  7  1  0
  7  8  1  0
  8  9  2  0
  8 10  1  0
 10 11  1  0
 11 12  1  0
 12 13  1  0
 13 14  1  0
 10 15  1  0
 14 15  1  0
 13 16  1  0
 16 17  1  0
 17 18  1  0
 18 19  2  0
 13 20  1  0
 18 20  1  0
 20 21  1  0
  7 22  1  0
  4 23  1  0
 22 23  1  0
M  END
