piperidine-amides-5537-covalent
     RDKit          3D

 19 20  0  0  0  0  0  0  0  0999 V2000
    7.0770   -3.3260   19.2660 C   0  0  0  0  0  0  0  0  0  0  0  0
    6.3680   -4.1320   20.2570 C   0  0  0  0  0  0  0  0  0  0  0  0
    5.3280   -4.7250   19.9410 O   0  0  0  0  0  0  0  0  0  0  0  0
    6.8860   -4.2890   21.5450 N   0  0  0  0  0  0  0  0  0  0  0  0
    7.7410   -3.3030   22.1610 C   0  0  0  0  0  0  0  0  0  0  0  0
    6.9440   -2.7570   23.2960 C   0  0  0  0  0  0  0  0  0  0  0  0
    6.5290   -3.8640   24.2020 C   0  0  0  0  0  0  0  0  0  0  0  0
    5.8440   -3.3330   25.3940 C   0  0  0  0  0  0  0  0  0  0  0  0
    4.5730   -3.3960   25.5370 O   0  0  0  0  0  0  0  0  0  0  0  0
    6.6010   -2.7060   26.4070 N   0  0  0  0  0  0  0  0  0  0  0  0
    6.0000   -1.7310   27.3230 C   0  0  2  0  0  0  0  0  0  0  0  0
    4.6550   -2.2130   27.7060 C   0  0  0  0  0  0  0  0  0  0  0  0
    5.8300   -0.3020   26.7250 C   0  0  0  0  0  0  0  0  0  0  0  0
    5.9580    0.5950   27.9530 C   0  0  0  0  0  0  0  0  0  0  0  0
    6.2860   -0.2820   29.1390 C   0  0  2  0  0  0  0  0  0  0  0  0
    7.2750    0.3230   30.0610 C   0  0  0  0  0  0  0  0  0  0  0  0
    6.8070   -1.5950   28.6320 C   0  0  0  0  0  0  0  0  0  0  0  0
    5.6970   -4.9000   23.4910 C   0  0  0  0  0  0  0  0  0  0  0  0
    6.5080   -5.4430   22.3350 C   0  0  0  0  0  0  0  0  0  0  0  0
  1  2  1  0
  2  3  2  0
  2  4  1  0
  4  5  1  0
  5  6  1  0
  6  7  1  0
  7  8  1  0
  8  9  2  0
  8 10  1  0
 11 10  1  0
 11 12  1  1
 11 13  1  0
 13 14  1  0
 14 15  1  0
 15 16  1  1
 11 17  1  0
 15 17  1  0
  7 18  1  0
  4 19  1  0
 18 19  1  0
M  END
