piperidine-amides-29177-covalent
     RDKit          3D

 22 23  0  0  0  0  0  0  0  0999 V2000
    7.1100   -3.2800   19.2760 C   0  0  0  0  0  0  0  0  0  0  0  0
    6.3870   -4.0780   20.2630 C   0  0  0  0  0  0  0  0  0  0  0  0
    5.3120   -4.5950   19.9110 O   0  0  0  0  0  0  0  0  0  0  0  0
    6.9300   -4.3000   21.5570 N   0  0  0  0  0  0  0  0  0  0  0  0
    6.5720   -5.4870   22.2650 C   0  0  0  0  0  0  0  0  0  0  0  0
    5.8050   -5.0910   23.4880 C   0  0  0  0  0  0  0  0  0  0  0  0
    6.5770   -3.9740   24.1620 C   0  0  0  0  0  0  0  0  0  0  0  0
    5.7230   -3.3940   25.2390 C   0  0  0  0  0  0  0  0  0  0  0  0
    4.9550   -2.4970   24.9000 O   0  0  0  0  0  0  0  0  0  0  0  0
    5.8300   -3.8920   26.5260 N   0  0  0  0  0  0  0  0  0  0  0  0
    6.5650   -5.0820   26.8300 C   0  0  0  0  0  0  0  0  0  0  0  0
    5.2440   -3.1350   27.5890 C   0  0  0  0  0  0  0  0  0  0  0  0
    3.9190   -3.3890   27.8310 C   0  0  0  0  0  0  0  0  0  0  0  0
    3.5340   -3.9890   29.0270 C   0  0  0  0  0  0  0  0  0  0  0  0
    2.0830   -4.2510   29.2610 C   0  0  0  0  0  0  0  0  0  0  0  0
    1.0090   -3.8860   28.2320 C   0  0  0  0  0  0  0  0  0  0  0  0
   -0.8720   -4.1950   28.4670 Br  0  0  0  0  0  0  0  0  0  0  0  0
    1.6030   -3.2660   27.0330 C   0  0  0  0  0  0  0  0  0  0  0  0
    0.5540   -2.9120   26.0250 C   0  0  0  0  0  0  0  0  0  0  0  0
    2.9520   -3.0510   26.8820 C   0  0  0  0  0  0  0  0  0  0  0  0
    6.8140   -2.8240   23.2040 C   0  0  0  0  0  0  0  0  0  0  0  0
    7.6920   -3.2960   22.2590 C   0  0  0  0  0  0  0  0  0  0  0  0
  1  2  1  0
  2  3  2  0
  2  4  1  0
  4  5  1  0
  5  6  1  0
  6  7  1  0
  7  8  1  0
  8  9  2  0
  8 10  1  0
 10 11  1  0
 10 12  1  0
 12 13  1  0
 13 14  2  0
 14 15  1  0
 15 16  2  0
 16 17  1  0
 16 18  1  0
 18 19  1  0
 13 20  1  0
 18 20  2  0
  7 21  1  0
  4 22  1  0
 21 22  1  0
M  END
