piperidine-amides-4570-covalent
     RDKit          3D

 25 27  0  0  0  0  0  0  0  0999 V2000
    7.0640   -3.3270   19.3220 C   0  0  0  0  0  0  0  0  0  0  0  0
    6.3970   -4.1630   20.3480 C   0  0  0  0  0  0  0  0  0  0  0  0
    5.3950   -4.8070   19.9760 O   0  0  0  0  0  0  0  0  0  0  0  0
    6.9060   -4.2470   21.6590 N   0  0  0  0  0  0  0  0  0  0  0  0
    6.7020   -5.4480   22.4010 C   0  0  0  0  0  0  0  0  0  0  0  0
    6.1430   -5.1740   23.7150 C   0  0  0  0  0  0  0  0  0  0  0  0
    6.0650   -3.7260   23.9660 C   0  0  0  0  0  0  0  0  0  0  0  0
    5.4560   -3.4080   25.2890 C   0  0  0  0  0  0  0  0  0  0  0  0
    4.2160   -3.4590   25.3440 O   0  0  0  0  0  0  0  0  0  0  0  0
    6.1630   -3.0430   26.4480 N   0  0  0  0  0  0  0  0  0  0  0  0
    6.3150   -4.0830   27.5170 C   0  0  0  0  0  0  0  0  0  0  0  0
    5.0800   -4.5000   28.2100 C   0  0  0  0  0  0  0  0  0  0  0  0
    3.8530   -4.7310   27.5240 N   0  0  0  0  0  0  0  0  0  0  0  0
    6.2120   -1.6620   26.8530 C   0  0  0  0  0  0  0  0  0  0  0  0
    5.8300   -0.6970   26.0010 N   0  0  0  0  0  0  0  0  0  0  0  0
    5.8540    0.6250   26.3690 C   0  0  0  0  0  0  0  0  0  0  0  0
    6.2640    0.9870   27.6050 N   0  0  0  0  0  0  0  0  0  0  0  0
    6.6980    0.0180   28.5940 C   0  0  0  0  0  0  0  0  0  0  0  0
    6.6560   -1.2480   28.1840 C   0  0  0  0  0  0  0  0  0  0  0  0
    7.0710   -2.0330   29.1720 C   0  0  0  0  0  0  0  0  0  0  0  0
    7.3770   -1.2180   30.2160 N   0  0  0  0  0  0  0  0  0  0  0  0
    7.1470    0.0440   29.8630 N   0  0  0  0  0  0  0  0  0  0  0  0
    7.3320    1.2560   30.6650 C   0  0  0  0  0  0  0  0  0  0  0  0
    7.3970   -3.0800   23.7000 C   0  0  0  0  0  0  0  0  0  0  0  0
    7.7250   -3.1840   22.2480 C   0  0  0  0  0  0  0  0  0  0  0  0
  1  2  1  0
  2  3  2  0
  2  4  1  0
  4  5  1  0
  5  6  1  0
  6  7  1  0
  7  8  1  0
  8  9  2  0
  8 10  1  0
 10 11  1  0
 11 12  1  0
 12 13  1  0
 10 14  1  0
 14 15  2  0
 15 16  1  0
 16 17  2  0
 17 18  1  0
 14 19  1  0
 18 19  2  0
 19 20  1  0
 20 21  2  0
 18 22  1  0
 21 22  1  0
 22 23  1  0
  7 24  1  0
  4 25  1  0
 24 25  1  0
M  END
