piperidine-amides-27424-covalent
     RDKit          3D

 26 29  0  0  0  0  0  0  0  0999 V2000
    7.0370   -3.3940   19.4540 C   0  0  0  0  0  0  0  0  0  0  0  0
    6.3730   -4.2490   20.4400 C   0  0  0  0  0  0  0  0  0  0  0  0
    5.3960   -4.9190   20.0040 O   0  0  0  0  0  0  0  0  0  0  0  0
    6.8390   -4.3410   21.7680 N   0  0  0  0  0  0  0  0  0  0  0  0
    6.5280   -5.5110   22.5600 C   0  0  0  0  0  0  0  0  0  0  0  0
    6.0080   -5.0780   23.9220 C   0  0  0  0  0  0  0  0  0  0  0  0
    5.9000   -3.5760   24.0420 C   0  0  0  0  0  0  0  0  0  0  0  0
    5.1410   -3.0620   25.2590 C   0  0  0  0  0  0  0  0  0  0  0  0
    4.3020   -2.1830   25.0130 O   0  0  0  0  0  0  0  0  0  0  0  0
    5.2390   -3.4350   26.6340 N   0  0  0  0  0  0  0  0  0  0  0  0
    6.4010   -4.0260   27.0140 C   0  0  2  0  0  0  0  0  0  0  0  0
    5.9380   -5.4160   26.6350 C   0  0  0  0  0  0  0  0  0  0  0  0
    4.5920   -5.3950   26.7400 C   0  0  0  0  0  0  0  0  0  0  0  0
    4.2130   -4.1880   27.3010 C   0  0  1  0  0  0  0  0  0  0  0  0
    4.4750   -4.1680   28.6710 C   0  0  0  0  0  0  0  0  0  0  0  0
    5.6740   -3.6210   29.1120 C   0  0  2  0  0  0  0  0  0  0  0  0
    5.6100   -2.2930   29.4930 C   0  0  0  0  0  0  0  0  0  0  0  0
    4.3230   -1.7390   30.0690 C   0  0  0  0  0  0  0  0  0  0  0  0
    3.6450   -2.7530   30.9660 C   0  0  0  0  0  0  0  0  0  0  0  0
    2.3530   -2.3970   31.6370 C   0  0  0  0  0  0  0  0  0  0  0  0
    1.7740   -1.0150   31.3810 C   0  0  0  0  0  0  0  0  0  0  0  0
    2.3920   -0.0780   30.5580 C   0  0  0  0  0  0  0  0  0  0  0  0
    3.7120   -0.4880   29.8940 C   0  0  0  0  0  0  0  0  0  0  0  0
    6.7540   -3.9020   28.3490 C   0  0  0  0  0  0  0  0  0  0  0  0
    7.2190   -2.9570   23.7310 C   0  0  0  0  0  0  0  0  0  0  0  0
    7.6250   -3.2650   22.3310 C   0  0  0  0  0  0  0  0  0  0  0  0
  1  2  1  0
  2  3  2  0
  2  4  1  0
  4  5  1  0
  5  6  1  0
  6  7  1  0
  7  8  1  0
  8  9  2  0
  8 10  1  0
 10 11  1  0
 11 12  1  1
 12 13  1  0
 10 14  1  0
 14 13  1  6
 14 15  1  0
 15 16  1  0
 16 17  1  6
 17 18  1  0
 18 19  2  0
 19 20  1  0
 20 21  2  0
 21 22  1  0
 18 23  1  0
 22 23  2  0
 11 24  1  0
 16 24  1  0
  7 25  1  0
  4 26  1  0
 25 26  1  0
M  END
