piperidine-amides-27694-covalent
     RDKit          3D

 26 29  0  0  0  0  0  0  0  0999 V2000
    7.0230   -3.3800   19.4080 C   0  0  0  0  0  0  0  0  0  0  0  0
    6.4020   -4.2620   20.3980 C   0  0  0  0  0  0  0  0  0  0  0  0
    5.3990   -4.9180   19.9980 O   0  0  0  0  0  0  0  0  0  0  0  0
    6.9360   -4.4000   21.6910 N   0  0  0  0  0  0  0  0  0  0  0  0
    6.6380   -5.5250   22.5300 C   0  0  0  0  0  0  0  0  0  0  0  0
    5.8180   -5.0440   23.7060 C   0  0  0  0  0  0  0  0  0  0  0  0
    6.3050   -3.7600   24.3650 C   0  0  0  0  0  0  0  0  0  0  0  0
    5.2350   -3.2560   25.2980 C   0  0  0  0  0  0  0  0  0  0  0  0
    4.1150   -3.0540   24.7980 O   0  0  0  0  0  0  0  0  0  0  0  0
    5.3710   -2.9890   26.6930 N   0  0  0  0  0  0  0  0  0  0  0  0
    4.2670   -2.9630   27.6040 C   0  0  0  0  0  0  0  0  0  0  0  0
    4.7560   -3.1150   29.0520 C   0  0  0  0  0  0  0  0  0  0  0  0
    5.4850   -4.3700   29.1410 N   0  0  0  0  0  0  0  0  0  0  0  0
    4.7890   -5.4400   29.4850 C   0  0  0  0  0  0  0  0  0  0  0  0
    4.4610   -6.3630   28.5710 C   0  0  0  0  0  0  0  0  0  0  0  0
    3.7010   -7.4350   28.9260 C   0  0  0  0  0  0  0  0  0  0  0  0
    3.1890   -7.7350   30.1830 C   0  0  0  0  0  0  0  0  0  0  0  0
    2.5960   -8.3310   31.0410 N   0  0  0  0  0  0  0  0  0  0  0  0
    2.5690   -7.8530   32.2990 N   0  0  0  0  0  0  0  0  0  0  0  0
    3.2780   -6.7230   32.2810 C   0  0  0  0  0  0  0  0  0  0  0  0
    3.6070   -6.7090   31.0330 N   0  0  0  0  0  0  0  0  0  0  0  0
    4.3480   -5.6300   30.7350 N   0  0  0  0  0  0  0  0  0  0  0  0
    6.5100   -4.4650   28.3020 C   0  0  0  0  0  0  0  0  0  0  0  0
    6.5370   -3.2430   27.3540 C   0  0  0  0  0  0  0  0  0  0  0  0
    6.6870   -2.6890   23.3240 C   0  0  0  0  0  0  0  0  0  0  0  0
    7.6590   -3.3130   22.3340 C   0  0  0  0  0  0  0  0  0  0  0  0
  1  2  1  0
  2  3  2  0
  2  4  1  0
  4  5  1  0
  5  6  1  0
  6  7  1  0
  7  8  1  0
  8  9  2  0
  8 10  1  0
 10 11  1  0
 11 12  1  0
 12 13  1  0
 13 14  1  0
 14 15  1  0
 15 16  2  0
 16 17  1  0
 17 18  2  0
 18 19  1  0
 19 20  2  0
 17 21  1  0
 20 21  1  0
 14 22  2  0
 21 22  1  0
 13 23  1  0
 10 24  1  0
 23 24  1  0
  7 25  1  0
  4 26  1  0
 25 26  1  0
M  END
