piperidine-amides-19313-covalent
     RDKit          3D

 22 24  0  0  0  0  0  0  0  0999 V2000
    7.0400   -3.4110   19.3600 C   0  0  0  0  0  0  0  0  0  0  0  0
    6.3940   -4.2140   20.3740 C   0  0  0  0  0  0  0  0  0  0  0  0
    5.3840   -4.8900   19.9980 O   0  0  0  0  0  0  0  0  0  0  0  0
    6.8440   -4.3340   21.7140 N   0  0  0  0  0  0  0  0  0  0  0  0
    6.5340   -5.5950   22.4190 C   0  0  0  0  0  0  0  0  0  0  0  0
    6.7240   -5.1100   23.9100 C   0  0  0  0  0  0  0  0  0  0  0  0
    6.1350   -3.7200   23.9270 C   0  0  0  0  0  0  0  0  0  0  0  0
    5.4070   -3.3120   25.2810 C   0  0  0  0  0  0  0  0  0  0  0  0
    4.4880   -2.5460   25.0430 O   0  0  0  0  0  0  0  0  0  0  0  0
    5.9510   -3.8760   26.2770 N   0  0  0  0  0  0  0  0  0  0  0  0
    6.9050   -4.4620   27.0290 C   0  0  0  0  0  0  0  0  0  0  0  0
    7.1760   -5.6170   27.7040 C   0  0  0  0  0  0  0  0  0  0  0  0
    6.2860   -5.6530   28.7550 C   0  0  2  0  0  0  0  0  0  0  0  0
    5.7680   -6.9510   28.8880 O   0  0  0  0  0  0  0  0  0  0  0  0
    5.1530   -4.7860   28.4580 C   0  0  0  0  0  0  0  0  0  0  0  0
    4.2400   -5.0400   29.6650 C   0  0  0  0  0  0  0  0  0  0  0  0
    3.0910   -4.2380   29.4930 C   0  0  0  0  0  0  0  0  0  0  0  0
    2.8520   -3.3760   28.4030 C   0  0  0  0  0  0  0  0  0  0  0  0
    3.6960   -3.2120   27.3800 N   0  0  0  0  0  0  0  0  0  0  0  0
    4.9390   -3.9190   27.3190 C   0  0  0  0  0  0  0  0  0  0  0  0
    6.9790   -2.7020   23.2260 C   0  0  0  0  0  0  0  0  0  0  0  0
    7.7440   -3.3890   22.3280 C   0  0  0  0  0  0  0  0  0  0  0  0
  1  2  1  0
  2  3  2  0
  2  4  1  0
  4  5  1  0
  5  6  1  0
  6  7  1  0
  7  8  1  0
  8  9  2  0
  8 10  1  0
 10 11  1  0
 11 12  1  0
 12 13  1  0
 13 14  1  6
 13 15  1  0
 15 16  2  0
 16 17  1  0
 17 18  2  0
 18 19  1  0
 10 20  1  0
 15 20  1  0
 19 20  2  0
  7 21  1  0
  4 22  1  0
 21 22  1  0
M  END
