piperidine-amides-1111-covalent
     RDKit          3D

 23 24  0  0  0  0  0  0  0  0999 V2000
    7.0770   -3.3440   19.3610 C   0  0  0  0  0  0  0  0  0  0  0  0
    6.3380   -4.1570   20.3610 C   0  0  0  0  0  0  0  0  0  0  0  0
    5.3500   -4.8060   19.9750 O   0  0  0  0  0  0  0  0  0  0  0  0
    6.8030   -4.2050   21.6980 N   0  0  0  0  0  0  0  0  0  0  0  0
    7.6120   -3.1580   22.2740 C   0  0  0  0  0  0  0  0  0  0  0  0
    6.9210   -2.7440   23.5760 C   0  0  0  0  0  0  0  0  0  0  0  0
    6.6110   -3.9930   24.3450 C   0  0  0  0  0  0  0  0  0  0  0  0
    5.7950   -3.7170   25.5630 C   0  0  0  0  0  0  0  0  0  0  0  0
    4.6170   -3.4100   25.3370 O   0  0  0  0  0  0  0  0  0  0  0  0
    6.3140   -3.7700   26.8860 N   0  0  0  0  0  0  0  0  0  0  0  0
    6.9480   -4.8410   27.6160 C   0  0  2  0  0  0  0  0  0  0  0  0
    7.8350   -5.7400   27.0890 C   0  0  0  0  0  0  0  0  0  0  0  0
    5.9710   -5.7880   28.3250 C   0  0  0  0  0  0  0  0  0  0  0  0
    4.6400   -5.5570   28.4350 C   0  0  0  0  0  0  0  0  0  0  0  0
    3.9360   -6.6110   29.1570 C   0  0  0  0  0  0  0  0  0  0  0  0
    2.4350   -6.6920   29.4750 C   0  0  0  0  0  0  0  0  0  0  0  0
    2.1910   -5.9740   30.6590 F   0  0  0  0  0  0  0  0  0  0  0  0
    2.0110   -8.0150   29.6970 F   0  0  0  0  0  0  0  0  0  0  0  0
    1.6810   -6.1480   28.4870 F   0  0  0  0  0  0  0  0  0  0  0  0
    5.0510   -7.4420   29.4240 N   0  0  0  0  0  0  0  0  0  0  0  0
    6.2390   -6.9810   28.9510 N   0  0  0  0  0  0  0  0  0  0  0  0
    5.8550   -5.0310   23.5460 C   0  0  0  0  0  0  0  0  0  0  0  0
    6.6370   -5.4080   22.4640 C   0  0  0  0  0  0  0  0  0  0  0  0
  1  2  1  0
  2  3  2  0
  2  4  1  0
  4  5  1  0
  5  6  1  0
  6  7  1  0
  7  8  1  0
  8  9  2  0
  8 10  1  0
 10 11  1  0
 11 12  1  6
 11 13  1  0
 13 14  1  0
 14 15  2  0
 15 16  1  0
 16 17  1  0
 16 18  1  0
 16 19  1  0
 15 20  1  0
 13 21  2  0
 20 21  1  0
  7 22  1  0
  4 23  1  0
 22 23  1  0
M  END
