piperidine-amides-4170-covalent
     RDKit          3D

 27 29  0  0  0  0  0  0  0  0999 V2000
    7.0870   -3.3050   19.3020 C   0  0  0  0  0  0  0  0  0  0  0  0
    6.3770   -4.1160   20.3060 C   0  0  0  0  0  0  0  0  0  0  0  0
    5.3150   -4.6690   19.9320 O   0  0  0  0  0  0  0  0  0  0  0  0
    6.9010   -4.3120   21.6150 N   0  0  0  0  0  0  0  0  0  0  0  0
    7.6500   -3.2450   22.1980 C   0  0  0  0  0  0  0  0  0  0  0  0
    7.3040   -3.0010   23.5840 C   0  0  0  0  0  0  0  0  0  0  0  0
    6.0930   -3.7220   24.0010 C   0  0  0  0  0  0  0  0  0  0  0  0
    5.6330   -3.2860   25.3550 C   0  0  0  0  0  0  0  0  0  0  0  0
    4.4220   -3.3620   25.6400 O   0  0  0  0  0  0  0  0  0  0  0  0
    6.5350   -2.7810   26.3050 N   0  0  0  0  0  0  0  0  0  0  0  0
    6.4400   -1.5560   27.0080 C   0  0  0  0  0  0  0  0  0  0  0  0
    5.8860   -0.2930   26.5280 C   0  0  0  0  0  0  0  0  0  0  0  0
    5.8790    0.9320   27.4770 C   0  0  0  0  0  0  0  0  0  0  0  0
    6.3910    0.8350   28.7610 C   0  0  0  0  0  0  0  0  0  0  0  0
    6.2390    2.4210   29.6350 S   0  0  0  0  0  0  0  0  0  0  0  0
    5.5280    3.3650   28.7070 O   0  0  0  0  0  0  0  0  0  0  0  0
    7.5670    2.9890   29.9980 O   0  0  0  0  0  0  0  0  0  0  0  0
    5.3410    2.2590   30.8910 N   0  0  0  0  0  0  0  0  0  0  0  0
    4.1550    1.4840   30.9220 C   0  0  0  0  0  0  0  0  0  0  0  0
    3.5850    0.9880   32.0860 N   0  0  0  0  0  0  0  0  0  0  0  0
    2.5030    0.3240   31.7110 N   0  0  0  0  0  0  0  0  0  0  0  0
    2.2130    0.2900   30.2410 C   0  0  0  0  0  0  0  0  0  0  0  0
    3.4540    1.1890   29.4040 S   0  0  0  0  0  0  0  0  0  0  0  0
    6.9590   -0.4380   29.2600 C   0  0  0  0  0  0  0  0  0  0  0  0
    6.9870   -1.6470   28.3810 C   0  0  0  0  0  0  0  0  0  0  0  0
    6.2850   -5.2100   23.8380 C   0  0  0  0  0  0  0  0  0  0  0  0
    6.5170   -5.4970   22.3370 C   0  0  0  0  0  0  0  0  0  0  0  0
  1  2  1  0
  2  3  2  0
  2  4  1  0
  4  5  1  0
  5  6  1  0
  6  7  1  0
  7  8  1  0
  8  9  2  0
  8 10  1  0
 10 11  1  0
 11 12  2  0
 12 13  1  0
 13 14  2  0
 14 15  1  0
 15 16  2  0
 15 17  2  0
 15 18  1  0
 18 19  1  0
 19 20  2  0
 20 21  1  0
 21 22  2  0
 19 23  1  0
 22 23  1  0
 14 24  1  0
 11 25  1  0
 24 25  2  0
  7 26  1  0
  4 27  1  0
 26 27  1  0
M  END
