piperidine-amides-3466-covalent
     RDKit          3D

 21 22  0  0  0  0  0  0  0  0999 V2000
    7.1200   -3.2890   19.2740 C   0  0  0  0  0  0  0  0  0  0  0  0
    6.3120   -4.0320   20.2310 C   0  0  0  0  0  0  0  0  0  0  0  0
    5.2580   -4.5520   19.8840 O   0  0  0  0  0  0  0  0  0  0  0  0
    6.7840   -4.2070   21.5750 N   0  0  0  0  0  0  0  0  0  0  0  0
    6.4490   -5.3920   22.3150 C   0  0  0  0  0  0  0  0  0  0  0  0
    5.7150   -5.0050   23.5680 C   0  0  0  0  0  0  0  0  0  0  0  0
    6.4990   -3.9050   24.2610 C   0  0  0  0  0  0  0  0  0  0  0  0
    5.7290   -3.4120   25.4450 C   0  0  0  0  0  0  0  0  0  0  0  0
    4.4930   -3.2550   25.3970 O   0  0  0  0  0  0  0  0  0  0  0  0
    6.4070   -3.1050   26.6570 N   0  0  0  0  0  0  0  0  0  0  0  0
    6.2870   -3.9810   27.8190 C   0  0  2  0  0  0  0  0  0  0  0  0
    5.9330   -5.3850   27.3830 C   0  0  0  0  0  0  0  0  0  0  0  0
    5.2720   -3.4660   28.7670 C   0  0  0  0  0  0  0  0  0  0  0  0
    5.1610   -2.0570   29.1100 N   0  0  0  0  0  0  0  0  0  0  0  0
    4.1650   -1.9840   29.9720 N   0  0  0  0  0  0  0  0  0  0  0  0
    3.5800   -3.2460   30.2510 C   0  0  0  0  0  0  0  0  0  0  0  0
    2.5470   -3.6570   31.0630 C   0  0  0  0  0  0  0  0  0  0  0  0
    2.9610   -3.9230   32.4340 C   0  0  0  0  0  0  0  0  0  0  0  0
    4.2860   -4.0900   29.4990 N   0  0  0  0  0  0  0  0  0  0  0  0
    6.8800   -2.7490   23.3660 C   0  0  0  0  0  0  0  0  0  0  0  0
    7.5860   -3.2000   22.2680 C   0  0  0  0  0  0  0  0  0  0  0  0
  1  2  1  0
  2  3  2  0
  2  4  1  0
  4  5  1  0
  5  6  1  0
  6  7  1  0
  7  8  1  0
  8  9  2  0
  8 10  1  0
 10 11  1  0
 11 12  1  6
 11 13  1  0
 13 14  2  0
 14 15  1  0
 15 16  2  0
 16 17  1  0
 17 18  1  0
 13 19  1  0
 16 19  1  0
  7 20  1  0
  4 21  1  0
 20 21  1  0
M  END
