piperidine-amides-33858-covalent
     RDKit          3D

 30 32  0  0  0  0  0  0  0  0999 V2000
    7.1610   -3.3090   19.2650 C   0  0  0  0  0  0  0  0  0  0  0  0
    6.4130   -4.0640   20.2750 C   0  0  0  0  0  0  0  0  0  0  0  0
    5.3250   -4.5730   19.9060 O   0  0  0  0  0  0  0  0  0  0  0  0
    6.9420   -4.2520   21.5790 N   0  0  0  0  0  0  0  0  0  0  0  0
    6.5110   -5.3840   22.3190 C   0  0  0  0  0  0  0  0  0  0  0  0
    6.1240   -5.0530   23.6890 C   0  0  0  0  0  0  0  0  0  0  0  0
    6.1020   -3.6020   23.9790 C   0  0  0  0  0  0  0  0  0  0  0  0
    5.5310   -3.3090   25.3350 C   0  0  0  0  0  0  0  0  0  0  0  0
    4.3040   -3.4360   25.4830 O   0  0  0  0  0  0  0  0  0  0  0  0
    6.2830   -2.8820   26.4490 N   0  0  0  0  0  0  0  0  0  0  0  0
    6.8690   -1.5960   26.5210 C   0  0  0  0  0  0  0  0  0  0  0  0
    6.0580   -0.4060   26.3120 C   0  0  0  0  0  0  0  0  0  0  0  0
    5.8490   -3.4010   27.7330 C   0  0  0  0  0  0  0  0  0  0  0  0
    6.7170   -4.1820   28.4540 C   0  0  0  0  0  0  0  0  0  0  0  0
    7.1290   -5.2750   29.1720 O   0  0  0  0  0  0  0  0  0  0  0  0
    5.5520   -4.9850   28.4800 N   0  0  0  0  0  0  0  0  0  0  0  0
    5.2220   -5.6850   29.6670 C   0  0  0  0  0  0  0  0  0  0  0  0
    6.1180   -6.8720   29.9370 C   0  0  0  0  0  0  0  0  0  0  0  0
    5.6600   -7.5190   31.2550 C   0  0  0  0  0  0  0  0  0  0  0  0
    4.5330   -7.1050   32.1460 C   0  0  0  0  0  0  0  0  0  0  0  0
    4.4290   -7.9280   33.2360 N   0  0  0  0  0  0  0  0  0  0  0  0
    5.5710   -8.6410   33.8630 C   0  0  0  0  0  0  0  0  0  0  0  0
    5.2190   -9.7660   34.8480 C   0  0  0  0  0  0  0  0  0  0  0  0
    3.9890  -10.0190   34.7180 O   0  0  0  0  0  0  0  0  0  0  0  0
    2.9720   -9.0340   34.7120 C   0  0  0  0  0  0  0  0  0  0  0  0
    3.0870   -8.4440   33.4480 C   0  0  0  0  0  0  0  0  0  0  0  0
    3.8020   -6.0130   31.7630 C   0  0  0  0  0  0  0  0  0  0  0  0
    4.1690   -5.2960   30.4920 C   0  0  0  0  0  0  0  0  0  0  0  0
    7.4270   -2.9860   23.6640 C   0  0  0  0  0  0  0  0  0  0  0  0
    7.7090   -3.1940   22.1840 C   0  0  0  0  0  0  0  0  0  0  0  0
  1  2  1  0
  2  3  2  0
  2  4  1  0
  4  5  1  0
  5  6  1  0
  6  7  1  0
  7  8  1  0
  8  9  2  0
  8 10  1  0
 10 11  1  0
 11 12  1  0
 10 13  1  0
 13 14  1  0
 14 15  2  0
 14 16  1  0
 16 17  1  0
 17 18  2  0
 18 19  1  0
 19 20  2  0
 20 21  1  0
 21 22  1  0
 22 23  1  0
 23 24  1  0
 24 25  1  0
 21 26  1  0
 25 26  1  0
 20 27  1  0
 17 28  1  0
 27 28  2  0
  7 29  1  0
  4 30  1  0
 29 30  1  0
M  END
