piperidine-amides-12655-covalent
     RDKit          3D

 23 24  0  0  0  0  0  0  0  0999 V2000
    7.0920   -3.2990   19.2650 C   0  0  0  0  0  0  0  0  0  0  0  0
    6.3730   -4.1000   20.2810 C   0  0  0  0  0  0  0  0  0  0  0  0
    5.3150   -4.6480   19.9180 O   0  0  0  0  0  0  0  0  0  0  0  0
    6.9030   -4.2640   21.5670 N   0  0  0  0  0  0  0  0  0  0  0  0
    7.6280   -3.1960   22.1780 C   0  0  0  0  0  0  0  0  0  0  0  0
    7.1440   -2.7940   23.4960 C   0  0  0  0  0  0  0  0  0  0  0  0
    6.4940   -3.8690   24.2680 C   0  0  0  0  0  0  0  0  0  0  0  0
    5.7550   -3.2880   25.4240 C   0  0  0  0  0  0  0  0  0  0  0  0
    4.5180   -3.1840   25.3240 O   0  0  0  0  0  0  0  0  0  0  0  0
    6.4050   -2.8620   26.6060 N   0  0  0  0  0  0  0  0  0  0  0  0
    6.3610   -1.4450   27.0680 C   0  0  0  0  0  0  0  0  0  0  0  0
    5.8890   -0.3780   26.1590 C   0  0  0  0  0  0  0  0  0  0  0  0
    5.8220    1.0150   26.5590 C   0  0  0  0  0  0  0  0  0  0  0  0
    6.2140    1.3450   27.8240 C   0  0  0  0  0  0  0  0  0  0  0  0
    6.2270    2.6050   28.3850 C   0  0  0  0  0  0  0  0  0  0  0  0
    6.6900    0.3180   28.7590 C   0  0  0  0  0  0  0  0  0  0  0  0
    6.7650   -1.0000   28.4250 C   0  0  0  0  0  0  0  0  0  0  0  0
    7.1990   -1.8470   29.3500 C   0  0  0  0  0  0  0  0  0  0  0  0
    6.8410   -0.9940   30.4630 N   0  0  0  0  0  0  0  0  0  0  0  0
    7.7230   -0.1720   31.2110 C   0  0  0  0  0  0  0  0  0  0  0  0
    5.3930   -0.8650   30.6750 C   0  0  0  0  0  0  0  0  0  0  0  0
    5.6020   -4.7590   23.4760 C   0  0  0  0  0  0  0  0  0  0  0  0
    6.4740   -5.3560   22.4080 C   0  0  0  0  0  0  0  0  0  0  0  0
  1  2  1  0
  2  3  2  0
  2  4  1  0
  4  5  1  0
  5  6  1  0
  6  7  1  0
  7  8  1  0
  8  9  2  0
  8 10  1  0
 10 11  1  0
 11 12  2  0
 12 13  1  0
 13 14  2  0
 14 15  1  0
 14 16  1  0
 11 17  1  0
 16 17  2  0
 17 18  1  0
 18 19  1  0
 19 20  1  0
 19 21  1  0
  7 22  1  0
  4 23  1  0
 22 23  1  0
M  END
