piperidine-amides-2486-covalent
     RDKit          3D

 26 27  0  0  0  0  0  0  0  0999 V2000
    7.0920   -3.2560   19.2130 C   0  0  0  0  0  0  0  0  0  0  0  0
    6.3310   -4.0490   20.2200 C   0  0  0  0  0  0  0  0  0  0  0  0
    5.2560   -4.5190   19.8620 O   0  0  0  0  0  0  0  0  0  0  0  0
    6.8510   -4.2860   21.4930 N   0  0  0  0  0  0  0  0  0  0  0  0
    6.4340   -5.4260   22.2670 C   0  0  0  0  0  0  0  0  0  0  0  0
    5.7230   -4.9380   23.4990 C   0  0  0  0  0  0  0  0  0  0  0  0
    6.6090   -3.8880   24.1630 C   0  0  0  0  0  0  0  0  0  0  0  0
    5.9490   -3.2480   25.3090 C   0  0  0  0  0  0  0  0  0  0  0  0
    4.7150   -3.2550   25.4440 O   0  0  0  0  0  0  0  0  0  0  0  0
    6.8020   -2.6240   26.2210 N   0  0  0  0  0  0  0  0  0  0  0  0
    6.3330   -1.8120   27.3010 C   0  0  0  0  0  0  0  0  0  0  0  0
    5.2750   -2.5470   28.0760 C   0  0  0  0  0  0  0  0  0  0  0  0
    3.9450   -2.0620   28.0250 C   0  0  0  0  0  0  0  0  0  0  0  0
    2.8480   -2.5970   28.6680 C   0  0  0  0  0  0  0  0  0  0  0  0
    3.0340   -3.6870   29.4230 C   0  0  0  0  0  0  0  0  0  0  0  0
    4.3170   -4.3610   29.6240 C   0  0  0  0  0  0  0  0  0  0  0  0
    4.1820   -5.5400   30.5110 C   0  0  0  0  0  0  0  0  0  0  0  0
    5.2900   -6.0320   31.1370 O   0  0  0  0  0  0  0  0  0  0  0  0
    2.9800   -6.1580   30.6630 O   0  0  0  0  0  0  0  0  0  0  0  0
    3.0760   -7.5460   30.4270 C   0  0  0  0  0  0  0  0  0  0  0  0
    2.0440   -8.0850   29.4920 C   0  0  0  0  0  0  0  0  0  0  0  0
    2.9230   -8.2150   31.7770 C   0  0  0  0  0  0  0  0  0  0  0  0
    4.4560   -7.8040   29.8700 C   0  0  0  0  0  0  0  0  0  0  0  0
    5.4270   -3.6700   28.8640 C   0  0  0  0  0  0  0  0  0  0  0  0
    6.9680   -2.7690   23.1990 C   0  0  0  0  0  0  0  0  0  0  0  0
    7.6810   -3.2940   22.1590 C   0  0  0  0  0  0  0  0  0  0  0  0
  1  2  1  0
  2  3  2  0
  2  4  1  0
  4  5  1  0
  5  6  1  0
  6  7  1  0
  7  8  1  0
  8  9  2  0
  8 10  1  0
 10 11  1  0
 11 12  1  0
 12 13  2  0
 13 14  1  0
 14 15  2  0
 15 16  1  0
 16 17  1  0
 17 18  2  0
 17 19  1  0
 20 19  1  0
 20 21  1  0
 20 22  1  0
 20 23  1  0
 12 24  1  0
 16 24  2  0
  7 25  1  0
  4 26  1  0
 25 26  1  0
M  END
