piperidine-amides-15309-covalent
     RDKit          3D

 17 18  0  0  0  0  0  0  0  0999 V2000
    7.1190   -3.2770   19.2540 C   0  0  0  0  0  0  0  0  0  0  0  0
    6.3800   -4.0600   20.2600 C   0  0  0  0  0  0  0  0  0  0  0  0
    5.3460   -4.6810   19.9350 O   0  0  0  0  0  0  0  0  0  0  0  0
    6.8560   -4.1580   21.5770 N   0  0  0  0  0  0  0  0  0  0  0  0
    6.5950   -5.3720   22.3290 C   0  0  0  0  0  0  0  0  0  0  0  0
    5.9530   -5.0010   23.6820 C   0  0  0  0  0  0  0  0  0  0  0  0
    5.9850   -3.4920   23.8410 C   0  0  0  0  0  0  0  0  0  0  0  0
    5.4810   -3.1200   25.1760 C   0  0  0  0  0  0  0  0  0  0  0  0
    4.8040   -3.9530   25.8090 O   0  0  0  0  0  0  0  0  0  0  0  0
    5.7520   -1.8380   25.7050 N   0  0  0  0  0  0  0  0  0  0  0  0
    6.7670   -1.6990   26.6930 C   0  0  0  0  0  0  0  0  0  0  0  0
    6.0540   -0.6350   27.3290 C   0  0  0  0  0  0  0  0  0  0  0  0
    5.6900   -0.7550   28.6400 C   0  0  0  0  0  0  0  0  0  0  0  0
    6.6760   -0.7350   29.5960 C   0  0  0  0  0  0  0  0  0  0  0  0
    4.9280   -0.7830   26.4390 C   0  0  0  0  0  0  0  0  0  0  0  0
    7.3130   -2.8960   23.5670 C   0  0  0  0  0  0  0  0  0  0  0  0
    7.7200   -3.1530   22.1510 C   0  0  0  0  0  0  0  0  0  0  0  0
  1  2  1  0
  2  3  2  0
  2  4  1  0
  4  5  1  0
  5  6  1  0
  6  7  1  0
  7  8  1  0
  8  9  2  0
  8 10  1  0
 10 11  1  0
 11 12  1  0
 12 13  1  0
 13 14  3  0
 10 15  1  0
 12 15  1  0
  7 16  1  0
  4 17  1  0
 16 17  1  0
M  END
