piperidine-amides-9047-covalent
     RDKit          3D

 21 22  0  0  0  0  0  0  0  0999 V2000
    7.0840   -3.3280   19.2920 C   0  0  0  0  0  0  0  0  0  0  0  0
    6.3760   -4.1350   20.2880 C   0  0  0  0  0  0  0  0  0  0  0  0
    5.3410   -4.7350   19.9530 O   0  0  0  0  0  0  0  0  0  0  0  0
    6.8680   -4.2970   21.5950 N   0  0  0  0  0  0  0  0  0  0  0  0
    6.5940   -5.4750   22.3830 C   0  0  0  0  0  0  0  0  0  0  0  0
    5.8540   -4.9830   23.6030 C   0  0  0  0  0  0  0  0  0  0  0  0
    6.5500   -3.8260   24.2690 C   0  0  0  0  0  0  0  0  0  0  0  0
    5.8080   -3.2880   25.4370 C   0  0  0  0  0  0  0  0  0  0  0  0
    4.5440   -3.2040   25.3960 O   0  0  0  0  0  0  0  0  0  0  0  0
    6.4340   -2.8430   26.6240 N   0  0  0  0  0  0  0  0  0  0  0  0
    6.2690   -1.4380   27.0710 C   0  0  0  0  0  0  0  0  0  0  0  0
    5.7310   -0.4220   26.1720 C   0  0  0  0  0  0  0  0  0  0  0  0
    5.5850    0.9620   26.6550 C   0  0  0  0  0  0  0  0  0  0  0  0
    5.9710    1.3840   28.0480 C   0  0  0  0  0  0  0  0  0  0  0  0
    5.7260    3.3880   28.6460 I   0  0  0  0  0  0  0  0  0  0  0  0
    6.5280    0.3490   28.9900 C   0  0  0  0  0  0  0  0  0  0  0  0
    6.6390   -1.0060   28.4230 C   0  0  0  0  0  0  0  0  0  0  0  0
    7.1380   -1.9230   29.2360 C   0  0  0  0  0  0  0  0  0  0  0  0
    8.3870   -1.4460   29.5780 C   0  0  0  0  0  0  0  0  0  0  0  0
    6.8250   -2.6620   23.3190 C   0  0  0  0  0  0  0  0  0  0  0  0
    7.6570   -3.2320   22.1780 C   0  0  0  0  0  0  0  0  0  0  0  0
  1  2  1  0
  2  3  2  0
  2  4  1  0
  4  5  1  0
  5  6  1  0
  6  7  1  0
  7  8  1  0
  8  9  2  0
  8 10  1  0
 10 11  1  0
 11 12  2  0
 12 13  1  0
 13 14  2  0
 14 15  1  0
 14 16  1  0
 11 17  1  0
 16 17  2  0
 17 18  1  0
 18 19  1  0
  7 20  1  0
  4 21  1  0
 20 21  1  0
M  END
