piperidine-amides-35081-covalent
     RDKit          3D

 30 31  0  0  0  0  0  0  0  0999 V2000
    7.0320   -3.3570   19.3790 C   0  0  0  0  0  0  0  0  0  0  0  0
    6.3050   -4.2010   20.3600 C   0  0  0  0  0  0  0  0  0  0  0  0
    5.3130   -4.8020   19.9590 O   0  0  0  0  0  0  0  0  0  0  0  0
    6.7800   -4.3210   21.6660 N   0  0  0  0  0  0  0  0  0  0  0  0
    7.6020   -3.2970   22.2430 C   0  0  0  0  0  0  0  0  0  0  0  0
    7.3150   -3.2550   23.7060 C   0  0  0  0  0  0  0  0  0  0  0  0
    5.9150   -3.7570   23.9490 C   0  0  0  0  0  0  0  0  0  0  0  0
    5.4710   -3.3460   25.3150 C   0  0  0  0  0  0  0  0  0  0  0  0
    4.2720   -3.1150   25.4880 O   0  0  0  0  0  0  0  0  0  0  0  0
    6.3470   -3.2210   26.4210 N   0  0  0  0  0  0  0  0  0  0  0  0
    6.8310   -4.5040   26.9360 C   0  0  0  0  0  0  0  0  0  0  0  0
    5.6870   -5.4640   27.1080 C   0  0  0  0  0  0  0  0  0  0  0  0
    6.3600   -1.9380   27.0510 C   0  0  0  0  0  0  0  0  0  0  0  0
    6.8860   -1.8860   28.2990 C   0  0  0  0  0  0  0  0  0  0  0  0
    6.9650   -0.7480   29.0370 C   0  0  0  0  0  0  0  0  0  0  0  0
    6.5060    0.6370   28.6460 C   0  0  0  0  0  0  0  0  0  0  0  0
    6.6220    2.1150   29.6580 S   0  0  0  0  0  0  0  0  0  0  0  0
    5.4110    2.2390   30.5230 O   0  0  0  0  0  0  0  0  0  0  0  0
    7.8630    2.1370   30.5050 O   0  0  0  0  0  0  0  0  0  0  0  0
    6.7700    3.6000   28.6210 C   0  0  0  0  0  0  0  0  0  0  0  0
    7.0190    3.2650   27.2890 F   0  0  0  0  0  0  0  0  0  0  0  0
    7.8840    4.3280   29.0310 F   0  0  0  0  0  0  0  0  0  0  0  0
    5.6950    4.4560   28.6910 F   0  0  0  0  0  0  0  0  0  0  0  0
    5.8880    0.7900   27.2740 C   0  0  0  0  0  0  0  0  0  0  0  0
    5.8680   -0.5480   26.5750 C   0  0  0  0  0  0  0  0  0  0  0  0
    5.2730   -0.3010   25.3200 N   0  0  0  0  0  0  0  0  0  0  0  0
    3.9160   -0.0030   25.3220 O   0  0  0  0  0  0  0  0  0  0  0  0
    5.9900    0.3450   24.2990 O   0  0  0  0  0  0  0  0  0  0  0  0
    5.7950   -5.2270   23.6620 C   0  0  0  0  0  0  0  0  0  0  0  0
    6.5890   -5.5610   22.3910 C   0  0  0  0  0  0  0  0  0  0  0  0
  1  2  1  0
  2  3  2  0
  2  4  1  0
  4  5  1  0
  5  6  1  0
  6  7  1  0
  7  8  1  0
  8  9  2  0
  8 10  1  0
 10 11  1  0
 11 12  1  0
 10 13  1  0
 13 14  2  0
 14 15  1  0
 15 16  2  0
 17 16  1  0
 17 18  2  0
 17 19  2  0
 17 20  1  0
 20 21  1  0
 20 22  1  0
 20 23  1  0
 16 24  1  0
 13 25  1  0
 24 25  2  0
 25 26  1  0
 26 27  2  0
 26 28  1  0
  7 29  1  0
  4 30  1  0
 29 30  1  0
M  CHG  2  26   1  28  -1
M  END
