piperidine-amides-33977-covalent
     RDKit          3D

 30 32  0  0  0  0  0  0  0  0999 V2000
    7.0130   -3.3620   19.3700 C   0  0  0  0  0  0  0  0  0  0  0  0
    6.3120   -4.2740   20.2940 C   0  0  0  0  0  0  0  0  0  0  0  0
    5.2790   -4.8640   19.9510 O   0  0  0  0  0  0  0  0  0  0  0  0
    6.8330   -4.5180   21.5590 N   0  0  0  0  0  0  0  0  0  0  0  0
    6.4510   -5.7180   22.2820 C   0  0  0  0  0  0  0  0  0  0  0  0
    5.5640   -5.3000   23.4760 C   0  0  0  0  0  0  0  0  0  0  0  0
    6.3100   -4.2130   24.2220 C   0  0  0  0  0  0  0  0  0  0  0  0
    5.5530   -3.7100   25.4000 C   0  0  0  0  0  0  0  0  0  0  0  0
    4.3070   -3.6840   25.3360 O   0  0  0  0  0  0  0  0  0  0  0  0
    6.2450   -3.2550   26.5600 N   0  0  0  0  0  0  0  0  0  0  0  0
    5.6450   -3.1510   27.8740 C   0  0  0  0  0  0  0  0  0  0  0  0
    5.7440   -4.4770   28.6040 C   0  0  0  0  0  0  0  0  0  0  0  0
    6.9090   -5.1690   28.4810 C   0  0  0  0  0  0  0  0  0  0  0  0
    7.9090   -4.4870   27.8560 C   0  0  0  0  0  0  0  0  0  0  0  0
    7.5870   -3.3580   27.0880 C   0  0  1  0  0  0  0  0  0  0  0  0
    8.1400   -3.2170   25.8370 C   0  0  0  0  0  0  0  0  0  0  0  0
    8.9090   -4.0950   25.2390 N   0  0  0  0  0  0  0  0  0  0  0  0
    9.3050   -3.7670   24.0790 N   0  0  0  0  0  0  0  0  0  0  0  0
    8.7770   -2.5680   23.8430 C   0  0  0  0  0  0  0  0  0  0  0  0
    7.9050   -1.9890   24.9710 C   0  0  0  0  0  0  0  0  0  0  0  0
    7.2830   -0.7620   24.8690 N   0  0  0  0  0  0  0  0  0  0  0  0
    7.8050   -0.0770   23.8190 C   0  0  0  0  0  0  0  0  0  0  0  0
    8.9870   -0.3850   23.3490 O   0  0  0  0  0  0  0  0  0  0  0  0
    7.1630    0.9850   23.1920 O   0  0  0  0  0  0  0  0  0  0  0  0
    8.0030    1.8570   22.4750 C   0  0  0  0  0  0  0  0  0  0  0  0
    8.6500    2.8600   23.2150 C   0  0  0  0  0  0  0  0  0  0  0  0
    9.4910    1.8380   22.4340 C   0  0  0  0  0  0  0  0  0  0  0  0
    7.3480    2.5410   21.2660 C   0  0  0  0  0  0  0  0  0  0  0  0
    6.5450   -3.0370   23.3070 C   0  0  0  0  0  0  0  0  0  0  0  0
    7.5200   -3.4640   22.2190 C   0  0  0  0  0  0  0  0  0  0  0  0
  1  2  1  0
  2  3  2  0
  2  4  1  0
  4  5  1  0
  5  6  1  0
  6  7  1  0
  7  8  1  0
  8  9  2  0
  8 10  1  0
 10 11  1  0
 11 12  1  0
 12 13  1  0
 13 14  1  0
 10 15  1  0
 14 15  1  0
 15 16  1  6
 16 17  2  0
 17 18  1  0
 18 19  1  0
 16 20  1  0
 19 20  2  0
 20 21  1  0
 21 22  1  0
 22 23  2  0
 22 24  1  0
 25 24  1  0
 25 26  1  0
 25 27  1  0
 25 28  1  0
  7 29  1  0
  4 30  1  0
 29 30  1  0
M  END
