piperidine-amides-25919-covalent
     RDKit          3D

 25 27  0  0  0  0  0  0  0  0999 V2000
    7.0710   -3.3410   19.3260 C   0  0  0  0  0  0  0  0  0  0  0  0
    6.3910   -4.1900   20.3040 C   0  0  0  0  0  0  0  0  0  0  0  0
    5.3500   -4.7740   19.9630 O   0  0  0  0  0  0  0  0  0  0  0  0
    6.9140   -4.4170   21.5920 N   0  0  0  0  0  0  0  0  0  0  0  0
    6.7080   -5.6850   22.2640 C   0  0  0  0  0  0  0  0  0  0  0  0
    6.3710   -5.3680   23.7010 C   0  0  0  0  0  0  0  0  0  0  0  0
    6.0900   -3.9160   23.9150 C   0  0  0  0  0  0  0  0  0  0  0  0
    5.4270   -3.6220   25.2050 C   0  0  0  0  0  0  0  0  0  0  0  0
    4.2090   -3.2840   25.2120 O   0  0  0  0  0  0  0  0  0  0  0  0
    6.0380   -3.6940   26.4600 N   0  0  0  0  0  0  0  0  0  0  0  0
    6.5690   -2.4300   26.9640 C   0  0  0  0  0  0  0  0  0  0  0  0
    6.8370   -2.6780   28.3720 C   0  0  0  0  0  0  0  0  0  0  0  0
    5.6290   -3.0110   29.0150 C   0  0  0  0  0  0  0  0  0  0  0  0
    4.7520   -2.1710   28.7310 O   0  0  0  0  0  0  0  0  0  0  0  0
    4.3830   -1.3490   29.8030 C   0  0  0  0  0  0  0  0  0  0  0  0
    4.3780    0.1520   29.5660 C   0  0  0  0  0  0  0  0  0  0  0  0
    3.9670    0.8830   30.7760 C   0  0  0  0  0  0  0  0  0  0  0  0
    3.7300    2.1120   31.3350 C   0  0  0  0  0  0  0  0  0  0  0  0
    3.6030    0.2180   32.0750 C   0  0  0  0  0  0  0  0  0  0  0  0
    3.6690   -1.2930   32.1130 C   0  0  0  0  0  0  0  0  0  0  0  0
    4.0370   -2.0230   31.0380 N   0  0  0  0  0  0  0  0  0  0  0  0
    5.2160   -4.2800   28.7630 C   0  0  0  0  0  0  0  0  0  0  0  0
    5.5420   -4.7590   27.3590 C   0  0  0  0  0  0  0  0  0  0  0  0
    7.3270   -3.1390   23.6220 C   0  0  0  0  0  0  0  0  0  0  0  0
    7.6440   -3.3380   22.1970 C   0  0  0  0  0  0  0  0  0  0  0  0
  1  2  1  0
  2  3  2  0
  2  4  1  0
  4  5  1  0
  5  6  1  0
  6  7  1  0
  7  8  1  0
  8  9  2  0
  8 10  1  0
 10 11  1  0
 11 12  1  0
 12 13  1  0
 13 14  1  0
 14 15  1  0
 15 16  2  0
 16 17  1  0
 17 18  1  0
 17 19  2  0
 19 20  1  0
 15 21  1  0
 20 21  2  0
 13 22  1  0
 10 23  1  0
 22 23  1  0
  7 24  1  0
  4 25  1  0
 24 25  1  0
M  END
