piperidine-amides-26109-covalent
     RDKit          3D

 25 27  0  0  0  0  0  0  0  0999 V2000
    7.0390   -3.3700   19.4150 C   0  0  0  0  0  0  0  0  0  0  0  0
    6.3910   -4.2640   20.3760 C   0  0  0  0  0  0  0  0  0  0  0  0
    5.3830   -4.8850   19.9950 O   0  0  0  0  0  0  0  0  0  0  0  0
    6.8910   -4.4940   21.6780 N   0  0  0  0  0  0  0  0  0  0  0  0
    6.5770   -5.6770   22.4250 C   0  0  0  0  0  0  0  0  0  0  0  0
    5.7750   -5.1810   23.6010 C   0  0  0  0  0  0  0  0  0  0  0  0
    6.3210   -3.9210   24.2330 C   0  0  0  0  0  0  0  0  0  0  0  0
    5.3740   -3.3510   25.2520 C   0  0  0  0  0  0  0  0  0  0  0  0
    4.5420   -2.4760   24.8950 O   0  0  0  0  0  0  0  0  0  0  0  0
    5.3200   -3.7160   26.6330 N   0  0  0  0  0  0  0  0  0  0  0  0
    6.4500   -3.4570   27.4440 C   0  0  0  0  0  0  0  0  0  0  0  0
    6.6600   -4.7220   28.2010 C   0  0  0  0  0  0  0  0  0  0  0  0
    5.5070   -5.0690   28.9680 C   0  0  0  0  0  0  0  0  0  0  0  0
    5.0480   -6.1670   28.6130 O   0  0  0  0  0  0  0  0  0  0  0  0
    4.4740   -6.8280   29.7050 C   0  0  0  0  0  0  0  0  0  0  0  0
    3.0770   -7.1330   29.4120 N   0  0  0  0  0  0  0  0  0  0  0  0
    2.3900   -7.8260   30.5180 C   0  0  0  0  0  0  0  0  0  0  0  0
    3.1760   -8.1030   31.7230 C   0  0  0  0  0  0  0  0  0  0  0  0
    3.1400   -8.6570   32.9780 C   0  0  0  0  0  0  0  0  0  0  0  0
    4.6020   -7.7570   31.9380 C   0  0  0  0  0  0  0  0  0  0  0  0
    5.1860   -7.1350   30.9140 N   0  0  0  0  0  0  0  0  0  0  0  0
    4.5390   -4.1010   28.8800 C   0  0  0  0  0  0  0  0  0  0  0  0
    4.1110   -3.6960   27.4420 C   0  0  0  0  0  0  0  0  0  0  0  0
    6.6730   -2.9030   23.1160 C   0  0  0  0  0  0  0  0  0  0  0  0
    7.5220   -3.3930   22.4060 C   0  0  0  0  0  0  0  0  0  0  0  0
  1  2  1  0
  2  3  2  0
  2  4  1  0
  4  5  1  0
  5  6  1  0
  6  7  1  0
  7  8  1  0
  8  9  2  0
  8 10  1  0
 10 11  1  0
 11 12  1  0
 12 13  1  0
 13 14  1  0
 14 15  1  0
 15 16  2  0
 16 17  1  0
 17 18  2  0
 18 19  1  0
 18 20  1  0
 15 21  1  0
 20 21  2  0
 13 22  1  0
 10 23  1  0
 22 23  1  0
  7 24  1  0
  4 25  1  0
 24 25  1  0
M  END
