piperidine-amides-28912-covalent
     RDKit          3D

 27 30  0  0  0  0  0  0  0  0999 V2000
    7.0250   -3.3610   19.3720 C   0  0  0  0  0  0  0  0  0  0  0  0
    6.2780   -4.1880   20.3210 C   0  0  0  0  0  0  0  0  0  0  0  0
    5.2560   -4.7620   19.9310 O   0  0  0  0  0  0  0  0  0  0  0  0
    6.7440   -4.3510   21.6420 N   0  0  0  0  0  0  0  0  0  0  0  0
    7.5320   -3.2970   22.1950 C   0  0  0  0  0  0  0  0  0  0  0  0
    7.3640   -3.2560   23.6760 C   0  0  0  0  0  0  0  0  0  0  0  0
    6.0650   -3.8940   24.0390 C   0  0  0  0  0  0  0  0  0  0  0  0
    5.6320   -3.5260   25.4420 C   0  0  0  0  0  0  0  0  0  0  0  0
    4.5670   -2.9170   25.4940 O   0  0  0  0  0  0  0  0  0  0  0  0
    6.3900   -3.8600   26.5780 N   0  0  0  0  0  0  0  0  0  0  0  0
    7.1190   -5.0890   26.6610 C   0  0  0  0  0  0  0  0  0  0  0  0
    7.3700   -5.5720   27.9610 C   0  0  0  0  0  0  0  0  0  0  0  0
    6.3280   -5.4150   28.8010 C   0  0  0  0  0  0  0  0  0  0  0  0
    5.9670   -6.4320   29.7520 N   0  0  0  0  0  0  0  0  0  0  0  0
    4.9420   -6.3270   30.5970 N   0  0  0  0  0  0  0  0  0  0  0  0
    4.1660   -5.2520   30.6110 C   0  0  0  0  0  0  0  0  0  0  0  0
    2.9860   -5.0000   31.5000 C   0  0  0  0  0  0  0  0  0  0  0  0
    3.1370   -4.9740   33.0200 C   0  0  0  0  0  0  0  0  0  0  0  0
    2.0480   -4.7390   34.0030 C   0  0  0  0  0  0  0  0  0  0  0  0
    0.8260   -4.5340   33.4530 N   0  0  0  0  0  0  0  0  0  0  0  0
    0.5710   -4.5390   32.0060 C   0  0  0  0  0  0  0  0  0  0  0  0
    1.7050   -4.7830   30.9790 C   0  0  0  0  0  0  0  0  0  0  0  0
    4.4690   -4.2340   29.7120 C   0  0  0  0  0  0  0  0  0  0  0  0
    5.5190   -4.3290   28.8450 C   0  0  0  0  0  0  0  0  0  0  0  0
    5.9180   -3.2710   27.8330 C   0  0  0  0  0  0  0  0  0  0  0  0
    6.2440   -5.3900   23.7940 C   0  0  0  0  0  0  0  0  0  0  0  0
    6.6060   -5.6040   22.3300 C   0  0  0  0  0  0  0  0  0  0  0  0
  1  2  1  0
  2  3  2  0
  2  4  1  0
  4  5  1  0
  5  6  1  0
  6  7  1  0
  7  8  1  0
  8  9  2  0
  8 10  1  0
 10 11  1  0
 11 12  1  0
 12 13  1  0
 13 14  2  0
 14 15  1  0
 15 16  2  0
 16 17  1  0
 17 18  2  0
 18 19  1  0
 19 20  2  0
 20 21  1  0
 17 22  1  0
 21 22  2  0
 16 23  1  0
 13 24  1  0
 23 24  2  0
 10 25  1  0
 24 25  1  0
  7 26  1  0
  4 27  1  0
 26 27  1  0
M  END
