piperidine-amides-31571-covalent
     RDKit          3D

 27 29  0  0  0  0  0  0  0  0999 V2000
    7.0760   -3.3970   19.3200 C   0  0  0  0  0  0  0  0  0  0  0  0
    6.3870   -4.1460   20.3460 C   0  0  0  0  0  0  0  0  0  0  0  0
    5.3570   -4.7940   19.9800 O   0  0  0  0  0  0  0  0  0  0  0  0
    6.8290   -4.2410   21.6900 N   0  0  0  0  0  0  0  0  0  0  0  0
    6.6600   -5.5320   22.3800 C   0  0  0  0  0  0  0  0  0  0  0  0
    5.5460   -5.1020   23.3950 C   0  0  0  0  0  0  0  0  0  0  0  0
    6.1240   -3.9640   24.2150 C   0  0  0  0  0  0  0  0  0  0  0  0
    5.0190   -3.5980   25.3090 C   0  0  0  0  0  0  0  0  0  0  0  0
    4.0420   -4.3060   25.1630 O   0  0  0  0  0  0  0  0  0  0  0  0
    5.3980   -2.6550   26.0590 N   0  0  0  0  0  0  0  0  0  0  0  0
    5.5300   -1.4150   26.6150 C   0  0  0  0  0  0  0  0  0  0  0  0
    6.2910   -0.3370   26.4200 C   0  0  0  0  0  0  0  0  0  0  0  0
    6.2290    0.8510   27.1750 C   0  0  0  0  0  0  0  0  0  0  0  0
    5.3570    1.2010   28.3170 C   0  0  0  0  0  0  0  0  0  0  0  0
    4.1620    1.2210   29.6110 Cl  0  0  0  0  0  0  0  0  0  0  0  0
    4.6860   -0.0510   28.2920 N   0  0  0  0  0  0  0  0  0  0  0  0
    4.6790   -1.2060   27.6240 N   0  0  0  0  0  0  0  0  0  0  0  0
    6.3500   -3.1000   27.0100 C   0  0  2  0  0  0  0  0  0  0  0  0
    6.0420   -4.0650   27.9960 C   0  0  0  0  0  0  0  0  0  0  0  0
    6.1090   -2.3890   28.3400 C   0  0  0  0  0  0  0  0  0  0  0  0
    4.6460   -2.5960   28.8050 C   0  0  0  0  0  0  0  0  0  0  0  0
    4.2860   -1.8770   30.1520 C   0  0  0  0  0  0  0  0  0  0  0  0
    5.2570   -1.1590   30.7800 C   0  0  0  0  0  0  0  0  0  0  0  0
    6.5160   -1.0550   30.2720 C   0  0  0  0  0  0  0  0  0  0  0  0
    6.9390   -1.6300   29.1200 C   0  0  0  0  0  0  0  0  0  0  0  0
    6.7220   -2.7900   23.4880 C   0  0  0  0  0  0  0  0  0  0  0  0
    7.5040   -3.1820   22.3910 C   0  0  0  0  0  0  0  0  0  0  0  0
  1  2  1  0
  2  3  2  0
  2  4  1  0
  4  5  1  0
  5  6  1  0
  6  7  1  0
  7  8  1  0
  8  9  2  0
  8 10  1  0
 10 11  1  0
 11 12  2  0
 12 13  1  0
 13 14  2  0
 14 15  1  0
 14 16  1  0
 11 17  1  0
 16 17  2  0
 10 18  1  0
 18 19  1  1
 18 20  1  0
 20 21  2  0
 21 22  1  0
 22 23  2  0
 23 24  1  0
 20 25  1  0
 24 25  2  0
  7 26  1  0
  4 27  1  0
 26 27  1  0
M  END
