piperidine-amides-8326-covalent
     RDKit          3D

 25 27  0  0  0  0  0  0  0  0999 V2000
    7.0350   -3.3290   19.3540 C   0  0  0  0  0  0  0  0  0  0  0  0
    6.3770   -4.1690   20.3550 C   0  0  0  0  0  0  0  0  0  0  0  0
    5.4030   -4.8510   19.9850 O   0  0  0  0  0  0  0  0  0  0  0  0
    6.8630   -4.2280   21.6920 N   0  0  0  0  0  0  0  0  0  0  0  0
    6.6300   -5.4390   22.4390 C   0  0  0  0  0  0  0  0  0  0  0  0
    6.1690   -5.1440   23.8480 C   0  0  0  0  0  0  0  0  0  0  0  0
    6.1020   -3.6400   24.0170 C   0  0  0  0  0  0  0  0  0  0  0  0
    5.6030   -3.2430   25.3810 C   0  0  0  0  0  0  0  0  0  0  0  0
    4.3990   -3.4140   25.5540 O   0  0  0  0  0  0  0  0  0  0  0  0
    6.4700   -2.7080   26.3450 N   0  0  0  0  0  0  0  0  0  0  0  0
    6.3680   -1.3410   26.7720 C   0  0  0  0  0  0  0  0  0  0  0  0
    6.0210   -0.3080   25.9220 C   0  0  0  0  0  0  0  0  0  0  0  0
    5.9290    1.0040   26.3480 C   0  0  0  0  0  0  0  0  0  0  0  0
    6.1630    1.4670   27.6390 C   0  0  0  0  0  0  0  0  0  0  0  0
    6.5390    0.4110   28.6070 C   0  0  0  0  0  0  0  0  0  0  0  0
    6.6430   -1.0480   28.1610 C   0  0  0  0  0  0  0  0  0  0  0  0
    6.9870   -1.8850   29.1860 N   0  0  0  0  0  0  0  0  0  0  0  0
    7.1510   -0.9660   30.2910 C   0  0  0  0  0  0  0  0  0  0  0  0
    5.7800   -0.6190   30.8420 C   0  0  0  0  0  0  0  0  0  0  0  0
    4.6800   -1.2520   29.9540 C   0  0  0  0  0  0  0  0  0  0  0  0
    4.8170   -2.5830   29.6450 C   0  0  0  0  0  0  0  0  0  0  0  0
    6.0900   -2.9890   29.3160 C   0  0  0  0  0  0  0  0  0  0  0  0
    6.3560   -4.2100   29.1730 O   0  0  0  0  0  0  0  0  0  0  0  0
    7.3970   -2.9990   23.6940 C   0  0  0  0  0  0  0  0  0  0  0  0
    7.6950   -3.1770   22.2390 C   0  0  0  0  0  0  0  0  0  0  0  0
  1  2  1  0
  2  3  2  0
  2  4  1  0
  4  5  1  0
  5  6  1  0
  6  7  1  0
  7  8  1  0
  8  9  2  0
  8 10  1  0
 10 11  1  0
 11 12  2  0
 12 13  1  0
 13 14  2  0
 14 15  1  0
 11 16  1  0
 15 16  2  0
 16 17  1  0
 17 18  1  0
 18 19  1  0
 19 20  1  0
 20 21  1  0
 17 22  1  0
 21 22  1  0
 22 23  2  0
  7 24  1  0
  4 25  1  0
 24 25  1  0
M  END
