piperidine-amides-6656-covalent
     RDKit          3D

 24 25  0  0  0  0  0  0  0  0999 V2000
    7.0570   -3.2940   19.2790 C   0  0  0  0  0  0  0  0  0  0  0  0
    6.3380   -4.0870   20.2910 C   0  0  0  0  0  0  0  0  0  0  0  0
    5.3410   -4.7630   19.9540 O   0  0  0  0  0  0  0  0  0  0  0  0
    6.7700   -4.1370   21.6270 N   0  0  0  0  0  0  0  0  0  0  0  0
    7.6870   -3.1130   22.1070 C   0  0  0  0  0  0  0  0  0  0  0  0
    7.5130   -3.0460   23.6230 C   0  0  0  0  0  0  0  0  0  0  0  0
    6.1100   -3.5390   23.8550 C   0  0  0  0  0  0  0  0  0  0  0  0
    5.6220   -3.1060   25.1790 C   0  0  0  0  0  0  0  0  0  0  0  0
    4.5930   -2.4080   25.2250 O   0  0  0  0  0  0  0  0  0  0  0  0
    6.2940   -3.4870   26.3550 N   0  0  0  0  0  0  0  0  0  0  0  0
    5.8410   -4.6510   27.0620 C   0  0  0  0  0  0  0  0  0  0  0  0
    6.2280   -4.5520   28.5180 C   0  0  0  0  0  0  0  0  0  0  0  0
    5.1420   -5.1660   29.2630 N   0  0  0  0  0  0  0  0  0  0  0  0
    4.0320   -4.4260   29.5030 N   0  0  0  0  0  0  0  0  0  0  0  0
    3.1210   -5.1970   30.2180 C   0  0  0  0  0  0  0  0  0  0  0  0
    1.8660   -4.9090   30.6950 C   0  0  0  0  0  0  0  0  0  0  0  0
    0.8820   -5.4090   29.8570 F   0  0  0  0  0  0  0  0  0  0  0  0
    1.6950   -5.5010   31.9370 F   0  0  0  0  0  0  0  0  0  0  0  0
    1.7410   -3.5450   30.7170 F   0  0  0  0  0  0  0  0  0  0  0  0
    3.7550   -6.3780   30.3660 C   0  0  0  0  0  0  0  0  0  0  0  0
    4.9730   -6.4490   29.8240 C   0  0  0  0  0  0  0  0  0  0  0  0
    5.9760   -7.5750   29.7780 C   0  0  0  0  0  0  0  0  0  0  0  0
    5.9590   -5.0090   23.6330 C   0  0  0  0  0  0  0  0  0  0  0  0
    6.6860   -5.3810   22.3720 C   0  0  0  0  0  0  0  0  0  0  0  0
  1  2  1  0
  2  3  2  0
  2  4  1  0
  4  5  1  0
  5  6  1  0
  6  7  1  0
  7  8  1  0
  8  9  2  0
  8 10  1  0
 10 11  1  0
 11 12  1  0
 12 13  1  0
 13 14  1  0
 14 15  2  0
 15 16  1  0
 16 17  1  0
 16 18  1  0
 16 19  1  0
 15 20  1  0
 13 21  1  0
 20 21  2  0
 21 22  1  0
  7 23  1  0
  4 24  1  0
 23 24  1  0
M  END
