piperidine-amides-21534-covalent
     RDKit          3D

 23 25  0  0  0  0  0  0  0  0999 V2000
    7.0190   -3.3960   19.4160 C   0  0  0  0  0  0  0  0  0  0  0  0
    6.3490   -4.2590   20.3890 C   0  0  0  0  0  0  0  0  0  0  0  0
    5.3420   -4.8870   19.9800 O   0  0  0  0  0  0  0  0  0  0  0  0
    6.8550   -4.3970   21.6830 N   0  0  0  0  0  0  0  0  0  0  0  0
    6.6700   -5.6340   22.4140 C   0  0  0  0  0  0  0  0  0  0  0  0
    5.8640   -5.3290   23.6490 C   0  0  0  0  0  0  0  0  0  0  0  0
    5.7790   -3.8480   23.8490 C   0  0  0  0  0  0  0  0  0  0  0  0
    5.2230   -3.4650   25.1800 C   0  0  0  0  0  0  0  0  0  0  0  0
    4.4520   -2.4880   25.2090 O   0  0  0  0  0  0  0  0  0  0  0  0
    5.4790   -4.0960   26.4110 N   0  0  0  0  0  0  0  0  0  0  0  0
    6.8540   -4.2780   26.7400 C   0  0  0  0  0  0  0  0  0  0  0  0
    6.9040   -5.0000   28.0440 C   0  0  0  0  0  0  0  0  0  0  0  0
    5.7260   -4.7790   28.5770 C   0  0  2  0  0  0  0  0  0  0  0  0
    4.8110   -5.7930   28.7520 C   0  0  0  0  0  0  0  0  0  0  0  0
    4.3240   -6.5820   27.7380 C   0  0  0  0  0  0  0  0  0  0  0  0
    3.4110   -7.5620   28.0120 C   0  0  0  0  0  0  0  0  0  0  0  0
    2.9530   -7.7950   29.2910 C   0  0  0  0  0  0  0  0  0  0  0  0
    3.3900   -7.0190   30.5170 C   0  0  0  0  0  0  0  0  0  0  0  0
    2.9430   -7.2440   31.7780 F   0  0  0  0  0  0  0  0  0  0  0  0
    4.4060   -5.9570   30.0670 C   0  0  0  0  0  0  0  0  0  0  0  0
    5.0420   -3.8400   27.8240 C   0  0  0  0  0  0  0  0  0  0  0  0
    7.1400   -3.2550   23.6570 C   0  0  0  0  0  0  0  0  0  0  0  0
    7.5920   -3.3180   22.3550 C   0  0  0  0  0  0  0  0  0  0  0  0
  1  2  1  0
  2  3  2  0
  2  4  1  0
  4  5  1  0
  5  6  1  0
  6  7  1  0
  7  8  1  0
  8  9  2  0
  8 10  1  0
 10 11  1  0
 11 12  1  0
 12 13  1  0
 13 14  1  6
 14 15  2  0
 15 16  1  0
 16 17  2  0
 17 18  1  0
 18 19  1  0
 14 20  1  0
 18 20  2  0
 10 21  1  0
 13 21  1  0
  7 22  1  0
  4 23  1  0
 22 23  1  0
M  END
