piperidine-amides-11552-covalent
     RDKit          3D

 19 19  0  0  0  0  0  0  0  0999 V2000
    7.1190   -3.2730   19.1630 C   0  0  0  0  0  0  0  0  0  0  0  0
    6.3600   -4.0030   20.1830 C   0  0  0  0  0  0  0  0  0  0  0  0
    5.2840   -4.5390   19.8760 O   0  0  0  0  0  0  0  0  0  0  0  0
    6.8470   -4.1450   21.4860 N   0  0  0  0  0  0  0  0  0  0  0  0
    7.6880   -3.1290   22.0750 C   0  0  0  0  0  0  0  0  0  0  0  0
    6.9320   -2.6480   23.2740 C   0  0  0  0  0  0  0  0  0  0  0  0
    6.5440   -3.7950   24.1510 C   0  0  0  0  0  0  0  0  0  0  0  0
    5.8620   -3.3440   25.3860 C   0  0  0  0  0  0  0  0  0  0  0  0
    4.6060   -3.1570   25.4130 O   0  0  0  0  0  0  0  0  0  0  0  0
    6.6000   -3.0870   26.5560 N   0  0  0  0  0  0  0  0  0  0  0  0
    6.1550   -3.4350   27.9290 C   0  0  0  0  0  0  0  0  0  0  0  0
    5.7780   -4.8680   28.1080 C   0  0  1  0  0  0  0  0  0  0  0  0
    6.7750   -5.6990   28.8070 C   0  0  0  0  0  0  0  0  0  0  0  0
    4.7380   -5.0770   28.7900 O   0  0  0  0  0  0  0  0  0  0  0  0
    5.5400   -5.6030   26.8170 C   0  0  0  0  0  0  0  0  0  0  0  0
    4.6220   -6.7880   27.0540 C   0  0  0  0  0  0  0  0  0  0  0  0
    3.5160   -6.4900   27.6380 O   0  0  0  0  0  0  0  0  0  0  0  0
    5.7100   -4.7760   23.3980 C   0  0  0  0  0  0  0  0  0  0  0  0
    6.3050   -5.2220   22.2500 C   0  0  0  0  0  0  0  0  0  0  0  0
  1  2  1  0
  2  3  2  0
  2  4  1  0
  4  5  1  0
  5  6  1  0
  6  7  1  0
  7  8  1  0
  8  9  2  0
  8 10  1  0
 10 11  1  0
 11 12  1  0
 12 13  1  1
 12 14  1  0
 12 15  1  0
 15 16  1  0
 16 17  1  0
  7 18  1  0
  4 19  1  0
 18 19  1  0
M  END
