piperidine-amides-27056-covalent
     RDKit          3D

 25 27  0  0  0  0  0  0  0  0999 V2000
    7.0620   -3.3500   19.3490 C   0  0  0  0  0  0  0  0  0  0  0  0
    6.4050   -4.2110   20.3350 C   0  0  0  0  0  0  0  0  0  0  0  0
    5.3420   -4.7700   19.9600 O   0  0  0  0  0  0  0  0  0  0  0  0
    6.9780   -4.4370   21.5930 N   0  0  0  0  0  0  0  0  0  0  0  0
    6.6650   -5.6150   22.3600 C   0  0  0  0  0  0  0  0  0  0  0  0
    5.8490   -5.1860   23.5500 C   0  0  0  0  0  0  0  0  0  0  0  0
    6.4810   -4.0550   24.3220 C   0  0  0  0  0  0  0  0  0  0  0  0
    5.5320   -3.6190   25.3840 C   0  0  0  0  0  0  0  0  0  0  0  0
    4.6730   -2.7630   25.0980 O   0  0  0  0  0  0  0  0  0  0  0  0
    5.5830   -4.1400   26.6950 N   0  0  0  0  0  0  0  0  0  0  0  0
    6.8750   -4.3620   27.1350 C   0  0  0  0  0  0  0  0  0  0  0  0
    6.9420   -5.3370   28.2730 C   0  0  0  0  0  0  0  0  0  0  0  0
    6.1080   -5.1460   29.1790 O   0  0  0  0  0  0  0  0  0  0  0  0
    4.8850   -4.7310   28.6820 C   0  0  0  0  0  0  0  0  0  0  0  0
    4.8000   -3.6440   27.8050 C   0  0  2  0  0  0  0  0  0  0  0  0
    3.5190   -3.2350   27.4330 C   0  0  0  0  0  0  0  0  0  0  0  0
    3.0740   -2.0440   27.0880 N   0  0  0  0  0  0  0  0  0  0  0  0
    1.7650   -2.1290   26.8180 O   0  0  0  0  0  0  0  0  0  0  0  0
    1.4480   -3.4960   27.0330 C   0  0  0  0  0  0  0  0  0  0  0  0
    0.1400   -3.8860   26.8270 C   0  0  0  0  0  0  0  0  0  0  0  0
   -0.2810   -4.7160   27.6680 O   0  0  0  0  0  0  0  0  0  0  0  0
   -0.2830   -4.4950   29.0650 C   0  0  0  0  0  0  0  0  0  0  0  0
    2.3980   -4.1150   27.3730 N   0  0  0  0  0  0  0  0  0  0  0  0
    6.7750   -2.8870   23.4310 C   0  0  0  0  0  0  0  0  0  0  0  0
    7.6040   -3.2840   22.2360 C   0  0  0  0  0  0  0  0  0  0  0  0
  1  2  1  0
  2  3  2  0
  2  4  1  0
  4  5  1  0
  5  6  1  0
  6  7  1  0
  7  8  1  0
  8  9  2  0
  8 10  1  0
 10 11  1  0
 11 12  1  0
 12 13  1  0
 13 14  1  0
 10 15  1  0
 14 15  1  0
 15 16  1  6
 16 17  2  0
 17 18  1  0
 18 19  1  0
 19 20  1  0
 20 21  1  0
 21 22  1  0
 16 23  1  0
 19 23  2  0
  7 24  1  0
  4 25  1  0
 24 25  1  0
M  END
