piperidine-amides-32901-covalent
     RDKit          3D

 29 32  0  0  0  0  0  0  0  0999 V2000
    7.0460   -3.3530   19.4010 C   0  0  0  0  0  0  0  0  0  0  0  0
    6.3670   -4.2550   20.3690 C   0  0  0  0  0  0  0  0  0  0  0  0
    5.3660   -4.8840   19.9900 O   0  0  0  0  0  0  0  0  0  0  0  0
    6.8940   -4.4220   21.6740 N   0  0  0  0  0  0  0  0  0  0  0  0
    6.5220   -5.5460   22.4760 C   0  0  0  0  0  0  0  0  0  0  0  0
    5.5200   -5.0050   23.5030 C   0  0  0  0  0  0  0  0  0  0  0  0
    6.1930   -3.9530   24.3350 C   0  0  0  0  0  0  0  0  0  0  0  0
    5.2640   -3.3500   25.3440 C   0  0  0  0  0  0  0  0  0  0  0  0
    4.4230   -2.5910   24.8680 O   0  0  0  0  0  0  0  0  0  0  0  0
    5.3330   -3.6160   26.7350 N   0  0  0  0  0  0  0  0  0  0  0  0
    6.4710   -3.6220   27.4840 C   0  0  0  0  0  0  0  0  0  0  0  0
    6.7570   -4.7440   28.2280 C   0  0  0  0  0  0  0  0  0  0  0  0
    5.7160   -5.3120   28.8870 C   0  0  0  0  0  0  0  0  0  0  0  0
    4.4950   -4.6920   28.7140 C   0  0  0  0  0  0  0  0  0  0  0  0
    4.1950   -3.7680   27.5720 C   0  0  0  0  0  0  0  0  0  0  0  0
    2.8840   -3.2490   27.5460 N   0  0  0  0  0  0  0  0  0  0  0  0
    1.9970   -3.3730   28.6830 C   0  0  0  0  0  0  0  0  0  0  0  0
    0.7320   -2.9060   28.7070 N   0  0  0  0  0  0  0  0  0  0  0  0
   -0.1530   -3.7710   29.2380 C   0  0  0  0  0  0  0  0  0  0  0  0
   -1.4520   -3.3360   29.3980 C   0  0  0  0  0  0  0  0  0  0  0  0
   -1.8500   -2.5830   28.3720 N   0  0  0  0  0  0  0  0  0  0  0  0
   -3.1480   -2.2130   28.3270 C   0  0  0  0  0  0  0  0  0  0  0  0
   -0.9620   -2.1780   27.4280 C   0  0  0  0  0  0  0  0  0  0  0  0
    0.3150   -1.8500   27.8060 C   0  0  0  0  0  0  0  0  0  0  0  0
    2.5550   -4.0120   29.7520 N   0  0  0  0  0  0  0  0  0  0  0  0
    3.5110   -4.9370   29.6050 C   0  0  0  0  0  0  0  0  0  0  0  0
    3.4590   -5.9840   30.3060 O   0  0  0  0  0  0  0  0  0  0  0  0
    6.8960   -2.8630   23.5640 C   0  0  0  0  0  0  0  0  0  0  0  0
    7.6620   -3.3930   22.3430 C   0  0  0  0  0  0  0  0  0  0  0  0
  1  2  1  0
  2  3  2  0
  2  4  1  0
  4  5  1  0
  5  6  1  0
  6  7  1  0
  7  8  1  0
  8  9  2  0
  8 10  1  0
 10 11  1  0
 11 12  1  0
 12 13  1  0
 13 14  1  0
 10 15  1  0
 14 15  2  0
 15 16  1  0
 16 17  2  0
 17 18  1  0
 18 19  1  0
 19 20  1  0
 20 21  1  0
 21 22  1  0
 21 23  1  0
 18 24  1  0
 23 24  1  0
 17 25  1  0
 14 26  1  0
 25 26  1  0
 26 27  2  0
  7 28  1  0
  4 29  1  0
 28 29  1  0
M  END
