piperidine-amides-8062-covalent
     RDKit          3D

 26 27  0  0  0  0  0  0  0  0999 V2000
    7.0740   -3.3530   19.3260 C   0  0  0  0  0  0  0  0  0  0  0  0
    6.4260   -4.2090   20.3150 C   0  0  0  0  0  0  0  0  0  0  0  0
    5.3890   -4.8130   19.9780 O   0  0  0  0  0  0  0  0  0  0  0  0
    7.0130   -4.3790   21.5950 N   0  0  0  0  0  0  0  0  0  0  0  0
    7.6710   -3.2560   22.1900 C   0  0  0  0  0  0  0  0  0  0  0  0
    6.7780   -2.7030   23.2530 C   0  0  0  0  0  0  0  0  0  0  0  0
    6.5690   -3.8090   24.2640 C   0  0  0  0  0  0  0  0  0  0  0  0
    5.7820   -3.2640   25.4150 C   0  0  0  0  0  0  0  0  0  0  0  0
    4.5790   -3.0990   25.2170 O   0  0  0  0  0  0  0  0  0  0  0  0
    6.4350   -2.9870   26.6110 N   0  0  0  0  0  0  0  0  0  0  0  0
    6.4000   -1.6850   27.1990 C   0  0  0  0  0  0  0  0  0  0  0  0
    5.8660   -0.4600   26.7210 C   0  0  0  0  0  0  0  0  0  0  0  0
    5.8810    0.7540   27.3760 C   0  0  0  0  0  0  0  0  0  0  0  0
    5.1590    2.1870   26.6130 Cl  0  0  0  0  0  0  0  0  0  0  0  0
    6.4500    0.8760   28.6210 C   0  0  0  0  0  0  0  0  0  0  0  0
    6.4010    2.1550   29.1740 O   0  0  0  0  0  0  0  0  0  0  0  0
    7.2830    3.0580   28.6040 C   0  0  0  0  0  0  0  0  0  0  0  0
    8.4730    3.8350   29.2310 C   0  0  0  0  0  0  0  0  0  0  0  0
    8.9410    3.6400   30.5540 N   0  0  0  0  0  0  0  0  0  0  0  0
    8.0640    2.8650   31.3820 C   0  0  0  0  0  0  0  0  0  0  0  0
   10.3210    3.2030   30.6120 C   0  0  0  0  0  0  0  0  0  0  0  0
    7.0120   -0.2330   29.2230 C   0  0  0  0  0  0  0  0  0  0  0  0
    7.7460   -0.1460   30.8150 Cl  0  0  0  0  0  0  0  0  0  0  0  0
    7.0040   -1.4500   28.5770 C   0  0  0  0  0  0  0  0  0  0  0  0
    5.7600   -4.8980   23.6100 C   0  0  0  0  0  0  0  0  0  0  0  0
    6.4790   -5.4410   22.4030 C   0  0  0  0  0  0  0  0  0  0  0  0
  1  2  1  0
  2  3  2  0
  2  4  1  0
  4  5  1  0
  5  6  1  0
  6  7  1  0
  7  8  1  0
  8  9  2  0
  8 10  1  0
 10 11  1  0
 11 12  2  0
 12 13  1  0
 13 14  1  0
 13 15  2  0
 15 16  1  0
 16 17  1  0
 17 18  1  0
 18 19  1  0
 19 20  1  0
 19 21  1  0
 15 22  1  0
 22 23  1  0
 11 24  1  0
 22 24  2  0
  7 25  1  0
  4 26  1  0
 25 26  1  0
M  END
