piperidine-amides-2944-covalent
     RDKit          3D

 23 24  0  0  0  0  0  0  0  0999 V2000
    7.0950   -3.3370   19.2330 C   0  0  0  0  0  0  0  0  0  0  0  0
    6.3820   -4.1350   20.2200 C   0  0  0  0  0  0  0  0  0  0  0  0
    5.3140   -4.6630   19.9290 O   0  0  0  0  0  0  0  0  0  0  0  0
    6.9620   -4.3680   21.5080 N   0  0  0  0  0  0  0  0  0  0  0  0
    7.7410   -3.3200   22.1220 C   0  0  0  0  0  0  0  0  0  0  0  0
    6.9680   -2.7170   23.2420 C   0  0  0  0  0  0  0  0  0  0  0  0
    6.5190   -3.8490   24.1390 C   0  0  0  0  0  0  0  0  0  0  0  0
    5.7860   -3.2600   25.2670 C   0  0  0  0  0  0  0  0  0  0  0  0
    4.5470   -3.1410   25.3140 O   0  0  0  0  0  0  0  0  0  0  0  0
    6.5870   -2.8220   26.3240 N   0  0  0  0  0  0  0  0  0  0  0  0
    6.3240   -1.5710   26.9600 C   0  0  0  0  0  0  0  0  0  0  0  0
    6.3230   -0.2460   26.3160 C   0  0  0  0  0  0  0  0  0  0  0  0
    6.0470    0.6940   27.2150 N   0  0  0  0  0  0  0  0  0  0  0  0
    5.9780    2.0090   26.9450 C   0  0  0  0  0  0  0  0  0  0  0  0
    5.8640    0.0860   28.3920 N   0  0  0  0  0  0  0  0  0  0  0  0
    6.0100   -1.3770   28.3640 C   0  0  0  0  0  0  0  0  0  0  0  0
    5.8810   -2.7020   29.5340 S   0  0  0  0  0  0  0  0  0  0  0  0
    6.3870   -4.2310   28.7030 C   0  0  0  0  0  0  0  0  0  0  0  0
    5.5810   -5.3500   29.1650 C   0  0  0  0  0  0  0  0  0  0  0  0
    6.2370   -6.5200   29.4710 C   0  0  0  0  0  0  0  0  0  0  0  0
    4.5460   -5.5070   28.3090 C   0  0  0  0  0  0  0  0  0  0  0  0
    5.8090   -4.9870   23.5040 C   0  0  0  0  0  0  0  0  0  0  0  0
    6.4470   -5.4420   22.2770 C   0  0  0  0  0  0  0  0  0  0  0  0
  1  2  1  0
  2  3  2  0
  2  4  1  0
  4  5  1  0
  5  6  1  0
  6  7  1  0
  7  8  1  0
  8  9  2  0
  8 10  1  0
 10 11  1  0
 11 12  2  0
 12 13  1  0
 13 14  1  0
 13 15  1  0
 11 16  1  0
 15 16  2  0
 16 17  1  0
 17 18  1  0
 18 19  1  0
 19 20  1  0
 19 21  1  0
  7 22  1  0
  4 23  1  0
 22 23  1  0
M  END
