piperidine-amides-19494-covalent
     RDKit          3D

 22 23  0  0  0  0  0  0  0  0999 V2000
    7.1370   -3.3370   19.4380 C   0  0  0  0  0  0  0  0  0  0  0  0
    6.3780   -4.1060   20.4060 C   0  0  0  0  0  0  0  0  0  0  0  0
    5.4110   -4.8180   19.9810 O   0  0  0  0  0  0  0  0  0  0  0  0
    6.7110   -4.0990   21.7850 N   0  0  0  0  0  0  0  0  0  0  0  0
    7.7460   -3.0870   22.1530 C   0  0  0  0  0  0  0  0  0  0  0  0
    7.6350   -3.0230   23.7190 C   0  0  0  0  0  0  0  0  0  0  0  0
    6.2370   -3.4970   23.9830 C   0  0  0  0  0  0  0  0  0  0  0  0
    5.4840   -2.8540   25.2440 C   0  0  0  0  0  0  0  0  0  0  0  0
    4.6300   -2.1030   24.8060 O   0  0  0  0  0  0  0  0  0  0  0  0
    5.8870   -3.2480   26.4040 N   0  0  0  0  0  0  0  0  0  0  0  0
    6.1870   -4.0340   27.4840 C   0  0  0  0  0  0  0  0  0  0  0  0
    6.3290   -5.3760   27.7260 C   0  0  0  0  0  0  0  0  0  0  0  0
    5.3500   -6.2820   27.2550 C   0  0  0  0  0  0  0  0  0  0  0  0
    5.7510   -2.0920   27.3640 C   0  0  0  0  0  0  0  0  0  0  0  0
    7.0590   -1.8850   28.1510 C   0  0  0  0  0  0  0  0  0  0  0  0
    6.5330   -0.9740   29.0720 C   0  0  0  0  0  0  0  0  0  0  0  0
    5.3000   -1.3430   29.8030 C   0  0  0  0  0  0  0  0  0  0  0  0
    5.3760   -0.0130   30.5170 C   0  0  0  0  0  0  0  0  0  0  0  0
    6.5470    0.7930   30.0850 C   0  0  0  0  0  0  0  0  0  0  0  0
    7.1660    0.1650   29.2470 O   0  0  0  0  0  0  0  0  0  0  0  0
    6.1120   -5.0170   23.8060 C   0  0  0  0  0  0  0  0  0  0  0  0
    6.6400   -5.3390   22.5660 C   0  0  0  0  0  0  0  0  0  0  0  0
  1  2  1  0
  2  3  2  0
  2  4  1  0
  4  5  1  0
  5  6  1  0
  6  7  1  0
  7  8  1  0
  8  9  2  0
  8 10  1  0
 10 11  1  0
 11 12  1  0
 12 13  2  3
 10 14  1  0
 14 15  1  0
 15 16  1  0
 16 17  2  0
 17 18  1  0
 18 19  2  0
 16 20  1  0
 19 20  1  0
  7 21  1  0
  4 22  1  0
 21 22  1  0
M  END
