piperidine-amides-9886-covalent
     RDKit          3D

 27 28  0  0  0  0  0  0  0  0999 V2000
    7.0920   -3.2550   19.1990 C   0  0  0  0  0  0  0  0  0  0  0  0
    6.3650   -4.0150   20.2190 C   0  0  0  0  0  0  0  0  0  0  0  0
    5.2760   -4.5330   19.8720 O   0  0  0  0  0  0  0  0  0  0  0  0
    6.9050   -4.1800   21.4920 N   0  0  0  0  0  0  0  0  0  0  0  0
    7.6910   -3.1440   22.1210 C   0  0  0  0  0  0  0  0  0  0  0  0
    6.9550   -2.6720   23.3380 C   0  0  0  0  0  0  0  0  0  0  0  0
    6.6100   -3.8230   24.2390 C   0  0  0  0  0  0  0  0  0  0  0  0
    5.8500   -3.3240   25.4050 C   0  0  0  0  0  0  0  0  0  0  0  0
    4.6150   -3.1700   25.2830 O   0  0  0  0  0  0  0  0  0  0  0  0
    6.4560   -3.0090   26.6380 N   0  0  0  0  0  0  0  0  0  0  0  0
    6.1090   -3.7170   27.8470 C   0  0  0  0  0  0  0  0  0  0  0  0
    5.7270   -2.7570   28.9640 C   0  0  0  0  0  0  0  0  0  0  0  0
    6.4610   -1.6220   29.2450 C   0  0  0  0  0  0  0  0  0  0  0  0
    6.1270   -0.7400   30.2470 C   0  0  0  0  0  0  0  0  0  0  0  0
    5.0040   -1.0090   31.0010 C   0  0  0  0  0  0  0  0  0  0  0  0
    4.2610   -2.1350   30.7370 C   0  0  0  0  0  0  0  0  0  0  0  0
    4.6010   -3.0210   29.7310 C   0  0  0  0  0  0  0  0  0  0  0  0
    3.7620   -4.2590   29.4570 C   0  0  0  0  0  0  0  0  0  0  0  0
    2.6200   -4.6820   30.7230 S   0  0  0  0  0  0  0  0  0  0  0  0
    1.5490   -5.5610   30.1880 O   0  0  0  0  0  0  0  0  0  0  0  0
    2.0690   -3.5120   31.4570 O   0  0  0  0  0  0  0  0  0  0  0  0
    3.4480   -5.6450   31.9090 N   0  0  0  0  0  0  0  0  0  0  0  0
    3.8600   -6.9110   31.4160 C   0  0  0  0  0  0  0  0  0  0  0  0
    3.4690   -8.0060   32.3840 C   0  0  0  0  0  0  0  0  0  0  0  0
    5.4320   -6.9770   31.2540 C   0  0  0  0  0  0  0  0  0  0  0  0
    5.8550   -4.9150   23.5620 C   0  0  0  0  0  0  0  0  0  0  0  0
    6.5120   -5.3220   22.2640 C   0  0  0  0  0  0  0  0  0  0  0  0
  1  2  1  0
  2  3  2  0
  2  4  1  0
  4  5  1  0
  5  6  1  0
  6  7  1  0
  7  8  1  0
  8  9  2  0
  8 10  1  0
 10 11  1  0
 11 12  1  0
 12 13  2  0
 13 14  1  0
 14 15  2  0
 15 16  1  0
 12 17  1  0
 16 17  2  0
 17 18  1  0
 18 19  1  0
 19 20  2  0
 19 21  2  0
 19 22  1  0
 22 23  1  0
 23 24  1  0
 23 25  1  0
  7 26  1  0
  4 27  1  0
 26 27  1  0
M  END
