piperidine-amides-2111-covalent
     RDKit          3D

 24 26  0  0  0  0  0  0  0  0999 V2000
    7.1200   -3.2880   19.2040 C   0  0  0  0  0  0  0  0  0  0  0  0
    6.3290   -4.0080   20.2340 C   0  0  0  0  0  0  0  0  0  0  0  0
    5.2760   -4.5290   19.8740 O   0  0  0  0  0  0  0  0  0  0  0  0
    6.8120   -4.1100   21.5390 N   0  0  0  0  0  0  0  0  0  0  0  0
    6.4450   -5.2060   22.4000 C   0  0  0  0  0  0  0  0  0  0  0  0
    5.7090   -4.6700   23.6100 C   0  0  0  0  0  0  0  0  0  0  0  0
    5.9900   -3.1700   23.7490 C   0  0  0  0  0  0  0  0  0  0  0  0
    5.5490   -2.6920   25.0860 C   0  0  0  0  0  0  0  0  0  0  0  0
    4.7530   -3.3790   25.7440 O   0  0  0  0  0  0  0  0  0  0  0  0
    6.0020   -1.4440   25.6040 N   0  0  0  0  0  0  0  0  0  0  0  0
    6.9450   -1.4340   26.6930 C   0  0  0  0  0  0  0  0  0  0  0  0
    7.4780   -2.7970   26.6260 C   0  0  0  0  0  0  0  0  0  0  0  0
    8.5070   -2.9460   25.6360 N   0  0  0  0  0  0  0  0  0  0  0  0
    8.8380   -4.2060   25.7070 O   0  0  0  0  0  0  0  0  0  0  0  0
    8.0420   -4.7010   26.6610 C   0  0  0  0  0  0  0  0  0  0  0  0
    7.1280   -3.9520   27.3580 C   0  0  0  0  0  0  0  0  0  0  0  0
    6.3090   -4.3860   28.3210 C   0  0  0  0  0  0  0  0  0  0  0  0
    6.6020   -5.8160   28.5810 C   0  0  0  0  0  0  0  0  0  0  0  0
    5.9410   -6.6960   27.7240 F   0  0  0  0  0  0  0  0  0  0  0  0
    6.3810   -6.2770   29.8870 F   0  0  0  0  0  0  0  0  0  0  0  0
    8.0370   -5.4390   28.1950 C   0  0  0  0  0  0  0  0  0  0  0  0
    8.2160   -6.1580   26.8950 C   0  0  0  0  0  0  0  0  0  0  0  0
    7.3660   -2.7700   23.4200 C   0  0  0  0  0  0  0  0  0  0  0  0
    7.7160   -3.0960   22.0200 C   0  0  0  0  0  0  0  0  0  0  0  0
  1  2  1  0
  2  3  2  0
  2  4  1  0
  4  5  1  0
  5  6  1  0
  6  7  1  0
  7  8  1  0
  8  9  2  0
  8 10  1  0
 10 11  1  0
 11 12  1  0
 12 13  2  0
 13 14  1  0
 14 15  1  0
 12 16  1  0
 15 16  2  0
 16 17  1  0
 17 18  1  0
 18 19  1  0
 18 20  1  0
 18 21  1  0
 15 22  1  0
 21 22  1  0
  7 23  1  0
  4 24  1  0
 23 24  1  0
M  END
