piperidine-amides-9308-covalent
     RDKit          3D

 19 21  0  0  0  0  0  0  0  0999 V2000
    7.0720   -3.3560   19.3110 C   0  0  0  0  0  0  0  0  0  0  0  0
    6.3530   -4.1360   20.3150 C   0  0  0  0  0  0  0  0  0  0  0  0
    5.3630   -4.8010   19.9700 O   0  0  0  0  0  0  0  0  0  0  0  0
    6.7960   -4.1790   21.6450 N   0  0  0  0  0  0  0  0  0  0  0  0
    7.7410   -3.2080   22.1670 C   0  0  0  0  0  0  0  0  0  0  0  0
    7.4340   -3.0380   23.6230 C   0  0  0  0  0  0  0  0  0  0  0  0
    6.0830   -3.5820   23.9570 C   0  0  0  0  0  0  0  0  0  0  0  0
    5.6690   -3.2240   25.3340 C   0  0  0  0  0  0  0  0  0  0  0  0
    4.4720   -3.3950   25.7090 O   0  0  0  0  0  0  0  0  0  0  0  0
    6.5840   -2.6830   26.2580 N   0  0  0  0  0  0  0  0  0  0  0  0
    6.1760   -1.7250   27.3140 C   0  0  1  0  0  0  0  0  0  0  0  0
    7.1460   -1.3490   28.3560 C   0  0  0  0  0  0  0  0  0  0  0  0
    6.6770   -0.4250   29.3960 C   0  0  0  0  0  0  0  0  0  0  0  0
    5.8490    0.7340   28.8730 C   0  0  0  0  0  0  0  0  0  0  0  0
    5.9030    0.8150   27.3570 C   0  0  0  0  0  0  0  0  0  0  0  0
    5.5520   -0.4940   26.7680 C   0  0  2  0  0  0  0  0  0  0  0  0
    4.7070   -1.3150   27.4830 C   0  0  0  0  0  0  0  0  0  0  0  0
    6.0330   -5.0770   23.7450 C   0  0  0  0  0  0  0  0  0  0  0  0
    6.6480   -5.4110   22.3990 C   0  0  0  0  0  0  0  0  0  0  0  0
  1  2  1  0
  2  3  2  0
  2  4  1  0
  4  5  1  0
  5  6  1  0
  6  7  1  0
  7  8  1  0
  8  9  2  0
  8 10  1  0
 11 10  1  6
 11 12  1  0
 12 13  1  0
 13 14  1  0
 14 15  1  0
 11 16  1  0
 16 15  1  1
 11 17  1  0
 16 17  1  0
  7 18  1  0
  4 19  1  0
 18 19  1  0
M  END
