piperidine-amides-27199-covalent
     RDKit          3D

 24 25  0  0  0  0  0  0  0  0999 V2000
    7.1020   -3.3040   19.2940 C   0  0  0  0  0  0  0  0  0  0  0  0
    6.3420   -4.0530   20.2970 C   0  0  0  0  0  0  0  0  0  0  0  0
    5.2700   -4.5780   19.9000 O   0  0  0  0  0  0  0  0  0  0  0  0
    6.8350   -4.2040   21.5990 N   0  0  0  0  0  0  0  0  0  0  0  0
    6.6710   -5.4530   22.3070 C   0  0  0  0  0  0  0  0  0  0  0  0
    6.0510   -5.1300   23.6320 C   0  0  0  0  0  0  0  0  0  0  0  0
    5.9860   -3.6430   23.8140 C   0  0  0  0  0  0  0  0  0  0  0  0
    5.5270   -3.3140   25.1800 C   0  0  0  0  0  0  0  0  0  0  0  0
    4.3040   -3.4170   25.4060 O   0  0  0  0  0  0  0  0  0  0  0  0
    6.3490   -2.9020   26.2420 N   0  0  0  0  0  0  0  0  0  0  0  0
    6.1420   -3.5760   27.5030 C   0  0  0  0  0  0  0  0  0  0  0  0
    6.7900   -2.9350   28.7270 C   0  0  0  0  0  0  0  0  0  0  0  0
    7.0590   -1.5900   28.9490 C   0  0  0  0  0  0  0  0  0  0  0  0
    7.2940   -1.1460   30.2960 O   0  0  0  0  0  0  0  0  0  0  0  0
    6.9020   -1.5750   26.2450 C   0  0  0  0  0  0  0  0  0  0  0  0
    5.9640   -0.6100   25.9090 C   0  0  0  0  0  0  0  0  0  0  0  0
    4.8060   -0.4080   26.6340 C   0  0  0  0  0  0  0  0  0  0  0  0
    3.8490    0.5330   26.3410 C   0  0  0  0  0  0  0  0  0  0  0  0
    3.9380    1.4840   25.1700 C   0  0  0  0  0  0  0  0  0  0  0  0
    5.2200    1.2620   24.3640 C   0  0  0  0  0  0  0  0  0  0  0  0
    5.4890    2.2830   22.9660 Cl  0  0  0  0  0  0  0  0  0  0  0  0
    6.1890    0.1860   24.8030 C   0  0  0  0  0  0  0  0  0  0  0  0
    7.3110   -2.9970   23.5360 C   0  0  0  0  0  0  0  0  0  0  0  0
    7.7110   -3.1940   22.2280 C   0  0  0  0  0  0  0  0  0  0  0  0
  1  2  1  0
  2  3  2  0
  2  4  1  0
  4  5  1  0
  5  6  1  0
  6  7  1  0
  7  8  1  0
  8  9  2  0
  8 10  1  0
 10 11  1  0
 11 12  1  0
 12 13  1  0
 13 14  1  0
 10 15  1  0
 15 16  1  0
 16 17  2  0
 17 18  1  0
 18 19  2  0
 19 20  1  0
 20 21  1  0
 16 22  1  0
 20 22  2  0
  7 23  1  0
  4 24  1  0
 23 24  1  0
M  END
