piperidine-amides-28153-covalent
     RDKit          3D

 26 29  0  0  0  0  0  0  0  0999 V2000
    7.0700   -3.3380   19.3170 C   0  0  0  0  0  0  0  0  0  0  0  0
    6.3930   -4.1850   20.3270 C   0  0  0  0  0  0  0  0  0  0  0  0
    5.3600   -4.7790   19.9600 O   0  0  0  0  0  0  0  0  0  0  0  0
    6.9340   -4.3380   21.6100 N   0  0  0  0  0  0  0  0  0  0  0  0
    6.5520   -5.4410   22.4290 C   0  0  0  0  0  0  0  0  0  0  0  0
    6.0040   -5.0640   23.7390 C   0  0  0  0  0  0  0  0  0  0  0  0
    6.5720   -3.8290   24.3420 C   0  0  0  0  0  0  0  0  0  0  0  0
    5.7390   -3.3680   25.5040 C   0  0  0  0  0  0  0  0  0  0  0  0
    4.9170   -2.4670   25.2780 O   0  0  0  0  0  0  0  0  0  0  0  0
    5.8110   -3.9280   26.8190 N   0  0  0  0  0  0  0  0  0  0  0  0
    4.6950   -4.7000   27.4640 C   0  0  0  0  0  0  0  0  0  0  0  0
    5.2420   -4.5260   28.7950 C   0  0  1  0  0  0  0  0  0  0  0  0
    6.6050   -4.8050   28.5170 C   0  0  0  0  0  0  0  0  0  0  0  0
    6.5530   -3.5490   28.0640 C   0  0  2  0  0  0  0  0  0  0  0  0
    5.6410   -3.2100   29.0490 C   0  0  1  0  0  0  0  0  0  0  0  0
    4.6830   -2.3010   28.6860 C   0  0  0  0  0  0  0  0  0  0  0  0
    4.1170   -2.4230   27.4120 O   0  0  0  0  0  0  0  0  0  0  0  0
    3.2030   -1.3780   27.3560 C   0  0  0  0  0  0  0  0  0  0  0  0
    3.1420   -0.6170   28.4530 N   0  0  0  0  0  0  0  0  0  0  0  0
    4.1510   -1.2210   29.3990 C   0  0  0  0  0  0  0  0  0  0  0  0
    4.5280   -0.8490   30.6950 C   0  0  0  0  0  0  0  0  0  0  0  0
    4.2470   -1.8140   31.6530 O   0  0  0  0  0  0  0  0  0  0  0  0
    5.0960    0.3380   30.9840 N   0  0  0  0  0  0  0  0  0  0  0  0
    6.0260    0.1560   31.9130 C   0  0  0  0  0  0  0  0  0  0  0  0
    6.7820   -2.7390   23.3590 C   0  0  0  0  0  0  0  0  0  0  0  0
    7.6440   -3.2470   22.2490 C   0  0  0  0  0  0  0  0  0  0  0  0
  1  2  1  0
  2  3  2  0
  2  4  1  0
  4  5  1  0
  5  6  1  0
  6  7  1  0
  7  8  1  0
  8  9  2  0
  8 10  1  0
 10 11  1  0
 12 11  1  6
 12 13  1  0
 10 14  1  0
 14 13  1  1
 12 15  1  0
 14 15  1  0
 15 16  1  6
 16 17  1  0
 17 18  1  0
 18 19  2  0
 16 20  2  0
 19 20  1  0
 20 21  1  0
 21 22  2  0
 21 23  1  0
 23 24  1  0
  7 25  1  0
  4 26  1  0
 25 26  1  0
M  END
