piperidine-amides-23261-covalent
     RDKit          3D

 22 24  0  0  0  0  0  0  0  0999 V2000
    7.0730   -3.3980   19.3760 C   0  0  0  0  0  0  0  0  0  0  0  0
    6.3770   -4.2290   20.3730 C   0  0  0  0  0  0  0  0  0  0  0  0
    5.3470   -4.8230   19.9770 O   0  0  0  0  0  0  0  0  0  0  0  0
    6.8850   -4.3950   21.6910 N   0  0  0  0  0  0  0  0  0  0  0  0
    6.4330   -5.4600   22.5010 C   0  0  0  0  0  0  0  0  0  0  0  0
    6.2960   -5.0600   23.9030 C   0  0  0  0  0  0  0  0  0  0  0  0
    6.1080   -3.6020   24.1340 C   0  0  0  0  0  0  0  0  0  0  0  0
    6.0940   -3.1010   25.5580 C   0  0  0  0  0  0  0  0  0  0  0  0
    6.5540   -1.9790   25.7570 O   0  0  0  0  0  0  0  0  0  0  0  0
    5.5580   -3.7500   26.6810 N   0  0  0  0  0  0  0  0  0  0  0  0
    4.2120   -3.5620   27.0870 C   0  0  0  0  0  0  0  0  0  0  0  0
    3.7750   -4.3140   28.2410 C   0  0  0  0  0  0  0  0  0  0  0  0
    4.7100   -5.0020   28.8160 N   0  0  0  0  0  0  0  0  0  0  0  0
    5.8310   -5.4280   28.0990 C   0  0  2  0  0  0  0  0  0  0  0  0
    6.7530   -5.8520   29.0070 C   0  0  0  0  0  0  0  0  0  0  0  0
    5.8170   -7.0140   29.5700 C   0  0  0  0  0  0  0  0  0  0  0  0
    4.2550   -6.3180   29.6180 S   0  0  0  0  0  0  0  0  0  0  0  0
    3.8200   -6.0040   31.0220 O   0  0  0  0  0  0  0  0  0  0  0  0
    3.2750   -7.1850   28.9110 O   0  0  0  0  0  0  0  0  0  0  0  0
    6.3090   -4.0650   27.8850 C   0  0  0  0  0  0  0  0  0  0  0  0
    7.1370   -2.7250   23.4000 C   0  0  0  0  0  0  0  0  0  0  0  0
    7.8280   -3.5040   22.3170 C   0  0  0  0  0  0  0  0  0  0  0  0
  1  2  1  0
  2  3  2  0
  2  4  1  0
  4  5  1  0
  5  6  1  0
  6  7  1  0
  7  8  1  0
  8  9  2  0
  8 10  1  0
 10 11  1  0
 11 12  1  0
 12 13  1  0
 13 14  1  0
 14 15  1  1
 15 16  1  0
 13 17  1  0
 17 16  1  0
 17 18  2  0
 17 19  2  0
 10 20  1  0
 14 20  1  0
  7 21  1  0
  4 22  1  0
 21 22  1  0
M  END
