piperidine-amides-19447-covalent
     RDKit          3D

 22 24  0  0  0  0  0  0  0  0999 V2000
    7.1230   -3.2800   19.3650 C   0  0  0  0  0  0  0  0  0  0  0  0
    6.3830   -4.0620   20.3370 C   0  0  0  0  0  0  0  0  0  0  0  0
    5.3650   -4.7140   19.9390 O   0  0  0  0  0  0  0  0  0  0  0  0
    6.7660   -4.1540   21.6930 N   0  0  0  0  0  0  0  0  0  0  0  0
    6.6540   -5.5000   22.2970 C   0  0  0  0  0  0  0  0  0  0  0  0
    6.2020   -5.1570   23.7700 C   0  0  0  0  0  0  0  0  0  0  0  0
    6.0580   -3.6550   23.8250 C   0  0  0  0  0  0  0  0  0  0  0  0
    5.0600   -3.1910   24.9760 C   0  0  0  0  0  0  0  0  0  0  0  0
    3.9090   -3.4370   24.6540 O   0  0  0  0  0  0  0  0  0  0  0  0
    5.6790   -2.6860   25.9540 N   0  0  0  0  0  0  0  0  0  0  0  0
    6.5550   -2.3240   26.8550 C   0  0  0  0  0  0  0  0  0  0  0  0
    5.9730   -1.6750   27.7750 C   0  0  0  0  0  0  0  0  0  0  0  0
    5.7140   -2.3950   28.9650 C   0  0  0  0  0  0  0  0  0  0  0  0
    5.2770   -1.5780   30.1120 C   0  0  0  0  0  0  0  0  0  0  0  0
    6.2730   -0.5110   30.4720 C   0  0  0  0  0  0  0  0  0  0  0  0
    5.7250    0.2300   31.6310 N   0  0  0  0  0  0  0  0  0  0  0  0
    4.5190   -0.3340   31.9400 N   0  0  0  0  0  0  0  0  0  0  0  0
    3.8530    0.1820   32.9600 C   0  0  0  0  0  0  0  0  0  0  0  0
    4.1700   -1.4450   31.0590 C   0  0  0  0  0  0  0  0  0  0  0  0
    4.7410   -1.9430   26.8960 C   0  0  0  0  0  0  0  0  0  0  0  0
    7.3520   -2.9640   23.5690 C   0  0  0  0  0  0  0  0  0  0  0  0
    7.6780   -3.1770   22.2510 C   0  0  0  0  0  0  0  0  0  0  0  0
  1  2  1  0
  2  3  2  0
  2  4  1  0
  4  5  1  0
  5  6  1  0
  6  7  1  0
  7  8  1  0
  8  9  2  0
  8 10  1  0
 10 11  1  0
 11 12  1  0
 12 13  1  0
 13 14  1  0
 14 15  1  0
 15 16  2  0
 16 17  1  0
 17 18  1  0
 14 19  2  0
 17 19  1  0
 10 20  1  0
 12 20  1  0
  7 21  1  0
  4 22  1  0
 21 22  1  0
M  END
