piperidine-amides-6722-covalent
     RDKit          3D

 23 25  0  0  0  0  0  0  0  0999 V2000
    7.0860   -3.3140   19.2960 C   0  0  0  0  0  0  0  0  0  0  0  0
    6.3320   -4.0830   20.3000 C   0  0  0  0  0  0  0  0  0  0  0  0
    5.3220   -4.7270   19.9510 O   0  0  0  0  0  0  0  0  0  0  0  0
    6.7670   -4.1350   21.6350 N   0  0  0  0  0  0  0  0  0  0  0  0
    7.6330   -3.0820   22.1300 C   0  0  0  0  0  0  0  0  0  0  0  0
    7.4520   -3.0150   23.6470 C   0  0  0  0  0  0  0  0  0  0  0  0
    6.0770   -3.5810   23.9100 C   0  0  0  0  0  0  0  0  0  0  0  0
    5.6280   -3.3010   25.2920 C   0  0  0  0  0  0  0  0  0  0  0  0
    4.4730   -3.6500   25.6170 O   0  0  0  0  0  0  0  0  0  0  0  0
    6.4930   -2.6450   26.2010 N   0  0  0  0  0  0  0  0  0  0  0  0
    6.1750   -2.5250   27.6040 C   0  0  1  0  0  0  0  0  0  0  0  0
    7.0210   -1.4410   28.0860 C   0  0  0  0  0  0  0  0  0  0  0  0
    5.9180   -0.8480   28.4550 C   0  0  2  0  0  0  0  0  0  0  0  0
    5.7970   -0.4990   29.7770 C   0  0  0  0  0  0  0  0  0  0  0  0
    6.8230   -0.3450   30.6670 C   0  0  0  0  0  0  0  0  0  0  0  0
    6.7680    0.0050   31.9880 C   0  0  0  0  0  0  0  0  0  0  0  0
    5.5570    0.3300   32.8820 C   0  0  0  0  0  0  0  0  0  0  0  0
    4.5020    0.1230   31.7810 C   0  0  0  0  0  0  0  0  0  0  0  0
    4.5990   -0.2610   30.3370 C   0  0  0  0  0  0  0  0  0  0  0  0
    3.4860   -0.3680   29.5890 F   0  0  0  0  0  0  0  0  0  0  0  0
    4.9750   -1.8850   28.0750 C   0  0  0  0  0  0  0  0  0  0  0  0
    6.1190   -5.0630   23.6840 C   0  0  0  0  0  0  0  0  0  0  0  0
    6.4980   -5.3210   22.3940 C   0  0  0  0  0  0  0  0  0  0  0  0
  1  2  1  0
  2  3  2  0
  2  4  1  0
  4  5  1  0
  5  6  1  0
  6  7  1  0
  7  8  1  0
  8  9  2  0
  8 10  1  0
 11 10  1  6
 11 12  1  0
 12 13  1  0
 13 14  1  1
 14 15  2  0
 15 16  1  0
 16 17  2  0
 17 18  1  0
 14 19  1  0
 18 19  2  0
 19 20  1  0
 11 21  1  0
 13 21  1  0
  7 22  1  0
  4 23  1  0
 22 23  1  0
M  END
