piperidine-amides-15047-covalent
     RDKit          3D

 21 23  0  0  0  0  0  0  0  0999 V2000
    7.0410   -3.3360   19.3310 C   0  0  0  0  0  0  0  0  0  0  0  0
    6.3840   -4.1720   20.3370 C   0  0  0  0  0  0  0  0  0  0  0  0
    5.3940   -4.8370   19.9800 O   0  0  0  0  0  0  0  0  0  0  0  0
    6.8860   -4.2540   21.6670 N   0  0  0  0  0  0  0  0  0  0  0  0
    6.5530   -5.4170   22.4450 C   0  0  0  0  0  0  0  0  0  0  0  0
    6.1860   -5.0720   23.8760 C   0  0  0  0  0  0  0  0  0  0  0  0
    6.1320   -3.5630   24.0340 C   0  0  0  0  0  0  0  0  0  0  0  0
    5.5940   -3.1520   25.3780 C   0  0  0  0  0  0  0  0  0  0  0  0
    4.3710   -3.0600   25.4400 O   0  0  0  0  0  0  0  0  0  0  0  0
    6.4590   -2.9190   26.4480 N   0  0  0  0  0  0  0  0  0  0  0  0
    6.4300   -1.6880   27.1980 C   0  0  0  0  0  0  0  0  0  0  0  0
    7.1040   -1.5290   28.4170 C   0  0  0  0  0  0  0  0  0  0  0  0
    6.8270   -0.1730   28.8390 N   0  0  0  0  0  0  0  0  0  0  0  0
    6.0700    0.2650   27.8720 N   0  0  0  0  0  0  0  0  0  0  0  0
    5.5280    1.6320   27.7880 C   0  0  0  0  0  0  0  0  0  0  0  0
    5.5790    2.2370   26.5130 C   0  0  0  0  0  0  0  0  0  0  0  0
    6.2260    1.1170   25.7970 C   0  0  0  0  0  0  0  0  0  0  0  0
    5.2110    0.8310   26.9080 C   0  0  0  0  0  0  0  0  0  0  0  0
    5.6780   -0.5340   26.7370 C   0  0  0  0  0  0  0  0  0  0  0  0
    7.4260   -2.9570   23.6650 C   0  0  0  0  0  0  0  0  0  0  0  0
    7.7050   -3.1720   22.1750 C   0  0  0  0  0  0  0  0  0  0  0  0
  1  2  1  0
  2  3  2  0
  2  4  1  0
  4  5  1  0
  5  6  1  0
  6  7  1  0
  7  8  1  0
  8  9  2  0
  8 10  1  0
 10 11  1  0
 11 12  1  0
 12 13  2  0
 13 14  1  0
 14 15  1  0
 15 16  2  0
 16 17  1  0
 17 18  2  0
 11 19  2  0
 14 19  1  0
 18 19  1  0
  7 20  1  0
  4 21  1  0
 20 21  1  0
M  END
