piperidine-amides-26987-covalent
     RDKit          3D

 25 26  0  0  0  0  0  0  0  0999 V2000
    7.0160   -3.3940   19.4550 C   0  0  0  0  0  0  0  0  0  0  0  0
    6.4110   -4.2950   20.4480 C   0  0  0  0  0  0  0  0  0  0  0  0
    5.4360   -4.9750   20.0180 O   0  0  0  0  0  0  0  0  0  0  0  0
    6.9240   -4.4080   21.7590 N   0  0  0  0  0  0  0  0  0  0  0  0
    6.6430   -5.5820   22.5890 C   0  0  0  0  0  0  0  0  0  0  0  0
    6.1000   -5.1530   23.9480 C   0  0  0  0  0  0  0  0  0  0  0  0
    5.9790   -3.6580   23.9930 C   0  0  0  0  0  0  0  0  0  0  0  0
    5.1840   -3.0640   25.1180 C   0  0  0  0  0  0  0  0  0  0  0  0
    4.3380   -2.2390   24.7360 O   0  0  0  0  0  0  0  0  0  0  0  0
    5.2010   -3.2570   26.5230 N   0  0  0  0  0  0  0  0  0  0  0  0
    6.3740   -3.0720   27.2770 C   0  0  1  0  0  0  0  0  0  0  0  0
    6.4980   -1.6410   27.7960 C   0  0  0  0  0  0  0  0  0  0  0  0
    6.3640   -4.0430   28.4020 C   0  0  0  0  0  0  0  0  0  0  0  0
    5.2750   -4.2010   29.1840 N   0  0  0  0  0  0  0  0  0  0  0  0
    4.9670   -5.4110   29.6460 C   0  0  0  0  0  0  0  0  0  0  0  0
    4.3210   -5.5270   30.7820 O   0  0  0  0  0  0  0  0  0  0  0  0
    5.3100   -6.5170   28.9220 C   0  0  0  0  0  0  0  0  0  0  0  0
    6.6550   -6.6480   28.9840 C   0  0  0  0  0  0  0  0  0  0  0  0
    4.9720   -6.4290   27.5890 C   0  0  0  0  0  0  0  0  0  0  0  0
    4.7090   -7.6370   29.4400 C   0  0  0  0  0  0  0  0  0  0  0  0
    4.1510   -3.5890   28.6610 C   0  0  0  0  0  0  0  0  0  0  0  0
    4.5380   -2.5760   27.6140 C   0  0  2  0  0  0  0  0  0  0  0  0
    3.4090   -1.6890   27.1070 C   0  0  0  0  0  0  0  0  0  0  0  0
    7.2770   -3.0050   23.7440 C   0  0  0  0  0  0  0  0  0  0  0  0
    7.7030   -3.3200   22.3280 C   0  0  0  0  0  0  0  0  0  0  0  0
  1  2  1  0
  2  3  2  0
  2  4  1  0
  4  5  1  0
  5  6  1  0
  6  7  1  0
  7  8  1  0
  8  9  2  0
  8 10  1  0
 10 11  1  0
 11 12  1  1
 11 13  1  0
 13 14  1  0
 14 15  1  0
 15 16  2  0
 17 15  1  0
 17 18  1  0
 17 19  1  0
 17 20  1  0
 14 21  1  0
 10 22  1  0
 21 22  1  0
 22 23  1  6
  7 24  1  0
  4 25  1  0
 24 25  1  0
M  END
