piperidine-amides-6331-covalent
     RDKit          3D

 25 27  0  0  0  0  0  0  0  0999 V2000
    7.1090   -3.3460   19.2960 C   0  0  0  0  0  0  0  0  0  0  0  0
    6.3770   -4.1440   20.2830 C   0  0  0  0  0  0  0  0  0  0  0  0
    5.3350   -4.7510   19.9580 O   0  0  0  0  0  0  0  0  0  0  0  0
    6.8870   -4.2750   21.5780 N   0  0  0  0  0  0  0  0  0  0  0  0
    6.5420   -5.4200   22.3810 C   0  0  0  0  0  0  0  0  0  0  0  0
    5.7490   -4.8760   23.5750 C   0  0  0  0  0  0  0  0  0  0  0  0
    6.6480   -3.8710   24.2710 C   0  0  0  0  0  0  0  0  0  0  0  0
    6.0020   -3.2570   25.4490 C   0  0  0  0  0  0  0  0  0  0  0  0
    4.8400   -3.6140   25.7470 O   0  0  0  0  0  0  0  0  0  0  0  0
    6.7430   -2.2870   26.1780 N   0  0  0  0  0  0  0  0  0  0  0  0
    6.2260   -1.5760   27.3220 C   0  0  2  0  0  0  0  0  0  0  0  0
    4.8890   -2.2230   27.6530 C   0  0  0  0  0  0  0  0  0  0  0  0
    4.6830   -3.3450   28.4480 C   0  0  0  0  0  0  0  0  0  0  0  0
    3.4480   -3.9020   28.7310 C   0  0  0  0  0  0  0  0  0  0  0  0
    2.2940   -3.3430   28.2130 C   0  0  0  0  0  0  0  0  0  0  0  0
    2.3300   -2.2460   27.4200 C   0  0  0  0  0  0  0  0  0  0  0  0
    3.6310   -1.5820   27.0650 C   0  0  0  0  0  0  0  0  0  0  0  0
    5.9130   -0.1890   26.8470 C   0  0  0  0  0  0  0  0  0  0  0  0
    4.8970    0.6690   27.5580 C   0  0  0  0  0  0  0  0  0  0  0  0
    6.1710    0.8750   28.2780 C   0  0  0  0  0  0  0  0  0  0  0  0
    6.7960    1.9680   28.1980 O   0  0  0  0  0  0  0  0  0  0  0  0
    6.6480   -0.1780   29.0680 N   0  0  0  0  0  0  0  0  0  0  0  0
    6.9650   -1.4010   28.4520 C   0  0  0  0  0  0  0  0  0  0  0  0
    6.9300   -2.7150   23.3320 C   0  0  0  0  0  0  0  0  0  0  0  0
    7.6970   -3.2310   22.1590 C   0  0  0  0  0  0  0  0  0  0  0  0
  1  2  1  0
  2  3  2  0
  2  4  1  0
  4  5  1  0
  5  6  1  0
  6  7  1  0
  7  8  1  0
  8  9  2  0
  8 10  1  0
 11 10  1  6
 11 12  1  0
 12 13  2  0
 13 14  1  0
 14 15  2  0
 15 16  1  0
 12 17  1  0
 16 17  2  0
 11 18  1  0
 18 19  1  0
 19 20  1  0
 20 21  2  0
 20 22  1  0
 11 23  1  0
 22 23  1  0
  7 24  1  0
  4 25  1  0
 24 25  1  0
M  END
