piperidine-amides-3889-covalent
     RDKit          3D

 25 27  0  0  0  0  0  0  0  0999 V2000
    7.1210   -3.3040   19.2150 C   0  0  0  0  0  0  0  0  0  0  0  0
    6.3510   -4.0260   20.2380 C   0  0  0  0  0  0  0  0  0  0  0  0
    5.2610   -4.5240   19.8750 O   0  0  0  0  0  0  0  0  0  0  0  0
    6.8480   -4.2040   21.5510 N   0  0  0  0  0  0  0  0  0  0  0  0
    7.5770   -3.1380   22.1550 C   0  0  0  0  0  0  0  0  0  0  0  0
    7.3010   -2.9160   23.5700 C   0  0  0  0  0  0  0  0  0  0  0  0
    6.5360   -3.9850   24.2520 C   0  0  0  0  0  0  0  0  0  0  0  0
    5.6990   -3.4430   25.3820 C   0  0  0  0  0  0  0  0  0  0  0  0
    4.4620   -3.5770   25.3150 O   0  0  0  0  0  0  0  0  0  0  0  0
    6.2410   -2.7850   26.5190 N   0  0  0  0  0  0  0  0  0  0  0  0
    6.1130   -1.4150   26.8830 C   0  0  2  0  0  0  0  0  0  0  0  0
    6.0160   -0.8990   28.2610 C   0  0  0  0  0  0  0  0  0  0  0  0
    7.3080   -1.3670   28.9570 C   0  0  0  0  0  0  0  0  0  0  0  0
    7.5130   -0.7900   30.1840 C   0  0  0  0  0  0  0  0  0  0  0  0
    7.5680    0.5640   30.0610 O   0  0  0  0  0  0  0  0  0  0  0  0
    6.3250    1.0370   29.7190 C   0  0  0  0  0  0  0  0  0  0  0  0
    6.0780    0.6020   28.3140 C   0  0  0  0  0  0  0  0  0  0  0  0
    4.6770   -0.8660   26.5800 C   0  0  0  0  0  0  0  0  0  0  0  0
    4.0370   -1.7280   27.6560 C   0  0  0  0  0  0  0  0  0  0  0  0
    2.7430   -2.1460   27.5630 O   0  0  0  0  0  0  0  0  0  0  0  0
    4.1640    0.5680   26.5100 C   0  0  0  0  0  0  0  0  0  0  0  0
    3.8080    0.3490   25.0840 C   0  0  0  0  0  0  0  0  0  0  0  0
    4.2730   -1.0580   25.1070 C   0  0  0  0  0  0  0  0  0  0  0  0
    5.6820   -4.8150   23.3450 C   0  0  0  0  0  0  0  0  0  0  0  0
    6.4540   -5.3350   22.3300 C   0  0  0  0  0  0  0  0  0  0  0  0
  1  2  1  0
  2  3  2  0
  2  4  1  0
  4  5  1  0
  5  6  1  0
  6  7  1  0
  7  8  1  0
  8  9  2  0
  8 10  1  0
 11 10  1  1
 11 12  1  0
 12 13  1  0
 13 14  1  0
 14 15  1  0
 15 16  1  0
 12 17  1  0
 16 17  1  0
 11 18  1  0
 18 19  1  0
 19 20  1  0
 18 21  1  0
 21 22  1  0
 18 23  1  0
 22 23  1  0
  7 24  1  0
  4 25  1  0
 24 25  1  0
M  END
