piperidine-amides-30941-covalent
     RDKit          3D

 27 28  0  0  0  0  0  0  0  0999 V2000
    7.0900   -3.3610   19.3070 C   0  0  0  0  0  0  0  0  0  0  0  0
    6.3680   -4.1480   20.3050 C   0  0  0  0  0  0  0  0  0  0  0  0
    5.3500   -4.7720   19.9630 O   0  0  0  0  0  0  0  0  0  0  0  0
    6.8400   -4.2470   21.6230 N   0  0  0  0  0  0  0  0  0  0  0  0
    7.7090   -3.2330   22.1850 C   0  0  0  0  0  0  0  0  0  0  0  0
    6.9910   -2.7220   23.3950 C   0  0  0  0  0  0  0  0  0  0  0  0
    6.6830   -3.8480   24.3300 C   0  0  0  0  0  0  0  0  0  0  0  0
    5.8600   -3.3750   25.4640 C   0  0  0  0  0  0  0  0  0  0  0  0
    4.6120   -3.1910   25.3180 O   0  0  0  0  0  0  0  0  0  0  0  0
    6.4050   -3.1030   26.7410 N   0  0  0  0  0  0  0  0  0  0  0  0
    6.5240   -4.1810   27.7680 C   0  0  0  0  0  0  0  0  0  0  0  0
    7.1740   -5.3970   27.2050 C   0  0  0  0  0  0  0  0  0  0  0  0
    6.6420   -1.6920   27.1310 C   0  0  1  0  0  0  0  0  0  0  0  0
    5.4980   -0.8090   26.6940 C   0  0  0  0  0  0  0  0  0  0  0  0
    5.7060    0.6630   27.0250 C   0  0  0  0  0  0  0  0  0  0  0  0
    6.1730    0.7650   28.4300 C   0  0  0  0  0  0  0  0  0  0  0  0
    6.2920   -0.4970   29.0640 N   0  0  0  0  0  0  0  0  0  0  0  0
    5.5190   -0.6840   30.1490 C   0  0  0  0  0  0  0  0  0  0  0  0
    5.0240   -1.8210   30.4460 O   0  0  0  0  0  0  0  0  0  0  0  0
    5.3350    0.3360   30.8300 O   0  0  0  0  0  0  0  0  0  0  0  0
    6.2750    0.5740   31.8170 C   0  0  0  0  0  0  0  0  0  0  0  0
    7.7030    0.1150   31.6020 C   0  0  0  0  0  0  0  0  0  0  0  0
    6.3170    2.0600   31.9730 C   0  0  0  0  0  0  0  0  0  0  0  0
    5.7690    0.0820   33.1370 C   0  0  0  0  0  0  0  0  0  0  0  0
    7.0720   -1.4500   28.4430 C   0  0  0  0  0  0  0  0  0  0  0  0
    6.0170   -5.0100   23.6990 C   0  0  0  0  0  0  0  0  0  0  0  0
    6.5200   -5.3600   22.4600 C   0  0  0  0  0  0  0  0  0  0  0  0
  1  2  1  0
  2  3  2  0
  2  4  1  0
  4  5  1  0
  5  6  1  0
  6  7  1  0
  7  8  1  0
  8  9  2  0
  8 10  1  0
 10 11  1  0
 11 12  1  0
 13 10  1  1
 13 14  1  0
 14 15  1  0
 15 16  1  0
 16 17  1  0
 17 18  1  0
 18 19  2  0
 18 20  1  0
 21 20  1  0
 21 22  1  0
 21 23  1  0
 21 24  1  0
 13 25  1  0
 17 25  1  0
  7 26  1  0
  4 27  1  0
 26 27  1  0
M  END
