piperidine-amides-8122-covalent
     RDKit          3D

 26 28  0  0  0  0  0  0  0  0999 V2000
    7.0780   -3.3350   19.3200 C   0  0  0  0  0  0  0  0  0  0  0  0
    6.4000   -4.1770   20.3030 C   0  0  0  0  0  0  0  0  0  0  0  0
    5.3580   -4.7600   19.9590 O   0  0  0  0  0  0  0  0  0  0  0  0
    6.9590   -4.3580   21.5910 N   0  0  0  0  0  0  0  0  0  0  0  0
    7.6900   -3.2700   22.1730 C   0  0  0  0  0  0  0  0  0  0  0  0
    6.8580   -2.6470   23.2440 C   0  0  0  0  0  0  0  0  0  0  0  0
    6.5910   -3.7500   24.2340 C   0  0  0  0  0  0  0  0  0  0  0  0
    5.8270   -3.2100   25.4000 C   0  0  0  0  0  0  0  0  0  0  0  0
    4.6150   -3.0590   25.2490 O   0  0  0  0  0  0  0  0  0  0  0  0
    6.5410   -2.9240   26.5560 N   0  0  0  0  0  0  0  0  0  0  0  0
    6.4780   -1.6750   27.2400 C   0  0  0  0  0  0  0  0  0  0  0  0
    6.0780   -0.5130   26.5670 C   0  0  0  0  0  0  0  0  0  0  0  0
    6.0040    0.6920   27.2150 C   0  0  0  0  0  0  0  0  0  0  0  0
    6.3250    0.7810   28.5520 C   0  0  0  0  0  0  0  0  0  0  0  0
    6.2230    2.0340   29.1360 O   0  0  0  0  0  0  0  0  0  0  0  0
    4.9360    2.3490   29.4920 C   0  0  0  0  0  0  0  0  0  0  0  0
    6.7230   -0.3260   29.2580 C   0  0  0  0  0  0  0  0  0  0  0  0
    7.0540   -0.3100   30.6260 N   0  0  0  0  0  0  0  0  0  0  0  0
    7.9440    0.7490   31.0540 C   0  0  0  0  0  0  0  0  0  0  0  0
    7.4170    1.2370   32.3700 C   0  0  0  0  0  0  0  0  0  0  0  0
    6.0690    0.5200   32.5130 C   0  0  0  0  0  0  0  0  0  0  0  0
    5.9130   -0.4180   31.5260 C   0  0  0  0  0  0  0  0  0  0  0  0
    4.8330   -1.3220   31.4400 O   0  0  0  0  0  0  0  0  0  0  0  0
    6.7900   -1.5350   28.5650 C   0  0  0  0  0  0  0  0  0  0  0  0
    5.8490   -4.9040   23.6410 C   0  0  0  0  0  0  0  0  0  0  0  0
    6.5370   -5.4490   22.4230 C   0  0  0  0  0  0  0  0  0  0  0  0
  1  2  1  0
  2  3  2  0
  2  4  1  0
  4  5  1  0
  5  6  1  0
  6  7  1  0
  7  8  1  0
  8  9  2  0
  8 10  1  0
 10 11  1  0
 11 12  2  0
 12 13  1  0
 13 14  2  0
 14 15  1  0
 15 16  1  0
 14 17  1  0
 17 18  1  0
 18 19  1  0
 19 20  1  0
 20 21  1  0
 18 22  1  0
 21 22  1  0
 22 23  2  0
 11 24  1  0
 17 24  2  0
  7 25  1  0
  4 26  1  0
 25 26  1  0
M  END
