piperidine-amides-27178-covalent
     RDKit          3D

 25 26  0  0  0  0  0  0  0  0999 V2000
    7.1140   -3.2620   19.1840 C   0  0  0  0  0  0  0  0  0  0  0  0
    6.3850   -4.0000   20.2200 C   0  0  0  0  0  0  0  0  0  0  0  0
    5.2950   -4.5280   19.8790 O   0  0  0  0  0  0  0  0  0  0  0  0
    6.9280   -4.1370   21.4970 N   0  0  0  0  0  0  0  0  0  0  0  0
    7.6970   -3.0780   22.1090 C   0  0  0  0  0  0  0  0  0  0  0  0
    6.9140   -2.5680   23.2770 C   0  0  0  0  0  0  0  0  0  0  0  0
    6.5950   -3.6870   24.2250 C   0  0  0  0  0  0  0  0  0  0  0  0
    5.7580   -3.1790   25.3380 C   0  0  0  0  0  0  0  0  0  0  0  0
    4.6170   -2.7590   25.0490 O   0  0  0  0  0  0  0  0  0  0  0  0
    6.1650   -3.1250   26.6910 N   0  0  0  0  0  0  0  0  0  0  0  0
    6.5040   -1.8350   27.2730 C   0  0  0  0  0  0  0  0  0  0  0  0
    6.8360   -1.9030   28.7650 C   0  0  0  0  0  0  0  0  0  0  0  0
    6.2900   -1.0730   29.7100 C   0  0  0  0  0  0  0  0  0  0  0  0
    6.2850   -4.3110   27.5190 C   0  0  0  0  0  0  0  0  0  0  0  0
    5.1440   -4.6800   28.1930 C   0  0  0  0  0  0  0  0  0  0  0  0
    4.1610   -5.3210   27.5210 N   0  0  0  0  0  0  0  0  0  0  0  0
    2.8600   -5.0270   27.6850 C   0  0  0  0  0  0  0  0  0  0  0  0
    1.8690   -5.7270   27.0330 C   0  0  0  0  0  0  0  0  0  0  0  0
    2.2440   -6.1840   25.8230 N   0  0  0  0  0  0  0  0  0  0  0  0
    1.6260   -5.6190   24.6760 C   0  0  0  0  0  0  0  0  0  0  0  0
    2.2860   -5.9610   23.3370 C   0  0  0  0  0  0  0  0  0  0  0  0
    3.5200   -6.7520   25.6750 C   0  0  0  0  0  0  0  0  0  0  0  0
    4.4000   -6.6450   26.9150 C   0  0  0  0  0  0  0  0  0  0  0  0
    5.9240   -4.8550   23.5760 C   0  0  0  0  0  0  0  0  0  0  0  0
    6.5840   -5.2830   22.2810 C   0  0  0  0  0  0  0  0  0  0  0  0
  1  2  1  0
  2  3  2  0
  2  4  1  0
  4  5  1  0
  5  6  1  0
  6  7  1  0
  7  8  1  0
  8  9  2  0
  8 10  1  0
 10 11  1  0
 11 12  1  0
 12 13  1  0
 10 14  1  0
 14 15  1  0
 15 16  1  0
 16 17  1  0
 17 18  1  0
 18 19  1  0
 19 20  1  0
 20 21  1  0
 19 22  1  0
 16 23  1  0
 22 23  1  0
  7 24  1  0
  4 25  1  0
 24 25  1  0
M  END
