piperidine-amides-11916-covalent
     RDKit          3D

 26 28  0  0  0  0  0  0  0  0999 V2000
    7.1050   -3.2740   19.2540 C   0  0  0  0  0  0  0  0  0  0  0  0
    6.3160   -4.0300   20.2210 C   0  0  0  0  0  0  0  0  0  0  0  0
    5.2570   -4.5490   19.8800 O   0  0  0  0  0  0  0  0  0  0  0  0
    6.7980   -4.2220   21.5580 N   0  0  0  0  0  0  0  0  0  0  0  0
    6.5640   -5.4790   22.2200 C   0  0  0  0  0  0  0  0  0  0  0  0
    6.1830   -5.2540   23.6570 C   0  0  0  0  0  0  0  0  0  0  0  0
    6.0350   -3.7580   23.8850 C   0  0  0  0  0  0  0  0  0  0  0  0
    5.6210   -3.4620   25.2780 C   0  0  0  0  0  0  0  0  0  0  0  0
    4.6040   -3.9490   25.8030 O   0  0  0  0  0  0  0  0  0  0  0  0
    6.4080   -2.5630   26.0140 N   0  0  0  0  0  0  0  0  0  0  0  0
    7.0100   -2.9480   27.2650 C   0  0  0  0  0  0  0  0  0  0  0  0
    7.8860   -1.7550   27.5240 C   0  0  0  0  0  0  0  0  0  0  0  0
    8.7060   -1.3680   26.4860 C   0  0  0  0  0  0  0  0  0  0  0  0
    9.5410   -0.2900   26.6110 C   0  0  0  0  0  0  0  0  0  0  0  0
    9.5390    0.3970   27.8140 N   0  0  0  0  0  0  0  0  0  0  0  0
    8.7220    0.0240   28.8710 C   0  0  0  0  0  0  0  0  0  0  0  0
    7.8050   -1.1180   28.7890 C   0  0  0  0  0  0  0  0  0  0  0  0
    7.0780   -1.3900   29.8060 O   0  0  0  0  0  0  0  0  0  0  0  0
    7.0520   -0.3330   30.7340 C   0  0  0  0  0  0  0  0  0  0  0  0
    5.7520   -0.2170   31.1880 C   0  0  2  0  0  0  0  0  0  0  0  0
    4.9180    0.7530   30.5920 C   0  0  0  0  0  0  0  0  0  0  0  0
    4.4620    1.7170   31.5670 C   0  0  0  0  0  0  0  0  0  0  0  0
    4.9570    1.2460   32.7330 O   0  0  0  0  0  0  0  0  0  0  0  0
    5.6790    0.0550   32.5590 C   0  0  0  0  0  0  0  0  0  0  0  0
    7.3180   -3.0430   23.5740 C   0  0  0  0  0  0  0  0  0  0  0  0
    7.6200   -3.2080   22.1270 C   0  0  0  0  0  0  0  0  0  0  0  0
  1  2  1  0
  2  3  2  0
  2  4  1  0
  4  5  1  0
  5  6  1  0
  6  7  1  0
  7  8  1  0
  8  9  2  0
  8 10  1  0
 10 11  1  0
 11 12  1  0
 12 13  2  0
 13 14  1  0
 14 15  2  0
 15 16  1  0
 12 17  1  0
 16 17  2  0
 17 18  1  0
 18 19  1  0
 20 19  1  6
 20 21  1  0
 21 22  1  0
 22 23  1  0
 20 24  1  0
 23 24  1  0
  7 25  1  0
  4 26  1  0
 25 26  1  0
M  END
