piperidine-amides-24130-covalent
     RDKit          3D

 24 26  0  0  0  0  0  0  0  0999 V2000
    7.0590   -3.3750   19.3670 C   0  0  0  0  0  0  0  0  0  0  0  0
    6.3910   -4.2510   20.3410 C   0  0  0  0  0  0  0  0  0  0  0  0
    5.3430   -4.8290   19.9700 O   0  0  0  0  0  0  0  0  0  0  0  0
    6.9540   -4.4690   21.6220 N   0  0  0  0  0  0  0  0  0  0  0  0
    6.5580   -5.6070   22.3880 C   0  0  0  0  0  0  0  0  0  0  0  0
    6.0780   -5.2710   23.7280 C   0  0  0  0  0  0  0  0  0  0  0  0
    6.0810   -3.8190   23.9680 C   0  0  0  0  0  0  0  0  0  0  0  0
    5.5140   -3.3380   25.2820 C   0  0  0  0  0  0  0  0  0  0  0  0
    4.9060   -2.2520   25.2530 O   0  0  0  0  0  0  0  0  0  0  0  0
    5.5490   -3.9870   26.5460 N   0  0  0  0  0  0  0  0  0  0  0  0
    4.6000   -3.6930   27.5480 C   0  0  0  0  0  0  0  0  0  0  0  0
    4.6910   -4.3540   28.8340 C   0  0  0  0  0  0  0  0  0  0  0  0
    6.1250   -4.1860   29.2960 C   0  0  0  0  0  0  0  0  0  0  0  0
    7.0430   -4.3180   28.3110 C   0  0  2  0  0  0  0  0  0  0  0  0
    7.1490   -2.7830   28.3140 C   0  0  0  0  0  0  0  0  0  0  0  0
    7.9000   -3.3300   27.2160 C   0  0  0  0  0  0  0  0  0  0  0  0
    8.3060   -4.5460   27.2880 N   0  0  0  0  0  0  0  0  0  0  0  0
    8.9160   -4.7340   26.1870 C   0  0  0  0  0  0  0  0  0  0  0  0
    9.5440   -6.0140   25.8920 C   0  0  0  0  0  0  0  0  0  0  0  0
    8.9120   -3.6190   25.3610 N   0  0  0  0  0  0  0  0  0  0  0  0
    8.2360   -2.6630   26.0480 O   0  0  0  0  0  0  0  0  0  0  0  0
    6.6460   -4.7380   27.0560 C   0  0  0  0  0  0  0  0  0  0  0  0
    7.4600   -3.2320   23.6660 C   0  0  0  0  0  0  0  0  0  0  0  0
    7.6490   -3.2940   22.1970 C   0  0  0  0  0  0  0  0  0  0  0  0
  1  2  1  0
  2  3  2  0
  2  4  1  0
  4  5  1  0
  5  6  1  0
  6  7  1  0
  7  8  1  0
  8  9  2  0
  8 10  1  0
 10 11  1  0
 11 12  1  0
 12 13  1  0
 13 14  1  0
 14 15  1  6
 15 16  1  0
 16 17  2  0
 17 18  1  0
 18 19  1  0
 18 20  2  0
 16 21  1  0
 20 21  1  0
 10 22  1  0
 14 22  1  0
  7 23  1  0
  4 24  1  0
 23 24  1  0
M  END
