piperidine-amides-6817-covalent
     RDKit          3D

 23 24  0  0  0  0  0  0  0  0999 V2000
    7.1340   -3.2640   19.2460 C   0  0  0  0  0  0  0  0  0  0  0  0
    6.4060   -4.0730   20.2330 C   0  0  0  0  0  0  0  0  0  0  0  0
    5.3410   -4.6500   19.9280 O   0  0  0  0  0  0  0  0  0  0  0  0
    6.9310   -4.2580   21.5150 N   0  0  0  0  0  0  0  0  0  0  0  0
    7.7230   -3.2260   22.1380 C   0  0  0  0  0  0  0  0  0  0  0  0
    6.8500   -2.6250   23.2300 C   0  0  0  0  0  0  0  0  0  0  0  0
    6.6480   -3.7410   24.2240 C   0  0  0  0  0  0  0  0  0  0  0  0
    5.8510   -3.2570   25.3650 C   0  0  0  0  0  0  0  0  0  0  0  0
    4.7230   -2.7840   25.1250 O   0  0  0  0  0  0  0  0  0  0  0  0
    6.3540   -3.3450   26.6800 N   0  0  0  0  0  0  0  0  0  0  0  0
    5.6360   -4.1280   27.6380 C   0  0  1  0  0  0  0  0  0  0  0  0
    6.5800   -4.7760   28.6280 C   0  0  0  0  0  0  0  0  0  0  0  0
    4.6540   -3.2390   28.3210 C   0  0  0  0  0  0  0  0  0  0  0  0
    5.1260   -2.1400   29.0880 N   0  0  0  0  0  0  0  0  0  0  0  0
    4.0010   -1.4860   29.6070 C   0  0  0  0  0  0  0  0  0  0  0  0
    4.1230   -0.3530   30.4130 C   0  0  0  0  0  0  0  0  0  0  0  0
    2.8960    0.1930   30.7380 F   0  0  0  0  0  0  0  0  0  0  0  0
    4.7600   -0.6890   31.5800 F   0  0  0  0  0  0  0  0  0  0  0  0
    4.8550    0.6440   29.7990 F   0  0  0  0  0  0  0  0  0  0  0  0
    2.8870   -2.1370   29.1910 C   0  0  0  0  0  0  0  0  0  0  0  0
    3.2980   -3.1560   28.4430 N   0  0  0  0  0  0  0  0  0  0  0  0
    5.8720   -4.8780   23.5530 C   0  0  0  0  0  0  0  0  0  0  0  0
    6.5850   -5.3980   22.3310 C   0  0  0  0  0  0  0  0  0  0  0  0
  1  2  1  0
  2  3  2  0
  2  4  1  0
  4  5  1  0
  5  6  1  0
  6  7  1  0
  7  8  1  0
  8  9  2  0
  8 10  1  0
 10 11  1  0
 11 12  1  1
 11 13  1  0
 13 14  2  0
 14 15  1  0
 15 16  1  0
 16 17  1  0
 16 18  1  0
 16 19  1  0
 15 20  2  0
 13 21  1  0
 20 21  1  0
  7 22  1  0
  4 23  1  0
 22 23  1  0
M  END
