piperidine-amides-13656-covalent
     RDKit          3D

 28 30  0  0  0  0  0  0  0  0999 V2000
    7.0920   -3.3290   19.2940 C   0  0  0  0  0  0  0  0  0  0  0  0
    6.3920   -4.1810   20.2930 C   0  0  0  0  0  0  0  0  0  0  0  0
    5.3510   -4.7750   19.9610 O   0  0  0  0  0  0  0  0  0  0  0  0
    6.9630   -4.3310   21.5690 N   0  0  0  0  0  0  0  0  0  0  0  0
    7.7230   -3.2720   22.1800 C   0  0  0  0  0  0  0  0  0  0  0  0
    6.8100   -2.6870   23.2450 C   0  0  0  0  0  0  0  0  0  0  0  0
    6.5530   -3.7770   24.2220 C   0  0  0  0  0  0  0  0  0  0  0  0
    5.8080   -3.2930   25.4040 C   0  0  0  0  0  0  0  0  0  0  0  0
    4.5870   -3.5380   25.4530 O   0  0  0  0  0  0  0  0  0  0  0  0
    6.4820   -2.5620   26.3910 N   0  0  0  0  0  0  0  0  0  0  0  0
    5.9180   -1.5220   27.1770 C   0  0  0  0  0  0  0  0  0  0  0  0
    4.7000   -1.8250   27.7760 C   0  0  0  0  0  0  0  0  0  0  0  0
    3.5930   -0.9140   27.7420 C   0  0  0  0  0  0  0  0  0  0  0  0
    2.3690   -1.1950   28.3250 C   0  0  0  0  0  0  0  0  0  0  0  0
    2.2080   -2.4850   28.9990 C   0  0  0  0  0  0  0  0  0  0  0  0
    3.3810   -3.4330   29.0230 C   0  0  0  0  0  0  0  0  0  0  0  0
    3.0270   -4.7270   29.7620 C   0  0  0  0  0  0  0  0  0  0  0  0
    3.9340   -5.7300   29.7620 F   0  0  0  0  0  0  0  0  0  0  0  0
    2.6630   -4.4640   31.0760 F   0  0  0  0  0  0  0  0  0  0  0  0
    1.8880   -5.2570   29.1950 F   0  0  0  0  0  0  0  0  0  0  0  0
    4.5940   -3.0670   28.4080 C   0  0  0  0  0  0  0  0  0  0  0  0
    5.8210   -0.2130   26.4900 C   0  0  0  0  0  0  0  0  0  0  0  0
    5.8040   -0.1020   28.0070 C   0  0  0  0  0  0  0  0  0  0  0  0
    6.2860    1.0620   28.5310 C   0  0  0  0  0  0  0  0  0  0  0  0
    6.6600   -0.2950   29.1680 C   0  0  0  0  0  0  0  0  0  0  0  0
    6.9860   -1.4470   28.2470 C   0  0  0  0  0  0  0  0  0  0  0  0
    5.7920   -4.9400   23.6090 C   0  0  0  0  0  0  0  0  0  0  0  0
    6.5250   -5.4380   22.4140 C   0  0  0  0  0  0  0  0  0  0  0  0
  1  2  1  0
  2  3  2  0
  2  4  1  0
  4  5  1  0
  5  6  1  0
  6  7  1  0
  7  8  1  0
  8  9  2  0
  8 10  1  0
 11 10  1  0
 11 12  1  0
 12 13  2  0
 13 14  1  0
 14 15  2  0
 15 16  1  0
 16 17  1  0
 17 18  1  0
 17 19  1  0
 17 20  1  0
 12 21  1  0
 16 21  2  0
 11 22  1  0
 22 23  1  0
 23 24  1  0
 24 25  1  0
 11 26  1  0
 25 26  1  0
  7 27  1  0
  4 28  1  0
 27 28  1  0
M  END
