piperidine-amides-35510-covalent
     RDKit          3D

 28 30  0  0  0  0  0  0  0  0999 V2000
    7.0360   -3.3170   19.2940 C   0  0  0  0  0  0  0  0  0  0  0  0
    6.3420   -4.1610   20.3020 C   0  0  0  0  0  0  0  0  0  0  0  0
    5.3180   -4.7330   19.9420 O   0  0  0  0  0  0  0  0  0  0  0  0
    6.8690   -4.3330   21.5800 N   0  0  0  0  0  0  0  0  0  0  0  0
    6.6020   -5.5190   22.3470 C   0  0  0  0  0  0  0  0  0  0  0  0
    5.7900   -5.1380   23.5530 C   0  0  0  0  0  0  0  0  0  0  0  0
    6.5290   -4.0280   24.2940 C   0  0  0  0  0  0  0  0  0  0  0  0
    5.7060   -3.6550   25.4810 C   0  0  0  0  0  0  0  0  0  0  0  0
    4.5510   -3.2600   25.2730 O   0  0  0  0  0  0  0  0  0  0  0  0
    6.1710   -3.7190   26.8230 N   0  0  0  0  0  0  0  0  0  0  0  0
    6.0290   -2.5310   27.6500 C   0  0  0  0  0  0  0  0  0  0  0  0
    5.4450   -2.8940   28.9980 C   0  0  0  0  0  0  0  0  0  0  0  0
    4.4340   -3.9100   28.7640 N   0  0  0  0  0  0  0  0  0  0  0  0
    3.2690   -3.8340   30.0440 S   0  0  0  0  0  0  0  0  0  0  0  0
    3.9770   -3.1740   31.1770 O   0  0  0  0  0  0  0  0  0  0  0  0
    2.2070   -2.8660   29.6020 O   0  0  0  0  0  0  0  0  0  0  0  0
    2.5090   -5.4320   30.5620 C   0  0  0  0  0  0  0  0  0  0  0  0
    3.3800   -6.1300   31.2910 C   0  0  0  0  0  0  0  0  0  0  0  0
    2.9550   -7.2900   31.7480 C   0  0  0  0  0  0  0  0  0  0  0  0
    1.6500   -7.9710   31.5960 C   0  0  0  0  0  0  0  0  0  0  0  0
    1.1250   -9.6580   32.3220 Br  0  0  0  0  0  0  0  0  0  0  0  0
    0.7770   -7.0660   30.7440 C   0  0  0  0  0  0  0  0  0  0  0  0
    1.0730   -5.6740   30.1040 C   0  0  0  0  0  0  0  0  0  0  0  0
    0.0230   -4.6700   29.1350 Cl  0  0  0  0  0  0  0  0  0  0  0  0
    5.0890   -5.1540   28.4830 C   0  0  0  0  0  0  0  0  0  0  0  0
    6.3090   -4.9090   27.7120 C   0  0  0  0  0  0  0  0  0  0  0  0
    6.9340   -2.8780   23.4560 C   0  0  0  0  0  0  0  0  0  0  0  0
    7.6460   -3.2810   22.2140 C   0  0  0  0  0  0  0  0  0  0  0  0
  1  2  1  0
  2  3  2  0
  2  4  1  0
  4  5  1  0
  5  6  1  0
  6  7  1  0
  7  8  1  0
  8  9  2  0
  8 10  1  0
 10 11  1  0
 11 12  1  0
 12 13  1  0
 13 14  1  0
 14 15  2  0
 14 16  2  0
 14 17  1  0
 17 18  2  0
 18 19  1  0
 19 20  2  0
 20 21  1  0
 20 22  1  0
 17 23  1  0
 22 23  2  0
 23 24  1  0
 13 25  1  0
 10 26  1  0
 25 26  1  0
  7 27  1  0
  4 28  1  0
 27 28  1  0
M  END
