piperidine-amides-8480-covalent
     RDKit          3D

 24 25  0  0  0  0  0  0  0  0999 V2000
    7.0240   -3.3560   19.3740 C   0  0  0  0  0  0  0  0  0  0  0  0
    6.3200   -4.1650   20.3700 C   0  0  0  0  0  0  0  0  0  0  0  0
    5.3600   -4.8510   19.9790 O   0  0  0  0  0  0  0  0  0  0  0  0
    6.7440   -4.1920   21.7260 N   0  0  0  0  0  0  0  0  0  0  0  0
    7.6690   -3.1870   22.1840 C   0  0  0  0  0  0  0  0  0  0  0  0
    7.4930   -3.0450   23.6520 C   0  0  0  0  0  0  0  0  0  0  0  0
    6.0900   -3.5270   23.8920 C   0  0  0  0  0  0  0  0  0  0  0  0
    5.6510   -3.1820   25.2860 C   0  0  0  0  0  0  0  0  0  0  0  0
    4.4540   -3.2970   25.5360 O   0  0  0  0  0  0  0  0  0  0  0  0
    6.6310   -2.7590   26.1770 N   0  0  0  0  0  0  0  0  0  0  0  0
    6.5220   -1.5990   27.0150 C   0  0  0  0  0  0  0  0  0  0  0  0
    6.9880   -1.5650   28.3530 C   0  0  0  0  0  0  0  0  0  0  0  0
    6.9010   -0.4590   29.1820 C   0  0  0  0  0  0  0  0  0  0  0  0
    6.3310    0.7190   28.7380 C   0  0  0  0  0  0  0  0  0  0  0  0
    6.3690    1.7370   29.8390 C   0  0  0  0  0  0  0  0  0  0  0  0
    7.6250    1.9800   30.3330 O   0  0  0  0  0  0  0  0  0  0  0  0
    5.2450    2.4010   30.3490 O   0  0  0  0  0  0  0  0  0  0  0  0
    4.7440    2.0960   31.6430 C   0  0  0  0  0  0  0  0  0  0  0  0
    4.0820    0.7690   31.6340 C   0  0  0  0  0  0  0  0  0  0  0  0
    5.8320    0.8180   27.4370 C   0  0  0  0  0  0  0  0  0  0  0  0
    5.8960   -0.3650   26.4610 C   0  0  0  0  0  0  0  0  0  0  0  0
    5.3970   -0.2360   25.1830 O   0  0  0  0  0  0  0  0  0  0  0  0
    6.0340   -5.0390   23.7340 C   0  0  0  0  0  0  0  0  0  0  0  0
    6.6110   -5.3980   22.5170 C   0  0  0  0  0  0  0  0  0  0  0  0
  1  2  1  0
  2  3  2  0
  2  4  1  0
  4  5  1  0
  5  6  1  0
  6  7  1  0
  7  8  1  0
  8  9  2  0
  8 10  1  0
 10 11  1  0
 11 12  2  0
 12 13  1  0
 13 14  2  0
 14 15  1  0
 15 16  2  0
 15 17  1  0
 17 18  1  0
 18 19  1  0
 14 20  1  0
 11 21  1  0
 20 21  2  0
 21 22  1  0
  7 23  1  0
  4 24  1  0
 23 24  1  0
M  END
