piperidine-amides-3441-covalent
     RDKit          3D

 21 21  0  0  0  0  0  0  0  0999 V2000
    7.1200   -3.2980   19.2020 C   0  0  0  0  0  0  0  0  0  0  0  0
    6.3910   -4.0520   20.2140 C   0  0  0  0  0  0  0  0  0  0  0  0
    5.3310   -4.6040   19.9180 O   0  0  0  0  0  0  0  0  0  0  0  0
    6.9370   -4.2140   21.5370 N   0  0  0  0  0  0  0  0  0  0  0  0
    6.5990   -5.3920   22.3000 C   0  0  0  0  0  0  0  0  0  0  0  0
    6.0440   -5.0410   23.6660 C   0  0  0  0  0  0  0  0  0  0  0  0
    6.0620   -3.5290   23.8490 C   0  0  0  0  0  0  0  0  0  0  0  0
    5.5860   -3.1570   25.1970 C   0  0  0  0  0  0  0  0  0  0  0  0
    4.3840   -2.9590   25.4470 O   0  0  0  0  0  0  0  0  0  0  0  0
    6.5240   -3.0300   26.2310 N   0  0  0  0  0  0  0  0  0  0  0  0
    6.1700   -3.6140   27.4900 C   0  0  0  0  0  0  0  0  0  0  0  0
    5.6640   -5.0110   27.2270 C   0  0  0  0  0  0  0  0  0  0  0  0
    5.4320   -5.7760   28.3230 C   0  0  0  0  0  0  0  0  0  0  0  0
    5.4560   -5.1770   29.5760 C   0  0  0  0  0  0  0  0  0  0  0  0
    4.6850   -5.7860   30.5650 O   0  0  0  0  0  0  0  0  0  0  0  0
    4.7210   -7.1840   30.6790 C   0  0  0  0  0  0  0  0  0  0  0  0
    4.1630   -7.4910   31.9900 C   0  0  0  0  0  0  0  0  0  0  0  0
    3.8070   -7.8390   29.8970 C   0  0  0  0  0  0  0  0  0  0  0  0
    5.9650   -7.6800   30.3810 C   0  0  0  0  0  0  0  0  0  0  0  0
    7.3180   -2.8580   23.4670 C   0  0  0  0  0  0  0  0  0  0  0  0
    7.7100   -3.1620   22.1060 C   0  0  0  0  0  0  0  0  0  0  0  0
  1  2  1  0
  2  3  2  0
  2  4  1  0
  4  5  1  0
  5  6  1  0
  6  7  1  0
  7  8  1  0
  8  9  2  0
  8 10  1  0
 10 11  1  0
 11 12  1  0
 12 13  1  0
 13 14  1  0
 14 15  1  0
 16 15  1  0
 16 17  1  0
 16 18  1  0
 16 19  1  0
  7 20  1  0
  4 21  1  0
 20 21  1  0
M  END
