piperidine-amides-35032-covalent
     RDKit          3D

 30 32  0  0  0  0  0  0  0  0999 V2000
    7.0210   -3.2970   19.3120 C   0  0  0  0  0  0  0  0  0  0  0  0
    6.3250   -4.1300   20.3330 C   0  0  0  0  0  0  0  0  0  0  0  0
    5.3500   -4.7740   19.9550 O   0  0  0  0  0  0  0  0  0  0  0  0
    6.7980   -4.1890   21.6540 N   0  0  0  0  0  0  0  0  0  0  0  0
    7.6300   -3.1580   22.2100 C   0  0  0  0  0  0  0  0  0  0  0  0
    7.3620   -3.0790   23.6800 C   0  0  0  0  0  0  0  0  0  0  0  0
    5.9410   -3.5340   23.9430 C   0  0  0  0  0  0  0  0  0  0  0  0
    5.5720   -3.3140   25.3700 C   0  0  0  0  0  0  0  0  0  0  0  0
    4.3730   -3.3820   25.6640 O   0  0  0  0  0  0  0  0  0  0  0  0
    6.5050   -3.0350   26.4080 N   0  0  0  0  0  0  0  0  0  0  0  0
    6.6120   -4.0630   27.4360 C   0  0  0  0  0  0  0  0  0  0  0  0
    7.2770   -5.3050   26.8650 C   0  0  0  0  0  0  0  0  0  0  0  0
    6.9500   -1.7050   26.4970 C   0  0  0  0  0  0  0  0  0  0  0  0
    6.0030   -0.7600   26.6740 C   0  0  0  0  0  0  0  0  0  0  0  0
    5.0150   -0.6560   25.7560 C   0  0  0  0  0  0  0  0  0  0  0  0
    3.8360    0.2900   25.6810 C   0  0  0  0  0  0  0  0  0  0  0  0
    3.8510    1.2340   26.8650 C   0  0  0  0  0  0  0  0  0  0  0  0
    4.9440    1.1540   27.9180 C   0  0  0  0  0  0  0  0  0  0  0  0
    5.9930    0.1140   27.7390 C   0  0  0  0  0  0  0  0  0  0  0  0
    6.9510    0.1350   28.7790 O   0  0  0  0  0  0  0  0  0  0  0  0
    6.3790   -0.0110   30.0160 C   0  0  0  0  0  0  0  0  0  0  0  0
    7.1750    0.5820   31.1510 C   0  0  0  0  0  0  0  0  0  0  0  0
    6.6370    0.4830   32.5200 C   0  0  0  0  0  0  0  0  0  0  0  0
    5.3250   -0.1890   32.8190 C   0  0  0  0  0  0  0  0  0  0  0  0
    4.6530   -0.3240   34.4330 Cl  0  0  0  0  0  0  0  0  0  0  0  0
    4.6220   -0.7260   31.7500 C   0  0  0  0  0  0  0  0  0  0  0  0
    3.0810   -1.5240   32.0680 Cl  0  0  0  0  0  0  0  0  0  0  0  0
    5.1790   -0.6230   30.3330 C   0  0  0  0  0  0  0  0  0  0  0  0
    5.7090   -5.0160   23.6020 C   0  0  0  0  0  0  0  0  0  0  0  0
    6.5810   -5.4150   22.4020 C   0  0  0  0  0  0  0  0  0  0  0  0
  1  2  1  0
  2  3  2  0
  2  4  1  0
  4  5  1  0
  5  6  1  0
  6  7  1  0
  7  8  1  0
  8  9  2  0
  8 10  1  0
 10 11  1  0
 11 12  1  0
 10 13  1  0
 13 14  1  0
 14 15  2  0
 15 16  1  0
 16 17  2  0
 17 18  1  0
 14 19  1  0
 18 19  2  0
 19 20  1  0
 20 21  1  0
 21 22  2  0
 22 23  1  0
 23 24  2  0
 24 25  1  0
 24 26  1  0
 26 27  1  0
 21 28  1  0
 26 28  2  0
  7 29  1  0
  4 30  1  0
 29 30  1  0
M  END
