piperidine-amides-25404-covalent
     RDKit          3D

 25 27  0  0  0  0  0  0  0  0999 V2000
    7.0980   -3.2710   19.1850 C   0  0  0  0  0  0  0  0  0  0  0  0
    6.3570   -4.0490   20.2130 C   0  0  0  0  0  0  0  0  0  0  0  0
    5.2770   -4.5260   19.8730 O   0  0  0  0  0  0  0  0  0  0  0  0
    6.8970   -4.2730   21.4810 N   0  0  0  0  0  0  0  0  0  0  0  0
    6.4570   -5.3960   22.2530 C   0  0  0  0  0  0  0  0  0  0  0  0
    5.6930   -4.8690   23.4300 C   0  0  0  0  0  0  0  0  0  0  0  0
    6.5840   -3.9190   24.2380 C   0  0  0  0  0  0  0  0  0  0  0  0
    5.7860   -3.4560   25.4020 C   0  0  0  0  0  0  0  0  0  0  0  0
    4.5500   -3.5540   25.3460 O   0  0  0  0  0  0  0  0  0  0  0  0
    6.3690   -2.8910   26.5600 N   0  0  0  0  0  0  0  0  0  0  0  0
    6.2980   -3.6710   27.7960 C   0  0  2  0  0  0  0  0  0  0  0  0
    5.9350   -5.1120   27.4680 C   0  0  0  0  0  0  0  0  0  0  0  0
    5.2270   -3.0970   28.6550 C   0  0  0  0  0  0  0  0  0  0  0  0
    5.9660   -2.1610   29.2600 C   0  0  0  0  0  0  0  0  0  0  0  0
    5.2940   -1.4250   30.1250 C   0  0  0  0  0  0  0  0  0  0  0  0
    3.8630   -1.5140   30.4950 C   0  0  0  0  0  0  0  0  0  0  0  0
    3.1520   -2.6180   29.7360 C   0  0  0  0  0  0  0  0  0  0  0  0
    3.7860   -3.5720   28.6840 C   0  0  0  0  0  0  0  0  0  0  0  0
    6.0300   -1.4760   26.6790 C   0  0  1  0  0  0  0  0  0  0  0  0
    6.8520   -0.7750   27.7050 C   0  0  0  0  0  0  0  0  0  0  0  0
    6.1550   -0.7670   25.3620 C   0  0  0  0  0  0  0  0  0  0  0  0
    5.1420   -0.6020   24.5350 C   0  0  0  0  0  0  0  0  0  0  0  0
    5.6670    0.6330   25.3500 C   0  0  0  0  0  0  0  0  0  0  0  0
    6.9840   -2.7520   23.3760 C   0  0  0  0  0  0  0  0  0  0  0  0
    7.6290   -3.2020   22.0960 C   0  0  0  0  0  0  0  0  0  0  0  0
  1  2  1  0
  2  3  2  0
  2  4  1  0
  4  5  1  0
  5  6  1  0
  6  7  1  0
  7  8  1  0
  8  9  2  0
  8 10  1  0
 10 11  1  0
 11 12  1  6
 11 13  1  0
 13 14  2  0
 14 15  1  0
 15 16  2  0
 16 17  1  0
 13 18  1  0
 17 18  2  0
 10 19  1  0
 19 20  1  1
 19 21  1  0
 21 22  1  0
 21 23  1  0
 22 23  1  0
  7 24  1  0
  4 25  1  0
 24 25  1  0
M  END
