piperidine-amides-13855-covalent
     RDKit          3D

 26 28  0  0  0  0  0  0  0  0999 V2000
    7.1040   -3.2560   19.2370 C   0  0  0  0  0  0  0  0  0  0  0  0
    6.3320   -4.0340   20.2480 C   0  0  0  0  0  0  0  0  0  0  0  0
    5.2840   -4.5970   19.8980 O   0  0  0  0  0  0  0  0  0  0  0  0
    6.8260   -4.1580   21.5680 N   0  0  0  0  0  0  0  0  0  0  0  0
    6.6120   -5.3510   22.3520 C   0  0  0  0  0  0  0  0  0  0  0  0
    5.9620   -4.9530   23.6910 C   0  0  0  0  0  0  0  0  0  0  0  0
    5.9010   -3.4600   23.7640 C   0  0  0  0  0  0  0  0  0  0  0  0
    5.2850   -2.9490   25.0160 C   0  0  0  0  0  0  0  0  0  0  0  0
    4.1350   -3.3470   25.2270 O   0  0  0  0  0  0  0  0  0  0  0  0
    5.9350   -2.0790   25.9050 N   0  0  0  0  0  0  0  0  0  0  0  0
    5.8810   -2.2200   27.3120 C   0  0  1  0  0  0  0  0  0  0  0  0
    6.3140   -3.4200   27.7250 C   0  0  0  0  0  0  0  0  0  0  0  0
    5.6130   -4.3080   28.5940 C   0  0  0  0  0  0  0  0  0  0  0  0
    6.1280   -5.5390   28.9570 C   0  0  0  0  0  0  0  0  0  0  0  0
    7.4390   -5.8890   28.4040 C   0  0  0  0  0  0  0  0  0  0  0  0
    8.1110   -4.8940   27.5000 C   0  0  0  0  0  0  0  0  0  0  0  0
    9.4390   -5.3140   26.9870 C   0  0  0  0  0  0  0  0  0  0  0  0
   10.4200   -5.0530   27.8430 F   0  0  0  0  0  0  0  0  0  0  0  0
    9.4530   -6.6260   26.6100 F   0  0  0  0  0  0  0  0  0  0  0  0
    9.7160   -4.6210   25.8330 F   0  0  0  0  0  0  0  0  0  0  0  0
    7.5300   -3.7080   27.1960 C   0  0  0  0  0  0  0  0  0  0  0  0
    6.5300   -1.1530   28.0930 C   0  0  0  0  0  0  0  0  0  0  0  0
    5.1800   -1.3140   28.2370 C   0  0  0  0  0  0  0  0  0  0  0  0
    5.7980   -0.8610   29.4560 C   0  0  0  0  0  0  0  0  0  0  0  0
    7.2020   -2.7770   23.5150 C   0  0  0  0  0  0  0  0  0  0  0  0
    7.7000   -3.1360   22.1380 C   0  0  0  0  0  0  0  0  0  0  0  0
  1  2  1  0
  2  3  2  0
  2  4  1  0
  4  5  1  0
  5  6  1  0
  6  7  1  0
  7  8  1  0
  8  9  2  0
  8 10  1  0
 11 10  1  6
 11 12  1  0
 12 13  2  0
 13 14  1  0
 14 15  2  0
 15 16  1  0
 16 17  1  0
 17 18  1  0
 17 19  1  0
 17 20  1  0
 12 21  1  0
 16 21  2  0
 11 22  1  0
 22 23  1  0
 22 24  1  0
 23 24  1  0
  7 25  1  0
  4 26  1  0
 25 26  1  0
M  END
