piperidine-amides-24142-covalent
     RDKit          3D

 24 26  0  0  0  0  0  0  0  0999 V2000
    7.1870   -3.2850   19.2320 C   0  0  0  0  0  0  0  0  0  0  0  0
    6.3920   -4.0440   20.2010 C   0  0  0  0  0  0  0  0  0  0  0  0
    5.2880   -4.5340   19.8830 O   0  0  0  0  0  0  0  0  0  0  0  0
    6.9150   -4.2770   21.4730 N   0  0  0  0  0  0  0  0  0  0  0  0
    7.6990   -3.2400   22.0840 C   0  0  0  0  0  0  0  0  0  0  0  0
    6.8270   -2.7060   23.2070 C   0  0  0  0  0  0  0  0  0  0  0  0
    6.5130   -3.8920   24.0920 C   0  0  0  0  0  0  0  0  0  0  0  0
    5.6630   -3.4170   25.1860 C   0  0  0  0  0  0  0  0  0  0  0  0
    4.4210   -3.5160   25.0790 O   0  0  0  0  0  0  0  0  0  0  0  0
    6.2630   -2.8680   26.3220 N   0  0  0  0  0  0  0  0  0  0  0  0
    6.3720   -3.7050   27.4830 C   0  0  0  0  0  0  0  0  0  0  0  0
    7.5960   -4.5550   27.3010 C   0  0  0  0  0  0  0  0  0  0  0  0
    8.0760   -5.3680   26.2960 C   0  0  0  0  0  0  0  0  0  0  0  0
    9.2470   -5.8730   26.6840 C   0  0  0  0  0  0  0  0  0  0  0  0
    9.4980   -5.3810   27.9210 C   0  0  0  0  0  0  0  0  0  0  0  0
    8.5340   -4.5680   28.3850 O   0  0  0  0  0  0  0  0  0  0  0  0
    5.9670   -1.5190   26.8620 C   0  0  0  0  0  0  0  0  0  0  0  0
    4.6990   -0.8570   26.3190 C   0  0  1  0  0  0  0  0  0  0  0  0
    5.6210   -0.0130   27.1320 C   0  0  0  0  0  0  0  0  0  0  0  0
    5.4760    1.4620   26.7880 C   0  0  0  0  0  0  0  0  0  0  0  0
    5.6120    0.7430   25.4770 C   0  0  0  0  0  0  0  0  0  0  0  0
    4.6810   -0.2420   25.1620 O   0  0  0  0  0  0  0  0  0  0  0  0
    5.7410   -4.9450   23.3440 C   0  0  0  0  0  0  0  0  0  0  0  0
    6.4030   -5.3630   22.2270 C   0  0  0  0  0  0  0  0  0  0  0  0
  1  2  1  0
  2  3  2  0
  2  4  1  0
  4  5  1  0
  5  6  1  0
  6  7  1  0
  7  8  1  0
  8  9  2  0
  8 10  1  0
 10 11  1  0
 11 12  1  0
 12 13  2  0
 13 14  1  0
 14 15  2  0
 12 16  1  0
 15 16  1  0
 10 17  1  0
 18 17  1  6
 18 19  1  0
 19 20  1  0
 20 21  1  0
 18 22  1  0
 21 22  1  0
  7 23  1  0
  4 24  1  0
 23 24  1  0
M  END
