piperidine-amides-5404-covalent
     RDKit          3D

 20 23  0  0  0  0  0  0  0  0999 V2000
    7.0990   -3.2840   19.2240 C   0  0  0  0  0  0  0  0  0  0  0  0
    6.3590   -4.0500   20.2310 C   0  0  0  0  0  0  0  0  0  0  0  0
    5.2920   -4.5890   19.9000 O   0  0  0  0  0  0  0  0  0  0  0  0
    6.8460   -4.2420   21.5410 N   0  0  0  0  0  0  0  0  0  0  0  0
    6.5720   -5.4350   22.3010 C   0  0  0  0  0  0  0  0  0  0  0  0
    5.8070   -4.9680   23.5130 C   0  0  0  0  0  0  0  0  0  0  0  0
    6.4820   -3.8320   24.2300 C   0  0  0  0  0  0  0  0  0  0  0  0
    5.6910   -3.3210   25.3830 C   0  0  0  0  0  0  0  0  0  0  0  0
    4.6190   -2.6860   25.1630 O   0  0  0  0  0  0  0  0  0  0  0  0
    6.0460   -3.4860   26.7480 N   0  0  0  0  0  0  0  0  0  0  0  0
    6.0490   -4.8210   27.4040 C   0  0  0  0  0  0  0  0  0  0  0  0
    4.7200   -5.1460   27.9660 C   0  0  1  0  0  0  0  0  0  0  0  0
    3.6920   -4.1820   28.2900 C   0  0  0  0  0  0  0  0  0  0  0  0
    2.5780   -5.1910   28.4720 C   0  0  1  0  0  0  0  0  0  0  0  0
    2.5160   -5.9870   27.1650 C   0  0  0  0  0  0  0  0  0  0  0  0
    3.9550   -6.3420   27.1550 C   0  0  2  0  0  0  0  0  0  0  0  0
    4.4200   -6.3260   28.3320 C   0  0  2  0  0  0  0  0  0  0  0  0
    3.4650   -6.0890   29.3410 C   0  0  0  0  0  0  0  0  0  0  0  0
    6.7880   -2.6420   23.3120 C   0  0  0  0  0  0  0  0  0  0  0  0
    7.6240   -3.1900   22.1560 C   0  0  0  0  0  0  0  0  0  0  0  0
  1  2  1  0
  2  3  2  0
  2  4  1  0
  4  5  1  0
  5  6  1  0
  6  7  1  0
  7  8  1  0
  8  9  2  0
  8 10  1  0
 10 11  1  0
 12 11  1  6
 12 13  1  0
 14 13  1  6
 14 15  1  0
 12 16  1  0
 16 15  1  1
 12 17  1  0
 16 17  1  0
 14 18  1  0
 17 18  1  1
  7 19  1  0
  4 20  1  0
 19 20  1  0
M  END
