piperidine-amides-19679-covalent
     RDKit          3D

 22 23  0  0  0  0  0  0  0  0999 V2000
    6.9820   -3.3830   19.4160 C   0  0  0  0  0  0  0  0  0  0  0  0
    6.3580   -4.2910   20.4220 C   0  0  0  0  0  0  0  0  0  0  0  0
    5.4150   -4.9670   20.0100 O   0  0  0  0  0  0  0  0  0  0  0  0
    6.8500   -4.3910   21.7430 N   0  0  0  0  0  0  0  0  0  0  0  0
    6.6040   -5.5680   22.5600 C   0  0  0  0  0  0  0  0  0  0  0  0
    6.1480   -5.2060   23.9700 C   0  0  0  0  0  0  0  0  0  0  0  0
    6.1320   -3.6830   24.1600 C   0  0  0  0  0  0  0  0  0  0  0  0
    5.7650   -3.2440   25.5480 C   0  0  0  0  0  0  0  0  0  0  0  0
    5.5260   -2.0480   25.7040 O   0  0  0  0  0  0  0  0  0  0  0  0
    5.6020   -4.0750   26.6930 N   0  0  0  0  0  0  0  0  0  0  0  0
    6.4040   -3.8660   27.8480 C   0  0  0  0  0  0  0  0  0  0  0  0
    6.5940   -5.2460   28.4730 C   0  0  0  0  0  0  0  0  0  0  0  0
    5.2470   -5.7770   28.7110 N   0  0  0  0  0  0  0  0  0  0  0  0
    5.1800   -6.1500   30.1330 C   0  0  0  0  0  0  0  0  0  0  0  0
    6.0810   -6.5090   30.9410 O   0  0  0  0  0  0  0  0  0  0  0  0
    3.9140   -6.1150   30.6180 C   0  0  0  0  0  0  0  0  0  0  0  0
    3.8510   -6.9560   31.6950 C   0  0  0  0  0  0  0  0  0  0  0  0
    2.6040   -6.8300   32.1640 N   0  0  0  0  0  0  0  0  0  0  0  0
    4.4030   -4.5640   28.6470 C   0  0  0  0  0  0  0  0  0  0  0  0
    4.3070   -4.2270   27.1810 C   0  0  0  0  0  0  0  0  0  0  0  0
    7.3770   -3.0380   23.7040 C   0  0  0  0  0  0  0  0  0  0  0  0
    7.6200   -3.2880   22.2620 C   0  0  0  0  0  0  0  0  0  0  0  0
  1  2  1  0
  2  3  2  0
  2  4  1  0
  4  5  1  0
  5  6  1  0
  6  7  1  0
  7  8  1  0
  8  9  2  0
  8 10  1  0
 10 11  1  0
 11 12  1  0
 12 13  1  0
 13 14  1  0
 14 15  2  0
 14 16  1  0
 16 17  1  0
 17 18  3  0
 13 19  1  0
 10 20  1  0
 19 20  1  0
  7 21  1  0
  4 22  1  0
 21 22  1  0
M  END
