piperidine-amides-18861-covalent
     RDKit          3D

 21 22  0  0  0  0  0  0  0  0999 V2000
    7.0020   -3.4210   19.3160 C   0  0  0  0  0  0  0  0  0  0  0  0
    6.3300   -4.1910   20.3380 C   0  0  0  0  0  0  0  0  0  0  0  0
    5.3440   -4.9000   19.9840 O   0  0  0  0  0  0  0  0  0  0  0  0
    6.7560   -4.2150   21.6740 N   0  0  0  0  0  0  0  0  0  0  0  0
    6.5070   -5.4500   22.4510 C   0  0  0  0  0  0  0  0  0  0  0  0
    5.6310   -4.8610   23.6310 C   0  0  0  0  0  0  0  0  0  0  0  0
    6.4460   -3.7680   24.3150 C   0  0  0  0  0  0  0  0  0  0  0  0
    5.6370   -3.2440   25.5910 C   0  0  0  0  0  0  0  0  0  0  0  0
    4.8900   -2.3530   25.2150 O   0  0  0  0  0  0  0  0  0  0  0  0
    5.9030   -3.8460   26.6980 N   0  0  0  0  0  0  0  0  0  0  0  0
    5.6460   -4.4720   27.8340 C   0  0  0  0  0  0  0  0  0  0  0  0
    6.3100   -5.4640   28.3800 C   0  0  2  0  0  0  0  0  0  0  0  0
    6.1480   -5.6400   29.7540 O   0  0  0  0  0  0  0  0  0  0  0  0
    5.8080   -6.9280   30.1260 C   0  0  0  0  0  0  0  0  0  0  0  0
    7.7450   -5.1040   27.9910 C   0  0  0  0  0  0  0  0  0  0  0  0
    7.3190   -3.8450   27.1310 C   0  0  1  0  0  0  0  0  0  0  0  0
    8.1630   -4.3290   26.1500 C   0  0  0  0  0  0  0  0  0  0  0  0
    8.6480   -3.3490   25.2870 O   0  0  0  0  0  0  0  0  0  0  0  0
    9.1260   -3.6380   24.0520 C   0  0  0  0  0  0  0  0  0  0  0  0
    6.9830   -2.7030   23.4920 C   0  0  0  0  0  0  0  0  0  0  0  0
    7.6610   -3.3060   22.2300 C   0  0  0  0  0  0  0  0  0  0  0  0
  1  2  1  0
  2  3  2  0
  2  4  1  0
  4  5  1  0
  5  6  1  0
  6  7  1  0
  7  8  1  0
  8  9  2  0
  8 10  1  0
 10 11  1  0
 11 12  1  0
 12 13  1  1
 13 14  1  0
 12 15  1  0
 10 16  1  0
 15 16  1  0
 16 17  1  6
 17 18  1  0
 18 19  1  0
  7 20  1  0
  4 21  1  0
 20 21  1  0
M  END
