piperidine-amides-24809-covalent
     RDKit          3D

 24 26  0  0  0  0  0  0  0  0999 V2000
    7.0650   -3.3340   19.3810 C   0  0  0  0  0  0  0  0  0  0  0  0
    6.4030   -4.2310   20.3400 C   0  0  0  0  0  0  0  0  0  0  0  0
    5.3860   -4.8690   19.9890 O   0  0  0  0  0  0  0  0  0  0  0  0
    6.9200   -4.4230   21.6320 N   0  0  0  0  0  0  0  0  0  0  0  0
    6.4390   -5.5450   22.3900 C   0  0  0  0  0  0  0  0  0  0  0  0
    5.5760   -4.9230   23.4930 C   0  0  0  0  0  0  0  0  0  0  0  0
    6.4950   -4.0440   24.3180 C   0  0  0  0  0  0  0  0  0  0  0  0
    5.7250   -3.4060   25.4280 C   0  0  0  0  0  0  0  0  0  0  0  0
    5.0580   -2.3930   25.1370 O   0  0  0  0  0  0  0  0  0  0  0  0
    5.6960   -3.9100   26.7700 N   0  0  0  0  0  0  0  0  0  0  0  0
    4.4140   -4.1400   27.3610 C   0  0  0  0  0  0  0  0  0  0  0  0
    4.5840   -4.5770   28.8230 C   0  0  0  0  0  0  0  0  0  0  0  0
    5.6220   -5.3930   29.1590 C   0  0  0  0  0  0  0  0  0  0  0  0
    5.7720   -5.7370   30.3640 O   0  0  0  0  0  0  0  0  0  0  0  0
    4.9760   -6.7570   30.8090 C   0  0  0  0  0  0  0  0  0  0  0  0
    4.0480   -6.3590   31.7770 C   0  0  2  0  0  0  0  0  0  0  0  0
    4.3250   -6.8120   33.0290 C   0  0  0  0  0  0  0  0  0  0  0  0
    3.6840   -8.1300   33.5050 C   0  0  0  0  0  0  0  0  0  0  0  0
    2.6080   -7.3600   32.7160 C   0  0  0  0  0  0  0  0  0  0  0  0
    2.8120   -6.8280   31.5760 O   0  0  0  0  0  0  0  0  0  0  0  0
    6.6950   -4.9290   28.5550 C   0  0  0  0  0  0  0  0  0  0  0  0
    6.4490   -3.6170   27.9410 C   0  0  0  0  0  0  0  0  0  0  0  0
    7.0640   -2.9400   23.4630 C   0  0  0  0  0  0  0  0  0  0  0  0
    7.6100   -3.3530   22.2790 C   0  0  0  0  0  0  0  0  0  0  0  0
  1  2  1  0
  2  3  2  0
  2  4  1  0
  4  5  1  0
  5  6  1  0
  6  7  1  0
  7  8  1  0
  8  9  2  0
  8 10  1  0
 10 11  1  0
 11 12  1  0
 12 13  1  0
 13 14  1  0
 14 15  1  0
 16 15  1  6
 16 17  1  0
 17 18  1  0
 18 19  1  0
 16 20  1  0
 19 20  1  0
 13 21  1  0
 10 22  1  0
 21 22  1  0
  7 23  1  0
  4 24  1  0
 23 24  1  0
M  END
