piperidine-amides-6831-covalent
     RDKit          3D

 23 24  0  0  0  0  0  0  0  0999 V2000
    7.1280   -3.2790   19.2340 C   0  0  0  0  0  0  0  0  0  0  0  0
    6.3220   -4.0360   20.1960 C   0  0  0  0  0  0  0  0  0  0  0  0
    5.2350   -4.5460   19.8700 O   0  0  0  0  0  0  0  0  0  0  0  0
    6.8090   -4.2340   21.4820 N   0  0  0  0  0  0  0  0  0  0  0  0
    6.3890   -5.4080   22.2080 C   0  0  0  0  0  0  0  0  0  0  0  0
    5.6590   -4.9000   23.4620 C   0  0  0  0  0  0  0  0  0  0  0  0
    6.6240   -3.9660   24.1610 C   0  0  0  0  0  0  0  0  0  0  0  0
    6.0650   -3.4990   25.4400 C   0  0  0  0  0  0  0  0  0  0  0  0
    4.8320   -3.2820   25.5170 O   0  0  0  0  0  0  0  0  0  0  0  0
    6.9410   -3.3070   26.5370 N   0  0  0  0  0  0  0  0  0  0  0  0
    7.7010   -4.4020   27.0830 C   0  0  1  0  0  0  0  0  0  0  0  0
    6.7120   -5.4930   27.4010 C   0  0  0  0  0  0  0  0  0  0  0  0
    6.8650   -6.1230   28.5970 C   0  0  0  0  0  0  0  0  0  0  0  0
    8.8790   -4.8480   26.3150 C   0  0  0  0  0  0  0  0  0  0  0  0
    9.7240   -3.9200   25.6590 C   0  0  0  0  0  0  0  0  0  0  0  0
   11.0420   -4.0070   25.6990 C   0  0  0  0  0  0  0  0  0  0  0  0
   12.1460   -3.1840   25.1090 C   0  0  0  0  0  0  0  0  0  0  0  0
   11.2440   -2.1540   24.3940 C   0  0  0  0  0  0  0  0  0  0  0  0
   12.2620   -0.9810   23.5370 Cl  0  0  0  0  0  0  0  0  0  0  0  0
    9.7370   -1.8530   24.2090 C   0  0  0  0  0  0  0  0  0  0  0  0
    9.1120   -2.9380   24.9830 C   0  0  0  0  0  0  0  0  0  0  0  0
    6.8440   -2.7760   23.2760 C   0  0  0  0  0  0  0  0  0  0  0  0
    7.4510   -3.1410   22.1220 C   0  0  0  0  0  0  0  0  0  0  0  0
  1  2  1  0
  2  3  2  0
  2  4  1  0
  4  5  1  0
  5  6  1  0
  6  7  1  0
  7  8  1  0
  8  9  2  0
  8 10  1  0
 10 11  1  0
 11 12  1  6
 12 13  1  0
 11 14  1  0
 14 15  1  0
 15 16  2  0
 16 17  1  0
 17 18  2  0
 18 19  1  0
 18 20  1  0
 15 21  1  0
 20 21  2  0
  7 22  1  0
  4 23  1  0
 22 23  1  0
M  END
