piperidine-amides-3830-covalent
     RDKit          3D

 19 20  0  0  0  0  0  0  0  0999 V2000
    7.1740   -3.2990   19.2270 C   0  0  0  0  0  0  0  0  0  0  0  0
    6.4010   -4.0150   20.2540 C   0  0  0  0  0  0  0  0  0  0  0  0
    5.3100   -4.5210   19.8880 O   0  0  0  0  0  0  0  0  0  0  0  0
    6.8890   -4.1770   21.5760 N   0  0  0  0  0  0  0  0  0  0  0  0
    7.5670   -3.0700   22.1770 C   0  0  0  0  0  0  0  0  0  0  0  0
    7.2780   -2.8910   23.5940 C   0  0  0  0  0  0  0  0  0  0  0  0
    6.0070   -3.5010   24.0150 C   0  0  0  0  0  0  0  0  0  0  0  0
    5.6090   -3.1420   25.4170 C   0  0  0  0  0  0  0  0  0  0  0  0
    4.5350   -2.5400   25.5860 O   0  0  0  0  0  0  0  0  0  0  0  0
    6.3840   -3.4610   26.5490 N   0  0  0  0  0  0  0  0  0  0  0  0
    6.0190   -4.3010   27.6320 C   0  0  0  0  0  0  0  0  0  0  0  0
    5.0770   -5.4080   27.4640 C   0  0  0  0  0  0  0  0  0  0  0  0
    4.0460   -5.4560   26.0260 S   0  0  0  0  0  0  0  0  0  0  0  0
    3.2500   -6.7610   26.3020 N   0  0  0  0  0  0  0  0  0  0  0  0
    3.7610   -7.2640   27.5850 C   0  0  0  0  0  0  0  0  0  0  0  0
    4.7640   -6.5690   28.2690 C   0  0  0  0  0  0  0  0  0  0  0  0
    5.5400   -7.0850   29.9430 Br  0  0  0  0  0  0  0  0  0  0  0  0
    6.0840   -4.9780   23.7400 C   0  0  0  0  0  0  0  0  0  0  0  0
    6.4820   -5.3250   22.3430 C   0  0  0  0  0  0  0  0  0  0  0  0
  1  2  1  0
  2  3  2  0
  2  4  1  0
  4  5  1  0
  5  6  1  0
  6  7  1  0
  7  8  1  0
  8  9  2  0
  8 10  1  0
 10 11  1  0
 11 12  1  0
 12 13  1  0
 13 14  1  0
 14 15  2  0
 12 16  2  0
 15 16  1  0
 16 17  1  0
  7 18  1  0
  4 19  1  0
 18 19  1  0
M  END
