piperidine-amides-13573-covalent
     RDKit          3D

 31 33  0  0  0  0  0  0  0  0999 V2000
    7.0740   -3.3600   19.3230 C   0  0  0  0  0  0  0  0  0  0  0  0
    6.3800   -4.2470   20.2970 C   0  0  0  0  0  0  0  0  0  0  0  0
    5.3260   -4.8010   19.9600 O   0  0  0  0  0  0  0  0  0  0  0  0
    6.9630   -4.4900   21.5560 N   0  0  0  0  0  0  0  0  0  0  0  0
    7.7700   -3.4870   22.2060 C   0  0  0  0  0  0  0  0  0  0  0  0
    6.8530   -2.8410   23.2240 C   0  0  0  0  0  0  0  0  0  0  0  0
    6.4550   -3.9140   24.1690 C   0  0  0  0  0  0  0  0  0  0  0  0
    5.9610   -3.3040   25.4060 C   0  0  0  0  0  0  0  0  0  0  0  0
    4.8210   -3.5840   25.8040 O   0  0  0  0  0  0  0  0  0  0  0  0
    6.8510   -2.4270   26.0140 N   0  0  0  0  0  0  0  0  0  0  0  0
    6.6280   -1.3620   26.9130 C   0  0  0  0  0  0  0  0  0  0  0  0
    6.9870   -1.4420   28.2460 C   0  0  0  0  0  0  0  0  0  0  0  0
    6.8200   -0.4330   29.2070 C   0  0  0  0  0  0  0  0  0  0  0  0
    7.1720   -0.4850   30.5330 C   0  0  0  0  0  0  0  0  0  0  0  0
    6.2010    0.8530   28.7990 C   0  0  0  0  0  0  0  0  0  0  0  0
    6.0140    1.8760   29.7090 F   0  0  0  0  0  0  0  0  0  0  0  0
    5.7740    1.0260   27.3440 C   0  0  0  0  0  0  0  0  0  0  0  0
    6.0380   -0.1690   26.4520 C   0  0  0  0  0  0  0  0  0  0  0  0
    5.7070   -0.1540   25.1020 C   0  0  0  0  0  0  0  0  0  0  0  0
    5.1190   -1.3440   24.7440 O   0  0  0  0  0  0  0  0  0  0  0  0
    5.8960    0.8680   24.2310 N   0  0  0  0  0  0  0  0  0  0  0  0
    6.4240    0.3490   23.0220 C   0  0  2  0  0  0  0  0  0  0  0  0
    7.8210    0.8770   22.7360 C   0  0  0  0  0  0  0  0  0  0  0  0
    5.4590    0.8480   21.9740 C   0  0  0  0  0  0  0  0  0  0  0  0
    4.4710    2.0190   22.1830 C   0  0  0  0  0  0  0  0  0  0  0  0
    3.5430    2.4580   21.0990 C   0  0  0  0  0  0  0  0  0  0  0  0
    3.5310    1.7790   19.7530 C   0  0  0  0  0  0  0  0  0  0  0  0
    4.5040    0.6560   19.6060 C   0  0  0  0  0  0  0  0  0  0  0  0
    5.4090    0.1800   20.5730 C   0  0  0  0  0  0  0  0  0  0  0  0
    5.6770   -5.0260   23.5430 C   0  0  0  0  0  0  0  0  0  0  0  0
    6.3790   -5.5420   22.3170 C   0  0  0  0  0  0  0  0  0  0  0  0
  1  2  1  0
  2  3  2  0
  2  4  1  0
  4  5  1  0
  5  6  1  0
  6  7  1  0
  7  8  1  0
  8  9  2  0
  8 10  1  0
 10 11  1  0
 11 12  2  0
 12 13  1  0
 13 14  1  0
 13 15  2  0
 15 16  1  0
 15 17  1  0
 11 18  1  0
 17 18  2  0
 18 19  1  0
 19 20  2  0
 19 21  1  0
 21 22  1  0
 22 23  1  6
 22 24  1  0
 24 25  2  0
 25 26  1  0
 26 27  2  0
 27 28  1  0
 24 29  1  0
 28 29  2  0
  7 30  1  0
  4 31  1  0
 30 31  1  0
M  END
