piperidine-amides-21739-covalent
     RDKit          3D

 23 25  0  0  0  0  0  0  0  0999 V2000
    7.0420   -3.3870   19.4290 C   0  0  0  0  0  0  0  0  0  0  0  0
    6.3740   -4.2420   20.4090 C   0  0  0  0  0  0  0  0  0  0  0  0
    5.3650   -4.8680   19.9890 O   0  0  0  0  0  0  0  0  0  0  0  0
    6.8770   -4.3900   21.7130 N   0  0  0  0  0  0  0  0  0  0  0  0
    6.4920   -5.4840   22.5630 C   0  0  0  0  0  0  0  0  0  0  0  0
    5.6300   -4.9360   23.6790 C   0  0  0  0  0  0  0  0  0  0  0  0
    6.2370   -3.7510   24.4080 C   0  0  0  0  0  0  0  0  0  0  0  0
    5.2580   -3.1850   25.4120 C   0  0  0  0  0  0  0  0  0  0  0  0
    4.4450   -2.3380   25.0100 O   0  0  0  0  0  0  0  0  0  0  0  0
    5.2160   -3.5820   26.7900 N   0  0  0  0  0  0  0  0  0  0  0  0
    6.2710   -4.3770   27.1270 C   0  0  0  0  0  0  0  0  0  0  0  0
    6.2670   -4.9850   28.4990 C   0  0  0  0  0  0  0  0  0  0  0  0
    4.8720   -4.8960   28.9220 N   0  0  0  0  0  0  0  0  0  0  0  0
    4.1040   -3.8590   28.6130 C   0  0  0  0  0  0  0  0  0  0  0  0
    2.8400   -4.0170   29.1390 N   0  0  0  0  0  0  0  0  0  0  0  0
    2.9620   -5.1990   29.7350 N   0  0  0  0  0  0  0  0  0  0  0  0
    4.2400   -5.8190   29.6280 C   0  0  0  0  0  0  0  0  0  0  0  0
    4.6080   -7.0530   30.1520 C   0  0  0  0  0  0  0  0  0  0  0  0
    5.3750   -6.9060   31.2760 C   0  0  0  0  0  0  0  0  0  0  0  0
    5.3800   -7.7380   29.2540 C   0  0  0  0  0  0  0  0  0  0  0  0
    4.6460   -2.8290   27.8430 C   0  0  0  0  0  0  0  0  0  0  0  0
    6.6780   -2.6790   23.4520 C   0  0  0  0  0  0  0  0  0  0  0  0
    7.5190   -3.2180   22.3130 C   0  0  0  0  0  0  0  0  0  0  0  0
  1  2  1  0
  2  3  2  0
  2  4  1  0
  4  5  1  0
  5  6  1  0
  6  7  1  0
  7  8  1  0
  8  9  2  0
  8 10  1  0
 10 11  1  0
 11 12  1  0
 12 13  1  0
 13 14  1  0
 14 15  2  0
 15 16  1  0
 13 17  1  0
 16 17  2  0
 17 18  1  0
 18 19  1  0
 18 20  1  0
 10 21  1  0
 14 21  1  0
  7 22  1  0
  4 23  1  0
 22 23  1  0
M  END
