piperidine-amides-11923-covalent
     RDKit          3D

 26 28  0  0  0  0  0  0  0  0999 V2000
    7.0210   -3.3620   19.3320 C   0  0  0  0  0  0  0  0  0  0  0  0
    6.3650   -4.1930   20.3360 C   0  0  0  0  0  0  0  0  0  0  0  0
    5.4060   -4.8890   19.9990 O   0  0  0  0  0  0  0  0  0  0  0  0
    6.8540   -4.2370   21.6930 N   0  0  0  0  0  0  0  0  0  0  0  0
    7.7030   -3.1790   22.2080 C   0  0  0  0  0  0  0  0  0  0  0  0
    7.4830   -2.9780   23.6860 C   0  0  0  0  0  0  0  0  0  0  0  0
    6.1010   -3.5160   24.0090 C   0  0  0  0  0  0  0  0  0  0  0  0
    5.5920   -3.1210   25.3630 C   0  0  0  0  0  0  0  0  0  0  0  0
    4.3720   -2.9660   25.5620 O   0  0  0  0  0  0  0  0  0  0  0  0
    6.4780   -2.9250   26.4590 N   0  0  0  0  0  0  0  0  0  0  0  0
    6.6680   -1.6010   27.0530 C   0  0  1  0  0  0  0  0  0  0  0  0
    5.6840   -0.6620   26.4110 C   0  0  0  0  0  0  0  0  0  0  0  0
    5.5650    0.6020   26.9500 C   0  0  0  0  0  0  0  0  0  0  0  0
    6.1680    0.8980   28.1700 C   0  0  0  0  0  0  0  0  0  0  0  0
    6.5440   -0.2050   28.9530 N   0  0  0  0  0  0  0  0  0  0  0  0
    6.4790   -0.1110   30.3570 C   0  0  0  0  0  0  0  0  0  0  0  0
    7.7240    0.0450   31.1070 C   0  0  0  0  0  0  0  0  0  0  0  0
    7.7790    0.1630   32.4800 C   0  0  0  0  0  0  0  0  0  0  0  0
    6.6090    0.1330   33.2070 C   0  0  0  0  0  0  0  0  0  0  0  0
    6.7560    0.2570   34.5510 F   0  0  0  0  0  0  0  0  0  0  0  0
    5.3860   -0.0180   32.5530 C   0  0  0  0  0  0  0  0  0  0  0  0
    5.3090   -0.1450   31.0920 C   0  0  0  0  0  0  0  0  0  0  0  0
    6.6350   -1.5500   28.4720 C   0  0  0  0  0  0  0  0  0  0  0  0
    6.6750   -2.7640   29.0890 O   0  0  0  0  0  0  0  0  0  0  0  0
    6.0760   -5.0100   23.8470 C   0  0  0  0  0  0  0  0  0  0  0  0
    6.5410   -5.3850   22.4760 C   0  0  0  0  0  0  0  0  0  0  0  0
  1  2  1  0
  2  3  2  0
  2  4  1  0
  4  5  1  0
  5  6  1  0
  6  7  1  0
  7  8  1  0
  8  9  2  0
  8 10  1  0
 11 10  1  1
 11 12  1  0
 12 13  1  0
 13 14  1  0
 14 15  1  0
 15 16  1  0
 16 17  2  0
 17 18  1  0
 18 19  2  0
 19 20  1  0
 19 21  1  0
 16 22  1  0
 21 22  2  0
 11 23  1  0
 15 23  1  0
 23 24  2  0
  7 25  1  0
  4 26  1  0
 25 26  1  0
M  END
