piperidine-amides-9310-covalent
     RDKit          3D

 20 20  0  0  0  0  0  0  0  0999 V2000
    7.1230   -3.2650   19.1820 C   0  0  0  0  0  0  0  0  0  0  0  0
    6.3530   -4.0030   20.1870 C   0  0  0  0  0  0  0  0  0  0  0  0
    5.2710   -4.5150   19.8640 O   0  0  0  0  0  0  0  0  0  0  0  0
    6.8350   -4.1940   21.4880 N   0  0  0  0  0  0  0  0  0  0  0  0
    6.5780   -5.3910   22.2490 C   0  0  0  0  0  0  0  0  0  0  0  0
    5.8520   -4.9230   23.4800 C   0  0  0  0  0  0  0  0  0  0  0  0
    6.6070   -3.8520   24.2170 C   0  0  0  0  0  0  0  0  0  0  0  0
    5.8500   -3.3640   25.3860 C   0  0  0  0  0  0  0  0  0  0  0  0
    4.8720   -2.5670   25.2480 O   0  0  0  0  0  0  0  0  0  0  0  0
    6.1760   -3.7770   26.6900 N   0  0  0  0  0  0  0  0  0  0  0  0
    6.5340   -5.1990   26.8930 C   0  0  2  0  0  0  0  0  0  0  0  0
    5.3070   -5.9960   27.0390 C   0  0  0  0  0  0  0  0  0  0  0  0
    4.2660   -5.4450   27.4880 O   0  0  0  0  0  0  0  0  0  0  0  0
    7.2780   -5.4000   28.2000 C   0  0  2  0  0  0  0  0  0  0  0  0
    6.3690   -4.6410   29.1210 C   0  0  0  0  0  0  0  0  0  0  0  0
    8.6160   -4.8030   28.1030 C   0  0  0  0  0  0  0  0  0  0  0  0
    8.5800   -4.8980   26.6270 C   0  0  0  0  0  0  0  0  0  0  0  0
    9.4600   -5.7610   26.0610 C   0  0  0  0  0  0  0  0  0  0  0  0
    6.9490   -2.6850   23.3270 C   0  0  0  0  0  0  0  0  0  0  0  0
    7.6710   -3.1830   22.1040 C   0  0  0  0  0  0  0  0  0  0  0  0
  1  2  1  0
  2  3  2  0
  2  4  1  0
  4  5  1  0
  5  6  1  0
  6  7  1  0
  7  8  1  0
  8  9  2  0
  8 10  1  0
 10 11  1  0
 11 12  1  1
 12 13  1  0
 11 14  1  0
 14 15  1  1
 14 16  1  0
 16 17  1  0
 17 18  1  0
  7 19  1  0
  4 20  1  0
 19 20  1  0
M  END
