piperidine-amides-6490-covalent
     RDKit          3D

 25 26  0  0  0  0  0  0  0  0999 V2000
    7.0550   -3.3070   19.3590 C   0  0  0  0  0  0  0  0  0  0  0  0
    6.3660   -4.1540   20.3470 C   0  0  0  0  0  0  0  0  0  0  0  0
    5.4030   -4.8680   19.9880 O   0  0  0  0  0  0  0  0  0  0  0  0
    6.7990   -4.2020   21.6830 N   0  0  0  0  0  0  0  0  0  0  0  0
    6.6690   -5.4540   22.4020 C   0  0  0  0  0  0  0  0  0  0  0  0
    6.1140   -5.1500   23.8030 C   0  0  0  0  0  0  0  0  0  0  0  0
    6.0370   -3.6470   23.9400 C   0  0  0  0  0  0  0  0  0  0  0  0
    5.5860   -3.2340   25.2890 C   0  0  0  0  0  0  0  0  0  0  0  0
    4.3650   -3.3210   25.5370 O   0  0  0  0  0  0  0  0  0  0  0  0
    6.4970   -2.7480   26.2540 N   0  0  0  0  0  0  0  0  0  0  0  0
    6.3910   -1.3890   26.7320 C   0  0  0  0  0  0  0  0  0  0  0  0
    6.1650   -0.2430   25.7860 C   0  0  0  0  0  0  0  0  0  0  0  0
    6.0680    1.0450   26.2520 C   0  0  0  0  0  0  0  0  0  0  0  0
    6.1830    1.2880   27.5880 C   0  0  0  0  0  0  0  0  0  0  0  0
    6.3870    0.2660   28.4770 C   0  0  0  0  0  0  0  0  0  0  0  0
    6.4930   -1.0470   28.1660 C   0  0  0  0  0  0  0  0  0  0  0  0
    6.6830   -1.9690   29.2830 C   0  0  0  0  0  0  0  0  0  0  0  0
    6.6390   -3.1990   29.2310 O   0  0  0  0  0  0  0  0  0  0  0  0
    6.8710   -1.3020   30.4270 N   0  0  0  0  0  0  0  0  0  0  0  0
    8.0190   -0.5210   30.7290 C   0  0  0  0  0  0  0  0  0  0  0  0
    5.6900   -0.6230   31.0400 C   0  0  0  0  0  0  0  0  0  0  0  0
    4.4410   -1.1750   30.5210 C   0  0  0  0  0  0  0  0  0  0  0  0
    5.8610    0.7640   30.8700 C   0  0  0  0  0  0  0  0  0  0  0  0
    7.4220   -3.0830   23.6790 C   0  0  0  0  0  0  0  0  0  0  0  0
    7.6950   -3.1820   22.2050 C   0  0  0  0  0  0  0  0  0  0  0  0
  1  2  1  0
  2  3  2  0
  2  4  1  0
  4  5  1  0
  5  6  1  0
  6  7  1  0
  7  8  1  0
  8  9  2  0
  8 10  1  0
 10 11  1  0
 11 12  2  0
 12 13  1  0
 13 14  2  0
 14 15  1  0
 11 16  1  0
 15 16  2  0
 16 17  1  0
 17 18  2  0
 17 19  1  0
 19 20  1  0
 19 21  1  0
 21 22  1  0
 21 23  1  0
  7 24  1  0
  4 25  1  0
 24 25  1  0
M  END
