piperidine-amides-31820-covalent
     RDKit          3D

 27 28  0  0  0  0  0  0  0  0999 V2000
    7.0290   -3.4270   19.3390 C   0  0  0  0  0  0  0  0  0  0  0  0
    6.4060   -4.2300   20.3650 C   0  0  0  0  0  0  0  0  0  0  0  0
    5.4010   -4.9200   20.0070 O   0  0  0  0  0  0  0  0  0  0  0  0
    6.8850   -4.3250   21.6970 N   0  0  0  0  0  0  0  0  0  0  0  0
    7.7610   -3.2640   22.2370 C   0  0  0  0  0  0  0  0  0  0  0  0
    6.7640   -2.6690   23.2900 C   0  0  0  0  0  0  0  0  0  0  0  0
    6.5450   -3.7750   24.2950 C   0  0  0  0  0  0  0  0  0  0  0  0
    5.5510   -3.2770   25.4490 C   0  0  0  0  0  0  0  0  0  0  0  0
    4.6200   -2.6960   24.9130 O   0  0  0  0  0  0  0  0  0  0  0  0
    5.9080   -3.5810   26.6580 N   0  0  0  0  0  0  0  0  0  0  0  0
    6.3350   -4.0440   27.8510 C   0  0  0  0  0  0  0  0  0  0  0  0
    6.7090   -5.2090   28.4580 C   0  0  0  0  0  0  0  0  0  0  0  0
    5.6810   -5.6400   29.2860 C   0  0  0  0  0  0  0  0  0  0  0  0
    4.4460   -4.8350   29.1270 C   0  0  1  0  0  0  0  0  0  0  0  0
    3.9050   -5.1270   27.8780 O   0  0  0  0  0  0  0  0  0  0  0  0
    3.7940   -5.6160   30.2920 C   0  0  0  0  0  0  0  0  0  0  0  0
    2.8580   -6.5640   29.8640 F   0  0  0  0  0  0  0  0  0  0  0  0
    4.7380   -6.2430   31.1130 F   0  0  0  0  0  0  0  0  0  0  0  0
    3.2090   -4.4710   30.8590 C   0  0  0  0  0  0  0  0  0  0  0  0
    2.4690   -3.5030   30.1440 O   0  0  0  0  0  0  0  0  0  0  0  0
    3.4160   -4.3650   32.2430 O   0  0  0  0  0  0  0  0  0  0  0  0
    2.2050   -4.5300   32.8840 C   0  0  0  0  0  0  0  0  0  0  0  0
    2.1900   -5.8610   33.6350 C   0  0  0  0  0  0  0  0  0  0  0  0
    5.2890   -3.6020   29.0210 C   0  0  0  0  0  0  0  0  0  0  0  0
    5.2560   -2.9340   27.7910 C   0  0  0  0  0  0  0  0  0  0  0  0
    6.1050   -5.1290   23.7190 C   0  0  0  0  0  0  0  0  0  0  0  0
    6.6310   -5.4840   22.5080 C   0  0  0  0  0  0  0  0  0  0  0  0
  1  2  1  0
  2  3  2  0
  2  4  1  0
  4  5  1  0
  5  6  1  0
  6  7  1  0
  7  8  1  0
  8  9  2  0
  8 10  1  0
 10 11  1  0
 11 12  1  0
 12 13  1  0
 13 14  1  0
 14 15  1  6
 14 16  1  0
 16 17  1  0
 16 18  1  0
 16 19  1  0
 19 20  2  0
 19 21  1  0
 21 22  1  0
 22 23  1  0
 14 24  1  0
 10 25  1  0
 24 25  1  0
  7 26  1  0
  4 27  1  0
 26 27  1  0
M  END
