piperidine-amides-3280-covalent
     RDKit          3D

 22 22  0  0  0  0  0  0  0  0999 V2000
    7.0700   -3.3280   19.3060 C   0  0  0  0  0  0  0  0  0  0  0  0
    6.3260   -4.0900   20.3010 C   0  0  0  0  0  0  0  0  0  0  0  0
    5.3190   -4.7090   19.9520 O   0  0  0  0  0  0  0  0  0  0  0  0
    6.7800   -4.1650   21.6700 N   0  0  0  0  0  0  0  0  0  0  0  0
    7.6490   -3.1420   22.2100 C   0  0  0  0  0  0  0  0  0  0  0  0
    7.3580   -2.9420   23.6710 C   0  0  0  0  0  0  0  0  0  0  0  0
    6.0590   -3.6670   23.9520 C   0  0  0  0  0  0  0  0  0  0  0  0
    5.4910   -3.3710   25.3070 C   0  0  0  0  0  0  0  0  0  0  0  0
    4.3370   -2.9320   25.4300 O   0  0  0  0  0  0  0  0  0  0  0  0
    6.2460   -3.5680   26.4960 N   0  0  0  0  0  0  0  0  0  0  0  0
    6.1850   -4.8400   27.2060 C   0  0  0  0  0  0  0  0  0  0  0  0
    4.8640   -5.0210   27.8640 C   0  0  1  0  0  0  0  0  0  0  0  0
    3.9660   -5.4560   26.9120 O   0  0  0  0  0  0  0  0  0  0  0  0
    4.7270   -6.0260   28.8000 C   0  0  0  0  0  0  0  0  0  0  0  0
    3.5090   -6.3240   29.3940 O   0  0  0  0  0  0  0  0  0  0  0  0
    3.1740   -7.5140   30.0280 C   0  0  0  0  0  0  0  0  0  0  0  0
    3.2960   -7.4820   31.4030 C   0  0  0  0  0  0  0  0  0  0  0  0
    2.2710   -7.9540   32.1680 O   0  0  0  0  0  0  0  0  0  0  0  0
    2.6040   -8.7400   33.2350 C   0  0  0  0  0  0  0  0  0  0  0  0
    1.6260   -9.6430   33.5900 C   0  0  0  0  0  0  0  0  0  0  0  0
    6.3190   -5.1520   23.7380 C   0  0  0  0  0  0  0  0  0  0  0  0
    6.4850   -5.4070   22.3720 C   0  0  0  0  0  0  0  0  0  0  0  0
  1  2  1  0
  2  3  2  0
  2  4  1  0
  4  5  1  0
  5  6  1  0
  6  7  1  0
  7  8  1  0
  8  9  2  0
  8 10  1  0
 10 11  1  0
 11 12  1  0
 12 13  1  6
 12 14  1  0
 14 15  1  0
 15 16  1  0
 16 17  1  0
 17 18  1  0
 18 19  1  0
 19 20  1  0
  7 21  1  0
  4 22  1  0
 21 22  1  0
M  END
