piperidine-amides-31098-covalent
     RDKit          3D

 23 25  0  0  0  0  0  0  0  0999 V2000
    7.0760   -3.3760   19.4110 C   0  0  0  0  0  0  0  0  0  0  0  0
    6.3660   -4.2000   20.3830 C   0  0  0  0  0  0  0  0  0  0  0  0
    5.3860   -4.8620   19.9920 O   0  0  0  0  0  0  0  0  0  0  0  0
    6.7910   -4.3070   21.7290 N   0  0  0  0  0  0  0  0  0  0  0  0
    6.5270   -5.4620   22.5460 C   0  0  0  0  0  0  0  0  0  0  0  0
    5.6980   -4.9690   23.7160 C   0  0  0  0  0  0  0  0  0  0  0  0
    6.2450   -3.7280   24.3890 C   0  0  0  0  0  0  0  0  0  0  0  0
    5.2540   -3.0930   25.3410 C   0  0  0  0  0  0  0  0  0  0  0  0
    4.1510   -2.6760   24.8970 O   0  0  0  0  0  0  0  0  0  0  0  0
    5.4640   -2.9420   26.7530 N   0  0  0  0  0  0  0  0  0  0  0  0
    4.5190   -2.2950   27.6880 C   0  0  0  0  0  0  0  0  0  0  0  0
    4.6670   -2.9300   29.0350 C   0  0  0  0  0  0  0  0  0  0  0  0
    4.8580   -4.3650   28.9620 C   0  0  0  0  0  0  0  0  0  0  0  0
    3.9820   -5.2410   29.8380 C   0  0  0  0  0  0  0  0  0  0  0  0
    2.6550   -4.5210   31.0250 Br  0  0  0  0  0  0  0  0  0  0  0  0
    4.2170   -6.7310   29.7120 C   0  0  0  0  0  0  0  0  0  0  0  0
    5.2700   -7.0710   28.7290 C   0  0  0  0  0  0  0  0  0  0  0  0
    5.9830   -6.1680   27.9920 C   0  0  0  0  0  0  0  0  0  0  0  0
    6.8940   -6.5670   27.1230 F   0  0  0  0  0  0  0  0  0  0  0  0
    5.7760   -4.8090   28.1160 C   0  0  0  0  0  0  0  0  0  0  0  0
    6.4250   -3.6280   27.4110 C   0  0  0  0  0  0  0  0  0  0  0  0
    6.7530   -2.6630   23.4420 C   0  0  0  0  0  0  0  0  0  0  0  0
    7.5990   -3.2840   22.3510 C   0  0  0  0  0  0  0  0  0  0  0  0
  1  2  1  0
  2  3  2  0
  2  4  1  0
  4  5  1  0
  5  6  1  0
  6  7  1  0
  7  8  1  0
  8  9  2  0
  8 10  1  0
 10 11  1  0
 11 12  1  0
 12 13  1  0
 13 14  2  0
 14 15  1  0
 14 16  1  0
 16 17  2  0
 17 18  1  0
 18 19  1  0
 13 20  1  0
 18 20  2  0
 10 21  1  0
 20 21  1  0
  7 22  1  0
  4 23  1  0
 22 23  1  0
M  END
