piperidine-amides-14891-covalent
     RDKit          3D

 21 21  0  0  0  0  0  0  0  0999 V2000
    7.1540   -3.2970   19.2600 C   0  0  0  0  0  0  0  0  0  0  0  0
    6.3830   -4.0540   20.2340 C   0  0  0  0  0  0  0  0  0  0  0  0
    5.2870   -4.5270   19.8820 O   0  0  0  0  0  0  0  0  0  0  0  0
    6.9210   -4.2980   21.5230 N   0  0  0  0  0  0  0  0  0  0  0  0
    7.6290   -3.2460   22.1930 C   0  0  0  0  0  0  0  0  0  0  0  0
    6.8180   -2.7740   23.3630 C   0  0  0  0  0  0  0  0  0  0  0  0
    6.6150   -3.9490   24.3030 C   0  0  0  0  0  0  0  0  0  0  0  0
    5.8870   -3.4850   25.5220 C   0  0  0  0  0  0  0  0  0  0  0  0
    4.7070   -3.1670   25.3610 O   0  0  0  0  0  0  0  0  0  0  0  0
    6.5780   -3.4320   26.7300 N   0  0  0  0  0  0  0  0  0  0  0  0
    6.8010   -4.5620   27.5880 C   0  0  2  0  0  0  0  0  0  0  0  0
    7.5030   -5.6590   27.0670 C   0  0  0  0  0  0  0  0  0  0  0  0
    5.4870   -5.1170   27.8910 C   0  0  0  0  0  0  0  0  0  0  0  0
    4.5890   -5.4030   26.8890 O   0  0  0  0  0  0  0  0  0  0  0  0
    5.1250   -5.3580   29.2240 O   0  0  0  0  0  0  0  0  0  0  0  0
    4.9330   -6.7240   29.6150 C   0  0  0  0  0  0  0  0  0  0  0  0
    4.4980   -7.6780   28.5680 C   0  0  0  0  0  0  0  0  0  0  0  0
    6.0730   -7.0850   30.2580 C   0  0  0  0  0  0  0  0  0  0  0  0
    4.0380   -6.6310   30.6780 C   0  0  0  0  0  0  0  0  0  0  0  0
    5.9060   -5.0700   23.6230 C   0  0  0  0  0  0  0  0  0  0  0  0
    6.4390   -5.4430   22.2310 C   0  0  0  0  0  0  0  0  0  0  0  0
  1  2  1  0
  2  3  2  0
  2  4  1  0
  4  5  1  0
  5  6  1  0
  6  7  1  0
  7  8  1  0
  8  9  2  0
  8 10  1  0
 10 11  1  0
 11 12  1  6
 11 13  1  0
 13 14  2  0
 13 15  1  0
 16 15  1  0
 16 17  1  0
 16 18  1  0
 16 19  1  0
  7 20  1  0
  4 21  1  0
 20 21  1  0
M  END
