piperidine-amides-29933-covalent
     RDKit          3D

 27 29  0  0  0  0  0  0  0  0999 V2000
    7.0330   -3.3750   19.3660 C   0  0  0  0  0  0  0  0  0  0  0  0
    6.3350   -4.1870   20.3580 C   0  0  0  0  0  0  0  0  0  0  0  0
    5.3740   -4.8700   19.9940 O   0  0  0  0  0  0  0  0  0  0  0  0
    6.7860   -4.2400   21.7330 N   0  0  0  0  0  0  0  0  0  0  0  0
    7.6420   -3.1940   22.2610 C   0  0  0  0  0  0  0  0  0  0  0  0
    7.2500   -2.8020   23.6640 C   0  0  0  0  0  0  0  0  0  0  0  0
    6.0040   -3.5780   24.0310 C   0  0  0  0  0  0  0  0  0  0  0  0
    5.4920   -3.2780   25.4090 C   0  0  0  0  0  0  0  0  0  0  0  0
    4.2680   -3.1900   25.6140 O   0  0  0  0  0  0  0  0  0  0  0  0
    6.3570   -3.0800   26.5300 N   0  0  0  0  0  0  0  0  0  0  0  0
    6.4670   -4.1810   27.4680 C   0  0  0  0  0  0  0  0  0  0  0  0
    6.6260   -1.7110   26.9420 C   0  0  0  0  0  0  0  0  0  0  0  0
    7.0630   -1.5220   28.2720 C   0  0  0  0  0  0  0  0  0  0  0  0
    6.4680   -0.6910   29.2290 C   0  0  0  0  0  0  0  0  0  0  0  0
    5.6420    0.3620   28.7830 N   0  0  0  0  0  0  0  0  0  0  0  0
    4.8170    1.0810   29.6570 C   0  0  0  0  0  0  0  0  0  0  0  0
    3.8230    0.3280   30.4210 C   0  0  0  0  0  0  0  0  0  0  0  0
    3.3490    0.5540   31.6930 C   0  0  0  0  0  0  0  0  0  0  0  0
    3.7480   -0.0890   32.8610 C   0  0  0  0  0  0  0  0  0  0  0  0
    3.1640    0.2550   34.0730 C   0  0  0  0  0  0  0  0  0  0  0  0
    2.1440    1.2970   34.0230 C   0  0  0  0  0  0  0  0  0  0  0  0
    1.7790    1.9080   32.8460 C   0  0  0  0  0  0  0  0  0  0  0  0
    2.3890    1.5430   31.6000 N   0  0  0  0  0  0  0  0  0  0  0  0
    5.4480    0.3410   27.3770 C   0  0  0  0  0  0  0  0  0  0  0  0
    5.6410   -0.8480   26.5090 C   0  0  0  0  0  0  0  0  0  0  0  0
    6.1180   -5.0660   23.8840 C   0  0  0  0  0  0  0  0  0  0  0  0
    6.6090   -5.4420   22.4980 C   0  0  0  0  0  0  0  0  0  0  0  0
  1  2  1  0
  2  3  2  0
  2  4  1  0
  4  5  1  0
  5  6  1  0
  6  7  1  0
  7  8  1  0
  8  9  2  0
  8 10  1  0
 10 11  1  0
 10 12  1  0
 12 13  1  0
 13 14  1  0
 14 15  1  0
 15 16  1  0
 16 17  1  0
 17 18  1  0
 18 19  2  0
 19 20  1  0
 20 21  2  0
 21 22  1  0
 18 23  1  0
 22 23  2  0
 15 24  1  0
 12 25  1  0
 24 25  1  0
  7 26  1  0
  4 27  1  0
 26 27  1  0
M  END
