piperidine-amides-9078-covalent
     RDKit          3D

 21 22  0  0  0  0  0  0  0  0999 V2000
    7.0730   -3.3280   19.2860 C   0  0  0  0  0  0  0  0  0  0  0  0
    6.3610   -4.1330   20.2780 C   0  0  0  0  0  0  0  0  0  0  0  0
    5.3290   -4.7350   19.9450 O   0  0  0  0  0  0  0  0  0  0  0  0
    6.8500   -4.2830   21.5790 N   0  0  0  0  0  0  0  0  0  0  0  0
    6.5670   -5.4460   22.3860 C   0  0  0  0  0  0  0  0  0  0  0  0
    5.8390   -4.9340   23.6030 C   0  0  0  0  0  0  0  0  0  0  0  0
    6.5530   -3.7660   24.2230 C   0  0  0  0  0  0  0  0  0  0  0  0
    5.8290   -3.1920   25.3840 C   0  0  0  0  0  0  0  0  0  0  0  0
    4.5850   -2.9600   25.3130 O   0  0  0  0  0  0  0  0  0  0  0  0
    6.4850   -2.9020   26.6040 N   0  0  0  0  0  0  0  0  0  0  0  0
    6.1610   -1.7170   27.4400 C   0  0  0  0  0  0  0  0  0  0  0  0
    4.9020   -2.1140   28.1050 C   0  0  0  0  0  0  0  0  0  0  0  0
    5.1030   -3.2470   29.0230 C   0  0  0  0  0  0  0  0  0  0  0  0
    5.9560   -0.4670   26.6040 C   0  0  0  0  0  0  0  0  0  0  0  0
    4.7430    0.2520   27.1830 C   0  0  0  0  0  0  0  0  0  0  0  0
    5.0360    0.8160   28.5320 C   0  0  0  0  0  0  0  0  0  0  0  0
    6.3400    0.8400   28.9340 C   0  0  0  0  0  0  0  0  0  0  0  0
    6.9000   -0.3480   29.3980 C   0  0  0  0  0  0  0  0  0  0  0  0
    7.1720   -1.3930   28.3580 C   0  0  0  0  0  0  0  0  0  0  0  0
    6.8750   -2.6470   23.2790 C   0  0  0  0  0  0  0  0  0  0  0  0
    7.6790   -3.2500   22.1710 C   0  0  0  0  0  0  0  0  0  0  0  0
  1  2  1  0
  2  3  2  0
  2  4  1  0
  4  5  1  0
  5  6  1  0
  6  7  1  0
  7  8  1  0
  8  9  2  0
  8 10  1  0
 11 10  1  0
 11 12  1  0
 12 13  1  0
 11 14  1  0
 14 15  1  0
 15 16  1  0
 16 17  1  0
 17 18  1  0
 11 19  1  0
 18 19  1  0
  7 20  1  0
  4 21  1  0
 20 21  1  0
M  END
