piperidine-amides-35329-covalent
     RDKit          3D

 33 35  0  0  0  0  0  0  0  0999 V2000
    7.1370   -3.2540   19.1760 C   0  0  0  0  0  0  0  0  0  0  0  0
    6.3950   -4.0180   20.2180 C   0  0  0  0  0  0  0  0  0  0  0  0
    5.3330   -4.5400   19.8850 O   0  0  0  0  0  0  0  0  0  0  0  0
    6.9450   -4.1520   21.4950 N   0  0  0  0  0  0  0  0  0  0  0  0
    7.7680   -3.1200   22.0700 C   0  0  0  0  0  0  0  0  0  0  0  0
    7.0630   -2.5500   23.2580 C   0  0  0  0  0  0  0  0  0  0  0  0
    6.6070   -3.6940   24.1520 C   0  0  0  0  0  0  0  0  0  0  0  0
    5.7490   -3.1140   25.1940 C   0  0  0  0  0  0  0  0  0  0  0  0
    5.0970   -2.0900   24.9630 O   0  0  0  0  0  0  0  0  0  0  0  0
    5.6300   -3.7270   26.4380 N   0  0  0  0  0  0  0  0  0  0  0  0
    4.3950   -4.3720   26.6920 C   0  0  0  0  0  0  0  0  0  0  0  0
    4.5970   -5.1940   27.9380 C   0  0  0  0  0  0  0  0  0  0  0  0
    5.2590   -4.7370   29.0190 C   0  0  0  0  0  0  0  0  0  0  0  0
    5.2730   -5.7660   29.9190 C   0  0  0  0  0  0  0  0  0  0  0  0
    3.9310   -6.1740   30.3090 N   0  0  0  0  0  0  0  0  0  0  0  0
    3.4160   -5.8150   31.6160 C   0  0  0  0  0  0  0  0  0  0  0  0
    2.3010   -5.0400   31.7340 O   0  0  0  0  0  0  0  0  0  0  0  0
    3.9730   -6.2170   32.8070 O   0  0  0  0  0  0  0  0  0  0  0  0
    3.2540   -6.1710   34.0220 C   0  0  0  0  0  0  0  0  0  0  0  0
    4.1150   -5.6670   35.1430 C   0  0  0  0  0  0  0  0  0  0  0  0
    3.6970   -4.2270   35.4180 C   0  0  0  0  0  0  0  0  0  0  0  0
    4.4510   -3.5270   36.5260 C   0  0  0  0  0  0  0  0  0  0  0  0
    5.5190   -4.2860   37.2430 C   0  0  0  0  0  0  0  0  0  0  0  0
    5.8600   -5.7070   36.8990 C   0  0  0  0  0  0  0  0  0  0  0  0
    5.1040   -6.3520   35.8170 C   0  0  0  0  0  0  0  0  0  0  0  0
    4.7580   -3.5260   29.5110 C   0  0  0  0  0  0  0  0  0  0  0  0
    3.9460   -2.8690   28.6380 F   0  0  0  0  0  0  0  0  0  0  0  0
    5.7600   -2.6810   29.8790 F   0  0  0  0  0  0  0  0  0  0  0  0
    4.0230   -3.8220   30.6440 F   0  0  0  0  0  0  0  0  0  0  0  0
    6.4870   -4.3530   28.5360 C   0  0  0  0  0  0  0  0  0  0  0  0
    6.2740   -3.2030   27.5750 C   0  0  0  0  0  0  0  0  0  0  0  0
    5.7740   -4.7870   23.4560 C   0  0  0  0  0  0  0  0  0  0  0  0
    6.5900   -5.3070   22.2800 C   0  0  0  0  0  0  0  0  0  0  0  0
  1  2  1  0
  2  3  2  0
  2  4  1  0
  4  5  1  0
  5  6  1  0
  6  7  1  0
  7  8  1  0
  8  9  2  0
  8 10  1  0
 10 11  1  0
 11 12  1  0
 12 13  1  0
 13 14  1  0
 14 15  1  0
 15 16  1  0
 16 17  2  0
 16 18  1  0
 18 19  1  0
 19 20  1  0
 20 21  2  0
 21 22  1  0
 22 23  2  0
 23 24  1  0
 20 25  1  0
 24 25  2  0
 13 26  1  0
 26 27  1  0
 26 28  1  0
 26 29  1  0
 13 30  1  0
 10 31  1  0
 30 31  1  0
  7 32  1  0
  4 33  1  0
 32 33  1  0
M  END
