piperidine-amides-1995-covalent
     RDKit          3D

 22 24  0  0  0  0  0  0  0  0999 V2000
    7.0990   -3.2600   19.1780 C   0  0  0  0  0  0  0  0  0  0  0  0
    6.3480   -4.0190   20.2100 C   0  0  0  0  0  0  0  0  0  0  0  0
    5.2810   -4.5230   19.8730 O   0  0  0  0  0  0  0  0  0  0  0  0
    6.8830   -4.1760   21.4870 N   0  0  0  0  0  0  0  0  0  0  0  0
    7.6390   -3.1230   22.1170 C   0  0  0  0  0  0  0  0  0  0  0  0
    6.8800   -2.6320   23.3110 C   0  0  0  0  0  0  0  0  0  0  0  0
    6.5710   -3.8190   24.2170 C   0  0  0  0  0  0  0  0  0  0  0  0
    5.7640   -3.3080   25.3440 C   0  0  0  0  0  0  0  0  0  0  0  0
    4.5450   -3.1440   25.2000 O   0  0  0  0  0  0  0  0  0  0  0  0
    6.3720   -3.0090   26.5770 N   0  0  0  0  0  0  0  0  0  0  0  0
    5.5850   -2.3460   27.5890 C   0  0  1  0  0  0  0  0  0  0  0  0
    6.0130   -2.7840   28.9170 C   0  0  0  0  0  0  0  0  0  0  0  0
    6.3270   -1.5410   29.2880 C   0  0  2  0  0  0  0  0  0  0  0  0
    5.5540   -0.9140   30.2200 C   0  0  0  0  0  0  0  0  0  0  0  0
    4.3180   -1.5210   30.6750 N   0  0  0  0  0  0  0  0  0  0  0  0
    3.8790   -1.6660   31.9940 C   0  0  0  0  0  0  0  0  0  0  0  0
    2.6990   -2.2700   31.9650 N   0  0  0  0  0  0  0  0  0  0  0  0
    2.4650   -2.4800   30.4920 C   0  0  0  0  0  0  0  0  0  0  0  0
    3.5600   -1.9660   29.7340 N   0  0  0  0  0  0  0  0  0  0  0  0
    5.9380   -0.8900   27.9560 C   0  0  0  0  0  0  0  0  0  0  0  0
    5.8700   -4.9420   23.5600 C   0  0  0  0  0  0  0  0  0  0  0  0
    6.4470   -5.3120   22.2410 C   0  0  0  0  0  0  0  0  0  0  0  0
  1  2  1  0
  2  3  2  0
  2  4  1  0
  4  5  1  0
  5  6  1  0
  6  7  1  0
  7  8  1  0
  8  9  2  0
  8 10  1  0
 11 10  1  6
 11 12  1  0
 12 13  1  0
 13 14  1  1
 14 15  1  0
 15 16  1  0
 16 17  2  0
 17 18  1  0
 15 19  1  0
 18 19  2  0
 11 20  1  0
 13 20  1  0
  7 21  1  0
  4 22  1  0
 21 22  1  0
M  END
