piperidine-amides-5511-covalent
     RDKit          3D

 20 21  0  0  0  0  0  0  0  0999 V2000
    7.0830   -3.3310   19.2730 C   0  0  0  0  0  0  0  0  0  0  0  0
    6.3880   -4.1320   20.2800 C   0  0  0  0  0  0  0  0  0  0  0  0
    5.3620   -4.7520   19.9590 O   0  0  0  0  0  0  0  0  0  0  0  0
    6.9010   -4.2460   21.5840 N   0  0  0  0  0  0  0  0  0  0  0  0
    7.7610   -3.2400   22.1620 C   0  0  0  0  0  0  0  0  0  0  0  0
    7.0000   -2.6780   23.3200 C   0  0  0  0  0  0  0  0  0  0  0  0
    6.5330   -3.7680   24.2270 C   0  0  0  0  0  0  0  0  0  0  0  0
    5.7970   -3.2490   25.4020 C   0  0  0  0  0  0  0  0  0  0  0  0
    4.5330   -3.1760   25.3830 O   0  0  0  0  0  0  0  0  0  0  0  0
    6.4480   -2.8160   26.5740 N   0  0  0  0  0  0  0  0  0  0  0  0
    6.3480   -1.4150   27.0470 C   0  0  0  0  0  0  0  0  0  0  0  0
    5.7750   -0.3670   26.1900 C   0  0  0  0  0  0  0  0  0  0  0  0
    5.6860    1.0090   26.6920 C   0  0  0  0  0  0  0  0  0  0  0  0
    6.1760    1.3450   28.0650 C   0  0  0  0  0  0  0  0  0  0  0  0
    6.1040    2.7500   28.6280 C   0  0  0  0  0  0  0  0  0  0  0  0
    6.7600    0.2200   28.9060 C   0  0  0  0  0  0  0  0  0  0  0  0
    6.8510   -1.0630   28.4600 C   0  0  0  0  0  0  0  0  0  0  0  0
    7.3800   -2.0030   29.2730 C   0  0  0  0  0  0  0  0  0  0  0  0
    5.6620   -4.8230   23.5290 C   0  0  0  0  0  0  0  0  0  0  0  0
    6.5030   -5.3860   22.3780 C   0  0  0  0  0  0  0  0  0  0  0  0
  1  2  1  0
  2  3  2  0
  2  4  1  0
  4  5  1  0
  5  6  1  0
  6  7  1  0
  7  8  1  0
  8  9  2  0
  8 10  1  0
 10 11  1  0
 11 12  2  0
 12 13  1  0
 13 14  2  0
 14 15  1  0
 14 16  1  0
 11 17  1  0
 16 17  2  0
 17 18  1  0
  7 19  1  0
  4 20  1  0
 19 20  1  0
M  END
