piperidine-amides-26163-covalent
     RDKit          3D

 25 26  0  0  0  0  0  0  0  0999 V2000
    7.0620   -3.3300   19.3570 C   0  0  0  0  0  0  0  0  0  0  0  0
    6.3840   -4.1660   20.3480 C   0  0  0  0  0  0  0  0  0  0  0  0
    5.3830   -4.8120   19.9820 O   0  0  0  0  0  0  0  0  0  0  0  0
    6.8520   -4.3060   21.6730 N   0  0  0  0  0  0  0  0  0  0  0  0
    6.6870   -5.5610   22.3830 C   0  0  0  0  0  0  0  0  0  0  0  0
    6.1380   -5.2530   23.7600 C   0  0  0  0  0  0  0  0  0  0  0  0
    6.0550   -3.7810   24.0300 C   0  0  0  0  0  0  0  0  0  0  0  0
    5.5730   -3.4330   25.4070 C   0  0  0  0  0  0  0  0  0  0  0  0
    4.3200   -3.3830   25.5950 O   0  0  0  0  0  0  0  0  0  0  0  0
    6.3520   -3.1170   26.5540 N   0  0  0  0  0  0  0  0  0  0  0  0
    6.2730   -3.9680   27.7920 C   0  0  0  0  0  0  0  0  0  0  0  0
    5.5880   -5.2730   27.6890 C   0  0  0  0  0  0  0  0  0  0  0  0
    6.2760   -6.3430   28.4380 C   0  0  0  0  0  0  0  0  0  0  0  0
    5.5010   -5.8280   26.3040 C   0  0  0  0  0  0  0  0  0  0  0  0
    6.3760   -1.7790   27.0960 C   0  0  0  0  0  0  0  0  0  0  0  0
    6.9230   -1.6490   28.4460 C   0  0  0  0  0  0  0  0  0  0  0  0
    6.9690   -0.4500   29.0590 C   0  0  0  0  0  0  0  0  0  0  0  0
    7.3880    0.0800   30.2900 C   0  0  0  0  0  0  0  0  0  0  0  0
    6.6100    1.0270   28.8250 C   0  0  0  0  0  0  0  0  0  0  0  0
    6.0530    0.8070   27.3900 C   0  0  0  0  0  0  0  0  0  0  0  0
    5.9190   -0.4520   26.5430 C   0  0  0  0  0  0  0  0  0  0  0  0
    5.3640   -0.2540   25.3030 O   0  0  0  0  0  0  0  0  0  0  0  0
    4.0880   -0.8390   25.3490 C   0  0  0  0  0  0  0  0  0  0  0  0
    7.2480   -3.0210   23.6310 C   0  0  0  0  0  0  0  0  0  0  0  0
    7.6240   -3.2800   22.3320 C   0  0  0  0  0  0  0  0  0  0  0  0
  1  2  1  0
  2  3  2  0
  2  4  1  0
  4  5  1  0
  5  6  1  0
  6  7  1  0
  7  8  1  0
  8  9  2  0
  8 10  1  0
 10 11  1  0
 11 12  1  0
 12 13  1  0
 12 14  1  0
 10 15  1  0
 15 16  2  0
 16 17  1  0
 17 18  1  0
 17 19  2  0
 19 20  1  0
 15 21  1  0
 20 21  2  0
 21 22  1  0
 22 23  1  0
  7 24  1  0
  4 25  1  0
 24 25  1  0
M  END
