piperidine-amides-29866-covalent
     RDKit          3D

 27 30  0  0  0  0  0  0  0  0999 V2000
    7.1320   -3.2520   19.2250 C   0  0  0  0  0  0  0  0  0  0  0  0
    6.3650   -4.0200   20.1950 C   0  0  0  0  0  0  0  0  0  0  0  0
    5.2940   -4.5320   19.8760 O   0  0  0  0  0  0  0  0  0  0  0  0
    6.8720   -4.2440   21.5090 N   0  0  0  0  0  0  0  0  0  0  0  0
    7.6300   -3.1950   22.1760 C   0  0  0  0  0  0  0  0  0  0  0  0
    6.9310   -2.6320   23.4020 C   0  0  0  0  0  0  0  0  0  0  0  0
    6.2220   -3.7550   24.1550 C   0  0  0  0  0  0  0  0  0  0  0  0
    5.3240   -3.2450   25.2470 C   0  0  0  0  0  0  0  0  0  0  0  0
    4.5060   -2.3340   25.0360 O   0  0  0  0  0  0  0  0  0  0  0  0
    5.3690   -3.7920   26.5710 N   0  0  0  0  0  0  0  0  0  0  0  0
    5.8260   -2.9710   27.6510 C   0  0  0  0  0  0  0  0  0  0  0  0
    6.0090   -3.9240   28.8120 C   0  0  0  0  0  0  0  0  0  0  0  0
    6.3140   -5.2590   28.5640 C   0  0  0  0  0  0  0  0  0  0  0  0
    6.1430   -5.7150   27.2510 C   0  0  2  0  0  0  0  0  0  0  0  0
    7.0900   -5.3680   26.3910 C   0  0  0  0  0  0  0  0  0  0  0  0
    8.2770   -5.0330   26.9450 C   0  0  0  0  0  0  0  0  0  0  0  0
    9.3250   -4.6140   26.2910 C   0  0  0  0  0  0  0  0  0  0  0  0
   10.2430   -4.3990   27.0200 O   0  0  0  0  0  0  0  0  0  0  0  0
   10.1420   -4.7190   28.3600 C   0  0  0  0  0  0  0  0  0  0  0  0
    9.1130   -4.5080   24.8290 C   0  0  0  0  0  0  0  0  0  0  0  0
    7.8200   -4.9110   24.2670 C   0  0  0  0  0  0  0  0  0  0  0  0
    6.7860   -5.3550   25.0800 C   0  0  0  0  0  0  0  0  0  0  0  0
    5.5680   -5.7270   24.6110 O   0  0  0  0  0  0  0  0  0  0  0  0
    4.4490   -5.6580   25.4840 C   0  0  0  0  0  0  0  0  0  0  0  0
    5.0120   -5.1670   26.7820 C   0  0  2  0  0  0  0  0  0  0  0  0
    5.3540   -4.5780   23.2420 C   0  0  0  0  0  0  0  0  0  0  0  0
    6.2570   -5.2780   22.2620 C   0  0  0  0  0  0  0  0  0  0  0  0
  1  2  1  0
  2  3  2  0
  2  4  1  0
  4  5  1  0
  5  6  1  0
  6  7  1  0
  7  8  1  0
  8  9  2  0
  8 10  1  0
 10 11  1  0
 11 12  1  0
 12 13  1  0
 14 13  1  1
 14 15  1  0
 15 16  2  0
 16 17  1  0
 17 18  1  0
 18 19  1  0
 17 20  2  0
 20 21  1  0
 15 22  1  0
 21 22  2  0
 22 23  1  0
 23 24  1  0
 10 25  1  0
 14 25  1  0
 25 24  1  6
  7 26  1  0
  4 27  1  0
 26 27  1  0
M  END
