piperidine-amides-4647-covalent
     RDKit          3D

 24 25  0  0  0  0  0  0  0  0999 V2000
    7.0820   -3.3070   19.2080 C   0  0  0  0  0  0  0  0  0  0  0  0
    6.3740   -4.0920   20.2450 C   0  0  0  0  0  0  0  0  0  0  0  0
    5.3000   -4.6260   19.9060 O   0  0  0  0  0  0  0  0  0  0  0  0
    6.9130   -4.2710   21.5170 N   0  0  0  0  0  0  0  0  0  0  0  0
    7.6390   -3.2020   22.1360 C   0  0  0  0  0  0  0  0  0  0  0  0
    7.1220   -2.7900   23.4330 C   0  0  0  0  0  0  0  0  0  0  0  0
    6.5460   -3.8850   24.2280 C   0  0  0  0  0  0  0  0  0  0  0  0
    5.7540   -3.3310   25.3520 C   0  0  0  0  0  0  0  0  0  0  0  0
    4.5470   -3.0900   25.1570 O   0  0  0  0  0  0  0  0  0  0  0  0
    6.3370   -3.0810   26.6000 N   0  0  0  0  0  0  0  0  0  0  0  0
    6.3760   -1.7370   27.2190 C   0  0  0  0  0  0  0  0  0  0  0  0
    5.8380   -0.4900   26.6110 C   0  0  0  0  0  0  0  0  0  0  0  0
    5.8950    0.8170   27.2630 C   0  0  0  0  0  0  0  0  0  0  0  0
    5.4490    2.0440   26.8320 C   0  0  0  0  0  0  0  0  0  0  0  0
    6.5630    0.8230   28.6620 C   0  0  0  0  0  0  0  0  0  0  0  0
    6.6660    2.0670   29.3850 N   0  0  0  0  0  0  0  0  0  0  0  0
    5.7130    3.0150   29.3700 C   0  0  0  0  0  0  0  0  0  0  0  0
    4.5490    2.5380   29.8940 C   0  0  0  0  0  0  0  0  0  0  0  0
    5.8350    4.3390   28.8990 O   0  0  0  0  0  0  0  0  0  0  0  0
    7.0620   -0.3270   29.2240 C   0  0  0  0  0  0  0  0  0  0  0  0
    7.6810   -0.4230   30.4680 C   0  0  0  0  0  0  0  0  0  0  0  0
    6.9940   -1.5320   28.5860 C   0  0  0  0  0  0  0  0  0  0  0  0
    5.7460   -4.8720   23.4580 C   0  0  0  0  0  0  0  0  0  0  0  0
    6.5460   -5.4180   22.3130 C   0  0  0  0  0  0  0  0  0  0  0  0
  1  2  1  0
  2  3  2  0
  2  4  1  0
  4  5  1  0
  5  6  1  0
  6  7  1  0
  7  8  1  0
  8  9  2  0
  8 10  1  0
 10 11  1  0
 11 12  2  0
 12 13  1  0
 13 14  1  0
 13 15  2  0
 15 16  1  0
 16 17  1  0
 17 18  1  0
 17 19  2  0
 15 20  1  0
 20 21  1  0
 11 22  1  0
 20 22  2  0
  7 23  1  0
  4 24  1  0
 23 24  1  0
M  END
