piperidine-amides-1719-covalent
     RDKit          3D

 20 21  0  0  0  0  0  0  0  0999 V2000
    7.1940   -3.9300   19.6200 C   0  0  0  0  0  0  0  0  0  0  0  0
    5.9220   -3.8530   20.2300 C   0  0  0  0  0  0  0  0  0  0  0  0
    4.9390   -3.8570   19.4890 O   0  0  0  0  0  0  0  0  0  0  0  0
    5.9410   -3.9150   21.6070 N   0  0  0  0  0  0  0  0  0  0  0  0
    5.7670   -5.2050   22.2090 C   0  0  0  0  0  0  0  0  0  0  0  0
    5.0720   -4.9210   23.5100 C   0  0  0  0  0  0  0  0  0  0  0  0
    5.8690   -3.8720   24.2020 C   0  0  0  0  0  0  0  0  0  0  0  0
    5.0710   -3.3560   25.3150 C   0  0  0  0  0  0  0  0  0  0  0  0
    4.6140   -2.2150   25.2250 O   0  0  0  0  0  0  0  0  0  0  0  0
    4.8790   -4.2020   26.3950 N   0  0  0  0  0  0  0  0  0  0  0  0
    5.9280   -4.9420   26.9470 C   0  0  0  0  0  0  0  0  0  0  0  0
    7.0800   -4.3100   27.1710 C   0  0  1  0  0  0  0  0  0  0  0  0
    8.1840   -5.0410   27.5300 C   0  0  0  0  0  0  0  0  0  0  0  0
    9.0630   -4.2330   28.1470 C   0  0  0  0  0  0  0  0  0  0  0  0
    8.8030   -2.7540   28.0760 C   0  0  0  0  0  0  0  0  0  0  0  0
    8.9310   -1.9940   29.1570 O   0  0  0  0  0  0  0  0  0  0  0  0
    8.4110   -2.4090   26.7900 N   0  0  0  0  0  0  0  0  0  0  0  0
    7.4730   -3.3290   26.2660 C   0  0  0  0  0  0  0  0  0  0  0  0
    6.3770   -2.6790   23.4180 C   0  0  0  0  0  0  0  0  0  0  0  0
    6.9370   -3.1110   22.2430 C   0  0  0  0  0  0  0  0  0  0  0  0
  1  2  1  0
  2  3  2  0
  2  4  1  0
  4  5  1  0
  5  6  1  0
  6  7  1  0
  7  8  1  0
  8  9  2  0
  8 10  1  0
 10 11  1  0
 12 11  1  6
 12 13  1  0
 13 14  1  0
 14 15  1  0
 15 16  2  0
 15 17  1  0
 12 18  1  0
 17 18  1  0
  7 19  1  0
  4 20  1  0
 19 20  1  0
M  END
