piperidine-amides-13428-covalent
     RDKit          3D

 24 26  0  0  0  0  0  0  0  0999 V2000
    7.0990   -3.2590   19.2300 C   0  0  0  0  0  0  0  0  0  0  0  0
    6.3320   -4.0470   20.2310 C   0  0  0  0  0  0  0  0  0  0  0  0
    5.2680   -4.5840   19.8910 O   0  0  0  0  0  0  0  0  0  0  0  0
    6.8560   -4.2190   21.5260 N   0  0  0  0  0  0  0  0  0  0  0  0
    6.5730   -5.4030   22.2880 C   0  0  0  0  0  0  0  0  0  0  0  0
    5.7750   -4.9420   23.5110 C   0  0  0  0  0  0  0  0  0  0  0  0
    6.5370   -3.8220   24.1460 C   0  0  0  0  0  0  0  0  0  0  0  0
    5.8180   -3.2570   25.3130 C   0  0  0  0  0  0  0  0  0  0  0  0
    4.6160   -3.0320   25.1420 O   0  0  0  0  0  0  0  0  0  0  0  0
    6.4850   -2.9970   26.5150 N   0  0  0  0  0  0  0  0  0  0  0  0
    6.1700   -3.4970   27.8150 C   0  0  0  0  0  0  0  0  0  0  0  0
    4.9410   -3.9980   28.1830 C   0  0  0  0  0  0  0  0  0  0  0  0
    4.6260   -5.3040   28.5870 C   0  0  0  0  0  0  0  0  0  0  0  0
    3.3390   -5.6680   28.9290 C   0  0  0  0  0  0  0  0  0  0  0  0
    2.2290   -4.9600   28.5750 N   0  0  0  0  0  0  0  0  0  0  0  0
    2.6040   -3.9000   27.8600 N   0  0  0  0  0  0  0  0  0  0  0  0
    3.7620   -3.1360   28.1810 C   0  0  0  0  0  0  0  0  0  0  0  0
    3.7270   -1.8250   28.4350 O   0  0  0  0  0  0  0  0  0  0  0  0
    3.1950   -6.8140   29.6820 C   0  0  0  0  0  0  0  0  0  0  0  0
    4.4330   -7.1340   30.4940 C   0  0  0  0  0  0  0  0  0  0  0  0
    5.6210   -7.0900   29.8010 C   0  0  0  0  0  0  0  0  0  0  0  0
    5.6980   -6.1820   28.6110 C   0  0  0  0  0  0  0  0  0  0  0  0
    6.9020   -2.7030   23.2260 C   0  0  0  0  0  0  0  0  0  0  0  0
    7.6240   -3.1940   22.1740 C   0  0  0  0  0  0  0  0  0  0  0  0
  1  2  1  0
  2  3  2  0
  2  4  1  0
  4  5  1  0
  5  6  1  0
  6  7  1  0
  7  8  1  0
  8  9  2  0
  8 10  1  0
 10 11  1  0
 11 12  1  0
 12 13  2  0
 13 14  1  0
 14 15  2  0
 15 16  1  0
 12 17  1  0
 16 17  1  0
 17 18  2  0
 14 19  1  0
 19 20  1  0
 20 21  1  0
 13 22  1  0
 21 22  1  0
  7 23  1  0
  4 24  1  0
 23 24  1  0
M  END
