piperidine-amides-18980-covalent
     RDKit          3D

 20 21  0  0  0  0  0  0  0  0999 V2000
    7.0360   -3.3630   19.2360 C   0  0  0  0  0  0  0  0  0  0  0  0
    6.3290   -4.0750   20.2850 C   0  0  0  0  0  0  0  0  0  0  0  0
    5.2950   -4.7210   19.9400 O   0  0  0  0  0  0  0  0  0  0  0  0
    6.7430   -4.1390   21.6310 N   0  0  0  0  0  0  0  0  0  0  0  0
    6.5940   -5.4810   22.2460 C   0  0  0  0  0  0  0  0  0  0  0  0
    6.5300   -5.1530   23.7900 C   0  0  0  0  0  0  0  0  0  0  0  0
    6.3250   -3.6610   23.9180 C   0  0  0  0  0  0  0  0  0  0  0  0
    5.8690   -3.2210   25.3730 C   0  0  0  0  0  0  0  0  0  0  0  0
    5.3540   -2.1150   25.3620 O   0  0  0  0  0  0  0  0  0  0  0  0
    6.1430   -4.1620   26.1680 N   0  0  0  0  0  0  0  0  0  0  0  0
    5.9330   -5.2830   26.8580 C   0  0  0  0  0  0  0  0  0  0  0  0
    5.1950   -5.2210   28.4200 S   0  0  0  0  0  0  0  0  0  0  0  0
    6.6940   -4.8380   29.0150 C   0  0  0  0  0  0  0  0  0  0  0  0
    7.6250   -4.9860   27.9610 C   0  0  0  0  0  0  0  0  0  0  0  0
    7.4930   -3.9930   26.8480 C   0  0  1  0  0  0  0  0  0  0  0  0
    8.6100   -4.7050   26.0400 C   0  0  0  0  0  0  0  0  0  0  0  0
    9.0790   -5.9230   26.6930 N   0  0  0  0  0  0  0  0  0  0  0  0
    9.1250   -4.2110   24.8250 O   0  0  0  0  0  0  0  0  0  0  0  0
    7.3480   -2.7240   23.3350 C   0  0  0  0  0  0  0  0  0  0  0  0
    7.7730   -3.2350   22.1170 C   0  0  0  0  0  0  0  0  0  0  0  0
  1  2  1  0
  2  3  2  0
  2  4  1  0
  4  5  1  0
  5  6  1  0
  6  7  1  0
  7  8  1  0
  8  9  2  0
  8 10  1  0
 10 11  1  0
 11 12  1  0
 12 13  1  0
 13 14  1  0
 10 15  1  0
 14 15  1  0
 15 16  1  6
 16 17  1  0
 16 18  2  0
  7 19  1  0
  4 20  1  0
 19 20  1  0
M  END
