piperidine-amides-8842-covalent
     RDKit          3D

 22 23  0  0  0  0  0  0  0  0999 V2000
    7.0850   -3.3420   19.3030 C   0  0  0  0  0  0  0  0  0  0  0  0
    6.4200   -4.1790   20.2980 C   0  0  0  0  0  0  0  0  0  0  0  0
    5.3730   -4.7630   19.9650 O   0  0  0  0  0  0  0  0  0  0  0  0
    6.9980   -4.3640   21.5800 N   0  0  0  0  0  0  0  0  0  0  0  0
    7.6420   -3.2450   22.2070 C   0  0  0  0  0  0  0  0  0  0  0  0
    6.7380   -2.7070   23.2760 C   0  0  0  0  0  0  0  0  0  0  0  0
    6.5950   -3.7920   24.3180 C   0  0  0  0  0  0  0  0  0  0  0  0
    5.7690   -3.2870   25.4630 C   0  0  0  0  0  0  0  0  0  0  0  0
    4.5610   -3.2280   25.2440 O   0  0  0  0  0  0  0  0  0  0  0  0
    6.3660   -2.9080   26.6700 N   0  0  0  0  0  0  0  0  0  0  0  0
    6.2630   -3.7850   27.8110 C   0  0  0  0  0  0  0  0  0  0  0  0
    5.9670   -5.1430   27.5520 C   0  0  0  0  0  0  0  0  0  0  0  0
    4.6230   -5.3490   28.1340 N   0  0  0  0  0  0  0  0  0  0  0  0
    6.2120   -1.4570   26.9210 C   0  0  0  0  0  0  0  0  0  0  0  0
    6.8390   -1.9110   28.2620 C   0  0  0  0  0  0  0  0  0  0  0  0
    7.1210   -0.8520   29.4400 C   0  0  0  0  0  0  0  0  0  0  0  0
    7.0020    0.6390   29.8260 C   0  0  0  0  0  0  0  0  0  0  0  0
    6.6750   -0.7960   28.3570 N   0  0  0  0  0  0  0  0  0  0  0  0
    6.2080   -0.2690   27.4320 N   0  0  0  0  0  0  0  0  0  0  0  0
    5.8310    1.0980   27.1000 C   0  0  0  0  0  0  0  0  0  0  0  0
    6.0270   -5.0400   23.7320 C   0  0  0  0  0  0  0  0  0  0  0  0
    6.5510   -5.4860   22.3500 C   0  0  0  0  0  0  0  0  0  0  0  0
  1  2  1  0
  2  3  2  0
  2  4  1  0
  4  5  1  0
  5  6  1  0
  6  7  1  0
  7  8  1  0
  8  9  2  0
  8 10  1  0
 10 11  1  0
 11 12  1  0
 12 13  1  0
 10 14  1  0
 14 15  2  0
 15 16  1  0
 16 17  1  0
 16 18  2  0
 14 19  1  0
 18 19  1  0
 19 20  1  0
  7 21  1  0
  4 22  1  0
 21 22  1  0
M  END
