piperidine-amides-27200-covalent
     RDKit          3D

 23 25  0  0  0  0  0  0  0  0999 V2000
    6.9950   -3.3780   19.4490 C   0  0  0  0  0  0  0  0  0  0  0  0
    6.3640   -4.2610   20.4400 C   0  0  0  0  0  0  0  0  0  0  0  0
    5.4050   -4.9560   20.0050 O   0  0  0  0  0  0  0  0  0  0  0  0
    6.8270   -4.3480   21.7700 N   0  0  0  0  0  0  0  0  0  0  0  0
    6.6500   -5.5460   22.5670 C   0  0  0  0  0  0  0  0  0  0  0  0
    5.9490   -5.1660   23.8530 C   0  0  0  0  0  0  0  0  0  0  0  0
    5.8420   -3.6680   23.9550 C   0  0  0  0  0  0  0  0  0  0  0  0
    5.0150   -3.1480   25.1150 C   0  0  0  0  0  0  0  0  0  0  0  0
    4.1860   -2.2760   24.8230 O   0  0  0  0  0  0  0  0  0  0  0  0
    5.0670   -3.5230   26.4840 N   0  0  0  0  0  0  0  0  0  0  0  0
    6.1970   -4.2460   26.8130 C   0  0  0  0  0  0  0  0  0  0  0  0
    6.0400   -5.6390   27.4840 C   0  0  0  0  0  0  0  0  0  0  0  0
    5.9450   -5.8140   28.8330 C   0  0  0  0  0  0  0  0  0  0  0  0
    4.4860   -4.9780   29.3290 S   0  0  0  0  0  0  0  0  0  0  0  0
    4.6650   -3.6600   28.1520 C   0  0  0  0  0  0  0  0  0  0  0  0
    4.3190   -2.7900   29.2480 C   0  0  0  0  0  0  0  0  0  0  0  0
    4.1160   -1.3640   29.5890 C   0  0  0  0  0  0  0  0  0  0  0  0
    4.4570   -0.6810   28.0100 Cl  0  0  0  0  0  0  0  0  0  0  0  0
    4.0010   -2.3890   30.3800 C   0  0  0  0  0  0  0  0  0  0  0  0
    4.3540   -2.1690   28.8990 C   0  0  0  0  0  0  0  0  0  0  0  0
    4.7360   -2.5740   27.5000 C   0  0  0  0  0  0  0  0  0  0  0  0
    7.2320   -3.0360   23.7960 C   0  0  0  0  0  0  0  0  0  0  0  0
    7.6420   -3.2590   22.3390 C   0  0  0  0  0  0  0  0  0  0  0  0
  1  2  1  0
  2  3  2  0
  2  4  1  0
  4  5  1  0
  5  6  1  0
  6  7  1  0
  7  8  1  0
  8  9  2  0
  8 10  1  0
 10 11  1  0
 11 12  1  0
 12 13  1  0
 13 14  1  0
 14 15  1  0
 15 16  1  0
 16 17  2  0
 17 18  1  0
 17 19  1  0
 19 20  2  0
 10 21  1  0
 15 21  2  0
 20 21  1  0
  7 22  1  0
  4 23  1  0
 22 23  1  0
M  END
