piperidine-amides-23373-covalent
     RDKit          3D

 24 26  0  0  0  0  0  0  0  0999 V2000
    7.0480   -3.3480   19.3750 C   0  0  0  0  0  0  0  0  0  0  0  0
    6.3960   -4.1820   20.3980 C   0  0  0  0  0  0  0  0  0  0  0  0
    5.4130   -4.8560   19.9960 O   0  0  0  0  0  0  0  0  0  0  0  0
    6.8670   -4.2740   21.7470 N   0  0  0  0  0  0  0  0  0  0  0  0
    6.6410   -5.4900   22.4460 C   0  0  0  0  0  0  0  0  0  0  0  0
    6.1430   -5.2510   23.7850 C   0  0  0  0  0  0  0  0  0  0  0  0
    6.0830   -3.8170   24.0830 C   0  0  0  0  0  0  0  0  0  0  0  0
    5.5150   -3.5710   25.4680 C   0  0  0  0  0  0  0  0  0  0  0  0
    4.3730   -4.0120   25.6760 O   0  0  0  0  0  0  0  0  0  0  0  0
    6.1120   -2.8580   26.5430 N   0  0  0  0  0  0  0  0  0  0  0  0
    6.1710   -3.3290   27.8810 C   0  0  0  0  0  0  0  0  0  0  0  0
    6.1390   -2.3140   28.9430 C   0  0  0  0  0  0  0  0  0  0  0  0
    4.7560   -1.9790   29.5640 C   0  0  0  0  0  0  0  0  0  0  0  0
    4.5210   -1.0350   30.5860 C   0  0  0  0  0  0  0  0  0  0  0  0
    5.7680   -0.2850   31.1120 C   0  0  0  0  0  0  0  0  0  0  0  0
    5.6490    0.6640   32.1210 O   0  0  0  0  0  0  0  0  0  0  0  0
    6.6080    0.4020   33.1050 C   0  0  0  0  0  0  0  0  0  0  0  0
    7.1310   -0.6120   30.4990 C   0  0  0  0  0  0  0  0  0  0  0  0
    7.3620   -1.6030   29.4280 C   0  0  0  0  0  0  0  0  0  0  0  0
    5.7620   -1.4910   26.6360 C   0  0  0  0  0  0  0  0  0  0  0  0
    6.4280   -0.4460   26.0350 C   0  0  0  0  0  0  0  0  0  0  0  0
    6.7470   -0.6980   27.5410 C   0  0  0  0  0  0  0  0  0  0  0  0
    7.3560   -3.1190   23.7240 C   0  0  0  0  0  0  0  0  0  0  0  0
    7.6660   -3.2140   22.3530 C   0  0  0  0  0  0  0  0  0  0  0  0
  1  2  1  0
  2  3  2  0
  2  4  1  0
  4  5  1  0
  5  6  1  0
  6  7  1  0
  7  8  1  0
  8  9  2  0
  8 10  1  0
 10 11  1  0
 11 12  1  0
 12 13  2  0
 13 14  1  0
 14 15  2  0
 15 16  1  0
 16 17  1  0
 15 18  1  0
 12 19  1  0
 18 19  2  0
 10 20  1  0
 20 21  1  0
 20 22  1  0
 21 22  1  0
  7 23  1  0
  4 24  1  0
 23 24  1  0
M  END
