piperidine-amides-27030-covalent
     RDKit          3D

 23 25  0  0  0  0  0  0  0  0999 V2000
    7.0280   -3.3580   19.3450 C   0  0  0  0  0  0  0  0  0  0  0  0
    6.3710   -4.2090   20.3410 C   0  0  0  0  0  0  0  0  0  0  0  0
    5.3430   -4.8310   19.9690 O   0  0  0  0  0  0  0  0  0  0  0  0
    6.9150   -4.3360   21.6170 N   0  0  0  0  0  0  0  0  0  0  0  0
    7.6520   -3.2570   22.2280 C   0  0  0  0  0  0  0  0  0  0  0  0
    7.2620   -3.1880   23.6690 C   0  0  0  0  0  0  0  0  0  0  0  0
    5.8980   -3.7200   23.9240 C   0  0  0  0  0  0  0  0  0  0  0  0
    5.4920   -3.4220   25.3220 C   0  0  0  0  0  0  0  0  0  0  0  0
    4.2730   -3.2470   25.5280 O   0  0  0  0  0  0  0  0  0  0  0  0
    6.3630   -3.3140   26.4280 N   0  0  0  0  0  0  0  0  0  0  0  0
    6.6870   -4.5290   27.1480 C   0  0  0  0  0  0  0  0  0  0  0  0
    6.3480   -2.0280   27.1210 C   0  0  0  0  0  0  0  0  0  0  0  0
    5.8990   -0.7200   26.5800 N   0  0  0  0  0  0  0  0  0  0  0  0
    5.9650    0.3160   27.3920 C   0  0  0  0  0  0  0  0  0  0  0  0
    5.5980    1.6200   27.0860 C   0  0  0  0  0  0  0  0  0  0  0  0
    4.9730    2.1160   25.5320 Cl  0  0  0  0  0  0  0  0  0  0  0  0
    5.7400    2.5880   28.0910 C   0  0  0  0  0  0  0  0  0  0  0  0
    6.2170    2.4030   29.3900 C   0  0  0  0  0  0  0  0  0  0  0  0
    6.5870    1.1240   29.7190 C   0  0  0  0  0  0  0  0  0  0  0  0
    6.4350    0.0920   28.6480 C   0  0  0  0  0  0  0  0  0  0  0  0
    6.8290   -1.6010   28.7950 S   0  0  0  0  0  0  0  0  0  0  0  0
    5.8690   -5.1890   23.6740 C   0  0  0  0  0  0  0  0  0  0  0  0
    6.5460   -5.5390   22.3630 C   0  0  0  0  0  0  0  0  0  0  0  0
  1  2  1  0
  2  3  2  0
  2  4  1  0
  4  5  1  0
  5  6  1  0
  6  7  1  0
  7  8  1  0
  8  9  2  0
  8 10  1  0
 10 11  1  0
 10 12  1  0
 12 13  2  0
 13 14  1  0
 14 15  2  0
 15 16  1  0
 15 17  1  0
 17 18  2  0
 18 19  1  0
 14 20  1  0
 19 20  2  0
 12 21  1  0
 20 21  1  0
  7 22  1  0
  4 23  1  0
 22 23  1  0
M  END
