piperidine-amides-3331-covalent
     RDKit          3D

 21 22  0  0  0  0  0  0  0  0999 V2000
    7.1010   -3.2780   19.2640 C   0  0  0  0  0  0  0  0  0  0  0  0
    6.3540   -4.0630   20.2470 C   0  0  0  0  0  0  0  0  0  0  0  0
    5.3220   -4.6440   19.9170 O   0  0  0  0  0  0  0  0  0  0  0  0
    6.8430   -4.1960   21.5900 N   0  0  0  0  0  0  0  0  0  0  0  0
    7.7300   -3.2000   22.1350 C   0  0  0  0  0  0  0  0  0  0  0  0
    7.5630   -3.1840   23.6200 C   0  0  0  0  0  0  0  0  0  0  0  0
    6.1640   -3.7030   23.8750 C   0  0  0  0  0  0  0  0  0  0  0  0
    5.6890   -3.3910   25.2490 C   0  0  0  0  0  0  0  0  0  0  0  0
    4.5240   -3.6370   25.6190 O   0  0  0  0  0  0  0  0  0  0  0  0
    6.5800   -2.7930   26.1640 N   0  0  0  0  0  0  0  0  0  0  0  0
    6.3630   -1.4180   26.5380 C   0  0  0  0  0  0  0  0  0  0  0  0
    6.1060   -0.6330   25.2650 C   0  0  0  0  0  0  0  0  0  0  0  0
    7.0770   -0.5480   24.2710 C   0  0  0  0  0  0  0  0  0  0  0  0
    6.8700    0.1730   23.0790 C   0  0  0  0  0  0  0  0  0  0  0  0
    5.6850    0.8260   22.8600 C   0  0  0  0  0  0  0  0  0  0  0  0
    5.3390    1.7520   21.4110 Cl  0  0  0  0  0  0  0  0  0  0  0  0
    4.6970    0.7240   23.9040 C   0  0  0  0  0  0  0  0  0  0  0  0
    4.9030    0.0210   25.0600 C   0  0  0  0  0  0  0  0  0  0  0  0
    3.3900   -0.0600   26.5130 I   0  0  0  0  0  0  0  0  0  0  0  0
    6.1990   -5.2080   23.6560 C   0  0  0  0  0  0  0  0  0  0  0  0
    6.4700   -5.4140   22.2950 C   0  0  0  0  0  0  0  0  0  0  0  0
  1  2  1  0
  2  3  2  0
  2  4  1  0
  4  5  1  0
  5  6  1  0
  6  7  1  0
  7  8  1  0
  8  9  2  0
  8 10  1  0
 10 11  1  0
 11 12  1  0
 12 13  2  0
 13 14  1  0
 14 15  2  0
 15 16  1  0
 15 17  1  0
 12 18  1  0
 17 18  2  0
 18 19  1  0
  7 20  1  0
  4 21  1  0
 20 21  1  0
M  END
