piperidine-amides-10389-covalent
     RDKit          3D

 24 26  0  0  0  0  0  0  0  0999 V2000
    7.0250   -3.2920   19.3700 C   0  0  0  0  0  0  0  0  0  0  0  0
    6.3140   -4.1260   20.3520 C   0  0  0  0  0  0  0  0  0  0  0  0
    5.2650   -4.6650   19.9220 O   0  0  0  0  0  0  0  0  0  0  0  0
    6.7780   -4.3600   21.6640 N   0  0  0  0  0  0  0  0  0  0  0  0
    6.4730   -5.5930   22.3480 C   0  0  0  0  0  0  0  0  0  0  0  0
    5.8500   -5.2570   23.6760 C   0  0  0  0  0  0  0  0  0  0  0  0
    6.7870   -4.4380   24.5210 C   0  0  0  0  0  0  0  0  0  0  0  0
    6.2200   -4.2790   25.9130 C   0  0  0  0  0  0  0  0  0  0  0  0
    5.2870   -3.4420   26.0690 O   0  0  0  0  0  0  0  0  0  0  0  0
    6.7030   -5.0510   27.0540 N   0  0  0  0  0  0  0  0  0  0  0  0
    5.9390   -5.3350   28.3090 C   0  0  0  0  0  0  0  0  0  0  0  0
    6.1850   -6.7300   29.0440 C   0  0  0  0  0  0  0  0  0  0  0  0
    5.2720   -7.2880   30.0840 N   0  0  0  0  0  0  0  0  0  0  0  0
    5.7920   -8.5110   30.4890 N   0  0  0  0  0  0  0  0  0  0  0  0
    6.9280   -8.7330   29.7800 C   0  0  0  0  0  0  0  0  0  0  0  0
    7.9500   -9.9110   29.7810 N   0  0  0  0  0  0  0  0  0  0  0  0
    8.9450  -10.7620   28.9170 C   0  0  0  0  0  0  0  0  0  0  0  0
   10.1470  -11.2740   29.4720 C   0  0  0  0  0  0  0  0  0  0  0  0
    9.8900  -12.0380   30.4490 C   0  0  0  0  0  0  0  0  0  0  0  0
    8.5860  -11.9750   30.4220 C   0  0  0  0  0  0  0  0  0  0  0  0
    7.5990  -10.8740   30.2640 C   0  0  0  0  0  0  0  0  0  0  0  0
    7.0860   -7.5500   28.9200 O   0  0  0  0  0  0  0  0  0  0  0  0
    7.0220   -3.1130   23.8350 C   0  0  0  0  0  0  0  0  0  0  0  0
    7.4490   -3.2480   22.3660 C   0  0  0  0  0  0  0  0  0  0  0  0
  1  2  1  0
  2  3  2  0
  2  4  1  0
  4  5  1  0
  5  6  1  0
  6  7  1  0
  7  8  1  0
  8  9  2  0
  8 10  1  0
 10 11  1  0
 11 12  1  0
 12 13  2  0
 13 14  1  0
 14 15  2  0
 15 16  1  0
 16 17  1  0
 17 18  1  0
 18 19  1  0
 19 20  1  0
 16 21  1  0
 20 21  1  0
 12 22  1  0
 15 22  1  0
  7 23  1  0
  4 24  1  0
 23 24  1  0
M  END
