piperidine-amides-23308-covalent
     RDKit          3D

 23 24  0  0  0  0  0  0  0  0999 V2000
    7.0300   -3.3350   19.3180 C   0  0  0  0  0  0  0  0  0  0  0  0
    6.3660   -4.1590   20.3450 C   0  0  0  0  0  0  0  0  0  0  0  0
    5.3530   -4.7960   19.9690 O   0  0  0  0  0  0  0  0  0  0  0  0
    6.8560   -4.2890   21.6810 N   0  0  0  0  0  0  0  0  0  0  0  0
    7.6350   -3.2360   22.2510 C   0  0  0  0  0  0  0  0  0  0  0  0
    7.3500   -3.0240   23.6580 C   0  0  0  0  0  0  0  0  0  0  0  0
    6.0760   -3.6440   24.0520 C   0  0  0  0  0  0  0  0  0  0  0  0
    5.5440   -3.2250   25.3980 C   0  0  0  0  0  0  0  0  0  0  0  0
    4.3450   -2.9000   25.4590 O   0  0  0  0  0  0  0  0  0  0  0  0
    6.2900   -3.1800   26.6010 N   0  0  0  0  0  0  0  0  0  0  0  0
    6.2880   -4.2110   27.5780 C   0  0  0  0  0  0  0  0  0  0  0  0
    6.2600   -1.8840   27.2670 C   0  0  0  0  0  0  0  0  0  0  0  0
    6.0950   -0.5610   26.6120 C   0  0  0  0  0  0  0  0  0  0  0  0
    6.0510    0.6820   27.1870 C   0  0  0  0  0  0  0  0  0  0  0  0
    6.1740    0.9230   28.7470 C   0  0  0  0  0  0  0  0  0  0  0  0
    6.3370    0.4420   30.1580 C   0  0  0  0  0  0  0  0  0  0  0  0
    6.3770    1.5870   30.9660 F   0  0  0  0  0  0  0  0  0  0  0  0
    5.3250   -0.3820   30.5120 F   0  0  0  0  0  0  0  0  0  0  0  0
    7.4950   -0.2460   30.3560 F   0  0  0  0  0  0  0  0  0  0  0  0
    6.3230   -0.5010   29.1120 N   0  0  0  0  0  0  0  0  0  0  0  0
    6.3670   -1.7030   28.5460 N   0  0  0  0  0  0  0  0  0  0  0  0
    6.1350   -5.1670   23.8850 C   0  0  0  0  0  0  0  0  0  0  0  0
    6.6430   -5.4800   22.4810 C   0  0  0  0  0  0  0  0  0  0  0  0
  1  2  1  0
  2  3  2  0
  2  4  1  0
  4  5  1  0
  5  6  1  0
  6  7  1  0
  7  8  1  0
  8  9  2  0
  8 10  1  0
 10 11  1  0
 10 12  1  0
 12 13  2  0
 13 14  1  0
 14 15  2  0
 15 16  1  0
 16 17  1  0
 16 18  1  0
 16 19  1  0
 15 20  1  0
 12 21  1  0
 20 21  2  0
  7 22  1  0
  4 23  1  0
 22 23  1  0
M  END
