piperidine-amides-33326-covalent
     RDKit          3D

 30 34  0  0  0  0  0  0  0  0999 V2000
    7.1570   -3.3320   19.2460 C   0  0  0  0  0  0  0  0  0  0  0  0
    6.4510   -4.1470   20.2410 C   0  0  0  0  0  0  0  0  0  0  0  0
    5.3470   -4.6520   19.9240 O   0  0  0  0  0  0  0  0  0  0  0  0
    7.0630   -4.3930   21.4830 N   0  0  0  0  0  0  0  0  0  0  0  0
    6.5430   -5.4400   22.2880 C   0  0  0  0  0  0  0  0  0  0  0  0
    5.7700   -4.9430   23.4130 C   0  0  0  0  0  0  0  0  0  0  0  0
    5.9440   -3.4890   23.6250 C   0  0  0  0  0  0  0  0  0  0  0  0
    5.4810   -2.9960   24.9410 C   0  0  0  0  0  0  0  0  0  0  0  0
    4.5240   -2.2110   25.0060 O   0  0  0  0  0  0  0  0  0  0  0  0
    6.0780   -3.4080   26.1120 N   0  0  0  0  0  0  0  0  0  0  0  0
    6.5680   -4.6920   26.2230 C   0  0  0  0  0  0  0  0  0  0  0  0
    5.8240   -5.3040   27.2200 C   0  0  1  0  0  0  0  0  0  0  0  0
    6.7170   -6.0960   28.0650 C   0  0  0  0  0  0  0  0  0  0  0  0
    7.2290   -5.4400   29.0990 C   0  0  0  0  0  0  0  0  0  0  0  0
    6.5360   -4.0460   29.0240 C   0  0  0  0  0  0  0  0  0  0  0  0
    5.4280   -4.2220   28.0980 C   0  0  2  0  0  0  0  0  0  0  0  0
    4.5420   -4.5300   29.3160 C   0  0  0  0  0  0  0  0  0  0  0  0
    4.6610   -5.7210   30.0440 N   0  0  0  0  0  0  0  0  0  0  0  0
    3.6680   -5.5490   31.0400 C   0  0  0  0  0  0  0  0  0  0  0  0
    3.4800   -6.6590   32.0620 C   0  0  0  0  0  0  0  0  0  0  0  0
    2.7250   -7.9590   31.6940 C   0  0  0  0  0  0  0  0  0  0  0  0
    2.6080   -8.9580   32.7940 C   0  0  0  0  0  0  0  0  0  0  0  0
    3.1350   -8.7570   34.0590 C   0  0  0  0  0  0  0  0  0  0  0  0
    3.8090   -7.6060   34.3910 C   0  0  0  0  0  0  0  0  0  0  0  0
    3.9710   -6.5390   33.3380 C   0  0  0  0  0  0  0  0  0  0  0  0
    3.0450   -4.3250   30.8530 N   0  0  0  0  0  0  0  0  0  0  0  0
    3.5670   -3.6960   29.8090 O   0  0  0  0  0  0  0  0  0  0  0  0
    5.2470   -3.1150   27.2910 C   0  0  0  0  0  0  0  0  0  0  0  0
    7.3940   -3.1710   23.4930 C   0  0  0  0  0  0  0  0  0  0  0  0
    7.8000   -3.2960   22.0620 C   0  0  0  0  0  0  0  0  0  0  0  0
  1  2  1  0
  2  3  2  0
  2  4  1  0
  4  5  1  0
  5  6  1  0
  6  7  1  0
  7  8  1  0
  8  9  2  0
  8 10  1  0
 10 11  1  0
 12 11  1  6
 12 13  1  0
 13 14  1  0
 14 15  1  0
 12 16  1  0
 15 16  1  0
 16 17  1  1
 17 18  2  0
 18 19  1  0
 19 20  1  0
 20 21  2  0
 21 22  1  0
 22 23  2  0
 23 24  1  0
 20 25  1  0
 24 25  2  0
 19 26  2  0
 17 27  1  0
 26 27  1  0
 10 28  1  0
 16 28  1  0
  7 29  1  0
  4 30  1  0
 29 30  1  0
M  END
