piperidine-amides-27314-covalent
     RDKit          3D

 24 25  0  0  0  0  0  0  0  0999 V2000
    7.0680   -3.3440   19.3360 C   0  0  0  0  0  0  0  0  0  0  0  0
    6.3870   -4.1550   20.3470 C   0  0  0  0  0  0  0  0  0  0  0  0
    5.3680   -4.7910   19.9710 O   0  0  0  0  0  0  0  0  0  0  0  0
    6.8960   -4.2290   21.6490 N   0  0  0  0  0  0  0  0  0  0  0  0
    7.7780   -3.2180   22.1980 C   0  0  0  0  0  0  0  0  0  0  0  0
    7.6040   -3.2060   23.6880 C   0  0  0  0  0  0  0  0  0  0  0  0
    6.2280   -3.6820   24.0480 C   0  0  0  0  0  0  0  0  0  0  0  0
    5.9220   -3.4350   25.4800 C   0  0  0  0  0  0  0  0  0  0  0  0
    4.7610   -3.7020   25.8580 O   0  0  0  0  0  0  0  0  0  0  0  0
    6.8320   -2.9130   26.4330 N   0  0  0  0  0  0  0  0  0  0  0  0
    7.5350   -3.8640   27.2910 C   0  0  0  0  0  0  0  0  0  0  0  0
    8.3390   -4.9180   26.5220 C   0  0  0  0  0  0  0  0  0  0  0  0
    6.6460   -1.6420   27.0800 C   0  0  0  0  0  0  0  0  0  0  0  0
    7.1000   -1.5230   28.4030 C   0  0  0  0  0  0  0  0  0  0  0  0
    6.9710   -0.3450   29.1470 C   0  0  0  0  0  0  0  0  0  0  0  0
    7.5500   -0.2580   30.7990 Cl  0  0  0  0  0  0  0  0  0  0  0  0
    6.3820    0.7660   28.5930 C   0  0  0  0  0  0  0  0  0  0  0  0
    5.9200    0.7370   27.3200 C   0  0  0  0  0  0  0  0  0  0  0  0
    6.0430   -0.5090   26.5030 C   0  0  0  0  0  0  0  0  0  0  0  0
    5.5220   -0.4460   25.1700 N   0  0  0  0  0  0  0  0  0  0  0  0
    4.3380   -0.9260   24.9590 O   0  0  0  0  0  0  0  0  0  0  0  0
    5.8710    0.6310   24.4330 O   0  0  0  0  0  0  0  0  0  0  0  0
    6.0640   -5.1360   23.7440 C   0  0  0  0  0  0  0  0  0  0  0  0
    6.6050   -5.4740   22.3690 C   0  0  0  0  0  0  0  0  0  0  0  0
  1  2  1  0
  2  3  2  0
  2  4  1  0
  4  5  1  0
  5  6  1  0
  6  7  1  0
  7  8  1  0
  8  9  2  0
  8 10  1  0
 10 11  1  0
 11 12  1  0
 10 13  1  0
 13 14  2  0
 14 15  1  0
 15 16  1  0
 15 17  2  0
 17 18  1  0
 13 19  1  0
 18 19  2  0
 19 20  1  0
 20 21  2  0
 20 22  1  0
  7 23  1  0
  4 24  1  0
 23 24  1  0
M  CHG  2  20   1  22  -1
M  END
