piperidine-amides-4032-covalent
     RDKit          3D

 28 30  0  0  0  0  0  0  0  0999 V2000
    7.0840   -3.3190   19.2440 C   0  0  0  0  0  0  0  0  0  0  0  0
    6.3830   -4.1140   20.2640 C   0  0  0  0  0  0  0  0  0  0  0  0
    5.3050   -4.6490   19.9210 O   0  0  0  0  0  0  0  0  0  0  0  0
    6.9380   -4.3270   21.5490 N   0  0  0  0  0  0  0  0  0  0  0  0
    7.5640   -3.2190   22.1880 C   0  0  0  0  0  0  0  0  0  0  0  0
    6.9710   -2.8350   23.4640 C   0  0  0  0  0  0  0  0  0  0  0  0
    6.4480   -3.9440   24.2760 C   0  0  0  0  0  0  0  0  0  0  0  0
    5.6920   -3.4420   25.4760 C   0  0  0  0  0  0  0  0  0  0  0  0
    4.4430   -3.3560   25.4640 O   0  0  0  0  0  0  0  0  0  0  0  0
    6.3750   -3.0670   26.6430 N   0  0  0  0  0  0  0  0  0  0  0  0
    6.4120   -1.8180   27.3110 C   0  0  0  0  0  0  0  0  0  0  0  0
    7.0420   -1.5990   28.5990 C   0  0  0  0  0  0  0  0  0  0  0  0
    7.0270   -0.1980   29.2450 C   0  0  0  0  0  0  0  0  0  0  0  0
    6.4270    0.9150   28.6590 C   0  0  0  0  0  0  0  0  0  0  0  0
    5.7840    0.5990   27.3010 C   0  0  0  0  0  0  0  0  0  0  0  0
    5.2670    1.9740   27.0030 C   0  0  0  0  0  0  0  0  0  0  0  0
    6.3070    2.8850   27.1990 O   0  0  0  0  0  0  0  0  0  0  0  0
    6.1950    3.8920   28.1160 C   0  0  0  0  0  0  0  0  0  0  0  0
    5.2930    3.8520   29.3330 C   0  0  0  0  0  0  0  0  0  0  0  0
    4.0780    4.6730   28.9340 C   0  0  0  0  0  0  0  0  0  0  0  0
    2.6990    4.0120   28.8050 C   0  0  0  0  0  0  0  0  0  0  0  0
    1.5640    4.8800   28.4130 C   0  0  0  0  0  0  0  0  0  0  0  0
    1.6980    6.2390   28.1640 C   0  0  0  0  0  0  0  0  0  0  0  0
    2.9470    6.8200   28.2840 C   0  0  0  0  0  0  0  0  0  0  0  0
    4.1740    6.0180   28.6800 C   0  0  0  0  0  0  0  0  0  0  0  0
    5.7630   -0.5970   26.6810 C   0  0  0  0  0  0  0  0  0  0  0  0
    5.5990   -4.8490   23.4150 C   0  0  0  0  0  0  0  0  0  0  0  0
    6.4740   -5.4370   22.3300 C   0  0  0  0  0  0  0  0  0  0  0  0
  1  2  1  0
  2  3  2  0
  2  4  1  0
  4  5  1  0
  5  6  1  0
  6  7  1  0
  7  8  1  0
  8  9  2  0
  8 10  1  0
 10 11  1  0
 11 12  2  0
 12 13  1  0
 13 14  2  0
 14 15  1  0
 15 16  1  0
 16 17  1  0
 17 18  1  0
 18 19  1  0
 19 20  1  0
 20 21  2  0
 21 22  1  0
 22 23  2  0
 23 24  1  0
 20 25  1  0
 24 25  2  0
 11 26  1  0
 15 26  2  0
  7 27  1  0
  4 28  1  0
 27 28  1  0
M  END
