piperidine-amides-34880-covalent
     RDKit          3D

 26 28  0  0  0  0  0  0  0  0999 V2000
    7.0150   -3.3470   19.3660 C   0  0  0  0  0  0  0  0  0  0  0  0
    6.3810   -4.2190   20.3940 C   0  0  0  0  0  0  0  0  0  0  0  0
    5.4280   -4.8970   20.0030 O   0  0  0  0  0  0  0  0  0  0  0  0
    6.8770   -4.2840   21.7170 N   0  0  0  0  0  0  0  0  0  0  0  0
    6.6740   -5.4560   22.5480 C   0  0  0  0  0  0  0  0  0  0  0  0
    6.0050   -5.0610   23.8460 C   0  0  0  0  0  0  0  0  0  0  0  0
    5.9720   -3.5390   23.9160 C   0  0  0  0  0  0  0  0  0  0  0  0
    5.2250   -3.0860   25.1210 C   0  0  0  0  0  0  0  0  0  0  0  0
    4.0280   -2.8290   24.9720 O   0  0  0  0  0  0  0  0  0  0  0  0
    5.7440   -2.9410   26.4260 N   0  0  0  0  0  0  0  0  0  0  0  0
    5.9440   -4.2460   27.0510 C   0  0  0  0  0  0  0  0  0  0  0  0
    5.1470   -1.8360   27.2030 C   0  0  2  0  0  0  0  0  0  0  0  0
    4.9990   -0.6960   26.5840 C   0  0  0  0  0  0  0  0  0  0  0  0
    5.9710   -0.2490   25.8370 C   0  0  0  0  0  0  0  0  0  0  0  0
    5.7520    1.0460   26.7790 S   0  0  0  0  0  0  0  0  0  0  0  0
    6.8040    2.0770   26.5490 O   0  0  0  0  0  0  0  0  0  0  0  0
    4.3570    1.5990   26.6410 O   0  0  0  0  0  0  0  0  0  0  0  0
    6.0350    0.1440   28.2240 C   0  0  0  0  0  0  0  0  0  0  0  0
    6.5560    1.4930   28.7030 C   0  0  0  0  0  0  0  0  0  0  0  0
    7.0360    1.5300   30.0230 C   0  0  0  0  0  0  0  0  0  0  0  0
    6.9600    0.2940   30.6980 C   0  0  0  0  0  0  0  0  0  0  0  0
    7.5870    0.2460   32.5160 Br  0  0  0  0  0  0  0  0  0  0  0  0
    6.3880   -0.8860   29.9430 C   0  0  0  0  0  0  0  0  0  0  0  0
    5.7650   -1.4430   28.6230 C   0  0  0  0  0  0  0  0  0  0  0  0
    7.2600   -2.8880   23.6240 C   0  0  0  0  0  0  0  0  0  0  0  0
    7.7390   -3.2310   22.2550 C   0  0  0  0  0  0  0  0  0  0  0  0
  1  2  1  0
  2  3  2  0
  2  4  1  0
  4  5  1  0
  5  6  1  0
  6  7  1  0
  7  8  1  0
  8  9  2  0
  8 10  1  0
 10 11  1  0
 12 10  1  6
 12 13  1  0
 13 14  1  0
 15 14  1  0
 15 16  2  0
 15 17  2  0
 15 18  1  0
 18 19  2  0
 19 20  1  0
 20 21  2  0
 21 22  1  0
 21 23  1  0
 12 24  1  0
 18 24  1  0
 23 24  2  0
  7 25  1  0
  4 26  1  0
 25 26  1  0
M  END
