piperidine-amides-307-covalent
     RDKit          3D

 32 34  0  0  0  0  0  0  0  0999 V2000
    7.0990   -3.3870   19.2760 C   0  0  0  0  0  0  0  0  0  0  0  0
    6.3530   -4.0950   20.2890 C   0  0  0  0  0  0  0  0  0  0  0  0
    5.2780   -4.6560   19.9260 O   0  0  0  0  0  0  0  0  0  0  0  0
    6.7940   -4.2470   21.6210 N   0  0  0  0  0  0  0  0  0  0  0  0
    7.7400   -3.2460   22.1630 C   0  0  0  0  0  0  0  0  0  0  0  0
    6.8100   -2.6090   23.2480 C   0  0  0  0  0  0  0  0  0  0  0  0
    6.7420   -3.6830   24.2900 C   0  0  0  0  0  0  0  0  0  0  0  0
    5.6170   -3.3930   25.3680 C   0  0  0  0  0  0  0  0  0  0  0  0
    4.5910   -4.0000   25.1040 O   0  0  0  0  0  0  0  0  0  0  0  0
    6.0580   -2.5830   26.2440 N   0  0  0  0  0  0  0  0  0  0  0  0
    6.3710   -1.6780   27.2040 C   0  0  0  0  0  0  0  0  0  0  0  0
    7.0230   -1.6360   28.4190 C   0  0  0  0  0  0  0  0  0  0  0  0
    7.1520   -0.4560   29.1820 C   0  0  0  0  0  0  0  0  0  0  0  0
    6.6010    0.8390   28.7560 C   0  0  0  0  0  0  0  0  0  0  0  0
    6.7220    2.0250   29.5030 N   0  0  0  0  0  0  0  0  0  0  0  0
    7.5050    3.0320   29.0380 N   0  0  0  0  0  0  0  0  0  0  0  0
    7.4990    4.0450   29.8560 C   0  0  0  0  0  0  0  0  0  0  0  0
    6.7260    3.8840   30.9800 C   0  0  0  0  0  0  0  0  0  0  0  0
    6.5400    4.8120   32.0210 C   0  0  0  0  0  0  0  0  0  0  0  0
    7.3520    5.8960   31.8770 O   0  0  0  0  0  0  0  0  0  0  0  0
    5.6630    4.7050   33.0860 O   0  0  0  0  0  0  0  0  0  0  0  0
    4.5640    5.5820   33.2730 C   0  0  0  0  0  0  0  0  0  0  0  0
    3.4730    4.8520   34.1240 C   0  0  0  0  0  0  0  0  0  0  0  0
    6.1870    2.5070   30.7540 C   0  0  0  0  0  0  0  0  0  0  0  0
    5.3520    1.6240   31.4030 C   0  0  0  0  0  0  0  0  0  0  0  0
    5.3860    0.3140   31.0640 F   0  0  0  0  0  0  0  0  0  0  0  0
    5.5150    1.6440   32.7760 F   0  0  0  0  0  0  0  0  0  0  0  0
    4.0610    2.1140   31.2150 F   0  0  0  0  0  0  0  0  0  0  0  0
    5.9010    0.7890   27.4500 C   0  0  0  0  0  0  0  0  0  0  0  0
    5.7840   -0.3630   26.7160 C   0  0  0  0  0  0  0  0  0  0  0  0
    6.7370   -5.1180   23.8630 C   0  0  0  0  0  0  0  0  0  0  0  0
    6.2170   -5.2690   22.4560 C   0  0  0  0  0  0  0  0  0  0  0  0
  1  2  1  0
  2  3  2  0
  2  4  1  0
  4  5  1  0
  5  6  1  0
  6  7  1  0
  7  8  1  0
  8  9  2  0
  8 10  1  0
 10 11  1  0
 11 12  2  0
 12 13  1  0
 13 14  2  0
 14 15  1  0
 15 16  1  0
 16 17  2  0
 17 18  1  0
 18 19  1  0
 19 20  2  0
 19 21  1  0
 21 22  1  0
 22 23  1  0
 15 24  1  0
 18 24  2  0
 24 25  1  0
 25 26  1  0
 25 27  1  0
 25 28  1  0
 14 29  1  0
 11 30  1  0
 29 30  2  0
  7 31  1  0
  4 32  1  0
 31 32  1  0
M  END
