piperidine-amides-13323-covalent
     RDKit          3D

 32 34  0  0  0  0  0  0  0  0999 V2000
    7.1100   -3.3460   19.3470 C   0  0  0  0  0  0  0  0  0  0  0  0
    6.3840   -4.1540   20.3490 C   0  0  0  0  0  0  0  0  0  0  0  0
    5.3510   -4.7270   19.9520 O   0  0  0  0  0  0  0  0  0  0  0  0
    6.8810   -4.2930   21.6580 N   0  0  0  0  0  0  0  0  0  0  0  0
    7.6800   -3.2580   22.2330 C   0  0  0  0  0  0  0  0  0  0  0  0
    7.3590   -2.9770   23.6300 C   0  0  0  0  0  0  0  0  0  0  0  0
    6.1010   -3.6170   24.0650 C   0  0  0  0  0  0  0  0  0  0  0  0
    5.7130   -3.2360   25.4490 C   0  0  0  0  0  0  0  0  0  0  0  0
    4.5750   -3.5710   25.8220 O   0  0  0  0  0  0  0  0  0  0  0  0
    6.5610   -2.5130   26.3160 N   0  0  0  0  0  0  0  0  0  0  0  0
    6.0370   -1.6600   27.4150 C   0  0  1  0  0  0  0  0  0  0  0  0
    6.9730   -1.5230   28.5400 C   0  0  0  0  0  0  0  0  0  0  0  0
    6.6170   -0.3280   29.1680 C   0  0  0  0  0  0  0  0  0  0  0  0
    5.4150   -0.1350   28.3790 N   0  0  0  0  0  0  0  0  0  0  0  0
    4.1320    0.0530   28.9590 C   0  0  0  0  0  0  0  0  0  0  0  0
    2.9710   -0.1590   28.2230 C   0  0  0  0  0  0  0  0  0  0  0  0
    1.7180    0.0120   28.7620 C   0  0  0  0  0  0  0  0  0  0  0  0
    0.1250   -0.2830   27.7540 Br  0  0  0  0  0  0  0  0  0  0  0  0
    1.6540    0.4050   30.0700 C   0  0  0  0  0  0  0  0  0  0  0  0
    2.7510    0.6280   30.8390 C   0  0  0  0  0  0  0  0  0  0  0  0
    2.6020    1.0270   32.1690 C   0  0  0  0  0  0  0  0  0  0  0  0
    3.3220    0.6640   33.1050 O   0  0  0  0  0  0  0  0  0  0  0  0
    1.5370    1.8960   32.3550 O   0  0  0  0  0  0  0  0  0  0  0  0
    1.4570    2.7580   33.4770 C   0  0  0  0  0  0  0  0  0  0  0  0
    1.6440    1.8830   34.6950 C   0  0  0  0  0  0  0  0  0  0  0  0
    2.6510    3.7180   33.4720 C   0  0  0  0  0  0  0  0  0  0  0  0
    0.1850    3.5370   33.5460 C   0  0  0  0  0  0  0  0  0  0  0  0
    3.9820    0.4530   30.2850 C   0  0  0  0  0  0  0  0  0  0  0  0
    5.7530   -0.2440   26.9530 C   0  0  0  0  0  0  0  0  0  0  0  0
    5.4540    0.9550   26.8240 O   0  0  0  0  0  0  0  0  0  0  0  0
    6.0870   -5.1120   23.8200 C   0  0  0  0  0  0  0  0  0  0  0  0
    6.6190   -5.4900   22.4430 C   0  0  0  0  0  0  0  0  0  0  0  0
  1  2  1  0
  2  3  2  0
  2  4  1  0
  4  5  1  0
  5  6  1  0
  6  7  1  0
  7  8  1  0
  8  9  2  0
  8 10  1  0
 11 10  1  6
 11 12  1  0
 12 13  1  0
 13 14  1  0
 14 15  1  0
 15 16  2  0
 16 17  1  0
 17 18  1  0
 17 19  2  0
 19 20  1  0
 20 21  1  0
 21 22  2  0
 21 23  1  0
 24 23  1  0
 24 25  1  0
 24 26  1  0
 24 27  1  0
 15 28  1  0
 20 28  2  0
 11 29  1  0
 14 29  1  0
 29 30  2  0
  7 31  1  0
  4 32  1  0
 31 32  1  0
M  END
