piperidine-amides-10524-covalent
     RDKit          3D

 24 25  0  0  0  0  0  0  0  0999 V2000
    7.1530   -3.2940   19.2030 C   0  0  0  0  0  0  0  0  0  0  0  0
    6.3840   -4.0180   20.2150 C   0  0  0  0  0  0  0  0  0  0  0  0
    5.2750   -4.4940   19.8600 O   0  0  0  0  0  0  0  0  0  0  0  0
    6.9200   -4.2050   21.4850 N   0  0  0  0  0  0  0  0  0  0  0  0
    7.7460   -3.2100   22.1280 C   0  0  0  0  0  0  0  0  0  0  0  0
    7.0100   -2.7370   23.3380 C   0  0  0  0  0  0  0  0  0  0  0  0
    6.4850   -3.8850   24.1500 C   0  0  0  0  0  0  0  0  0  0  0  0
    5.7390   -3.3500   25.2960 C   0  0  0  0  0  0  0  0  0  0  0  0
    4.5920   -2.8930   25.1030 O   0  0  0  0  0  0  0  0  0  0  0  0
    6.2530   -3.3330   26.5880 N   0  0  0  0  0  0  0  0  0  0  0  0
    5.9170   -4.3850   27.4970 C   0  0  0  0  0  0  0  0  0  0  0  0
    6.4540   -4.1170   28.8780 C   0  0  0  0  0  0  0  0  0  0  0  0
    5.7670   -3.3980   29.6440 O   0  0  0  0  0  0  0  0  0  0  0  0
    5.7280   -2.0820   29.2320 C   0  0  0  0  0  0  0  0  0  0  0  0
    6.3240   -1.1890   30.0940 C   0  0  0  0  0  0  0  0  0  0  0  0
    7.6690   -0.8990   30.1000 C   0  0  0  0  0  0  0  0  0  0  0  0
    8.2290   -0.0140   30.9730 C   0  0  0  0  0  0  0  0  0  0  0  0
    7.5150    0.6670   31.9190 C   0  0  0  0  0  0  0  0  0  0  0  0
    8.2760    1.7940   33.0240 Cl  0  0  0  0  0  0  0  0  0  0  0  0
    6.0170    0.4390   32.0160 C   0  0  0  0  0  0  0  0  0  0  0  0
    5.4550   -0.5760   30.9940 C   0  0  0  0  0  0  0  0  0  0  0  0
    3.7500   -0.9680   30.9550 Cl  0  0  0  0  0  0  0  0  0  0  0  0
    5.6190   -4.8500   23.3280 C   0  0  0  0  0  0  0  0  0  0  0  0
    6.5500   -5.3730   22.2570 C   0  0  0  0  0  0  0  0  0  0  0  0
  1  2  1  0
  2  3  2  0
  2  4  1  0
  4  5  1  0
  5  6  1  0
  6  7  1  0
  7  8  1  0
  8  9  2  0
  8 10  1  0
 10 11  1  0
 11 12  1  0
 12 13  1  0
 13 14  1  0
 14 15  1  0
 15 16  2  0
 16 17  1  0
 17 18  2  0
 18 19  1  0
 18 20  1  0
 15 21  1  0
 20 21  2  0
 21 22  1  0
  7 23  1  0
  4 24  1  0
 23 24  1  0
M  END
