piperidine-amides-31738-covalent
     RDKit          3D

 22 23  0  0  0  0  0  0  0  0999 V2000
    7.1720   -3.2790   19.2610 C   0  0  0  0  0  0  0  0  0  0  0  0
    6.2950   -3.9930   20.1570 C   0  0  0  0  0  0  0  0  0  0  0  0
    5.1610   -4.3870   19.7750 O   0  0  0  0  0  0  0  0  0  0  0  0
    6.7060   -4.3040   21.4410 N   0  0  0  0  0  0  0  0  0  0  0  0
    7.5540   -3.2910   22.0740 C   0  0  0  0  0  0  0  0  0  0  0  0
    6.5060   -2.6940   23.0720 C   0  0  0  0  0  0  0  0  0  0  0  0
    6.0590   -3.8810   23.8900 C   0  0  0  0  0  0  0  0  0  0  0  0
    5.5180   -3.3170   25.2540 C   0  0  0  0  0  0  0  0  0  0  0  0
    4.6620   -2.4580   25.1070 O   0  0  0  0  0  0  0  0  0  0  0  0
    6.1360   -3.9300   26.1480 N   0  0  0  0  0  0  0  0  0  0  0  0
    6.4260   -4.8770   27.0510 C   0  0  0  0  0  0  0  0  0  0  0  0
    5.8240   -5.9540   27.6270 C   0  0  0  0  0  0  0  0  0  0  0  0
    4.6670   -5.5980   28.3290 O   0  0  0  0  0  0  0  0  0  0  0  0
    7.2130   -2.9760   26.3500 C   0  0  0  0  0  0  0  0  0  0  0  0
    8.3520   -2.8850   25.3960 C   0  0  0  0  0  0  0  0  0  0  0  0
    9.2670   -2.0700   26.2140 C   0  0  0  0  0  0  0  0  0  0  0  0
   10.3160   -1.9640   25.2880 C   0  0  0  0  0  0  0  0  0  0  0  0
   10.2560   -2.5530   24.0330 C   0  0  0  0  0  0  0  0  0  0  0  0
   11.7330   -2.2920   22.8740 Br  0  0  0  0  0  0  0  0  0  0  0  0
    8.7920   -3.4150   23.7910 S   0  0  0  0  0  0  0  0  0  0  0  0
    5.3570   -4.9400   23.2170 C   0  0  0  0  0  0  0  0  0  0  0  0
    6.3760   -5.4630   22.1600 C   0  0  0  0  0  0  0  0  0  0  0  0
  1  2  1  0
  2  3  2  0
  2  4  1  0
  4  5  1  0
  5  6  1  0
  6  7  1  0
  7  8  1  0
  8  9  2  0
  8 10  1  0
 10 11  1  0
 11 12  1  0
 12 13  1  0
 10 14  1  0
 14 15  1  0
 15 16  2  0
 16 17  1  0
 17 18  2  0
 18 19  1  0
 15 20  1  0
 18 20  1  0
  7 21  1  0
  4 22  1  0
 21 22  1  0
M  END
