piperidine-amides-3467-covalent
     RDKit          3D

 21 22  0  0  0  0  0  0  0  0999 V2000
    7.0530   -3.2780   19.1620 C   0  0  0  0  0  0  0  0  0  0  0  0
    6.2100   -3.9550   20.1480 C   0  0  0  0  0  0  0  0  0  0  0  0
    5.1510   -4.4610   19.8150 O   0  0  0  0  0  0  0  0  0  0  0  0
    6.6250   -4.0810   21.5030 N   0  0  0  0  0  0  0  0  0  0  0  0
    7.4660   -3.0730   22.0560 C   0  0  0  0  0  0  0  0  0  0  0  0
    7.3870   -3.1650   23.5260 C   0  0  0  0  0  0  0  0  0  0  0  0
    6.1010   -3.8490   23.9180 C   0  0  0  0  0  0  0  0  0  0  0  0
    5.9900   -3.7900   25.3960 C   0  0  0  0  0  0  0  0  0  0  0  0
    5.1130   -3.1250   25.9880 O   0  0  0  0  0  0  0  0  0  0  0  0
    6.9600   -4.5440   26.1110 N   0  0  0  0  0  0  0  0  0  0  0  0
    6.7940   -4.8440   27.5180 C   0  0  2  0  0  0  0  0  0  0  0  0
    7.9180   -5.7360   27.9830 C   0  0  0  0  0  0  0  0  0  0  0  0
    5.5740   -5.6240   27.7450 C   0  0  0  0  0  0  0  0  0  0  0  0
    4.7920   -5.9520   26.8230 O   0  0  0  0  0  0  0  0  0  0  0  0
    5.2940   -6.0170   29.0960 N   0  0  0  0  0  0  0  0  0  0  0  0
    4.1170   -5.3710   29.6540 C   0  0  0  0  0  0  0  0  0  0  0  0
    3.4730   -6.2430   30.4800 C   0  0  0  0  0  0  0  0  0  0  0  0
    4.2140   -7.4500   30.3320 C   0  0  0  0  0  0  0  0  0  0  0  0
    5.2820   -7.4360   29.4790 C   0  0  0  0  0  0  0  0  0  0  0  0
    6.2110   -5.3050   23.4890 C   0  0  0  0  0  0  0  0  0  0  0  0
    6.4140   -5.3920   22.1050 C   0  0  0  0  0  0  0  0  0  0  0  0
  1  2  1  0
  2  3  2  0
  2  4  1  0
  4  5  1  0
  5  6  1  0
  6  7  1  0
  7  8  1  0
  8  9  2  0
  8 10  1  0
 10 11  1  0
 11 12  1  6
 11 13  1  0
 13 14  2  0
 13 15  1  0
 15 16  1  0
 16 17  1  0
 17 18  1  0
 15 19  1  0
 18 19  1  0
  7 20  1  0
  4 21  1  0
 20 21  1  0
M  END
