piperidine-amides-35452-covalent
     RDKit          3D

 33 35  0  0  0  0  0  0  0  0999 V2000
    7.0660   -3.3210   19.3050 C   0  0  0  0  0  0  0  0  0  0  0  0
    6.3980   -4.1770   20.3160 C   0  0  0  0  0  0  0  0  0  0  0  0
    5.3780   -4.7690   19.9620 O   0  0  0  0  0  0  0  0  0  0  0  0
    6.9520   -4.3190   21.5920 N   0  0  0  0  0  0  0  0  0  0  0  0
    6.6320   -5.4260   22.4460 C   0  0  0  0  0  0  0  0  0  0  0  0
    5.8220   -4.9210   23.6090 C   0  0  0  0  0  0  0  0  0  0  0  0
    6.5380   -3.7480   24.2990 C   0  0  0  0  0  0  0  0  0  0  0  0
    5.6710   -3.3210   25.4200 C   0  0  0  0  0  0  0  0  0  0  0  0
    4.4760   -3.1020   25.1820 O   0  0  0  0  0  0  0  0  0  0  0  0
    6.1450   -3.1670   26.7420 N   0  0  0  0  0  0  0  0  0  0  0  0
    5.6550   -4.1470   27.7160 C   0  0  0  0  0  0  0  0  0  0  0  0
    4.3240   -4.3800   28.0090 N   0  0  0  0  0  0  0  0  0  0  0  0
    4.1140   -5.3280   28.9240 C   0  0  0  0  0  0  0  0  0  0  0  0
    3.1940   -6.0450   29.6510 C   0  0  0  0  0  0  0  0  0  0  0  0
    1.9470   -5.5610   29.2930 F   0  0  0  0  0  0  0  0  0  0  0  0
    3.2990   -7.4280   29.5700 F   0  0  0  0  0  0  0  0  0  0  0  0
    3.2460   -5.7740   31.0680 F   0  0  0  0  0  0  0  0  0  0  0  0
    5.2050   -6.0030   29.5090 C   0  0  0  0  0  0  0  0  0  0  0  0
    5.5280   -6.9890   30.4190 C   0  0  0  0  0  0  0  0  0  0  0  0
    5.5960   -8.2980   30.0760 O   0  0  0  0  0  0  0  0  0  0  0  0
    5.7990   -6.5760   31.7100 O   0  0  0  0  0  0  0  0  0  0  0  0
    5.0870   -7.0730   32.8200 C   0  0  0  0  0  0  0  0  0  0  0  0
    5.5620   -8.4270   33.2370 C   0  0  0  0  0  0  0  0  0  0  0  0
    6.5640   -5.2920   28.7710 S   0  0  0  0  0  0  0  0  0  0  0  0
    6.2750   -1.8280   27.3000 C   0  0  0  0  0  0  0  0  0  0  0  0
    6.9490   -1.7910   28.6280 C   0  0  0  0  0  0  0  0  0  0  0  0
    7.1160   -0.4790   29.2920 C   0  0  0  0  0  0  0  0  0  0  0  0
    6.6120    0.7770   28.6270 C   0  0  0  0  0  0  0  0  0  0  0  0
    5.9550    0.6680   27.3020 C   0  0  0  0  0  0  0  0  0  0  0  0
    5.7960   -0.6910   26.6400 C   0  0  0  0  0  0  0  0  0  0  0  0
    5.1750   -0.7320   25.4100 C   0  0  0  0  0  0  0  0  0  0  0  0
    6.8360   -2.6700   23.3110 C   0  0  0  0  0  0  0  0  0  0  0  0
    7.7200   -3.2240   22.2000 C   0  0  0  0  0  0  0  0  0  0  0  0
  1  2  1  0
  2  3  2  0
  2  4  1  0
  4  5  1  0
  5  6  1  0
  6  7  1  0
  7  8  1  0
  8  9  2  0
  8 10  1  0
 10 11  1  0
 11 12  2  0
 12 13  1  0
 13 14  1  0
 14 15  1  0
 14 16  1  0
 14 17  1  0
 13 18  2  0
 18 19  1  0
 19 20  2  0
 19 21  1  0
 21 22  1  0
 22 23  1  0
 11 24  1  0
 18 24  1  0
 10 25  1  0
 25 26  2  0
 26 27  1  0
 27 28  2  0
 28 29  1  0
 25 30  1  0
 29 30  2  0
 30 31  1  0
  7 32  1  0
  4 33  1  0
 32 33  1  0
M  END
