piperidine-amides-2510-covalent
     RDKit          3D

 26 28  0  0  0  0  0  0  0  0999 V2000
    7.1160   -3.2540   19.1320 C   0  0  0  0  0  0  0  0  0  0  0  0
    6.3560   -3.9940   20.1730 C   0  0  0  0  0  0  0  0  0  0  0  0
    5.2780   -4.4850   19.8530 O   0  0  0  0  0  0  0  0  0  0  0  0
    6.9030   -4.1510   21.4410 N   0  0  0  0  0  0  0  0  0  0  0  0
    7.6520   -3.0870   22.0490 C   0  0  0  0  0  0  0  0  0  0  0  0
    7.2600   -2.9800   23.4890 C   0  0  0  0  0  0  0  0  0  0  0  0
    5.7760   -3.3350   23.6720 C   0  0  0  0  0  0  0  0  0  0  0  0
    5.4440   -3.1410   25.0930 C   0  0  0  0  0  0  0  0  0  0  0  0
    4.5930   -2.3060   25.4210 O   0  0  0  0  0  0  0  0  0  0  0  0
    6.0840   -3.9080   26.0600 N   0  0  0  0  0  0  0  0  0  0  0  0
    7.1760   -4.7240   25.6030 C   0  0  0  0  0  0  0  0  0  0  0  0
    7.5860   -5.5810   26.7460 C   0  0  1  0  0  0  0  0  0  0  0  0
    8.8880   -5.6250   27.1390 C   0  0  0  0  0  0  0  0  0  0  0  0
    9.8520   -5.1340   26.5210 C   0  0  0  0  0  0  0  0  0  0  0  0
    9.5750   -6.3380   25.9430 C   0  0  0  0  0  0  0  0  0  0  0  0
    6.5380   -5.3060   27.7440 N   0  0  0  0  0  0  0  0  0  0  0  0
    7.0890   -5.8990   28.9520 C   0  0  0  0  0  0  0  0  0  0  0  0
    5.3340   -5.8890   27.5480 C   0  0  0  0  0  0  0  0  0  0  0  0
    4.2900   -6.1620   28.5990 C   0  0  0  0  0  0  0  0  0  0  0  0
    3.4090   -4.9830   28.8710 C   0  0  0  0  0  0  0  0  0  0  0  0
    2.3560   -5.1840   29.9080 C   0  0  0  0  0  0  0  0  0  0  0  0
    2.2460   -6.5300   30.5980 C   0  0  0  0  0  0  0  0  0  0  0  0
    3.1890   -7.6200   30.2290 C   0  0  0  0  0  0  0  0  0  0  0  0
    4.2520   -7.4090   29.1820 C   0  0  0  0  0  0  0  0  0  0  0  0
    5.5170   -4.7790   23.2890 C   0  0  0  0  0  0  0  0  0  0  0  0
    6.4450   -5.2620   22.2060 C   0  0  0  0  0  0  0  0  0  0  0  0
  1  2  1  0
  2  3  2  0
  2  4  1  0
  4  5  1  0
  5  6  1  0
  6  7  1  0
  7  8  1  0
  8  9  2  0
  8 10  1  0
 10 11  1  0
 12 11  1  6
 12 13  1  0
 13 14  1  0
 13 15  1  0
 14 15  1  0
 12 16  1  0
 16 17  1  0
 16 18  1  0
 18 19  1  0
 19 20  2  0
 20 21  1  0
 21 22  2  0
 22 23  1  0
 19 24  1  0
 23 24  2  0
  7 25  1  0
  4 26  1  0
 25 26  1  0
M  END
