piperidine-amides-6288-covalent
     RDKit          3D

 26 28  0  0  0  0  0  0  0  0999 V2000
    7.0710   -3.3520   19.3760 C   0  0  0  0  0  0  0  0  0  0  0  0
    6.3610   -4.1750   20.3640 C   0  0  0  0  0  0  0  0  0  0  0  0
    5.3930   -4.8770   19.9960 O   0  0  0  0  0  0  0  0  0  0  0  0
    6.7830   -4.2200   21.7040 N   0  0  0  0  0  0  0  0  0  0  0  0
    7.6840   -3.1870   22.2030 C   0  0  0  0  0  0  0  0  0  0  0  0
    7.5110   -3.1090   23.7260 C   0  0  0  0  0  0  0  0  0  0  0  0
    6.1000   -3.5690   23.9730 C   0  0  0  0  0  0  0  0  0  0  0  0
    5.5770   -3.2340   25.3200 C   0  0  0  0  0  0  0  0  0  0  0  0
    4.3370   -3.1960   25.4510 O   0  0  0  0  0  0  0  0  0  0  0  0
    6.4270   -2.9680   26.4250 N   0  0  0  0  0  0  0  0  0  0  0  0
    6.3720   -1.6550   27.0240 C   0  0  0  0  0  0  0  0  0  0  0  0
    6.9870   -1.6070   28.4030 C   0  0  0  0  0  0  0  0  0  0  0  0
    7.0200   -0.4370   29.1150 C   0  0  0  0  0  0  0  0  0  0  0  0
    6.4790    0.7050   28.5540 C   0  0  0  0  0  0  0  0  0  0  0  0
    6.5310    1.9100   29.3220 N   0  0  0  0  0  0  0  0  0  0  0  0
    7.6140    2.2620   30.0990 C   0  0  0  0  0  0  0  0  0  0  0  0
    8.2010    3.3520   29.5010 C   0  0  2  0  0  0  0  0  0  0  0  0
    9.5610    3.7970   30.0030 C   0  0  0  0  0  0  0  0  0  0  0  0
    7.4850    4.4960   29.3850 O   0  0  0  0  0  0  0  0  0  0  0  0
    6.4190    4.1880   28.5080 C   0  0  2  0  0  0  0  0  0  0  0  0
    5.1060    4.4330   29.1920 C   0  0  0  0  0  0  0  0  0  0  0  0
    5.6130    2.9600   28.9390 C   0  0  0  0  0  0  0  0  0  0  0  0
    5.9300    0.6530   27.3250 N   0  0  0  0  0  0  0  0  0  0  0  0
    5.8600   -0.4760   26.5500 C   0  0  0  0  0  0  0  0  0  0  0  0
    6.0770   -5.0860   23.8100 C   0  0  0  0  0  0  0  0  0  0  0  0
    6.6450   -5.4480   22.4550 C   0  0  0  0  0  0  0  0  0  0  0  0
  1  2  1  0
  2  3  2  0
  2  4  1  0
  4  5  1  0
  5  6  1  0
  6  7  1  0
  7  8  1  0
  8  9  2  0
  8 10  1  0
 10 11  1  0
 11 12  2  0
 12 13  1  0
 13 14  2  0
 14 15  1  0
 15 16  1  0
 16 17  1  0
 17 18  1  1
 17 19  1  0
 19 20  1  0
 20 21  1  1
 15 22  1  0
 20 22  1  0
 14 23  1  0
 11 24  1  0
 23 24  2  0
  7 25  1  0
  4 26  1  0
 25 26  1  0
M  END
