piperidine-amides-24881-covalent
     RDKit          3D

 24 25  0  0  0  0  0  0  0  0999 V2000
    7.0070   -3.3540   19.4420 C   0  0  0  0  0  0  0  0  0  0  0  0
    6.3520   -4.2550   20.4120 C   0  0  0  0  0  0  0  0  0  0  0  0
    5.4240   -4.9960   20.0160 O   0  0  0  0  0  0  0  0  0  0  0  0
    6.7730   -4.3100   21.7610 N   0  0  0  0  0  0  0  0  0  0  0  0
    6.6470   -5.5700   22.4860 C   0  0  0  0  0  0  0  0  0  0  0  0
    6.1450   -5.2830   23.9200 C   0  0  0  0  0  0  0  0  0  0  0  0
    6.1790   -3.7850   24.0690 C   0  0  0  0  0  0  0  0  0  0  0  0
    5.7240   -3.2140   25.3750 C   0  0  0  0  0  0  0  0  0  0  0  0
    5.4540   -2.0020   25.3530 O   0  0  0  0  0  0  0  0  0  0  0  0
    5.5190   -3.9130   26.6130 N   0  0  0  0  0  0  0  0  0  0  0  0
    6.3340   -3.6230   27.7360 C   0  0  0  0  0  0  0  0  0  0  0  0
    6.6500   -4.9330   28.4420 C   0  0  0  0  0  0  0  0  0  0  0  0
    5.4610   -5.3650   29.1020 N   0  0  0  0  0  0  0  0  0  0  0  0
    5.4550   -6.6330   29.8170 C   0  0  0  0  0  0  0  0  0  0  0  0
    4.5860   -6.5050   30.8660 C   0  0  0  0  0  0  0  0  0  0  0  0
    4.8460   -7.1080   32.0970 C   0  0  0  0  0  0  0  0  0  0  0  0
    6.0620   -6.9880   32.6900 O   0  0  0  0  0  0  0  0  0  0  0  0
    3.8370   -7.8630   32.7820 N   0  0  0  0  0  0  0  0  0  0  0  0
    4.1980   -8.8230   33.8110 C   0  0  0  0  0  0  0  0  0  0  0  0
    2.8650   -8.4160   32.0280 C   0  0  0  0  0  0  0  0  0  0  0  0
    4.2600   -4.9260   28.5030 C   0  0  0  0  0  0  0  0  0  0  0  0
    4.5420   -3.7120   27.6590 C   0  0  0  0  0  0  0  0  0  0  0  0
    7.5450   -3.2830   23.6920 C   0  0  0  0  0  0  0  0  0  0  0  0
    7.6450   -3.2700   22.2940 C   0  0  0  0  0  0  0  0  0  0  0  0
  1  2  1  0
  2  3  2  0
  2  4  1  0
  4  5  1  0
  5  6  1  0
  6  7  1  0
  7  8  1  0
  8  9  2  0
  8 10  1  0
 10 11  1  0
 11 12  1  0
 12 13  1  0
 13 14  1  0
 14 15  1  0
 15 16  1  0
 16 17  2  0
 16 18  1  0
 18 19  1  0
 18 20  1  0
 13 21  1  0
 10 22  1  0
 21 22  1  0
  7 23  1  0
  4 24  1  0
 23 24  1  0
M  END
