piperidine-amides-32790-covalent
     RDKit          3D

 28 32  0  0  0  0  0  0  0  0999 V2000
    7.0350   -3.3400   19.3920 C   0  0  0  0  0  0  0  0  0  0  0  0
    6.3730   -4.2150   20.3990 C   0  0  0  0  0  0  0  0  0  0  0  0
    5.4220   -4.9210   20.0080 O   0  0  0  0  0  0  0  0  0  0  0  0
    6.8500   -4.2620   21.7450 N   0  0  0  0  0  0  0  0  0  0  0  0
    6.6130   -5.4240   22.5860 C   0  0  0  0  0  0  0  0  0  0  0  0
    6.1990   -4.9550   24.0040 C   0  0  0  0  0  0  0  0  0  0  0  0
    6.0990   -3.4660   23.9780 C   0  0  0  0  0  0  0  0  0  0  0  0
    5.2810   -2.8000   25.0510 C   0  0  0  0  0  0  0  0  0  0  0  0
    4.1580   -2.4960   24.6530 O   0  0  0  0  0  0  0  0  0  0  0  0
    5.6450   -2.5460   26.3950 N   0  0  0  0  0  0  0  0  0  0  0  0
    5.1650   -3.4450   27.3880 C   0  0  0  0  0  0  0  0  0  0  0  0
    5.8180   -4.5510   27.8080 C   0  0  0  0  0  0  0  0  0  0  0  0
    6.9180   -5.2100   27.2580 C   0  0  0  0  0  0  0  0  0  0  0  0
    7.3580   -6.2980   27.9410 C   0  0  0  0  0  0  0  0  0  0  0  0
    6.5570   -6.6000   29.1560 C   0  0  0  0  0  0  0  0  0  0  0  0
    5.2910   -5.4020   29.3140 S   0  0  0  0  0  0  0  0  0  0  0  0
    5.4290   -1.1840   27.0280 C   0  0  2  0  0  0  0  0  0  0  0  0
    6.1230   -0.9230   28.3810 C   0  0  0  0  0  0  0  0  0  0  0  0
    5.6870    0.2150   28.9300 C   0  0  1  0  0  0  0  0  0  0  0  0
    6.1230    1.4030   28.2140 C   0  0  0  0  0  0  0  0  0  0  0  0
    5.3860    1.0360   26.8850 C   0  0  2  0  0  0  0  0  0  0  0  0
    4.0390    1.4610   26.7380 C   0  0  0  0  0  0  0  0  0  0  0  0
    3.8000    0.1990   27.6460 C   0  0  2  0  0  0  0  0  0  0  0  0
    4.3580    0.2820   29.0250 C   0  0  0  0  0  0  0  0  0  0  0  0
    4.0630   -1.0230   27.0380 C   0  0  0  0  0  0  0  0  0  0  0  0
    5.7450   -0.1650   26.2200 C   0  0  0  0  0  0  0  0  0  0  0  0
    7.4270   -2.8640   23.6050 C   0  0  0  0  0  0  0  0  0  0  0  0
    7.6710   -3.1740   22.2920 C   0  0  0  0  0  0  0  0  0  0  0  0
  1  2  1  0
  2  3  2  0
  2  4  1  0
  4  5  1  0
  5  6  1  0
  6  7  1  0
  7  8  1  0
  8  9  2  0
  8 10  1  0
 10 11  1  0
 11 12  1  0
 12 13  2  0
 13 14  1  0
 14 15  2  0
 12 16  1  0
 15 16  1  0
 17 10  1  6
 17 18  1  0
 19 18  1  6
 19 20  1  0
 21 20  1  1
 21 22  1  0
 23 22  1  6
 19 24  1  0
 23 24  1  0
 17 25  1  0
 23 25  1  0
 17 26  1  0
 21 26  1  0
  7 27  1  0
  4 28  1  0
 27 28  1  0
M  END
