piperidine-amides-13390-covalent
     RDKit          3D

 32 35  0  0  0  0  0  0  0  0999 V2000
    7.1200   -3.2840   19.2180 C   0  0  0  0  0  0  0  0  0  0  0  0
    6.1810   -3.9420   20.1740 C   0  0  0  0  0  0  0  0  0  0  0  0
    5.1180   -4.4170   19.7810 O   0  0  0  0  0  0  0  0  0  0  0  0
    6.5220   -4.0520   21.5200 N   0  0  0  0  0  0  0  0  0  0  0  0
    7.4240   -3.1570   22.1670 C   0  0  0  0  0  0  0  0  0  0  0  0
    6.6940   -2.5380   23.3670 C   0  0  0  0  0  0  0  0  0  0  0  0
    5.7330   -3.5170   24.0130 C   0  0  0  0  0  0  0  0  0  0  0  0
    5.5620   -3.3040   25.4810 C   0  0  0  0  0  0  0  0  0  0  0  0
    4.3980   -3.1090   25.8530 O   0  0  0  0  0  0  0  0  0  0  0  0
    6.6580   -3.3200   26.3780 N   0  0  0  0  0  0  0  0  0  0  0  0
    7.2550   -4.4460   27.0250 C   0  0  0  0  0  0  0  0  0  0  0  0
    7.6780   -5.5750   26.3540 C   0  0  0  0  0  0  0  0  0  0  0  0
    8.6000   -5.4340   25.3030 C   0  0  0  0  0  0  0  0  0  0  0  0
    8.6540   -6.3060   24.2330 O   0  0  0  0  0  0  0  0  0  0  0  0
    9.6830   -4.7290   25.5890 C   0  0  0  0  0  0  0  0  0  0  0  0
    9.2630   -3.4950   25.6040 N   0  0  0  0  0  0  0  0  0  0  0  0
    9.8850   -2.4490   25.1350 C   0  0  0  0  0  0  0  0  0  0  0  0
   10.5130   -2.1930   23.8180 C   0  0  0  0  0  0  0  0  0  0  0  0
    9.9710   -2.8490   22.6540 C   0  0  0  0  0  0  0  0  0  0  0  0
   10.6070   -2.6360   21.5080 C   0  0  0  0  0  0  0  0  0  0  0  0
   11.8270   -1.8120   21.2200 C   0  0  0  0  0  0  0  0  0  0  0  0
   12.2580   -1.1750   22.5250 C   0  0  0  0  0  0  0  0  0  0  0  0
   11.6790   -1.3270   23.7320 C   0  0  0  0  0  0  0  0  0  0  0  0
   11.2230   -2.7310   25.3770 C   0  0  0  0  0  0  0  0  0  0  0  0
   11.9240   -3.8580   26.0550 C   0  0  0  0  0  0  0  0  0  0  0  0
   13.4360   -3.7560   26.1370 C   0  0  0  0  0  0  0  0  0  0  0  0
   14.0200   -2.5840   25.5150 C   0  0  0  0  0  0  0  0  0  0  0  0
   13.2830   -1.6220   24.8800 C   0  0  0  0  0  0  0  0  0  0  0  0
   11.9600   -1.7200   24.8410 C   0  0  0  0  0  0  0  0  0  0  0  0
    8.3030   -4.0360   24.7220 C   0  0  0  0  0  0  0  0  0  0  0  0
    5.9790   -4.9920   23.6530 C   0  0  0  0  0  0  0  0  0  0  0  0
    6.0840   -5.2230   22.2010 C   0  0  0  0  0  0  0  0  0  0  0  0
  1  2  1  0
  2  3  2  0
  2  4  1  0
  4  5  1  0
  5  6  1  0
  6  7  1  0
  7  8  1  0
  8  9  2  0
  8 10  1  0
 10 11  1  0
 11 12  1  0
 12 13  1  0
 13 14  1  0
 13 15  1  0
 15 16  1  0
 16 17  1  0
 17 18  1  0
 18 19  2  0
 19 20  1  0
 20 21  2  0
 21 22  1  0
 18 23  1  0
 22 23  2  0
 17 24  1  0
 24 25  2  0
 25 26  1  0
 26 27  2  0
 27 28  1  0
 24 29  1  0
 28 29  2  0
 13 30  1  0
 16 30  1  0
  7 31  1  0
  4 32  1  0
 31 32  1  0
M  END
