piperidine-amides-2229-covalent
     RDKit          3D

 28 30  0  0  0  0  0  0  0  0999 V2000
    7.0300   -3.3340   19.3240 C   0  0  0  0  0  0  0  0  0  0  0  0
    6.3590   -4.1810   20.3450 C   0  0  0  0  0  0  0  0  0  0  0  0
    5.3750   -4.8210   19.9740 O   0  0  0  0  0  0  0  0  0  0  0  0
    6.8670   -4.2630   21.6460 N   0  0  0  0  0  0  0  0  0  0  0  0
    7.6670   -3.1940   22.2040 C   0  0  0  0  0  0  0  0  0  0  0  0
    7.3570   -3.0270   23.6660 C   0  0  0  0  0  0  0  0  0  0  0  0
    5.9910   -3.6440   23.9570 C   0  0  0  0  0  0  0  0  0  0  0  0
    5.5870   -3.3030   25.3390 C   0  0  0  0  0  0  0  0  0  0  0  0
    4.3850   -3.3090   25.6470 O   0  0  0  0  0  0  0  0  0  0  0  0
    6.5490   -2.9670   26.3030 N   0  0  0  0  0  0  0  0  0  0  0  0
    6.4440   -1.7260   27.0310 C   0  0  0  0  0  0  0  0  0  0  0  0
    6.9880   -1.5400   28.4250 C   0  0  0  0  0  0  0  0  0  0  0  0
    6.9660   -0.4320   29.2410 C   0  0  0  0  0  0  0  0  0  0  0  0
    6.3690    0.7210   28.7760 C   0  0  0  0  0  0  0  0  0  0  0  0
    6.3650    1.8030   29.6330 O   0  0  0  0  0  0  0  0  0  0  0  0
    5.1090    2.3430   29.8260 C   0  0  0  0  0  0  0  0  0  0  0  0
    4.1740    1.2430   30.3030 C   0  0  0  0  0  0  0  0  0  0  0  0
    2.9050    1.6990   30.2670 N   0  0  0  0  0  0  0  0  0  0  0  0
    2.6580    2.5610   31.2790 C   0  0  0  0  0  0  0  0  0  0  0  0
    2.3360    4.0290   31.1600 C   0  0  0  0  0  0  0  0  0  0  0  0
    1.3180    4.0470   30.2730 N   0  0  0  0  0  0  0  0  0  0  0  0
    0.2450    5.0070   30.3460 C   0  0  0  0  0  0  0  0  0  0  0  0
    1.6360    3.3750   29.0390 C   0  0  0  0  0  0  0  0  0  0  0  0
    2.3410    2.0300   29.0110 C   0  0  0  0  0  0  0  0  0  0  0  0
    5.7480    0.7970   27.4040 C   0  0  0  0  0  0  0  0  0  0  0  0
    5.7830   -0.4170   26.5330 C   0  0  0  0  0  0  0  0  0  0  0  0
    6.0990   -5.1380   23.7720 C   0  0  0  0  0  0  0  0  0  0  0  0
    6.5900   -5.4620   22.3820 C   0  0  0  0  0  0  0  0  0  0  0  0
  1  2  1  0
  2  3  2  0
  2  4  1  0
  4  5  1  0
  5  6  1  0
  6  7  1  0
  7  8  1  0
  8  9  2  0
  8 10  1  0
 10 11  1  0
 11 12  2  0
 12 13  1  0
 13 14  2  0
 14 15  1  0
 15 16  1  0
 16 17  1  0
 17 18  1  0
 18 19  1  0
 19 20  1  0
 20 21  1  0
 21 22  1  0
 21 23  1  0
 18 24  1  0
 23 24  1  0
 14 25  1  0
 11 26  1  0
 25 26  2  0
  7 27  1  0
  4 28  1  0
 27 28  1  0
M  END
