piperidine-amides-12576-covalent
     RDKit          3D

 23 25  0  0  0  0  0  0  0  0999 V2000
    7.0690   -3.3640   19.2950 C   0  0  0  0  0  0  0  0  0  0  0  0
    6.3700   -4.1570   20.3290 C   0  0  0  0  0  0  0  0  0  0  0  0
    5.3320   -4.7390   19.9550 O   0  0  0  0  0  0  0  0  0  0  0  0
    6.8870   -4.2880   21.6340 N   0  0  0  0  0  0  0  0  0  0  0  0
    7.6810   -3.2520   22.2160 C   0  0  0  0  0  0  0  0  0  0  0  0
    7.2970   -2.9550   23.5890 C   0  0  0  0  0  0  0  0  0  0  0  0
    6.0260   -3.6050   23.9520 C   0  0  0  0  0  0  0  0  0  0  0  0
    5.6180   -3.2740   25.3430 C   0  0  0  0  0  0  0  0  0  0  0  0
    4.4040   -3.3490   25.6310 O   0  0  0  0  0  0  0  0  0  0  0  0
    6.5620   -2.8830   26.3050 N   0  0  0  0  0  0  0  0  0  0  0  0
    6.4940   -1.6330   27.1030 C   0  0  0  0  0  0  0  0  0  0  0  0
    7.0740   -1.6290   28.4540 C   0  0  0  0  0  0  0  0  0  0  0  0
    7.0280   -0.4260   29.2600 C   0  0  0  0  0  0  0  0  0  0  0  0
    6.4250    0.7020   28.7140 C   0  0  0  0  0  0  0  0  0  0  0  0
    5.8660    0.7190   27.4350 C   0  0  0  0  0  0  0  0  0  0  0  0
    5.8990   -0.3980   26.6640 C   0  0  0  0  0  0  0  0  0  0  0  0
    5.2820   -0.1070   25.4650 O   0  0  0  0  0  0  0  0  0  0  0  0
    4.8270    1.2050   25.5260 C   0  0  0  0  0  0  0  0  0  0  0  0
    3.5220    1.3680   25.9060 C   0  0  0  0  0  0  0  0  0  0  0  0
    5.0740    2.1140   24.5090 C   0  0  0  0  0  0  0  0  0  0  0  0
    5.2590    1.8320   26.8670 C   0  0  0  0  0  0  0  0  0  0  0  0
    6.0130   -5.0840   23.7350 C   0  0  0  0  0  0  0  0  0  0  0  0
    6.6480   -5.4790   22.4230 C   0  0  0  0  0  0  0  0  0  0  0  0
  1  2  1  0
  2  3  2  0
  2  4  1  0
  4  5  1  0
  5  6  1  0
  6  7  1  0
  7  8  1  0
  8  9  2  0
  8 10  1  0
 10 11  1  0
 11 12  2  0
 12 13  1  0
 13 14  2  0
 14 15  1  0
 11 16  1  0
 15 16  2  0
 16 17  1  0
 17 18  1  0
 18 19  1  0
 18 20  1  0
 15 21  1  0
 18 21  1  0
  7 22  1  0
  4 23  1  0
 22 23  1  0
M  END
