piperidine-amides-666-covalent
     RDKit          3D

 26 27  0  0  0  0  0  0  0  0999 V2000
    7.1220   -3.2950   19.3740 C   0  0  0  0  0  0  0  0  0  0  0  0
    6.3920   -4.0820   20.3460 C   0  0  0  0  0  0  0  0  0  0  0  0
    5.3830   -4.7490   19.9540 O   0  0  0  0  0  0  0  0  0  0  0  0
    6.7850   -4.1500   21.7020 N   0  0  0  0  0  0  0  0  0  0  0  0
    6.6810   -5.4930   22.3400 C   0  0  0  0  0  0  0  0  0  0  0  0
    6.0310   -5.1880   23.7580 C   0  0  0  0  0  0  0  0  0  0  0  0
    6.1640   -3.7060   23.9740 C   0  0  0  0  0  0  0  0  0  0  0  0
    5.5000   -3.1810   25.3260 C   0  0  0  0  0  0  0  0  0  0  0  0
    4.7280   -2.2690   25.0760 O   0  0  0  0  0  0  0  0  0  0  0  0
    5.9250   -3.8360   26.3350 N   0  0  0  0  0  0  0  0  0  0  0  0
    6.3130   -4.4700   27.4780 C   0  0  2  0  0  0  0  0  0  0  0  0
    6.6230   -5.7040   27.9960 C   0  0  0  0  0  0  0  0  0  0  0  0
    5.4090   -6.3200   28.5310 N   0  0  0  0  0  0  0  0  0  0  0  0
    4.6580   -7.1410   27.7910 C   0  0  0  0  0  0  0  0  0  0  0  0
    5.7940   -6.9920   29.6790 C   0  0  0  0  0  0  0  0  0  0  0  0
    4.5720   -7.4000   30.5070 C   0  0  0  0  0  0  0  0  0  0  0  0
    5.1060   -7.5030   31.7980 C   0  0  0  0  0  0  0  0  0  0  0  0
    4.5300   -7.8490   33.0700 C   0  0  0  0  0  0  0  0  0  0  0  0
    3.0650   -8.0880   32.5770 C   0  0  0  0  0  0  0  0  0  0  0  0
    2.4540   -7.9770   31.1450 C   0  0  0  0  0  0  0  0  0  0  0  0
    3.2600   -7.6290   30.1500 C   0  0  0  0  0  0  0  0  0  0  0  0
    5.3120   -4.3560   28.5750 C   0  0  0  0  0  0  0  0  0  0  0  0
    4.0650   -4.4300   28.0370 C   0  0  0  0  0  0  0  0  0  0  0  0
    5.6110   -3.1360   29.1290 C   0  0  0  0  0  0  0  0  0  0  0  0
    7.4540   -3.0560   23.6500 C   0  0  0  0  0  0  0  0  0  0  0  0
    7.7220   -3.1540   22.1900 C   0  0  0  0  0  0  0  0  0  0  0  0
  1  2  1  0
  2  3  2  0
  2  4  1  0
  4  5  1  0
  5  6  1  0
  6  7  1  0
  7  8  1  0
  8  9  2  0
  8 10  1  0
 10 11  1  0
 11 12  1  6
 12 13  1  0
 13 14  1  0
 13 15  1  0
 15 16  1  0
 16 17  2  0
 17 18  1  0
 18 19  2  0
 19 20  1  0
 16 21  1  0
 20 21  2  0
 11 22  1  0
 22 23  1  0
 22 24  1  0
  7 25  1  0
  4 26  1  0
 25 26  1  0
M  END
