piperidine-amides-1358-covalent
     RDKit          3D

 21 22  0  0  0  0  0  0  0  0999 V2000
    7.1790   -3.2940   19.2510 C   0  0  0  0  0  0  0  0  0  0  0  0
    6.3780   -4.0560   20.2400 C   0  0  0  0  0  0  0  0  0  0  0  0
    5.2870   -4.5350   19.8850 O   0  0  0  0  0  0  0  0  0  0  0  0
    6.9100   -4.2720   21.5260 N   0  0  0  0  0  0  0  0  0  0  0  0
    6.5470   -5.4300   22.2900 C   0  0  0  0  0  0  0  0  0  0  0  0
    5.7300   -4.9030   23.4700 C   0  0  0  0  0  0  0  0  0  0  0  0
    6.5100   -3.8180   24.1530 C   0  0  0  0  0  0  0  0  0  0  0  0
    5.7930   -3.2970   25.3370 C   0  0  0  0  0  0  0  0  0  0  0  0
    4.7560   -2.6620   25.1080 O   0  0  0  0  0  0  0  0  0  0  0  0
    6.2830   -3.5130   26.6280 N   0  0  0  0  0  0  0  0  0  0  0  0
    6.0160   -4.6220   27.4870 C   0  0  1  0  0  0  0  0  0  0  0  0
    6.2990   -4.6170   28.8230 C   0  0  0  0  0  0  0  0  0  0  0  0
    5.3400   -3.6730   29.3780 O   0  0  0  0  0  0  0  0  0  0  0  0
    4.5640   -4.9830   27.3440 C   0  0  0  0  0  0  0  0  0  0  0  0
    4.2100   -5.8360   26.3150 C   0  0  0  0  0  0  0  0  0  0  0  0
    3.6270   -5.5180   25.0040 C   0  0  0  0  0  0  0  0  0  0  0  0
    3.4830   -6.8680   24.3320 C   0  0  0  0  0  0  0  0  0  0  0  0
    3.9270   -7.8940   25.1480 O   0  0  0  0  0  0  0  0  0  0  0  0
    4.3690   -7.2050   26.3770 C   0  0  0  0  0  0  0  0  0  0  0  0
    6.7940   -2.6520   23.2020 C   0  0  0  0  0  0  0  0  0  0  0  0
    7.6440   -3.1840   22.1240 C   0  0  0  0  0  0  0  0  0  0  0  0
  1  2  1  0
  2  3  2  0
  2  4  1  0
  4  5  1  0
  5  6  1  0
  6  7  1  0
  7  8  1  0
  8  9  2  0
  8 10  1  0
 10 11  1  0
 11 12  1  1
 12 13  1  0
 11 14  1  0
 14 15  1  0
 15 16  1  0
 16 17  2  0
 17 18  1  0
 15 19  2  0
 18 19  1  0
  7 20  1  0
  4 21  1  0
 20 21  1  0
M  END
