piperidine-amides-25372-covalent
     RDKit          3D

 25 27  0  0  0  0  0  0  0  0999 V2000
    7.0740   -3.3210   19.3050 C   0  0  0  0  0  0  0  0  0  0  0  0
    6.3870   -4.1890   20.2980 C   0  0  0  0  0  0  0  0  0  0  0  0
    5.3450   -4.7310   19.9420 O   0  0  0  0  0  0  0  0  0  0  0  0
    6.9430   -4.4160   21.5600 N   0  0  0  0  0  0  0  0  0  0  0  0
    6.4810   -5.5210   22.3380 C   0  0  0  0  0  0  0  0  0  0  0  0
    5.6350   -4.9610   23.4460 C   0  0  0  0  0  0  0  0  0  0  0  0
    6.4890   -4.0160   24.2980 C   0  0  0  0  0  0  0  0  0  0  0  0
    5.6440   -3.4810   25.4020 C   0  0  0  0  0  0  0  0  0  0  0  0
    4.9090   -2.5160   25.1550 O   0  0  0  0  0  0  0  0  0  0  0  0
    5.6190   -4.0170   26.7140 N   0  0  0  0  0  0  0  0  0  0  0  0
    6.4410   -3.4210   27.6900 C   0  0  0  0  0  0  0  0  0  0  0  0
    6.7950   -4.5490   28.6480 C   0  0  0  0  0  0  0  0  0  0  0  0
    6.6530   -5.8910   28.3570 C   0  0  0  0  0  0  0  0  0  0  0  0
    5.5380   -6.4610   28.7810 C   0  0  0  0  0  0  0  0  0  0  0  0
    4.6100   -5.5770   29.1880 C   0  0  0  0  0  0  0  0  0  0  0  0
    4.4220   -4.1210   28.7770 C   0  0  0  0  0  0  0  0  0  0  0  0
    4.3580   -4.2880   27.2720 C   0  0  2  0  0  0  0  0  0  0  0  0
    3.4350   -5.4690   27.1030 C   0  0  0  0  0  0  0  0  0  0  0  0
    3.9740   -6.5390   26.2160 C   0  0  0  0  0  0  0  0  0  0  0  0
    3.0840   -7.7170   26.0220 C   0  0  0  0  0  0  0  0  0  0  0  0
    1.7370   -7.7640   26.7100 C   0  0  0  0  0  0  0  0  0  0  0  0
    1.2940   -6.6370   27.5790 C   0  0  0  0  0  0  0  0  0  0  0  0
    2.2210   -5.4480   27.7560 C   0  0  0  0  0  0  0  0  0  0  0  0
    6.9730   -2.8670   23.4450 C   0  0  0  0  0  0  0  0  0  0  0  0
    7.6490   -3.3320   22.1830 C   0  0  0  0  0  0  0  0  0  0  0  0
  1  2  1  0
  2  3  2  0
  2  4  1  0
  4  5  1  0
  5  6  1  0
  6  7  1  0
  7  8  1  0
  8  9  2  0
  8 10  1  0
 10 11  1  0
 11 12  1  0
 12 13  1  0
 13 14  1  0
 14 15  1  0
 15 16  1  0
 10 17  1  0
 16 17  1  0
 17 18  1  1
 18 19  2  0
 19 20  1  0
 20 21  2  0
 21 22  1  0
 18 23  1  0
 22 23  2  0
  7 24  1  0
  4 25  1  0
 24 25  1  0
M  END
