piperidine-amides-19422-covalent
     RDKit          3D

 22 24  0  0  0  0  0  0  0  0999 V2000
    7.1000   -3.3740   19.4950 C   0  0  0  0  0  0  0  0  0  0  0  0
    6.4420   -4.2670   20.4190 C   0  0  0  0  0  0  0  0  0  0  0  0
    5.4150   -4.8970   20.0000 O   0  0  0  0  0  0  0  0  0  0  0  0
    6.9170   -4.5020   21.7370 N   0  0  0  0  0  0  0  0  0  0  0  0
    6.3670   -5.6570   22.4560 C   0  0  0  0  0  0  0  0  0  0  0  0
    5.3960   -4.8620   23.4030 C   0  0  0  0  0  0  0  0  0  0  0  0
    6.2920   -4.0240   24.2890 C   0  0  0  0  0  0  0  0  0  0  0  0
    5.4650   -3.4580   25.5400 C   0  0  0  0  0  0  0  0  0  0  0  0
    4.5040   -2.8540   25.0840 O   0  0  0  0  0  0  0  0  0  0  0  0
    5.9450   -3.7310   26.7150 N   0  0  0  0  0  0  0  0  0  0  0  0
    6.5700   -4.2450   27.8180 C   0  0  0  0  0  0  0  0  0  0  0  0
    6.9570   -5.4520   28.3350 C   0  0  0  0  0  0  0  0  0  0  0  0
    5.9310   -5.9880   29.0880 C   0  0  0  0  0  0  0  0  0  0  0  0
    4.7180   -5.1940   28.9020 C   0  0  0  0  0  0  0  0  0  0  0  0
    3.4910   -5.8870   29.4460 C   0  0  0  0  0  0  0  0  0  0  0  0
    2.3850   -4.9420   29.1650 N   0  0  0  0  0  0  0  0  0  0  0  0
    2.8890   -3.8410   28.5390 N   0  0  0  0  0  0  0  0  0  0  0  0
    2.0210   -2.8940   28.2130 C   0  0  0  0  0  0  0  0  0  0  0  0
    4.3350   -3.9060   28.3320 C   0  0  0  0  0  0  0  0  0  0  0  0
    5.2810   -2.8890   27.6720 C   0  0  0  0  0  0  0  0  0  0  0  0
    7.0740   -3.0070   23.4890 C   0  0  0  0  0  0  0  0  0  0  0  0
    7.7620   -3.5750   22.4410 C   0  0  0  0  0  0  0  0  0  0  0  0
  1  2  1  0
  2  3  2  0
  2  4  1  0
  4  5  1  0
  5  6  1  0
  6  7  1  0
  7  8  1  0
  8  9  2  0
  8 10  1  0
 10 11  1  0
 11 12  1  0
 12 13  1  0
 13 14  1  0
 14 15  1  0
 15 16  2  0
 16 17  1  0
 17 18  1  0
 14 19  2  0
 17 19  1  0
 10 20  1  0
 19 20  1  0
  7 21  1  0
  4 22  1  0
 21 22  1  0
M  END
