piperidine-amides-15340-covalent
     RDKit          3D

 17 18  0  0  0  0  0  0  0  0999 V2000
    7.1560   -3.2310   19.1730 C   0  0  0  0  0  0  0  0  0  0  0  0
    6.3720   -3.9920   20.1550 C   0  0  0  0  0  0  0  0  0  0  0  0
    5.2680   -4.4890   19.8550 O   0  0  0  0  0  0  0  0  0  0  0  0
    6.8880   -4.2190   21.4300 N   0  0  0  0  0  0  0  0  0  0  0  0
    6.4940   -5.4210   22.1200 C   0  0  0  0  0  0  0  0  0  0  0  0
    5.5650   -4.9620   23.2360 C   0  0  0  0  0  0  0  0  0  0  0  0
    6.4640   -4.2010   24.1760 C   0  0  0  0  0  0  0  0  0  0  0  0
    5.7030   -3.8960   25.3910 C   0  0  0  0  0  0  0  0  0  0  0  0
    5.3150   -2.7240   25.5980 O   0  0  0  0  0  0  0  0  0  0  0  0
    5.4150   -4.9640   26.2780 N   0  0  0  0  0  0  0  0  0  0  0  0
    4.3310   -5.8200   25.9990 C   0  0  0  0  0  0  0  0  0  0  0  0
    4.0250   -5.4550   27.3880 C   0  0  0  0  0  0  0  0  0  0  0  0
    5.1090   -4.6330   27.6930 C   0  0  1  0  0  0  0  0  0  0  0  0
    6.0140   -5.0440   28.6300 C   0  0  0  0  0  0  0  0  0  0  0  0
    6.6440   -6.2570   28.4020 C   0  0  0  0  0  0  0  0  0  0  0  0
    7.0730   -2.9850   23.5700 C   0  0  0  0  0  0  0  0  0  0  0  0
    7.5640   -3.1720   22.1600 C   0  0  0  0  0  0  0  0  0  0  0  0
  1  2  1  0
  2  3  2  0
  2  4  1  0
  4  5  1  0
  5  6  1  0
  6  7  1  0
  7  8  1  0
  8  9  2  0
  8 10  1  0
 10 11  1  0
 11 12  1  0
 10 13  1  0
 12 13  1  0
 13 14  1  1
 14 15  1  0
  7 16  1  0
  4 17  1  0
 16 17  1  0
M  END
