piperidine-amides-24343-covalent
     RDKit          3D

 24 26  0  0  0  0  0  0  0  0999 V2000
    7.0220   -3.3560   19.3680 C   0  0  0  0  0  0  0  0  0  0  0  0
    6.3860   -4.2520   20.3440 C   0  0  0  0  0  0  0  0  0  0  0  0
    5.3790   -4.9060   19.9950 O   0  0  0  0  0  0  0  0  0  0  0  0
    6.9120   -4.4310   21.6400 N   0  0  0  0  0  0  0  0  0  0  0  0
    6.4630   -5.5690   22.3830 C   0  0  0  0  0  0  0  0  0  0  0  0
    5.4360   -5.0030   23.3660 C   0  0  0  0  0  0  0  0  0  0  0  0
    6.1530   -4.0270   24.2880 C   0  0  0  0  0  0  0  0  0  0  0  0
    5.1400   -3.3890   25.1900 C   0  0  0  0  0  0  0  0  0  0  0  0
    4.0990   -2.9560   24.6720 O   0  0  0  0  0  0  0  0  0  0  0  0
    5.3600   -3.2710   26.5880 N   0  0  0  0  0  0  0  0  0  0  0  0
    4.3270   -3.2530   27.5680 C   0  0  0  0  0  0  0  0  0  0  0  0
    4.9440   -3.6430   28.9080 C   0  0  0  0  0  0  0  0  0  0  0  0
    5.7140   -4.7590   28.9330 C   0  0  0  0  0  0  0  0  0  0  0  0
    4.9410   -5.8580   29.3420 N   0  0  0  0  0  0  0  0  0  0  0  0
    5.0300   -7.1140   28.7380 C   0  0  0  0  0  0  0  0  0  0  0  0
    3.6130   -7.1720   28.8090 C   0  0  0  0  0  0  0  0  0  0  0  0
    2.9230   -8.0760   29.5790 C   0  0  0  0  0  0  0  0  0  0  0  0
    3.0740   -7.1910   27.3750 C   0  0  0  0  0  0  0  0  0  0  0  0
    3.5430   -5.8080   29.4030 C   0  0  0  0  0  0  0  0  0  0  0  0
    2.5310   -5.1270   29.7300 O   0  0  0  0  0  0  0  0  0  0  0  0
    6.4750   -4.7670   27.8730 C   0  0  0  0  0  0  0  0  0  0  0  0
    6.5450   -3.4100   27.2810 C   0  0  0  0  0  0  0  0  0  0  0  0
    6.8660   -2.9460   23.4910 C   0  0  0  0  0  0  0  0  0  0  0  0
    7.5000   -3.3360   22.3340 C   0  0  0  0  0  0  0  0  0  0  0  0
  1  2  1  0
  2  3  2  0
  2  4  1  0
  4  5  1  0
  5  6  1  0
  6  7  1  0
  7  8  1  0
  8  9  2  0
  8 10  1  0
 10 11  1  0
 11 12  1  0
 12 13  1  0
 13 14  1  0
 14 15  1  0
 15 16  1  0
 16 17  1  0
 16 18  1  0
 14 19  1  0
 16 19  1  0
 19 20  2  0
 13 21  1  0
 10 22  1  0
 21 22  1  0
  7 23  1  0
  4 24  1  0
 23 24  1  0
M  END
