piperidine-amides-11504-covalent
     RDKit          3D

 22 23  0  0  0  0  0  0  0  0999 V2000
    7.0920   -3.3260   19.2560 C   0  0  0  0  0  0  0  0  0  0  0  0
    6.3940   -4.1270   20.2620 C   0  0  0  0  0  0  0  0  0  0  0  0
    5.3590   -4.7360   19.9520 O   0  0  0  0  0  0  0  0  0  0  0  0
    6.9110   -4.2610   21.5590 N   0  0  0  0  0  0  0  0  0  0  0  0
    7.7620   -3.2540   22.1570 C   0  0  0  0  0  0  0  0  0  0  0  0
    6.9810   -2.7100   23.3110 C   0  0  0  0  0  0  0  0  0  0  0  0
    6.5190   -3.8150   24.1960 C   0  0  0  0  0  0  0  0  0  0  0  0
    5.7920   -3.3310   25.3840 C   0  0  0  0  0  0  0  0  0  0  0  0
    4.5430   -3.1210   25.3340 O   0  0  0  0  0  0  0  0  0  0  0  0
    6.4400   -3.0800   26.6050 N   0  0  0  0  0  0  0  0  0  0  0  0
    6.4140   -1.7400   27.2280 C   0  0  0  0  0  0  0  0  0  0  0  0
    7.0180   -1.6060   28.5880 C   0  0  0  0  0  0  0  0  0  0  0  0
    7.0490   -0.3140   29.3440 C   0  0  0  0  0  0  0  0  0  0  0  0
    6.4580    0.9470   28.7500 C   0  0  0  0  0  0  0  0  0  0  0  0
    6.4340    2.3050   29.4290 C   0  0  0  0  0  0  0  0  0  0  0  0
    5.4700    2.2030   30.4620 O   0  0  0  0  0  0  0  0  0  0  0  0
    5.8840    0.6930   27.3760 C   0  0  0  0  0  0  0  0  0  0  0  0
    5.2510    1.3950   26.3810 C   0  0  0  0  0  0  0  0  0  0  0  0
    4.0250    1.6050   26.3940 O   0  0  0  0  0  0  0  0  0  0  0  0
    5.8120   -0.5510   26.5580 C   0  0  0  0  0  0  0  0  0  0  0  0
    5.6500   -4.8580   23.4800 C   0  0  0  0  0  0  0  0  0  0  0  0
    6.5100   -5.4080   22.3390 C   0  0  0  0  0  0  0  0  0  0  0  0
  1  2  1  0
  2  3  2  0
  2  4  1  0
  4  5  1  0
  5  6  1  0
  6  7  1  0
  7  8  1  0
  8  9  2  0
  8 10  1  0
 10 11  1  0
 11 12  2  0
 12 13  1  0
 13 14  2  0
 14 15  1  0
 15 16  1  0
 14 17  1  0
 17 18  1  0
 18 19  1  0
 11 20  1  0
 17 20  2  0
  7 21  1  0
  4 22  1  0
 21 22  1  0
M  END
