piperidine-amides-14625-covalent
     RDKit          3D

 25 26  0  0  0  0  0  0  0  0999 V2000
    7.0500   -3.3400   19.2930 C   0  0  0  0  0  0  0  0  0  0  0  0
    6.3910   -4.1750   20.2990 C   0  0  0  0  0  0  0  0  0  0  0  0
    5.3670   -4.7930   19.9660 O   0  0  0  0  0  0  0  0  0  0  0  0
    6.9470   -4.3040   21.5950 N   0  0  0  0  0  0  0  0  0  0  0  0
    6.5570   -5.4320   22.3910 C   0  0  0  0  0  0  0  0  0  0  0  0
    5.8140   -4.9380   23.5980 C   0  0  0  0  0  0  0  0  0  0  0  0
    6.7120   -3.9380   24.3000 C   0  0  0  0  0  0  0  0  0  0  0  0
    6.0340   -3.3610   25.4950 C   0  0  0  0  0  0  0  0  0  0  0  0
    4.8050   -3.2640   25.4500 O   0  0  0  0  0  0  0  0  0  0  0  0
    6.8500   -2.9770   26.5520 N   0  0  0  0  0  0  0  0  0  0  0  0
    6.7520   -1.6890   27.1580 C   0  0  0  0  0  0  0  0  0  0  0  0
    7.5190   -1.4610   28.3040 C   0  0  0  0  0  0  0  0  0  0  0  0
    7.5180   -0.2750   28.9950 C   0  0  0  0  0  0  0  0  0  0  0  0
    6.7580    0.8280   28.6300 C   0  0  0  0  0  0  0  0  0  0  0  0
    5.9480    0.5610   27.3990 C   0  0  0  0  0  0  0  0  0  0  0  0
    5.1920    1.6460   27.0360 O   0  0  0  0  0  0  0  0  0  0  0  0
    5.7070    2.1550   25.8420 C   0  0  0  0  0  0  0  0  0  0  0  0
    4.7380    2.3830   24.7430 C   0  0  0  0  0  0  0  0  0  0  0  0
    5.4500    3.1080   23.6370 C   0  0  0  0  0  0  0  0  0  0  0  0
    5.7430    2.3650   22.5570 N   0  0  0  0  0  0  0  0  0  0  0  0
    6.1620    2.9210   21.3080 C   0  0  0  0  0  0  0  0  0  0  0  0
    6.4340    1.1790   23.0040 C   0  0  0  0  0  0  0  0  0  0  0  0
    5.9810   -0.6440   26.7410 C   0  0  0  0  0  0  0  0  0  0  0  0
    7.1010   -2.7910   23.4310 C   0  0  0  0  0  0  0  0  0  0  0  0
    7.7470   -3.2570   22.1700 C   0  0  0  0  0  0  0  0  0  0  0  0
  1  2  1  0
  2  3  2  0
  2  4  1  0
  4  5  1  0
  5  6  1  0
  6  7  1  0
  7  8  1  0
  8  9  2  0
  8 10  1  0
 10 11  1  0
 11 12  2  0
 12 13  1  0
 13 14  2  0
 14 15  1  0
 15 16  1  0
 16 17  1  0
 17 18  1  0
 18 19  1  0
 19 20  1  0
 20 21  1  0
 20 22  1  0
 11 23  1  0
 15 23  2  0
  7 24  1  0
  4 25  1  0
 24 25  1  0
M  END
