piperidine-amides-2546-covalent
     RDKit          3D

 26 28  0  0  0  0  0  0  0  0999 V2000
    7.0600   -3.2260   19.1970 C   0  0  0  0  0  0  0  0  0  0  0  0
    6.3330   -4.0220   20.2180 C   0  0  0  0  0  0  0  0  0  0  0  0
    5.2710   -4.5390   19.8720 O   0  0  0  0  0  0  0  0  0  0  0  0
    6.8800   -4.2130   21.4870 N   0  0  0  0  0  0  0  0  0  0  0  0
    7.7360   -3.2320   22.0910 C   0  0  0  0  0  0  0  0  0  0  0  0
    7.0680   -2.7270   23.3320 C   0  0  0  0  0  0  0  0  0  0  0  0
    6.7360   -3.9050   24.2520 C   0  0  0  0  0  0  0  0  0  0  0  0
    6.0810   -3.3430   25.4360 C   0  0  0  0  0  0  0  0  0  0  0  0
    4.8830   -3.0080   25.3890 O   0  0  0  0  0  0  0  0  0  0  0  0
    6.8320   -3.1950   26.6140 N   0  0  0  0  0  0  0  0  0  0  0  0
    7.6590   -4.3000   27.0330 C   0  0  0  0  0  0  0  0  0  0  0  0
    7.2050   -4.6480   28.4220 C   0  0  0  0  0  0  0  0  0  0  0  0
    6.0080   -5.2530   28.7080 C   0  0  0  0  0  0  0  0  0  0  0  0
    6.0170   -6.3960   29.4410 C   0  0  0  0  0  0  0  0  0  0  0  0
    4.8690   -7.0830   29.7750 C   0  0  0  0  0  0  0  0  0  0  0  0
    3.4370   -6.7060   29.4100 C   0  0  0  0  0  0  0  0  0  0  0  0
    2.3430   -7.4500   29.7830 O   0  0  0  0  0  0  0  0  0  0  0  0
    1.6870   -7.1000   30.9700 C   0  0  0  0  0  0  0  0  0  0  0  0
    2.3350   -7.9680   32.0470 C   0  0  0  0  0  0  0  0  0  0  0  0
    1.1650   -8.5850   32.7500 C   0  0  0  0  0  0  0  0  0  0  0  0
   -0.0800   -8.0960   32.1290 C   0  0  0  0  0  0  0  0  0  0  0  0
    0.1910   -7.1090   31.0290 C   0  0  0  0  0  0  0  0  0  0  0  0
    3.4770   -5.4020   28.5890 C   0  0  0  0  0  0  0  0  0  0  0  0
    4.7980   -4.7530   28.2900 C   0  0  0  0  0  0  0  0  0  0  0  0
    5.8020   -4.8570   23.5410 C   0  0  0  0  0  0  0  0  0  0  0  0
    6.3930   -5.3240   22.2380 C   0  0  0  0  0  0  0  0  0  0  0  0
  1  2  1  0
  2  3  2  0
  2  4  1  0
  4  5  1  0
  5  6  1  0
  6  7  1  0
  7  8  1  0
  8  9  2  0
  8 10  1  0
 10 11  1  0
 11 12  1  0
 12 13  1  0
 13 14  2  0
 14 15  1  0
 15 16  2  0
 16 17  1  0
 17 18  1  0
 18 19  1  0
 19 20  1  0
 20 21  1  0
 18 22  1  0
 21 22  1  0
 16 23  1  0
 13 24  1  0
 23 24  2  0
  7 25  1  0
  4 26  1  0
 25 26  1  0
M  END
