piperidine-amides-8243-covalent
     RDKit          3D

 25 27  0  0  0  0  0  0  0  0999 V2000
    7.1590   -3.3030   19.2670 C   0  0  0  0  0  0  0  0  0  0  0  0
    6.3910   -4.0690   20.2400 C   0  0  0  0  0  0  0  0  0  0  0  0
    5.2960   -4.5380   19.8890 O   0  0  0  0  0  0  0  0  0  0  0  0
    6.9380   -4.3160   21.5210 N   0  0  0  0  0  0  0  0  0  0  0  0
    6.3920   -5.3980   22.2720 C   0  0  0  0  0  0  0  0  0  0  0  0
    5.5640   -4.8080   23.3740 C   0  0  0  0  0  0  0  0  0  0  0  0
    6.4890   -3.9640   24.2290 C   0  0  0  0  0  0  0  0  0  0  0  0
    5.7230   -3.4390   25.4040 C   0  0  0  0  0  0  0  0  0  0  0  0
    4.5110   -3.3060   25.2380 O   0  0  0  0  0  0  0  0  0  0  0  0
    6.4190   -3.1310   26.5710 N   0  0  0  0  0  0  0  0  0  0  0  0
    6.2490   -3.8390   27.8050 C   0  0  2  0  0  0  0  0  0  0  0  0
    5.9040   -5.2010   27.7330 C   0  0  0  0  0  0  0  0  0  0  0  0
    6.4020   -6.0170   28.7240 C   0  0  0  0  0  0  0  0  0  0  0  0
    5.1680   -3.0950   28.5440 C   0  0  0  0  0  0  0  0  0  0  0  0
    3.8270   -3.5510   28.5770 N   0  0  0  0  0  0  0  0  0  0  0  0
    3.1740   -2.6760   29.2980 N   0  0  0  0  0  0  0  0  0  0  0  0
    4.0140   -1.6370   29.7600 C   0  0  0  0  0  0  0  0  0  0  0  0
    5.2340   -1.9350   29.2710 N   0  0  0  0  0  0  0  0  0  0  0  0
    6.3600   -1.2250   29.4530 C   0  0  0  0  0  0  0  0  0  0  0  0
    6.3860    0.1330   28.8420 C   0  0  0  0  0  0  0  0  0  0  0  0
    4.9900    0.6920   28.9120 C   0  0  0  0  0  0  0  0  0  0  0  0
    4.4740    0.5500   30.3650 C   0  0  0  0  0  0  0  0  0  0  0  0
    3.5840   -0.4660   30.6180 C   0  0  0  0  0  0  0  0  0  0  0  0
    6.9650   -2.7960   23.4140 C   0  0  0  0  0  0  0  0  0  0  0  0
    7.6380   -3.2230   22.1430 C   0  0  0  0  0  0  0  0  0  0  0  0
  1  2  1  0
  2  3  2  0
  2  4  1  0
  4  5  1  0
  5  6  1  0
  6  7  1  0
  7  8  1  0
  8  9  2  0
  8 10  1  0
 10 11  1  0
 11 12  1  6
 12 13  1  0
 11 14  1  0
 14 15  2  0
 15 16  1  0
 16 17  2  0
 14 18  1  0
 17 18  1  0
 18 19  1  0
 19 20  1  0
 20 21  1  0
 21 22  1  0
 17 23  1  0
 22 23  1  0
  7 24  1  0
  4 25  1  0
 24 25  1  0
M  END
