piperidine-amides-27373-covalent
     RDKit          3D

 26 28  0  0  0  0  0  0  0  0999 V2000
    7.0370   -3.2820   19.2740 C   0  0  0  0  0  0  0  0  0  0  0  0
    6.3480   -4.1400   20.2460 C   0  0  0  0  0  0  0  0  0  0  0  0
    5.2340   -4.5850   19.8870 O   0  0  0  0  0  0  0  0  0  0  0  0
    6.9290   -4.4980   21.4680 N   0  0  0  0  0  0  0  0  0  0  0  0
    6.5130   -5.6920   22.1530 C   0  0  0  0  0  0  0  0  0  0  0  0
    5.7550   -5.2870   23.3910 C   0  0  0  0  0  0  0  0  0  0  0  0
    6.5150   -4.2820   24.2140 C   0  0  0  0  0  0  0  0  0  0  0  0
    5.6930   -3.8340   25.3560 C   0  0  0  0  0  0  0  0  0  0  0  0
    4.4500   -3.9630   25.2980 O   0  0  0  0  0  0  0  0  0  0  0  0
    6.2510   -3.2340   26.4910 N   0  0  0  0  0  0  0  0  0  0  0  0
    7.1160   -3.9970   27.3590 C   0  0  0  0  0  0  0  0  0  0  0  0
    6.3980   -1.8130   26.3670 C   0  0  0  0  0  0  0  0  0  0  0  0
    7.3340   -1.5980   25.3980 C   0  0  0  0  0  0  0  0  0  0  0  0
    7.0620   -1.0100   24.1370 C   0  0  0  0  0  0  0  0  0  0  0  0
    8.0230   -0.7690   23.1120 C   0  0  0  0  0  0  0  0  0  0  0  0
    9.3690   -1.0880   23.2550 C   0  0  0  0  0  0  0  0  0  0  0  0
   10.3820   -0.8850   22.3260 C   0  0  0  0  0  0  0  0  0  0  0  0
   11.8330   -1.2680   22.6150 C   0  0  0  0  0  0  0  0  0  0  0  0
   12.8410   -1.0960   21.7560 O   0  0  0  0  0  0  0  0  0  0  0  0
   13.2870   -2.0600   20.9330 C   0  0  0  0  0  0  0  0  0  0  0  0
   12.0190   -1.8090   23.8300 C   0  0  0  0  0  0  0  0  0  0  0  0
   10.9110   -2.0090   24.7750 C   0  0  0  0  0  0  0  0  0  0  0  0
    9.6600   -1.6460   24.4410 C   0  0  0  0  0  0  0  0  0  0  0  0
    8.6180   -1.8830   25.4580 C   0  0  0  0  0  0  0  0  0  0  0  0
    6.8470   -3.0770   23.3940 C   0  0  0  0  0  0  0  0  0  0  0  0
    7.6840   -3.5090   22.2010 C   0  0  0  0  0  0  0  0  0  0  0  0
  1  2  1  0
  2  3  2  0
  2  4  1  0
  4  5  1  0
  5  6  1  0
  6  7  1  0
  7  8  1  0
  8  9  2  0
  8 10  1  0
 10 11  1  0
 10 12  1  0
 12 13  1  0
 13 14  2  0
 14 15  1  0
 15 16  2  0
 16 17  1  0
 17 18  2  0
 18 19  1  0
 19 20  1  0
 18 21  1  0
 21 22  2  0
 16 23  1  0
 22 23  1  0
 13 24  1  0
 23 24  2  0
  7 25  1  0
  4 26  1  0
 25 26  1  0
M  END
