piperidine-amides-35104-covalent
     RDKit          3D

 32 35  0  0  0  0  0  0  0  0999 V2000
    7.0280   -3.3510   19.3680 C   0  0  0  0  0  0  0  0  0  0  0  0
    6.3810   -4.2300   20.3800 C   0  0  0  0  0  0  0  0  0  0  0  0
    5.4070   -4.8770   19.9940 O   0  0  0  0  0  0  0  0  0  0  0  0
    6.9030   -4.3320   21.6840 N   0  0  0  0  0  0  0  0  0  0  0  0
    6.7210   -5.5550   22.4450 C   0  0  0  0  0  0  0  0  0  0  0  0
    6.1520   -5.2650   23.8190 C   0  0  0  0  0  0  0  0  0  0  0  0
    6.1090   -3.7580   24.0420 C   0  0  0  0  0  0  0  0  0  0  0  0
    5.5740   -3.4530   25.3970 C   0  0  0  0  0  0  0  0  0  0  0  0
    4.4780   -2.8880   25.4570 O   0  0  0  0  0  0  0  0  0  0  0  0
    6.2210   -3.7670   26.6150 N   0  0  0  0  0  0  0  0  0  0  0  0
    5.9460   -5.0620   27.1990 C   0  0  0  0  0  0  0  0  0  0  0  0
    6.2710   -5.0120   28.6820 C   0  0  0  0  0  0  0  0  0  0  0  0
    5.4540   -3.9010   29.2200 N   0  0  0  0  0  0  0  0  0  0  0  0
    4.2960   -4.2960   30.0490 C   0  0  0  0  0  0  0  0  0  0  0  0
    3.8680   -3.0860   30.4740 C   0  0  0  0  0  0  0  0  0  0  0  0
    2.8270   -3.0640   31.2530 C   0  0  0  0  0  0  0  0  0  0  0  0
    2.0450   -4.1890   31.7370 C   0  0  0  0  0  0  0  0  0  0  0  0
    2.6020   -5.4800   31.2070 C   0  0  0  0  0  0  0  0  0  0  0  0
    3.8250   -5.7490   30.2720 C   0  0  0  0  0  0  0  0  0  0  0  0
    4.4550   -7.2000   29.6800 S   0  0  0  0  0  0  0  0  0  0  0  0
    3.5310   -7.9800   31.0070 C   0  0  0  0  0  0  0  0  0  0  0  0
    2.1440   -8.4840   30.7000 C   0  0  0  0  0  0  0  0  0  0  0  0
    1.4060   -8.4220   29.3770 C   0  0  0  0  0  0  0  0  0  0  0  0
    1.3270   -9.1540   31.8210 C   0  0  0  0  0  0  0  0  0  0  0  0
    2.0180   -9.2390   33.1490 C   0  0  0  0  0  0  0  0  0  0  0  0
    3.2750   -8.7590   33.3480 C   0  0  0  0  0  0  0  0  0  0  0  0
    4.0890   -8.1030   32.2690 C   0  0  0  0  0  0  0  0  0  0  0  0
    5.5020   -7.5810   32.5500 C   0  0  0  0  0  0  0  0  0  0  0  0
    5.1660   -2.8450   28.3030 C   0  0  0  0  0  0  0  0  0  0  0  0
    6.2940   -2.6820   27.5940 C   0  0  0  0  0  0  0  0  0  0  0  0
    7.3340   -3.0590   23.6950 C   0  0  0  0  0  0  0  0  0  0  0  0
    7.7030   -3.2970   22.2780 C   0  0  0  0  0  0  0  0  0  0  0  0
  1  2  1  0
  2  3  2  0
  2  4  1  0
  4  5  1  0
  5  6  1  0
  6  7  1  0
  7  8  1  0
  8  9  2  0
  8 10  1  0
 10 11  1  0
 11 12  1  0
 12 13  1  0
 13 14  1  0
 14 15  2  0
 15 16  1  0
 16 17  2  0
 17 18  1  0
 14 19  1  0
 18 19  2  0
 19 20  1  0
 20 21  1  0
 21 22  2  0
 22 23  1  0
 22 24  1  0
 24 25  2  0
 25 26  1  0
 21 27  1  0
 26 27  2  0
 27 28  1  0
 13 29  1  0
 10 30  1  0
 29 30  1  0
  7 31  1  0
  4 32  1  0
 31 32  1  0
M  END
