piperidine-amides-2907-covalent
     RDKit          3D

 24 26  0  0  0  0  0  0  0  0999 V2000
    7.0510   -3.3740   19.3690 C   0  0  0  0  0  0  0  0  0  0  0  0
    6.3400   -4.1710   20.3560 C   0  0  0  0  0  0  0  0  0  0  0  0
    5.3730   -4.8400   19.9910 O   0  0  0  0  0  0  0  0  0  0  0  0
    6.7870   -4.2230   21.7290 N   0  0  0  0  0  0  0  0  0  0  0  0
    7.6700   -3.1850   22.2340 C   0  0  0  0  0  0  0  0  0  0  0  0
    7.4020   -2.9190   23.6900 C   0  0  0  0  0  0  0  0  0  0  0  0
    6.1030   -3.6200   24.0080 C   0  0  0  0  0  0  0  0  0  0  0  0
    5.5740   -3.2280   25.3560 C   0  0  0  0  0  0  0  0  0  0  0  0
    4.3520   -3.2100   25.5790 O   0  0  0  0  0  0  0  0  0  0  0  0
    6.4510   -2.8630   26.4160 N   0  0  0  0  0  0  0  0  0  0  0  0
    6.5390   -1.4670   26.8280 C   0  0  2  0  0  0  0  0  0  0  0  0
    7.0670   -1.4890   28.2430 C   0  0  0  0  0  0  0  0  0  0  0  0
    6.5730   -0.5710   29.1340 C   0  0  0  0  0  0  0  0  0  0  0  0
    5.9990    0.6130   28.6700 C   0  0  1  0  0  0  0  0  0  0  0  0
    6.5030    1.7970   29.1840 C   0  0  0  0  0  0  0  0  0  0  0  0
    7.0480    2.8250   28.4090 N   0  0  0  0  0  0  0  0  0  0  0  0
    7.4140    3.7670   29.3710 C   0  0  0  0  0  0  0  0  0  0  0  0
    8.0060    4.9450   28.9770 C   0  0  0  0  0  0  0  0  0  0  0  0
    7.0820    3.2820   30.6000 N   0  0  0  0  0  0  0  0  0  0  0  0
    6.5220    2.0550   30.4130 O   0  0  0  0  0  0  0  0  0  0  0  0
    5.7810    0.6550   27.3050 C   0  0  0  0  0  0  0  0  0  0  0  0
    5.5540   -0.5550   26.6220 C   0  0  0  0  0  0  0  0  0  0  0  0
    6.1130   -5.0580   23.7870 C   0  0  0  0  0  0  0  0  0  0  0  0
    6.6100   -5.4100   22.5330 C   0  0  0  0  0  0  0  0  0  0  0  0
  1  2  1  0
  2  3  2  0
  2  4  1  0
  4  5  1  0
  5  6  1  0
  6  7  1  0
  7  8  1  0
  8  9  2  0
  8 10  1  0
 11 10  1  1
 11 12  1  0
 12 13  1  0
 13 14  1  0
 14 15  1  6
 15 16  2  0
 16 17  1  0
 17 18  1  0
 17 19  2  0
 15 20  1  0
 19 20  1  0
 14 21  1  0
 11 22  1  0
 21 22  1  0
  7 23  1  0
  4 24  1  0
 23 24  1  0
M  END
