piperidine-amides-12435-covalent
     RDKit          3D

 24 26  0  0  0  0  0  0  0  0999 V2000
    7.1050   -3.3250   19.3020 C   0  0  0  0  0  0  0  0  0  0  0  0
    6.3390   -4.0780   20.2820 C   0  0  0  0  0  0  0  0  0  0  0  0
    5.3000   -4.6270   19.9250 O   0  0  0  0  0  0  0  0  0  0  0  0
    6.8190   -4.2340   21.6360 N   0  0  0  0  0  0  0  0  0  0  0  0
    6.5030   -5.4150   22.3810 C   0  0  0  0  0  0  0  0  0  0  0  0
    5.7800   -5.0440   23.6500 C   0  0  0  0  0  0  0  0  0  0  0  0
    6.4110   -3.8050   24.2890 C   0  0  0  0  0  0  0  0  0  0  0  0
    5.4840   -3.3100   25.3590 C   0  0  0  0  0  0  0  0  0  0  0  0
    4.3300   -2.9420   25.0830 O   0  0  0  0  0  0  0  0  0  0  0  0
    5.8890   -3.2540   26.7250 N   0  0  0  0  0  0  0  0  0  0  0  0
    6.0890   -4.4850   27.4600 C   0  0  0  0  0  0  0  0  0  0  0  0
    4.9660   -4.8160   28.4110 C   0  0  0  0  0  0  0  0  0  0  0  0
    3.7250   -4.1640   28.4010 C   0  0  0  0  0  0  0  0  0  0  0  0
    2.7470   -4.9010   29.7070 S   0  0  0  0  0  0  0  0  0  0  0  0
    3.9820   -6.0030   30.1960 C   0  0  0  0  0  0  0  0  0  0  0  0
    3.8730   -6.9140   31.2290 C   0  0  0  0  0  0  0  0  0  0  0  0
    5.0330   -7.3470   31.9920 C   0  0  0  0  0  0  0  0  0  0  0  0
    4.9530   -8.2420   33.0200 C   0  0  0  0  0  0  0  0  0  0  0  0
    3.7260   -8.7680   33.3570 C   0  0  0  0  0  0  0  0  0  0  0  0
    2.5540   -8.4140   32.6790 C   0  0  0  0  0  0  0  0  0  0  0  0
    2.6380   -7.4450   31.5710 C   0  0  0  0  0  0  0  0  0  0  0  0
    5.1020   -5.7990   29.3620 N   0  0  0  0  0  0  0  0  0  0  0  0
    6.7280   -2.6840   23.3010 C   0  0  0  0  0  0  0  0  0  0  0  0
    7.5580   -3.2050   22.3130 C   0  0  0  0  0  0  0  0  0  0  0  0
  1  2  1  0
  2  3  2  0
  2  4  1  0
  4  5  1  0
  5  6  1  0
  6  7  1  0
  7  8  1  0
  8  9  2  0
  8 10  1  0
 10 11  1  0
 11 12  1  0
 12 13  2  0
 13 14  1  0
 14 15  1  0
 15 16  1  0
 16 17  2  0
 17 18  1  0
 18 19  2  0
 19 20  1  0
 16 21  1  0
 20 21  2  0
 12 22  1  0
 15 22  2  0
  7 23  1  0
  4 24  1  0
 23 24  1  0
M  END
