piperidine-amides-2846-covalent
     RDKit          3D

 24 25  0  0  0  0  0  0  0  0999 V2000
    7.1320   -3.2990   19.2080 C   0  0  0  0  0  0  0  0  0  0  0  0
    6.3170   -4.0090   20.1810 C   0  0  0  0  0  0  0  0  0  0  0  0
    5.2350   -4.4810   19.8540 O   0  0  0  0  0  0  0  0  0  0  0  0
    6.8140   -4.2150   21.5080 N   0  0  0  0  0  0  0  0  0  0  0  0
    7.5930   -3.1840   22.1480 C   0  0  0  0  0  0  0  0  0  0  0  0
    6.8670   -2.6650   23.3550 C   0  0  0  0  0  0  0  0  0  0  0  0
    6.5020   -3.8540   24.2240 C   0  0  0  0  0  0  0  0  0  0  0  0
    5.7780   -3.3810   25.4310 C   0  0  0  0  0  0  0  0  0  0  0  0
    4.5390   -3.2560   25.4570 O   0  0  0  0  0  0  0  0  0  0  0  0
    6.5390   -3.0500   26.5800 N   0  0  0  0  0  0  0  0  0  0  0  0
    6.2400   -3.6240   27.8820 C   0  0  2  0  0  0  0  0  0  0  0  0
    6.3070   -5.1360   27.8620 C   0  0  0  0  0  0  0  0  0  0  0  0
    5.2570   -5.6670   28.5850 O   0  0  0  0  0  0  0  0  0  0  0  0
    4.8920   -3.1770   28.3330 C   0  0  0  0  0  0  0  0  0  0  0  0
    4.8130   -1.9440   29.0410 C   0  0  0  0  0  0  0  0  0  0  0  0
    3.6010   -1.4430   29.5050 C   0  0  0  0  0  0  0  0  0  0  0  0
    2.4130   -2.2200   29.2450 C   0  0  0  0  0  0  0  0  0  0  0  0
    2.4910   -3.3870   28.5740 C   0  0  0  0  0  0  0  0  0  0  0  0
    1.3420   -4.0670   28.3640 N   0  0  0  0  0  0  0  0  0  0  0  0
    0.9850   -4.3620   27.0750 O   0  0  0  0  0  0  0  0  0  0  0  0
    0.4420   -4.2530   29.3850 O   0  0  0  0  0  0  0  0  0  0  0  0
    3.6960   -3.8730   28.1170 C   0  0  0  0  0  0  0  0  0  0  0  0
    5.8130   -4.9810   23.5440 C   0  0  0  0  0  0  0  0  0  0  0  0
    6.3440   -5.3330   22.2320 C   0  0  0  0  0  0  0  0  0  0  0  0
  1  2  1  0
  2  3  2  0
  2  4  1  0
  4  5  1  0
  5  6  1  0
  6  7  1  0
  7  8  1  0
  8  9  2  0
  8 10  1  0
 10 11  1  0
 11 12  1  6
 12 13  1  0
 11 14  1  0
 14 15  2  0
 15 16  1  0
 16 17  2  0
 17 18  1  0
 18 19  1  0
 19 20  2  0
 19 21  1  0
 14 22  1  0
 18 22  2  0
  7 23  1  0
  4 24  1  0
 23 24  1  0
M  CHG  2  19   1  21  -1
M  END
