piperidine-amides-10435-covalent
     RDKit          3D

 24 26  0  0  0  0  0  0  0  0999 V2000
    7.0760   -3.3400   19.3050 C   0  0  0  0  0  0  0  0  0  0  0  0
    6.4050   -4.1680   20.3100 C   0  0  0  0  0  0  0  0  0  0  0  0
    5.3440   -4.7430   19.9500 O   0  0  0  0  0  0  0  0  0  0  0  0
    6.9670   -4.3370   21.5750 N   0  0  0  0  0  0  0  0  0  0  0  0
    7.7690   -3.3060   22.1960 C   0  0  0  0  0  0  0  0  0  0  0  0
    7.0020   -2.7690   23.3590 C   0  0  0  0  0  0  0  0  0  0  0  0
    6.4970   -3.8750   24.2330 C   0  0  0  0  0  0  0  0  0  0  0  0
    5.7800   -3.3090   25.3920 C   0  0  0  0  0  0  0  0  0  0  0  0
    4.5470   -3.1210   25.2910 O   0  0  0  0  0  0  0  0  0  0  0  0
    6.4230   -2.9770   26.5950 N   0  0  0  0  0  0  0  0  0  0  0  0
    6.3910   -1.6450   27.1590 C   0  0  0  0  0  0  0  0  0  0  0  0
    6.9900   -1.5740   28.5470 C   0  0  0  0  0  0  0  0  0  0  0  0
    7.0330   -0.4020   29.2300 C   0  0  0  0  0  0  0  0  0  0  0  0
    6.5170    0.7130   28.6180 C   0  0  0  0  0  0  0  0  0  0  0  0
    5.9530    0.7380   27.3460 C   0  0  0  0  0  0  0  0  0  0  0  0
    5.8860   -0.4450   26.6010 C   0  0  0  0  0  0  0  0  0  0  0  0
    5.3300   -0.4410   25.3340 C   0  0  0  0  0  0  0  0  0  0  0  0
    5.4240    0.8410   24.9270 N   0  0  0  0  0  0  0  0  0  0  0  0
    4.3340    1.4610   24.5060 C   0  0  0  0  0  0  0  0  0  0  0  0
    4.6250    2.7850   24.1210 N   0  0  0  0  0  0  0  0  0  0  0  0
    5.9530    2.8780   24.3520 C   0  0  0  0  0  0  0  0  0  0  0  0
    6.4650    1.6910   24.8470 N   0  0  0  0  0  0  0  0  0  0  0  0
    5.6350   -4.8820   23.4550 C   0  0  0  0  0  0  0  0  0  0  0  0
    6.5550   -5.4630   22.3980 C   0  0  0  0  0  0  0  0  0  0  0  0
  1  2  1  0
  2  3  2  0
  2  4  1  0
  4  5  1  0
  5  6  1  0
  6  7  1  0
  7  8  1  0
  8  9  2  0
  8 10  1  0
 10 11  1  0
 11 12  2  0
 12 13  1  0
 13 14  2  0
 14 15  1  0
 11 16  1  0
 15 16  2  0
 16 17  1  0
 17 18  1  0
 18 19  1  0
 19 20  2  0
 20 21  1  0
 18 22  1  0
 21 22  2  0
  7 23  1  0
  4 24  1  0
 23 24  1  0
M  END
