piperidine-amides-14869-covalent
     RDKit          3D

 22 23  0  0  0  0  0  0  0  0999 V2000
    7.0890   -3.3400   19.3330 C   0  0  0  0  0  0  0  0  0  0  0  0
    6.4210   -4.1980   20.3060 C   0  0  0  0  0  0  0  0  0  0  0  0
    5.3720   -4.7710   19.9650 O   0  0  0  0  0  0  0  0  0  0  0  0
    7.0050   -4.4060   21.5810 N   0  0  0  0  0  0  0  0  0  0  0  0
    7.6700   -3.3040   22.2090 C   0  0  0  0  0  0  0  0  0  0  0  0
    6.7520   -2.7120   23.2320 C   0  0  0  0  0  0  0  0  0  0  0  0
    6.5160   -3.7800   24.2760 C   0  0  0  0  0  0  0  0  0  0  0  0
    5.7470   -3.1930   25.4190 C   0  0  0  0  0  0  0  0  0  0  0  0
    4.5300   -3.0990   25.2610 O   0  0  0  0  0  0  0  0  0  0  0  0
    6.4480   -2.8060   26.5540 N   0  0  0  0  0  0  0  0  0  0  0  0
    6.0870   -1.6810   27.3580 C   0  0  0  0  0  0  0  0  0  0  0  0
    5.8930   -0.4610   26.6780 C   0  0  0  0  0  0  0  0  0  0  0  0
    5.7360    0.6970   27.4300 C   0  0  0  0  0  0  0  0  0  0  0  0
    5.8840    0.5710   28.8460 N   0  0  0  0  0  0  0  0  0  0  0  0
    4.6460    0.5520   29.5360 C   0  0  0  0  0  0  0  0  0  0  0  0
    4.7160    0.6280   31.0330 C   0  0  0  0  0  0  0  0  0  0  0  0
    3.9500   -0.3100   31.6110 N   0  0  0  0  0  0  0  0  0  0  0  0
    5.5330    1.6240   31.5090 O   0  0  0  0  0  0  0  0  0  0  0  0
    6.6060   -0.4480   29.3050 C   0  0  0  0  0  0  0  0  0  0  0  0
    7.0790   -1.4610   28.3480 C   0  0  0  0  0  0  0  0  0  0  0  0
    5.8620   -4.9790   23.6870 C   0  0  0  0  0  0  0  0  0  0  0  0
    6.4720   -5.4840   22.3630 C   0  0  0  0  0  0  0  0  0  0  0  0
  1  2  1  0
  2  3  2  0
  2  4  1  0
  4  5  1  0
  5  6  1  0
  6  7  1  0
  7  8  1  0
  8  9  2  0
  8 10  1  0
 10 11  1  0
 11 12  1  0
 12 13  1  0
 13 14  1  0
 14 15  1  0
 15 16  1  0
 16 17  1  0
 16 18  2  0
 14 19  1  0
 11 20  1  0
 19 20  1  0
  7 21  1  0
  4 22  1  0
 21 22  1  0
M  END
