piperidine-amides-27146-covalent
     RDKit          3D

 25 26  0  0  0  0  0  0  0  0999 V2000
    7.0760   -3.3650   19.3200 C   0  0  0  0  0  0  0  0  0  0  0  0
    6.3790   -4.1730   20.3200 C   0  0  0  0  0  0  0  0  0  0  0  0
    5.3150   -4.7310   19.9470 O   0  0  0  0  0  0  0  0  0  0  0  0
    6.9230   -4.3420   21.5920 N   0  0  0  0  0  0  0  0  0  0  0  0
    6.6400   -5.5170   22.3810 C   0  0  0  0  0  0  0  0  0  0  0  0
    5.9850   -5.0820   23.6660 C   0  0  0  0  0  0  0  0  0  0  0  0
    6.7620   -3.9950   24.3730 C   0  0  0  0  0  0  0  0  0  0  0  0
    6.0350   -3.5880   25.6010 C   0  0  0  0  0  0  0  0  0  0  0  0
    4.8970   -3.0960   25.4290 O   0  0  0  0  0  0  0  0  0  0  0  0
    6.5360   -3.7460   26.9300 N   0  0  0  0  0  0  0  0  0  0  0  0
    7.0390   -5.0680   27.2950 C   0  0  0  0  0  0  0  0  0  0  0  0
    7.7230   -5.6980   26.1180 C   0  0  0  0  0  0  0  0  0  0  0  0
    7.8310   -5.2840   28.5170 C   0  0  0  0  0  0  0  0  0  0  0  0
    5.8550   -5.7890   27.7890 C   0  0  0  0  0  0  0  0  0  0  0  0
    5.6570   -5.2710   29.0600 C   0  0  0  0  0  0  0  0  0  0  0  0
    5.0180   -6.0610   29.9970 C   0  0  0  0  0  0  0  0  0  0  0  0
    3.7460   -6.6160   29.7830 O   0  0  0  0  0  0  0  0  0  0  0  0
    5.5700   -6.3050   31.1050 O   0  0  0  0  0  0  0  0  0  0  0  0
    5.5690   -7.6180   31.6080 C   0  0  0  0  0  0  0  0  0  0  0  0
    5.2420   -3.9630   29.0150 C   0  0  0  0  0  0  0  0  0  0  0  0
    5.9210   -3.0290   28.0130 C   0  0  0  0  0  0  0  0  0  0  0  0
    4.9650   -2.0390   27.3900 C   0  0  0  0  0  0  0  0  0  0  0  0
    6.8890   -1.9830   28.6960 C   0  0  0  0  0  0  0  0  0  0  0  0
    6.9550   -2.8170   23.4900 C   0  0  0  0  0  0  0  0  0  0  0  0
    7.6230   -3.2430   22.2070 C   0  0  0  0  0  0  0  0  0  0  0  0
  1  2  1  0
  2  3  2  0
  2  4  1  0
  4  5  1  0
  5  6  1  0
  6  7  1  0
  7  8  1  0
  8  9  2  0
  8 10  1  0
 10 11  1  0
 11 12  1  0
 11 13  1  0
 11 14  1  0
 14 15  1  0
 15 16  1  0
 16 17  2  0
 16 18  1  0
 18 19  1  0
 15 20  1  0
 10 21  1  0
 20 21  1  0
 21 22  1  0
 21 23  1  0
  7 24  1  0
  4 25  1  0
 24 25  1  0
M  END
