piperidine-amides-34254-covalent
     RDKit          3D

 26 27  0  0  0  0  0  0  0  0999 V2000
    7.1630   -3.2530   19.2280 C   0  0  0  0  0  0  0  0  0  0  0  0
    6.3950   -4.0370   20.2130 C   0  0  0  0  0  0  0  0  0  0  0  0
    5.3100   -4.5700   19.8970 O   0  0  0  0  0  0  0  0  0  0  0  0
    6.9020   -4.2380   21.4970 N   0  0  0  0  0  0  0  0  0  0  0  0
    7.7750   -3.2400   22.0790 C   0  0  0  0  0  0  0  0  0  0  0  0
    6.9870   -2.6070   23.2050 C   0  0  0  0  0  0  0  0  0  0  0  0
    6.7520   -3.7390   24.1660 C   0  0  0  0  0  0  0  0  0  0  0  0
    6.1800   -3.1950   25.3950 C   0  0  0  0  0  0  0  0  0  0  0  0
    4.9350   -3.1350   25.5400 O   0  0  0  0  0  0  0  0  0  0  0  0
    7.1150   -2.7650   26.3610 N   0  0  0  0  0  0  0  0  0  0  0  0
    7.5990   -3.6720   27.3530 C   0  0  0  0  0  0  0  0  0  0  0  0
    6.5610   -4.7380   27.6170 C   0  0  0  0  0  0  0  0  0  0  0  0
    6.9630   -5.7540   28.4090 C   0  0  0  0  0  0  0  0  0  0  0  0
    8.1600   -6.0820   28.5920 O   0  0  0  0  0  0  0  0  0  0  0  0
    6.0200   -6.4470   29.0270 O   0  0  0  0  0  0  0  0  0  0  0  0
    5.5880   -7.6390   29.3740 C   0  0  0  0  0  0  0  0  0  0  0  0
    7.3370   -1.6090   27.2300 C   0  0  0  0  0  0  0  0  0  0  0  0
    7.5560   -0.6600   26.2440 C   0  0  0  0  0  0  0  0  0  0  0  0
    6.4450    0.2650   25.7910 C   0  0  0  0  0  0  0  0  0  0  0  0
    7.1640    1.0990   24.7210 C   0  0  0  0  0  0  0  0  0  0  0  0
    8.5220    1.2430   24.0590 C   0  0  0  0  0  0  0  0  0  0  0  0
    9.2840    0.2130   24.7470 C   0  0  0  0  0  0  0  0  0  0  0  0
   11.1030    0.1170   24.1140 Br  0  0  0  0  0  0  0  0  0  0  0  0
    8.8610   -0.6530   25.7410 C   0  0  0  0  0  0  0  0  0  0  0  0
    5.7710   -4.7230   23.5330 C   0  0  0  0  0  0  0  0  0  0  0  0
    6.4190   -5.3280   22.3130 C   0  0  0  0  0  0  0  0  0  0  0  0
  1  2  1  0
  2  3  2  0
  2  4  1  0
  4  5  1  0
  5  6  1  0
  6  7  1  0
  7  8  1  0
  8  9  2  0
  8 10  1  0
 10 11  1  0
 11 12  1  0
 12 13  1  0
 13 14  2  0
 13 15  1  0
 15 16  1  0
 10 17  1  0
 17 18  1  0
 18 19  2  0
 19 20  1  0
 20 21  2  0
 21 22  1  0
 22 23  1  0
 18 24  1  0
 22 24  2  0
  7 25  1  0
  4 26  1  0
 25 26  1  0
M  END
