piperidine-amides-12638-covalent
     RDKit          3D

 22 24  0  0  0  0  0  0  0  0999 V2000
    7.0390   -3.3480   19.3390 C   0  0  0  0  0  0  0  0  0  0  0  0
    6.3810   -4.1800   20.3700 C   0  0  0  0  0  0  0  0  0  0  0  0
    5.3820   -4.8270   19.9840 O   0  0  0  0  0  0  0  0  0  0  0  0
    6.8780   -4.2810   21.6890 N   0  0  0  0  0  0  0  0  0  0  0  0
    7.6550   -3.2220   22.2630 C   0  0  0  0  0  0  0  0  0  0  0  0
    7.3510   -2.9970   23.6740 C   0  0  0  0  0  0  0  0  0  0  0  0
    6.1160   -3.6880   24.0800 C   0  0  0  0  0  0  0  0  0  0  0  0
    5.7290   -3.4720   25.5070 C   0  0  0  0  0  0  0  0  0  0  0  0
    4.6080   -3.8940   25.8390 O   0  0  0  0  0  0  0  0  0  0  0  0
    6.5270   -2.7970   26.4680 N   0  0  0  0  0  0  0  0  0  0  0  0
    6.5720   -1.3190   26.4270 C   0  0  0  0  0  0  0  0  0  0  0  0
    6.2890    0.1040   26.9140 C   0  0  0  0  0  0  0  0  0  0  0  0
    5.5810    0.4520   28.0880 N   0  0  0  0  0  0  0  0  0  0  0  0
    5.3130   -0.6870   28.5230 N   0  0  0  0  0  0  0  0  0  0  0  0
    4.5850   -0.9480   29.7010 C   0  0  0  0  0  0  0  0  0  0  0  0
    4.3800   -2.2450   30.0090 C   0  0  0  0  0  0  0  0  0  0  0  0
    3.3700   -2.6760   31.5810 Br  0  0  0  0  0  0  0  0  0  0  0  0
    4.8850   -3.2380   29.1970 C   0  0  0  0  0  0  0  0  0  0  0  0
    5.5980   -3.0150   28.0400 N   0  0  0  0  0  0  0  0  0  0  0  0
    5.8400   -1.7260   27.6510 C   0  0  0  0  0  0  0  0  0  0  0  0
    5.9900   -5.1330   23.6710 C   0  0  0  0  0  0  0  0  0  0  0  0
    6.6930   -5.4380   22.5270 C   0  0  0  0  0  0  0  0  0  0  0  0
  1  2  1  0
  2  3  2  0
  2  4  1  0
  4  5  1  0
  5  6  1  0
  6  7  1  0
  7  8  1  0
  8  9  2  0
  8 10  1  0
 10 11  1  0
 11 12  1  0
 12 13  2  0
 13 14  1  0
 14 15  1  0
 15 16  2  0
 16 17  1  0
 16 18  1  0
 18 19  2  0
 11 20  2  0
 14 20  1  0
 19 20  1  0
  7 21  1  0
  4 22  1  0
 21 22  1  0
M  END
