piperidine-amides-22358-covalent
     RDKit          3D

 22 23  0  0  0  0  0  0  0  0999 V2000
    7.1160   -3.2840   19.2120 C   0  0  0  0  0  0  0  0  0  0  0  0
    6.3940   -4.0780   20.2200 C   0  0  0  0  0  0  0  0  0  0  0  0
    5.3220   -4.6460   19.9220 O   0  0  0  0  0  0  0  0  0  0  0  0
    6.9260   -4.2610   21.4990 N   0  0  0  0  0  0  0  0  0  0  0  0
    7.7200   -3.2190   22.1140 C   0  0  0  0  0  0  0  0  0  0  0  0
    6.9010   -2.7050   23.2890 C   0  0  0  0  0  0  0  0  0  0  0  0
    6.5060   -3.9220   24.0920 C   0  0  0  0  0  0  0  0  0  0  0  0
    5.7100   -3.4970   25.2440 C   0  0  0  0  0  0  0  0  0  0  0  0
    4.4740   -3.3730   25.1080 O   0  0  0  0  0  0  0  0  0  0  0  0
    6.3430   -3.2260   26.4630 N   0  0  0  0  0  0  0  0  0  0  0  0
    6.5320   -1.8430   26.7900 C   0  0  0  0  0  0  0  0  0  0  0  0
    5.2620   -1.3350   27.4310 C   0  0  0  0  0  0  0  0  0  0  0  0
    5.9840   -4.0790   27.5690 C   0  0  2  0  0  0  0  0  0  0  0  0
    6.7030   -3.8200   28.6890 C   0  0  0  0  0  0  0  0  0  0  0  0
    5.7050   -5.3620   27.1670 C   0  0  0  0  0  0  0  0  0  0  0  0
    5.4020   -6.2470   28.1660 C   0  0  0  0  0  0  0  0  0  0  0  0
    4.0610   -7.0140   28.2370 C   0  0  0  0  0  0  0  0  0  0  0  0
    4.3280   -7.7950   29.5260 C   0  0  0  0  0  0  0  0  0  0  0  0
    5.8290   -7.5200   30.2580 S   0  0  0  0  0  0  0  0  0  0  0  0
    6.3480   -6.4280   29.1180 C   0  0  0  0  0  0  0  0  0  0  0  0
    5.6850   -4.8930   23.2710 C   0  0  0  0  0  0  0  0  0  0  0  0
    6.5530   -5.3950   22.2990 C   0  0  0  0  0  0  0  0  0  0  0  0
  1  2  1  0
  2  3  2  0
  2  4  1  0
  4  5  1  0
  5  6  1  0
  6  7  1  0
  7  8  1  0
  8  9  2  0
  8 10  1  0
 10 11  1  0
 11 12  1  0
 10 13  1  0
 13 14  1  1
 13 15  1  0
 15 16  1  0
 16 17  1  0
 17 18  2  0
 18 19  1  0
 16 20  2  0
 19 20  1  0
  7 21  1  0
  4 22  1  0
 21 22  1  0
M  END
