piperidine-amides-23862-covalent
     RDKit          3D

 24 25  0  0  0  0  0  0  0  0999 V2000
    7.1250   -3.2930   19.2340 C   0  0  0  0  0  0  0  0  0  0  0  0
    6.3450   -4.0270   20.2470 C   0  0  0  0  0  0  0  0  0  0  0  0
    5.2690   -4.5500   19.8780 O   0  0  0  0  0  0  0  0  0  0  0  0
    6.8220   -4.1690   21.5680 N   0  0  0  0  0  0  0  0  0  0  0  0
    7.6040   -3.1230   22.1230 C   0  0  0  0  0  0  0  0  0  0  0  0
    7.4470   -2.9290   23.5570 C   0  0  0  0  0  0  0  0  0  0  0  0
    6.7160   -3.9940   24.2840 C   0  0  0  0  0  0  0  0  0  0  0  0
    5.9990   -3.3830   25.4520 C   0  0  0  0  0  0  0  0  0  0  0  0
    4.7540   -3.2560   25.4110 O   0  0  0  0  0  0  0  0  0  0  0  0
    6.7070   -2.9380   26.5900 N   0  0  0  0  0  0  0  0  0  0  0  0
    7.2510   -1.6580   26.7970 C   0  0  0  0  0  0  0  0  0  0  0  0
    7.3140   -3.9430   27.4310 C   0  0  2  0  0  0  0  0  0  0  0  0
    8.1820   -5.0320   26.7840 C   0  0  0  0  0  0  0  0  0  0  0  0
    8.8250   -5.8230   27.6920 C   0  0  0  0  0  0  0  0  0  0  0  0
    6.2410   -4.8310   28.1770 C   0  0  0  0  0  0  0  0  0  0  0  0
    6.0640   -6.2530   27.7340 C   0  0  0  0  0  0  0  0  0  0  0  0
    4.9700   -6.9120   28.6080 C   0  0  0  0  0  0  0  0  0  0  0  0
    4.1490   -6.3390   29.7320 C   0  0  0  0  0  0  0  0  0  0  0  0
    4.4180   -4.9070   30.0770 C   0  0  0  0  0  0  0  0  0  0  0  0
    5.4800   -4.1550   29.2860 C   0  0  0  0  0  0  0  0  0  0  0  0
    5.6790   -2.9370   29.6200 O   0  0  0  0  0  0  0  0  0  0  0  0
    4.5760   -2.1230   29.9160 C   0  0  0  0  0  0  0  0  0  0  0  0
    5.7700   -4.8070   23.4490 C   0  0  0  0  0  0  0  0  0  0  0  0
    6.4740   -5.3030   22.3680 C   0  0  0  0  0  0  0  0  0  0  0  0
  1  2  1  0
  2  3  2  0
  2  4  1  0
  4  5  1  0
  5  6  1  0
  6  7  1  0
  7  8  1  0
  8  9  2  0
  8 10  1  0
 10 11  1  0
 10 12  1  0
 12 13  1  6
 13 14  1  0
 12 15  1  0
 15 16  2  0
 16 17  1  0
 17 18  2  0
 18 19  1  0
 15 20  1  0
 19 20  2  0
 20 21  1  0
 21 22  1  0
  7 23  1  0
  4 24  1  0
 23 24  1  0
M  END
