piperidine-amides-21649-covalent
     RDKit          3D

 23 25  0  0  0  0  0  0  0  0999 V2000
    7.0760   -3.3280   19.3290 C   0  0  0  0  0  0  0  0  0  0  0  0
    6.3360   -4.0970   20.3370 C   0  0  0  0  0  0  0  0  0  0  0  0
    5.3040   -4.6900   19.9330 O   0  0  0  0  0  0  0  0  0  0  0  0
    6.8000   -4.1890   21.6560 N   0  0  0  0  0  0  0  0  0  0  0  0
    7.7260   -3.2250   22.2110 C   0  0  0  0  0  0  0  0  0  0  0  0
    7.3850   -3.0680   23.6570 C   0  0  0  0  0  0  0  0  0  0  0  0
    6.0610   -3.7220   23.9270 C   0  0  0  0  0  0  0  0  0  0  0  0
    5.5300   -3.3740   25.2630 C   0  0  0  0  0  0  0  0  0  0  0  0
    4.8170   -4.2160   25.8380 O   0  0  0  0  0  0  0  0  0  0  0  0
    5.7420   -2.1540   25.9190 N   0  0  0  0  0  0  0  0  0  0  0  0
    6.9490   -1.8970   26.5660 C   0  0  0  0  0  0  0  0  0  0  0  0
    6.8170   -0.6340   27.4360 C   0  0  0  0  0  0  0  0  0  0  0  0
    6.4200    0.6810   27.1380 C   0  0  0  0  0  0  0  0  0  0  0  0
    6.4490    1.4800   28.2270 N   0  0  0  0  0  0  0  0  0  0  0  0
    6.8420    0.8070   29.2670 N   0  0  0  0  0  0  0  0  0  0  0  0
    7.0070    1.2400   30.5370 C   0  0  0  0  0  0  0  0  0  0  0  0
    7.0740   -0.4990   28.7950 C   0  0  0  0  0  0  0  0  0  0  0  0
    7.5020   -1.4760   29.6320 C   0  0  0  0  0  0  0  0  0  0  0  0
    4.7450   -1.6020   26.7150 C   0  0  0  0  0  0  0  0  0  0  0  0
    5.1040   -1.3160   27.9950 C   0  0  0  0  0  0  0  0  0  0  0  0
    4.7290   -0.2230   26.8410 C   0  0  0  0  0  0  0  0  0  0  0  0
    6.1390   -5.2440   23.7440 C   0  0  0  0  0  0  0  0  0  0  0  0
    6.6900   -5.4790   22.3380 C   0  0  0  0  0  0  0  0  0  0  0  0
  1  2  1  0
  2  3  2  0
  2  4  1  0
  4  5  1  0
  5  6  1  0
  6  7  1  0
  7  8  1  0
  8  9  2  0
  8 10  1  0
 10 11  1  0
 11 12  1  0
 12 13  1  0
 13 14  2  0
 14 15  1  0
 15 16  1  0
 12 17  2  0
 15 17  1  0
 17 18  1  0
 10 19  1  0
 19 20  1  0
 19 21  1  0
 20 21  1  0
  7 22  1  0
  4 23  1  0
 22 23  1  0
M  END
