piperidine-amides-11762-covalent
     RDKit          3D

 28 30  0  0  0  0  0  0  0  0999 V2000
    7.0290   -3.3520   19.3210 C   0  0  0  0  0  0  0  0  0  0  0  0
    6.3410   -4.1730   20.3130 C   0  0  0  0  0  0  0  0  0  0  0  0
    5.3610   -4.8350   19.9770 O   0  0  0  0  0  0  0  0  0  0  0  0
    6.8210   -4.2510   21.6640 N   0  0  0  0  0  0  0  0  0  0  0  0
    7.7090   -3.2290   22.1740 C   0  0  0  0  0  0  0  0  0  0  0  0
    7.4120   -2.9430   23.6120 C   0  0  0  0  0  0  0  0  0  0  0  0
    6.0520   -3.5360   23.9160 C   0  0  0  0  0  0  0  0  0  0  0  0
    5.6330   -3.1990   25.3050 C   0  0  0  0  0  0  0  0  0  0  0  0
    4.4410   -3.2270   25.6630 O   0  0  0  0  0  0  0  0  0  0  0  0
    6.6280   -2.8490   26.2440 N   0  0  0  0  0  0  0  0  0  0  0  0
    6.5280   -1.6270   27.0180 C   0  0  0  0  0  0  0  0  0  0  0  0
    7.0390   -1.5210   28.4320 C   0  0  0  0  0  0  0  0  0  0  0  0
    6.9320   -0.3430   29.1560 C   0  0  0  0  0  0  0  0  0  0  0  0
    7.5290   -0.2510   30.7980 Cl  0  0  0  0  0  0  0  0  0  0  0  0
    6.3370    0.7810   28.5630 C   0  0  0  0  0  0  0  0  0  0  0  0
    5.8340    0.8190   27.2850 C   0  0  0  0  0  0  0  0  0  0  0  0
    5.9010   -0.3690   26.4570 C   0  0  0  0  0  0  0  0  0  0  0  0
    5.4270   -0.3130   25.2750 O   0  0  0  0  0  0  0  0  0  0  0  0
    4.5820    0.7910   25.1220 C   0  0  0  0  0  0  0  0  0  0  0  0
    3.3570    0.6390   25.7140 C   0  0  0  0  0  0  0  0  0  0  0  0
    2.4030    1.6290   25.6650 C   0  0  0  0  0  0  0  0  0  0  0  0
    2.7060    2.8710   24.9610 C   0  0  0  0  0  0  0  0  0  0  0  0
    1.4590    4.1580   24.9000 Cl  0  0  0  0  0  0  0  0  0  0  0  0
    3.9500    3.0360   24.3530 C   0  0  0  0  0  0  0  0  0  0  0  0
    4.8770    1.9790   24.4460 C   0  0  0  0  0  0  0  0  0  0  0  0
    6.4420    2.1740   23.6920 Cl  0  0  0  0  0  0  0  0  0  0  0  0
    6.0550   -5.0430   23.7620 C   0  0  0  0  0  0  0  0  0  0  0  0
    6.6780   -5.4680   22.4220 C   0  0  0  0  0  0  0  0  0  0  0  0
  1  2  1  0
  2  3  2  0
  2  4  1  0
  4  5  1  0
  5  6  1  0
  6  7  1  0
  7  8  1  0
  8  9  2  0
  8 10  1  0
 10 11  1  0
 11 12  2  0
 12 13  1  0
 13 14  1  0
 13 15  2  0
 15 16  1  0
 11 17  1  0
 16 17  2  0
 17 18  1  0
 18 19  1  0
 19 20  2  0
 20 21  1  0
 21 22  2  0
 22 23  1  0
 22 24  1  0
 19 25  1  0
 24 25  2  0
 25 26  1  0
  7 27  1  0
  4 28  1  0
 27 28  1  0
M  END
