piperidine-amides-1137-covalent
     RDKit          3D

 23 24  0  0  0  0  0  0  0  0999 V2000
    7.1060   -3.3440   19.3060 C   0  0  0  0  0  0  0  0  0  0  0  0
    6.3490   -4.1460   20.3000 C   0  0  0  0  0  0  0  0  0  0  0  0
    5.3090   -4.7220   19.9420 O   0  0  0  0  0  0  0  0  0  0  0  0
    6.8700   -4.2710   21.6000 N   0  0  0  0  0  0  0  0  0  0  0  0
    7.7130   -3.2550   22.1850 C   0  0  0  0  0  0  0  0  0  0  0  0
    6.9250   -2.6620   23.3460 C   0  0  0  0  0  0  0  0  0  0  0  0
    6.5380   -3.8170   24.2000 C   0  0  0  0  0  0  0  0  0  0  0  0
    5.7660   -3.3950   25.3900 C   0  0  0  0  0  0  0  0  0  0  0  0
    4.5370   -3.4740   25.3020 O   0  0  0  0  0  0  0  0  0  0  0  0
    6.4190   -2.9290   26.5310 N   0  0  0  0  0  0  0  0  0  0  0  0
    6.3560   -1.6150   27.0600 C   0  0  0  0  0  0  0  0  0  0  0  0
    5.6930   -0.5670   26.4820 C   0  0  0  0  0  0  0  0  0  0  0  0
    5.6500    0.7250   27.0390 C   0  0  0  0  0  0  0  0  0  0  0  0
    6.2670    1.0800   28.2220 C   0  0  0  0  0  0  0  0  0  0  0  0
    6.1420    2.3640   28.6320 N   0  0  0  0  0  0  0  0  0  0  0  0
    5.5380    2.7020   29.7830 C   0  0  0  0  0  0  0  0  0  0  0  0
    6.9530    3.3260   27.9280 C   0  0  0  0  0  0  0  0  0  0  0  0
    6.9630    0.1020   28.8840 C   0  0  0  0  0  0  0  0  0  0  0  0
    7.5800    0.4760   30.0540 O   0  0  0  0  0  0  0  0  0  0  0  0
    7.9050   -0.6610   30.7290 C   0  0  0  0  0  0  0  0  0  0  0  0
    7.0040   -1.2490   28.2980 C   0  0  0  0  0  0  0  0  0  0  0  0
    5.7900   -4.9150   23.5070 C   0  0  0  0  0  0  0  0  0  0  0  0
    6.5120   -5.3790   22.4380 C   0  0  0  0  0  0  0  0  0  0  0  0
  1  2  1  0
  2  3  2  0
  2  4  1  0
  4  5  1  0
  5  6  1  0
  6  7  1  0
  7  8  1  0
  8  9  2  0
  8 10  1  0
 10 11  1  0
 11 12  2  0
 12 13  1  0
 13 14  2  0
 14 15  1  0
 15 16  1  0
 15 17  1  0
 14 18  1  0
 18 19  1  0
 19 20  1  0
 11 21  1  0
 18 21  2  0
  7 22  1  0
  4 23  1  0
 22 23  1  0
M  END
