piperidine-amides-14205-covalent
     RDKit          3D

 24 24  0  0  0  0  0  0  0  0999 V2000
    7.1420   -3.2970   19.2480 C   0  0  0  0  0  0  0  0  0  0  0  0
    6.3320   -4.0470   20.2380 C   0  0  0  0  0  0  0  0  0  0  0  0
    5.2580   -4.5520   19.8810 O   0  0  0  0  0  0  0  0  0  0  0  0
    6.8330   -4.2150   21.5440 N   0  0  0  0  0  0  0  0  0  0  0  0
    7.6920   -3.2330   22.1630 C   0  0  0  0  0  0  0  0  0  0  0  0
    6.9190   -2.6630   23.3520 C   0  0  0  0  0  0  0  0  0  0  0  0
    6.4160   -3.8140   24.1640 C   0  0  0  0  0  0  0  0  0  0  0  0
    5.5960   -3.3510   25.3190 C   0  0  0  0  0  0  0  0  0  0  0  0
    4.5570   -2.7430   25.0370 O   0  0  0  0  0  0  0  0  0  0  0  0
    6.0000   -3.6050   26.6410 N   0  0  0  0  0  0  0  0  0  0  0  0
    5.7460   -4.7870   27.3750 C   0  0  2  0  0  0  0  0  0  0  0  0
    5.6020   -4.8060   28.7240 C   0  0  0  0  0  0  0  0  0  0  0  0
    5.9080   -3.5020   29.2900 O   0  0  0  0  0  0  0  0  0  0  0  0
    5.2110   -5.8960   29.5060 O   0  0  0  0  0  0  0  0  0  0  0  0
    4.7480   -7.1200   28.8990 C   0  0  0  0  0  0  0  0  0  0  0  0
    6.5500   -5.9130   27.1980 C   0  0  2  0  0  0  0  0  0  0  0  0
    7.3880   -6.2130   28.3990 C   0  0  0  0  0  0  0  0  0  0  0  0
    7.2790   -5.5610   26.1320 O   0  0  0  0  0  0  0  0  0  0  0  0
    8.3720   -4.8060   26.4690 C   0  0  0  0  0  0  0  0  0  0  0  0
    9.5140   -5.7200   26.1060 C   0  0  0  0  0  0  0  0  0  0  0  0
    8.3300   -3.5250   25.8970 C   0  0  0  0  0  0  0  0  0  0  0  0
    8.4280   -4.6800   27.9860 C   0  0  0  0  0  0  0  0  0  0  0  0
    5.6310   -4.8460   23.4010 C   0  0  0  0  0  0  0  0  0  0  0  0
    6.4030   -5.3010   22.3590 C   0  0  0  0  0  0  0  0  0  0  0  0
  1  2  1  0
  2  3  2  0
  2  4  1  0
  4  5  1  0
  5  6  1  0
  6  7  1  0
  7  8  1  0
  8  9  2  0
  8 10  1  0
 11 10  1  1
 11 12  1  0
 12 13  2  0
 12 14  1  0
 14 15  1  0
 11 16  1  0
 16 17  1  1
 16 18  1  0
 19 18  1  0
 19 20  1  0
 19 21  1  0
 19 22  1  0
  7 23  1  0
  4 24  1  0
 23 24  1  0
M  END
