piperidine-amides-33938-covalent
     RDKit          3D

 30 33  0  0  0  0  0  0  0  0999 V2000
    7.0050   -3.4100   19.4310 C   0  0  0  0  0  0  0  0  0  0  0  0
    6.3650   -4.2840   20.4290 C   0  0  0  0  0  0  0  0  0  0  0  0
    5.3900   -4.9550   20.0080 O   0  0  0  0  0  0  0  0  0  0  0  0
    6.8450   -4.3980   21.7720 N   0  0  0  0  0  0  0  0  0  0  0  0
    6.3990   -5.4990   22.5570 C   0  0  0  0  0  0  0  0  0  0  0  0
    5.9570   -5.1170   23.9070 C   0  0  0  0  0  0  0  0  0  0  0  0
    5.9160   -3.6500   24.1270 C   0  0  0  0  0  0  0  0  0  0  0  0
    5.2060   -3.1590   25.3980 C   0  0  0  0  0  0  0  0  0  0  0  0
    4.5570   -2.1160   25.2980 O   0  0  0  0  0  0  0  0  0  0  0  0
    5.2040   -3.7790   26.6860 N   0  0  0  0  0  0  0  0  0  0  0  0
    6.1540   -4.6600   27.0410 C   0  0  0  0  0  0  0  0  0  0  0  0
    6.1030   -5.6250   28.1070 C   0  0  0  0  0  0  0  0  0  0  0  0
    5.3890   -4.8850   29.2070 C   0  0  0  0  0  0  0  0  0  0  0  0
    4.0570   -5.2580   29.2030 C   0  0  0  0  0  0  0  0  0  0  0  0
    4.1690   -5.6800   30.6750 C   0  0  0  0  0  0  0  0  0  0  0  0
    3.1970   -5.1580   31.5980 N   0  0  0  0  0  0  0  0  0  0  0  0
    3.7510   -5.8520   32.7400 C   0  0  0  0  0  0  0  0  0  0  0  0
    2.8440   -5.4320   33.9090 C   0  0  0  0  0  0  0  0  0  0  0  0
    2.1950   -4.2050   33.7260 O   0  0  0  0  0  0  0  0  0  0  0  0
    2.9240   -3.0220   33.3900 C   0  0  0  0  0  0  0  0  0  0  0  0
    1.7150   -6.4620   33.9980 C   0  0  0  0  0  0  0  0  0  0  0  0
    1.2140   -6.2840   35.4350 C   0  0  0  0  0  0  0  0  0  0  0  0
    2.3920   -5.7220   36.1100 C   0  0  0  0  0  0  0  0  0  0  0  0
    3.4210   -5.5590   35.1900 C   0  0  0  0  0  0  0  0  0  0  0  0
    4.8140   -6.6190   32.5460 N   0  0  0  0  0  0  0  0  0  0  0  0
    5.1380   -6.5430   31.2100 O   0  0  0  0  0  0  0  0  0  0  0  0
    5.5200   -3.5180   29.1000 C   0  0  0  0  0  0  0  0  0  0  0  0
    4.7970   -3.0200   27.8410 C   0  0  0  0  0  0  0  0  0  0  0  0
    7.2720   -3.0600   23.8390 C   0  0  0  0  0  0  0  0  0  0  0  0
    7.5940   -3.3200   22.3640 C   0  0  0  0  0  0  0  0  0  0  0  0
  1  2  1  0
  2  3  2  0
  2  4  1  0
  4  5  1  0
  5  6  1  0
  6  7  1  0
  7  8  1  0
  8  9  2  0
  8 10  1  0
 10 11  1  0
 11 12  1  0
 12 13  1  0
 13 14  1  0
 14 15  1  0
 15 16  2  0
 16 17  1  0
 17 18  1  0
 18 19  1  0
 19 20  1  0
 18 21  1  0
 21 22  1  0
 22 23  1  0
 18 24  1  0
 23 24  1  0
 17 25  2  0
 15 26  1  0
 25 26  1  0
 13 27  1  0
 10 28  1  0
 27 28  1  0
  7 29  1  0
  4 30  1  0
 29 30  1  0
M  END
