piperidine-amides-10284-covalent
     RDKit          3D

 25 26  0  0  0  0  0  0  0  0999 V2000
    7.1310   -3.3040   19.2550 C   0  0  0  0  0  0  0  0  0  0  0  0
    6.3600   -4.0440   20.2520 C   0  0  0  0  0  0  0  0  0  0  0  0
    5.2620   -4.5270   19.8750 O   0  0  0  0  0  0  0  0  0  0  0  0
    6.8740   -4.2370   21.5310 N   0  0  0  0  0  0  0  0  0  0  0  0
    6.5460   -5.3880   22.3250 C   0  0  0  0  0  0  0  0  0  0  0  0
    5.8390   -4.9000   23.5610 C   0  0  0  0  0  0  0  0  0  0  0  0
    6.5730   -3.7550   24.2210 C   0  0  0  0  0  0  0  0  0  0  0  0
    5.8330   -3.2840   25.4090 C   0  0  0  0  0  0  0  0  0  0  0  0
    4.5870   -3.1830   25.3300 O   0  0  0  0  0  0  0  0  0  0  0  0
    6.4610   -2.9380   26.6180 N   0  0  0  0  0  0  0  0  0  0  0  0
    6.2330   -3.6910   27.8300 C   0  0  0  0  0  0  0  0  0  0  0  0
    5.7530   -5.1230   27.5990 C   0  0  0  0  0  0  0  0  0  0  0  0
    5.8740   -5.9500   28.5280 O   0  0  0  0  0  0  0  0  0  0  0  0
    4.6680   -6.2600   29.1050 C   0  0  0  0  0  0  0  0  0  0  0  0
    4.2480   -7.5650   29.0830 C   0  0  0  0  0  0  0  0  0  0  0  0
    3.0390   -7.8870   29.6570 C   0  0  0  0  0  0  0  0  0  0  0  0
    2.2520   -6.9200   30.2520 C   0  0  0  0  0  0  0  0  0  0  0  0
    2.6740   -5.6020   30.2760 C   0  0  0  0  0  0  0  0  0  0  0  0
    1.8190   -4.5340   30.9260 C   0  0  0  0  0  0  0  0  0  0  0  0
    2.4680   -3.5440   31.5880 F   0  0  0  0  0  0  0  0  0  0  0  0
    0.9910   -5.2090   31.7850 F   0  0  0  0  0  0  0  0  0  0  0  0
    1.0100   -3.9520   29.9410 F   0  0  0  0  0  0  0  0  0  0  0  0
    3.8800   -5.3030   29.6960 C   0  0  0  0  0  0  0  0  0  0  0  0
    6.8120   -2.6060   23.2400 C   0  0  0  0  0  0  0  0  0  0  0  0
    7.6810   -3.1950   22.1580 C   0  0  0  0  0  0  0  0  0  0  0  0
  1  2  1  0
  2  3  2  0
  2  4  1  0
  4  5  1  0
  5  6  1  0
  6  7  1  0
  7  8  1  0
  8  9  2  0
  8 10  1  0
 10 11  1  0
 11 12  1  0
 12 13  1  0
 13 14  1  0
 14 15  2  0
 15 16  1  0
 16 17  2  0
 17 18  1  0
 18 19  1  0
 19 20  1  0
 19 21  1  0
 19 22  1  0
 14 23  1  0
 18 23  2  0
  7 24  1  0
  4 25  1  0
 24 25  1  0
M  END
