piperidine-amides-33558-covalent
     RDKit          3D

 30 33  0  0  0  0  0  0  0  0999 V2000
    6.9920   -3.3830   19.4290 C   0  0  0  0  0  0  0  0  0  0  0  0
    6.3860   -4.2860   20.4300 C   0  0  0  0  0  0  0  0  0  0  0  0
    5.4230   -4.9790   20.0120 O   0  0  0  0  0  0  0  0  0  0  0  0
    6.8770   -4.4020   21.7700 N   0  0  0  0  0  0  0  0  0  0  0  0
    6.4100   -5.4910   22.5690 C   0  0  0  0  0  0  0  0  0  0  0  0
    5.9200   -5.0960   23.9040 C   0  0  0  0  0  0  0  0  0  0  0  0
    5.8510   -3.6310   24.1140 C   0  0  0  0  0  0  0  0  0  0  0  0
    5.0910   -3.1110   25.3540 C   0  0  0  0  0  0  0  0  0  0  0  0
    4.3770   -2.1220   25.1700 O   0  0  0  0  0  0  0  0  0  0  0  0
    5.1000   -3.6270   26.6890 N   0  0  0  0  0  0  0  0  0  0  0  0
    4.6110   -2.9810   27.8550 C   0  0  0  0  0  0  0  0  0  0  0  0
    4.6140   -3.6940   29.1400 C   0  0  0  0  0  0  0  0  0  0  0  0
    5.0960   -4.9310   29.2740 N   0  0  0  0  0  0  0  0  0  0  0  0
    4.3120   -6.1340   29.5220 C   0  0  0  0  0  0  0  0  0  0  0  0
    4.8530   -6.8300   30.5930 C   0  0  0  0  0  0  0  0  0  0  0  0
    4.7900   -6.2690   31.7670 N   0  0  0  0  0  0  0  0  0  0  0  0
    5.4430   -7.1920   32.6580 C   0  0  0  0  0  0  0  0  0  0  0  0
    5.5550   -6.7890   34.0940 C   0  0  0  0  0  0  0  0  0  0  0  0
    4.1010   -6.6320   34.5040 C   0  0  0  0  0  0  0  0  0  0  0  0
    3.7500   -6.2230   35.9070 C   0  0  0  0  0  0  0  0  0  0  0  0
    4.9740   -6.0020   36.7990 C   0  0  0  0  0  0  0  0  0  0  0  0
    4.8540   -5.5800   38.2680 C   0  0  0  0  0  0  0  0  0  0  0  0
    6.3780   -6.1960   36.2570 C   0  0  0  0  0  0  0  0  0  0  0  0
    6.6430   -6.5790   34.9430 C   0  0  0  0  0  0  0  0  0  0  0  0
    5.8320   -8.2710   31.9070 N   0  0  0  0  0  0  0  0  0  0  0  0
    5.4700   -8.0570   30.6130 O   0  0  0  0  0  0  0  0  0  0  0  0
    6.0970   -5.2300   28.2530 C   0  0  0  0  0  0  0  0  0  0  0  0
    6.1840   -4.4100   26.9840 C   0  0  0  0  0  0  0  0  0  0  0  0
    7.1950   -3.0260   23.8270 C   0  0  0  0  0  0  0  0  0  0  0  0
    7.5740   -3.2880   22.3670 C   0  0  0  0  0  0  0  0  0  0  0  0
  1  2  1  0
  2  3  2  0
  2  4  1  0
  4  5  1  0
  5  6  1  0
  6  7  1  0
  7  8  1  0
  8  9  2  0
  8 10  1  0
 10 11  1  0
 11 12  1  0
 12 13  1  0
 13 14  1  0
 14 15  1  0
 15 16  2  0
 16 17  1  0
 17 18  1  0
 18 19  2  0
 19 20  1  0
 20 21  2  0
 21 22  1  0
 21 23  1  0
 18 24  1  0
 23 24  2  0
 17 25  2  0
 15 26  1  0
 25 26  1  0
 13 27  1  0
 10 28  1  0
 27 28  1  0
  7 29  1  0
  4 30  1  0
 29 30  1  0
M  END
