piperidine-amides-13516-covalent
     RDKit          3D

 21 23  0  0  0  0  0  0  0  0999 V2000
    7.1080   -3.3170   19.3020 C   0  0  0  0  0  0  0  0  0  0  0  0
    6.4040   -4.1750   20.2900 C   0  0  0  0  0  0  0  0  0  0  0  0
    5.3550   -4.7490   19.9550 O   0  0  0  0  0  0  0  0  0  0  0  0
    6.9720   -4.3680   21.5650 N   0  0  0  0  0  0  0  0  0  0  0  0
    6.6630   -5.5390   22.3400 C   0  0  0  0  0  0  0  0  0  0  0  0
    5.8220   -5.0530   23.5200 C   0  0  0  0  0  0  0  0  0  0  0  0
    6.4960   -3.8360   24.0600 C   0  0  0  0  0  0  0  0  0  0  0  0
    5.6990   -3.1730   25.0980 C   0  0  0  0  0  0  0  0  0  0  0  0
    4.5350   -2.8750   24.8120 O   0  0  0  0  0  0  0  0  0  0  0  0
    6.2720   -2.9260   26.3260 N   0  0  0  0  0  0  0  0  0  0  0  0
    6.2790   -1.6920   27.0130 C   0  0  0  0  0  0  0  0  0  0  0  0
    6.3860   -0.4080   26.5170 C   0  0  0  0  0  0  0  0  0  0  0  0
    6.3860    0.7530   27.3390 C   0  0  0  0  0  0  0  0  0  0  0  0
    6.2840    0.6720   28.7130 C   0  0  0  0  0  0  0  0  0  0  0  0
    6.1590   -0.6740   29.2940 C   0  0  0  0  0  0  0  0  0  0  0  0
    6.1500   -1.8720   28.3690 C   0  0  0  0  0  0  0  0  0  0  0  0
    5.9670   -3.2050   29.0890 C   0  0  0  0  0  0  0  0  0  0  0  0
    4.8310   -3.5200   29.5420 C   0  0  0  0  0  0  0  0  0  0  0  0
    4.9880   -4.0160   28.1510 C   0  0  0  0  0  0  0  0  0  0  0  0
    6.8770   -2.7880   23.0730 C   0  0  0  0  0  0  0  0  0  0  0  0
    7.7590   -3.3480   22.2030 C   0  0  0  0  0  0  0  0  0  0  0  0
  1  2  1  0
  2  3  2  0
  2  4  1  0
  4  5  1  0
  5  6  1  0
  6  7  1  0
  7  8  1  0
  8  9  2  0
  8 10  1  0
 10 11  1  0
 11 12  2  0
 12 13  1  0
 13 14  2  0
 14 15  1  0
 11 16  1  0
 15 16  2  0
 16 17  1  0
 17 18  1  0
 17 19  1  0
 18 19  1  0
  7 20  1  0
  4 21  1  0
 20 21  1  0
M  END
