piperidine-amides-30127-covalent
     RDKit          3D

 27 29  0  0  0  0  0  0  0  0999 V2000
    7.0290   -3.3640   19.3390 C   0  0  0  0  0  0  0  0  0  0  0  0
    6.3710   -4.2270   20.3130 C   0  0  0  0  0  0  0  0  0  0  0  0
    5.3600   -4.8430   19.9800 O   0  0  0  0  0  0  0  0  0  0  0  0
    6.9210   -4.4180   21.6290 N   0  0  0  0  0  0  0  0  0  0  0  0
    7.6640   -3.3660   22.2860 C   0  0  0  0  0  0  0  0  0  0  0  0
    6.8710   -2.7970   23.4290 C   0  0  0  0  0  0  0  0  0  0  0  0
    6.3370   -3.9280   24.3000 C   0  0  0  0  0  0  0  0  0  0  0  0
    5.2820   -3.4090   25.2320 C   0  0  0  0  0  0  0  0  0  0  0  0
    4.2870   -2.8200   24.7920 O   0  0  0  0  0  0  0  0  0  0  0  0
    5.3910   -3.5640   26.6430 N   0  0  0  0  0  0  0  0  0  0  0  0
    6.5420   -3.1100   27.2520 C   0  0  0  0  0  0  0  0  0  0  0  0
    6.7440   -4.1660   28.3100 C   0  0  0  0  0  0  0  0  0  0  0  0
    5.7890   -4.2100   29.2420 C   0  0  0  0  0  0  0  0  0  0  0  0
    5.6190   -3.1120   29.8340 O   0  0  0  0  0  0  0  0  0  0  0  0
    4.3690   -2.6780   30.2820 C   0  0  0  0  0  0  0  0  0  0  0  0
    4.3650   -1.4430   30.8950 C   0  0  0  0  0  0  0  0  0  0  0  0
    4.8290   -0.2370   30.2150 C   0  0  0  0  0  0  0  0  0  0  0  0
    4.8380    1.0050   30.8040 C   0  0  0  0  0  0  0  0  0  0  0  0
    4.3860    1.1070   32.0990 C   0  0  0  0  0  0  0  0  0  0  0  0
    3.9290    0.0060   32.8110 C   0  0  0  0  0  0  0  0  0  0  0  0
    3.9110   -1.3290   32.2010 C   0  0  0  0  0  0  0  0  0  0  0  0
    3.4670   -2.4510   32.8750 O   0  0  0  0  0  0  0  0  0  0  0  0
    3.7270   -2.6740   34.2290 C   0  0  0  0  0  0  0  0  0  0  0  0
    4.5640   -4.5400   28.6490 C   0  0  0  0  0  0  0  0  0  0  0  0
    4.1970   -3.8030   27.3850 C   0  0  0  0  0  0  0  0  0  0  0  0
    5.7020   -5.0710   23.5540 C   0  0  0  0  0  0  0  0  0  0  0  0
    6.5530   -5.5560   22.4030 C   0  0  0  0  0  0  0  0  0  0  0  0
  1  2  1  0
  2  3  2  0
  2  4  1  0
  4  5  1  0
  5  6  1  0
  6  7  1  0
  7  8  1  0
  8  9  2  0
  8 10  1  0
 10 11  1  0
 11 12  1  0
 12 13  1  0
 13 14  1  0
 14 15  1  0
 15 16  1  0
 16 17  2  0
 17 18  1  0
 18 19  2  0
 19 20  1  0
 16 21  1  0
 20 21  2  0
 21 22  1  0
 22 23  1  0
 13 24  1  0
 10 25  1  0
 24 25  1  0
  7 26  1  0
  4 27  1  0
 26 27  1  0
M  END
