piperidine-amides-7257-covalent
     RDKit          3D

 20 20  0  0  0  0  0  0  0  0999 V2000
    7.0880   -3.3020   19.2590 C   0  0  0  0  0  0  0  0  0  0  0  0
    6.3070   -4.0330   20.2590 C   0  0  0  0  0  0  0  0  0  0  0  0
    5.2270   -4.5410   19.8710 O   0  0  0  0  0  0  0  0  0  0  0  0
    6.7910   -4.1890   21.5550 N   0  0  0  0  0  0  0  0  0  0  0  0
    7.6050   -3.1800   22.1900 C   0  0  0  0  0  0  0  0  0  0  0  0
    7.3070   -3.2350   23.6540 C   0  0  0  0  0  0  0  0  0  0  0  0
    5.9220   -3.7160   23.9170 C   0  0  0  0  0  0  0  0  0  0  0  0
    5.5240   -3.5540   25.3400 C   0  0  0  0  0  0  0  0  0  0  0  0
    4.3060   -3.6730   25.6160 O   0  0  0  0  0  0  0  0  0  0  0  0
    6.4000   -3.2410   26.4020 N   0  0  0  0  0  0  0  0  0  0  0  0
    6.5370   -4.2050   27.4870 C   0  0  0  0  0  0  0  0  0  0  0  0
    7.3410   -5.4510   27.0970 C   0  0  0  0  0  0  0  0  0  0  0  0
    6.6620   -1.8950   26.8050 C   0  0  0  0  0  0  0  0  0  0  0  0
    5.6440   -0.9750   26.6540 C   0  0  0  0  0  0  0  0  0  0  0  0
    4.9810   -0.9930   27.7920 O   0  0  0  0  0  0  0  0  0  0  0  0
    3.9380   -0.2120   27.7530 C   0  0  0  0  0  0  0  0  0  0  0  0
    3.9240    1.0390   28.3500 C   0  0  0  0  0  0  0  0  0  0  0  0
    3.3630    2.0290   27.6350 N   0  0  0  0  0  0  0  0  0  0  0  0
    5.7870   -5.1950   23.5750 C   0  0  0  0  0  0  0  0  0  0  0  0
    6.4590   -5.4370   22.2440 C   0  0  0  0  0  0  0  0  0  0  0  0
  1  2  1  0
  2  3  2  0
  2  4  1  0
  4  5  1  0
  5  6  1  0
  6  7  1  0
  7  8  1  0
  8  9  2  0
  8 10  1  0
 10 11  1  0
 11 12  1  0
 10 13  1  0
 13 14  1  0
 14 15  1  0
 15 16  1  0
 16 17  1  0
 17 18  1  0
  7 19  1  0
  4 20  1  0
 19 20  1  0
M  END
