piperidine-amides-1494-covalent
     RDKit          3D

 21 22  0  0  0  0  0  0  0  0999 V2000
    7.0680   -3.3340   19.3360 C   0  0  0  0  0  0  0  0  0  0  0  0
    6.3700   -4.2020   20.3200 C   0  0  0  0  0  0  0  0  0  0  0  0
    5.3440   -4.8090   19.9680 O   0  0  0  0  0  0  0  0  0  0  0  0
    6.9140   -4.3590   21.6100 N   0  0  0  0  0  0  0  0  0  0  0  0
    6.6120   -5.5090   22.4150 C   0  0  0  0  0  0  0  0  0  0  0  0
    5.7660   -5.0010   23.5850 C   0  0  0  0  0  0  0  0  0  0  0  0
    6.4920   -3.8510   24.2060 C   0  0  0  0  0  0  0  0  0  0  0  0
    5.7310   -3.2670   25.3400 C   0  0  0  0  0  0  0  0  0  0  0  0
    4.5120   -3.1530   25.1660 O   0  0  0  0  0  0  0  0  0  0  0  0
    6.3620   -2.8770   26.5260 N   0  0  0  0  0  0  0  0  0  0  0  0
    6.7130   -1.5530   26.9200 C   0  0  1  0  0  0  0  0  0  0  0  0
    5.9150   -0.4640   26.6190 C   0  0  0  0  0  0  0  0  0  0  0  0
    5.7370    0.3650   27.7380 C   0  0  0  0  0  0  0  0  0  0  0  0
    6.2860   -0.2560   28.8350 C   0  0  2  0  0  0  0  0  0  0  0  0
    6.9400    0.5670   29.8860 C   0  0  0  0  0  0  0  0  0  0  0  0
    6.0270    0.9250   31.0710 C   0  0  0  0  0  0  0  0  0  0  0  0
    5.0950    1.9490   30.4200 C   0  0  0  0  0  0  0  0  0  0  0  0
    5.4200   -0.1500   31.7390 C   0  0  0  0  0  0  0  0  0  0  0  0
    6.9720   -1.3430   28.3490 C   0  0  0  0  0  0  0  0  0  0  0  0
    6.8840   -2.7540   23.2670 C   0  0  0  0  0  0  0  0  0  0  0  0
    7.6310   -3.2950   22.2590 C   0  0  0  0  0  0  0  0  0  0  0  0
  1  2  1  0
  2  3  2  0
  2  4  1  0
  4  5  1  0
  5  6  1  0
  6  7  1  0
  7  8  1  0
  8  9  2  0
  8 10  1  0
 11 10  1  1
 11 12  1  0
 12 13  1  0
 13 14  1  0
 14 15  1  6
 15 16  1  0
 16 17  1  0
 16 18  1  0
 11 19  1  0
 14 19  1  0
  7 20  1  0
  4 21  1  0
 20 21  1  0
M  END
