piperidine-amides-5193-covalent
     RDKit          3D

 21 22  0  0  0  0  0  0  0  0999 V2000
    7.1260   -3.2570   19.1780 C   0  0  0  0  0  0  0  0  0  0  0  0
    6.3690   -4.0140   20.2030 C   0  0  0  0  0  0  0  0  0  0  0  0
    5.2740   -4.4930   19.8570 O   0  0  0  0  0  0  0  0  0  0  0  0
    6.9000   -4.2230   21.4810 N   0  0  0  0  0  0  0  0  0  0  0  0
    7.6170   -3.1770   22.1320 C   0  0  0  0  0  0  0  0  0  0  0  0
    7.1680   -2.8610   23.4870 C   0  0  0  0  0  0  0  0  0  0  0  0
    6.4710   -3.9560   24.2030 C   0  0  0  0  0  0  0  0  0  0  0  0
    5.7040   -3.3880   25.3380 C   0  0  0  0  0  0  0  0  0  0  0  0
    4.4660   -3.3180   25.2290 O   0  0  0  0  0  0  0  0  0  0  0  0
    6.3370   -2.9380   26.5140 N   0  0  0  0  0  0  0  0  0  0  0  0
    6.4410   -1.5000   26.8510 C   0  0  0  0  0  0  0  0  0  0  0  0
    5.7420   -1.1850   28.1320 C   0  0  1  0  0  0  0  0  0  0  0  0
    4.4800   -1.2380   28.2160 O   0  0  0  0  0  0  0  0  0  0  0  0
    6.2350   -1.8420   29.2660 C   0  0  0  0  0  0  0  0  0  0  0  0
    6.7930   -0.7080   29.7170 C   0  0  2  0  0  0  0  0  0  0  0  0
    6.4070   -0.1950   30.9180 O   0  0  0  0  0  0  0  0  0  0  0  0
    7.3190    0.3740   31.8560 C   0  0  0  0  0  0  0  0  0  0  0  0
    8.5930    0.4610   31.3830 C   0  0  0  0  0  0  0  0  0  0  0  0
    6.3060    0.1460   28.6870 C   0  0  0  0  0  0  0  0  0  0  0  0
    5.6870   -4.8890   23.3610 C   0  0  0  0  0  0  0  0  0  0  0  0
    6.4280   -5.3270   22.2700 C   0  0  0  0  0  0  0  0  0  0  0  0
  1  2  1  0
  2  3  2  0
  2  4  1  0
  4  5  1  0
  5  6  1  0
  6  7  1  0
  7  8  1  0
  8  9  2  0
  8 10  1  0
 10 11  1  0
 11 12  1  0
 12 13  1  6
 12 14  1  0
 14 15  1  0
 15 16  1  1
 16 17  1  0
 17 18  1  0
 12 19  1  0
 15 19  1  0
  7 20  1  0
  4 21  1  0
 20 21  1  0
M  END
