piperidine-amides-1206-covalent
     RDKit          3D

 23 24  0  0  0  0  0  0  0  0999 V2000
    7.0650   -3.3290   19.3100 C   0  0  0  0  0  0  0  0  0  0  0  0
    6.3700   -4.1790   20.3170 C   0  0  0  0  0  0  0  0  0  0  0  0
    5.3650   -4.8240   19.9740 O   0  0  0  0  0  0  0  0  0  0  0  0
    6.9000   -4.2670   21.6210 N   0  0  0  0  0  0  0  0  0  0  0  0
    7.7440   -3.2300   22.1700 C   0  0  0  0  0  0  0  0  0  0  0  0
    6.9910   -2.6380   23.3510 C   0  0  0  0  0  0  0  0  0  0  0  0
    6.5440   -3.7890   24.1800 C   0  0  0  0  0  0  0  0  0  0  0  0
    5.7640   -3.3360   25.3530 C   0  0  0  0  0  0  0  0  0  0  0  0
    4.5350   -3.2730   25.2080 O   0  0  0  0  0  0  0  0  0  0  0  0
    6.4080   -2.9950   26.5450 N   0  0  0  0  0  0  0  0  0  0  0  0
    6.4090   -1.7220   27.1710 C   0  0  0  0  0  0  0  0  0  0  0  0
    5.9140   -0.5530   26.6310 C   0  0  0  0  0  0  0  0  0  0  0  0
    5.9450    0.6820   27.3190 C   0  0  0  0  0  0  0  0  0  0  0  0
    6.4770    0.8230   28.5890 C   0  0  0  0  0  0  0  0  0  0  0  0
    6.4780    2.1570   29.2550 C   0  0  0  0  0  0  0  0  0  0  0  0
    6.9120    3.3430   28.3710 C   0  0  0  0  0  0  0  0  0  0  0  0
    8.2150    3.8610   29.0050 C   0  0  0  0  0  0  0  0  0  0  0  0
    8.9300    4.9180   28.5830 N   0  0  0  0  0  0  0  0  0  0  0  0
    8.5850    3.0940   30.0970 O   0  0  0  0  0  0  0  0  0  0  0  0
    6.9950   -0.2670   29.2190 C   0  0  0  0  0  0  0  0  0  0  0  0
    6.9620   -1.5470   28.5050 C   0  0  0  0  0  0  0  0  0  0  0  0
    5.7610   -4.8420   23.4520 C   0  0  0  0  0  0  0  0  0  0  0  0
    6.5760   -5.3690   22.4790 C   0  0  0  0  0  0  0  0  0  0  0  0
  1  2  1  0
  2  3  2  0
  2  4  1  0
  4  5  1  0
  5  6  1  0
  6  7  1  0
  7  8  1  0
  8  9  2  0
  8 10  1  0
 10 11  1  0
 11 12  2  0
 12 13  1  0
 13 14  2  0
 14 15  1  0
 15 16  1  0
 16 17  1  0
 17 18  1  0
 17 19  2  0
 14 20  1  0
 11 21  1  0
 20 21  2  0
  7 22  1  0
  4 23  1  0
 22 23  1  0
M  END
