piperidine-amides-35071-covalent
     RDKit          3D

 27 29  0  0  0  0  0  0  0  0999 V2000
    7.0310   -3.3730   19.4000 C   0  0  0  0  0  0  0  0  0  0  0  0
    6.3510   -4.2070   20.4210 C   0  0  0  0  0  0  0  0  0  0  0  0
    5.4280   -4.9150   20.0070 O   0  0  0  0  0  0  0  0  0  0  0  0
    6.7860   -4.2000   21.7610 N   0  0  0  0  0  0  0  0  0  0  0  0
    7.7140   -3.1930   22.2530 C   0  0  0  0  0  0  0  0  0  0  0  0
    7.4540   -2.9720   23.7100 C   0  0  0  0  0  0  0  0  0  0  0  0
    6.0890   -3.5740   23.9810 C   0  0  0  0  0  0  0  0  0  0  0  0
    5.5460   -3.2170   25.3230 C   0  0  0  0  0  0  0  0  0  0  0  0
    4.3240   -3.0550   25.3930 O   0  0  0  0  0  0  0  0  0  0  0  0
    6.3050   -3.0380   26.5140 N   0  0  0  0  0  0  0  0  0  0  0  0
    6.1480   -4.1020   27.4980 C   0  0  0  0  0  0  0  0  0  0  0  0
    4.7770   -4.0110   28.1390 C   0  0  0  0  0  0  0  0  0  0  0  0
    4.3180   -5.0170   28.9750 C   0  0  0  0  0  0  0  0  0  0  0  0
    3.1330   -5.0030   29.5690 C   0  0  0  0  0  0  0  0  0  0  0  0
    2.2430   -3.9470   29.3910 N   0  0  0  0  0  0  0  0  0  0  0  0
    2.6700   -2.8880   28.5410 C   0  0  0  0  0  0  0  0  0  0  0  0
    3.9960   -2.7280   27.7710 C   0  0  0  0  0  0  0  0  0  0  0  0
    6.3190   -1.7260   27.0710 C   0  0  0  0  0  0  0  0  0  0  0  0
    5.8020   -0.4790   26.3590 C   0  0  0  0  0  0  0  0  0  0  0  0
    5.8620    0.8230   27.0870 C   0  0  0  0  0  0  0  0  0  0  0  0
    6.4070    0.8990   28.4570 C   0  0  0  0  0  0  0  0  0  0  0  0
    6.4750    2.5690   29.3910 Br  0  0  0  0  0  0  0  0  0  0  0  0
    6.9040   -0.3640   29.0940 C   0  0  0  0  0  0  0  0  0  0  0  0
    7.5570   -0.3160   30.7110 Cl  0  0  0  0  0  0  0  0  0  0  0  0
    6.8440   -1.6590   28.3670 C   0  0  0  0  0  0  0  0  0  0  0  0
    6.1000   -5.0910   23.7890 C   0  0  0  0  0  0  0  0  0  0  0  0
    6.6720   -5.4180   22.5610 C   0  0  0  0  0  0  0  0  0  0  0  0
  1  2  1  0
  2  3  2  0
  2  4  1  0
  4  5  1  0
  5  6  1  0
  6  7  1  0
  7  8  1  0
  8  9  2  0
  8 10  1  0
 10 11  1  0
 11 12  1  0
 12 13  2  0
 13 14  1  0
 14 15  2  0
 15 16  1  0
 12 17  1  0
 16 17  2  0
 10 18  1  0
 18 19  2  0
 19 20  1  0
 20 21  2  0
 21 22  1  0
 21 23  1  0
 23 24  1  0
 18 25  1  0
 23 25  2  0
  7 26  1  0
  4 27  1  0
 26 27  1  0
M  END
