piperidine-amides-31694-covalent
     RDKit          3D

 28 30  0  0  0  0  0  0  0  0999 V2000
    7.0390   -3.4070   19.3500 C   0  0  0  0  0  0  0  0  0  0  0  0
    6.3920   -4.2110   20.3600 C   0  0  0  0  0  0  0  0  0  0  0  0
    5.3740   -4.8730   19.9950 O   0  0  0  0  0  0  0  0  0  0  0  0
    6.8620   -4.3410   21.6900 N   0  0  0  0  0  0  0  0  0  0  0  0
    6.5350   -5.5760   22.4170 C   0  0  0  0  0  0  0  0  0  0  0  0
    5.4680   -4.9830   23.4100 C   0  0  0  0  0  0  0  0  0  0  0  0
    6.1650   -3.8840   24.1880 C   0  0  0  0  0  0  0  0  0  0  0  0
    5.1770   -3.3360   25.3400 C   0  0  0  0  0  0  0  0  0  0  0  0
    4.0820   -3.0720   24.8730 O   0  0  0  0  0  0  0  0  0  0  0  0
    5.8020   -3.3150   26.4500 N   0  0  0  0  0  0  0  0  0  0  0  0
    6.6090   -2.8920   27.3920 C   0  0  0  0  0  0  0  0  0  0  0  0
    6.4410   -2.8000   28.6360 C   0  0  0  0  0  0  0  0  0  0  0  0
    5.2060   -3.4250   28.3650 N   0  0  0  0  0  0  0  0  0  0  0  0
    4.1110   -3.3190   29.1420 C   0  0  0  0  0  0  0  0  0  0  0  0
    2.8640   -3.9490   28.9670 O   0  0  0  0  0  0  0  0  0  0  0  0
    4.3170   -2.4590   30.2240 O   0  0  0  0  0  0  0  0  0  0  0  0
    3.5460   -2.4990   31.3780 C   0  0  0  0  0  0  0  0  0  0  0  0
    3.0950   -3.8250   32.0150 C   0  0  0  0  0  0  0  0  0  0  0  0
    2.0430   -2.8060   31.2170 C   0  0  0  0  0  0  0  0  0  0  0  0
    3.9040   -1.4670   32.4140 C   0  0  0  0  0  0  0  0  0  0  0  0
    5.4120   -4.8440   28.1390 C   0  0  0  0  0  0  0  0  0  0  0  0
    4.9960   -4.5640   29.5980 C   0  0  0  0  0  0  0  0  0  0  0  0
    5.1160   -5.9030   29.4770 C   0  0  0  0  0  0  0  0  0  0  0  0
    5.4570   -6.5280   28.3160 C   0  0  0  0  0  0  0  0  0  0  0  0
    5.7610   -6.0970   27.0640 N   0  0  0  0  0  0  0  0  0  0  0  0
    5.7920   -4.7700   26.7280 C   0  0  0  0  0  0  0  0  0  0  0  0
    6.8550   -2.8000   23.3990 C   0  0  0  0  0  0  0  0  0  0  0  0
    7.6360   -3.3460   22.3720 C   0  0  0  0  0  0  0  0  0  0  0  0
  1  2  1  0
  2  3  2  0
  2  4  1  0
  4  5  1  0
  5  6  1  0
  6  7  1  0
  7  8  1  0
  8  9  2  0
  8 10  1  0
 10 11  1  0
 11 12  1  0
 12 13  1  0
 13 14  1  0
 14 15  2  0
 14 16  1  0
 17 16  1  0
 17 18  1  0
 17 19  1  0
 17 20  1  0
 13 21  1  0
 21 22  2  0
 22 23  1  0
 23 24  2  0
 24 25  1  0
 10 26  1  0
 21 26  1  0
 25 26  2  0
  7 27  1  0
  4 28  1  0
 27 28  1  0
M  END
