piperidine-amides-1171-covalent
     RDKit          3D

 23 25  0  0  0  0  0  0  0  0999 V2000
    7.1140   -3.3700   19.3470 C   0  0  0  0  0  0  0  0  0  0  0  0
    6.4020   -4.2230   20.3340 C   0  0  0  0  0  0  0  0  0  0  0  0
    5.3680   -4.8180   19.9780 O   0  0  0  0  0  0  0  0  0  0  0  0
    6.9520   -4.3700   21.6230 N   0  0  0  0  0  0  0  0  0  0  0  0
    7.7210   -3.3200   22.2330 C   0  0  0  0  0  0  0  0  0  0  0  0
    6.7860   -2.6770   23.2470 C   0  0  0  0  0  0  0  0  0  0  0  0
    6.4220   -3.7280   24.2440 C   0  0  0  0  0  0  0  0  0  0  0  0
    5.8270   -3.0980   25.4480 C   0  0  0  0  0  0  0  0  0  0  0  0
    4.6420   -3.3650   25.6810 O   0  0  0  0  0  0  0  0  0  0  0  0
    6.6100   -2.2410   26.2350 N   0  0  0  0  0  0  0  0  0  0  0  0
    6.2050   -1.3110   27.2480 C   0  0  1  0  0  0  0  0  0  0  0  0
    6.8230   -1.4450   28.5190 C   0  0  0  0  0  0  0  0  0  0  0  0
    6.9250   -0.3990   29.5100 C   0  0  0  0  0  0  0  0  0  0  0  0
    7.2050    0.9230   29.1080 O   0  0  0  0  0  0  0  0  0  0  0  0
    6.6650    1.2670   27.8920 C   0  0  0  0  0  0  0  0  0  0  0  0
    6.3980    2.3630   27.1060 C   0  0  0  0  0  0  0  0  0  0  0  0
    7.3100    3.5620   27.4090 C   0  0  0  0  0  0  0  0  0  0  0  0
    6.3950    1.0510   27.7000 C   0  0  0  0  0  0  0  0  0  0  0  0
    5.1810    0.5030   27.8170 C   0  0  0  0  0  0  0  0  0  0  0  0
    5.7100   -0.9570   27.7780 C   0  0  0  0  0  0  0  0  0  0  0  0
    6.3470    0.1500   27.1290 C   0  0  0  0  0  0  0  0  0  0  0  0
    5.5930   -4.7420   23.5630 C   0  0  0  0  0  0  0  0  0  0  0  0
    6.4860   -5.4140   22.4910 C   0  0  0  0  0  0  0  0  0  0  0  0
  1  2  1  0
  2  3  2  0
  2  4  1  0
  4  5  1  0
  5  6  1  0
  6  7  1  0
  7  8  1  0
  8  9  2  0
  8 10  1  0
 11 10  1  6
 11 12  1  0
 12 13  1  0
 13 14  1  0
 14 15  1  0
 15 16  2  0
 16 17  1  0
 16 18  1  0
 18 19  2  0
 19 20  1  0
 11 21  1  0
 15 21  1  0
 20 21  2  0
  7 22  1  0
  4 23  1  0
 22 23  1  0
M  END
