piperidine-amides-15261-covalent
     RDKit          3D

 19 20  0  0  0  0  0  0  0  0999 V2000
    7.1180   -3.2470   19.1880 C   0  0  0  0  0  0  0  0  0  0  0  0
    6.3460   -4.0040   20.1860 C   0  0  0  0  0  0  0  0  0  0  0  0
    5.2820   -4.5780   19.8850 O   0  0  0  0  0  0  0  0  0  0  0  0
    6.8280   -4.1240   21.4920 N   0  0  0  0  0  0  0  0  0  0  0  0
    7.6810   -3.0870   22.0330 C   0  0  0  0  0  0  0  0  0  0  0  0
    7.5940   -3.1770   23.5540 C   0  0  0  0  0  0  0  0  0  0  0  0
    6.1410   -3.4280   23.8820 C   0  0  0  0  0  0  0  0  0  0  0  0
    5.8820   -3.1660   25.3060 C   0  0  0  0  0  0  0  0  0  0  0  0
    4.7050   -3.2260   25.7230 O   0  0  0  0  0  0  0  0  0  0  0  0
    6.9830   -2.8520   26.1410 N   0  0  0  0  0  0  0  0  0  0  0  0
    7.1270   -3.4700   27.4240 C   0  0  0  0  0  0  0  0  0  0  0  0
    7.2200   -4.9660   27.2420 C   0  0  1  0  0  0  0  0  0  0  0  0
    6.1310   -5.7920   27.2350 C   0  0  0  0  0  0  0  0  0  0  0  0
    8.1150   -5.2670   26.0200 C   0  0  0  0  0  0  0  0  0  0  0  0
    9.3510   -5.7780   26.3530 C   0  0  0  0  0  0  0  0  0  0  0  0
    9.4310   -5.7440   27.6630 O   0  0  0  0  0  0  0  0  0  0  0  0
    8.2540   -5.4130   28.2250 C   0  0  0  0  0  0  0  0  0  0  0  0
    5.8330   -4.8900   23.5530 C   0  0  0  0  0  0  0  0  0  0  0  0
    6.5670   -5.2920   22.3020 C   0  0  0  0  0  0  0  0  0  0  0  0
  1  2  1  0
  2  3  2  0
  2  4  1  0
  4  5  1  0
  5  6  1  0
  6  7  1  0
  7  8  1  0
  8  9  2  0
  8 10  1  0
 10 11  1  0
 12 11  1  0
 12 13  1  6
 12 14  1  0
 14 15  1  0
 15 16  1  0
 12 17  1  0
 16 17  1  0
  7 18  1  0
  4 19  1  0
 18 19  1  0
M  END
