piperidine-amides-34055-covalent
     RDKit          3D

 29 30  0  0  0  0  0  0  0  0999 V2000
    7.1280   -3.3400   19.3210 C   0  0  0  0  0  0  0  0  0  0  0  0
    6.4470   -4.2030   20.2900 C   0  0  0  0  0  0  0  0  0  0  0  0
    5.3910   -4.7990   19.9740 O   0  0  0  0  0  0  0  0  0  0  0  0
    7.0290   -4.4150   21.5460 N   0  0  0  0  0  0  0  0  0  0  0  0
    6.6240   -5.5450   22.3320 C   0  0  0  0  0  0  0  0  0  0  0  0
    5.6800   -4.9780   23.3960 C   0  0  0  0  0  0  0  0  0  0  0  0
    6.4490   -3.9160   24.1620 C   0  0  0  0  0  0  0  0  0  0  0  0
    5.5590   -3.2700   25.1340 C   0  0  0  0  0  0  0  0  0  0  0  0
    4.7560   -2.4210   24.7050 O   0  0  0  0  0  0  0  0  0  0  0  0
    5.5870   -3.5970   26.4960 N   0  0  0  0  0  0  0  0  0  0  0  0
    4.3330   -3.6860   27.1800 C   0  0  0  0  0  0  0  0  0  0  0  0
    4.5550   -4.7240   28.2250 C   0  0  0  0  0  0  0  0  0  0  0  0
    5.8430   -5.0400   28.3370 C   0  0  2  0  0  0  0  0  0  0  0  0
    6.0320   -6.2070   29.0140 C   0  0  0  0  0  0  0  0  0  0  0  0
    5.5340   -6.2160   30.2990 F   0  0  0  0  0  0  0  0  0  0  0  0
    7.3670   -6.4560   29.0490 F   0  0  0  0  0  0  0  0  0  0  0  0
    5.3220   -7.1540   28.3210 F   0  0  0  0  0  0  0  0  0  0  0  0
    6.4930   -3.8620   28.5470 C   0  0  2  0  0  0  0  0  0  0  0  0
    6.0690   -3.0320   29.5060 N   0  0  0  0  0  0  0  0  0  0  0  0
    6.3070   -1.6180   29.4180 C   0  0  0  0  0  0  0  0  0  0  0  0
    7.5750   -1.1500   29.3040 O   0  0  0  0  0  0  0  0  0  0  0  0
    5.2780   -0.7020   29.4510 O   0  0  0  0  0  0  0  0  0  0  0  0
    5.5650    0.6880   29.4250 C   0  0  0  0  0  0  0  0  0  0  0  0
    5.9400    1.1790   28.0460 C   0  0  0  0  0  0  0  0  0  0  0  0
    6.1050    1.3630   30.6120 C   0  0  0  0  0  0  0  0  0  0  0  0
    4.7060    1.6180   30.1070 C   0  0  0  0  0  0  0  0  0  0  0  0
    6.3880   -2.9560   27.5000 C   0  0  0  0  0  0  0  0  0  0  0  0
    6.8690   -2.7910   23.2270 C   0  0  0  0  0  0  0  0  0  0  0  0
    7.7810   -3.3690   22.1970 C   0  0  0  0  0  0  0  0  0  0  0  0
  1  2  1  0
  2  3  2  0
  2  4  1  0
  4  5  1  0
  5  6  1  0
  6  7  1  0
  7  8  1  0
  8  9  2  0
  8 10  1  0
 10 11  1  0
 11 12  1  0
 12 13  1  0
 13 14  1  1
 14 15  1  0
 14 16  1  0
 14 17  1  0
 13 18  1  0
 18 19  1  1
 19 20  1  0
 20 21  2  0
 20 22  1  0
 23 22  1  0
 23 24  1  0
 23 25  1  0
 23 26  1  0
 10 27  1  0
 18 27  1  0
  7 28  1  0
  4 29  1  0
 28 29  1  0
M  END
