piperidine-amides-11287-covalent
     RDKit          3D

 18 18  0  0  0  0  0  0  0  0999 V2000
    7.0800   -3.2790   19.2490 C   0  0  0  0  0  0  0  0  0  0  0  0
    6.3420   -4.0480   20.2540 C   0  0  0  0  0  0  0  0  0  0  0  0
    5.3060   -4.6420   19.9190 O   0  0  0  0  0  0  0  0  0  0  0  0
    6.8040   -4.1640   21.5760 N   0  0  0  0  0  0  0  0  0  0  0  0
    7.6660   -3.1500   22.1560 C   0  0  0  0  0  0  0  0  0  0  0  0
    7.3430   -3.0730   23.6210 C   0  0  0  0  0  0  0  0  0  0  0  0
    5.9970   -3.6640   23.9070 C   0  0  0  0  0  0  0  0  0  0  0  0
    5.5090   -3.3850   25.2780 C   0  0  0  0  0  0  0  0  0  0  0  0
    4.3920   -2.8160   25.4430 O   0  0  0  0  0  0  0  0  0  0  0  0
    6.2220   -3.7240   26.4410 N   0  0  0  0  0  0  0  0  0  0  0  0
    6.0590   -5.0510   27.0870 C   0  0  2  0  0  0  0  0  0  0  0  0
    4.6690   -5.4580   27.0020 C   0  0  0  0  0  0  0  0  0  0  0  0
    6.3840   -4.9670   28.5680 C   0  0  0  0  0  0  0  0  0  0  0  0
    6.8350   -3.6990   28.8270 F   0  0  0  0  0  0  0  0  0  0  0  0
    5.1770   -5.1210   29.2470 F   0  0  0  0  0  0  0  0  0  0  0  0
    7.2570   -5.9430   28.9870 F   0  0  0  0  0  0  0  0  0  0  0  0
    6.0320   -5.1520   23.6740 C   0  0  0  0  0  0  0  0  0  0  0  0
    6.6800   -5.3920   22.3280 C   0  0  0  0  0  0  0  0  0  0  0  0
  1  2  1  0
  2  3  2  0
  2  4  1  0
  4  5  1  0
  5  6  1  0
  6  7  1  0
  7  8  1  0
  8  9  2  0
  8 10  1  0
 10 11  1  0
 11 12  1  1
 11 13  1  0
 13 14  1  0
 13 15  1  0
 13 16  1  0
  7 17  1  0
  4 18  1  0
 17 18  1  0
M  END
