piperidine-amides-30-covalent
     RDKit          3D

 23 25  0  0  0  0  0  0  0  0999 V2000
    7.0800   -3.2920   19.1790 C   0  0  0  0  0  0  0  0  0  0  0  0
    6.2930   -4.0180   20.1580 C   0  0  0  0  0  0  0  0  0  0  0  0
    5.1500   -4.4110   19.8060 O   0  0  0  0  0  0  0  0  0  0  0  0
    6.7320   -4.3890   21.4390 N   0  0  0  0  0  0  0  0  0  0  0  0
    7.5630   -3.4350   22.1980 C   0  0  0  0  0  0  0  0  0  0  0  0
    6.4550   -2.8410   23.1350 C   0  0  0  0  0  0  0  0  0  0  0  0
    5.7950   -4.0390   23.7860 C   0  0  0  0  0  0  0  0  0  0  0  0
    5.4410   -3.6280   25.2660 C   0  0  0  0  0  0  0  0  0  0  0  0
    4.2430   -3.5490   25.4920 O   0  0  0  0  0  0  0  0  0  0  0  0
    6.5710   -3.4940   25.7800 N   0  0  0  0  0  0  0  0  0  0  0  0
    7.8230   -3.2710   26.1830 C   0  0  0  0  0  0  0  0  0  0  0  0
    9.0060   -2.7910   25.6980 C   0  0  0  0  0  0  0  0  0  0  0  0
    8.8740   -1.4680   25.1480 N   0  0  0  0  0  0  0  0  0  0  0  0
   10.0670   -1.1340   24.7170 N   0  0  0  0  0  0  0  0  0  0  0  0
   10.9560   -2.1330   24.9480 C   0  0  0  0  0  0  0  0  0  0  0  0
   12.3850   -2.0680   24.5810 C   0  0  1  0  0  0  0  0  0  0  0  0
   12.9640   -3.2550   25.0010 O   0  0  0  0  0  0  0  0  0  0  0  0
   11.9390   -2.0320   23.1050 C   0  0  0  0  0  0  0  0  0  0  0  0
   13.0260   -1.3750   22.7970 C   0  0  0  0  0  0  0  0  0  0  0  0
   12.9380   -2.2370   21.8030 C   0  0  0  0  0  0  0  0  0  0  0  0
   10.2930   -3.1540   25.5570 N   0  0  0  0  0  0  0  0  0  0  0  0
    6.3610   -5.3400   23.5840 C   0  0  0  0  0  0  0  0  0  0  0  0
    6.3930   -5.6100   22.0480 C   0  0  0  0  0  0  0  0  0  0  0  0
  1  2  1  0
  2  3  2  0
  2  4  1  0
  4  5  1  0
  5  6  1  0
  6  7  1  0
  7  8  1  0
  8  9  2  0
  8 10  1  0
 10 11  1  0
 11 12  1  0
 12 13  2  0
 13 14  1  0
 14 15  2  0
 15 16  1  0
 16 17  1  6
 16 18  1  0
 18 19  1  0
 18 20  1  0
 19 20  1  0
 12 21  1  0
 15 21  1  0
  7 22  1  0
  4 23  1  0
 22 23  1  0
M  END
