piperidine-amides-11531-covalent
     RDKit          3D

 21 22  0  0  0  0  0  0  0  0999 V2000
    7.1070   -3.2650   19.1890 C   0  0  0  0  0  0  0  0  0  0  0  0
    6.3330   -4.0090   20.1850 C   0  0  0  0  0  0  0  0  0  0  0  0
    5.2470   -4.5100   19.8600 O   0  0  0  0  0  0  0  0  0  0  0  0
    6.8140   -4.2220   21.4820 N   0  0  0  0  0  0  0  0  0  0  0  0
    6.4970   -5.3990   22.2530 C   0  0  0  0  0  0  0  0  0  0  0  0
    5.7250   -4.8920   23.4410 C   0  0  0  0  0  0  0  0  0  0  0  0
    6.5040   -3.8490   24.1890 C   0  0  0  0  0  0  0  0  0  0  0  0
    5.7980   -3.3690   25.4020 C   0  0  0  0  0  0  0  0  0  0  0  0
    4.5670   -3.0700   25.3510 O   0  0  0  0  0  0  0  0  0  0  0  0
    6.4380   -3.2160   26.6550 N   0  0  0  0  0  0  0  0  0  0  0  0
    6.1590   -4.1180   27.8060 C   0  0  0  0  0  0  0  0  0  0  0  0
    5.9280   -5.5110   27.3270 C   0  0  0  0  0  0  0  0  0  0  0  0
    4.8680   -6.3220   27.9440 C   0  0  0  0  0  0  0  0  0  0  0  0
    3.4790   -6.3650   27.3870 N   0  0  0  0  0  0  0  0  0  0  0  0
    2.7820   -7.2040   28.1970 N   0  0  0  0  0  0  0  0  0  0  0  0
    1.4690   -7.4220   27.8980 C   0  0  0  0  0  0  0  0  0  0  0  0
    3.5460   -7.6830   29.1730 C   0  0  0  0  0  0  0  0  0  0  0  0
    4.9040   -7.2290   29.1700 C   0  0  0  0  0  0  0  0  0  0  0  0
    5.9080   -7.5470   30.0390 C   0  0  0  0  0  0  0  0  0  0  0  0
    6.8500   -2.6810   23.3060 C   0  0  0  0  0  0  0  0  0  0  0  0
    7.6250   -3.2030   22.1240 C   0  0  0  0  0  0  0  0  0  0  0  0
  1  2  1  0
  2  3  2  0
  2  4  1  0
  4  5  1  0
  5  6  1  0
  6  7  1  0
  7  8  1  0
  8  9  2  0
  8 10  1  0
 10 11  1  0
 11 12  1  0
 12 13  1  0
 13 14  2  0
 14 15  1  0
 15 16  1  0
 15 17  1  0
 13 18  1  0
 17 18  2  0
 18 19  1  0
  7 20  1  0
  4 21  1  0
 20 21  1  0
M  END
