piperidine-amides-8898-covalent
     RDKit          3D

 22 23  0  0  0  0  0  0  0  0999 V2000
    7.0410   -3.3350   19.3090 C   0  0  0  0  0  0  0  0  0  0  0  0
    6.3800   -4.1720   20.3120 C   0  0  0  0  0  0  0  0  0  0  0  0
    5.3660   -4.8000   19.9680 O   0  0  0  0  0  0  0  0  0  0  0  0
    6.9170   -4.2960   21.6240 N   0  0  0  0  0  0  0  0  0  0  0  0
    7.7000   -3.2300   22.1880 C   0  0  0  0  0  0  0  0  0  0  0  0
    6.9680   -2.6260   23.3450 C   0  0  0  0  0  0  0  0  0  0  0  0
    6.5330   -3.7890   24.1970 C   0  0  0  0  0  0  0  0  0  0  0  0
    5.6040   -3.3010   25.2740 C   0  0  0  0  0  0  0  0  0  0  0  0
    4.5200   -2.8780   24.8860 O   0  0  0  0  0  0  0  0  0  0  0  0
    6.0040   -3.3550   26.6100 N   0  0  0  0  0  0  0  0  0  0  0  0
    6.1600   -4.6080   27.3050 C   0  0  0  0  0  0  0  0  0  0  0  0
    5.1890   -5.0750   28.1670 C   0  0  0  0  0  0  0  0  0  0  0  0
    4.9800   -6.4890   27.7510 N   0  0  0  0  0  0  0  0  0  0  0  0
    6.2240   -2.0800   27.3210 C   0  0  0  0  0  0  0  0  0  0  0  0
    5.7870   -0.9100   26.6310 C   0  0  0  0  0  0  0  0  0  0  0  0
    5.9840    0.4340   27.3410 C   0  0  0  0  0  0  0  0  0  0  0  0
    6.6220    0.5860   28.7440 C   0  0  0  0  0  0  0  0  0  0  0  0
    6.9810   -0.7510   29.2150 C   0  0  0  0  0  0  0  0  0  0  0  0
    6.3490   -0.7500   27.8710 C   0  0  0  0  0  0  0  0  0  0  0  0
    6.7970   -2.0230   28.5480 N   0  0  0  0  0  0  0  0  0  0  0  0
    5.8520   -4.8930   23.4980 C   0  0  0  0  0  0  0  0  0  0  0  0
    6.6040   -5.4240   22.4720 C   0  0  0  0  0  0  0  0  0  0  0  0
  1  2  1  0
  2  3  2  0
  2  4  1  0
  4  5  1  0
  5  6  1  0
  6  7  1  0
  7  8  1  0
  8  9  2  0
  8 10  1  0
 10 11  1  0
 11 12  1  0
 12 13  1  0
 10 14  1  0
 14 15  2  0
 15 16  1  0
 16 17  2  0
 17 18  1  0
 18 19  1  0
 14 20  1  0
 18 20  2  0
  7 21  1  0
  4 22  1  0
 21 22  1  0
M  END
