piperidine-amides-10170-covalent
     RDKit          3D

 25 26  0  0  0  0  0  0  0  0999 V2000
    7.1200   -3.2650   19.1570 C   0  0  0  0  0  0  0  0  0  0  0  0
    6.3840   -4.0090   20.1880 C   0  0  0  0  0  0  0  0  0  0  0  0
    5.2710   -4.4890   19.8550 O   0  0  0  0  0  0  0  0  0  0  0  0
    6.9410   -4.2120   21.4480 N   0  0  0  0  0  0  0  0  0  0  0  0
    6.6030   -5.3680   22.2370 C   0  0  0  0  0  0  0  0  0  0  0  0
    5.8790   -4.8780   23.4570 C   0  0  0  0  0  0  0  0  0  0  0  0
    6.6490   -3.8040   24.1780 C   0  0  0  0  0  0  0  0  0  0  0  0
    5.8020   -3.2260   25.2270 C   0  0  0  0  0  0  0  0  0  0  0  0
    4.5720   -3.1270   25.0190 O   0  0  0  0  0  0  0  0  0  0  0  0
    6.3180   -2.7840   26.4460 N   0  0  0  0  0  0  0  0  0  0  0  0
    5.7800   -3.2630   27.6810 C   0  0  0  0  0  0  0  0  0  0  0  0
    5.0480   -4.6020   27.5800 C   0  0  2  0  0  0  0  0  0  0  0  0
    3.7950   -4.6260   27.6950 O   0  0  0  0  0  0  0  0  0  0  0  0
    5.4740   -5.5720   28.4020 C   0  0  0  0  0  0  0  0  0  0  0  0
    6.2370   -5.5920   29.4540 C   0  0  0  0  0  0  0  0  0  0  0  0
    6.5200   -6.8050   30.0630 C   0  0  0  0  0  0  0  0  0  0  0  0
    6.1900   -8.0530   29.7830 C   0  0  0  0  0  0  0  0  0  0  0  0
    6.7680   -9.0240   30.5850 O   0  0  0  0  0  0  0  0  0  0  0  0
    7.6410  -10.3270   30.4020 C   0  0  0  0  0  0  0  0  0  0  0  0
    8.7730  -10.7220   29.5230 C   0  0  0  0  0  0  0  0  0  0  0  0
    7.7810  -11.1050   31.5590 C   0  0  0  0  0  0  0  0  0  0  0  0
    5.3370   -8.1090   28.7400 C   0  0  0  0  0  0  0  0  0  0  0  0
    4.9600   -6.8580   28.0080 C   0  0  0  0  0  0  0  0  0  0  0  0
    7.1300   -2.6920   23.3190 C   0  0  0  0  0  0  0  0  0  0  0  0
    7.7400   -3.1770   22.0370 C   0  0  0  0  0  0  0  0  0  0  0  0
  1  2  1  0
  2  3  2  0
  2  4  1  0
  4  5  1  0
  5  6  1  0
  6  7  1  0
  7  8  1  0
  8  9  2  0
  8 10  1  0
 10 11  1  0
 11 12  1  0
 12 13  1  1
 12 14  1  0
 14 15  2  0
 15 16  1  0
 16 17  2  0
 17 18  1  0
 18 19  1  0
 19 20  1  0
 19 21  1  0
 17 22  1  0
 14 23  1  0
 22 23  2  0
  7 24  1  0
  4 25  1  0
 24 25  1  0
M  END
