piperidine-amides-2057-covalent
     RDKit          3D

 19 21  0  0  0  0  0  0  0  0999 V2000
    7.0620   -3.3210   19.2510 C   0  0  0  0  0  0  0  0  0  0  0  0
    6.3750   -4.1510   20.2710 C   0  0  0  0  0  0  0  0  0  0  0  0
    5.3330   -4.7060   19.9370 O   0  0  0  0  0  0  0  0  0  0  0  0
    6.9430   -4.3200   21.5330 N   0  0  0  0  0  0  0  0  0  0  0  0
    7.6640   -3.2480   22.1710 C   0  0  0  0  0  0  0  0  0  0  0  0
    6.8640   -2.7510   23.3340 C   0  0  0  0  0  0  0  0  0  0  0  0
    6.5510   -3.9340   24.2440 C   0  0  0  0  0  0  0  0  0  0  0  0
    5.7120   -3.4400   25.3530 C   0  0  0  0  0  0  0  0  0  0  0  0
    4.4820   -3.4140   25.2250 O   0  0  0  0  0  0  0  0  0  0  0  0
    6.2900   -2.9940   26.5560 N   0  0  0  0  0  0  0  0  0  0  0  0
    6.6570   -1.6010   26.6340 C   0  0  2  0  0  0  0  0  0  0  0  0
    6.7350   -1.2910   27.9490 C   0  0  0  0  0  0  0  0  0  0  0  0
    5.7050   -0.5420   27.3550 C   0  0  1  0  0  0  0  0  0  0  0  0
    5.8950    0.3120   26.3160 C   0  0  2  0  0  0  0  0  0  0  0  0
    4.9820    0.4180   25.4360 C   0  0  0  0  0  0  0  0  0  0  0  0
    6.0110   -0.2270   24.7800 C   0  0  1  0  0  0  0  0  0  0  0  0
    5.7920    0.6710   23.6020 C   0  0  0  0  0  0  0  0  0  0  0  0
    5.8780   -5.0620   23.5740 C   0  0  0  0  0  0  0  0  0  0  0  0
    6.4990   -5.4550   22.2840 C   0  0  0  0  0  0  0  0  0  0  0  0
  1  2  1  0
  2  3  2  0
  2  4  1  0
  4  5  1  0
  5  6  1  0
  6  7  1  0
  7  8  1  0
  8  9  2  0
  8 10  1  0
 11 10  1  1
 11 12  1  0
 11 13  1  0
 13 12  1  1
 13 14  1  0
 14 15  1  6
 14 16  1  0
 15 16  1  0
 16 17  1  6
  7 18  1  0
  4 19  1  0
 18 19  1  0
M  END
