piperidine-amides-13284-covalent
     RDKit          3D

 23 26  0  0  0  0  0  0  0  0999 V2000
    7.0460   -3.3330   19.2840 C   0  0  0  0  0  0  0  0  0  0  0  0
    6.3810   -4.1540   20.3220 C   0  0  0  0  0  0  0  0  0  0  0  0
    5.3500   -4.7550   19.9570 O   0  0  0  0  0  0  0  0  0  0  0  0
    6.9040   -4.2960   21.6250 N   0  0  0  0  0  0  0  0  0  0  0  0
    7.6820   -3.2610   22.2400 C   0  0  0  0  0  0  0  0  0  0  0  0
    7.3400   -3.0560   23.6460 C   0  0  0  0  0  0  0  0  0  0  0  0
    6.1090   -3.7780   24.0120 C   0  0  0  0  0  0  0  0  0  0  0  0
    5.6500   -3.5260   25.4000 C   0  0  0  0  0  0  0  0  0  0  0  0
    4.5740   -4.0530   25.7230 O   0  0  0  0  0  0  0  0  0  0  0  0
    6.3130   -2.7100   26.3360 N   0  0  0  0  0  0  0  0  0  0  0  0
    5.5170   -1.6480   26.9910 C   0  0  2  0  0  0  0  0  0  0  0  0
    6.1620   -0.3000   27.0980 C   0  0  1  0  0  0  0  0  0  0  0  0
    5.1630    0.4950   27.7680 C   0  0  0  0  0  0  0  0  0  0  0  0
    5.2230   -0.2900   28.8600 C   0  0  2  0  0  0  0  0  0  0  0  0
    6.3670   -0.7010   28.9910 C   0  0  2  0  0  0  0  0  0  0  0  0
    7.1710   -0.2020   28.0520 C   0  0  0  0  0  0  0  0  0  0  0  0
    5.2900   -1.6390   28.4470 C   0  0  1  0  0  0  0  0  0  0  0  0
    5.4480   -2.7210   29.2610 C   0  0  0  0  0  0  0  0  0  0  0  0
    6.2410   -3.7700   28.9370 O   0  0  0  0  0  0  0  0  0  0  0  0
    4.7730   -2.7260   30.4570 O   0  0  0  0  0  0  0  0  0  0  0  0
    3.5880   -3.4280   30.4460 C   0  0  0  0  0  0  0  0  0  0  0  0
    6.1000   -5.2310   23.7210 C   0  0  0  0  0  0  0  0  0  0  0  0
    6.7400   -5.5360   22.3820 C   0  0  0  0  0  0  0  0  0  0  0  0
  1  2  1  0
  2  3  2  0
  2  4  1  0
  4  5  1  0
  5  6  1  0
  6  7  1  0
  7  8  1  0
  8  9  2  0
  8 10  1  0
 11 10  1  1
 11 12  1  0
 12 13  1  1
 14 13  1  6
 14 15  1  0
 12 16  1  0
 15 16  1  6
 11 17  1  0
 14 17  1  0
 15 17  1  0
 17 18  1  1
 18 19  2  0
 18 20  1  0
 20 21  1  0
  7 22  1  0
  4 23  1  0
 22 23  1  0
M  END
