piperidine-amides-505-covalent
     RDKit          3D

 27 28  0  0  0  0  0  0  0  0999 V2000
    7.0380   -3.3810   19.3180 C   0  0  0  0  0  0  0  0  0  0  0  0
    6.3710   -4.1350   20.3560 C   0  0  0  0  0  0  0  0  0  0  0  0
    5.3990   -4.8700   19.9930 O   0  0  0  0  0  0  0  0  0  0  0  0
    6.7690   -4.1330   21.7140 N   0  0  0  0  0  0  0  0  0  0  0  0
    7.6170   -3.0100   22.1970 C   0  0  0  0  0  0  0  0  0  0  0  0
    7.6730   -3.2750   23.7560 C   0  0  0  0  0  0  0  0  0  0  0  0
    6.2840   -3.7160   24.1440 C   0  0  0  0  0  0  0  0  0  0  0  0
    5.9740   -3.6810   25.7100 C   0  0  0  0  0  0  0  0  0  0  0  0
    5.5610   -4.7680   26.0600 O   0  0  0  0  0  0  0  0  0  0  0  0
    6.1900   -2.5340   26.2130 N   0  0  0  0  0  0  0  0  0  0  0  0
    6.1910   -1.2850   26.7590 C   0  0  0  0  0  0  0  0  0  0  0  0
    5.8010   -0.0690   26.2730 C   0  0  0  0  0  0  0  0  0  0  0  0
    5.8460    1.1390   26.9780 C   0  0  0  0  0  0  0  0  0  0  0  0
    6.3130    1.3080   28.3430 C   0  0  0  0  0  0  0  0  0  0  0  0
    6.2930    2.5780   28.9150 F   0  0  0  0  0  0  0  0  0  0  0  0
    6.7540   -0.0460   28.8860 C   0  0  0  0  0  0  0  0  0  0  0  0
    7.2980    0.2630   30.5430 S   0  0  0  0  0  0  0  0  0  0  0  0
    6.8960    1.6290   30.9220 O   0  0  0  0  0  0  0  0  0  0  0  0
    6.6640   -0.7640   31.3950 O   0  0  0  0  0  0  0  0  0  0  0  0
    9.0390    0.2080   30.5210 N   0  0  0  0  0  0  0  0  0  0  0  0
    9.6690    1.1050   31.4220 C   0  0  0  0  0  0  0  0  0  0  0  0
   10.5710    0.6450   32.4010 C   0  0  0  0  0  0  0  0  0  0  0  0
   11.1210    1.1940   31.0960 C   0  0  0  0  0  0  0  0  0  0  0  0
    9.0480    2.4190   31.8030 C   0  0  0  0  0  0  0  0  0  0  0  0
    6.7400   -1.3230   28.2250 C   0  0  0  0  0  0  0  0  0  0  0  0
    5.8600   -5.0570   23.5500 C   0  0  0  0  0  0  0  0  0  0  0  0
    6.6540   -5.3340   22.4900 C   0  0  0  0  0  0  0  0  0  0  0  0
  1  2  1  0
  2  3  2  0
  2  4  1  0
  4  5  1  0
  5  6  1  0
  6  7  1  0
  7  8  1  0
  8  9  2  0
  8 10  1  0
 10 11  1  0
 11 12  2  0
 12 13  1  0
 13 14  2  0
 14 15  1  0
 14 16  1  0
 16 17  1  0
 17 18  2  0
 17 19  2  0
 17 20  1  0
 21 20  1  0
 21 22  1  0
 21 23  1  0
 21 24  1  0
 11 25  1  0
 16 25  2  0
  7 26  1  0
  4 27  1  0
 26 27  1  0
M  END
