piperidine-amides-973-covalent
     RDKit          3D

 24 26  0  0  0  0  0  0  0  0999 V2000
    7.1070   -3.3150   19.2650 C   0  0  0  0  0  0  0  0  0  0  0  0
    6.3750   -4.1430   20.2570 C   0  0  0  0  0  0  0  0  0  0  0  0
    5.3070   -4.6840   19.9300 O   0  0  0  0  0  0  0  0  0  0  0  0
    6.9460   -4.3460   21.5240 N   0  0  0  0  0  0  0  0  0  0  0  0
    7.7440   -3.3400   22.1890 C   0  0  0  0  0  0  0  0  0  0  0  0
    6.8760   -2.7550   23.2930 C   0  0  0  0  0  0  0  0  0  0  0  0
    6.5470   -3.8860   24.1970 C   0  0  0  0  0  0  0  0  0  0  0  0
    5.7540   -3.4700   25.3630 C   0  0  0  0  0  0  0  0  0  0  0  0
    4.5220   -3.5420   25.2570 O   0  0  0  0  0  0  0  0  0  0  0  0
    6.4010   -3.0150   26.5100 N   0  0  0  0  0  0  0  0  0  0  0  0
    6.3370   -1.6830   27.0230 C   0  0  0  0  0  0  0  0  0  0  0  0
    5.8850   -0.6630   26.5250 C   0  0  0  0  0  0  0  0  0  0  0  0
    5.9820    0.4500   27.3110 C   0  0  0  0  0  0  0  0  0  0  0  0
    6.4610    0.8360   28.5950 C   0  0  0  0  0  0  0  0  0  0  0  0
    5.8610    1.2750   27.4590 C   0  0  0  0  0  0  0  0  0  0  0  0
    5.8660   -0.1280   26.7150 C   0  0  0  0  0  0  0  0  0  0  0  0
    5.3190   -0.1800   25.4130 O   0  0  0  0  0  0  0  0  0  0  0  0
    5.9700    0.3970   24.2980 C   0  0  0  0  0  0  0  0  0  0  0  0
    6.4610   -1.4190   27.3980 C   0  0  0  0  0  0  0  0  0  0  0  0
    7.1460   -1.6840   28.8380 C   0  0  0  0  0  0  0  0  0  0  0  0
    6.9620   -0.3250   29.1290 C   0  0  0  0  0  0  0  0  0  0  0  0
    6.8070   -1.3920   28.2250 C   0  0  0  0  0  0  0  0  0  0  0  0
    5.8170   -5.0270   23.5620 C   0  0  0  0  0  0  0  0  0  0  0  0
    6.5330   -5.4830   22.3210 C   0  0  0  0  0  0  0  0  0  0  0  0
  1  2  1  0
  2  3  2  0
  2  4  1  0
  4  5  1  0
  5  6  1  0
  6  7  1  0
  7  8  1  0
  8  9  2  0
  8 10  1  0
 10 11  1  0
 11 12  2  0
 12 13  1  0
 13 14  2  0
 14 15  1  0
 15 16  2  0
 16 17  1  0
 17 18  1  0
 16 19  1  0
 19 20  2  0
 14 21  1  0
 20 21  1  0
 11 22  1  0
 21 22  2  0
  7 23  1  0
  4 24  1  0
 23 24  1  0
M  END
