piperidine-amides-1542-covalent
     RDKit          3D

 21 22  0  0  0  0  0  0  0  0999 V2000
    7.0250   -3.3300   19.3580 C   0  0  0  0  0  0  0  0  0  0  0  0
    6.3460   -4.2020   20.3600 C   0  0  0  0  0  0  0  0  0  0  0  0
    5.3750   -4.8820   19.9870 O   0  0  0  0  0  0  0  0  0  0  0  0
    6.8320   -4.2700   21.6890 N   0  0  0  0  0  0  0  0  0  0  0  0
    6.7240   -5.4950   22.4520 C   0  0  0  0  0  0  0  0  0  0  0  0
    5.9580   -5.1540   23.7290 C   0  0  0  0  0  0  0  0  0  0  0  0
    6.1080   -3.6860   23.8980 C   0  0  0  0  0  0  0  0  0  0  0  0
    5.6830   -3.1890   25.2300 C   0  0  0  0  0  0  0  0  0  0  0  0
    4.4750   -3.2850   25.4830 O   0  0  0  0  0  0  0  0  0  0  0  0
    6.6050   -2.6460   26.1280 N   0  0  0  0  0  0  0  0  0  0  0  0
    6.4410   -1.4820   26.9260 C   0  0  0  0  0  0  0  0  0  0  0  0
    6.0760   -0.2170   26.4010 C   0  0  0  0  0  0  0  0  0  0  0  0
    5.9200    0.9180   27.2150 C   0  0  0  0  0  0  0  0  0  0  0  0
    5.5700    2.2240   26.8910 O   0  0  0  0  0  0  0  0  0  0  0  0
    4.2780    2.7230   26.9350 C   0  0  0  0  0  0  0  0  0  0  0  0
    6.2050    0.4770   28.5540 C   0  0  0  0  0  0  0  0  0  0  0  0
    6.5600   -0.6140   29.2910 N   0  0  0  0  0  0  0  0  0  0  0  0
    6.6780   -1.6910   28.3380 C   0  0  0  0  0  0  0  0  0  0  0  0
    7.0170   -2.9900   28.7440 F   0  0  0  0  0  0  0  0  0  0  0  0
    7.4820   -3.1800   23.5820 C   0  0  0  0  0  0  0  0  0  0  0  0
    7.6070   -3.1570   22.2030 C   0  0  0  0  0  0  0  0  0  0  0  0
  1  2  1  0
  2  3  2  0
  2  4  1  0
  4  5  1  0
  5  6  1  0
  6  7  1  0
  7  8  1  0
  8  9  2  0
  8 10  1  0
 10 11  1  0
 11 12  2  0
 12 13  1  0
 13 14  1  0
 14 15  1  0
 13 16  2  0
 16 17  1  0
 11 18  1  0
 17 18  2  0
 18 19  1  0
  7 20  1  0
  4 21  1  0
 20 21  1  0
M  END
