piperidine-amides-2723-covalent
     RDKit          3D

 25 27  0  0  0  0  0  0  0  0999 V2000
    7.0920   -3.2950   19.2490 C   0  0  0  0  0  0  0  0  0  0  0  0
    6.3480   -4.0620   20.2430 C   0  0  0  0  0  0  0  0  0  0  0  0
    5.2980   -4.6130   19.9130 O   0  0  0  0  0  0  0  0  0  0  0  0
    6.8560   -4.2330   21.5780 N   0  0  0  0  0  0  0  0  0  0  0  0
    6.5300   -5.4150   22.3220 C   0  0  0  0  0  0  0  0  0  0  0  0
    5.8020   -5.0280   23.5780 C   0  0  0  0  0  0  0  0  0  0  0  0
    6.5100   -3.8360   24.2160 C   0  0  0  0  0  0  0  0  0  0  0  0
    5.6940   -3.3270   25.3600 C   0  0  0  0  0  0  0  0  0  0  0  0
    4.6200   -2.7220   25.1800 O   0  0  0  0  0  0  0  0  0  0  0  0
    6.1350   -3.5220   26.6960 N   0  0  0  0  0  0  0  0  0  0  0  0
    6.0990   -4.8510   27.2810 C   0  0  0  0  0  0  0  0  0  0  0  0
    4.7340   -5.1660   27.7640 C   0  0  0  0  0  0  0  0  0  0  0  0
    4.3070   -6.4790   27.7390 C   0  0  0  0  0  0  0  0  0  0  0  0
    4.8850   -7.3700   28.4010 O   0  0  0  0  0  0  0  0  0  0  0  0
    3.1660   -6.7250   26.9050 N   0  0  0  0  0  0  0  0  0  0  0  0
    3.4670   -6.9430   25.5190 C   0  0  0  0  0  0  0  0  0  0  0  0
    2.5100   -7.6750   24.8620 C   0  0  0  0  0  0  0  0  0  0  0  0
    1.8080   -8.6080   25.7250 C   0  0  0  0  0  0  0  0  0  0  0  0
    1.0530  -10.1510   25.5390 S   0  0  0  0  0  0  0  0  0  0  0  0
    0.4940  -10.4520   27.1290 C   0  0  0  0  0  0  0  0  0  0  0  0
    0.9240   -9.3270   27.7480 C   0  0  0  0  0  0  0  0  0  0  0  0
    1.6040   -8.3520   27.0660 C   0  0  0  0  0  0  0  0  0  0  0  0
    2.1040   -7.1070   27.6660 C   0  0  0  0  0  0  0  0  0  0  0  0
    6.8100   -2.7150   23.2340 C   0  0  0  0  0  0  0  0  0  0  0  0
    7.6280   -3.2090   22.2250 C   0  0  0  0  0  0  0  0  0  0  0  0
  1  2  1  0
  2  3  2  0
  2  4  1  0
  4  5  1  0
  5  6  1  0
  6  7  1  0
  7  8  1  0
  8  9  2  0
  8 10  1  0
 10 11  1  0
 11 12  1  0
 12 13  1  0
 13 14  2  0
 13 15  1  0
 15 16  1  0
 16 17  1  0
 17 18  1  0
 18 19  1  0
 19 20  1  0
 20 21  2  0
 18 22  2  0
 21 22  1  0
 15 23  1  0
 22 23  1  0
  7 24  1  0
  4 25  1  0
 24 25  1  0
M  END
