piperidine-amides-12049-covalent
     RDKit          3D

 25 26  0  0  0  0  0  0  0  0999 V2000
    7.0780   -3.2870   19.2180 C   0  0  0  0  0  0  0  0  0  0  0  0
    6.3200   -4.0460   20.2080 C   0  0  0  0  0  0  0  0  0  0  0  0
    5.2600   -4.5740   19.8890 O   0  0  0  0  0  0  0  0  0  0  0  0
    6.8280   -4.2380   21.5370 N   0  0  0  0  0  0  0  0  0  0  0  0
    6.4580   -5.4220   22.2610 C   0  0  0  0  0  0  0  0  0  0  0  0
    5.6960   -5.0320   23.4960 C   0  0  0  0  0  0  0  0  0  0  0  0
    6.3850   -3.8370   24.1460 C   0  0  0  0  0  0  0  0  0  0  0  0
    5.4940   -3.3260   25.2250 C   0  0  0  0  0  0  0  0  0  0  0  0
    4.2640   -3.2040   25.0740 O   0  0  0  0  0  0  0  0  0  0  0  0
    6.0490   -2.9550   26.4660 N   0  0  0  0  0  0  0  0  0  0  0  0
    6.6130   -3.9860   27.2940 C   0  0  1  0  0  0  0  0  0  0  0  0
    5.8010   -5.2510   27.2510 C   0  0  0  0  0  0  0  0  0  0  0  0
    7.9120   -4.3240   26.7600 C   0  0  0  0  0  0  0  0  0  0  0  0
    8.4060   -5.5540   27.1290 C   0  0  0  0  0  0  0  0  0  0  0  0
    9.6090   -5.9000   26.6630 C   0  0  0  0  0  0  0  0  0  0  0  0
   10.3220   -4.9790   25.8210 C   0  0  0  0  0  0  0  0  0  0  0  0
    9.9360   -3.7480   25.3880 C   0  0  0  0  0  0  0  0  0  0  0  0
   10.5980   -2.9170   24.6090 O   0  0  0  0  0  0  0  0  0  0  0  0
   11.8250   -2.2590   24.2840 C   0  0  0  0  0  0  0  0  0  0  0  0
   12.7970   -2.4330   25.2140 F   0  0  0  0  0  0  0  0  0  0  0  0
   11.6430   -0.9150   24.0780 F   0  0  0  0  0  0  0  0  0  0  0  0
   12.2230   -2.7470   23.0480 F   0  0  0  0  0  0  0  0  0  0  0  0
    8.5690   -3.4330   25.9420 C   0  0  0  0  0  0  0  0  0  0  0  0
    6.7840   -2.7570   23.2540 C   0  0  0  0  0  0  0  0  0  0  0  0
    7.5870   -3.2410   22.2390 C   0  0  0  0  0  0  0  0  0  0  0  0
  1  2  1  0
  2  3  2  0
  2  4  1  0
  4  5  1  0
  5  6  1  0
  6  7  1  0
  7  8  1  0
  8  9  2  0
  8 10  1  0
 10 11  1  0
 11 12  1  6
 11 13  1  0
 13 14  2  0
 14 15  1  0
 15 16  2  0
 16 17  1  0
 17 18  1  0
 18 19  1  0
 19 20  1  0
 19 21  1  0
 19 22  1  0
 13 23  1  0
 17 23  2  0
  7 24  1  0
  4 25  1  0
 24 25  1  0
M  END
