piperidine-amides-33641-covalent
     RDKit          3D

 30 33  0  0  0  0  0  0  0  0999 V2000
    7.0990   -3.3140   19.2490 C   0  0  0  0  0  0  0  0  0  0  0  0
    6.3900   -4.1110   20.2620 C   0  0  0  0  0  0  0  0  0  0  0  0
    5.3020   -4.6230   19.9120 O   0  0  0  0  0  0  0  0  0  0  0  0
    6.9410   -4.3540   21.5450 N   0  0  0  0  0  0  0  0  0  0  0  0
    7.6170   -3.2800   22.1960 C   0  0  0  0  0  0  0  0  0  0  0  0
    7.1190   -2.9010   23.5190 C   0  0  0  0  0  0  0  0  0  0  0  0
    6.4060   -3.9450   24.2940 C   0  0  0  0  0  0  0  0  0  0  0  0
    5.5660   -3.3390   25.3810 C   0  0  0  0  0  0  0  0  0  0  0  0
    4.4110   -2.9800   25.0870 O   0  0  0  0  0  0  0  0  0  0  0  0
    5.9990   -3.1420   26.7210 N   0  0  0  0  0  0  0  0  0  0  0  0
    6.1720   -1.8270   27.2500 C   0  0  0  0  0  0  0  0  0  0  0  0
    5.7480   -0.5970   26.6370 C   0  0  0  0  0  0  0  0  0  0  0  0
    5.9390    0.8000   27.2950 C   0  0  0  0  0  0  0  0  0  0  0  0
    6.5640    0.8740   28.5640 C   0  0  0  0  0  0  0  0  0  0  0  0
    7.0250   -0.4330   29.2110 C   0  0  0  0  0  0  0  0  0  0  0  0
    6.8220   -1.7350   28.5440 C   0  0  0  0  0  0  0  0  0  0  0  0
    7.7020   -0.3230   30.5870 C   0  0  0  0  0  0  0  0  0  0  0  0
    7.9590    1.0910   31.0970 C   0  0  0  0  0  0  0  0  0  0  0  0
    6.8990    2.0490   30.5240 C   0  0  0  0  0  0  0  0  0  0  0  0
    6.1980    2.7590   31.2890 O   0  0  0  0  0  0  0  0  0  0  0  0
    6.7410    2.1110   29.1840 N   0  0  0  0  0  0  0  0  0  0  0  0
    5.3700   -4.0980   27.6410 C   0  0  0  0  0  0  0  0  0  0  0  0
    6.1900   -5.2870   28.0080 C   0  0  0  0  0  0  0  0  0  0  0  0
    5.5230   -6.1730   28.8380 C   0  0  0  0  0  0  0  0  0  0  0  0
    4.2700   -6.5640   28.3140 N   0  0  0  0  0  0  0  0  0  0  0  0
    3.5890   -7.4680   29.2030 C   0  0  0  0  0  0  0  0  0  0  0  0
    3.4490   -5.4220   28.0700 C   0  0  0  0  0  0  0  0  0  0  0  0
    4.1390   -4.5430   27.2260 C   0  0  0  0  0  0  0  0  0  0  0  0
    5.5600   -4.7820   23.3690 C   0  0  0  0  0  0  0  0  0  0  0  0
    6.4080   -5.4400   22.3100 C   0  0  0  0  0  0  0  0  0  0  0  0
  1  2  1  0
  2  3  2  0
  2  4  1  0
  4  5  1  0
  5  6  1  0
  6  7  1  0
  7  8  1  0
  8  9  2  0
  8 10  1  0
 10 11  1  0
 11 12  2  0
 12 13  1  0
 13 14  2  0
 14 15  1  0
 11 16  1  0
 15 16  2  0
 15 17  1  0
 17 18  1  0
 18 19  1  0
 19 20  2  0
 14 21  1  0
 19 21  1  0
 10 22  1  0
 22 23  1  0
 23 24  1  0
 24 25  1  0
 25 26  1  0
 25 27  1  0
 22 28  1  0
 27 28  1  0
  7 29  1  0
  4 30  1  0
 29 30  1  0
M  END
