piperidine-amides-11979-covalent
     RDKit          3D

 26 28  0  0  0  0  0  0  0  0999 V2000
    7.0770   -3.2850   19.2120 C   0  0  0  0  0  0  0  0  0  0  0  0
    6.3260   -4.0260   20.2210 C   0  0  0  0  0  0  0  0  0  0  0  0
    5.2890   -4.6060   19.9070 O   0  0  0  0  0  0  0  0  0  0  0  0
    6.8150   -4.1290   21.5690 N   0  0  0  0  0  0  0  0  0  0  0  0
    6.6190   -5.3590   22.2890 C   0  0  0  0  0  0  0  0  0  0  0  0
    5.9460   -5.0610   23.5960 C   0  0  0  0  0  0  0  0  0  0  0  0
    6.2380   -3.6090   23.9130 C   0  0  0  0  0  0  0  0  0  0  0  0
    5.9700   -3.3090   25.3460 C   0  0  0  0  0  0  0  0  0  0  0  0
    4.8230   -3.0380   25.7530 O   0  0  0  0  0  0  0  0  0  0  0  0
    7.0530   -3.3340   26.2700 N   0  0  0  0  0  0  0  0  0  0  0  0
    7.5370   -4.6030   26.7580 C   0  0  0  0  0  0  0  0  0  0  0  0
    6.6660   -5.0300   27.9140 C   0  0  0  0  0  0  0  0  0  0  0  0
    5.6100   -4.3590   28.3880 N   0  0  0  0  0  0  0  0  0  0  0  0
    5.1990   -5.1510   29.3870 C   0  0  0  0  0  0  0  0  0  0  0  0
    4.1120   -5.0060   30.2920 C   0  0  0  0  0  0  0  0  0  0  0  0
    3.8050   -5.9300   31.3020 C   0  0  0  0  0  0  0  0  0  0  0  0
    2.8370   -5.7270   32.0510 O   0  0  0  0  0  0  0  0  0  0  0  0
    1.7950   -6.5620   32.3930 C   0  0  0  0  0  0  0  0  0  0  0  0
    4.5440   -7.0660   31.4970 C   0  0  0  0  0  0  0  0  0  0  0  0
    4.2070   -7.9500   32.5140 O   0  0  0  0  0  0  0  0  0  0  0  0
    5.2500   -8.5210   33.2740 C   0  0  0  0  0  0  0  0  0  0  0  0
    5.7010   -7.2890   30.5800 C   0  0  0  0  0  0  0  0  0  0  0  0
    5.9430   -6.2850   29.5690 C   0  0  0  0  0  0  0  0  0  0  0  0
    6.8970   -6.1690   28.5780 N   0  0  0  0  0  0  0  0  0  0  0  0
    7.6380   -3.2080   23.5040 C   0  0  0  0  0  0  0  0  0  0  0  0
    7.6540   -3.0860   22.1190 C   0  0  0  0  0  0  0  0  0  0  0  0
  1  2  1  0
  2  3  2  0
  2  4  1  0
  4  5  1  0
  5  6  1  0
  6  7  1  0
  7  8  1  0
  8  9  2  0
  8 10  1  0
 10 11  1  0
 11 12  1  0
 12 13  2  0
 13 14  1  0
 14 15  2  0
 15 16  1  0
 16 17  1  0
 17 18  1  0
 16 19  2  0
 19 20  1  0
 20 21  1  0
 19 22  1  0
 14 23  1  0
 22 23  2  0
 12 24  1  0
 23 24  1  0
  7 25  1  0
  4 26  1  0
 25 26  1  0
M  END
