piperidine-amides-10001-covalent
     RDKit          3D

 26 27  0  0  0  0  0  0  0  0999 V2000
    7.1410   -3.2870   19.2200 C   0  0  0  0  0  0  0  0  0  0  0  0
    6.3820   -3.9960   20.2530 C   0  0  0  0  0  0  0  0  0  0  0  0
    5.3020   -4.5310   19.8850 O   0  0  0  0  0  0  0  0  0  0  0  0
    6.8750   -4.1060   21.5540 N   0  0  0  0  0  0  0  0  0  0  0  0
    6.6650   -5.2990   22.3370 C   0  0  0  0  0  0  0  0  0  0  0  0
    6.0460   -4.8550   23.6270 C   0  0  0  0  0  0  0  0  0  0  0  0
    5.8970   -3.3580   23.6370 C   0  0  0  0  0  0  0  0  0  0  0  0
    5.0910   -2.8770   24.7870 C   0  0  0  0  0  0  0  0  0  0  0  0
    3.8610   -2.7760   24.6210 O   0  0  0  0  0  0  0  0  0  0  0  0
    5.5770   -2.5250   26.0520 N   0  0  0  0  0  0  0  0  0  0  0  0
    5.2610   -3.3710   27.1650 C   0  0  0  0  0  0  0  0  0  0  0  0
    6.4760   -4.1590   27.4240 C   0  0  0  0  0  0  0  0  0  0  0  0
    7.4120   -3.7470   28.2740 C   0  0  0  0  0  0  0  0  0  0  0  0
    7.3030   -2.5490   29.0050 O   0  0  0  0  0  0  0  0  0  0  0  0
    8.1550   -1.5490   28.8020 C   0  0  0  0  0  0  0  0  0  0  0  0
    8.5290   -4.3930   28.5200 C   0  0  0  0  0  0  0  0  0  0  0  0
    8.8040   -5.5400   27.9010 C   0  0  0  0  0  0  0  0  0  0  0  0
    7.9280   -6.0600   27.0200 C   0  0  0  0  0  0  0  0  0  0  0  0
    6.5820   -5.4780   26.6190 C   0  0  0  0  0  0  0  0  0  0  0  0
    5.6610   -5.9630   25.7510 O   0  0  0  0  0  0  0  0  0  0  0  0
    4.4240   -6.6020   26.1740 C   0  0  0  0  0  0  0  0  0  0  0  0
    4.0110   -7.5180   25.2290 F   0  0  0  0  0  0  0  0  0  0  0  0
    3.3890   -5.6670   26.2720 F   0  0  0  0  0  0  0  0  0  0  0  0
    4.5270   -7.1520   27.4200 F   0  0  0  0  0  0  0  0  0  0  0  0
    7.2690   -2.6940   23.4980 C   0  0  0  0  0  0  0  0  0  0  0  0
    7.7560   -3.0620   22.1030 C   0  0  0  0  0  0  0  0  0  0  0  0
  1  2  1  0
  2  3  2  0
  2  4  1  0
  4  5  1  0
  5  6  1  0
  6  7  1  0
  7  8  1  0
  8  9  2  0
  8 10  1  0
 10 11  1  0
 11 12  1  0
 12 13  2  0
 13 14  1  0
 14 15  1  0
 13 16  1  0
 16 17  2  0
 17 18  1  0
 12 19  1  0
 18 19  2  0
 19 20  1  0
 20 21  1  0
 21 22  1  0
 21 23  1  0
 21 24  1  0
  7 25  1  0
  4 26  1  0
 25 26  1  0
M  END
