piperidine-amides-26078-covalent
     RDKit          3D

 25 26  0  0  0  0  0  0  0  0999 V2000
    7.0560   -3.3080   19.2430 C   0  0  0  0  0  0  0  0  0  0  0  0
    6.3350   -4.0860   20.2560 C   0  0  0  0  0  0  0  0  0  0  0  0
    5.3190   -4.7180   19.9350 O   0  0  0  0  0  0  0  0  0  0  0  0
    6.8010   -4.1610   21.5730 N   0  0  0  0  0  0  0  0  0  0  0  0
    7.6250   -3.1190   22.1250 C   0  0  0  0  0  0  0  0  0  0  0  0
    7.3260   -3.0670   23.5940 C   0  0  0  0  0  0  0  0  0  0  0  0
    5.9910   -3.6070   23.9600 C   0  0  0  0  0  0  0  0  0  0  0  0
    5.5390   -3.1780   25.3240 C   0  0  0  0  0  0  0  0  0  0  0  0
    4.3390   -2.7970   25.4550 O   0  0  0  0  0  0  0  0  0  0  0  0
    6.3120   -3.1470   26.5290 N   0  0  0  0  0  0  0  0  0  0  0  0
    6.3990   -1.8220   27.2100 C   0  0  0  0  0  0  0  0  0  0  0  0
    7.0040   -1.7190   28.5420 C   0  0  0  0  0  0  0  0  0  0  0  0
    7.0850   -0.4340   29.2230 C   0  0  0  0  0  0  0  0  0  0  0  0
    6.5530    0.8270   28.5900 C   0  0  0  0  0  0  0  0  0  0  0  0
    5.9200    0.7490   27.1990 C   0  0  0  0  0  0  0  0  0  0  0  0
    5.8740   -0.6020   26.5630 C   0  0  0  0  0  0  0  0  0  0  0  0
    6.1180   -4.3160   27.3550 C   0  0  2  0  0  0  0  0  0  0  0  0
    6.9220   -4.5850   28.4560 C   0  0  0  0  0  0  0  0  0  0  0  0
    7.8760   -5.7520   28.3090 C   0  0  0  0  0  0  0  0  0  0  0  0
    6.1110   -5.6120   26.5390 C   0  0  0  0  0  0  0  0  0  0  0  0
    6.9700   -5.7620   25.6200 O   0  0  0  0  0  0  0  0  0  0  0  0
    5.2050   -6.6260   26.7770 O   0  0  0  0  0  0  0  0  0  0  0  0
    4.1440   -6.8460   25.8710 C   0  0  0  0  0  0  0  0  0  0  0  0
    5.9760   -5.0810   23.6830 C   0  0  0  0  0  0  0  0  0  0  0  0
    6.4560   -5.3410   22.3000 C   0  0  0  0  0  0  0  0  0  0  0  0
  1  2  1  0
  2  3  2  0
  2  4  1  0
  4  5  1  0
  5  6  1  0
  6  7  1  0
  7  8  1  0
  8  9  2  0
  8 10  1  0
 10 11  1  0
 11 12  2  0
 12 13  1  0
 13 14  2  0
 14 15  1  0
 11 16  1  0
 15 16  2  0
 10 17  1  0
 17 18  1  1
 18 19  1  0
 17 20  1  0
 20 21  2  0
 20 22  1  0
 22 23  1  0
  7 24  1  0
  4 25  1  0
 24 25  1  0
M  END
