piperidine-amides-31531-covalent
     RDKit          3D

 28 30  0  0  0  0  0  0  0  0999 V2000
    6.9710   -3.4210   19.3860 C   0  0  0  0  0  0  0  0  0  0  0  0
    6.3560   -4.2370   20.4110 C   0  0  0  0  0  0  0  0  0  0  0  0
    5.4180   -5.0000   20.0200 O   0  0  0  0  0  0  0  0  0  0  0  0
    6.7670   -4.2560   21.7750 N   0  0  0  0  0  0  0  0  0  0  0  0
    6.5310   -5.4920   22.5460 C   0  0  0  0  0  0  0  0  0  0  0  0
    5.4260   -4.9500   23.5340 C   0  0  0  0  0  0  0  0  0  0  0  0
    6.1540   -4.0180   24.4790 C   0  0  0  0  0  0  0  0  0  0  0  0
    5.1140   -3.1200   25.3560 C   0  0  0  0  0  0  0  0  0  0  0  0
    4.3910   -2.5270   24.5820 O   0  0  0  0  0  0  0  0  0  0  0  0
    5.2390   -3.1970   26.6670 N   0  0  0  0  0  0  0  0  0  0  0  0
    5.0270   -2.8780   27.9650 C   0  0  0  0  0  0  0  0  0  0  0  0
    4.6480   -3.5520   29.0790 C   0  0  0  0  0  0  0  0  0  0  0  0
    5.4290   -4.7490   29.0050 N   0  0  0  0  0  0  0  0  0  0  0  0
    4.9510   -6.0020   28.8660 C   0  0  0  0  0  0  0  0  0  0  0  0
    4.9080   -6.4240   30.2900 C   0  0  0  0  0  0  0  0  0  0  0  0
    6.1480   -6.6170   30.8890 O   0  0  0  0  0  0  0  0  0  0  0  0
    3.6740   -6.5590   30.7920 N   0  0  0  0  0  0  0  0  0  0  0  0
    3.4570   -6.4130   32.0680 C   0  0  0  0  0  0  0  0  0  0  0  0
    3.8680   -7.4560   32.9100 C   0  0  0  0  0  0  0  0  0  0  0  0
    5.2800   -7.3910   33.2080 C   0  0  0  0  0  0  0  0  0  0  0  0
    5.3690   -8.6340   34.1190 C   0  0  0  0  0  0  0  0  0  0  0  0
    4.2620   -9.6170   34.5550 C   0  0  0  0  0  0  0  0  0  0  0  0
    3.0340   -9.3920   34.0940 C   0  0  0  0  0  0  0  0  0  0  0  0
    2.8400   -8.3290   33.2840 C   0  0  0  0  0  0  0  0  0  0  0  0
    6.5370   -4.6050   28.1500 C   0  0  0  0  0  0  0  0  0  0  0  0
    6.2290   -4.1920   26.8260 C   0  0  0  0  0  0  0  0  0  0  0  0
    7.3170   -3.2350   23.9090 C   0  0  0  0  0  0  0  0  0  0  0  0
    7.3770   -3.0990   22.3950 C   0  0  0  0  0  0  0  0  0  0  0  0
  1  2  1  0
  2  3  2  0
  2  4  1  0
  4  5  1  0
  5  6  1  0
  6  7  1  0
  7  8  1  0
  8  9  2  0
  8 10  1  0
 10 11  1  0
 11 12  1  0
 12 13  1  0
 13 14  1  0
 14 15  1  0
 15 16  2  0
 15 17  1  0
 17 18  1  0
 18 19  1  0
 19 20  2  0
 20 21  1  0
 21 22  2  0
 22 23  1  0
 19 24  1  0
 23 24  2  0
 13 25  1  0
 10 26  1  0
 25 26  1  0
  7 27  1  0
  4 28  1  0
 27 28  1  0
M  END
