piperidine-amides-13309-covalent
     RDKit          3D

 27 30  0  0  0  0  0  0  0  0999 V2000
    7.0610   -3.3350   19.2490 C   0  0  0  0  0  0  0  0  0  0  0  0
    6.3760   -4.1330   20.2930 C   0  0  0  0  0  0  0  0  0  0  0  0
    5.3320   -4.7220   19.9450 O   0  0  0  0  0  0  0  0  0  0  0  0
    6.9080   -4.2580   21.5830 N   0  0  0  0  0  0  0  0  0  0  0  0
    7.6250   -3.1700   22.1710 C   0  0  0  0  0  0  0  0  0  0  0  0
    7.0690   -2.6770   23.4280 C   0  0  0  0  0  0  0  0  0  0  0  0
    6.5380   -3.7270   24.3110 C   0  0  0  0  0  0  0  0  0  0  0  0
    5.9020   -3.0980   25.5050 C   0  0  0  0  0  0  0  0  0  0  0  0
    4.6590   -2.9940   25.5070 O   0  0  0  0  0  0  0  0  0  0  0  0
    6.6680   -2.6290   26.6100 N   0  0  0  0  0  0  0  0  0  0  0  0
    6.2210   -1.5280   27.5060 C   0  0  2  0  0  0  0  0  0  0  0  0
    5.9290   -0.3110   26.7360 C   0  0  0  0  0  0  0  0  0  0  0  0
    5.5940    0.6860   27.7130 C   0  0  1  0  0  0  0  0  0  0  0  0
    4.5450    0.3020   28.4750 C   0  0  0  0  0  0  0  0  0  0  0  0
    4.7560   -0.8890   29.1560 C   0  0  2  0  0  0  0  0  0  0  0  0
    5.6520   -0.6810   30.1220 C   0  0  0  0  0  0  0  0  0  0  0  0
    6.7900   -0.2410   29.5240 C   0  0  2  0  0  0  0  0  0  0  0  0
    7.6980    0.0850   30.5110 C   0  0  0  0  0  0  0  0  0  0  0  0
    7.0890    0.5350   31.6930 C   0  0  0  0  0  0  0  0  0  0  0  0
    7.0830   -0.0540   32.7780 O   0  0  0  0  0  0  0  0  0  0  0  0
    6.4680    1.7700   31.5350 O   0  0  0  0  0  0  0  0  0  0  0  0
    5.3050    2.1300   32.2580 C   0  0  0  0  0  0  0  0  0  0  0  0
    6.5040    0.8810   28.7170 C   0  0  0  0  0  0  0  0  0  0  0  0
    7.2890   -1.1830   28.5520 C   0  0  0  0  0  0  0  0  0  0  0  0
    5.1690   -1.8600   28.2990 C   0  0  0  0  0  0  0  0  0  0  0  0
    5.8040   -4.7880   23.6090 C   0  0  0  0  0  0  0  0  0  0  0  0
    6.5690   -5.3660   22.4650 C   0  0  0  0  0  0  0  0  0  0  0  0
  1  2  1  0
  2  3  2  0
  2  4  1  0
  4  5  1  0
  5  6  1  0
  6  7  1  0
  7  8  1  0
  8  9  2  0
  8 10  1  0
 11 10  1  6
 11 12  1  0
 13 12  1  6
 13 14  1  0
 15 14  1  6
 15 16  1  0
 16 17  1  0
 17 18  1  1
 18 19  1  0
 19 20  2  0
 19 21  1  0
 21 22  1  0
 13 23  1  0
 17 23  1  0
 11 24  1  0
 17 24  1  0
 11 25  1  0
 15 25  1  0
  7 26  1  0
  4 27  1  0
 26 27  1  0
M  END
