piperidine-amides-34157-covalent
     RDKit          3D

 26 28  0  0  0  0  0  0  0  0999 V2000
    7.0200   -3.3320   19.3790 C   0  0  0  0  0  0  0  0  0  0  0  0
    6.3610   -4.2000   20.3690 C   0  0  0  0  0  0  0  0  0  0  0  0
    5.3980   -4.9100   20.0020 O   0  0  0  0  0  0  0  0  0  0  0  0
    6.8100   -4.2900   21.7080 N   0  0  0  0  0  0  0  0  0  0  0  0
    6.6260   -5.5380   22.4180 C   0  0  0  0  0  0  0  0  0  0  0  0
    6.1540   -5.2260   23.8560 C   0  0  0  0  0  0  0  0  0  0  0  0
    5.7880   -3.7570   23.9000 C   0  0  0  0  0  0  0  0  0  0  0  0
    4.9990   -3.4020   25.1330 C   0  0  0  0  0  0  0  0  0  0  0  0
    3.8420   -3.8420   25.1860 O   0  0  0  0  0  0  0  0  0  0  0  0
    5.4800   -2.6090   26.2080 N   0  0  0  0  0  0  0  0  0  0  0  0
    6.5800   -3.0780   26.9250 C   0  0  0  0  0  0  0  0  0  0  0  0
    6.0860   -4.1990   27.8650 C   0  0  0  0  0  0  0  0  0  0  0  0
    6.3170   -5.4900   28.3420 C   0  0  0  0  0  0  0  0  0  0  0  0
    5.4460   -6.0640   29.2860 C   0  0  0  0  0  0  0  0  0  0  0  0
    5.8230   -7.7900   29.9020 Br  0  0  0  0  0  0  0  0  0  0  0  0
    4.3080   -5.4620   29.8230 C   0  0  0  0  0  0  0  0  0  0  0  0
    3.9800   -4.2360   29.4500 C   0  0  0  0  0  0  0  0  0  0  0  0
    4.9220   -3.6860   28.4780 C   0  0  0  0  0  0  0  0  0  0  0  0
    4.2070   -2.4390   28.3830 C   0  0  0  0  0  0  0  0  0  0  0  0
    5.0300   -1.7550   27.3160 C   0  0  2  0  0  0  0  0  0  0  0  0
    3.6160   -1.3570   27.3290 C   0  0  0  0  0  0  0  0  0  0  0  0
    2.8240   -1.7790   26.4410 O   0  0  0  0  0  0  0  0  0  0  0  0
    3.0580   -0.5000   28.2710 O   0  0  0  0  0  0  0  0  0  0  0  0
    1.8020    0.0630   28.0220 C   0  0  0  0  0  0  0  0  0  0  0  0
    7.0830   -2.9710   23.7420 C   0  0  0  0  0  0  0  0  0  0  0  0
    7.5910   -3.2320   22.3370 C   0  0  0  0  0  0  0  0  0  0  0  0
  1  2  1  0
  2  3  2  0
  2  4  1  0
  4  5  1  0
  5  6  1  0
  6  7  1  0
  7  8  1  0
  8  9  2  0
  8 10  1  0
 10 11  1  0
 11 12  1  0
 12 13  2  0
 13 14  1  0
 14 15  1  0
 14 16  2  0
 16 17  1  0
 12 18  1  0
 17 18  2  0
 18 19  1  0
 10 20  1  0
 19 20  1  0
 20 21  1  6
 21 22  2  0
 21 23  1  0
 23 24  1  0
  7 25  1  0
  4 26  1  0
 25 26  1  0
M  END
