piperidine-amides-1610-covalent
     RDKit          3D

 21 22  0  0  0  0  0  0  0  0999 V2000
    7.1520   -3.3060   19.2850 C   0  0  0  0  0  0  0  0  0  0  0  0
    6.3630   -4.0820   20.2750 C   0  0  0  0  0  0  0  0  0  0  0  0
    5.2970   -4.6130   19.9140 O   0  0  0  0  0  0  0  0  0  0  0  0
    6.8810   -4.2270   21.5780 N   0  0  0  0  0  0  0  0  0  0  0  0
    7.6520   -3.1790   22.1900 C   0  0  0  0  0  0  0  0  0  0  0  0
    6.8280   -2.7290   23.3910 C   0  0  0  0  0  0  0  0  0  0  0  0
    6.6020   -3.9360   24.2490 C   0  0  0  0  0  0  0  0  0  0  0  0
    5.9430   -3.5770   25.5240 C   0  0  0  0  0  0  0  0  0  0  0  0
    4.7710   -3.1770   25.4430 O   0  0  0  0  0  0  0  0  0  0  0  0
    6.6370   -3.6900   26.7370 N   0  0  0  0  0  0  0  0  0  0  0  0
    6.6730   -4.7880   27.6550 C   0  0  2  0  0  0  0  0  0  0  0  0
    7.7180   -5.6630   27.8580 C   0  0  0  0  0  0  0  0  0  0  0  0
    5.5350   -5.7250   27.3070 C   0  0  0  0  0  0  0  0  0  0  0  0
    4.8390   -6.3730   28.3080 C   0  0  0  0  0  0  0  0  0  0  0  0
    3.3490   -6.6220   28.2610 C   0  0  0  0  0  0  0  0  0  0  0  0
    2.6200   -7.2860   29.2800 N   0  0  0  0  0  0  0  0  0  0  0  0
    3.3740   -7.7310   30.4000 C   0  0  0  0  0  0  0  0  0  0  0  0
    4.8540   -7.4570   30.3980 C   0  0  0  0  0  0  0  0  0  0  0  0
    5.5600   -6.8370   29.4590 N   0  0  0  0  0  0  0  0  0  0  0  0
    5.7400   -4.9640   23.5000 C   0  0  0  0  0  0  0  0  0  0  0  0
    6.5010   -5.4090   22.3040 C   0  0  0  0  0  0  0  0  0  0  0  0
  1  2  1  0
  2  3  2  0
  2  4  1  0
  4  5  1  0
  5  6  1  0
  6  7  1  0
  7  8  1  0
  8  9  2  0
  8 10  1  0
 10 11  1  0
 11 12  1  6
 11 13  1  0
 13 14  1  0
 14 15  2  0
 15 16  1  0
 16 17  2  0
 17 18  1  0
 14 19  1  0
 18 19  2  0
  7 20  1  0
  4 21  1  0
 20 21  1  0
M  END
