piperidine-amides-11580-covalent
     RDKit          3D

 23 25  0  0  0  0  0  0  0  0999 V2000
    7.0440   -3.3440   19.3550 C   0  0  0  0  0  0  0  0  0  0  0  0
    6.3830   -4.1570   20.3800 C   0  0  0  0  0  0  0  0  0  0  0  0
    5.4590   -4.9160   20.0120 O   0  0  0  0  0  0  0  0  0  0  0  0
    6.7930   -4.1190   21.7380 N   0  0  0  0  0  0  0  0  0  0  0  0
    7.7850   -3.1640   22.2090 C   0  0  0  0  0  0  0  0  0  0  0  0
    7.4320   -2.9140   23.6410 C   0  0  0  0  0  0  0  0  0  0  0  0
    6.1000   -3.5180   23.9050 C   0  0  0  0  0  0  0  0  0  0  0  0
    5.4430   -3.1100   25.1860 C   0  0  0  0  0  0  0  0  0  0  0  0
    4.1890   -2.9420   25.1900 O   0  0  0  0  0  0  0  0  0  0  0  0
    6.0790   -2.9010   26.4390 N   0  0  0  0  0  0  0  0  0  0  0  0
    6.8290   -1.6590   26.7860 C   0  0  1  0  0  0  0  0  0  0  0  0
    6.1250   -0.4560   27.1370 C   0  0  0  0  0  0  0  0  0  0  0  0
    6.0750    0.4030   28.3990 C   0  0  0  0  0  0  0  0  0  0  0  0
    5.2790    1.7640   28.7940 C   0  0  0  0  0  0  0  0  0  0  0  0
    4.4200    2.2030   27.5540 C   0  0  0  0  0  0  0  0  0  0  0  0
    5.3010    1.2250   27.9780 C   0  0  0  0  0  0  0  0  0  0  0  0
    5.4090    0.4300   26.9390 C   0  0  0  0  0  0  0  0  0  0  0  0
    6.2450   -0.0250   28.1240 C   0  0  0  0  0  0  0  0  0  0  0  0
    7.0300   -1.3850   28.0830 C   0  0  1  0  0  0  0  0  0  0  0  0
    6.5690   -2.3860   29.1410 C   0  0  0  0  0  0  0  0  0  0  0  0
    5.3240   -2.6310   29.1100 O   0  0  0  0  0  0  0  0  0  0  0  0
    6.2340   -5.0430   23.7020 C   0  0  0  0  0  0  0  0  0  0  0  0
    6.4900   -5.3200   22.5340 C   0  0  0  0  0  0  0  0  0  0  0  0
  1  2  1  0
  2  3  2  0
  2  4  1  0
  4  5  1  0
  5  6  1  0
  6  7  1  0
  7  8  1  0
  8  9  2  0
  8 10  1  0
 11 10  1  1
 11 12  1  0
 12 13  2  0
 13 14  1  0
 14 15  2  0
 15 16  1  0
 12 17  1  0
 16 17  2  0
 17 18  1  0
 11 19  1  0
 18 19  1  0
 19 20  1  1
 20 21  1  0
  7 22  1  0
  4 23  1  0
 22 23  1  0
M  END
