piperidine-amides-14718-covalent
     RDKit          3D

 22 23  0  0  0  0  0  0  0  0999 V2000
    7.0670   -3.3390   19.3320 C   0  0  0  0  0  0  0  0  0  0  0  0
    6.4020   -4.1810   20.3240 C   0  0  0  0  0  0  0  0  0  0  0  0
    5.3790   -4.7990   19.9760 O   0  0  0  0  0  0  0  0  0  0  0  0
    6.9570   -4.3180   21.6270 N   0  0  0  0  0  0  0  0  0  0  0  0
    7.7550   -3.2590   22.1700 C   0  0  0  0  0  0  0  0  0  0  0  0
    7.0230   -2.6440   23.3100 C   0  0  0  0  0  0  0  0  0  0  0  0
    6.6040   -3.7870   24.1930 C   0  0  0  0  0  0  0  0  0  0  0  0
    5.8380   -3.2340   25.3610 C   0  0  0  0  0  0  0  0  0  0  0  0
    4.6160   -3.1460   25.2370 O   0  0  0  0  0  0  0  0  0  0  0  0
    6.5760   -2.8810   26.4850 N   0  0  0  0  0  0  0  0  0  0  0  0
    6.4570   -1.6570   27.2170 C   0  0  0  0  0  0  0  0  0  0  0  0
    6.8060   -1.5980   28.5840 C   0  0  0  0  0  0  0  0  0  0  0  0
    6.6890   -0.4420   29.3180 C   0  0  0  0  0  0  0  0  0  0  0  0
    6.9740   -0.2630   30.6690 C   0  0  0  0  0  0  0  0  0  0  0  0
    7.7650    1.0060   30.6750 C   0  0  0  0  0  0  0  0  0  0  0  0
    5.8400   -0.3100   31.4400 C   0  0  0  0  0  0  0  0  0  0  0  0
    6.1960    0.8410   28.7230 C   0  0  0  0  0  0  0  0  0  0  0  0
    5.7960    0.9460   27.2940 C   0  0  0  0  0  0  0  0  0  0  0  0
    5.9520   -0.4060   26.5490 C   0  0  0  0  0  0  0  0  0  0  0  0
    5.6020   -0.3040   25.3410 O   0  0  0  0  0  0  0  0  0  0  0  0
    5.6840   -4.7330   23.4400 C   0  0  0  0  0  0  0  0  0  0  0  0
    6.5110   -5.3580   22.5200 C   0  0  0  0  0  0  0  0  0  0  0  0
  1  2  1  0
  2  3  2  0
  2  4  1  0
  4  5  1  0
  5  6  1  0
  6  7  1  0
  7  8  1  0
  8  9  2  0
  8 10  1  0
 10 11  1  0
 11 12  2  0
 12 13  1  0
 13 14  1  0
 14 15  1  0
 14 16  1  0
 13 17  2  0
 17 18  1  0
 11 19  1  0
 18 19  2  0
 19 20  1  0
  7 21  1  0
  4 22  1  0
 21 22  1  0
M  END
