piperidine-amides-35690-covalent
     RDKit          3D

 41 45  0  0  0  0  0  0  0  0999 V2000
    7.0580   -3.3040   19.2870 C   0  0  0  0  0  0  0  0  0  0  0  0
    6.3470   -4.1470   20.2860 C   0  0  0  0  0  0  0  0  0  0  0  0
    5.2950   -4.6530   19.9200 O   0  0  0  0  0  0  0  0  0  0  0  0
    6.8910   -4.3940   21.5510 N   0  0  0  0  0  0  0  0  0  0  0  0
    6.5830   -5.6160   22.2390 C   0  0  0  0  0  0  0  0  0  0  0  0
    5.7240   -5.2660   23.4130 C   0  0  0  0  0  0  0  0  0  0  0  0
    6.4700   -4.2670   24.2910 C   0  0  0  0  0  0  0  0  0  0  0  0
    5.6410   -4.0990   25.5110 C   0  0  0  0  0  0  0  0  0  0  0  0
    4.4110   -4.2040   25.4010 O   0  0  0  0  0  0  0  0  0  0  0  0
    6.1830   -3.7720   26.7750 N   0  0  0  0  0  0  0  0  0  0  0  0
    5.7190   -4.4890   27.9550 C   0  0  0  0  0  0  0  0  0  0  0  0
    6.2250   -5.9000   28.1450 C   0  0  0  0  0  0  0  0  0  0  0  0
    5.8840   -6.6980   29.2140 C   0  0  0  0  0  0  0  0  0  0  0  0
    5.0370   -6.2290   30.1800 C   0  0  0  0  0  0  0  0  0  0  0  0
    4.5610   -7.3010   31.6640 Br  0  0  0  0  0  0  0  0  0  0  0  0
    4.5380   -4.9600   30.0610 C   0  0  0  0  0  0  0  0  0  0  0  0
    4.8740   -4.0410   28.9250 C   0  0  0  0  0  0  0  0  0  0  0  0
    4.3100   -2.7640   28.9030 F   0  0  0  0  0  0  0  0  0  0  0  0
    6.2260   -2.3910   26.9180 C   0  0  0  0  0  0  0  0  0  0  0  0
    5.6590   -1.8240   25.7650 N   0  0  0  0  0  0  0  0  0  0  0  0
    5.7330   -0.4160   25.9980 C   0  0  0  0  0  0  0  0  0  0  0  0
    6.2870    0.0540   27.1980 N   0  0  0  0  0  0  0  0  0  0  0  0
    6.9070   -0.4160   28.4660 C   0  0  0  0  0  0  0  0  0  0  0  0
    6.9680    1.0140   28.7020 C   0  0  0  0  0  0  0  0  0  0  0  0
    6.3550    1.6460   27.5140 C   0  0  0  0  0  0  0  0  0  0  0  0
    6.2680    3.0410   27.4550 O   0  0  0  0  0  0  0  0  0  0  0  0
    5.1890    3.6080   28.0790 C   0  0  0  0  0  0  0  0  0  0  0  0
    4.2030    4.1950   27.0970 C   0  0  0  0  0  0  0  0  0  0  0  0
    3.1200    4.7670   27.7420 C   0  0  0  0  0  0  0  0  0  0  0  0
    2.2660    5.5990   26.8210 C   0  0  0  0  0  0  0  0  0  0  0  0
    3.0780    6.4280   26.0610 N   0  0  0  0  0  0  0  0  0  0  0  0
    2.3870    6.9650   24.9140 C   0  0  0  0  0  0  0  0  0  0  0  0
    4.4080    6.3820   26.1970 C   0  0  0  0  0  0  0  0  0  0  0  0
    4.8290    5.0800   26.1810 C   0  0  0  0  0  0  0  0  0  0  0  0
    5.9300    0.7340   26.5720 C   0  0  0  0  0  0  0  0  0  0  0  0
    5.3330    1.2500   25.4070 O   0  0  0  0  0  0  0  0  0  0  0  0
    3.9240    1.2920   25.1690 C   0  0  0  0  0  0  0  0  0  0  0  0
    6.0670   -0.6670   26.7290 C   0  0  0  0  0  0  0  0  0  0  0  0
    6.6530   -1.5580   27.8590 C   0  0  0  0  0  0  0  0  0  0  0  0
    6.8150   -3.0220   23.5260 C   0  0  0  0  0  0  0  0  0  0  0  0
    7.6180   -3.3800   22.2710 C   0  0  0  0  0  0  0  0  0  0  0  0
  1  2  1  0
  2  3  2  0
  2  4  1  0
  4  5  1  0
  5  6  1  0
  6  7  1  0
  7  8  1  0
  8  9  2  0
  8 10  1  0
 10 11  1  0
 11 12  2  0
 12 13  1  0
 13 14  2  0
 14 15  1  0
 14 16  1  0
 11 17  1  0
 16 17  2  0
 17 18  1  0
 10 19  1  0
 19 20  2  0
 20 21  1  0
 21 22  2  0
 22 23  1  0
 23 24  1  0
 24 25  2  0
 25 26  1  0
 26 27  1  0
 27 28  1  0
 28 29  1  0
 29 30  1  0
 30 31  1  0
 31 32  1  0
 31 33  1  0
 28 34  1  0
 33 34  1  0
 25 35  1  0
 35 36  1  0
 36 37  1  0
 35 38  2  0
 19 39  1  0
 23 39  2  0
 38 39  1  0
  7 40  1  0
  4 41  1  0
 40 41  1  0
M  END
