piperidine-amides-12164-covalent
     RDKit          3D

 25 26  0  0  0  0  0  0  0  0999 V2000
    7.0900   -3.2860   19.2010 C   0  0  0  0  0  0  0  0  0  0  0  0
    6.3250   -4.0310   20.1940 C   0  0  0  0  0  0  0  0  0  0  0  0
    5.2520   -4.5370   19.8790 O   0  0  0  0  0  0  0  0  0  0  0  0
    6.8450   -4.2370   21.5120 N   0  0  0  0  0  0  0  0  0  0  0  0
    6.4440   -5.3970   22.2590 C   0  0  0  0  0  0  0  0  0  0  0  0
    5.6950   -4.9580   23.4820 C   0  0  0  0  0  0  0  0  0  0  0  0
    6.4890   -3.8330   24.1210 C   0  0  0  0  0  0  0  0  0  0  0  0
    5.7980   -3.3460   25.3500 C   0  0  0  0  0  0  0  0  0  0  0  0
    4.5760   -3.0990   25.3710 O   0  0  0  0  0  0  0  0  0  0  0  0
    6.5590   -3.1500   26.5250 N   0  0  0  0  0  0  0  0  0  0  0  0
    6.3370   -3.9770   27.6990 C   0  0  0  0  0  0  0  0  0  0  0  0
    6.0860   -5.4130   27.2780 C   0  0  1  0  0  0  0  0  0  0  0  0
    6.8460   -6.2120   28.1080 O   0  0  0  0  0  0  0  0  0  0  0  0
    4.8310   -5.9540   27.4650 C   0  0  0  0  0  0  0  0  0  0  0  0
    4.2810   -6.8090   26.4850 C   0  0  0  0  0  0  0  0  0  0  0  0
    3.0330   -7.3900   26.5870 C   0  0  0  0  0  0  0  0  0  0  0  0
    2.2040   -7.1390   27.7430 C   0  0  0  0  0  0  0  0  0  0  0  0
    0.9580   -7.7200   27.8370 O   0  0  0  0  0  0  0  0  0  0  0  0
   -0.2130   -7.2360   27.2520 C   0  0  0  0  0  0  0  0  0  0  0  0
    2.6810   -6.3370   28.6990 C   0  0  0  0  0  0  0  0  0  0  0  0
    1.9130   -6.0740   29.8220 O   0  0  0  0  0  0  0  0  0  0  0  0
    2.5300   -5.6240   30.9990 C   0  0  0  0  0  0  0  0  0  0  0  0
    4.0100   -5.7390   28.5580 C   0  0  0  0  0  0  0  0  0  0  0  0
    6.7960   -2.6970   23.1660 C   0  0  0  0  0  0  0  0  0  0  0  0
    7.6170   -3.2140   22.1730 C   0  0  0  0  0  0  0  0  0  0  0  0
  1  2  1  0
  2  3  2  0
  2  4  1  0
  4  5  1  0
  5  6  1  0
  6  7  1  0
  7  8  1  0
  8  9  2  0
  8 10  1  0
 10 11  1  0
 11 12  1  0
 12 13  1  1
 12 14  1  0
 14 15  2  0
 15 16  1  0
 16 17  2  0
 17 18  1  0
 18 19  1  0
 17 20  1  0
 20 21  1  0
 21 22  1  0
 14 23  1  0
 20 23  2  0
  7 24  1  0
  4 25  1  0
 24 25  1  0
M  END
