piperidine-amides-1591-covalent
     RDKit          3D

 21 22  0  0  0  0  0  0  0  0999 V2000
    7.1050   -3.3060   19.3450 C   0  0  0  0  0  0  0  0  0  0  0  0
    6.3240   -4.0990   20.3310 C   0  0  0  0  0  0  0  0  0  0  0  0
    5.3000   -4.6820   19.9360 O   0  0  0  0  0  0  0  0  0  0  0  0
    6.7850   -4.2060   21.6700 N   0  0  0  0  0  0  0  0  0  0  0  0
    6.6890   -5.4650   22.3840 C   0  0  0  0  0  0  0  0  0  0  0  0
    5.9980   -5.1680   23.7140 C   0  0  0  0  0  0  0  0  0  0  0  0
    6.1150   -3.6980   23.8990 C   0  0  0  0  0  0  0  0  0  0  0  0
    5.6430   -3.2150   25.2240 C   0  0  0  0  0  0  0  0  0  0  0  0
    4.4450   -2.9150   25.2730 O   0  0  0  0  0  0  0  0  0  0  0  0
    6.4880   -3.1050   26.3390 N   0  0  0  0  0  0  0  0  0  0  0  0
    6.2430   -3.5800   27.6660 C   0  0  2  0  0  0  0  0  0  0  0  0
    6.0240   -4.9090   27.9900 C   0  0  0  0  0  0  0  0  0  0  0  0
    5.0610   -2.7950   28.2360 C   0  0  0  0  0  0  0  0  0  0  0  0
    3.9640   -2.1680   27.4760 N   0  0  0  0  0  0  0  0  0  0  0  0
    2.8930   -1.4570   27.8840 C   0  0  0  0  0  0  0  0  0  0  0  0
    2.7720   -1.2590   29.3210 C   0  0  0  0  0  0  0  0  0  0  0  0
    1.3180   -0.2720   30.1050 Br  0  0  0  0  0  0  0  0  0  0  0  0
    3.8550   -1.8700   30.1830 C   0  0  0  0  0  0  0  0  0  0  0  0
    4.8560   -2.5520   29.5810 N   0  0  0  0  0  0  0  0  0  0  0  0
    7.4800   -3.1550   23.5850 C   0  0  0  0  0  0  0  0  0  0  0  0
    7.6120   -3.1410   22.2040 C   0  0  0  0  0  0  0  0  0  0  0  0
  1  2  1  0
  2  3  2  0
  2  4  1  0
  4  5  1  0
  5  6  1  0
  6  7  1  0
  7  8  1  0
  8  9  2  0
  8 10  1  0
 10 11  1  0
 11 12  1  6
 11 13  1  0
 13 14  2  0
 14 15  1  0
 15 16  2  0
 16 17  1  0
 16 18  1  0
 13 19  1  0
 18 19  2  0
  7 20  1  0
  4 21  1  0
 20 21  1  0
M  END
