piperidine-amides-30958-covalent
     RDKit          3D

 27 28  0  0  0  0  0  0  0  0999 V2000
    7.0310   -3.3420   19.3730 C   0  0  0  0  0  0  0  0  0  0  0  0
    6.3710   -4.1830   20.3770 C   0  0  0  0  0  0  0  0  0  0  0  0
    5.4170   -4.8890   20.0010 O   0  0  0  0  0  0  0  0  0  0  0  0
    6.8030   -4.2440   21.7270 N   0  0  0  0  0  0  0  0  0  0  0  0
    7.6720   -3.2180   22.3080 C   0  0  0  0  0  0  0  0  0  0  0  0
    7.1310   -2.8540   23.6790 C   0  0  0  0  0  0  0  0  0  0  0  0
    5.8410   -3.5600   23.9570 C   0  0  0  0  0  0  0  0  0  0  0  0
    5.1470   -3.1550   25.2310 C   0  0  0  0  0  0  0  0  0  0  0  0
    4.2830   -2.2440   25.1630 O   0  0  0  0  0  0  0  0  0  0  0  0
    5.3450   -3.6730   26.5460 N   0  0  0  0  0  0  0  0  0  0  0  0
    6.4760   -3.2380   27.2910 C   0  0  0  0  0  0  0  0  0  0  0  0
    6.6720   -4.3330   28.2780 C   0  0  0  0  0  0  0  0  0  0  0  0
    5.5250   -4.4770   29.1180 C   0  0  2  0  0  0  0  0  0  0  0  0
    5.2900   -5.9170   29.5280 C   0  0  0  0  0  0  0  0  0  0  0  0
    3.9050   -6.0940   29.8520 N   0  0  0  0  0  0  0  0  0  0  0  0
    3.8860   -6.7000   31.1860 C   0  0  0  0  0  0  0  0  0  0  0  0
    4.0800   -5.7520   32.2140 O   0  0  0  0  0  0  0  0  0  0  0  0
    3.6990   -7.9500   31.4220 O   0  0  0  0  0  0  0  0  0  0  0  0
    2.4050   -8.3680   31.7400 C   0  0  0  0  0  0  0  0  0  0  0  0
    1.8070   -9.2650   32.5970 C   0  0  0  0  0  0  0  0  0  0  0  0
    1.5280   -7.7130   32.7930 C   0  0  0  0  0  0  0  0  0  0  0  0
    1.4980   -8.7710   30.5800 C   0  0  0  0  0  0  0  0  0  0  0  0
    4.4200   -3.7920   28.6850 C   0  0  1  0  0  0  0  0  0  0  0  0
    4.3730   -2.2990   28.9070 C   0  0  0  0  0  0  0  0  0  0  0  0
    4.1740   -4.0050   27.3290 C   0  0  0  0  0  0  0  0  0  0  0  0
    5.9000   -5.0220   23.7680 C   0  0  0  0  0  0  0  0  0  0  0  0
    6.4930   -5.3660   22.5650 C   0  0  0  0  0  0  0  0  0  0  0  0
  1  2  1  0
  2  3  2  0
  2  4  1  0
  4  5  1  0
  5  6  1  0
  6  7  1  0
  7  8  1  0
  8  9  2  0
  8 10  1  0
 10 11  1  0
 11 12  1  0
 12 13  1  0
 13 14  1  6
 14 15  1  0
 15 16  1  0
 16 17  2  0
 16 18  1  0
 19 18  1  0
 19 20  1  0
 19 21  1  0
 19 22  1  0
 13 23  1  0
 23 24  1  6
 10 25  1  0
 23 25  1  0
  7 26  1  0
  4 27  1  0
 26 27  1  0
M  END
