piperidine-amides-19849-covalent
     RDKit          3D

 22 24  0  0  0  0  0  0  0  0999 V2000
    7.0440   -3.3490   19.3700 C   0  0  0  0  0  0  0  0  0  0  0  0
    6.3900   -4.2420   20.3630 C   0  0  0  0  0  0  0  0  0  0  0  0
    5.3930   -4.8520   19.9840 O   0  0  0  0  0  0  0  0  0  0  0  0
    6.9330   -4.3970   21.6460 N   0  0  0  0  0  0  0  0  0  0  0  0
    6.5750   -5.5120   22.4710 C   0  0  0  0  0  0  0  0  0  0  0  0
    5.6760   -5.0210   23.5750 C   0  0  0  0  0  0  0  0  0  0  0  0
    6.3070   -3.8450   24.3490 C   0  0  0  0  0  0  0  0  0  0  0  0
    5.2780   -3.2360   25.2410 C   0  0  0  0  0  0  0  0  0  0  0  0
    4.4220   -2.5230   24.7210 O   0  0  0  0  0  0  0  0  0  0  0  0
    5.2110   -3.4250   26.6500 N   0  0  0  0  0  0  0  0  0  0  0  0
    6.4080   -3.5060   27.3570 C   0  0  0  0  0  0  0  0  0  0  0  0
    6.3890   -4.8890   28.0190 C   0  0  0  0  0  0  0  0  0  0  0  0
    5.0090   -5.0480   28.4680 N   0  0  0  0  0  0  0  0  0  0  0  0
    5.0480   -6.0390   29.5350 C   0  0  0  0  0  0  0  0  0  0  0  0
    4.6810   -6.8660   28.6020 N   0  0  0  0  0  0  0  0  0  0  0  0
    4.6180   -7.9900   29.3380 N   0  0  0  0  0  0  0  0  0  0  0  0
    4.9580   -7.7140   30.6360 N   0  0  0  0  0  0  0  0  0  0  0  0
    5.2400   -6.4120   30.7550 N   0  0  0  0  0  0  0  0  0  0  0  0
    4.4680   -3.7490   28.7260 C   0  0  0  0  0  0  0  0  0  0  0  0
    4.1770   -3.1310   27.5410 C   0  0  0  0  0  0  0  0  0  0  0  0
    6.8220   -2.7610   23.4000 C   0  0  0  0  0  0  0  0  0  0  0  0
    7.6270   -3.3320   22.2840 C   0  0  0  0  0  0  0  0  0  0  0  0
  1  2  1  0
  2  3  2  0
  2  4  1  0
  4  5  1  0
  5  6  1  0
  6  7  1  0
  7  8  1  0
  8  9  2  0
  8 10  1  0
 10 11  1  0
 11 12  1  0
 12 13  1  0
 13 14  1  0
 14 15  2  0
 15 16  1  0
 16 17  2  0
 14 18  1  0
 17 18  1  0
 13 19  1  0
 10 20  1  0
 19 20  1  0
  7 21  1  0
  4 22  1  0
 21 22  1  0
M  END
