piperidine-amides-30640-covalent
     RDKit          3D

 26 28  0  0  0  0  0  0  0  0999 V2000
    7.0930   -3.3580   19.3470 C   0  0  0  0  0  0  0  0  0  0  0  0
    6.4080   -4.2060   20.3110 C   0  0  0  0  0  0  0  0  0  0  0  0
    5.3540   -4.7640   19.9680 O   0  0  0  0  0  0  0  0  0  0  0  0
    6.9410   -4.4740   21.5870 N   0  0  0  0  0  0  0  0  0  0  0  0
    6.6570   -5.6870   22.2980 C   0  0  0  0  0  0  0  0  0  0  0  0
    5.9460   -5.2270   23.5410 C   0  0  0  0  0  0  0  0  0  0  0  0
    6.5610   -3.9980   24.1530 C   0  0  0  0  0  0  0  0  0  0  0  0
    5.6840   -3.4510   25.2230 C   0  0  0  0  0  0  0  0  0  0  0  0
    4.7030   -2.7270   24.8980 O   0  0  0  0  0  0  0  0  0  0  0  0
    5.8210   -3.6740   26.6030 N   0  0  0  0  0  0  0  0  0  0  0  0
    4.6130   -4.1560   27.2930 C   0  0  0  0  0  0  0  0  0  0  0  0
    5.0220   -4.8690   28.5050 C   0  0  0  0  0  0  0  0  0  0  0  0
    6.4070   -4.6420   28.8600 C   0  0  0  0  0  0  0  0  0  0  0  0
    6.7640   -3.1850   28.7240 C   0  0  2  0  0  0  0  0  0  0  0  0
    5.9400   -2.3040   29.6390 C   0  0  0  0  0  0  0  0  0  0  0  0
    4.5600   -2.5460   30.0730 N   0  0  0  0  0  0  0  0  0  0  0  0
    4.2510   -1.4110   30.9440 C   0  0  0  0  0  0  0  0  0  0  0  0
    5.2120   -0.4430   31.1590 C   0  0  0  0  0  0  0  0  0  0  0  0
    5.2450    0.7360   31.9200 C   0  0  0  0  0  0  0  0  0  0  0  0
    4.0000    1.2910   32.2330 O   0  0  0  0  0  0  0  0  0  0  0  0
    6.4890    1.2560   32.3030 O   0  0  0  0  0  0  0  0  0  0  0  0
    7.3950    0.4680   33.0440 C   0  0  0  0  0  0  0  0  0  0  0  0
    6.6400   -0.7820   30.3150 S   0  0  0  0  0  0  0  0  0  0  0  0
    6.4880   -2.6330   27.3440 C   0  0  0  0  0  0  0  0  0  0  0  0
    6.8520   -2.9470   23.0680 C   0  0  0  0  0  0  0  0  0  0  0  0
    7.6440   -3.3990   22.2800 C   0  0  0  0  0  0  0  0  0  0  0  0
  1  2  1  0
  2  3  2  0
  2  4  1  0
  4  5  1  0
  5  6  1  0
  6  7  1  0
  7  8  1  0
  8  9  2  0
  8 10  1  0
 10 11  1  0
 11 12  1  0
 12 13  1  0
 13 14  1  0
 14 15  1  1
 15 16  2  0
 16 17  1  0
 17 18  2  0
 18 19  1  0
 19 20  2  0
 19 21  1  0
 21 22  1  0
 15 23  1  0
 18 23  1  0
 10 24  1  0
 14 24  1  0
  7 25  1  0
  4 26  1  0
 25 26  1  0
M  END
