piperidine-amides-629-covalent
     RDKit          3D

 26 28  0  0  0  0  0  0  0  0999 V2000
    7.1690   -3.3020   19.3660 C   0  0  0  0  0  0  0  0  0  0  0  0
    6.4450   -4.1060   20.3150 C   0  0  0  0  0  0  0  0  0  0  0  0
    5.3800   -4.6960   19.9440 O   0  0  0  0  0  0  0  0  0  0  0  0
    6.9200   -4.2960   21.6240 N   0  0  0  0  0  0  0  0  0  0  0  0
    7.7010   -3.2000   22.2540 C   0  0  0  0  0  0  0  0  0  0  0  0
    6.6990   -2.7510   23.3850 C   0  0  0  0  0  0  0  0  0  0  0  0
    6.4900   -4.0050   24.1870 C   0  0  0  0  0  0  0  0  0  0  0  0
    5.8470   -3.7650   25.6210 C   0  0  0  0  0  0  0  0  0  0  0  0
    5.1590   -4.7240   25.9130 O   0  0  0  0  0  0  0  0  0  0  0  0
    6.1480   -2.6390   26.1170 N   0  0  0  0  0  0  0  0  0  0  0  0
    6.2190   -1.4340   26.7340 C   0  0  0  0  0  0  0  0  0  0  0  0
    5.8690   -0.1190   26.4820 C   0  0  0  0  0  0  0  0  0  0  0  0
    6.0190    1.0100   27.3120 C   0  0  0  0  0  0  0  0  0  0  0  0
    6.5900    1.0370   28.6460 C   0  0  0  0  0  0  0  0  0  0  0  0
    6.6730    2.2320   29.3590 O   0  0  0  0  0  0  0  0  0  0  0  0
    5.9590    2.0950   30.5440 C   0  0  0  0  0  0  0  0  0  0  0  0
    5.9260    3.3440   31.1630 C   0  0  0  0  0  0  0  0  0  0  0  0
    5.3170    3.6270   32.3560 C   0  0  0  0  0  0  0  0  0  0  0  0
    4.7320    2.6090   32.9250 N   0  0  0  0  0  0  0  0  0  0  0  0
    4.7130    1.2780   32.3620 C   0  0  0  0  0  0  0  0  0  0  0  0
    5.3580    0.7530   30.9970 C   0  0  0  0  0  0  0  0  0  0  0  0
    6.9910   -0.4010   28.9380 C   0  0  0  0  0  0  0  0  0  0  0  0
    7.7090   -0.5970   30.4970 Cl  0  0  0  0  0  0  0  0  0  0  0  0
    6.8420   -1.4970   28.1280 C   0  0  0  0  0  0  0  0  0  0  0  0
    5.7970   -5.1260   23.4260 C   0  0  0  0  0  0  0  0  0  0  0  0
    6.5960   -5.4750   22.3740 C   0  0  0  0  0  0  0  0  0  0  0  0
  1  2  1  0
  2  3  2  0
  2  4  1  0
  4  5  1  0
  5  6  1  0
  6  7  1  0
  7  8  1  0
  8  9  2  0
  8 10  1  0
 10 11  1  0
 11 12  2  0
 12 13  1  0
 13 14  2  0
 14 15  1  0
 15 16  1  0
 16 17  2  0
 17 18  1  0
 18 19  2  0
 19 20  1  0
 16 21  1  0
 20 21  2  0
 14 22  1  0
 22 23  1  0
 11 24  1  0
 22 24  2  0
  7 25  1  0
  4 26  1  0
 25 26  1  0
M  END
