piperidine-amides-13776-covalent
     RDKit          3D

 27 29  0  0  0  0  0  0  0  0999 V2000
    7.0860   -3.3250   19.3020 C   0  0  0  0  0  0  0  0  0  0  0  0
    6.3830   -4.1820   20.2930 C   0  0  0  0  0  0  0  0  0  0  0  0
    5.3440   -4.7730   19.9580 O   0  0  0  0  0  0  0  0  0  0  0  0
    6.9430   -4.3450   21.5740 N   0  0  0  0  0  0  0  0  0  0  0  0
    7.6850   -3.2790   22.2040 C   0  0  0  0  0  0  0  0  0  0  0  0
    6.7600   -2.6890   23.2650 C   0  0  0  0  0  0  0  0  0  0  0  0
    6.4340   -3.8080   24.1920 C   0  0  0  0  0  0  0  0  0  0  0  0
    5.7100   -3.3500   25.3980 C   0  0  0  0  0  0  0  0  0  0  0  0
    4.4740   -3.4720   25.4160 O   0  0  0  0  0  0  0  0  0  0  0  0
    6.4080   -2.8000   26.4660 N   0  0  0  0  0  0  0  0  0  0  0  0
    6.3050   -1.4520   26.9030 C   0  0  0  0  0  0  0  0  0  0  0  0
    5.7940   -0.3270   26.2910 C   0  0  0  0  0  0  0  0  0  0  0  0
    5.7700    0.9750   26.9210 C   0  0  0  0  0  0  0  0  0  0  0  0
    5.2410    2.0620   26.2610 C   0  0  0  0  0  0  0  0  0  0  0  0
    5.8200    3.1940   25.8890 O   0  0  0  0  0  0  0  0  0  0  0  0
    3.9270    1.9870   25.9330 N   0  0  0  0  0  0  0  0  0  0  0  0
    2.9580    2.3530   26.7990 C   0  0  0  0  0  0  0  0  0  0  0  0
    1.5680    2.5840   26.2080 C   0  0  0  0  0  0  0  0  0  0  0  0
    1.3980    2.3950   24.8560 O   0  0  0  0  0  0  0  0  0  0  0  0
    2.5230    1.9870   24.0680 C   0  0  0  0  0  0  0  0  0  0  0  0
    3.5310    1.3740   24.7940 C   0  0  0  0  0  0  0  0  0  0  0  0
    6.2920    1.1220   28.2210 C   0  0  0  0  0  0  0  0  0  0  0  0
    6.8470   -0.1080   28.8700 C   0  0  0  0  0  0  0  0  0  0  0  0
    6.7710   -1.1970   28.1250 C   0  0  0  0  0  0  0  0  0  0  0  0
    7.4180   -1.8960   29.2810 C   0  0  0  0  0  0  0  0  0  0  0  0
    5.7510   -4.9730   23.5520 C   0  0  0  0  0  0  0  0  0  0  0  0
    6.5980   -5.4880   22.3890 C   0  0  0  0  0  0  0  0  0  0  0  0
  1  2  1  0
  2  3  2  0
  2  4  1  0
  4  5  1  0
  5  6  1  0
  6  7  1  0
  7  8  1  0
  8  9  2  0
  8 10  1  0
 10 11  1  0
 11 12  2  0
 12 13  1  0
 13 14  1  0
 14 15  2  0
 14 16  1  0
 16 17  1  0
 17 18  1  0
 18 19  1  0
 19 20  1  0
 16 21  1  0
 20 21  1  0
 13 22  2  0
 22 23  1  0
 11 24  1  0
 23 24  2  0
 24 25  1  0
  7 26  1  0
  4 27  1  0
 26 27  1  0
M  END
