piperidine-amides-19187-covalent
     RDKit          3D

 22 24  0  0  0  0  0  0  0  0999 V2000
    7.1000   -3.3760   19.5010 C   0  0  0  0  0  0  0  0  0  0  0  0
    6.4500   -4.2560   20.4490 C   0  0  0  0  0  0  0  0  0  0  0  0
    5.4690   -4.9580   20.0160 O   0  0  0  0  0  0  0  0  0  0  0  0
    6.8790   -4.3800   21.7990 N   0  0  0  0  0  0  0  0  0  0  0  0
    6.5000   -5.5760   22.5670 C   0  0  0  0  0  0  0  0  0  0  0  0
    5.6080   -4.9160   23.7030 C   0  0  0  0  0  0  0  0  0  0  0  0
    6.4020   -3.7800   24.3500 C   0  0  0  0  0  0  0  0  0  0  0  0
    5.6190   -3.1470   25.6260 C   0  0  0  0  0  0  0  0  0  0  0  0
    4.8530   -2.3130   25.1740 O   0  0  0  0  0  0  0  0  0  0  0  0
    5.9030   -3.6170   26.8180 N   0  0  0  0  0  0  0  0  0  0  0  0
    6.4210   -3.9870   28.0140 C   0  0  0  0  0  0  0  0  0  0  0  0
    6.7260   -5.1860   28.6140 C   0  0  0  0  0  0  0  0  0  0  0  0
    5.5210   -5.6060   29.1120 C   0  0  0  0  0  0  0  0  0  0  0  0
    5.0800   -6.0130   30.4470 C   0  0  0  0  0  0  0  0  0  0  0  0
    3.7690   -6.3880   30.6880 N   0  0  0  0  0  0  0  0  0  0  0  0
    2.7350   -6.4180   29.6730 C   0  0  0  0  0  0  0  0  0  0  0  0
    3.0960   -6.0660   28.4230 N   0  0  0  0  0  0  0  0  0  0  0  0
    4.3810   -5.7090   28.2190 C   0  0  0  0  0  0  0  0  0  0  0  0
    4.6030   -5.4200   26.8460 C   0  0  0  0  0  0  0  0  0  0  0  0
    4.7060   -4.0470   27.4870 C   0  0  0  0  0  0  0  0  0  0  0  0
    6.8660   -2.7860   23.3220 C   0  0  0  0  0  0  0  0  0  0  0  0
    7.7130   -3.4000   22.4380 C   0  0  0  0  0  0  0  0  0  0  0  0
  1  2  1  0
  2  3  2  0
  2  4  1  0
  4  5  1  0
  5  6  1  0
  6  7  1  0
  7  8  1  0
  8  9  2  0
  8 10  1  0
 10 11  1  0
 11 12  1  0
 12 13  1  0
 13 14  1  0
 14 15  2  0
 15 16  1  0
 16 17  2  0
 13 18  2  0
 17 18  1  0
 18 19  1  0
 10 20  1  0
 19 20  1  0
  7 21  1  0
  4 22  1  0
 21 22  1  0
M  END
