piperidine-amides-14836-covalent
     RDKit          3D

 22 23  0  0  0  0  0  0  0  0999 V2000
    7.1260   -3.2710   19.2360 C   0  0  0  0  0  0  0  0  0  0  0  0
    6.3360   -3.9780   20.2420 C   0  0  0  0  0  0  0  0  0  0  0  0
    5.2870   -4.5420   19.8820 O   0  0  0  0  0  0  0  0  0  0  0  0
    6.7910   -4.0540   21.5810 N   0  0  0  0  0  0  0  0  0  0  0  0
    7.7030   -3.0600   22.0770 C   0  0  0  0  0  0  0  0  0  0  0  0
    7.4800   -2.9250   23.5450 C   0  0  0  0  0  0  0  0  0  0  0  0
    6.0800   -3.4390   23.7600 C   0  0  0  0  0  0  0  0  0  0  0  0
    5.6430   -3.1900   25.1680 C   0  0  0  0  0  0  0  0  0  0  0  0
    4.8850   -2.2460   25.3710 O   0  0  0  0  0  0  0  0  0  0  0  0
    6.1310   -4.0650   26.1100 N   0  0  0  0  0  0  0  0  0  0  0  0
    5.9560   -3.9120   27.5050 C   0  0  0  0  0  0  0  0  0  0  0  0
    5.1420   -4.8970   28.0790 C   0  0  2  0  0  0  0  0  0  0  0  0
    5.5990   -5.5290   29.0470 O   0  0  0  0  0  0  0  0  0  0  0  0
    6.6760   -6.3260   28.8880 C   0  0  0  0  0  0  0  0  0  0  0  0
    4.6900   -6.0070   27.2160 C   0  0  0  0  0  0  0  0  0  0  0  0
    3.9730   -5.7110   25.9420 C   0  0  0  0  0  0  0  0  0  0  0  0
    3.4610   -6.9730   25.2060 C   0  0  0  0  0  0  0  0  0  0  0  0
    2.6170   -7.8890   26.0320 C   0  0  0  0  0  0  0  0  0  0  0  0
    2.5760   -7.2600   27.4040 C   0  0  0  0  0  0  0  0  0  0  0  0
    4.0290   -7.0240   27.8880 C   0  0  0  0  0  0  0  0  0  0  0  0
    6.0450   -4.9450   23.5570 C   0  0  0  0  0  0  0  0  0  0  0  0
    6.6250   -5.2660   22.3440 C   0  0  0  0  0  0  0  0  0  0  0  0
  1  2  1  0
  2  3  2  0
  2  4  1  0
  4  5  1  0
  5  6  1  0
  6  7  1  0
  7  8  1  0
  8  9  2  0
  8 10  1  0
 10 11  1  0
 12 11  1  6
 12 13  1  0
 13 14  1  0
 12 15  1  0
 15 16  1  0
 16 17  1  0
 17 18  1  0
 18 19  1  0
 15 20  1  0
 19 20  1  0
  7 21  1  0
  4 22  1  0
 21 22  1  0
M  END
