piperidine-amides-7328-covalent
     RDKit          3D

 20 21  0  0  0  0  0  0  0  0999 V2000
    7.0680   -3.2890   19.2640 C   0  0  0  0  0  0  0  0  0  0  0  0
    6.3530   -4.0750   20.2810 C   0  0  0  0  0  0  0  0  0  0  0  0
    5.2810   -4.6120   19.9020 O   0  0  0  0  0  0  0  0  0  0  0  0
    6.8650   -4.2500   21.5740 N   0  0  0  0  0  0  0  0  0  0  0  0
    6.6300   -5.4620   22.3260 C   0  0  0  0  0  0  0  0  0  0  0  0
    6.0730   -5.0830   23.6720 C   0  0  0  0  0  0  0  0  0  0  0  0
    6.0480   -3.5890   23.8750 C   0  0  0  0  0  0  0  0  0  0  0  0
    5.6850   -3.2330   25.2640 C   0  0  0  0  0  0  0  0  0  0  0  0
    4.4710   -3.1550   25.5500 O   0  0  0  0  0  0  0  0  0  0  0  0
    6.6360   -2.9730   26.2680 N   0  0  0  0  0  0  0  0  0  0  0  0
    6.2810   -2.8770   27.6610 C   0  0  0  0  0  0  0  0  0  0  0  0
    5.4430   -4.0290   28.1900 C   0  0  0  0  0  0  0  0  0  0  0  0
    4.0740   -4.0980   28.1630 C   0  0  0  0  0  0  0  0  0  0  0  0
    3.3700   -5.1660   28.6660 C   0  0  0  0  0  0  0  0  0  0  0  0
    4.0430   -6.2330   29.2320 C   0  0  0  0  0  0  0  0  0  0  0  0
    3.1630   -7.5990   29.8820 Cl  0  0  0  0  0  0  0  0  0  0  0  0
    5.3850   -6.1750   29.2590 N   0  0  0  0  0  0  0  0  0  0  0  0
    6.0840   -5.1380   28.7720 C   0  0  0  0  0  0  0  0  0  0  0  0
    7.3970   -2.9490   23.5910 C   0  0  0  0  0  0  0  0  0  0  0  0
    7.6680   -3.1490   22.1260 C   0  0  0  0  0  0  0  0  0  0  0  0
  1  2  1  0
  2  3  2  0
  2  4  1  0
  4  5  1  0
  5  6  1  0
  6  7  1  0
  7  8  1  0
  8  9  2  0
  8 10  1  0
 10 11  1  0
 11 12  1  0
 12 13  2  0
 13 14  1  0
 14 15  2  0
 15 16  1  0
 15 17  1  0
 12 18  1  0
 17 18  2  0
  7 19  1  0
  4 20  1  0
 19 20  1  0
M  END
