piperidine-amides-4429-covalent
     RDKit          3D

 25 26  0  0  0  0  0  0  0  0999 V2000
    7.0920   -3.2650   19.1680 C   0  0  0  0  0  0  0  0  0  0  0  0
    6.3270   -3.9860   20.2010 C   0  0  0  0  0  0  0  0  0  0  0  0
    5.2390   -4.4950   19.8520 O   0  0  0  0  0  0  0  0  0  0  0  0
    6.8200   -4.1510   21.5160 N   0  0  0  0  0  0  0  0  0  0  0  0
    7.5480   -3.0780   22.1040 C   0  0  0  0  0  0  0  0  0  0  0  0
    7.2330   -2.8370   23.5030 C   0  0  0  0  0  0  0  0  0  0  0  0
    6.6720   -4.0040   24.2020 C   0  0  0  0  0  0  0  0  0  0  0  0
    6.0180   -3.6030   25.4910 C   0  0  0  0  0  0  0  0  0  0  0  0
    4.8010   -3.2610   25.5310 O   0  0  0  0  0  0  0  0  0  0  0  0
    6.7950   -3.6530   26.6740 N   0  0  0  0  0  0  0  0  0  0  0  0
    7.1200   -2.5570   27.5280 C   0  0  0  0  0  0  0  0  0  0  0  0
    6.9850   -1.1580   27.1150 C   0  0  1  0  0  0  0  0  0  0  0  0
    5.8270   -0.6430   27.1680 O   0  0  0  0  0  0  0  0  0  0  0  0
    7.8630   -0.3470   28.0900 C   0  0  0  0  0  0  0  0  0  0  0  0
    8.6120   -0.8150   29.1570 C   0  0  0  0  0  0  0  0  0  0  0  0
    9.4030    0.2990   29.9550 C   0  0  0  0  0  0  0  0  0  0  0  0
    9.3120    1.7660   29.5370 C   0  0  0  0  0  0  0  0  0  0  0  0
    9.8130    2.9430   29.9380 N   0  0  0  0  0  0  0  0  0  0  0  0
    8.4230    2.0310   28.3340 C   0  0  0  0  0  0  0  0  0  0  0  0
    7.6850    1.0140   27.5840 C   0  0  0  0  0  0  0  0  0  0  0  0
    7.2680   -4.9560   27.0690 C   0  0  0  0  0  0  0  0  0  0  0  0
    8.5430   -5.1100   27.9040 C   0  0  0  0  0  0  0  0  0  0  0  0
    6.1740   -5.6470   27.8220 C   0  0  0  0  0  0  0  0  0  0  0  0
    5.7690   -4.8520   23.3660 C   0  0  0  0  0  0  0  0  0  0  0  0
    6.4890   -5.3180   22.2820 C   0  0  0  0  0  0  0  0  0  0  0  0
  1  2  1  0
  2  3  2  0
  2  4  1  0
  4  5  1  0
  5  6  1  0
  6  7  1  0
  7  8  1  0
  8  9  2  0
  8 10  1  0
 10 11  1  0
 11 12  1  0
 12 13  1  1
 12 14  1  0
 14 15  2  0
 15 16  1  0
 16 17  2  0
 17 18  1  0
 17 19  1  0
 14 20  1  0
 19 20  2  0
 10 21  1  0
 21 22  1  0
 21 23  1  0
  7 24  1  0
  4 25  1  0
 24 25  1  0
M  END
