piperidine-amides-30009-covalent
     RDKit          3D

 27 28  0  0  0  0  0  0  0  0999 V2000
    7.0600   -3.3150   19.3080 C   0  0  0  0  0  0  0  0  0  0  0  0
    6.3500   -4.1090   20.3040 C   0  0  0  0  0  0  0  0  0  0  0  0
    5.3510   -4.7410   19.9620 O   0  0  0  0  0  0  0  0  0  0  0  0
    6.8250   -4.2100   21.6640 N   0  0  0  0  0  0  0  0  0  0  0  0
    6.6600   -5.4580   22.3740 C   0  0  0  0  0  0  0  0  0  0  0  0
    6.1220   -5.2240   23.7650 C   0  0  0  0  0  0  0  0  0  0  0  0
    5.9400   -3.7290   23.9390 C   0  0  0  0  0  0  0  0  0  0  0  0
    5.3870   -3.3760   25.2850 C   0  0  0  0  0  0  0  0  0  0  0  0
    4.1700   -3.1800   25.4380 O   0  0  0  0  0  0  0  0  0  0  0  0
    6.2110   -3.2370   26.4270 N   0  0  0  0  0  0  0  0  0  0  0  0
    6.5070   -1.8550   26.8040 C   0  0  0  0  0  0  0  0  0  0  0  0
    5.9620   -1.5510   28.1770 C   0  0  0  0  0  0  0  0  0  0  0  0
    6.8540   -1.2420   29.1890 C   0  0  0  0  0  0  0  0  0  0  0  0
    6.0640   -4.2880   27.5160 C   0  0  1  0  0  0  0  0  0  0  0  0
    6.7610   -3.8740   28.6130 C   0  0  0  0  0  0  0  0  0  0  0  0
    4.9620   -5.0250   27.7890 C   0  0  0  0  0  0  0  0  0  0  0  0
    5.0250   -5.9970   28.7640 C   0  0  0  0  0  0  0  0  0  0  0  0
    5.6690   -5.9430   29.9090 O   0  0  0  0  0  0  0  0  0  0  0  0
    4.3290   -7.1090   28.4670 N   0  0  0  0  0  0  0  0  0  0  0  0
    3.4990   -7.6090   29.5250 C   0  0  0  0  0  0  0  0  0  0  0  0
    2.2500   -8.1000   29.1410 C   0  0  0  0  0  0  0  0  0  0  0  0
    1.3120   -8.6410   30.1340 C   0  0  0  0  0  0  0  0  0  0  0  0
    1.5940   -8.6980   31.4850 C   0  0  0  0  0  0  0  0  0  0  0  0
    2.8350   -8.2080   31.8450 C   0  0  0  0  0  0  0  0  0  0  0  0
    3.8030   -7.6540   30.8500 C   0  0  0  0  0  0  0  0  0  0  0  0
    7.1800   -2.9470   23.6680 C   0  0  0  0  0  0  0  0  0  0  0  0
    7.6400   -3.1650   22.2380 C   0  0  0  0  0  0  0  0  0  0  0  0
  1  2  1  0
  2  3  2  0
  2  4  1  0
  4  5  1  0
  5  6  1  0
  6  7  1  0
  7  8  1  0
  8  9  2  0
  8 10  1  0
 10 11  1  0
 11 12  1  0
 12 13  1  0
 10 14  1  0
 14 15  1  1
 14 16  1  0
 16 17  1  0
 17 18  2  0
 17 19  1  0
 19 20  1  0
 20 21  2  0
 21 22  1  0
 22 23  2  0
 23 24  1  0
 20 25  1  0
 24 25  2  0
  7 26  1  0
  4 27  1  0
 26 27  1  0
M  END
