piperidine-amides-32763-covalent
     RDKit          3D

 29 32  0  0  0  0  0  0  0  0999 V2000
    7.0760   -3.3280   19.2710 C   0  0  0  0  0  0  0  0  0  0  0  0
    6.4070   -4.1980   20.2720 C   0  0  0  0  0  0  0  0  0  0  0  0
    5.3540   -4.7760   19.9590 O   0  0  0  0  0  0  0  0  0  0  0  0
    7.0130   -4.4040   21.5280 N   0  0  0  0  0  0  0  0  0  0  0  0
    6.6420   -5.5140   22.3560 C   0  0  0  0  0  0  0  0  0  0  0  0
    5.7430   -4.9250   23.4450 C   0  0  0  0  0  0  0  0  0  0  0  0
    6.5520   -3.9160   24.2010 C   0  0  0  0  0  0  0  0  0  0  0  0
    5.8050   -3.2960   25.3140 C   0  0  0  0  0  0  0  0  0  0  0  0
    5.1370   -2.3020   25.0240 O   0  0  0  0  0  0  0  0  0  0  0  0
    5.8230   -3.8190   26.6050 N   0  0  0  0  0  0  0  0  0  0  0  0
    6.3160   -3.2080   27.7480 C   0  0  0  0  0  0  0  0  0  0  0  0
    6.4380   -3.9290   28.9030 C   0  0  0  0  0  0  0  0  0  0  0  0
    5.2060   -4.7130   29.0170 N   0  0  0  0  0  0  0  0  0  0  0  0
    4.5110   -5.0030   30.1880 C   0  0  0  0  0  0  0  0  0  0  0  0
    4.7050   -6.1900   30.8280 C   0  0  0  0  0  0  0  0  0  0  0  0
    3.8940   -6.3370   32.0410 C   0  0  0  0  0  0  0  0  0  0  0  0
    4.0930   -7.5080   32.6660 N   0  0  0  0  0  0  0  0  0  0  0  0
    2.9960   -8.1110   33.3510 C   0  0  0  0  0  0  0  0  0  0  0  0
    3.7210   -8.9460   34.4160 C   0  0  0  0  0  0  0  0  0  0  0  0
    5.0780   -8.8770   34.2320 C   0  0  0  0  0  0  0  0  0  0  0  0
    5.3910   -7.8850   33.1970 C   0  0  0  0  0  0  0  0  0  0  0  0
    3.0500   -5.4070   32.4780 N   0  0  0  0  0  0  0  0  0  0  0  0
    2.8890   -4.2240   31.7950 C   0  0  0  0  0  0  0  0  0  0  0  0
    3.6470   -4.0570   30.6380 N   0  0  0  0  0  0  0  0  0  0  0  0
    4.9280   -5.3540   27.9010 C   0  0  2  0  0  0  0  0  0  0  0  0
    5.9920   -6.3130   27.3530 C   0  0  0  0  0  0  0  0  0  0  0  0
    4.5380   -4.3720   27.0190 C   0  0  0  0  0  0  0  0  0  0  0  0
    7.0440   -2.7900   23.3290 C   0  0  0  0  0  0  0  0  0  0  0  0
    7.7590   -3.3050   22.1450 C   0  0  0  0  0  0  0  0  0  0  0  0
  1  2  1  0
  2  3  2  0
  2  4  1  0
  4  5  1  0
  5  6  1  0
  6  7  1  0
  7  8  1  0
  8  9  2  0
  8 10  1  0
 10 11  1  0
 11 12  1  0
 12 13  1  0
 13 14  1  0
 14 15  2  0
 15 16  1  0
 16 17  1  0
 17 18  1  0
 18 19  1  0
 19 20  1  0
 17 21  1  0
 20 21  1  0
 16 22  2  0
 22 23  1  0
 14 24  1  0
 23 24  2  0
 13 25  1  0
 25 26  1  6
 10 27  1  0
 25 27  1  0
  7 28  1  0
  4 29  1  0
 28 29  1  0
M  END
