piperidine-amides-32179-covalent
     RDKit          3D

 28 30  0  0  0  0  0  0  0  0999 V2000
    7.1120   -3.3230   19.2680 C   0  0  0  0  0  0  0  0  0  0  0  0
    6.4020   -4.1620   20.2670 C   0  0  0  0  0  0  0  0  0  0  0  0
    5.3470   -4.7360   19.9490 O   0  0  0  0  0  0  0  0  0  0  0  0
    6.9850   -4.3290   21.5340 N   0  0  0  0  0  0  0  0  0  0  0  0
    6.6470   -5.4410   22.3760 C   0  0  0  0  0  0  0  0  0  0  0  0
    5.8230   -4.8580   23.5280 C   0  0  0  0  0  0  0  0  0  0  0  0
    6.6610   -3.8110   24.2100 C   0  0  0  0  0  0  0  0  0  0  0  0
    6.0060   -3.2220   25.3940 C   0  0  0  0  0  0  0  0  0  0  0  0
    5.4240   -2.1470   25.2460 O   0  0  0  0  0  0  0  0  0  0  0  0
    6.0260   -3.9100   26.5950 N   0  0  0  0  0  0  0  0  0  0  0  0
    5.1880   -4.9990   26.8020 C   0  0  0  0  0  0  0  0  0  0  0  0
    5.2740   -5.7780   27.8990 C   0  0  0  0  0  0  0  0  0  0  0  0
    5.3080   -5.1410   29.1010 C   0  0  0  0  0  0  0  0  0  0  0  0
    4.1790   -4.3590   29.3340 C   0  0  0  0  0  0  0  0  0  0  0  0
    3.4430   -4.8160   30.5420 C   0  0  0  0  0  0  0  0  0  0  0  0
    4.2380   -5.8770   30.9520 N   0  0  0  0  0  0  0  0  0  0  0  0
    4.2680   -6.3080   32.3370 C   0  0  0  0  0  0  0  0  0  0  0  0
    4.6420   -5.5840   33.4640 O   0  0  0  0  0  0  0  0  0  0  0  0
    3.8680   -7.5940   32.6480 O   0  0  0  0  0  0  0  0  0  0  0  0
    4.3760   -8.2980   33.7940 C   0  0  0  0  0  0  0  0  0  0  0  0
    3.5860   -9.3440   34.2140 C   0  0  0  0  0  0  0  0  0  0  0  0
    5.7200   -8.8400   33.4920 C   0  0  0  0  0  0  0  0  0  0  0  0
    4.5190   -7.3120   34.9510 C   0  0  0  0  0  0  0  0  0  0  0  0
    5.3440   -6.0340   30.2000 C   0  0  0  0  0  0  0  0  0  0  0  0
    6.4140   -4.2530   28.9750 C   0  0  0  0  0  0  0  0  0  0  0  0
    6.3230   -3.2110   27.8620 C   0  0  0  0  0  0  0  0  0  0  0  0
    7.0220   -2.6820   23.2890 C   0  0  0  0  0  0  0  0  0  0  0  0
    7.7290   -3.2090   22.1110 C   0  0  0  0  0  0  0  0  0  0  0  0
  1  2  1  0
  2  3  2  0
  2  4  1  0
  4  5  1  0
  5  6  1  0
  6  7  1  0
  7  8  1  0
  8  9  2  0
  8 10  1  0
 10 11  1  0
 11 12  1  0
 13 12  1  0
 13 14  1  0
 14 15  1  0
 15 16  1  0
 16 17  1  0
 17 18  2  0
 17 19  1  0
 20 19  1  0
 20 21  1  0
 20 22  1  0
 20 23  1  0
 13 24  1  0
 16 24  1  0
 13 25  1  0
 10 26  1  0
 25 26  1  0
  7 27  1  0
  4 28  1  0
 27 28  1  0
M  END
