piperidine-amides-32625-covalent
     RDKit          3D

 29 31  0  0  0  0  0  0  0  0999 V2000
    7.1580   -3.2840   19.2270 C   0  0  0  0  0  0  0  0  0  0  0  0
    6.3490   -4.0420   20.2190 C   0  0  0  0  0  0  0  0  0  0  0  0
    5.2610   -4.5240   19.8710 O   0  0  0  0  0  0  0  0  0  0  0  0
    6.8710   -4.2480   21.5130 N   0  0  0  0  0  0  0  0  0  0  0  0
    6.5230   -5.4230   22.2630 C   0  0  0  0  0  0  0  0  0  0  0  0
    5.6960   -4.9200   23.4480 C   0  0  0  0  0  0  0  0  0  0  0  0
    6.5200   -3.9120   24.1820 C   0  0  0  0  0  0  0  0  0  0  0  0
    5.7620   -3.2550   25.2750 C   0  0  0  0  0  0  0  0  0  0  0  0
    4.5340   -3.2200   25.1270 O   0  0  0  0  0  0  0  0  0  0  0  0
    6.4020   -2.7100   26.3950 N   0  0  0  0  0  0  0  0  0  0  0  0
    6.8310   -1.3660   26.4780 C   0  0  0  0  0  0  0  0  0  0  0  0
    6.0180   -0.2870   26.1980 C   0  0  0  0  0  0  0  0  0  0  0  0
    5.4400   -0.2000   24.9020 C   0  0  0  0  0  0  0  0  0  0  0  0
    4.6080    0.8280   24.4860 C   0  0  0  0  0  0  0  0  0  0  0  0
    4.2730    1.9220   25.4140 C   0  0  0  0  0  0  0  0  0  0  0  0
    4.8340    1.9270   26.8170 C   0  0  0  0  0  0  0  0  0  0  0  0
    5.7230    0.7170   27.0760 C   0  0  0  0  0  0  0  0  0  0  0  0
    6.2630    0.6810   28.3510 O   0  0  0  0  0  0  0  0  0  0  0  0
    6.6710    1.9620   28.6650 C   0  0  0  0  0  0  0  0  0  0  0  0
    6.1730   -3.1860   27.7550 C   0  0  0  0  0  0  0  0  0  0  0  0
    5.2920   -4.4080   27.8380 C   0  0  0  0  0  0  0  0  0  0  0  0
    4.0800   -4.6280   27.5070 C   0  0  0  0  0  0  0  0  0  0  0  0
    3.1320   -5.5700   27.4830 N   0  0  0  0  0  0  0  0  0  0  0  0
    4.0970   -6.3680   28.0440 N   0  0  0  0  0  0  0  0  0  0  0  0
    3.7560   -7.6100   28.3090 C   0  0  0  0  0  0  0  0  0  0  0  0
    5.3730   -5.7290   28.2690 C   0  0  0  0  0  0  0  0  0  0  0  0
    6.5670   -6.4420   28.8820 C   0  0  0  0  0  0  0  0  0  0  0  0
    6.9940   -2.7570   23.3280 C   0  0  0  0  0  0  0  0  0  0  0  0
    7.5470   -3.1630   22.1340 C   0  0  0  0  0  0  0  0  0  0  0  0
  1  2  1  0
  2  3  2  0
  2  4  1  0
  4  5  1  0
  5  6  1  0
  6  7  1  0
  7  8  1  0
  8  9  2  0
  8 10  1  0
 10 11  1  0
 11 12  1  0
 12 13  2  0
 13 14  1  0
 14 15  2  0
 15 16  1  0
 12 17  1  0
 16 17  2  0
 17 18  1  0
 18 19  1  0
 10 20  1  0
 20 21  1  0
 21 22  1  0
 22 23  2  0
 23 24  1  0
 24 25  1  0
 21 26  2  0
 24 26  1  0
 26 27  1  0
  7 28  1  0
  4 29  1  0
 28 29  1  0
M  END
