piperidine-amides-16090-covalent
     RDKit          3D

 19 20  0  0  0  0  0  0  0  0999 V2000
    7.0530   -3.3860   19.3940 C   0  0  0  0  0  0  0  0  0  0  0  0
    6.3720   -4.2450   20.3950 C   0  0  0  0  0  0  0  0  0  0  0  0
    5.3900   -4.8710   19.9940 O   0  0  0  0  0  0  0  0  0  0  0  0
    6.8780   -4.3580   21.7030 N   0  0  0  0  0  0  0  0  0  0  0  0
    6.6170   -5.5170   22.5280 C   0  0  0  0  0  0  0  0  0  0  0  0
    5.9770   -5.0940   23.8380 C   0  0  0  0  0  0  0  0  0  0  0  0
    5.9010   -3.5670   23.8960 C   0  0  0  0  0  0  0  0  0  0  0  0
    5.1790   -3.1030   25.1150 C   0  0  0  0  0  0  0  0  0  0  0  0
    4.3930   -2.1620   25.0070 O   0  0  0  0  0  0  0  0  0  0  0  0
    5.3240   -3.6830   26.3780 N   0  0  0  0  0  0  0  0  0  0  0  0
    4.3460   -3.5030   27.4510 C   0  0  0  0  0  0  0  0  0  0  0  0
    4.8670   -4.4630   28.4830 C   0  0  0  0  0  0  0  0  0  0  0  0
    6.0330   -4.9480   28.0720 C   0  0  1  0  0  0  0  0  0  0  0  0
    6.9120   -5.2260   29.0280 C   0  0  0  0  0  0  0  0  0  0  0  0
    5.9730   -5.9510   27.3280 O   0  0  0  0  0  0  0  0  0  0  0  0
    5.2930   -6.9570   27.9760 C   0  0  0  0  0  0  0  0  0  0  0  0
    6.3310   -3.6800   27.3590 C   0  0  0  0  0  0  0  0  0  0  0  0
    7.2390   -2.9560   23.6580 C   0  0  0  0  0  0  0  0  0  0  0  0
    7.6900   -3.2870   22.2670 C   0  0  0  0  0  0  0  0  0  0  0  0
  1  2  1  0
  2  3  2  0
  2  4  1  0
  4  5  1  0
  5  6  1  0
  6  7  1  0
  7  8  1  0
  8  9  2  0
  8 10  1  0
 10 11  1  0
 11 12  1  0
 12 13  1  0
 13 14  1  1
 13 15  1  0
 15 16  1  0
 10 17  1  0
 13 17  1  0
  7 18  1  0
  4 19  1  0
 18 19  1  0
M  END
