piperidine-amides-29429-covalent
     RDKit          3D

 22 24  0  0  0  0  0  0  0  0999 V2000
    7.0600   -3.3970   19.4380 C   0  0  0  0  0  0  0  0  0  0  0  0
    6.3800   -4.2640   20.3910 C   0  0  0  0  0  0  0  0  0  0  0  0
    5.3740   -4.8820   19.9950 O   0  0  0  0  0  0  0  0  0  0  0  0
    6.9020   -4.4300   21.7050 N   0  0  0  0  0  0  0  0  0  0  0  0
    6.3510   -5.4620   22.5180 C   0  0  0  0  0  0  0  0  0  0  0  0
    5.3900   -4.8210   23.4900 C   0  0  0  0  0  0  0  0  0  0  0  0
    6.1780   -4.0080   24.5080 C   0  0  0  0  0  0  0  0  0  0  0  0
    5.2310   -3.2570   25.4340 C   0  0  0  0  0  0  0  0  0  0  0  0
    4.4150   -2.5540   24.8570 O   0  0  0  0  0  0  0  0  0  0  0  0
    5.2970   -3.3790   26.8490 N   0  0  0  0  0  0  0  0  0  0  0  0
    6.4670   -3.7080   27.4810 C   0  0  0  0  0  0  0  0  0  0  0  0
    6.4760   -5.0650   27.8660 C   0  0  1  0  0  0  0  0  0  0  0  0
    7.1240   -5.4780   28.9800 C   0  0  0  0  0  0  0  0  0  0  0  0
    5.1680   -5.4370   28.2800 C   0  0  0  0  0  0  0  0  0  0  0  0
    4.2400   -4.4160   28.5360 N   0  0  0  0  0  0  0  0  0  0  0  0
    3.2480   -4.5330   29.5810 N   0  0  0  0  0  0  0  0  0  0  0  0
    2.4690   -3.3190   29.5990 C   0  0  0  0  0  0  0  0  0  0  0  0
    3.5790   -3.7710   28.7850 C   0  0  0  0  0  0  0  0  0  0  0  0
    4.1400   -5.5330   29.3060 Br  0  0  0  0  0  0  0  0  0  0  0  0
    4.2120   -3.1170   27.7540 C   0  0  0  0  0  0  0  0  0  0  0  0
    7.1850   -3.1120   23.8350 C   0  0  0  0  0  0  0  0  0  0  0  0
    7.5130   -3.2910   22.3300 C   0  0  0  0  0  0  0  0  0  0  0  0
  1  2  1  0
  2  3  2  0
  2  4  1  0
  4  5  1  0
  5  6  1  0
  6  7  1  0
  7  8  1  0
  8  9  2  0
  8 10  1  0
 10 11  1  0
 11 12  1  0
 12 13  1  1
 12 14  1  0
 14 15  1  0
 15 16  1  0
 16 17  2  0
 17 18  1  0
 18 19  1  0
 10 20  1  0
 15 20  1  0
 18 20  2  0
  7 21  1  0
  4 22  1  0
 21 22  1  0
M  END
