piperidine-amides-9314-covalent
     RDKit          3D

 19 20  0  0  0  0  0  0  0  0999 V2000
    7.1310   -3.2620   19.1750 C   0  0  0  0  0  0  0  0  0  0  0  0
    6.3690   -3.9890   20.1900 C   0  0  0  0  0  0  0  0  0  0  0  0
    5.2960   -4.5300   19.8790 O   0  0  0  0  0  0  0  0  0  0  0  0
    6.8560   -4.1280   21.4970 N   0  0  0  0  0  0  0  0  0  0  0  0
    7.7300   -3.1360   22.0800 C   0  0  0  0  0  0  0  0  0  0  0  0
    7.0130   -2.6640   23.3060 C   0  0  0  0  0  0  0  0  0  0  0  0
    6.5220   -3.8120   24.1310 C   0  0  0  0  0  0  0  0  0  0  0  0
    5.8350   -3.3510   25.3610 C   0  0  0  0  0  0  0  0  0  0  0  0
    4.5810   -3.1620   25.3850 O   0  0  0  0  0  0  0  0  0  0  0  0
    6.5720   -3.0890   26.5340 N   0  0  0  0  0  0  0  0  0  0  0  0
    5.9640   -2.8810   27.8670 C   0  0  0  0  0  0  0  0  0  0  0  0
    5.2820   -4.1030   28.3660 C   0  0  2  0  0  0  0  0  0  0  0  0
    6.1130   -5.2610   28.7040 C   0  0  0  0  0  0  0  0  0  0  0  0
    5.8510   -6.4150   27.7520 C   0  0  0  0  0  0  0  0  0  0  0  0
    4.7250   -6.0510   27.0270 O   0  0  0  0  0  0  0  0  0  0  0  0
    4.4080   -4.7830   27.4050 C   0  0  0  0  0  0  0  0  0  0  0  0
    3.3580   -4.2240   26.9230 O   0  0  0  0  0  0  0  0  0  0  0  0
    5.6310   -4.7060   23.3260 C   0  0  0  0  0  0  0  0  0  0  0  0
    6.3290   -5.2100   22.2590 C   0  0  0  0  0  0  0  0  0  0  0  0
  1  2  1  0
  2  3  2  0
  2  4  1  0
  4  5  1  0
  5  6  1  0
  6  7  1  0
  7  8  1  0
  8  9  2  0
  8 10  1  0
 10 11  1  0
 12 11  1  6
 12 13  1  0
 13 14  1  0
 14 15  1  0
 12 16  1  0
 15 16  1  0
 16 17  2  0
  7 18  1  0
  4 19  1  0
 18 19  1  0
M  END
