piperidine-amides-6350-covalent
     RDKit          3D

 25 27  0  0  0  0  0  0  0  0999 V2000
    7.0750   -3.2970   19.2500 C   0  0  0  0  0  0  0  0  0  0  0  0
    6.3660   -4.0950   20.2620 C   0  0  0  0  0  0  0  0  0  0  0  0
    5.3320   -4.7220   19.9460 O   0  0  0  0  0  0  0  0  0  0  0  0
    6.8600   -4.2090   21.5700 N   0  0  0  0  0  0  0  0  0  0  0  0
    7.6910   -3.1650   22.1340 C   0  0  0  0  0  0  0  0  0  0  0  0
    6.9460   -2.6300   23.3560 C   0  0  0  0  0  0  0  0  0  0  0  0
    6.5360   -3.8380   24.1680 C   0  0  0  0  0  0  0  0  0  0  0  0
    5.7820   -3.4170   25.3690 C   0  0  0  0  0  0  0  0  0  0  0  0
    4.5570   -3.6570   25.4110 O   0  0  0  0  0  0  0  0  0  0  0  0
    6.4360   -2.7460   26.4310 N   0  0  0  0  0  0  0  0  0  0  0  0
    6.3190   -1.3160   26.5050 C   0  0  0  0  0  0  0  0  0  0  0  0
    6.5440   -0.8300   27.9290 C   0  0  0  0  0  0  0  0  0  0  0  0
    7.2030   -1.4240   28.9610 C   0  0  0  0  0  0  0  0  0  0  0  0
    7.3200   -0.8260   30.1990 C   0  0  0  0  0  0  0  0  0  0  0  0
    6.7980    0.4190   30.5680 C   0  0  0  0  0  0  0  0  0  0  0  0
    6.9560    0.9480   31.8300 C   0  0  0  0  0  0  0  0  0  0  0  0
    6.1400    1.0210   29.5640 N   0  0  0  0  0  0  0  0  0  0  0  0
    5.9870    0.5100   28.3390 C   0  0  0  0  0  0  0  0  0  0  0  0
    5.2800    1.3850   27.6020 N   0  0  0  0  0  0  0  0  0  0  0  0
    3.8590    1.4750   27.4120 C   0  0  0  0  0  0  0  0  0  0  0  0
    3.6050    2.5290   26.5820 N   0  0  0  0  0  0  0  0  0  0  0  0
    4.8090    3.0590   26.2770 C   0  0  0  0  0  0  0  0  0  0  0  0
    5.8420    2.4190   26.8590 N   0  0  0  0  0  0  0  0  0  0  0  0
    5.6730   -4.7720   23.3480 C   0  0  0  0  0  0  0  0  0  0  0  0
    6.5290   -5.3430   22.3960 C   0  0  0  0  0  0  0  0  0  0  0  0
  1  2  1  0
  2  3  2  0
  2  4  1  0
  4  5  1  0
  5  6  1  0
  6  7  1  0
  7  8  1  0
  8  9  2  0
  8 10  1  0
 10 11  1  0
 11 12  1  0
 12 13  2  0
 13 14  1  0
 14 15  2  0
 15 16  1  0
 15 17  1  0
 12 18  1  0
 17 18  2  0
 18 19  1  0
 19 20  1  0
 20 21  2  0
 21 22  1  0
 19 23  1  0
 22 23  2  0
  7 24  1  0
  4 25  1  0
 24 25  1  0
M  END
