piperidine-amides-29421-covalent
     RDKit          3D

 22 24  0  0  0  0  0  0  0  0999 V2000
    7.0050   -3.3500   19.4170 C   0  0  0  0  0  0  0  0  0  0  0  0
    6.3800   -4.2220   20.4160 C   0  0  0  0  0  0  0  0  0  0  0  0
    5.4480   -4.9520   20.0120 O   0  0  0  0  0  0  0  0  0  0  0  0
    6.8360   -4.2530   21.7760 N   0  0  0  0  0  0  0  0  0  0  0  0
    6.6880   -5.4790   22.5300 C   0  0  0  0  0  0  0  0  0  0  0  0
    6.2490   -5.1820   23.9460 C   0  0  0  0  0  0  0  0  0  0  0  0
    6.1010   -3.6820   24.0270 C   0  0  0  0  0  0  0  0  0  0  0  0
    5.4580   -3.1990   25.3250 C   0  0  0  0  0  0  0  0  0  0  0  0
    4.2510   -3.0250   25.1890 O   0  0  0  0  0  0  0  0  0  0  0  0
    6.0770   -2.9660   26.5840 N   0  0  0  0  0  0  0  0  0  0  0  0
    5.1570   -2.5950   27.6440 C   0  0  0  0  0  0  0  0  0  0  0  0
    5.0740   -3.6600   28.5880 C   0  0  0  0  0  0  0  0  0  0  0  0
    6.1230   -4.4560   28.2900 C   0  0  0  0  0  0  0  0  0  0  0  0
    6.6640   -5.5520   28.8980 C   0  0  0  0  0  0  0  0  0  0  0  0
    6.1930   -6.1430   30.0430 F   0  0  0  0  0  0  0  0  0  0  0  0
    7.9150   -6.1370   28.1870 C   0  0  0  0  0  0  0  0  0  0  0  0
    8.7370   -5.7460   26.8660 C   0  0  0  0  0  0  0  0  0  0  0  0
    9.0940   -4.7050   25.3260 Br  0  0  0  0  0  0  0  0  0  0  0  0
    7.8020   -4.7250   26.7330 C   0  0  0  0  0  0  0  0  0  0  0  0
    6.6900   -4.0760   27.2160 C   0  0  0  0  0  0  0  0  0  0  0  0
    7.2660   -2.8920   23.6110 C   0  0  0  0  0  0  0  0  0  0  0  0
    7.7210   -3.2300   22.3400 C   0  0  0  0  0  0  0  0  0  0  0  0
  1  2  1  0
  2  3  2  0
  2  4  1  0
  4  5  1  0
  5  6  1  0
  6  7  1  0
  7  8  1  0
  8  9  2  0
  8 10  1  0
 10 11  1  0
 11 12  1  0
 12 13  1  0
 13 14  1  0
 14 15  1  0
 14 16  2  0
 16 17  1  0
 17 18  1  0
 17 19  2  0
 10 20  1  0
 13 20  2  0
 19 20  1  0
  7 21  1  0
  4 22  1  0
 21 22  1  0
M  END
