piperidine-amides-31666-covalent
     RDKit          3D

 26 27  0  0  0  0  0  0  0  0999 V2000
    7.2310   -3.2840   19.3050 C   0  0  0  0  0  0  0  0  0  0  0  0
    6.4020   -3.9930   20.2510 C   0  0  0  0  0  0  0  0  0  0  0  0
    5.3010   -4.4980   19.8670 O   0  0  0  0  0  0  0  0  0  0  0  0
    6.8140   -4.1830   21.5790 N   0  0  0  0  0  0  0  0  0  0  0  0
    7.8170   -3.2510   22.1440 C   0  0  0  0  0  0  0  0  0  0  0  0
    6.9840   -2.7140   23.3550 C   0  0  0  0  0  0  0  0  0  0  0  0
    6.6820   -3.9330   24.1880 C   0  0  0  0  0  0  0  0  0  0  0  0
    5.9250   -3.4980   25.4980 C   0  0  0  0  0  0  0  0  0  0  0  0
    4.7290   -3.7630   25.4210 O   0  0  0  0  0  0  0  0  0  0  0  0
    6.7810   -2.9590   26.2850 N   0  0  0  0  0  0  0  0  0  0  0  0
    7.7230   -2.0840   26.7230 C   0  0  0  0  0  0  0  0  0  0  0  0
    6.6280   -3.6340   27.5030 C   0  0  2  0  0  0  0  0  0  0  0  0
    6.8190   -5.0450   27.4650 C   0  0  0  0  0  0  0  0  0  0  0  0
    5.1670   -3.4540   28.0030 C   0  0  0  0  0  0  0  0  0  0  0  0
    4.9720   -2.1110   27.2240 C   0  0  0  0  0  0  0  0  0  0  0  0
    5.4060   -1.3030   28.2830 C   0  0  0  0  0  0  0  0  0  0  0  0
    4.5370   -1.2240   29.3730 N   0  0  0  0  0  0  0  0  0  0  0  0
    4.8260    0.0380   30.5110 S   0  0  0  0  0  0  0  0  0  0  0  0
    3.8750   -0.0730   31.6330 O   0  0  0  0  0  0  0  0  0  0  0  0
    4.6450    1.3040   29.7320 O   0  0  0  0  0  0  0  0  0  0  0  0
    6.5240    0.1130   31.1020 C   0  0  0  0  0  0  0  0  0  0  0  0
    7.3260   -0.7900   30.1650 C   0  0  0  0  0  0  0  0  0  0  0  0
    4.2510   -2.3070   30.0760 C   0  0  0  0  0  0  0  0  0  0  0  0
    4.8830   -3.3870   29.5190 C   0  0  0  0  0  0  0  0  0  0  0  0
    5.9520   -5.0730   23.4760 C   0  0  0  0  0  0  0  0  0  0  0  0
    6.4960   -5.3930   22.2800 C   0  0  0  0  0  0  0  0  0  0  0  0
  1  2  1  0
  2  3  2  0
  2  4  1  0
  4  5  1  0
  5  6  1  0
  6  7  1  0
  7  8  1  0
  8  9  2  0
  8 10  1  0
 10 11  1  0
 10 12  1  0
 12 13  1  6
 12 14  1  0
 14 15  1  0
 15 16  1  0
 16 17  1  0
 17 18  1  0
 18 19  2  0
 18 20  2  0
 18 21  1  0
 21 22  1  0
 17 23  1  0
 14 24  1  0
 23 24  1  0
  7 25  1  0
  4 26  1  0
 25 26  1  0
M  END
