piperidine-amides-2598-covalent
     RDKit          3D

 26 28  0  0  0  0  0  0  0  0999 V2000
    7.0160   -3.3370   19.3150 C   0  0  0  0  0  0  0  0  0  0  0  0
    6.3600   -4.1860   20.3450 C   0  0  0  0  0  0  0  0  0  0  0  0
    5.3780   -4.8320   19.9790 O   0  0  0  0  0  0  0  0  0  0  0  0
    6.8730   -4.2600   21.6490 N   0  0  0  0  0  0  0  0  0  0  0  0
    7.7180   -3.2190   22.1880 C   0  0  0  0  0  0  0  0  0  0  0  0
    7.4190   -3.0440   23.6420 C   0  0  0  0  0  0  0  0  0  0  0  0
    6.0430   -3.6370   23.9250 C   0  0  0  0  0  0  0  0  0  0  0  0
    5.6350   -3.1990   25.2740 C   0  0  0  0  0  0  0  0  0  0  0  0
    4.4340   -3.1650   25.5720 O   0  0  0  0  0  0  0  0  0  0  0  0
    6.6070   -2.8270   26.2130 N   0  0  0  0  0  0  0  0  0  0  0  0
    6.4650   -1.5890   26.9450 C   0  0  0  0  0  0  0  0  0  0  0  0
    6.9800   -1.4900   28.3550 C   0  0  0  0  0  0  0  0  0  0  0  0
    6.9570   -0.4430   29.2170 C   0  0  0  0  0  0  0  0  0  0  0  0
    6.3850    0.7090   28.7730 C   0  0  0  0  0  0  0  0  0  0  0  0
    6.3450    1.8000   29.6430 F   0  0  0  0  0  0  0  0  0  0  0  0
    5.8420    0.8510   27.5130 C   0  0  0  0  0  0  0  0  0  0  0  0
    5.3510    2.0620   27.3530 N   0  0  0  0  0  0  0  0  0  0  0  0
    3.9010    2.2040   27.6220 C   0  0  0  0  0  0  0  0  0  0  0  0
    3.3860    3.2600   26.6470 C   0  0  0  0  0  0  0  0  0  0  0  0
    4.5620    3.4580   25.7050 C   0  0  0  0  0  0  0  0  0  0  0  0
    6.0700    2.7590   25.9830 S   0  0  0  0  0  0  0  0  0  0  0  0
    7.0820    3.7990   26.3380 O   0  0  0  0  0  0  0  0  0  0  0  0
    6.4600    1.8140   24.8850 O   0  0  0  0  0  0  0  0  0  0  0  0
    5.8550   -0.3010   26.5200 C   0  0  0  0  0  0  0  0  0  0  0  0
    6.0080   -5.1270   23.7310 C   0  0  0  0  0  0  0  0  0  0  0  0
    6.6810   -5.4820   22.4100 C   0  0  0  0  0  0  0  0  0  0  0  0
  1  2  1  0
  2  3  2  0
  2  4  1  0
  4  5  1  0
  5  6  1  0
  6  7  1  0
  7  8  1  0
  8  9  2  0
  8 10  1  0
 10 11  1  0
 11 12  2  0
 12 13  1  0
 13 14  2  0
 14 15  1  0
 14 16  1  0
 16 17  1  0
 17 18  1  0
 18 19  1  0
 19 20  1  0
 21 17  1  0
 20 21  1  0
 21 22  2  0
 21 23  2  0
 11 24  1  0
 16 24  2  0
  7 25  1  0
  4 26  1  0
 25 26  1  0
M  END
