piperidine-amides-12801-covalent
     RDKit          3D

 22 23  0  0  0  0  0  0  0  0999 V2000
    7.0960   -3.3210   19.3360 C   0  0  0  0  0  0  0  0  0  0  0  0
    6.3680   -4.1150   20.3470 C   0  0  0  0  0  0  0  0  0  0  0  0
    5.3340   -4.6890   19.9440 O   0  0  0  0  0  0  0  0  0  0  0  0
    6.8560   -4.2450   21.6650 N   0  0  0  0  0  0  0  0  0  0  0  0
    6.5630   -5.4070   22.4400 C   0  0  0  0  0  0  0  0  0  0  0  0
    6.0070   -5.0790   23.7540 C   0  0  0  0  0  0  0  0  0  0  0  0
    5.9150   -3.6200   23.9840 C   0  0  0  0  0  0  0  0  0  0  0  0
    5.3180   -3.2670   25.3130 C   0  0  0  0  0  0  0  0  0  0  0  0
    4.1290   -2.9110   25.2970 O   0  0  0  0  0  0  0  0  0  0  0  0
    5.9860   -3.2990   26.5610 N   0  0  0  0  0  0  0  0  0  0  0  0
    6.1430   -4.5260   27.3810 C   0  0  0  0  0  0  0  0  0  0  0  0
    4.9860   -5.0750   28.1210 C   0  0  1  0  0  0  0  0  0  0  0  0
    4.4780   -4.3630   29.2720 C   0  0  0  0  0  0  0  0  0  0  0  0
    3.7910   -5.1590   30.1620 C   0  0  0  0  0  0  0  0  0  0  0  0
    3.6200   -6.5050   29.8390 C   0  0  2  0  0  0  0  0  0  0  0  0
    4.5510   -7.4060   30.3160 C   0  0  0  0  0  0  0  0  0  0  0  0
    5.7140   -7.4660   29.5980 C   0  0  0  0  0  0  0  0  0  0  0  0
    4.8270   -7.3190   31.6720 C   0  0  0  0  0  0  0  0  0  0  0  0
    3.3220   -6.7230   28.5030 C   0  0  0  0  0  0  0  0  0  0  0  0
    4.0450   -5.8750   27.5330 C   0  0  0  0  0  0  0  0  0  0  0  0
    7.1880   -2.9040   23.6920 C   0  0  0  0  0  0  0  0  0  0  0  0
    7.6660   -3.2030   22.2890 C   0  0  0  0  0  0  0  0  0  0  0  0
  1  2  1  0
  2  3  2  0
  2  4  1  0
  4  5  1  0
  5  6  1  0
  6  7  1  0
  7  8  1  0
  8  9  2  0
  8 10  1  0
 10 11  1  0
 12 11  1  6
 12 13  1  0
 13 14  1  0
 14 15  1  0
 15 16  1  6
 16 17  1  0
 16 18  1  0
 15 19  1  0
 12 20  1  0
 19 20  1  0
  7 21  1  0
  4 22  1  0
 21 22  1  0
M  END
