piperidine-amides-21680-covalent
     RDKit          3D

 23 25  0  0  0  0  0  0  0  0999 V2000
    7.0540   -3.3510   19.3270 C   0  0  0  0  0  0  0  0  0  0  0  0
    6.3930   -4.1850   20.3400 C   0  0  0  0  0  0  0  0  0  0  0  0
    5.3690   -4.8170   19.9700 O   0  0  0  0  0  0  0  0  0  0  0  0
    6.9130   -4.2970   21.6330 N   0  0  0  0  0  0  0  0  0  0  0  0
    6.7780   -5.5260   22.3880 C   0  0  0  0  0  0  0  0  0  0  0  0
    6.1570   -5.1760   23.7060 C   0  0  0  0  0  0  0  0  0  0  0  0
    6.2250   -3.6950   23.8980 C   0  0  0  0  0  0  0  0  0  0  0  0
    5.6650   -3.2820   25.1930 C   0  0  0  0  0  0  0  0  0  0  0  0
    4.7850   -2.4020   25.1820 O   0  0  0  0  0  0  0  0  0  0  0  0
    6.0260   -3.8180   26.4270 N   0  0  0  0  0  0  0  0  0  0  0  0
    5.2420   -4.9230   26.8850 C   0  0  0  0  0  0  0  0  0  0  0  0
    5.6570   -5.3820   28.2590 C   0  0  0  0  0  0  0  0  0  0  0  0
    5.7990   -4.5140   29.2690 C   0  0  0  0  0  0  0  0  0  0  0  0
    4.6760   -3.9750   29.8640 C   0  0  0  0  0  0  0  0  0  0  0  0
    4.3620   -2.6640   30.1270 C   0  0  0  0  0  0  0  0  0  0  0  0
    3.1830   -2.4100   30.7280 N   0  0  0  0  0  0  0  0  0  0  0  0
    2.6500   -3.6420   30.8850 N   0  0  0  0  0  0  0  0  0  0  0  0
    1.3560   -3.8700   31.4990 C   0  0  0  0  0  0  0  0  0  0  0  0
    3.4740   -4.7290   30.3910 C   0  0  0  0  0  0  0  0  0  0  0  0
    6.6850   -3.5920   28.8120 C   0  0  0  0  0  0  0  0  0  0  0  0
    6.3760   -2.9440   27.4720 C   0  0  0  0  0  0  0  0  0  0  0  0
    7.6510   -3.2060   23.6730 C   0  0  0  0  0  0  0  0  0  0  0  0
    7.7600   -3.2090   22.1630 C   0  0  0  0  0  0  0  0  0  0  0  0
  1  2  1  0
  2  3  2  0
  2  4  1  0
  4  5  1  0
  5  6  1  0
  6  7  1  0
  7  8  1  0
  8  9  2  0
  8 10  1  0
 10 11  1  0
 11 12  1  0
 12 13  1  0
 13 14  1  0
 14 15  1  0
 15 16  2  0
 16 17  1  0
 17 18  1  0
 14 19  2  0
 17 19  1  0
 13 20  1  0
 10 21  1  0
 20 21  1  0
  7 22  1  0
  4 23  1  0
 22 23  1  0
M  END
