piperidine-amides-27621-covalent
     RDKit          3D

 26 29  0  0  0  0  0  0  0  0999 V2000
    7.0290   -3.3580   19.3850 C   0  0  0  0  0  0  0  0  0  0  0  0
    6.3800   -4.2100   20.3920 C   0  0  0  0  0  0  0  0  0  0  0  0
    5.3880   -4.8710   19.9900 O   0  0  0  0  0  0  0  0  0  0  0  0
    6.8720   -4.3080   21.7090 N   0  0  0  0  0  0  0  0  0  0  0  0
    6.7060   -5.5400   22.4600 C   0  0  0  0  0  0  0  0  0  0  0  0
    6.1790   -5.2080   23.8320 C   0  0  0  0  0  0  0  0  0  0  0  0
    6.0320   -3.7240   24.0130 C   0  0  0  0  0  0  0  0  0  0  0  0
    5.4300   -3.3510   25.3340 C   0  0  0  0  0  0  0  0  0  0  0  0
    4.2880   -2.8530   25.2830 O   0  0  0  0  0  0  0  0  0  0  0  0
    5.9950   -3.4910   26.6280 N   0  0  0  0  0  0  0  0  0  0  0  0
    5.7190   -2.5500   27.6770 C   0  0  0  0  0  0  0  0  0  0  0  0
    6.0690   -3.1820   29.0240 C   0  0  0  0  0  0  0  0  0  0  0  0
    6.1930   -4.5310   29.1830 C   0  0  0  0  0  0  0  0  0  0  0  0
    5.7380   -5.2880   28.1730 C   0  0  1  0  0  0  0  0  0  0  0  0
    5.9950   -6.6220   28.3310 C   0  0  0  0  0  0  0  0  0  0  0  0
    5.2570   -7.2500   29.3230 C   0  0  0  0  0  0  0  0  0  0  0  0
    3.9780   -6.7870   29.5700 C   0  0  0  0  0  0  0  0  0  0  0  0
    3.0290   -7.5870   30.4610 C   0  0  0  0  0  0  0  0  0  0  0  0
    1.6600   -6.9270   30.6230 C   0  0  0  0  0  0  0  0  0  0  0  0
    1.3060   -5.6310   29.9690 C   0  0  0  0  0  0  0  0  0  0  0  0
    2.3620   -4.9820   29.1270 C   0  0  0  0  0  0  0  0  0  0  0  0
    3.5990   -5.5760   28.9780 C   0  0  0  0  0  0  0  0  0  0  0  0
    4.4960   -4.8950   28.1830 O   0  0  0  0  0  0  0  0  0  0  0  0
    6.3480   -4.7860   27.0980 C   0  0  0  0  0  0  0  0  0  0  0  0
    7.3290   -3.0260   23.7380 C   0  0  0  0  0  0  0  0  0  0  0  0
    7.6800   -3.2160   22.2540 C   0  0  0  0  0  0  0  0  0  0  0  0
  1  2  1  0
  2  3  2  0
  2  4  1  0
  4  5  1  0
  5  6  1  0
  6  7  1  0
  7  8  1  0
  8  9  2  0
  8 10  1  0
 10 11  1  0
 11 12  1  0
 12 13  1  0
 14 13  1  1
 14 15  1  0
 15 16  1  0
 16 17  1  0
 17 18  2  0
 18 19  1  0
 19 20  2  0
 20 21  1  0
 17 22  1  0
 21 22  2  0
 14 23  1  0
 22 23  1  0
 10 24  1  0
 14 24  1  0
  7 25  1  0
  4 26  1  0
 25 26  1  0
M  END
