piperidine-amides-10723-covalent
     RDKit          3D

 22 23  0  0  0  0  0  0  0  0999 V2000
    7.0690   -3.3580   19.3360 C   0  0  0  0  0  0  0  0  0  0  0  0
    6.3550   -4.1490   20.3410 C   0  0  0  0  0  0  0  0  0  0  0  0
    5.3800   -4.8310   19.9810 O   0  0  0  0  0  0  0  0  0  0  0  0
    6.7810   -4.1800   21.6780 N   0  0  0  0  0  0  0  0  0  0  0  0
    7.7190   -3.1900   22.1800 C   0  0  0  0  0  0  0  0  0  0  0  0
    7.3830   -2.9640   23.6210 C   0  0  0  0  0  0  0  0  0  0  0  0
    6.0650   -3.5770   23.9600 C   0  0  0  0  0  0  0  0  0  0  0  0
    5.6280   -3.2520   25.3390 C   0  0  0  0  0  0  0  0  0  0  0  0
    4.3980   -3.2670   25.6370 O   0  0  0  0  0  0  0  0  0  0  0  0
    6.5270   -2.9070   26.3710 N   0  0  0  0  0  0  0  0  0  0  0  0
    6.4390   -1.6080   27.0690 C   0  0  0  0  0  0  0  0  0  0  0  0
    7.0060   -1.6530   28.4350 C   0  0  0  0  0  0  0  0  0  0  0  0
    6.9900   -0.4340   29.2600 C   0  0  0  0  0  0  0  0  0  0  0  0
    6.3880    0.8140   28.6700 C   0  0  0  0  0  0  0  0  0  0  0  0
    6.3570    1.9860   29.4250 F   0  0  0  0  0  0  0  0  0  0  0  0
    5.8380    0.7400   27.2630 C   0  0  0  0  0  0  0  0  0  0  0  0
    5.2730    2.0240   26.7920 C   0  0  0  0  0  0  0  0  0  0  0  0
    4.0650    2.4240   27.3020 C   0  0  0  0  0  0  0  0  0  0  0  0
    4.0600    1.6820   25.9430 C   0  0  0  0  0  0  0  0  0  0  0  0
    5.8840   -0.4200   26.5450 C   0  0  0  0  0  0  0  0  0  0  0  0
    5.9950   -5.0670   23.7530 C   0  0  0  0  0  0  0  0  0  0  0  0
    6.6680   -5.4110   22.4400 C   0  0  0  0  0  0  0  0  0  0  0  0
  1  2  1  0
  2  3  2  0
  2  4  1  0
  4  5  1  0
  5  6  1  0
  6  7  1  0
  7  8  1  0
  8  9  2  0
  8 10  1  0
 10 11  1  0
 11 12  2  0
 12 13  1  0
 13 14  2  0
 14 15  1  0
 14 16  1  0
 16 17  1  0
 17 18  1  0
 17 19  1  0
 11 20  1  0
 16 20  2  0
  7 21  1  0
  4 22  1  0
 21 22  1  0
M  END
