piperidine-amides-7251-covalent
     RDKit          3D

 21 22  0  0  0  0  0  0  0  0999 V2000
    7.0470   -3.3390   19.3620 C   0  0  0  0  0  0  0  0  0  0  0  0
    6.3920   -4.1890   20.3620 C   0  0  0  0  0  0  0  0  0  0  0  0
    5.3630   -4.8020   19.9730 O   0  0  0  0  0  0  0  0  0  0  0  0
    6.9230   -4.3350   21.6540 N   0  0  0  0  0  0  0  0  0  0  0  0
    6.6760   -5.5130   22.4590 C   0  0  0  0  0  0  0  0  0  0  0  0
    6.0740   -5.0960   23.7810 C   0  0  0  0  0  0  0  0  0  0  0  0
    6.0380   -3.6000   23.9560 C   0  0  0  0  0  0  0  0  0  0  0  0
    5.6540   -3.2430   25.3400 C   0  0  0  0  0  0  0  0  0  0  0  0
    4.4380   -3.2730   25.6270 O   0  0  0  0  0  0  0  0  0  0  0  0
    6.5670   -2.8720   26.3400 N   0  0  0  0  0  0  0  0  0  0  0  0
    6.4470   -1.6090   27.0300 C   0  0  0  0  0  0  0  0  0  0  0  0
    7.0550   -1.5700   28.4230 C   0  0  0  0  0  0  0  0  0  0  0  0
    7.0190   -0.4470   29.2100 C   0  0  0  0  0  0  0  0  0  0  0  0
    6.4150    0.7190   28.7630 C   0  0  0  0  0  0  0  0  0  0  0  0
    6.3280    1.8990   29.4830 C   0  0  0  0  0  0  0  0  0  0  0  0
    5.7790    0.7860   27.3920 C   0  0  0  0  0  0  0  0  0  0  0  0
    5.1780    1.9910   26.9900 O   0  0  0  0  0  0  0  0  0  0  0  0
    3.8740    1.9130   26.4420 C   0  0  0  0  0  0  0  0  0  0  0  0
    5.8260   -0.4720   26.5170 C   0  0  0  0  0  0  0  0  0  0  0  0
    7.3480   -2.9860   23.6320 C   0  0  0  0  0  0  0  0  0  0  0  0
    7.6820   -3.1930   22.1790 C   0  0  0  0  0  0  0  0  0  0  0  0
  1  2  1  0
  2  3  2  0
  2  4  1  0
  4  5  1  0
  5  6  1  0
  6  7  1  0
  7  8  1  0
  8  9  2  0
  8 10  1  0
 10 11  1  0
 11 12  2  0
 12 13  1  0
 13 14  2  0
 14 15  1  0
 14 16  1  0
 16 17  1  0
 17 18  1  0
 11 19  1  0
 16 19  2  0
  7 20  1  0
  4 21  1  0
 20 21  1  0
M  END
