piperidine-amides-12007-covalent
     RDKit          3D

 26 28  0  0  0  0  0  0  0  0999 V2000
    7.1090   -3.3450   19.3300 C   0  0  0  0  0  0  0  0  0  0  0  0
    6.3660   -4.1520   20.2860 C   0  0  0  0  0  0  0  0  0  0  0  0
    5.3290   -4.7210   19.9470 O   0  0  0  0  0  0  0  0  0  0  0  0
    6.8800   -4.3240   21.6100 N   0  0  0  0  0  0  0  0  0  0  0  0
    7.6410   -3.2570   22.2130 C   0  0  0  0  0  0  0  0  0  0  0  0
    6.8820   -2.6830   23.3690 C   0  0  0  0  0  0  0  0  0  0  0  0
    6.5380   -3.8400   24.2810 C   0  0  0  0  0  0  0  0  0  0  0  0
    5.7290   -3.3700   25.4390 C   0  0  0  0  0  0  0  0  0  0  0  0
    4.4770   -3.3190   25.4440 O   0  0  0  0  0  0  0  0  0  0  0  0
    6.4360   -2.9770   26.5960 N   0  0  0  0  0  0  0  0  0  0  0  0
    6.1140   -1.7520   27.2980 C   0  0  0  0  0  0  0  0  0  0  0  0
    4.7840   -2.1240   27.8970 C   0  0  0  0  0  0  0  0  0  0  0  0
    4.6620   -2.8890   29.0520 C   0  0  0  0  0  0  0  0  0  0  0  0
    3.4210   -3.2370   29.6180 C   0  0  0  0  0  0  0  0  0  0  0  0
    2.2180   -2.8590   29.0850 C   0  0  0  0  0  0  0  0  0  0  0  0
    1.1320   -3.1750   29.5960 O   0  0  0  0  0  0  0  0  0  0  0  0
    0.8760   -3.8900   30.7460 C   0  0  0  0  0  0  0  0  0  0  0  0
    2.2810   -2.1160   27.9640 C   0  0  0  0  0  0  0  0  0  0  0  0
    3.4580   -1.7450   27.3680 C   0  0  0  0  0  0  0  0  0  0  0  0
    7.0180   -1.3900   28.2360 C   0  0  0  0  0  0  0  0  0  0  0  0
    6.6300   -0.3240   29.1420 C   0  0  0  0  0  0  0  0  0  0  0  0
    6.2010    0.8550   28.5600 C   0  0  0  0  0  0  0  0  0  0  0  0
    5.8600    0.7500   27.2060 C   0  0  0  0  0  0  0  0  0  0  0  0
    5.9700   -0.5850   26.5250 C   0  0  0  0  0  0  0  0  0  0  0  0
    5.7830   -4.9550   23.6260 C   0  0  0  0  0  0  0  0  0  0  0  0
    6.5040   -5.4580   22.3960 C   0  0  0  0  0  0  0  0  0  0  0  0
  1  2  1  0
  2  3  2  0
  2  4  1  0
  4  5  1  0
  5  6  1  0
  6  7  1  0
  7  8  1  0
  8  9  2  0
  8 10  1  0
 11 10  1  0
 11 12  1  0
 12 13  2  0
 13 14  1  0
 14 15  2  0
 15 16  1  0
 16 17  1  0
 15 18  1  0
 12 19  1  0
 18 19  2  0
 11 20  1  0
 20 21  1  0
 21 22  1  0
 22 23  1  0
 11 24  1  0
 23 24  1  0
  7 25  1  0
  4 26  1  0
 25 26  1  0
M  END
