piperidine-amides-28107-covalent
     RDKit          3D

 26 29  0  0  0  0  0  0  0  0999 V2000
    7.0700   -3.3500   19.3340 C   0  0  0  0  0  0  0  0  0  0  0  0
    6.4330   -4.2170   20.3490 C   0  0  0  0  0  0  0  0  0  0  0  0
    5.4130   -4.8430   19.9880 O   0  0  0  0  0  0  0  0  0  0  0  0
    7.0010   -4.3510   21.6310 N   0  0  0  0  0  0  0  0  0  0  0  0
    6.7100   -5.5080   22.4190 C   0  0  0  0  0  0  0  0  0  0  0  0
    6.1690   -5.1600   23.7290 C   0  0  0  0  0  0  0  0  0  0  0  0
    6.1790   -3.7040   23.9330 C   0  0  0  0  0  0  0  0  0  0  0  0
    5.6330   -3.2520   25.2350 C   0  0  0  0  0  0  0  0  0  0  0  0
    4.7830   -2.3510   25.1920 O   0  0  0  0  0  0  0  0  0  0  0  0
    5.9790   -3.7740   26.4880 N   0  0  0  0  0  0  0  0  0  0  0  0
    5.1660   -4.9230   26.8950 C   0  0  0  0  0  0  0  0  0  0  0  0
    5.5770   -5.5270   28.1730 C   0  0  0  0  0  0  0  0  0  0  0  0
    5.9080   -4.6370   29.2320 C   0  0  0  0  0  0  0  0  0  0  0  0
    4.5960   -4.3390   29.7910 N   0  0  0  0  0  0  0  0  0  0  0  0
    3.7750   -5.2990   30.4300 C   0  0  0  0  0  0  0  0  0  0  0  0
    3.0310   -4.8170   31.4820 C   0  0  0  0  0  0  0  0  0  0  0  0
    3.2270   -3.4450   31.8070 N   0  0  0  0  0  0  0  0  0  0  0  0
    2.8510   -2.8400   33.1320 C   0  0  0  0  0  0  0  0  0  0  0  0
    3.2300   -1.5380   32.9540 C   0  0  0  0  0  0  0  0  0  0  0  0
    3.7490   -1.3120   31.7650 N   0  0  0  0  0  0  0  0  0  0  0  0
    3.7730   -2.5230   30.9700 C   0  0  0  0  0  0  0  0  0  0  0  0
    4.1640   -2.9770   29.7000 C   0  0  0  0  0  0  0  0  0  0  0  0
    6.6830   -3.6210   28.8140 C   0  0  0  0  0  0  0  0  0  0  0  0
    6.3290   -2.9100   27.5240 C   0  0  0  0  0  0  0  0  0  0  0  0
    7.5610   -3.1560   23.5930 C   0  0  0  0  0  0  0  0  0  0  0  0
    7.8220   -3.2830   22.2090 C   0  0  0  0  0  0  0  0  0  0  0  0
  1  2  1  0
  2  3  2  0
  2  4  1  0
  4  5  1  0
  5  6  1  0
  6  7  1  0
  7  8  1  0
  8  9  2  0
  8 10  1  0
 10 11  1  0
 11 12  1  0
 12 13  1  0
 13 14  1  0
 14 15  1  0
 15 16  1  0
 16 17  1  0
 17 18  1  0
 18 19  2  0
 19 20  1  0
 17 21  1  0
 20 21  2  0
 14 22  1  0
 21 22  1  0
 13 23  1  0
 10 24  1  0
 23 24  1  0
  7 25  1  0
  4 26  1  0
 25 26  1  0
M  END
