piperidine-amides-19814-covalent
     RDKit          3D

 22 24  0  0  0  0  0  0  0  0999 V2000
    7.0600   -3.3130   19.3030 C   0  0  0  0  0  0  0  0  0  0  0  0
    6.3800   -4.1760   20.3030 C   0  0  0  0  0  0  0  0  0  0  0  0
    5.3510   -4.7470   19.9500 O   0  0  0  0  0  0  0  0  0  0  0  0
    6.9420   -4.3540   21.5660 N   0  0  0  0  0  0  0  0  0  0  0  0
    6.7090   -5.5490   22.3390 C   0  0  0  0  0  0  0  0  0  0  0  0
    5.8410   -5.2100   23.5160 C   0  0  0  0  0  0  0  0  0  0  0  0
    6.4210   -4.0030   24.2480 C   0  0  0  0  0  0  0  0  0  0  0  0
    5.4510   -3.6500   25.3090 C   0  0  0  0  0  0  0  0  0  0  0  0
    4.5740   -2.8020   25.1140 O   0  0  0  0  0  0  0  0  0  0  0  0
    5.5620   -4.3020   26.5410 N   0  0  0  0  0  0  0  0  0  0  0  0
    6.9060   -4.4910   26.8330 C   0  0  0  0  0  0  0  0  0  0  0  0
    7.0420   -5.2570   28.1100 C   0  0  0  0  0  0  0  0  0  0  0  0
    6.2380   -4.9230   29.1360 C   0  0  0  0  0  0  0  0  0  0  0  0
    4.9150   -4.9780   28.8490 C   0  0  1  0  0  0  0  0  0  0  0  0
    4.0060   -4.8170   29.8560 C   0  0  0  0  0  0  0  0  0  0  0  0
    3.8060   -5.8730   30.9290 C   0  0  0  0  0  0  0  0  0  0  0  0
    2.7200   -5.1440   31.5970 C   0  0  0  0  0  0  0  0  0  0  0  0
    1.9360   -6.4040   31.3830 C   0  0  0  0  0  0  0  0  0  0  0  0
    3.0570   -7.1500   30.6800 C   0  0  0  0  0  0  0  0  0  0  0  0
    5.0630   -3.8040   27.8370 C   0  0  0  0  0  0  0  0  0  0  0  0
    6.8110   -2.8680   23.3810 C   0  0  0  0  0  0  0  0  0  0  0  0
    7.6390   -3.2670   22.2190 C   0  0  0  0  0  0  0  0  0  0  0  0
  1  2  1  0
  2  3  2  0
  2  4  1  0
  4  5  1  0
  5  6  1  0
  6  7  1  0
  7  8  1  0
  8  9  2  0
  8 10  1  0
 10 11  1  0
 11 12  1  0
 12 13  1  0
 13 14  1  0
 14 15  1  1
 15 16  1  0
 16 17  1  0
 17 18  1  0
 16 19  1  0
 18 19  1  0
 10 20  1  0
 14 20  1  0
  7 21  1  0
  4 22  1  0
 21 22  1  0
M  END
