piperidine-amides-27615-covalent
     RDKit          3D

 26 29  0  0  0  0  0  0  0  0999 V2000
    7.0370   -3.3650   19.3940 C   0  0  0  0  0  0  0  0  0  0  0  0
    6.4020   -4.2440   20.3810 C   0  0  0  0  0  0  0  0  0  0  0  0
    5.3780   -4.8680   19.9860 O   0  0  0  0  0  0  0  0  0  0  0  0
    6.9500   -4.4050   21.6630 N   0  0  0  0  0  0  0  0  0  0  0  0
    6.7610   -5.6180   22.4130 C   0  0  0  0  0  0  0  0  0  0  0  0
    6.6070   -5.2340   23.8610 C   0  0  0  0  0  0  0  0  0  0  0  0
    5.9410   -3.9000   23.9940 C   0  0  0  0  0  0  0  0  0  0  0  0
    5.5220   -3.5870   25.3870 C   0  0  0  0  0  0  0  0  0  0  0  0
    4.2980   -3.3940   25.5420 O   0  0  0  0  0  0  0  0  0  0  0  0
    6.3290   -3.4630   26.5450 N   0  0  0  0  0  0  0  0  0  0  0  0
    6.3390   -2.1170   27.0860 C   0  0  0  0  0  0  0  0  0  0  0  0
    6.3180   -2.3800   28.5410 C   0  0  0  0  0  0  0  0  0  0  0  0
    6.4280   -3.6680   28.7450 C   0  0  0  0  0  0  0  0  0  0  0  0
    6.2020   -4.4510   27.6440 C   0  0  2  0  0  0  0  0  0  0  0  0
    7.0560   -5.5030   27.6810 C   0  0  0  0  0  0  0  0  0  0  0  0
    6.5570   -6.1330   28.7660 C   0  0  0  0  0  0  0  0  0  0  0  0
    5.2180   -5.9690   28.7110 N   0  0  0  0  0  0  0  0  0  0  0  0
    4.3790   -6.1340   29.7590 C   0  0  0  0  0  0  0  0  0  0  0  0
    4.2070   -7.5920   30.0270 C   0  0  0  0  0  0  0  0  0  0  0  0
    3.2730   -7.7200   31.1990 C   0  0  0  0  0  0  0  0  0  0  0  0
    2.6770   -6.5260   31.8990 C   0  0  0  0  0  0  0  0  0  0  0  0
    2.8980   -5.2300   31.5710 N   0  0  0  0  0  0  0  0  0  0  0  0
    3.7490   -5.1180   30.5060 C   0  0  0  0  0  0  0  0  0  0  0  0
    4.9280   -4.9610   27.7210 C   0  0  0  0  0  0  0  0  0  0  0  0
    6.8160   -2.8080   23.4020 C   0  0  0  0  0  0  0  0  0  0  0  0
    7.7360   -3.3740   22.3270 C   0  0  0  0  0  0  0  0  0  0  0  0
  1  2  1  0
  2  3  2  0
  2  4  1  0
  4  5  1  0
  5  6  1  0
  6  7  1  0
  7  8  1  0
  8  9  2  0
  8 10  1  0
 10 11  1  0
 11 12  1  0
 12 13  1  0
 14 10  1  0
 14 13  1  1
 14 15  1  0
 15 16  1  0
 16 17  1  0
 17 18  1  0
 18 19  2  0
 19 20  1  0
 20 21  2  0
 21 22  1  0
 18 23  1  0
 22 23  2  0
 14 24  1  0
 17 24  1  0
  7 25  1  0
  4 26  1  0
 25 26  1  0
M  END
