piperidine-amides-28171-covalent
     RDKit          3D

 26 28  0  0  0  0  0  0  0  0999 V2000
    7.0670   -3.3320   19.3440 C   0  0  0  0  0  0  0  0  0  0  0  0
    6.3890   -4.1960   20.3350 C   0  0  0  0  0  0  0  0  0  0  0  0
    5.3470   -4.7650   19.9550 O   0  0  0  0  0  0  0  0  0  0  0  0
    6.9210   -4.4010   21.6170 N   0  0  0  0  0  0  0  0  0  0  0  0
    6.5050   -5.5250   22.3750 C   0  0  0  0  0  0  0  0  0  0  0  0
    5.8680   -5.1690   23.6500 C   0  0  0  0  0  0  0  0  0  0  0  0
    6.4180   -3.9800   24.3520 C   0  0  0  0  0  0  0  0  0  0  0  0
    5.4280   -3.4660   25.3510 C   0  0  0  0  0  0  0  0  0  0  0  0
    4.6350   -2.5810   24.9930 O   0  0  0  0  0  0  0  0  0  0  0  0
    5.3730   -3.9710   26.6650 N   0  0  0  0  0  0  0  0  0  0  0  0
    5.4950   -5.4260   26.8220 C   0  0  0  0  0  0  0  0  0  0  0  0
    5.6070   -5.7900   28.2590 C   0  0  0  0  0  0  0  0  0  0  0  0
    6.3970   -5.1540   28.9640 O   0  0  0  0  0  0  0  0  0  0  0  0
    7.3960   -4.9000   28.2050 C   0  0  0  0  0  0  0  0  0  0  0  0
    8.6260   -5.5880   28.0610 C   0  0  0  0  0  0  0  0  0  0  0  0
    9.7600   -5.3150   27.1860 C   0  0  0  0  0  0  0  0  0  0  0  0
    9.0640   -4.2730   26.7300 C   0  0  0  0  0  0  0  0  0  0  0  0
   10.1490   -4.0630   25.9290 C   0  0  0  0  0  0  0  0  0  0  0  0
   11.4510   -4.5830   26.1360 O   0  0  0  0  0  0  0  0  0  0  0  0
    9.8610   -3.2460   24.8570 O   0  0  0  0  0  0  0  0  0  0  0  0
   10.9520   -2.4270   24.6040 C   0  0  0  0  0  0  0  0  0  0  0  0
    8.3970   -4.9090   27.6470 C   0  0  0  0  0  0  0  0  0  0  0  0
    7.4060   -3.8990   27.3750 C   0  0  0  0  0  0  0  0  0  0  0  0
    6.0560   -3.3770   27.6920 C   0  0  0  0  0  0  0  0  0  0  0  0
    6.8390   -2.8780   23.3560 C   0  0  0  0  0  0  0  0  0  0  0  0
    7.6630   -3.3820   22.3270 C   0  0  0  0  0  0  0  0  0  0  0  0
  1  2  1  0
  2  3  2  0
  2  4  1  0
  4  5  1  0
  5  6  1  0
  6  7  1  0
  7  8  1  0
  8  9  2  0
  8 10  1  0
 10 11  1  0
 11 12  1  0
 12 13  1  0
 13 14  1  0
 14 15  1  0
 15 16  2  0
 16 17  1  0
 17 18  1  0
 18 19  2  0
 18 20  1  0
 20 21  1  0
 17 22  2  0
 14 23  2  0
 22 23  1  0
 10 24  1  0
 23 24  1  0
  7 25  1  0
  4 26  1  0
 25 26  1  0
M  END
