piperidine-amides-24119-covalent
     RDKit          3D

 24 26  0  0  0  0  0  0  0  0999 V2000
    6.9550   -3.4190   19.4270 C   0  0  0  0  0  0  0  0  0  0  0  0
    6.3120   -4.3450   20.3800 C   0  0  0  0  0  0  0  0  0  0  0  0
    5.3010   -4.9500   19.9720 O   0  0  0  0  0  0  0  0  0  0  0  0
    6.8240   -4.5900   21.6750 N   0  0  0  0  0  0  0  0  0  0  0  0
    6.2720   -5.6510   22.4390 C   0  0  0  0  0  0  0  0  0  0  0  0
    5.7110   -5.2510   23.7410 C   0  0  0  0  0  0  0  0  0  0  0  0
    6.3200   -4.0550   24.3760 C   0  0  0  0  0  0  0  0  0  0  0  0
    5.4840   -3.5160   25.5370 C   0  0  0  0  0  0  0  0  0  0  0  0
    4.3470   -3.0790   25.2760 O   0  0  0  0  0  0  0  0  0  0  0  0
    5.9110   -3.4800   26.9070 N   0  0  0  0  0  0  0  0  0  0  0  0
    5.4950   -4.3700   27.8980 C   0  0  0  0  0  0  0  0  0  0  0  0
    6.5870   -5.2570   28.2380 C   0  0  2  0  0  0  0  0  0  0  0  0
    6.9300   -5.4420   29.4630 O   0  0  0  0  0  0  0  0  0  0  0  0
    7.7520   -4.5310   27.4700 C   0  0  0  0  0  0  0  0  0  0  0  0
    7.2880   -3.2490   27.1480 C   0  0  1  0  0  0  0  0  0  0  0  0
    7.9330   -2.9470   25.7930 C   0  0  0  0  0  0  0  0  0  0  0  0
    7.3330   -1.5890   25.5810 C   0  0  0  0  0  0  0  0  0  0  0  0
    7.8560   -1.0510   24.2240 C   0  0  0  0  0  0  0  0  0  0  0  0
    8.7880   -1.6820   23.2320 C   0  0  0  0  0  0  0  0  0  0  0  0
    9.1480   -1.0360   22.0720 F   0  0  0  0  0  0  0  0  0  0  0  0
    9.2910   -3.0490   23.5890 C   0  0  0  0  0  0  0  0  0  0  0  0
    8.8620   -3.7180   24.9090 C   0  0  0  0  0  0  0  0  0  0  0  0
    6.5430   -3.0290   23.3060 C   0  0  0  0  0  0  0  0  0  0  0  0
    7.4780   -3.5440   22.4030 C   0  0  0  0  0  0  0  0  0  0  0  0
  1  2  1  0
  2  3  2  0
  2  4  1  0
  4  5  1  0
  5  6  1  0
  6  7  1  0
  7  8  1  0
  8  9  2  0
  8 10  1  0
 10 11  1  0
 11 12  1  0
 12 13  1  1
 12 14  1  0
 10 15  1  0
 14 15  1  0
 15 16  1  6
 16 17  2  0
 17 18  1  0
 18 19  2  0
 19 20  1  0
 19 21  1  0
 16 22  1  0
 21 22  2  0
  7 23  1  0
  4 24  1  0
 23 24  1  0
M  END
