piperidine-amides-31832-covalent
     RDKit          3D

 28 30  0  0  0  0  0  0  0  0999 V2000
    7.0770   -3.3610   19.5230 C   0  0  0  0  0  0  0  0  0  0  0  0
    6.4060   -4.2280   20.4670 C   0  0  0  0  0  0  0  0  0  0  0  0
    5.4680   -4.9660   20.0160 O   0  0  0  0  0  0  0  0  0  0  0  0
    6.7670   -4.3040   21.8440 N   0  0  0  0  0  0  0  0  0  0  0  0
    6.5300   -5.5590   22.5630 C   0  0  0  0  0  0  0  0  0  0  0  0
    5.5020   -5.0340   23.6420 C   0  0  0  0  0  0  0  0  0  0  0  0
    6.1060   -3.8340   24.3780 C   0  0  0  0  0  0  0  0  0  0  0  0
    4.9360   -3.1890   25.3110 C   0  0  0  0  0  0  0  0  0  0  0  0
    4.0630   -2.7910   24.5710 O   0  0  0  0  0  0  0  0  0  0  0  0
    5.1300   -3.2030   26.6080 N   0  0  0  0  0  0  0  0  0  0  0  0
    4.9900   -2.8900   27.9210 C   0  0  0  0  0  0  0  0  0  0  0  0
    4.9210   -3.6160   29.0720 C   0  0  0  0  0  0  0  0  0  0  0  0
    5.0700   -4.9790   28.6050 N   0  0  0  0  0  0  0  0  0  0  0  0
    5.1320   -6.0580   29.4150 C   0  0  0  0  0  0  0  0  0  0  0  0
    3.7330   -6.1810   29.8840 C   0  0  0  0  0  0  0  0  0  0  0  0
    2.7800   -5.4760   29.1480 O   0  0  0  0  0  0  0  0  0  0  0  0
    3.5980   -6.9620   30.9620 N   0  0  0  0  0  0  0  0  0  0  0  0
    2.6780   -7.8720   31.0360 C   0  0  0  0  0  0  0  0  0  0  0  0
    2.0100   -8.3400   29.8660 C   0  0  0  0  0  0  0  0  0  0  0  0
    0.9620   -9.3140   29.5700 C   0  0  0  0  0  0  0  0  0  0  0  0
    0.6780   -9.8180   31.0220 C   0  0  0  0  0  0  0  0  0  0  0  0
    1.3960   -9.3180   32.2900 C   0  0  0  0  0  0  0  0  0  0  0  0
    2.3310   -8.4020   32.2630 C   0  0  0  0  0  0  0  0  0  0  0  0
    2.9230   -8.0080   33.4290 F   0  0  0  0  0  0  0  0  0  0  0  0
    6.2620   -4.9510   27.8510 C   0  0  0  0  0  0  0  0  0  0  0  0
    6.1910   -4.1220   26.7350 C   0  0  0  0  0  0  0  0  0  0  0  0
    6.8730   -2.7900   23.5870 C   0  0  0  0  0  0  0  0  0  0  0  0
    7.5980   -3.3450   22.5110 C   0  0  0  0  0  0  0  0  0  0  0  0
  1  2  1  0
  2  3  2  0
  2  4  1  0
  4  5  1  0
  5  6  1  0
  6  7  1  0
  7  8  1  0
  8  9  2  0
  8 10  1  0
 10 11  1  0
 11 12  1  0
 12 13  1  0
 13 14  1  0
 14 15  1  0
 15 16  2  0
 15 17  1  0
 17 18  1  0
 18 19  2  0
 19 20  1  0
 20 21  2  0
 21 22  1  0
 18 23  1  0
 22 23  2  0
 23 24  1  0
 13 25  1  0
 10 26  1  0
 25 26  1  0
  7 27  1  0
  4 28  1  0
 27 28  1  0
M  END
