piperidine-amides-21642-covalent
     RDKit          3D

 23 25  0  0  0  0  0  0  0  0999 V2000
    7.0480   -3.3530   19.3280 C   0  0  0  0  0  0  0  0  0  0  0  0
    6.3910   -4.1920   20.3410 C   0  0  0  0  0  0  0  0  0  0  0  0
    5.3690   -4.8270   19.9720 O   0  0  0  0  0  0  0  0  0  0  0  0
    6.9170   -4.3070   21.6330 N   0  0  0  0  0  0  0  0  0  0  0  0
    6.7650   -5.5310   22.3970 C   0  0  0  0  0  0  0  0  0  0  0  0
    6.1730   -5.1650   23.7230 C   0  0  0  0  0  0  0  0  0  0  0  0
    6.2290   -3.6760   23.8960 C   0  0  0  0  0  0  0  0  0  0  0  0
    5.6720   -3.2500   25.1930 C   0  0  0  0  0  0  0  0  0  0  0  0
    4.7940   -2.3660   25.1830 O   0  0  0  0  0  0  0  0  0  0  0  0
    6.0320   -3.7900   26.4280 N   0  0  0  0  0  0  0  0  0  0  0  0
    5.2910   -4.9370   26.8540 C   0  0  0  0  0  0  0  0  0  0  0  0
    5.7240   -5.4260   28.2130 C   0  0  0  0  0  0  0  0  0  0  0  0
    5.8150   -4.5880   29.2510 C   0  0  0  0  0  0  0  0  0  0  0  0
    4.6530   -4.1420   29.8510 C   0  0  0  0  0  0  0  0  0  0  0  0
    4.3020   -2.8370   30.0740 C   0  0  0  0  0  0  0  0  0  0  0  0
    3.1070   -2.7880   30.6780 C   0  0  0  0  0  0  0  0  0  0  0  0
    2.6450   -4.0290   30.8680 N   0  0  0  0  0  0  0  0  0  0  0  0
    1.4630   -4.3270   31.4540 C   0  0  0  0  0  0  0  0  0  0  0  0
    3.5970   -4.8770   30.3560 N   0  0  0  0  0  0  0  0  0  0  0  0
    6.6560   -3.6010   28.8330 C   0  0  0  0  0  0  0  0  0  0  0  0
    6.3600   -2.9300   27.4990 C   0  0  0  0  0  0  0  0  0  0  0  0
    7.6550   -3.1880   23.6580 C   0  0  0  0  0  0  0  0  0  0  0  0
    7.7820   -3.2320   22.1490 C   0  0  0  0  0  0  0  0  0  0  0  0
  1  2  1  0
  2  3  2  0
  2  4  1  0
  4  5  1  0
  5  6  1  0
  6  7  1  0
  7  8  1  0
  8  9  2  0
  8 10  1  0
 10 11  1  0
 11 12  1  0
 12 13  1  0
 13 14  1  0
 14 15  1  0
 15 16  2  0
 16 17  1  0
 17 18  1  0
 14 19  2  0
 17 19  1  0
 13 20  1  0
 10 21  1  0
 20 21  1  0
  7 22  1  0
  4 23  1  0
 22 23  1  0
M  END
