piperidine-amides-4403-covalent
     RDKit          3D

 25 26  0  0  0  0  0  0  0  0999 V2000
    7.1210   -3.2850   19.1980 C   0  0  0  0  0  0  0  0  0  0  0  0
    6.3920   -4.0550   20.2240 C   0  0  0  0  0  0  0  0  0  0  0  0
    5.2810   -4.5240   19.8810 O   0  0  0  0  0  0  0  0  0  0  0  0
    6.9450   -4.3250   21.5030 N   0  0  0  0  0  0  0  0  0  0  0  0
    6.4520   -5.4280   22.2300 C   0  0  0  0  0  0  0  0  0  0  0  0
    5.9640   -5.0800   23.5590 C   0  0  0  0  0  0  0  0  0  0  0  0
    6.6180   -3.9270   24.2260 C   0  0  0  0  0  0  0  0  0  0  0  0
    5.8180   -3.5040   25.4170 C   0  0  0  0  0  0  0  0  0  0  0  0
    5.2740   -2.3820   25.4310 O   0  0  0  0  0  0  0  0  0  0  0  0
    5.6320   -4.3720   26.5080 N   0  0  0  0  0  0  0  0  0  0  0  0
    6.4230   -4.6050   27.6580 C   0  0  1  0  0  0  0  0  0  0  0  0
    7.7910   -5.0920   27.5560 C   0  0  0  0  0  0  0  0  0  0  0  0
    6.4720   -3.3520   28.4860 C   0  0  0  0  0  0  0  0  0  0  0  0
    7.5410   -2.4830   28.5760 C   0  0  0  0  0  0  0  0  0  0  0  0
    7.3780   -1.2310   29.5080 C   0  0  0  0  0  0  0  0  0  0  0  0
    6.0760   -1.0080   30.2640 C   0  0  0  0  0  0  0  0  0  0  0  0
    4.9960   -2.0600   30.0480 C   0  0  0  0  0  0  0  0  0  0  0  0
    3.6320   -2.0210   30.7080 C   0  0  0  0  0  0  0  0  0  0  0  0
    3.1590   -3.3060   30.8600 F   0  0  0  0  0  0  0  0  0  0  0  0
    3.8320   -1.4430   31.9650 F   0  0  0  0  0  0  0  0  0  0  0  0
    2.7490   -1.2560   29.9710 F   0  0  0  0  0  0  0  0  0  0  0  0
    5.2700   -3.2050   29.1440 C   0  0  0  0  0  0  0  0  0  0  0  0
    4.2940   -4.1430   28.9600 F   0  0  0  0  0  0  0  0  0  0  0  0
    6.7930   -2.7240   23.2840 C   0  0  0  0  0  0  0  0  0  0  0  0
    7.6560   -3.2290   22.1810 C   0  0  0  0  0  0  0  0  0  0  0  0
  1  2  1  0
  2  3  2  0
  2  4  1  0
  4  5  1  0
  5  6  1  0
  6  7  1  0
  7  8  1  0
  8  9  2  0
  8 10  1  0
 10 11  1  0
 11 12  1  6
 11 13  1  0
 13 14  2  0
 14 15  1  0
 15 16  2  0
 16 17  1  0
 17 18  1  0
 18 19  1  0
 18 20  1  0
 18 21  1  0
 13 22  1  0
 17 22  2  0
 22 23  1  0
  7 24  1  0
  4 25  1  0
 24 25  1  0
M  END
