piperidine-amides-793-covalent
     RDKit          3D

 25 27  0  0  0  0  0  0  0  0999 V2000
    7.1420   -3.3080   19.3960 C   0  0  0  0  0  0  0  0  0  0  0  0
    6.3470   -4.0460   20.3530 C   0  0  0  0  0  0  0  0  0  0  0  0
    5.3400   -4.6980   19.9340 O   0  0  0  0  0  0  0  0  0  0  0  0
    6.6870   -4.0880   21.7210 N   0  0  0  0  0  0  0  0  0  0  0  0
    6.6010   -5.4280   22.3700 C   0  0  0  0  0  0  0  0  0  0  0  0
    6.0680   -5.0910   23.8250 C   0  0  0  0  0  0  0  0  0  0  0  0
    6.1560   -3.5950   23.9640 C   0  0  0  0  0  0  0  0  0  0  0  0
    5.6300   -2.9960   25.3430 C   0  0  0  0  0  0  0  0  0  0  0  0
    5.1240   -1.9020   25.1620 O   0  0  0  0  0  0  0  0  0  0  0  0
    5.8510   -3.8120   26.2910 N   0  0  0  0  0  0  0  0  0  0  0  0
    6.0030   -4.6730   27.3340 C   0  0  0  0  0  0  0  0  0  0  0  0
    5.9620   -6.0050   27.6440 C   0  0  0  0  0  0  0  0  0  0  0  0
    6.0420   -6.3820   29.0050 C   0  0  0  0  0  0  0  0  0  0  0  0
    5.2390   -5.8230   29.9110 N   0  0  0  0  0  0  0  0  0  0  0  0
    5.4730   -6.5040   31.0630 N   0  0  0  0  0  0  0  0  0  0  0  0
    4.2740   -6.9300   31.5020 C   0  0  0  0  0  0  0  0  0  0  0  0
    3.2630   -6.6140   30.7600 N   0  0  0  0  0  0  0  0  0  0  0  0
    3.8360   -6.1280   29.5320 C   0  0  0  0  0  0  0  0  0  0  0  0
    3.2520   -5.9590   28.2520 O   0  0  0  0  0  0  0  0  0  0  0  0
    2.1660   -7.3840   30.9340 C   0  0  0  0  0  0  0  0  0  0  0  0
    1.4520   -7.2290   32.1650 C   0  0  0  0  0  0  0  0  0  0  0  0
    2.5630   -8.2970   32.4250 C   0  0  0  0  0  0  0  0  0  0  0  0
    4.0120   -7.7260   32.6850 C   0  0  0  0  0  0  0  0  0  0  0  0
    7.5530   -3.1010   23.5920 C   0  0  0  0  0  0  0  0  0  0  0  0
    7.6670   -3.1400   22.2370 C   0  0  0  0  0  0  0  0  0  0  0  0
  1  2  1  0
  2  3  2  0
  2  4  1  0
  4  5  1  0
  5  6  1  0
  6  7  1  0
  7  8  1  0
  8  9  2  0
  8 10  1  0
 10 11  1  0
 11 12  1  0
 12 13  1  0
 13 14  1  0
 14 15  1  0
 15 16  2  0
 16 17  1  0
 14 18  1  0
 17 18  1  0
 18 19  2  0
 17 20  1  0
 20 21  1  0
 21 22  1  0
 16 23  1  0
 22 23  1  0
  7 24  1  0
  4 25  1  0
 24 25  1  0
M  END
