piperidine-amides-2031-covalent
     RDKit          3D

 21 22  0  0  0  0  0  0  0  0999 V2000
    7.0870   -3.2600   19.1920 C   0  0  0  0  0  0  0  0  0  0  0  0
    6.3270   -4.0120   20.2250 C   0  0  0  0  0  0  0  0  0  0  0  0
    5.2720   -4.5310   19.8750 O   0  0  0  0  0  0  0  0  0  0  0  0
    6.8290   -4.1520   21.5220 N   0  0  0  0  0  0  0  0  0  0  0  0
    6.4770   -5.2910   22.3200 C   0  0  0  0  0  0  0  0  0  0  0  0
    5.7820   -4.8020   23.5650 C   0  0  0  0  0  0  0  0  0  0  0  0
    6.6820   -3.7870   24.2860 C   0  0  0  0  0  0  0  0  0  0  0  0
    5.9510   -3.2900   25.4740 C   0  0  0  0  0  0  0  0  0  0  0  0
    4.7380   -3.0240   25.3750 O   0  0  0  0  0  0  0  0  0  0  0  0
    6.6160   -3.1070   26.7110 N   0  0  0  0  0  0  0  0  0  0  0  0
    7.2290   -4.2450   27.3790 C   0  0  1  0  0  0  0  0  0  0  0  0
    6.1810   -5.3360   27.4830 C   0  0  0  0  0  0  0  0  0  0  0  0
    5.7380   -5.9190   26.3180 O   0  0  0  0  0  0  0  0  0  0  0  0
    5.7190   -5.6850   28.7240 O   0  0  0  0  0  0  0  0  0  0  0  0
    5.7430   -6.9960   29.1300 C   0  0  0  0  0  0  0  0  0  0  0  0
    8.4500   -4.5850   26.5710 C   0  0  0  0  0  0  0  0  0  0  0  0
    8.8190   -5.6220   27.3890 C   0  0  0  0  0  0  0  0  0  0  0  0
    9.0650   -5.8170   26.3620 C   0  0  0  0  0  0  0  0  0  0  0  0
    8.2180   -5.3680   25.2720 C   0  0  0  0  0  0  0  0  0  0  0  0
    7.1070   -2.6570   23.4440 C   0  0  0  0  0  0  0  0  0  0  0  0
    7.5560   -3.0420   22.0780 C   0  0  0  0  0  0  0  0  0  0  0  0
  1  2  1  0
  2  3  2  0
  2  4  1  0
  4  5  1  0
  5  6  1  0
  6  7  1  0
  7  8  1  0
  8  9  2  0
  8 10  1  0
 11 10  1  6
 11 12  1  0
 12 13  2  0
 12 14  1  0
 14 15  1  0
 11 16  1  0
 16 17  1  0
 16 18  1  0
 16 19  1  0
 18 19  1  0
  7 20  1  0
  4 21  1  0
 20 21  1  0
M  END
