piperidine-amides-24486-covalent
     RDKit          3D

 24 26  0  0  0  0  0  0  0  0999 V2000
    7.0410   -3.3270   19.3640 C   0  0  0  0  0  0  0  0  0  0  0  0
    6.3690   -4.1970   20.3480 C   0  0  0  0  0  0  0  0  0  0  0  0
    5.3920   -4.8930   19.9920 O   0  0  0  0  0  0  0  0  0  0  0  0
    6.8370   -4.2890   21.6740 N   0  0  0  0  0  0  0  0  0  0  0  0
    6.7010   -5.5650   22.3700 C   0  0  0  0  0  0  0  0  0  0  0  0
    6.3130   -5.3140   23.8450 C   0  0  0  0  0  0  0  0  0  0  0  0
    6.2270   -3.8220   24.0020 C   0  0  0  0  0  0  0  0  0  0  0  0
    5.7370   -3.4000   25.3410 C   0  0  0  0  0  0  0  0  0  0  0  0
    4.8400   -2.5340   25.3330 O   0  0  0  0  0  0  0  0  0  0  0  0
    6.1850   -3.9230   26.5890 N   0  0  0  0  0  0  0  0  0  0  0  0
    7.5560   -3.7350   27.0430 C   0  0  0  0  0  0  0  0  0  0  0  0
    8.0090   -4.9750   27.7830 C   0  0  0  0  0  0  0  0  0  0  0  0
    7.1550   -4.9820   28.8760 O   0  0  0  0  0  0  0  0  0  0  0  0
    5.8250   -4.9580   28.6630 C   0  0  2  0  0  0  0  0  0  0  0  0
    5.3200   -6.1500   28.2020 C   0  0  0  0  0  0  0  0  0  0  0  0
    5.5250   -3.8390   27.9250 C   0  0  1  0  0  0  0  0  0  0  0  0
    5.9010   -2.5800   28.3460 C   0  0  0  0  0  0  0  0  0  0  0  0
    5.7910   -1.4490   27.6520 N   0  0  0  0  0  0  0  0  0  0  0  0
    6.2750   -0.5300   28.5160 C   0  0  0  0  0  0  0  0  0  0  0  0
    6.2580    0.8720   27.9620 C   0  0  0  0  0  0  0  0  0  0  0  0
    6.6560   -1.1260   29.6850 N   0  0  0  0  0  0  0  0  0  0  0  0
    6.4250   -2.4000   29.5840 O   0  0  0  0  0  0  0  0  0  0  0  0
    7.4620   -3.1280   23.6430 C   0  0  0  0  0  0  0  0  0  0  0  0
    7.6760   -3.2510   22.2080 C   0  0  0  0  0  0  0  0  0  0  0  0
  1  2  1  0
  2  3  2  0
  2  4  1  0
  4  5  1  0
  5  6  1  0
  6  7  1  0
  7  8  1  0
  8  9  2  0
  8 10  1  0
 10 11  1  0
 11 12  1  0
 12 13  1  0
 13 14  1  0
 14 15  1  6
 10 16  1  0
 14 16  1  0
 16 17  1  1
 17 18  2  0
 18 19  1  0
 19 20  1  0
 19 21  2  0
 17 22  1  0
 21 22  1  0
  7 23  1  0
  4 24  1  0
 23 24  1  0
M  END
