piperidine-amides-24662-covalent
     RDKit          3D

 24 26  0  0  0  0  0  0  0  0999 V2000
    7.1520   -3.2870   19.2570 C   0  0  0  0  0  0  0  0  0  0  0  0
    6.3740   -4.0600   20.2330 C   0  0  0  0  0  0  0  0  0  0  0  0
    5.2940   -4.5950   19.9040 O   0  0  0  0  0  0  0  0  0  0  0  0
    6.8720   -4.2470   21.5280 N   0  0  0  0  0  0  0  0  0  0  0  0
    6.4620   -5.4000   22.2770 C   0  0  0  0  0  0  0  0  0  0  0  0
    5.7050   -4.8420   23.4860 C   0  0  0  0  0  0  0  0  0  0  0  0
    6.6520   -3.8980   24.2120 C   0  0  0  0  0  0  0  0  0  0  0  0
    5.9460   -3.3240   25.3770 C   0  0  0  0  0  0  0  0  0  0  0  0
    4.6960   -3.3870   25.3950 O   0  0  0  0  0  0  0  0  0  0  0  0
    6.6950   -2.7200   26.4230 N   0  0  0  0  0  0  0  0  0  0  0  0
    7.4830   -3.4980   27.3430 C   0  0  0  0  0  0  0  0  0  0  0  0
    8.2550   -4.5020   26.5210 C   0  0  0  0  0  0  0  0  0  0  0  0
    7.9400   -5.8000   26.3630 C   0  0  0  0  0  0  0  0  0  0  0  0
    8.7700   -5.6090   27.4270 C   0  0  0  0  0  0  0  0  0  0  0  0
    6.4730   -1.6800   27.4280 C   0  0  0  0  0  0  0  0  0  0  0  0
    5.2510   -2.0940   27.9250 C   0  0  1  0  0  0  0  0  0  0  0  0
    4.9160   -1.6470   29.3380 C   0  0  0  0  0  0  0  0  0  0  0  0
    4.3430   -0.4380   29.4430 N   0  0  0  0  0  0  0  0  0  0  0  0
    3.5520    0.0420   30.5200 C   0  0  0  0  0  0  0  0  0  0  0  0
    3.8830    0.2230   28.2180 C   0  0  0  0  0  0  0  0  0  0  0  0
    3.9850   -0.6390   27.0430 C   0  0  0  0  0  0  0  0  0  0  0  0
    4.1020   -1.8850   27.2310 O   0  0  0  0  0  0  0  0  0  0  0  0
    7.0460   -2.7610   23.3110 C   0  0  0  0  0  0  0  0  0  0  0  0
    7.5960   -3.1820   22.1380 C   0  0  0  0  0  0  0  0  0  0  0  0
  1  2  1  0
  2  3  2  0
  2  4  1  0
  4  5  1  0
  5  6  1  0
  6  7  1  0
  7  8  1  0
  8  9  2  0
  8 10  1  0
 10 11  1  0
 11 12  1  0
 12 13  1  0
 12 14  1  0
 13 14  1  0
 10 15  1  0
 16 15  1  6
 16 17  1  0
 17 18  1  0
 18 19  1  0
 18 20  1  0
 20 21  1  0
 16 22  1  0
 21 22  1  0
  7 23  1  0
  4 24  1  0
 23 24  1  0
M  END
