piperidine-amides-31264-covalent
     RDKit          3D

 25 27  0  0  0  0  0  0  0  0999 V2000
    7.1600   -3.3670   19.3210 C   0  0  0  0  0  0  0  0  0  0  0  0
    6.4140   -4.1760   20.2760 C   0  0  0  0  0  0  0  0  0  0  0  0
    5.3270   -4.6640   19.9320 O   0  0  0  0  0  0  0  0  0  0  0  0
    6.9520   -4.4770   21.5390 N   0  0  0  0  0  0  0  0  0  0  0  0
    6.6120   -5.6610   22.2750 C   0  0  0  0  0  0  0  0  0  0  0  0
    6.0060   -5.1360   23.5430 C   0  0  0  0  0  0  0  0  0  0  0  0
    6.7110   -3.9220   24.0900 C   0  0  0  0  0  0  0  0  0  0  0  0
    5.9200   -3.2860   25.1510 C   0  0  0  0  0  0  0  0  0  0  0  0
    4.9310   -2.5500   24.8610 O   0  0  0  0  0  0  0  0  0  0  0  0
    6.1540   -3.4650   26.5090 N   0  0  0  0  0  0  0  0  0  0  0  0
    5.0680   -4.0910   27.2160 C   0  0  0  0  0  0  0  0  0  0  0  0
    4.5060   -2.9520   27.9680 C   0  0  0  0  0  0  0  0  0  0  0  0
    4.9950   -2.9770   29.1960 N   0  0  0  0  0  0  0  0  0  0  0  0
    4.6120   -4.0460   29.9890 C   0  0  0  0  0  0  0  0  0  0  0  0
    5.4190   -5.2500   29.6550 C   0  0  0  0  0  0  0  0  0  0  0  0
    5.1530   -6.5150   30.3930 C   0  0  0  0  0  0  0  0  0  0  0  0
    6.0420   -7.9420   30.0570 Cl  0  0  0  0  0  0  0  0  0  0  0  0
    4.0710   -6.3910   31.4050 C   0  0  0  0  0  0  0  0  0  0  0  0
    3.3930   -5.2210   31.6240 C   0  0  0  0  0  0  0  0  0  0  0  0
    3.6260   -4.0290   30.9470 C   0  0  0  0  0  0  0  0  0  0  0  0
    2.7180   -2.5630   31.2840 Cl  0  0  0  0  0  0  0  0  0  0  0  0
    6.3070   -2.8880   28.7530 C   0  0  0  0  0  0  0  0  0  0  0  0
    6.5050   -2.3400   27.3340 C   0  0  0  0  0  0  0  0  0  0  0  0
    6.9950   -2.9020   22.9810 C   0  0  0  0  0  0  0  0  0  0  0  0
    7.7180   -3.4280   22.1990 C   0  0  0  0  0  0  0  0  0  0  0  0
  1  2  1  0
  2  3  2  0
  2  4  1  0
  4  5  1  0
  5  6  1  0
  6  7  1  0
  7  8  1  0
  8  9  2  0
  8 10  1  0
 10 11  1  0
 11 12  1  0
 12 13  1  0
 13 14  1  0
 14 15  2  0
 15 16  1  0
 16 17  1  0
 16 18  2  0
 18 19  1  0
 14 20  1  0
 19 20  2  0
 20 21  1  0
 13 22  1  0
 10 23  1  0
 22 23  1  0
  7 24  1  0
  4 25  1  0
 24 25  1  0
M  END
