piperidine-amides-31332-covalent
     RDKit          3D

 28 30  0  0  0  0  0  0  0  0999 V2000
    7.0600   -3.3430   19.5030 C   0  0  0  0  0  0  0  0  0  0  0  0
    6.3910   -4.2020   20.4640 C   0  0  0  0  0  0  0  0  0  0  0  0
    5.4620   -4.9530   20.0150 O   0  0  0  0  0  0  0  0  0  0  0  0
    6.7370   -4.2570   21.8500 N   0  0  0  0  0  0  0  0  0  0  0  0
    6.5780   -5.5950   22.5000 C   0  0  0  0  0  0  0  0  0  0  0  0
    6.1420   -5.2840   24.0070 C   0  0  0  0  0  0  0  0  0  0  0  0
    5.9670   -3.7890   24.1330 C   0  0  0  0  0  0  0  0  0  0  0  0
    4.8450   -3.2570   25.1950 C   0  0  0  0  0  0  0  0  0  0  0  0
    3.8400   -3.0840   24.5410 O   0  0  0  0  0  0  0  0  0  0  0  0
    5.1640   -3.1210   26.4490 N   0  0  0  0  0  0  0  0  0  0  0  0
    5.1060   -2.6760   27.7360 C   0  0  0  0  0  0  0  0  0  0  0  0
    4.8460   -3.2700   28.9270 C   0  0  0  0  0  0  0  0  0  0  0  0
    5.1360   -4.6540   28.6550 N   0  0  0  0  0  0  0  0  0  0  0  0
    5.4080   -5.5200   29.6430 C   0  0  0  0  0  0  0  0  0  0  0  0
    4.9240   -6.8010   29.1000 C   0  0  0  0  0  0  0  0  0  0  0  0
    5.1630   -7.7530   30.0970 O   0  0  0  0  0  0  0  0  0  0  0  0
    4.0770   -7.7990   30.9660 C   0  0  0  0  0  0  0  0  0  0  0  0
    2.8650   -8.0470   30.2840 C   0  0  0  0  0  0  0  0  0  0  0  0
    1.4910   -8.1970   30.6700 C   0  0  0  0  0  0  0  0  0  0  0  0
    1.6980   -7.9960   32.1970 C   0  0  0  0  0  0  0  0  0  0  0  0
    2.9940   -7.7220   33.0160 C   0  0  0  0  0  0  0  0  0  0  0  0
    4.1410   -7.6360   32.3460 C   0  0  0  0  0  0  0  0  0  0  0  0
    5.3200   -7.3980   33.0080 C   0  0  0  0  0  0  0  0  0  0  0  0
    5.8080   -7.6880   34.2300 N   0  0  0  0  0  0  0  0  0  0  0  0
    6.2670   -4.7240   27.8280 C   0  0  0  0  0  0  0  0  0  0  0  0
    6.2560   -3.9580   26.6420 C   0  0  0  0  0  0  0  0  0  0  0  0
    7.1490   -2.9370   23.8240 C   0  0  0  0  0  0  0  0  0  0  0  0
    7.6170   -3.2450   22.4250 C   0  0  0  0  0  0  0  0  0  0  0  0
  1  2  1  0
  2  3  2  0
  2  4  1  0
  4  5  1  0
  5  6  1  0
  6  7  1  0
  7  8  1  0
  8  9  2  0
  8 10  1  0
 10 11  1  0
 11 12  1  0
 12 13  1  0
 13 14  1  0
 14 15  1  0
 15 16  1  0
 16 17  1  0
 17 18  2  0
 18 19  1  0
 19 20  2  0
 20 21  1  0
 17 22  1  0
 21 22  2  0
 22 23  1  0
 23 24  3  0
 13 25  1  0
 10 26  1  0
 25 26  1  0
  7 27  1  0
  4 28  1  0
 27 28  1  0
M  END
