piperidine-amides-10757-covalent
     RDKit          3D

 22 23  0  0  0  0  0  0  0  0999 V2000
    7.0990   -3.3180   19.2750 C   0  0  0  0  0  0  0  0  0  0  0  0
    6.3480   -4.1410   20.2260 C   0  0  0  0  0  0  0  0  0  0  0  0
    5.2490   -4.6030   19.8930 O   0  0  0  0  0  0  0  0  0  0  0  0
    6.8790   -4.4650   21.4770 N   0  0  0  0  0  0  0  0  0  0  0  0
    7.5620   -3.4790   22.2540 C   0  0  0  0  0  0  0  0  0  0  0  0
    6.4260   -2.7590   22.9160 C   0  0  0  0  0  0  0  0  0  0  0  0
    5.4830   -3.7240   23.5600 C   0  0  0  0  0  0  0  0  0  0  0  0
    5.0630   -3.3200   24.9190 C   0  0  0  0  0  0  0  0  0  0  0  0
    3.8720   -3.4840   25.3030 O   0  0  0  0  0  0  0  0  0  0  0  0
    5.9310   -2.7320   25.8510 N   0  0  0  0  0  0  0  0  0  0  0  0
    6.5510   -3.5530   26.8910 C   0  0  1  0  0  0  0  0  0  0  0  0
    5.9080   -4.8880   27.0180 C   0  0  0  0  0  0  0  0  0  0  0  0
    5.5000   -5.2400   28.1580 O   0  0  0  0  0  0  0  0  0  0  0  0
    7.9710   -3.8390   26.4970 C   0  0  0  0  0  0  0  0  0  0  0  0
    8.3500   -4.9010   27.4600 C   0  0  0  0  0  0  0  0  0  0  0  0
    9.7430   -5.4000   27.3280 C   0  0  0  0  0  0  0  0  0  0  0  0
   10.5660   -4.7740   26.2500 C   0  0  0  0  0  0  0  0  0  0  0  0
   10.0490   -3.8150   25.4630 C   0  0  0  0  0  0  0  0  0  0  0  0
    8.7890   -3.3060   25.5290 C   0  0  0  0  0  0  0  0  0  0  0  0
    8.2220   -1.7760   24.1800 I   0  0  0  0  0  0  0  0  0  0  0  0
    6.0290   -5.1640   23.6050 C   0  0  0  0  0  0  0  0  0  0  0  0
    6.3520   -5.6140   22.1700 C   0  0  0  0  0  0  0  0  0  0  0  0
  1  2  1  0
  2  3  2  0
  2  4  1  0
  4  5  1  0
  5  6  1  0
  6  7  1  0
  7  8  1  0
  8  9  2  0
  8 10  1  0
 10 11  1  0
 11 12  1  6
 12 13  1  0
 11 14  1  0
 14 15  2  0
 15 16  1  0
 16 17  2  0
 17 18  1  0
 14 19  1  0
 18 19  2  0
 19 20  1  0
  7 21  1  0
  4 22  1  0
 21 22  1  0
M  END
