piperidine-amides-28156-covalent
     RDKit          3D

 26 28  0  0  0  0  0  0  0  0999 V2000
    7.0410   -3.3680   19.3280 C   0  0  0  0  0  0  0  0  0  0  0  0
    6.4080   -4.2280   20.3530 C   0  0  0  0  0  0  0  0  0  0  0  0
    5.3870   -4.8460   19.9860 O   0  0  0  0  0  0  0  0  0  0  0  0
    6.9610   -4.3760   21.6440 N   0  0  0  0  0  0  0  0  0  0  0  0
    6.7230   -5.5760   22.3880 C   0  0  0  0  0  0  0  0  0  0  0  0
    6.1950   -5.3100   23.7200 C   0  0  0  0  0  0  0  0  0  0  0  0
    6.0500   -3.8680   23.9660 C   0  0  0  0  0  0  0  0  0  0  0  0
    5.4480   -3.5800   25.2940 C   0  0  0  0  0  0  0  0  0  0  0  0
    4.2600   -3.2110   25.2870 O   0  0  0  0  0  0  0  0  0  0  0  0
    6.1010   -3.6890   26.5320 N   0  0  0  0  0  0  0  0  0  0  0  0
    5.6100   -4.6930   27.5200 C   0  0  0  0  0  0  0  0  0  0  0  0
    5.0990   -4.0860   28.7790 C   0  0  0  0  0  0  0  0  0  0  0  0
    5.5060   -2.7790   29.0620 N   0  0  0  0  0  0  0  0  0  0  0  0
    5.0100   -2.0060   30.1890 C   0  0  0  0  0  0  0  0  0  0  0  0
    4.1060   -2.6190   31.0190 C   0  0  0  0  0  0  0  0  0  0  0  0
    3.5940   -1.9380   32.1160 C   0  0  0  0  0  0  0  0  0  0  0  0
    4.0130   -0.6420   32.3470 C   0  0  0  0  0  0  0  0  0  0  0  0
    4.9120   -0.0430   31.5060 C   0  0  0  0  0  0  0  0  0  0  0  0
    5.4040   -0.7140   30.4400 C   0  0  0  0  0  0  0  0  0  0  0  0
    6.2780   -0.0760   29.6440 N   0  0  0  0  0  0  0  0  0  0  0  0
    7.5300    0.1560   29.9250 O   0  0  0  0  0  0  0  0  0  0  0  0
    5.7080    0.9190   28.8890 O   0  0  0  0  0  0  0  0  0  0  0  0
    6.8010   -2.7200   28.5190 C   0  0  0  0  0  0  0  0  0  0  0  0
    6.5110   -2.4420   27.0950 C   0  0  0  0  0  0  0  0  0  0  0  0
    7.2960   -3.1070   23.7000 C   0  0  0  0  0  0  0  0  0  0  0  0
    7.7290   -3.3020   22.2690 C   0  0  0  0  0  0  0  0  0  0  0  0
  1  2  1  0
  2  3  2  0
  2  4  1  0
  4  5  1  0
  5  6  1  0
  6  7  1  0
  7  8  1  0
  8  9  2  0
  8 10  1  0
 10 11  1  0
 11 12  1  0
 12 13  1  0
 13 14  1  0
 14 15  2  0
 15 16  1  0
 16 17  2  0
 17 18  1  0
 14 19  1  0
 18 19  2  0
 19 20  1  0
 20 21  2  0
 20 22  1  0
 13 23  1  0
 10 24  1  0
 23 24  1  0
  7 25  1  0
  4 26  1  0
 25 26  1  0
M  CHG  2  20   1  22  -1
M  END
