piperidine-amides-16112-covalent
     RDKit          3D

 19 20  0  0  0  0  0  0  0  0999 V2000
    7.0150   -3.3600   19.3390 C   0  0  0  0  0  0  0  0  0  0  0  0
    6.3590   -4.2510   20.3310 C   0  0  0  0  0  0  0  0  0  0  0  0
    5.3470   -4.8440   19.9680 O   0  0  0  0  0  0  0  0  0  0  0  0
    6.9140   -4.4370   21.5980 N   0  0  0  0  0  0  0  0  0  0  0  0
    6.6320   -5.6210   22.3790 C   0  0  0  0  0  0  0  0  0  0  0  0
    5.7910   -5.2780   23.5890 C   0  0  0  0  0  0  0  0  0  0  0  0
    5.8250   -3.7670   23.8200 C   0  0  0  0  0  0  0  0  0  0  0  0
    5.1300   -3.4230   25.0930 C   0  0  0  0  0  0  0  0  0  0  0  0
    4.1870   -2.6280   25.0380 O   0  0  0  0  0  0  0  0  0  0  0  0
    5.4750   -3.9320   26.3540 N   0  0  0  0  0  0  0  0  0  0  0  0
    6.8430   -4.0880   26.5810 C   0  0  0  0  0  0  0  0  0  0  0  0
    7.1390   -5.5480   26.7540 C   0  0  0  0  0  0  0  0  0  0  0  0
    6.8070   -5.9290   28.0140 O   0  0  0  0  0  0  0  0  0  0  0  0
    6.5960   -5.0730   28.9870 C   0  0  0  0  0  0  0  0  0  0  0  0
    5.5110   -4.2910   28.7630 C   0  0  1  0  0  0  0  0  0  0  0  0
    5.6560   -2.9470   29.0120 C   0  0  0  0  0  0  0  0  0  0  0  0
    5.4060   -3.3440   27.6790 C   0  0  0  0  0  0  0  0  0  0  0  0
    7.2090   -3.2700   23.6670 C   0  0  0  0  0  0  0  0  0  0  0  0
    7.6130   -3.3380   22.2360 C   0  0  0  0  0  0  0  0  0  0  0  0
  1  2  1  0
  2  3  2  0
  2  4  1  0
  4  5  1  0
  5  6  1  0
  6  7  1  0
  7  8  1  0
  8  9  2  0
  8 10  1  0
 10 11  1  0
 11 12  1  0
 12 13  1  0
 13 14  1  0
 14 15  1  0
 15 16  1  1
 10 17  1  0
 15 17  1  0
  7 18  1  0
  4 19  1  0
 18 19  1  0
M  END
