piperidine-amides-24131-covalent
     RDKit          3D

 24 26  0  0  0  0  0  0  0  0999 V2000
    7.0710   -3.3800   19.3450 C   0  0  0  0  0  0  0  0  0  0  0  0
    6.4320   -4.2410   20.3500 C   0  0  0  0  0  0  0  0  0  0  0  0
    5.3910   -4.8440   19.9880 O   0  0  0  0  0  0  0  0  0  0  0  0
    7.0120   -4.4220   21.6400 N   0  0  0  0  0  0  0  0  0  0  0  0
    6.6260   -5.5470   22.4300 C   0  0  0  0  0  0  0  0  0  0  0  0
    6.1250   -5.1670   23.7470 C   0  0  0  0  0  0  0  0  0  0  0  0
    6.1260   -3.7080   23.9400 C   0  0  0  0  0  0  0  0  0  0  0  0
    5.5370   -3.2050   25.2250 C   0  0  0  0  0  0  0  0  0  0  0  0
    4.8010   -2.2100   25.1780 O   0  0  0  0  0  0  0  0  0  0  0  0
    5.7320   -3.7910   26.4810 N   0  0  0  0  0  0  0  0  0  0  0  0
    4.8700   -4.7340   27.0490 C   0  0  0  0  0  0  0  0  0  0  0  0
    5.2610   -5.4930   28.2410 C   0  0  0  0  0  0  0  0  0  0  0  0
    5.6110   -4.5370   29.3880 C   0  0  0  0  0  0  0  0  0  0  0  0
    4.6730   -3.5470   29.6370 C   0  0  0  0  0  0  0  0  0  0  0  0
    3.8550   -4.5760   30.4340 C   0  0  0  0  0  0  0  0  0  0  0  0
    2.6460   -4.2760   31.1580 N   0  0  0  0  0  0  0  0  0  0  0  0
    2.2170   -5.5060   31.7460 O   0  0  0  0  0  0  0  0  0  0  0  0
    3.1780   -6.4420   31.3450 C   0  0  0  0  0  0  0  0  0  0  0  0
    3.0180   -7.8940   31.8050 C   0  0  0  0  0  0  0  0  0  0  0  0
    4.1340   -5.9420   30.5910 N   0  0  0  0  0  0  0  0  0  0  0  0
    6.7270   -4.1320   28.5200 C   0  0  0  0  0  0  0  0  0  0  0  0
    6.3370   -3.0850   27.5050 C   0  0  0  0  0  0  0  0  0  0  0  0
    7.5200   -3.1460   23.6730 C   0  0  0  0  0  0  0  0  0  0  0  0
    7.7190   -3.2440   22.2020 C   0  0  0  0  0  0  0  0  0  0  0  0
  1  2  1  0
  2  3  2  0
  2  4  1  0
  4  5  1  0
  5  6  1  0
  6  7  1  0
  7  8  1  0
  8  9  2  0
  8 10  1  0
 10 11  1  0
 11 12  1  0
 12 13  1  0
 13 14  1  0
 14 15  1  0
 15 16  2  0
 16 17  1  0
 17 18  1  0
 18 19  1  0
 15 20  1  0
 18 20  2  0
 13 21  1  0
 10 22  1  0
 21 22  1  0
  7 23  1  0
  4 24  1  0
 23 24  1  0
M  END
