piperidine-amides-4523-covalent
     RDKit          3D

 25 26  0  0  0  0  0  0  0  0999 V2000
    7.1030   -3.3200   19.2350 C   0  0  0  0  0  0  0  0  0  0  0  0
    6.3490   -4.0680   20.2630 C   0  0  0  0  0  0  0  0  0  0  0  0
    5.2740   -4.5770   19.8940 O   0  0  0  0  0  0  0  0  0  0  0  0
    6.8590   -4.2330   21.5580 N   0  0  0  0  0  0  0  0  0  0  0  0
    7.6750   -3.2200   22.1440 C   0  0  0  0  0  0  0  0  0  0  0  0
    7.3540   -2.9830   23.5380 C   0  0  0  0  0  0  0  0  0  0  0  0
    6.0510   -3.5530   23.9280 C   0  0  0  0  0  0  0  0  0  0  0  0
    5.7290   -3.2130   25.3340 C   0  0  0  0  0  0  0  0  0  0  0  0
    4.6060   -3.5260   25.7670 O   0  0  0  0  0  0  0  0  0  0  0  0
    6.6560   -2.5480   26.1500 N   0  0  0  0  0  0  0  0  0  0  0  0
    6.3190   -1.3170   26.9010 C   0  0  0  0  0  0  0  0  0  0  0  0
    5.9130   -0.1970   25.9910 C   0  0  0  0  0  0  0  0  0  0  0  0
    6.4500   -0.1230   24.6460 C   0  0  0  0  0  0  0  0  0  0  0  0
    6.1330    0.8680   23.7540 C   0  0  0  0  0  0  0  0  0  0  0  0
    5.2570    1.8710   24.1140 C   0  0  0  0  0  0  0  0  0  0  0  0
    4.7290    1.8320   25.3750 C   0  0  0  0  0  0  0  0  0  0  0  0
    3.8590    2.9180   25.5950 O   0  0  0  0  0  0  0  0  0  0  0  0
    4.0810    4.1600   24.9890 C   0  0  0  0  0  0  0  0  0  0  0  0
    5.0210    0.8470   26.3170 C   0  0  0  0  0  0  0  0  0  0  0  0
    4.4510    0.8740   27.5710 O   0  0  0  0  0  0  0  0  0  0  0  0
    3.0910    1.1320   27.5770 C   0  0  0  0  0  0  0  0  0  0  0  0
    2.8540    2.4590   27.7530 F   0  0  0  0  0  0  0  0  0  0  0  0
    2.5110    0.4040   28.5370 F   0  0  0  0  0  0  0  0  0  0  0  0
    5.8860   -5.0000   23.6500 C   0  0  0  0  0  0  0  0  0  0  0  0
    6.5930   -5.4110   22.3780 C   0  0  0  0  0  0  0  0  0  0  0  0
  1  2  1  0
  2  3  2  0
  2  4  1  0
  4  5  1  0
  5  6  1  0
  6  7  1  0
  7  8  1  0
  8  9  2  0
  8 10  1  0
 10 11  1  0
 11 12  1  0
 12 13  2  0
 13 14  1  0
 14 15  2  0
 15 16  1  0
 16 17  1  0
 17 18  1  0
 12 19  1  0
 16 19  2  0
 19 20  1  0
 20 21  1  0
 21 22  1  0
 21 23  1  0
  7 24  1  0
  4 25  1  0
 24 25  1  0
M  END
