piperidine-amides-32597-covalent
     RDKit          3D

 28 30  0  0  0  0  0  0  0  0999 V2000
    7.0370   -3.3300   19.3560 C   0  0  0  0  0  0  0  0  0  0  0  0
    6.3510   -4.2030   20.3500 C   0  0  0  0  0  0  0  0  0  0  0  0
    5.3610   -4.8550   19.9790 O   0  0  0  0  0  0  0  0  0  0  0  0
    6.8500   -4.3140   21.6690 N   0  0  0  0  0  0  0  0  0  0  0  0
    6.7630   -5.5650   22.4020 C   0  0  0  0  0  0  0  0  0  0  0  0
    6.2750   -5.3060   23.8380 C   0  0  0  0  0  0  0  0  0  0  0  0
    6.1580   -3.8370   24.0370 C   0  0  0  0  0  0  0  0  0  0  0  0
    5.6380   -3.3850   25.3590 C   0  0  0  0  0  0  0  0  0  0  0  0
    4.7320   -2.5490   25.2930 O   0  0  0  0  0  0  0  0  0  0  0  0
    6.1000   -3.8590   26.6020 N   0  0  0  0  0  0  0  0  0  0  0  0
    6.0280   -3.1000   27.7890 C   0  0  0  0  0  0  0  0  0  0  0  0
    5.8910   -3.6960   29.0120 C   0  0  0  0  0  0  0  0  0  0  0  0
    6.2470   -5.0400   29.1550 C   0  0  0  0  0  0  0  0  0  0  0  0
    5.0930   -5.8150   28.7960 N   0  0  0  0  0  0  0  0  0  0  0  0
    4.3050   -6.5540   29.6150 C   0  0  0  0  0  0  0  0  0  0  0  0
    4.5880   -7.0300   30.9860 C   0  0  0  0  0  0  0  0  0  0  0  0
    3.6120   -7.8610   31.8180 C   0  0  0  0  0  0  0  0  0  0  0  0
    2.2870   -8.1780   31.1200 C   0  0  0  0  0  0  0  0  0  0  0  0
    1.2270   -8.9040   31.6260 C   0  0  0  0  0  0  0  0  0  0  0  0
    0.7090   -9.9470   30.9100 F   0  0  0  0  0  0  0  0  0  0  0  0
    1.6680   -9.5250   32.8290 F   0  0  0  0  0  0  0  0  0  0  0  0
    0.2100   -8.0380   32.0880 F   0  0  0  0  0  0  0  0  0  0  0  0
    2.1150   -7.6460   29.7370 C   0  0  0  0  0  0  0  0  0  0  0  0
    3.0410   -6.9150   29.0800 N   0  0  0  0  0  0  0  0  0  0  0  0
    4.7950   -5.4250   27.4770 C   0  0  0  0  0  0  0  0  0  0  0  0
    5.9250   -5.3080   26.7680 C   0  0  0  0  0  0  0  0  0  0  0  0
    7.4000   -3.0880   23.6990 C   0  0  0  0  0  0  0  0  0  0  0  0
    7.6880   -3.2490   22.2310 C   0  0  0  0  0  0  0  0  0  0  0  0
  1  2  1  0
  2  3  2  0
  2  4  1  0
  4  5  1  0
  5  6  1  0
  6  7  1  0
  7  8  1  0
  8  9  2  0
  8 10  1  0
 10 11  1  0
 11 12  1  0
 12 13  1  0
 13 14  1  0
 14 15  1  0
 15 16  2  0
 16 17  1  0
 17 18  2  0
 18 19  1  0
 19 20  1  0
 19 21  1  0
 19 22  1  0
 18 23  1  0
 15 24  1  0
 23 24  2  0
 14 25  1  0
 10 26  1  0
 25 26  1  0
  7 27  1  0
  4 28  1  0
 27 28  1  0
M  END
