piperidine-amides-33190-covalent
     RDKit          3D

 27 30  0  0  0  0  0  0  0  0999 V2000
    7.0390   -3.3990   19.4090 C   0  0  0  0  0  0  0  0  0  0  0  0
    6.3550   -4.2200   20.4270 C   0  0  0  0  0  0  0  0  0  0  0  0
    5.4110   -4.9330   20.0050 O   0  0  0  0  0  0  0  0  0  0  0  0
    6.7570   -4.2360   21.8010 N   0  0  0  0  0  0  0  0  0  0  0  0
    7.6540   -3.2280   22.2390 C   0  0  0  0  0  0  0  0  0  0  0  0
    7.5650   -3.0410   23.6630 C   0  0  0  0  0  0  0  0  0  0  0  0
    6.3360   -3.6560   24.1800 C   0  0  0  0  0  0  0  0  0  0  0  0
    6.0490   -3.2170   25.6060 C   0  0  0  0  0  0  0  0  0  0  0  0
    5.9420   -2.0020   25.8120 O   0  0  0  0  0  0  0  0  0  0  0  0
    5.8200   -4.0740   26.7140 N   0  0  0  0  0  0  0  0  0  0  0  0
    4.5690   -4.5830   26.9780 C   0  0  0  0  0  0  0  0  0  0  0  0
    4.3290   -4.8940   28.3670 C   0  0  0  0  0  0  0  0  0  0  0  0
    5.2130   -5.5530   29.1130 N   0  0  0  0  0  0  0  0  0  0  0  0
    4.8730   -6.4360   30.2270 C   0  0  0  0  0  0  0  0  0  0  0  0
    5.6240   -6.4410   31.3620 N   0  0  0  0  0  0  0  0  0  0  0  0
    5.1060   -7.2880   32.2920 C   0  0  0  0  0  0  0  0  0  0  0  0
    5.8960   -7.3280   33.6280 C   0  0  0  0  0  0  0  0  0  0  0  0
    5.3370   -8.2860   34.7050 C   0  0  0  0  0  0  0  0  0  0  0  0
    4.0610   -9.0620   34.2880 C   0  0  0  0  0  0  0  0  0  0  0  0
    3.4220  -10.1440   35.5010 Cl  0  0  0  0  0  0  0  0  0  0  0  0
    3.3780   -8.9420   32.9800 C   0  0  0  0  0  0  0  0  0  0  0  0
    4.0050   -8.0050   32.0410 C   0  0  0  0  0  0  0  0  0  0  0  0
    3.5750   -7.5390   30.4160 S   0  0  0  0  0  0  0  0  0  0  0  0
    6.5210   -5.1690   28.6610 C   0  0  0  0  0  0  0  0  0  0  0  0
    6.4260   -3.8100   27.9980 C   0  0  0  0  0  0  0  0  0  0  0  0
    6.2040   -5.1350   23.9120 C   0  0  0  0  0  0  0  0  0  0  0  0
    6.6210   -5.4440   22.5940 C   0  0  0  0  0  0  0  0  0  0  0  0
  1  2  1  0
  2  3  2  0
  2  4  1  0
  4  5  1  0
  5  6  1  0
  6  7  1  0
  7  8  1  0
  8  9  2  0
  8 10  1  0
 10 11  1  0
 11 12  1  0
 12 13  1  0
 13 14  1  0
 14 15  2  0
 15 16  1  0
 16 17  2  0
 17 18  1  0
 18 19  2  0
 19 20  1  0
 19 21  1  0
 16 22  1  0
 21 22  2  0
 14 23  1  0
 22 23  1  0
 13 24  1  0
 10 25  1  0
 24 25  1  0
  7 26  1  0
  4 27  1  0
 26 27  1  0
M  END
