piperidine-amides-17887-covalent
     RDKit          3D

 21 23  0  0  0  0  0  0  0  0999 V2000
    7.1900   -3.2720   19.3050 C   0  0  0  0  0  0  0  0  0  0  0  0
    6.4330   -4.0280   20.2690 C   0  0  0  0  0  0  0  0  0  0  0  0
    5.3460   -4.5780   19.9040 O   0  0  0  0  0  0  0  0  0  0  0  0
    6.9000   -4.2090   21.5830 N   0  0  0  0  0  0  0  0  0  0  0  0
    6.5410   -5.4430   22.3030 C   0  0  0  0  0  0  0  0  0  0  0  0
    5.5150   -4.8210   23.3120 C   0  0  0  0  0  0  0  0  0  0  0  0
    6.2910   -3.7630   24.0700 C   0  0  0  0  0  0  0  0  0  0  0  0
    5.5000   -3.3620   25.3860 C   0  0  0  0  0  0  0  0  0  0  0  0
    5.0340   -4.3580   25.9120 O   0  0  0  0  0  0  0  0  0  0  0  0
    5.5340   -2.1050   25.5710 N   0  0  0  0  0  0  0  0  0  0  0  0
    5.2060   -0.8060   25.6330 C   0  0  0  0  0  0  0  0  0  0  0  0
    5.9240   -0.1470   26.4240 C   0  0  0  0  0  0  0  0  0  0  0  0
    5.7420   -0.3150   27.8250 C   0  0  0  0  0  0  0  0  0  0  0  0
    6.1250    0.4600   28.8360 N   0  0  0  0  0  0  0  0  0  0  0  0
    5.5920   -0.3820   29.7660 C   0  0  0  0  0  0  0  0  0  0  0  0
    5.7110   -0.0400   31.2570 C   0  0  0  0  0  0  0  0  0  0  0  0
    4.9580   -1.5110   29.4910 N   0  0  0  0  0  0  0  0  0  0  0  0
    5.0380   -1.5020   28.1730 O   0  0  0  0  0  0  0  0  0  0  0  0
    6.6770   -1.4750   26.4620 C   0  0  0  0  0  0  0  0  0  0  0  0
    6.7040   -2.5850   23.2140 C   0  0  0  0  0  0  0  0  0  0  0  0
    7.7080   -3.1860   22.2330 C   0  0  0  0  0  0  0  0  0  0  0  0
  1  2  1  0
  2  3  2  0
  2  4  1  0
  4  5  1  0
  5  6  1  0
  6  7  1  0
  7  8  1  0
  8  9  2  0
  8 10  1  0
 10 11  1  0
 11 12  1  0
 12 13  1  0
 13 14  2  0
 14 15  1  0
 15 16  1  0
 15 17  2  0
 13 18  1  0
 17 18  1  0
 10 19  1  0
 12 19  1  0
  7 20  1  0
  4 21  1  0
 20 21  1  0
M  END
