piperidine-amides-24246-covalent
     RDKit          3D

 23 25  0  0  0  0  0  0  0  0999 V2000
    7.0910   -3.3510   19.3790 C   0  0  0  0  0  0  0  0  0  0  0  0
    6.3750   -4.1920   20.3430 C   0  0  0  0  0  0  0  0  0  0  0  0
    5.3620   -4.8320   19.9820 O   0  0  0  0  0  0  0  0  0  0  0  0
    6.8530   -4.3250   21.6560 N   0  0  0  0  0  0  0  0  0  0  0  0
    6.5590   -5.5340   22.3870 C   0  0  0  0  0  0  0  0  0  0  0  0
    6.1190   -5.0990   23.7950 C   0  0  0  0  0  0  0  0  0  0  0  0
    5.9090   -3.5980   23.7290 C   0  0  0  0  0  0  0  0  0  0  0  0
    5.2850   -3.0600   24.9630 C   0  0  0  0  0  0  0  0  0  0  0  0
    4.3170   -2.2940   24.8400 O   0  0  0  0  0  0  0  0  0  0  0  0
    5.7440   -3.4120   26.2330 N   0  0  0  0  0  0  0  0  0  0  0  0
    4.6990   -3.6650   27.1980 C   0  0  0  0  0  0  0  0  0  0  0  0
    5.4610   -3.9080   28.3990 C   0  0  0  0  0  0  0  0  0  0  0  0
    5.6610   -2.8380   29.2130 C   0  0  0  0  0  0  0  0  0  0  0  0
    4.8700   -5.0860   29.1510 C   0  0  0  0  0  0  0  0  0  0  0  0
    6.6710   -4.3540   27.8290 C   0  0  0  0  0  0  0  0  0  0  0  0
    7.7460   -5.1160   28.4760 C   0  0  0  0  0  0  0  0  0  0  0  0
    9.1830   -5.6590   27.9190 C   0  0  0  0  0  0  0  0  0  0  0  0
    8.5850   -5.0080   26.8520 C   0  0  0  0  0  0  0  0  0  0  0  0
    8.9890   -4.6630   25.1910 Cl  0  0  0  0  0  0  0  0  0  0  0  0
    7.5220   -4.7210   27.6190 C   0  0  0  0  0  0  0  0  0  0  0  0
    6.9920   -4.1100   26.5200 C   0  0  0  0  0  0  0  0  0  0  0  0
    7.2140   -2.9110   23.4690 C   0  0  0  0  0  0  0  0  0  0  0  0
    7.6320   -3.2620   22.2210 C   0  0  0  0  0  0  0  0  0  0  0  0
  1  2  1  0
  2  3  2  0
  2  4  1  0
  4  5  1  0
  5  6  1  0
  6  7  1  0
  7  8  1  0
  8  9  2  0
  8 10  1  0
 10 11  1  0
 11 12  1  0
 12 13  1  0
 12 14  1  0
 12 15  1  0
 15 16  1  0
 16 17  2  0
 17 18  1  0
 18 19  1  0
 18 20  2  0
 10 21  1  0
 15 21  2  0
 20 21  1  0
  7 22  1  0
  4 23  1  0
 22 23  1  0
M  END
