piperidine-amides-23646-covalent
     RDKit          3D

 22 23  0  0  0  0  0  0  0  0999 V2000
    7.0460   -3.3510   19.2910 C   0  0  0  0  0  0  0  0  0  0  0  0
    6.3770   -4.1700   20.3160 C   0  0  0  0  0  0  0  0  0  0  0  0
    5.3510   -4.7960   19.9640 O   0  0  0  0  0  0  0  0  0  0  0  0
    6.9110   -4.2790   21.6260 N   0  0  0  0  0  0  0  0  0  0  0  0
    6.5250   -5.3950   22.4210 C   0  0  0  0  0  0  0  0  0  0  0  0
    5.8840   -5.0220   23.6830 C   0  0  0  0  0  0  0  0  0  0  0  0
    5.9800   -3.5780   23.9920 C   0  0  0  0  0  0  0  0  0  0  0  0
    5.4240   -3.1780   25.3490 C   0  0  0  0  0  0  0  0  0  0  0  0
    4.2710   -2.7200   25.3890 O   0  0  0  0  0  0  0  0  0  0  0  0
    6.1200   -3.3020   26.5740 N   0  0  0  0  0  0  0  0  0  0  0  0
    5.5480   -3.1560   27.8760 C   0  0  0  0  0  0  0  0  0  0  0  0
    5.7270   -4.3360   28.7070 C   0  0  0  0  0  0  0  0  0  0  0  0
    6.4180   -5.1760   27.6370 C   0  0  2  0  0  0  0  0  0  0  0  0
    7.5640   -5.8500   27.9260 C   0  0  0  0  0  0  0  0  0  0  0  0
    8.2270   -6.0510   26.7060 N   0  0  0  0  0  0  0  0  0  0  0  0
    9.4480   -4.9700   26.5430 S   0  0  0  0  0  0  0  0  0  0  0  0
    9.6060   -4.4780   28.2530 C   0  0  0  0  0  0  0  0  0  0  0  0
   10.6550   -5.6160   25.9660 O   0  0  0  0  0  0  0  0  0  0  0  0
    9.1260   -3.7580   25.7480 O   0  0  0  0  0  0  0  0  0  0  0  0
    7.1410   -4.2840   26.7130 C   0  0  0  0  0  0  0  0  0  0  0  0
    7.4060   -3.1090   23.7260 C   0  0  0  0  0  0  0  0  0  0  0  0
    7.6700   -3.2020   22.2390 C   0  0  0  0  0  0  0  0  0  0  0  0
  1  2  1  0
  2  3  2  0
  2  4  1  0
  4  5  1  0
  5  6  1  0
  6  7  1  0
  7  8  1  0
  8  9  2  0
  8 10  1  0
 10 11  1  0
 11 12  1  0
 12 13  1  0
 13 14  1  1
 14 15  1  0
 16 15  1  0
 16 17  1  0
 16 18  2  0
 16 19  2  0
 10 20  1  0
 13 20  1  0
  7 21  1  0
  4 22  1  0
 21 22  1  0
M  END
