piperidine-amides-508-covalent
     RDKit          3D

 27 29  0  0  0  0  0  0  0  0999 V2000
    7.0800   -3.3840   19.2800 C   0  0  0  0  0  0  0  0  0  0  0  0
    6.3260   -4.0890   20.2910 C   0  0  0  0  0  0  0  0  0  0  0  0
    5.2620   -4.6630   19.9210 O   0  0  0  0  0  0  0  0  0  0  0  0
    6.7420   -4.2230   21.6330 N   0  0  0  0  0  0  0  0  0  0  0  0
    7.7080   -3.2440   22.1740 C   0  0  0  0  0  0  0  0  0  0  0  0
    6.7930   -2.6110   23.2700 C   0  0  0  0  0  0  0  0  0  0  0  0
    6.7020   -3.6990   24.2970 C   0  0  0  0  0  0  0  0  0  0  0  0
    5.5700   -3.3930   25.3670 C   0  0  0  0  0  0  0  0  0  0  0  0
    4.5890   -4.1130   25.2050 O   0  0  0  0  0  0  0  0  0  0  0  0
    5.9450   -2.4430   26.1250 N   0  0  0  0  0  0  0  0  0  0  0  0
    6.1200   -1.3330   26.8880 C   0  0  0  0  0  0  0  0  0  0  0  0
    5.7880   -0.0030   26.7220 C   0  0  0  0  0  0  0  0  0  0  0  0
    6.0640    0.9900   27.6880 C   0  0  0  0  0  0  0  0  0  0  0  0
    6.7330    0.6620   28.9440 C   0  0  0  0  0  0  0  0  0  0  0  0
    6.9460    1.7300   29.8160 O   0  0  0  0  0  0  0  0  0  0  0  0
    5.7280    2.3570   30.0240 C   0  0  0  0  0  0  0  0  0  0  0  0
    5.6000    2.4350   31.4150 C   0  0  0  0  0  0  0  0  0  0  0  0
    4.4300    3.0910   31.8310 C   0  0  0  0  0  0  0  0  0  0  0  0
    3.3130    2.7950   31.1510 N   0  0  0  0  0  0  0  0  0  0  0  0
    2.5210    3.7820   30.4420 C   0  0  0  0  0  0  0  0  0  0  0  0
    1.2300    3.9520   31.2840 C   0  0  0  0  0  0  0  0  0  0  0  0
    1.4170    3.1790   32.3850 C   0  0  0  0  0  0  0  0  0  0  0  0
    2.6590    2.5970   32.4240 C   0  0  0  0  0  0  0  0  0  0  0  0
    7.1060   -0.7510   29.1530 C   0  0  0  0  0  0  0  0  0  0  0  0
    6.8250   -1.7000   28.1960 C   0  0  0  0  0  0  0  0  0  0  0  0
    6.6770   -5.1290   23.8500 C   0  0  0  0  0  0  0  0  0  0  0  0
    6.3070   -5.3590   22.4060 C   0  0  0  0  0  0  0  0  0  0  0  0
  1  2  1  0
  2  3  2  0
  2  4  1  0
  4  5  1  0
  5  6  1  0
  6  7  1  0
  7  8  1  0
  8  9  2  0
  8 10  1  0
 10 11  1  0
 11 12  2  0
 12 13  1  0
 13 14  2  0
 14 15  1  0
 15 16  1  0
 16 17  1  0
 17 18  1  0
 18 19  1  0
 19 20  1  0
 20 21  1  0
 21 22  1  0
 19 23  1  0
 22 23  1  0
 14 24  1  0
 11 25  1  0
 24 25  2  0
  7 26  1  0
  4 27  1  0
 26 27  1  0
M  END
