piperidine-amides-28840-covalent
     RDKit          3D

 26 28  0  0  0  0  0  0  0  0999 V2000
    7.0190   -3.3550   19.3980 C   0  0  0  0  0  0  0  0  0  0  0  0
    6.3720   -4.2290   20.3750 C   0  0  0  0  0  0  0  0  0  0  0  0
    5.3950   -4.8980   19.9930 O   0  0  0  0  0  0  0  0  0  0  0  0
    6.8790   -4.3320   21.7030 N   0  0  0  0  0  0  0  0  0  0  0  0
    6.6640   -5.5680   22.4170 C   0  0  0  0  0  0  0  0  0  0  0  0
    6.2170   -5.3020   23.8360 C   0  0  0  0  0  0  0  0  0  0  0  0
    6.0520   -3.8110   23.9600 C   0  0  0  0  0  0  0  0  0  0  0  0
    5.2990   -3.3520   25.1830 C   0  0  0  0  0  0  0  0  0  0  0  0
    4.4890   -2.4630   24.9670 O   0  0  0  0  0  0  0  0  0  0  0  0
    5.5000   -3.8940   26.4510 N   0  0  0  0  0  0  0  0  0  0  0  0
    4.3770   -4.2930   27.2320 C   0  0  0  0  0  0  0  0  0  0  0  0
    4.5500   -4.4280   28.6290 C   0  0  0  0  0  0  0  0  0  0  0  0
    5.7110   -3.9850   29.1900 C   0  0  0  0  0  0  0  0  0  0  0  0
    5.7090   -2.5990   29.5960 N   0  0  0  0  0  0  0  0  0  0  0  0
    4.4790   -2.2940   30.2310 C   0  0  0  0  0  0  0  0  0  0  0  0
    4.4420   -1.0030   30.9940 C   0  0  0  0  0  0  0  0  0  0  0  0
    5.1860    0.1440   30.2880 C   0  0  0  0  0  0  0  0  0  0  0  0
    5.8860    0.9310   31.1100 N   0  0  0  0  0  0  0  0  0  0  0  0
    7.1930    0.5390   31.5130 C   0  0  0  0  0  0  0  0  0  0  0  0
    5.2630    2.2120   31.3990 C   0  0  0  0  0  0  0  0  0  0  0  0
    6.0600   -0.3340   29.3120 C   0  0  0  0  0  0  0  0  0  0  0  0
    6.7060   -1.5340   29.5350 C   0  0  0  0  0  0  0  0  0  0  0  0
    6.7710   -4.0490   28.4060 C   0  0  0  0  0  0  0  0  0  0  0  0
    6.4100   -3.1720   27.2320 C   0  0  0  0  0  0  0  0  0  0  0  0
    7.4220   -3.1690   23.7680 C   0  0  0  0  0  0  0  0  0  0  0  0
    7.6830   -3.2840   22.2800 C   0  0  0  0  0  0  0  0  0  0  0  0
  1  2  1  0
  2  3  2  0
  2  4  1  0
  4  5  1  0
  5  6  1  0
  6  7  1  0
  7  8  1  0
  8  9  2  0
  8 10  1  0
 10 11  1  0
 11 12  1  0
 12 13  1  0
 13 14  1  0
 14 15  1  0
 15 16  1  0
 16 17  1  0
 17 18  1  0
 18 19  1  0
 18 20  1  0
 17 21  1  0
 14 22  1  0
 21 22  1  0
 13 23  1  0
 10 24  1  0
 23 24  1  0
  7 25  1  0
  4 26  1  0
 25 26  1  0
M  END
