piperidine-amides-11688-covalent
     RDKit          3D

 29 31  0  0  0  0  0  0  0  0999 V2000
    7.1190   -3.3100   19.2200 C   0  0  0  0  0  0  0  0  0  0  0  0
    6.3220   -4.0300   20.1990 C   0  0  0  0  0  0  0  0  0  0  0  0
    5.2450   -4.5190   19.8720 O   0  0  0  0  0  0  0  0  0  0  0  0
    6.8320   -4.2310   21.5240 N   0  0  0  0  0  0  0  0  0  0  0  0
    7.6140   -3.2150   22.1740 C   0  0  0  0  0  0  0  0  0  0  0  0
    6.8820   -2.6890   23.3760 C   0  0  0  0  0  0  0  0  0  0  0  0
    6.4770   -3.8690   24.2450 C   0  0  0  0  0  0  0  0  0  0  0  0
    5.6790   -3.3930   25.4090 C   0  0  0  0  0  0  0  0  0  0  0  0
    4.4340   -3.3650   25.3870 O   0  0  0  0  0  0  0  0  0  0  0  0
    6.3460   -2.9590   26.5760 N   0  0  0  0  0  0  0  0  0  0  0  0
    6.5940   -1.5480   26.7060 C   0  0  0  0  0  0  0  0  0  0  0  0
    6.3440   -1.1320   28.1380 C   0  0  0  0  0  0  0  0  0  0  0  0
    5.0550   -0.7700   28.5740 C   0  0  0  0  0  0  0  0  0  0  0  0
    4.7860   -0.3650   29.9110 C   0  0  0  0  0  0  0  0  0  0  0  0
    5.8250   -0.3280   30.8020 C   0  0  0  0  0  0  0  0  0  0  0  0
    5.7160    0.0700   32.2010 C   0  0  0  0  0  0  0  0  0  0  0  0
    6.7670    0.4220   32.8290 O   0  0  0  0  0  0  0  0  0  0  0  0
    4.4700    0.0180   32.6940 N   0  0  0  0  0  0  0  0  0  0  0  0
    4.0960   -0.4920   33.9900 C   0  0  0  0  0  0  0  0  0  0  0  0
    3.8550    0.5250   34.8940 C   0  0  0  0  0  0  0  0  0  0  0  0
    2.8530    0.3190   35.7700 N   0  0  0  0  0  0  0  0  0  0  0  0
    1.7300    1.0670   35.8790 C   0  0  0  0  0  0  0  0  0  0  0  0
    0.9780    0.7030   37.0430 C   0  0  0  0  0  0  0  0  0  0  0  0
    1.6640   -0.3100   37.6400 C   0  0  0  0  0  0  0  0  0  0  0  0
    2.8160   -0.6010   36.8790 C   0  0  0  0  0  0  0  0  0  0  0  0
    7.1640   -0.6700   30.4930 C   0  0  0  0  0  0  0  0  0  0  0  0
    7.3820   -1.0930   29.0570 C   0  0  0  0  0  0  0  0  0  0  0  0
    5.7570   -4.9340   23.4780 C   0  0  0  0  0  0  0  0  0  0  0  0
    6.4700   -5.4120   22.2600 C   0  0  0  0  0  0  0  0  0  0  0  0
  1  2  1  0
  2  3  2  0
  2  4  1  0
  4  5  1  0
  5  6  1  0
  6  7  1  0
  7  8  1  0
  8  9  2  0
  8 10  1  0
 10 11  1  0
 11 12  1  0
 12 13  2  0
 13 14  1  0
 14 15  2  0
 15 16  1  0
 16 17  2  0
 16 18  1  0
 18 19  1  0
 19 20  1  0
 20 21  1  0
 21 22  1  0
 22 23  1  0
 23 24  1  0
 21 25  1  0
 24 25  1  0
 15 26  1  0
 12 27  1  0
 26 27  2  0
  7 28  1  0
  4 29  1  0
 28 29  1  0
M  END
