piperidine-amides-1415-covalent
     RDKit          3D

 22 23  0  0  0  0  0  0  0  0999 V2000
    7.1050   -3.2430   19.2450 C   0  0  0  0  0  0  0  0  0  0  0  0
    6.2460   -3.9680   20.2190 C   0  0  0  0  0  0  0  0  0  0  0  0
    5.1890   -4.4800   19.8340 O   0  0  0  0  0  0  0  0  0  0  0  0
    6.6600   -4.1080   21.5530 N   0  0  0  0  0  0  0  0  0  0  0  0
    6.2380   -5.2590   22.3010 C   0  0  0  0  0  0  0  0  0  0  0  0
    5.4880   -4.7820   23.5620 C   0  0  0  0  0  0  0  0  0  0  0  0
    5.4780   -3.2680   23.6660 C   0  0  0  0  0  0  0  0  0  0  0  0
    4.6040   -2.8200   24.8010 C   0  0  0  0  0  0  0  0  0  0  0  0
    3.3990   -2.8650   24.5760 O   0  0  0  0  0  0  0  0  0  0  0  0
    5.0900   -2.4130   26.0560 N   0  0  0  0  0  0  0  0  0  0  0  0
    5.6870   -3.3170   26.9330 C   0  0  0  0  0  0  0  0  0  0  0  0
    5.0330   -4.2890   27.6510 C   0  0  0  0  0  0  0  0  0  0  0  0
    6.4730   -2.5630   27.9990 C   0  0  0  0  0  0  0  0  0  0  0  0
    6.5700   -4.0870   26.3410 C   0  0  0  0  0  0  0  0  0  0  0  0
    6.8020   -3.9690   24.8930 C   0  0  0  0  0  0  0  0  0  0  0  0
    7.8380   -4.8430   24.2370 C   0  0  0  0  0  0  0  0  0  0  0  0
    8.4480   -5.6880   25.3000 C   0  0  0  0  0  0  0  0  0  0  0  0
    8.1310   -5.6850   26.5910 C   0  0  0  0  0  0  0  0  0  0  0  0
    8.8090   -6.4920   27.4500 C   0  0  0  0  0  0  0  0  0  0  0  0
    7.2010   -4.9140   27.1280 C   0  0  0  0  0  0  0  0  0  0  0  0
    6.8590   -2.7380   23.6010 C   0  0  0  0  0  0  0  0  0  0  0  0
    7.4200   -3.0720   22.2020 C   0  0  0  0  0  0  0  0  0  0  0  0
  1  2  1  0
  2  3  2  0
  2  4  1  0
  4  5  1  0
  5  6  1  0
  6  7  1  0
  7  8  1  0
  8  9  2  0
  8 10  1  0
 11 10  1  0
 11 12  1  0
 11 13  1  0
 11 14  1  0
 14 15  2  0
 15 16  1  0
 16 17  2  0
 17 18  1  0
 18 19  1  0
 14 20  1  0
 18 20  2  0
  7 21  1  0
  4 22  1  0
 21 22  1  0
M  END
