piperidine-amides-33148-covalent
     RDKit          3D

 30 33  0  0  0  0  0  0  0  0999 V2000
    7.0150   -3.3710   19.3680 C   0  0  0  0  0  0  0  0  0  0  0  0
    6.4250   -4.2640   20.3820 C   0  0  0  0  0  0  0  0  0  0  0  0
    5.4170   -4.9150   20.0030 O   0  0  0  0  0  0  0  0  0  0  0  0
    6.9820   -4.4320   21.6870 N   0  0  0  0  0  0  0  0  0  0  0  0
    6.4630   -5.4770   22.4870 C   0  0  0  0  0  0  0  0  0  0  0  0
    5.8260   -5.0320   23.7380 C   0  0  0  0  0  0  0  0  0  0  0  0
    6.3200   -3.7850   24.4010 C   0  0  0  0  0  0  0  0  0  0  0  0
    5.3070   -3.2780   25.4180 C   0  0  0  0  0  0  0  0  0  0  0  0
    4.4170   -2.5210   25.0040 O   0  0  0  0  0  0  0  0  0  0  0  0
    5.2870   -3.6080   26.8140 N   0  0  0  0  0  0  0  0  0  0  0  0
    4.6290   -2.9250   27.8520 C   0  0  0  0  0  0  0  0  0  0  0  0
    4.1730   -3.6870   29.0190 C   0  0  0  0  0  0  0  0  0  0  0  0
    4.7040   -4.8540   29.3800 N   0  0  0  0  0  0  0  0  0  0  0  0
    4.0230   -6.0060   29.9530 C   0  0  0  0  0  0  0  0  0  0  0  0
    4.2630   -6.5200   31.2160 C   0  0  0  0  0  0  0  0  0  0  0  0
    3.2520   -7.6070   31.0850 C   0  0  0  0  0  0  0  0  0  0  0  0
    3.3580   -8.3060   32.4090 C   0  0  0  0  0  0  0  0  0  0  0  0
    4.8590   -8.1740   32.6790 C   0  0  0  0  0  0  0  0  0  0  0  0
    5.3640   -8.7730   33.9530 C   0  0  0  0  0  0  0  0  0  0  0  0
    4.3260   -9.4440   34.8340 C   0  0  0  0  0  0  0  0  0  0  0  0
    4.7080  -10.1010   36.1690 C   0  0  0  0  0  0  0  0  0  0  0  0
    6.0050  -10.4120   36.0580 N   0  0  0  0  0  0  0  0  0  0  0  0
    2.8620   -9.4960   34.4320 C   0  0  0  0  0  0  0  0  0  0  0  0
    2.4050   -8.9260   33.2270 C   0  0  0  0  0  0  0  0  0  0  0  0
    2.5540   -7.7020   29.9530 N   0  0  0  0  0  0  0  0  0  0  0  0
    3.0580   -6.6710   29.2360 N   0  0  0  0  0  0  0  0  0  0  0  0
    5.7740   -5.3180   28.5020 C   0  0  0  0  0  0  0  0  0  0  0  0
    6.2180   -4.5370   27.3100 C   0  0  0  0  0  0  0  0  0  0  0  0
    6.7210   -2.7300   23.3970 C   0  0  0  0  0  0  0  0  0  0  0  0
    7.6230   -3.3260   22.3270 C   0  0  0  0  0  0  0  0  0  0  0  0
  1  2  1  0
  2  3  2  0
  2  4  1  0
  4  5  1  0
  5  6  1  0
  6  7  1  0
  7  8  1  0
  8  9  2  0
  8 10  1  0
 10 11  1  0
 11 12  1  0
 12 13  1  0
 13 14  1  0
 14 15  2  0
 15 16  1  0
 16 17  1  0
 17 18  2  0
 18 19  1  0
 19 20  2  0
 20 21  1  0
 21 22  3  0
 20 23  1  0
 17 24  1  0
 23 24  2  0
 16 25  2  0
 14 26  1  0
 25 26  1  0
 13 27  1  0
 10 28  1  0
 27 28  1  0
  7 29  1  0
  4 30  1  0
 29 30  1  0
M  END
