piperidine-amides-30880-covalent
     RDKit          3D

 28 31  0  0  0  0  0  0  0  0999 V2000
    7.0880   -3.3550   19.3190 C   0  0  0  0  0  0  0  0  0  0  0  0
    6.4170   -4.2060   20.3010 C   0  0  0  0  0  0  0  0  0  0  0  0
    5.3760   -4.8000   19.9740 O   0  0  0  0  0  0  0  0  0  0  0  0
    6.9610   -4.4140   21.5830 N   0  0  0  0  0  0  0  0  0  0  0  0
    6.6320   -5.5570   22.3860 C   0  0  0  0  0  0  0  0  0  0  0  0
    5.8610   -5.0060   23.5610 C   0  0  0  0  0  0  0  0  0  0  0  0
    6.5200   -3.8180   24.2220 C   0  0  0  0  0  0  0  0  0  0  0  0
    5.6640   -3.2850   25.3090 C   0  0  0  0  0  0  0  0  0  0  0  0
    4.8350   -2.3670   25.0580 O   0  0  0  0  0  0  0  0  0  0  0  0
    5.6680   -3.7410   26.6380 N   0  0  0  0  0  0  0  0  0  0  0  0
    4.4340   -4.3590   27.1330 C   0  0  0  0  0  0  0  0  0  0  0  0
    4.4170   -4.3200   28.6100 C   0  0  0  0  0  0  0  0  0  0  0  0
    5.6820   -4.6410   29.2560 C   0  0  0  0  0  0  0  0  0  0  0  0
    5.6280   -6.0180   29.8540 C   0  0  0  0  0  0  0  0  0  0  0  0
    4.4430   -5.8160   30.7890 C   0  0  0  0  0  0  0  0  0  0  0  0
    4.1380   -7.0160   31.5280 C   0  0  0  0  0  0  0  0  0  0  0  0
    3.1550   -7.2350   32.4580 C   0  0  0  0  0  0  0  0  0  0  0  0
    2.9180   -8.5480   32.9540 C   0  0  0  0  0  0  0  0  0  0  0  0
    1.9090   -9.0460   33.9700 C   0  0  0  0  0  0  0  0  0  0  0  0
    1.0770   -8.1870   34.5330 N   0  0  0  0  0  0  0  0  0  0  0  0
    1.2600   -6.8480   34.0790 C   0  0  0  0  0  0  0  0  0  0  0  0
    2.2600   -6.3470   33.0720 C   0  0  0  0  0  0  0  0  0  0  0  0
    5.0270   -7.8550   31.0960 N   0  0  0  0  0  0  0  0  0  0  0  0
    5.8610   -7.3570   30.1880 N   0  0  0  0  0  0  0  0  0  0  0  0
    6.7730   -4.3940   28.4900 C   0  0  0  0  0  0  0  0  0  0  0  0
    6.3650   -3.2010   27.7100 C   0  0  0  0  0  0  0  0  0  0  0  0
    6.9210   -2.7140   23.2690 C   0  0  0  0  0  0  0  0  0  0  0  0
    7.7470   -3.3800   22.1880 C   0  0  0  0  0  0  0  0  0  0  0  0
  1  2  1  0
  2  3  2  0
  2  4  1  0
  4  5  1  0
  5  6  1  0
  6  7  1  0
  7  8  1  0
  8  9  2  0
  8 10  1  0
 10 11  1  0
 11 12  1  0
 12 13  1  0
 13 14  1  0
 14 15  1  0
 15 16  2  0
 16 17  1  0
 17 18  2  0
 18 19  1  0
 19 20  2  0
 20 21  1  0
 17 22  1  0
 21 22  2  0
 16 23  1  0
 14 24  2  0
 23 24  1  0
 13 25  1  0
 10 26  1  0
 25 26  1  0
  7 27  1  0
  4 28  1  0
 27 28  1  0
M  END
