piperidine-amides-10602-covalent
     RDKit          3D

 23 24  0  0  0  0  0  0  0  0999 V2000
    7.1040   -3.3340   19.3050 C   0  0  0  0  0  0  0  0  0  0  0  0
    6.3520   -4.1180   20.2790 C   0  0  0  0  0  0  0  0  0  0  0  0
    5.2530   -4.5930   19.8970 O   0  0  0  0  0  0  0  0  0  0  0  0
    6.9000   -4.3490   21.5410 N   0  0  0  0  0  0  0  0  0  0  0  0
    7.5650   -3.3000   22.2600 C   0  0  0  0  0  0  0  0  0  0  0  0
    6.5890   -2.8400   23.2990 C   0  0  0  0  0  0  0  0  0  0  0  0
    6.2150   -3.9670   24.2320 C   0  0  0  0  0  0  0  0  0  0  0  0
    5.2560   -3.4470   25.2360 C   0  0  0  0  0  0  0  0  0  0  0  0
    4.2730   -2.8020   24.8130 O   0  0  0  0  0  0  0  0  0  0  0  0
    5.3770   -3.6380   26.6290 N   0  0  0  0  0  0  0  0  0  0  0  0
    5.7610   -2.5580   27.5080 C   0  0  0  0  0  0  0  0  0  0  0  0
    7.2080   -2.6940   27.8560 C   0  0  0  0  0  0  0  0  0  0  0  0
    7.8620   -3.7110   27.3080 C   0  0  0  0  0  0  0  0  0  0  0  0
    8.0470   -4.9120   27.9070 C   0  0  0  0  0  0  0  0  0  0  0  0
    8.7260   -5.8990   27.2600 C   0  0  0  0  0  0  0  0  0  0  0  0
    9.2470   -5.7330   26.0010 C   0  0  0  0  0  0  0  0  0  0  0  0
    9.0860   -4.5370   25.3460 C   0  0  0  0  0  0  0  0  0  0  0  0
    8.3450   -3.4540   26.0460 C   0  0  0  0  0  0  0  0  0  0  0  0
    8.1770   -2.1980   25.3780 N   0  0  0  0  0  0  0  0  0  0  0  0
    8.7420   -2.0130   24.2240 O   0  0  0  0  0  0  0  0  0  0  0  0
    7.1230   -1.4250   25.7150 O   0  0  0  0  0  0  0  0  0  0  0  0
    5.5620   -5.0830   23.4750 C   0  0  0  0  0  0  0  0  0  0  0  0
    6.3620   -5.5030   22.2540 C   0  0  0  0  0  0  0  0  0  0  0  0
  1  2  1  0
  2  3  2  0
  2  4  1  0
  4  5  1  0
  5  6  1  0
  6  7  1  0
  7  8  1  0
  8  9  2  0
  8 10  1  0
 10 11  1  0
 11 12  1  0
 12 13  1  0
 13 14  2  0
 14 15  1  0
 15 16  2  0
 16 17  1  0
 13 18  1  0
 17 18  2  0
 18 19  1  0
 19 20  2  0
 19 21  1  0
  7 22  1  0
  4 23  1  0
 22 23  1  0
M  CHG  2  19   1  21  -1
M  END
