piperidine-amides-28794-covalent
     RDKit          3D

 27 29  0  0  0  0  0  0  0  0999 V2000
    7.0850   -3.3140   19.3210 C   0  0  0  0  0  0  0  0  0  0  0  0
    6.3630   -4.1000   20.3200 C   0  0  0  0  0  0  0  0  0  0  0  0
    5.3400   -4.7000   19.9460 O   0  0  0  0  0  0  0  0  0  0  0  0
    6.8430   -4.2060   21.6590 N   0  0  0  0  0  0  0  0  0  0  0  0
    7.6910   -3.1550   22.1900 C   0  0  0  0  0  0  0  0  0  0  0  0
    7.4340   -2.9420   23.6590 C   0  0  0  0  0  0  0  0  0  0  0  0
    6.1320   -3.6410   23.9280 C   0  0  0  0  0  0  0  0  0  0  0  0
    5.5080   -3.3200   25.2570 C   0  0  0  0  0  0  0  0  0  0  0  0
    4.2820   -3.3130   25.2400 O   0  0  0  0  0  0  0  0  0  0  0  0
    6.2530   -3.0450   26.4100 N   0  0  0  0  0  0  0  0  0  0  0  0
    6.7400   -1.6970   26.5330 C   0  0  0  0  0  0  0  0  0  0  0  0
    6.6510   -0.9800   27.7480 C   0  0  0  0  0  0  0  0  0  0  0  0
    5.9920    0.2380   27.7870 C   0  0  0  0  0  0  0  0  0  0  0  0
    5.8240    1.0770   28.9010 C   0  0  0  0  0  0  0  0  0  0  0  0
    6.4350    0.5810   30.1820 C   0  0  0  0  0  0  0  0  0  0  0  0
    7.1670   -0.7610   30.1580 C   0  0  0  0  0  0  0  0  0  0  0  0
    7.2220   -1.4770   28.8850 C   0  0  0  0  0  0  0  0  0  0  0  0
    5.6420   -3.6890   27.5680 C   0  0  1  0  0  0  0  0  0  0  0  0
    6.6550   -4.2860   28.5790 C   0  0  0  0  0  0  0  0  0  0  0  0
    4.9000   -2.7570   28.2570 C   0  0  0  0  0  0  0  0  0  0  0  0
    4.8180   -2.8170   29.6450 C   0  0  0  0  0  0  0  0  0  0  0  0
    4.0360   -1.8470   30.4850 C   0  0  0  0  0  0  0  0  0  0  0  0
    3.2940   -0.7470   29.8170 C   0  0  0  0  0  0  0  0  0  0  0  0
    3.3620   -0.6590   28.3190 C   0  0  0  0  0  0  0  0  0  0  0  0
    4.2050   -1.7290   27.6130 C   0  0  0  0  0  0  0  0  0  0  0  0
    6.1630   -5.1180   23.7230 C   0  0  0  0  0  0  0  0  0  0  0  0
    6.6790   -5.4640   22.3460 C   0  0  0  0  0  0  0  0  0  0  0  0
  1  2  1  0
  2  3  2  0
  2  4  1  0
  4  5  1  0
  5  6  1  0
  6  7  1  0
  7  8  1  0
  8  9  2  0
  8 10  1  0
 10 11  1  0
 11 12  1  0
 12 13  2  0
 13 14  1  0
 14 15  2  0
 15 16  1  0
 12 17  1  0
 16 17  2  0
 10 18  1  0
 18 19  1  1
 18 20  1  0
 20 21  2  0
 21 22  1  0
 22 23  2  0
 23 24  1  0
 20 25  1  0
 24 25  2  0
  7 26  1  0
  4 27  1  0
 26 27  1  0
M  END
