piperidine-amides-24415-covalent
     RDKit          3D

 23 25  0  0  0  0  0  0  0  0999 V2000
    7.0410   -3.3520   19.3760 C   0  0  0  0  0  0  0  0  0  0  0  0
    6.3900   -4.2240   20.3700 C   0  0  0  0  0  0  0  0  0  0  0  0
    5.4220   -4.9330   20.0080 O   0  0  0  0  0  0  0  0  0  0  0  0
    6.8620   -4.3000   21.6990 N   0  0  0  0  0  0  0  0  0  0  0  0
    6.7340   -5.5600   22.4080 C   0  0  0  0  0  0  0  0  0  0  0  0
    6.1140   -5.2540   23.7770 C   0  0  0  0  0  0  0  0  0  0  0  0
    6.2100   -3.7580   23.9050 C   0  0  0  0  0  0  0  0  0  0  0  0
    5.6890   -3.2310   25.1900 C   0  0  0  0  0  0  0  0  0  0  0  0
    4.9520   -2.2310   25.1290 O   0  0  0  0  0  0  0  0  0  0  0  0
    5.9560   -3.8180   26.4500 N   0  0  0  0  0  0  0  0  0  0  0  0
    6.3800   -2.9340   27.5170 C   0  0  0  0  0  0  0  0  0  0  0  0
    6.6150   -3.8390   28.6760 C   0  0  0  0  0  0  0  0  0  0  0  0
    5.9620   -4.9420   28.4070 C   0  0  1  0  0  0  0  0  0  0  0  0
    5.3830   -5.5720   29.4700 C   0  0  0  0  0  0  0  0  0  0  0  0
    5.9470   -6.7050   30.0190 C   0  0  0  0  0  0  0  0  0  0  0  0
    5.4560   -7.3960   31.0730 C   0  0  0  0  0  0  0  0  0  0  0  0
    4.1930   -6.9030   31.7020 C   0  0  0  0  0  0  0  0  0  0  0  0
    3.4380   -7.6860   33.0620 Cl  0  0  0  0  0  0  0  0  0  0  0  0
    3.6760   -5.8000   31.1330 N   0  0  0  0  0  0  0  0  0  0  0  0
    4.2120   -5.0650   30.0060 C   0  0  0  0  0  0  0  0  0  0  0  0
    5.1400   -4.6100   27.3850 C   0  0  0  0  0  0  0  0  0  0  0  0
    7.6220   -3.3350   23.6360 C   0  0  0  0  0  0  0  0  0  0  0  0
    7.7270   -3.2450   22.2360 C   0  0  0  0  0  0  0  0  0  0  0  0
  1  2  1  0
  2  3  2  0
  2  4  1  0
  4  5  1  0
  5  6  1  0
  6  7  1  0
  7  8  1  0
  8  9  2  0
  8 10  1  0
 10 11  1  0
 11 12  1  0
 12 13  1  0
 13 14  1  1
 14 15  2  0
 15 16  1  0
 16 17  2  0
 17 18  1  0
 17 19  1  0
 14 20  1  0
 19 20  2  0
 10 21  1  0
 13 21  1  0
  7 22  1  0
  4 23  1  0
 22 23  1  0
M  END
