piperidine-amides-1454-covalent
     RDKit          3D

 22 24  0  0  0  0  0  0  0  0999 V2000
    7.0690   -3.3350   19.3190 C   0  0  0  0  0  0  0  0  0  0  0  0
    6.3710   -4.1830   20.3240 C   0  0  0  0  0  0  0  0  0  0  0  0
    5.3710   -4.8360   19.9760 O   0  0  0  0  0  0  0  0  0  0  0  0
    6.8880   -4.2500   21.6340 N   0  0  0  0  0  0  0  0  0  0  0  0
    7.7800   -3.2340   22.1460 C   0  0  0  0  0  0  0  0  0  0  0  0
    7.0590   -2.5750   23.3070 C   0  0  0  0  0  0  0  0  0  0  0  0
    6.6200   -3.6920   24.1720 C   0  0  0  0  0  0  0  0  0  0  0  0
    5.9310   -3.1800   25.3780 C   0  0  0  0  0  0  0  0  0  0  0  0
    4.7500   -3.5170   25.5400 O   0  0  0  0  0  0  0  0  0  0  0  0
    6.6340   -2.3330   26.2490 N   0  0  0  0  0  0  0  0  0  0  0  0
    6.1330   -1.6630   27.4200 C   0  0  1  0  0  0  0  0  0  0  0  0
    6.6820   -2.0040   28.7010 C   0  0  0  0  0  0  0  0  0  0  0  0
    7.5070   -1.1530   29.5530 C   0  0  0  0  0  0  0  0  0  0  0  0
    7.4720    0.2240   29.3960 O   0  0  0  0  0  0  0  0  0  0  0  0
    6.6750    0.5100   28.3660 C   0  0  0  0  0  0  0  0  0  0  0  0
    6.8330   -0.8440   28.4150 C   0  0  0  0  0  0  0  0  0  0  0  0
    5.9070   -0.5940   27.2150 C   0  0  0  0  0  0  0  0  0  0  0  0
    6.0750    0.9780   27.6250 C   0  0  0  0  0  0  0  0  0  0  0  0
    5.2910    0.7520   26.5520 C   0  0  0  0  0  0  0  0  0  0  0  0
    5.9830   -0.1830   27.3700 C   0  0  0  0  0  0  0  0  0  0  0  0
    5.7870   -4.7420   23.4940 C   0  0  0  0  0  0  0  0  0  0  0  0
    6.5530   -5.3370   22.5160 C   0  0  0  0  0  0  0  0  0  0  0  0
  1  2  1  0
  2  3  2  0
  2  4  1  0
  4  5  1  0
  5  6  1  0
  6  7  1  0
  7  8  1  0
  8  9  2  0
  8 10  1  0
 11 10  1  6
 11 12  1  0
 12 13  1  0
 13 14  1  0
 14 15  1  0
 15 16  2  0
 16 17  1  0
 17 18  2  0
 18 19  1  0
 11 20  1  0
 15 20  1  0
 19 20  2  0
  7 21  1  0
  4 22  1  0
 21 22  1  0
M  END
