piperidine-amides-23546-covalent
     RDKit          3D

 24 26  0  0  0  0  0  0  0  0999 V2000
    7.0530   -3.3760   19.3930 C   0  0  0  0  0  0  0  0  0  0  0  0
    6.4190   -4.2650   20.3830 C   0  0  0  0  0  0  0  0  0  0  0  0
    5.3930   -4.8790   19.9960 O   0  0  0  0  0  0  0  0  0  0  0  0
    6.9780   -4.4590   21.6810 N   0  0  0  0  0  0  0  0  0  0  0  0
    6.6060   -5.6050   22.4490 C   0  0  0  0  0  0  0  0  0  0  0  0
    6.1340   -5.2640   23.7850 C   0  0  0  0  0  0  0  0  0  0  0  0
    6.0750   -3.8090   23.9860 C   0  0  0  0  0  0  0  0  0  0  0  0
    5.4030   -3.3460   25.2540 C   0  0  0  0  0  0  0  0  0  0  0  0
    4.6080   -2.4020   25.1630 O   0  0  0  0  0  0  0  0  0  0  0  0
    5.5810   -3.8970   26.5420 N   0  0  0  0  0  0  0  0  0  0  0  0
    4.5400   -4.3030   27.3800 C   0  0  0  0  0  0  0  0  0  0  0  0
    4.7700   -4.3320   28.8160 C   0  0  0  0  0  0  0  0  0  0  0  0
    5.1060   -2.9020   29.2910 C   0  0  0  0  0  0  0  0  0  0  0  0
    4.5510   -2.1430   30.3150 C   0  0  0  0  0  0  0  0  0  0  0  0
    5.2020   -0.7110   30.4990 C   0  0  0  0  0  0  0  0  0  0  0  0
    6.3480   -0.2410   29.5940 C   0  0  0  0  0  0  0  0  0  0  0  0
    7.1210    0.8500   29.4580 N   0  0  0  0  0  0  0  0  0  0  0  0
    7.8410    1.0390   30.6370 O   0  0  0  0  0  0  0  0  0  0  0  0
    6.7260    1.9440   28.7760 O   0  0  0  0  0  0  0  0  0  0  0  0
    6.7780   -1.2370   28.5300 C   0  0  0  0  0  0  0  0  0  0  0  0
    6.1540   -2.5420   28.3910 C   0  0  0  0  0  0  0  0  0  0  0  0
    6.6100   -3.4350   27.3360 C   0  0  0  0  0  0  0  0  0  0  0  0
    7.4550   -3.1970   23.7480 C   0  0  0  0  0  0  0  0  0  0  0  0
    7.6850   -3.2940   22.2750 C   0  0  0  0  0  0  0  0  0  0  0  0
  1  2  1  0
  2  3  2  0
  2  4  1  0
  4  5  1  0
  5  6  1  0
  6  7  1  0
  7  8  1  0
  8  9  2  0
  8 10  1  0
 10 11  1  0
 11 12  1  0
 12 13  1  0
 13 14  2  0
 14 15  1  0
 15 16  2  0
 16 17  1  0
 17 18  2  0
 17 19  1  0
 16 20  1  0
 13 21  1  0
 20 21  2  0
 10 22  1  0
 21 22  1  0
  7 23  1  0
  4 24  1  0
 23 24  1  0
M  CHG  2  17   1  19  -1
M  END
