piperidine-amides-3818-covalent
     RDKit          3D

 24 26  0  0  0  0  0  0  0  0999 V2000
    7.0920   -3.2860   19.1750 C   0  0  0  0  0  0  0  0  0  0  0  0
    6.3590   -4.0290   20.2140 C   0  0  0  0  0  0  0  0  0  0  0  0
    5.2680   -4.5430   19.8790 O   0  0  0  0  0  0  0  0  0  0  0  0
    6.8920   -4.2070   21.5120 N   0  0  0  0  0  0  0  0  0  0  0  0
    6.4310   -5.3030   22.2920 C   0  0  0  0  0  0  0  0  0  0  0  0
    6.0300   -4.9480   23.6490 C   0  0  0  0  0  0  0  0  0  0  0  0
    6.6060   -3.6850   24.1670 C   0  0  0  0  0  0  0  0  0  0  0  0
    5.8270   -3.1690   25.3380 C   0  0  0  0  0  0  0  0  0  0  0  0
    4.5850   -3.0690   25.2550 O   0  0  0  0  0  0  0  0  0  0  0  0
    6.4730   -2.7880   26.5360 N   0  0  0  0  0  0  0  0  0  0  0  0
    6.3030   -3.2940   27.8540 C   0  0  0  0  0  0  0  0  0  0  0  0
    5.1360   -4.0370   28.2880 C   0  0  0  0  0  0  0  0  0  0  0  0
    3.8700   -3.2080   28.2130 C   0  0  0  0  0  0  0  0  0  0  0  0
    2.5940   -3.5790   28.5420 C   0  0  0  0  0  0  0  0  0  0  0  0
    2.4820   -5.0380   29.0500 C   0  0  0  0  0  0  0  0  0  0  0  0
    3.7340   -5.8310   29.1160 C   0  0  0  0  0  0  0  0  0  0  0  0
    5.1690   -5.4080   28.7440 C   0  0  0  0  0  0  0  0  0  0  0  0
    6.3210   -6.1320   28.8040 F   0  0  0  0  0  0  0  0  0  0  0  0
    4.1990   -7.0900   29.4670 C   0  0  0  0  0  0  0  0  0  0  0  0
    2.9180   -7.6130   30.1180 C   0  0  0  0  0  0  0  0  0  0  0  0
    1.5580   -7.1910   29.4620 C   0  0  0  0  0  0  0  0  0  0  0  0
    1.3210   -5.6960   29.4580 C   0  0  0  0  0  0  0  0  0  0  0  0
    6.7890   -2.6320   23.1280 C   0  0  0  0  0  0  0  0  0  0  0  0
    7.6070   -3.1300   22.1440 C   0  0  0  0  0  0  0  0  0  0  0  0
  1  2  1  0
  2  3  2  0
  2  4  1  0
  4  5  1  0
  5  6  1  0
  6  7  1  0
  7  8  1  0
  8  9  2  0
  8 10  1  0
 10 11  1  0
 11 12  1  0
 12 13  2  0
 13 14  1  0
 14 15  2  0
 15 16  1  0
 12 17  1  0
 16 17  2  0
 17 18  1  0
 16 19  1  0
 19 20  1  0
 20 21  1  0
 15 22  1  0
 21 22  1  0
  7 23  1  0
  4 24  1  0
 23 24  1  0
M  END
