piperidine-amides-13273-covalent
     RDKit          3D

 17 17  0  0  0  0  0  0  0  0999 V2000
    7.0930   -3.2740   19.1670 C   0  0  0  0  0  0  0  0  0  0  0  0
    6.3440   -4.0090   20.2130 C   0  0  0  0  0  0  0  0  0  0  0  0
    5.2640   -4.5220   19.8680 O   0  0  0  0  0  0  0  0  0  0  0  0
    6.8590   -4.1550   21.5050 N   0  0  0  0  0  0  0  0  0  0  0  0
    7.5920   -3.0870   22.0900 C   0  0  0  0  0  0  0  0  0  0  0  0
    7.3020   -2.8550   23.5020 C   0  0  0  0  0  0  0  0  0  0  0  0
    6.7320   -4.0130   24.2410 C   0  0  0  0  0  0  0  0  0  0  0  0
    5.9790   -3.5090   25.4110 C   0  0  0  0  0  0  0  0  0  0  0  0
    4.8710   -2.9630   25.2230 O   0  0  0  0  0  0  0  0  0  0  0  0
    6.5050   -3.6580   26.7080 N   0  0  0  0  0  0  0  0  0  0  0  0
    7.1470   -4.9200   27.1480 C   0  0  2  0  0  0  0  0  0  0  0  0
    6.1250   -5.8170   27.7500 C   0  0  0  0  0  0  0  0  0  0  0  0
    5.0100   -6.2990   26.9430 C   0  0  0  0  0  0  0  0  0  0  0  0
    8.0690   -4.5070   28.1570 C   0  0  0  0  0  0  0  0  0  0  0  0
    8.1800   -3.2790   28.3130 O   0  0  0  0  0  0  0  0  0  0  0  0
    5.8810   -4.9290   23.4130 C   0  0  0  0  0  0  0  0  0  0  0  0
    6.4690   -5.3070   22.2500 C   0  0  0  0  0  0  0  0  0  0  0  0
  1  2  1  0
  2  3  2  0
  2  4  1  0
  4  5  1  0
  5  6  1  0
  6  7  1  0
  7  8  1  0
  8  9  2  0
  8 10  1  0
 10 11  1  0
 11 12  1  1
 12 13  1  0
 11 14  1  0
 14 15  1  0
  7 16  1  0
  4 17  1  0
 16 17  1  0
M  END
