piperidine-amides-27591-covalent
     RDKit          3D

 26 28  0  0  0  0  0  0  0  0999 V2000
    7.0670   -3.3240   19.3200 C   0  0  0  0  0  0  0  0  0  0  0  0
    6.3810   -4.1470   20.3200 C   0  0  0  0  0  0  0  0  0  0  0  0
    5.3310   -4.7310   19.9450 O   0  0  0  0  0  0  0  0  0  0  0  0
    6.9160   -4.2970   21.6030 N   0  0  0  0  0  0  0  0  0  0  0  0
    6.6710   -5.4740   22.3870 C   0  0  0  0  0  0  0  0  0  0  0  0
    5.9090   -5.0420   23.6050 C   0  0  0  0  0  0  0  0  0  0  0  0
    6.5830   -3.9290   24.3750 C   0  0  0  0  0  0  0  0  0  0  0  0
    5.5460   -3.2830   25.1970 C   0  0  0  0  0  0  0  0  0  0  0  0
    4.5410   -2.8090   24.6280 O   0  0  0  0  0  0  0  0  0  0  0  0
    5.6260   -3.1700   26.5810 N   0  0  0  0  0  0  0  0  0  0  0  0
    5.8570   -4.3770   27.3610 C   0  0  0  0  0  0  0  0  0  0  0  0
    5.2720   -1.8810   27.1790 C   0  0  0  0  0  0  0  0  0  0  0  0
    5.6770   -0.6770   26.9050 C   0  0  0  0  0  0  0  0  0  0  0  0
    5.5520    0.6130   27.2310 C   0  0  0  0  0  0  0  0  0  0  0  0
    5.0920    1.7510   27.9040 C   0  0  0  0  0  0  0  0  0  0  0  0
    3.7250    2.0490   27.9550 C   0  0  0  0  0  0  0  0  0  0  0  0
    3.2300    3.1700   28.6200 C   0  0  0  0  0  0  0  0  0  0  0  0
    4.0840    4.1850   29.3540 C   0  0  0  0  0  0  0  0  0  0  0  0
    5.5610    3.8500   29.2880 C   0  0  0  0  0  0  0  0  0  0  0  0
    5.9570    2.6160   28.5400 C   0  0  0  0  0  0  0  0  0  0  0  0
    7.3370    2.3720   28.5190 O   0  0  0  0  0  0  0  0  0  0  0  0
    7.8800    3.5010   27.8910 C   0  0  0  0  0  0  0  0  0  0  0  0
    4.6380    0.0050   28.1700 N   0  0  0  0  0  0  0  0  0  0  0  0
    4.4440   -1.3890   28.1850 N   0  0  0  0  0  0  0  0  0  0  0  0
    7.2280   -2.8610   23.5620 C   0  0  0  0  0  0  0  0  0  0  0  0
    7.6960   -3.2370   22.1750 C   0  0  0  0  0  0  0  0  0  0  0  0
  1  2  1  0
  2  3  2  0
  2  4  1  0
  4  5  1  0
  5  6  1  0
  6  7  1  0
  7  8  1  0
  8  9  2  0
  8 10  1  0
 10 11  1  0
 10 12  1  0
 12 13  1  0
 13 14  2  0
 14 15  1  0
 15 16  2  0
 16 17  1  0
 17 18  2  0
 18 19  1  0
 15 20  1  0
 19 20  2  0
 20 21  1  0
 21 22  1  0
 14 23  1  0
 12 24  2  0
 23 24  1  0
  7 25  1  0
  4 26  1  0
 25 26  1  0
M  END
