piperidine-amides-13477-covalent
     RDKit          3D

 23 25  0  0  0  0  0  0  0  0999 V2000
    7.0710   -3.3310   19.2940 C   0  0  0  0  0  0  0  0  0  0  0  0
    6.3770   -4.1790   20.3030 C   0  0  0  0  0  0  0  0  0  0  0  0
    5.3560   -4.7990   19.9680 O   0  0  0  0  0  0  0  0  0  0  0  0
    6.9230   -4.2950   21.5980 N   0  0  0  0  0  0  0  0  0  0  0  0
    7.7320   -3.2510   22.1770 C   0  0  0  0  0  0  0  0  0  0  0  0
    6.9380   -2.6760   23.3410 C   0  0  0  0  0  0  0  0  0  0  0  0
    6.5410   -3.8370   24.1770 C   0  0  0  0  0  0  0  0  0  0  0  0
    5.7510   -3.4250   25.3560 C   0  0  0  0  0  0  0  0  0  0  0  0
    4.5230   -3.4980   25.2500 O   0  0  0  0  0  0  0  0  0  0  0  0
    6.3920   -2.9670   26.5100 N   0  0  0  0  0  0  0  0  0  0  0  0
    6.7020   -1.6180   26.8190 C   0  0  2  0  0  0  0  0  0  0  0  0
    6.7600   -1.0360   27.9260 C   0  0  0  0  0  0  0  0  0  0  0  0
    5.4480   -0.8220   27.4000 C   0  0  1  0  0  0  0  0  0  0  0  0
    4.9880    0.3950   26.9410 C   0  0  0  0  0  0  0  0  0  0  0  0
    5.9050    1.5510   26.7120 C   0  0  0  0  0  0  0  0  0  0  0  0
    5.4520    2.9390   26.1980 C   0  0  0  0  0  0  0  0  0  0  0  0
    3.9410    3.0080   25.9440 C   0  0  0  0  0  0  0  0  0  0  0  0
    3.1930    4.4840   25.3570 Cl  0  0  0  0  0  0  0  0  0  0  0  0
    3.1900    1.8860   26.1880 C   0  0  0  0  0  0  0  0  0  0  0  0
    3.6540    0.5770   26.6790 C   0  0  0  0  0  0  0  0  0  0  0  0
    2.3750   -0.6200   26.8690 Cl  0  0  0  0  0  0  0  0  0  0  0  0
    5.7970   -4.9270   23.4640 C   0  0  0  0  0  0  0  0  0  0  0  0
    6.5790   -5.4020   22.4420 C   0  0  0  0  0  0  0  0  0  0  0  0
  1  2  1  0
  2  3  2  0
  2  4  1  0
  4  5  1  0
  5  6  1  0
  6  7  1  0
  7  8  1  0
  8  9  2  0
  8 10  1  0
 11 10  1  1
 11 12  1  0
 11 13  1  0
 12 13  1  0
 13 14  1  6
 14 15  2  0
 15 16  1  0
 16 17  2  0
 17 18  1  0
 17 19  1  0
 14 20  1  0
 19 20  2  0
 20 21  1  0
  7 22  1  0
  4 23  1  0
 22 23  1  0
M  END
