piperidine-amides-28150-covalent
     RDKit          3D

 25 26  0  0  0  0  0  0  0  0999 V2000
    7.1090   -3.3030   19.1730 C   0  0  0  0  0  0  0  0  0  0  0  0
    6.3760   -4.0700   20.2030 C   0  0  0  0  0  0  0  0  0  0  0  0
    5.2750   -4.5500   19.8760 O   0  0  0  0  0  0  0  0  0  0  0  0
    6.9410   -4.2930   21.4560 N   0  0  0  0  0  0  0  0  0  0  0  0
    6.6130   -5.4660   22.1800 C   0  0  0  0  0  0  0  0  0  0  0  0
    6.0650   -5.1840   23.4980 C   0  0  0  0  0  0  0  0  0  0  0  0
    6.7060   -4.0610   24.2200 C   0  0  0  0  0  0  0  0  0  0  0  0
    5.7690   -3.5760   25.2360 C   0  0  0  0  0  0  0  0  0  0  0  0
    4.6050   -3.2990   24.8870 O   0  0  0  0  0  0  0  0  0  0  0  0
    6.1560   -3.4120   26.5590 N   0  0  0  0  0  0  0  0  0  0  0  0
    5.0060   -3.2490   27.5200 C   0  0  0  0  0  0  0  0  0  0  0  0
    4.8580   -4.4320   28.4160 C   0  0  0  0  0  0  0  0  0  0  0  0
    6.1030   -4.7520   28.9990 C   0  0  1  0  0  0  0  0  0  0  0  0
    6.7270   -5.8600   28.4570 C   0  0  0  0  0  0  0  0  0  0  0  0
    7.9260   -5.7750   27.7900 C   0  0  0  0  0  0  0  0  0  0  0  0
    8.9650   -5.6960   28.5460 O   0  0  0  0  0  0  0  0  0  0  0  0
    8.0540   -5.7610   26.4100 O   0  0  0  0  0  0  0  0  0  0  0  0
    9.4040   -5.6830   26.0170 C   0  0  0  0  0  0  0  0  0  0  0  0
    6.6830   -3.5610   28.7390 C   0  0  0  0  0  0  0  0  0  0  0  0
    6.4980   -2.6240   29.7640 F   0  0  0  0  0  0  0  0  0  0  0  0
    5.6950   -3.0140   27.9930 F   0  0  0  0  0  0  0  0  0  0  0  0
    7.8440   -3.4960   28.0870 C   0  0  0  0  0  0  0  0  0  0  0  0
    7.5130   -2.9720   26.8410 C   0  0  0  0  0  0  0  0  0  0  0  0
    7.1600   -2.8990   23.4200 C   0  0  0  0  0  0  0  0  0  0  0  0
    7.7790   -3.3030   22.1230 C   0  0  0  0  0  0  0  0  0  0  0  0
  1  2  1  0
  2  3  2  0
  2  4  1  0
  4  5  1  0
  5  6  1  0
  6  7  1  0
  7  8  1  0
  8  9  2  0
  8 10  1  0
 10 11  1  0
 11 12  1  0
 12 13  1  0
 13 14  1  6
 14 15  1  0
 15 16  2  0
 15 17  1  0
 17 18  1  0
 13 19  1  0
 19 20  1  0
 19 21  1  0
 19 22  1  0
 10 23  1  0
 22 23  1  0
  7 24  1  0
  4 25  1  0
 24 25  1  0
M  END
