piperidine-amides-4572-covalent
     RDKit          3D

 25 27  0  0  0  0  0  0  0  0999 V2000
    7.0990   -3.2720   19.1360 C   0  0  0  0  0  0  0  0  0  0  0  0
    6.3270   -4.0060   20.1710 C   0  0  0  0  0  0  0  0  0  0  0  0
    5.2220   -4.4570   19.8320 O   0  0  0  0  0  0  0  0  0  0  0  0
    6.8420   -4.2310   21.4520 N   0  0  0  0  0  0  0  0  0  0  0  0
    7.6280   -3.2210   22.0760 C   0  0  0  0  0  0  0  0  0  0  0  0
    7.1550   -2.8020   23.3860 C   0  0  0  0  0  0  0  0  0  0  0  0
    6.4960   -3.8610   24.1700 C   0  0  0  0  0  0  0  0  0  0  0  0
    5.8420   -3.2590   25.3550 C   0  0  0  0  0  0  0  0  0  0  0  0
    4.6100   -3.3850   25.4980 O   0  0  0  0  0  0  0  0  0  0  0  0
    6.6220   -2.5520   26.2890 N   0  0  0  0  0  0  0  0  0  0  0  0
    6.0910   -1.5000   27.1780 C   0  0  0  0  0  0  0  0  0  0  0  0
    5.8700   -0.1970   26.4760 C   0  0  0  0  0  0  0  0  0  0  0  0
    5.2440    1.0050   27.0070 C   0  0  0  0  0  0  0  0  0  0  0  0
    5.0840    2.1710   26.2840 C   0  0  0  0  0  0  0  0  0  0  0  0
    5.5250    2.2580   24.9700 C   0  0  0  0  0  0  0  0  0  0  0  0
    5.3650    3.3670   24.3010 O   0  0  0  0  0  0  0  0  0  0  0  0
    6.3090    4.3580   24.0710 C   0  0  0  0  0  0  0  0  0  0  0  0
    5.9990    5.2770   23.1020 C   0  0  0  0  0  0  0  0  0  0  0  0
    7.0830    5.6050   22.3430 C   0  0  0  0  0  0  0  0  0  0  0  0
    7.9970    4.5780   22.4790 C   0  0  0  0  0  0  0  0  0  0  0  0
    7.4930    3.6300   23.4920 C   0  0  0  0  0  0  0  0  0  0  0  0
    6.1630    1.1460   24.3070 N   0  0  0  0  0  0  0  0  0  0  0  0
    6.3460   -0.0670   25.0170 C   0  0  0  0  0  0  0  0  0  0  0  0
    5.5930   -4.7270   23.2960 C   0  0  0  0  0  0  0  0  0  0  0  0
    6.3510   -5.3220   22.2640 C   0  0  0  0  0  0  0  0  0  0  0  0
  1  2  1  0
  2  3  2  0
  2  4  1  0
  4  5  1  0
  5  6  1  0
  6  7  1  0
  7  8  1  0
  8  9  2  0
  8 10  1  0
 10 11  1  0
 11 12  1  0
 12 13  2  0
 13 14  1  0
 14 15  2  0
 15 16  1  0
 16 17  1  0
 17 18  1  0
 18 19  1  0
 19 20  1  0
 17 21  1  0
 20 21  1  0
 15 22  1  0
 12 23  1  0
 22 23  2  0
  7 24  1  0
  4 25  1  0
 24 25  1  0
M  END
