piperidine-amides-3725-covalent
     RDKit          3D

 27 29  0  0  0  0  0  0  0  0999 V2000
    7.1050   -3.3420   19.3190 C   0  0  0  0  0  0  0  0  0  0  0  0
    6.3580   -4.1230   20.3160 C   0  0  0  0  0  0  0  0  0  0  0  0
    5.3030   -4.6820   19.9280 O   0  0  0  0  0  0  0  0  0  0  0  0
    6.8470   -4.2730   21.6330 N   0  0  0  0  0  0  0  0  0  0  0  0
    7.6240   -3.2190   22.1800 C   0  0  0  0  0  0  0  0  0  0  0  0
    7.5180   -3.0580   23.6230 C   0  0  0  0  0  0  0  0  0  0  0  0
    6.7790   -4.1030   24.3680 C   0  0  0  0  0  0  0  0  0  0  0  0
    6.0700   -3.4810   25.5320 C   0  0  0  0  0  0  0  0  0  0  0  0
    4.8430   -3.2540   25.4570 O   0  0  0  0  0  0  0  0  0  0  0  0
    6.7750   -3.1420   26.7100 N   0  0  0  0  0  0  0  0  0  0  0  0
    7.6570   -3.9740   27.4550 C   0  0  0  0  0  0  0  0  0  0  0  0
    6.3580   -1.9290   27.4040 C   0  0  0  0  0  0  0  0  0  0  0  0
    6.9500   -1.6460   28.5510 N   0  0  0  0  0  0  0  0  0  0  0  0
    6.6590   -0.5030   29.3620 C   0  0  0  0  0  0  0  0  0  0  0  0
    5.6850    0.4220   28.9730 C   0  0  0  0  0  0  0  0  0  0  0  0
    5.0680   -0.0250   27.6200 C   0  0  0  0  0  0  0  0  0  0  0  0
    4.0410    0.8470   27.1090 N   0  0  0  0  0  0  0  0  0  0  0  0
    3.3270    0.6430   25.9740 C   0  0  0  0  0  0  0  0  0  0  0  0
    1.9360    1.1060   26.4330 C   0  0  2  0  0  0  0  0  0  0  0  0
    1.0150    1.5320   25.4660 O   0  0  0  0  0  0  0  0  0  0  0  0
   -0.3520    1.7670   25.8040 C   0  0  0  0  0  0  0  0  0  0  0  0
    2.1100    2.2690   27.3900 C   0  0  2  0  0  0  0  0  0  0  0  0
    1.7920    3.5100   26.7760 N   0  0  0  0  0  0  0  0  0  0  0  0
    3.6110    2.1130   27.6960 C   0  0  0  0  0  0  0  0  0  0  0  0
    5.4100   -1.1310   26.9160 N   0  0  0  0  0  0  0  0  0  0  0  0
    5.8370   -4.8940   23.4970 C   0  0  0  0  0  0  0  0  0  0  0  0
    6.5870   -5.4300   22.4510 C   0  0  0  0  0  0  0  0  0  0  0  0
  1  2  1  0
  2  3  2  0
  2  4  1  0
  4  5  1  0
  5  6  1  0
  6  7  1  0
  7  8  1  0
  8  9  2  0
  8 10  1  0
 10 11  1  0
 10 12  1  0
 12 13  2  0
 13 14  1  0
 14 15  2  0
 15 16  1  0
 16 17  1  0
 17 18  1  0
 18 19  1  0
 19 20  1  6
 20 21  1  0
 19 22  1  0
 22 23  1  6
 17 24  1  0
 22 24  1  0
 12 25  1  0
 16 25  2  0
  7 26  1  0
  4 27  1  0
 26 27  1  0
M  END
