piperidine-amides-12719-covalent
     RDKit          3D

 22 23  0  0  0  0  0  0  0  0999 V2000
    7.0920   -3.2950   19.2370 C   0  0  0  0  0  0  0  0  0  0  0  0
    6.3810   -4.0700   20.2810 C   0  0  0  0  0  0  0  0  0  0  0  0
    5.3160   -4.6100   19.9150 O   0  0  0  0  0  0  0  0  0  0  0  0
    6.9030   -4.2310   21.5800 N   0  0  0  0  0  0  0  0  0  0  0  0
    7.6710   -3.1960   22.2100 C   0  0  0  0  0  0  0  0  0  0  0  0
    7.2380   -2.8750   23.5740 C   0  0  0  0  0  0  0  0  0  0  0  0
    6.0050   -3.5810   23.9760 C   0  0  0  0  0  0  0  0  0  0  0  0
    5.5880   -3.2550   25.3670 C   0  0  0  0  0  0  0  0  0  0  0  0
    4.3990   -2.9340   25.5410 O   0  0  0  0  0  0  0  0  0  0  0  0
    6.4690   -3.2920   26.4600 N   0  0  0  0  0  0  0  0  0  0  0  0
    6.2380   -4.1410   27.6620 C   0  0  0  0  0  0  0  0  0  0  0  0
    5.8360   -5.5480   27.3270 C   0  0  0  0  0  0  0  0  0  0  0  0
    5.2430   -6.3170   28.4060 C   0  0  0  0  0  0  0  0  0  0  0  0
    5.9240   -6.5520   29.5610 C   0  0  0  0  0  0  0  0  0  0  0  0
    5.4490   -7.2580   30.6370 C   0  0  0  0  0  0  0  0  0  0  0  0
    4.1880   -7.7740   30.5520 C   0  0  0  0  0  0  0  0  0  0  0  0
    3.4610   -7.5700   29.4090 C   0  0  0  0  0  0  0  0  0  0  0  0
    3.9820   -6.8580   28.3650 C   0  0  0  0  0  0  0  0  0  0  0  0
    3.3180   -6.6000   27.1640 C   0  0  0  0  0  0  0  0  0  0  0  0
    2.1370   -7.2960   26.8710 N   0  0  0  0  0  0  0  0  0  0  0  0
    6.0120   -5.0390   23.7120 C   0  0  0  0  0  0  0  0  0  0  0  0
    6.6340   -5.4180   22.3860 C   0  0  0  0  0  0  0  0  0  0  0  0
  1  2  1  0
  2  3  2  0
  2  4  1  0
  4  5  1  0
  5  6  1  0
  6  7  1  0
  7  8  1  0
  8  9  2  0
  8 10  1  0
 10 11  1  0
 11 12  1  0
 12 13  1  0
 13 14  2  0
 14 15  1  0
 15 16  2  0
 16 17  1  0
 13 18  1  0
 17 18  2  0
 18 19  1  0
 19 20  3  0
  7 21  1  0
  4 22  1  0
 21 22  1  0
M  END
