piperidine-amides-3403-covalent
     RDKit          3D

 21 22  0  0  0  0  0  0  0  0999 V2000
    7.1040   -3.2790   19.1870 C   0  0  0  0  0  0  0  0  0  0  0  0
    6.3430   -4.0210   20.1850 C   0  0  0  0  0  0  0  0  0  0  0  0
    5.2670   -4.5290   19.8780 O   0  0  0  0  0  0  0  0  0  0  0  0
    6.8690   -4.2190   21.5000 N   0  0  0  0  0  0  0  0  0  0  0  0
    7.6240   -3.1680   22.1360 C   0  0  0  0  0  0  0  0  0  0  0  0
    6.8890   -2.6580   23.3450 C   0  0  0  0  0  0  0  0  0  0  0  0
    6.5340   -3.8480   24.2240 C   0  0  0  0  0  0  0  0  0  0  0  0
    5.7090   -3.3910   25.3730 C   0  0  0  0  0  0  0  0  0  0  0  0
    4.4640   -3.3750   25.3290 O   0  0  0  0  0  0  0  0  0  0  0  0
    6.3560   -2.9670   26.5510 N   0  0  0  0  0  0  0  0  0  0  0  0
    6.7380   -1.5820   26.6380 C   0  0  0  0  0  0  0  0  0  0  0  0
    5.5280   -0.7560   26.2850 C   0  0  0  0  0  0  0  0  0  0  0  0
    5.5770    0.1310   25.2040 C   0  0  0  0  0  0  0  0  0  0  0  0
    4.4730    0.9160   24.8430 C   0  0  0  0  0  0  0  0  0  0  0  0
    3.3270    0.8050   25.5740 C   0  0  0  0  0  0  0  0  0  0  0  0
    3.2840   -0.1070   26.6820 C   0  0  0  0  0  0  0  0  0  0  0  0
    1.7740   -0.2190   27.6040 Cl  0  0  0  0  0  0  0  0  0  0  0  0
    4.3660   -0.8780   27.0350 C   0  0  0  0  0  0  0  0  0  0  0  0
    4.3390   -1.7600   28.0960 C   0  0  0  0  0  0  0  0  0  0  0  0
    5.9290   -5.0260   23.5550 C   0  0  0  0  0  0  0  0  0  0  0  0
    6.4450   -5.3510   22.2300 C   0  0  0  0  0  0  0  0  0  0  0  0
  1  2  1  0
  2  3  2  0
  2  4  1  0
  4  5  1  0
  5  6  1  0
  6  7  1  0
  7  8  1  0
  8  9  2  0
  8 10  1  0
 10 11  1  0
 11 12  1  0
 12 13  2  0
 13 14  1  0
 14 15  2  0
 15 16  1  0
 16 17  1  0
 12 18  1  0
 16 18  2  0
 18 19  1  0
  7 20  1  0
  4 21  1  0
 20 21  1  0
M  END
