piperidine-amides-5544-covalent
     RDKit          3D

 19 21  0  0  0  0  0  0  0  0999 V2000
    7.0610   -3.2960   19.2720 C   0  0  0  0  0  0  0  0  0  0  0  0
    6.3370   -4.0640   20.2900 C   0  0  0  0  0  0  0  0  0  0  0  0
    5.3360   -4.7140   19.9450 O   0  0  0  0  0  0  0  0  0  0  0  0
    6.7720   -4.1230   21.6310 N   0  0  0  0  0  0  0  0  0  0  0  0
    7.6990   -3.1490   22.1910 C   0  0  0  0  0  0  0  0  0  0  0  0
    7.3140   -2.9370   23.6340 C   0  0  0  0  0  0  0  0  0  0  0  0
    6.0070   -3.5940   23.9500 C   0  0  0  0  0  0  0  0  0  0  0  0
    5.4710   -3.2760   25.3050 C   0  0  0  0  0  0  0  0  0  0  0  0
    4.2480   -2.9790   25.4250 O   0  0  0  0  0  0  0  0  0  0  0  0
    6.2250   -3.2730   26.5030 N   0  0  0  0  0  0  0  0  0  0  0  0
    6.1700   -4.4230   27.4410 C   0  0  0  0  0  0  0  0  0  0  0  0
    4.8460   -4.5370   28.0790 C   0  0  0  0  0  0  0  0  0  0  0  0
    4.6920   -5.2840   29.0350 C   0  0  2  0  0  0  0  0  0  0  0  0
    5.5380   -6.4330   29.4600 C   0  0  0  0  0  0  0  0  0  0  0  0
    4.4990   -7.4960   29.1890 C   0  0  0  0  0  0  0  0  0  0  0  0
    3.4140   -6.7330   28.4770 C   0  0  0  0  0  0  0  0  0  0  0  0
    3.9700   -5.6760   27.7860 C   0  0  1  0  0  0  0  0  0  0  0  0
    6.0820   -5.0850   23.7340 C   0  0  0  0  0  0  0  0  0  0  0  0
    6.6340   -5.3780   22.3520 C   0  0  0  0  0  0  0  0  0  0  0  0
  1  2  1  0
  2  3  2  0
  2  4  1  0
  4  5  1  0
  5  6  1  0
  6  7  1  0
  7  8  1  0
  8  9  2  0
  8 10  1  0
 10 11  1  0
 11 12  1  0
 12 13  1  0
 13 14  1  6
 14 15  1  0
 15 16  1  0
 12 17  1  0
 13 17  1  0
 17 16  1  1
  7 18  1  0
  4 19  1  0
 18 19  1  0
M  END
