piperidine-amides-12515-covalent
     RDKit          3D

 23 25  0  0  0  0  0  0  0  0999 V2000
    7.0410   -3.3210   19.3090 C   0  0  0  0  0  0  0  0  0  0  0  0
    6.3740   -4.1430   20.3440 C   0  0  0  0  0  0  0  0  0  0  0  0
    5.3940   -4.8200   19.9730 O   0  0  0  0  0  0  0  0  0  0  0  0
    6.8580   -4.1730   21.6610 N   0  0  0  0  0  0  0  0  0  0  0  0
    7.4840   -3.0170   22.2190 C   0  0  0  0  0  0  0  0  0  0  0  0
    6.9350   -2.6000   23.5130 C   0  0  0  0  0  0  0  0  0  0  0  0
    6.7150   -3.7190   24.4430 C   0  0  0  0  0  0  0  0  0  0  0  0
    5.9890   -3.2970   25.7000 C   0  0  0  0  0  0  0  0  0  0  0  0
    4.7490   -3.4310   25.6780 O   0  0  0  0  0  0  0  0  0  0  0  0
    6.6000   -2.7450   26.8840 N   0  0  0  0  0  0  0  0  0  0  0  0
    6.3550   -1.2980   27.1130 C   0  0  0  0  0  0  0  0  0  0  0  0
    5.6660   -0.5580   26.0370 C   0  0  0  0  0  0  0  0  0  0  0  0
    5.3420    0.8470   26.1020 C   0  0  0  0  0  0  0  0  0  0  0  0
    5.6830    1.5480   27.2080 C   0  0  0  0  0  0  0  0  0  0  0  0
    6.3160    0.9890   28.2560 C   0  0  0  0  0  0  0  0  0  0  0  0
    6.5620    1.8400   29.2390 C   0  0  0  0  0  0  0  0  0  0  0  0
    7.1780    1.4400   30.3310 C   0  0  0  0  0  0  0  0  0  0  0  0
    7.6140    0.1840   30.5790 C   0  0  0  0  0  0  0  0  0  0  0  0
    8.2340    0.0270   31.7950 C   0  0  0  0  0  0  0  0  0  0  0  0
    7.3620   -0.8260   29.5050 N   0  0  0  0  0  0  0  0  0  0  0  0
    6.6680   -0.3210   28.3000 C   0  0  0  0  0  0  0  0  0  0  0  0
    5.9930   -4.8710   23.8110 C   0  0  0  0  0  0  0  0  0  0  0  0
    6.6510   -5.3130   22.5270 C   0  0  0  0  0  0  0  0  0  0  0  0
  1  2  1  0
  2  3  2  0
  2  4  1  0
  4  5  1  0
  5  6  1  0
  6  7  1  0
  7  8  1  0
  8  9  2  0
  8 10  1  0
 10 11  1  0
 11 12  2  0
 12 13  1  0
 13 14  2  0
 14 15  1  0
 15 16  1  0
 16 17  2  0
 17 18  1  0
 18 19  1  0
 18 20  2  0
 11 21  1  0
 15 21  2  0
 20 21  1  0
  7 22  1  0
  4 23  1  0
 22 23  1  0
M  END
