piperidine-amides-30526-covalent
     RDKit          3D

 27 29  0  0  0  0  0  0  0  0999 V2000
    7.0830   -3.2940   19.3000 C   0  0  0  0  0  0  0  0  0  0  0  0
    6.3470   -4.0770   20.3010 C   0  0  0  0  0  0  0  0  0  0  0  0
    5.3420   -4.7130   19.9460 O   0  0  0  0  0  0  0  0  0  0  0  0
    6.7740   -4.1560   21.6420 N   0  0  0  0  0  0  0  0  0  0  0  0
    7.7190   -3.1840   22.1650 C   0  0  0  0  0  0  0  0  0  0  0  0
    7.4470   -3.0450   23.6360 C   0  0  0  0  0  0  0  0  0  0  0  0
    6.1300   -3.6570   23.9840 C   0  0  0  0  0  0  0  0  0  0  0  0
    5.5620   -3.1980   25.2900 C   0  0  0  0  0  0  0  0  0  0  0  0
    4.9400   -2.0990   25.2970 O   0  0  0  0  0  0  0  0  0  0  0  0
    5.5970   -3.8620   26.5530 N   0  0  0  0  0  0  0  0  0  0  0  0
    5.7970   -5.3340   26.5390 C   0  0  0  0  0  0  0  0  0  0  0  0
    6.3590   -5.8450   27.8130 C   0  0  0  0  0  0  0  0  0  0  0  0
    6.7580   -4.8620   28.8170 C   0  0  0  0  0  0  0  0  0  0  0  0
    4.6520   -3.3460   27.5030 C   0  0  1  0  0  0  0  0  0  0  0  0
    3.9140   -4.3130   28.3670 C   0  0  0  0  0  0  0  0  0  0  0  0
    4.1200   -3.2520   29.3290 C   0  0  2  0  0  0  0  0  0  0  0  0
    2.9970   -2.7400   29.9180 O   0  0  0  0  0  0  0  0  0  0  0  0
    3.0460   -2.6700   31.3040 C   0  0  0  0  0  0  0  0  0  0  0  0
    3.7040   -1.4970   31.6970 C   0  0  0  0  0  0  0  0  0  0  0  0
    4.8730   -2.2700   28.3860 C   0  0  0  0  0  0  0  0  0  0  0  0
    4.2600   -0.9000   28.0950 C   0  0  0  0  0  0  0  0  0  0  0  0
    5.2470    0.0740   28.5500 C   0  0  0  0  0  0  0  0  0  0  0  0
    6.2710    0.2900   29.0350 C   0  0  0  0  0  0  0  0  0  0  0  0
    6.8600   -1.0410   29.3320 C   0  0  0  0  0  0  0  0  0  0  0  0
    6.2250   -2.2190   28.8560 C   0  0  0  0  0  0  0  0  0  0  0  0
    6.1200   -5.1400   23.7750 C   0  0  0  0  0  0  0  0  0  0  0  0
    6.6330   -5.4140   22.3620 C   0  0  0  0  0  0  0  0  0  0  0  0
  1  2  1  0
  2  3  2  0
  2  4  1  0
  4  5  1  0
  5  6  1  0
  6  7  1  0
  7  8  1  0
  8  9  2  0
  8 10  1  0
 10 11  1  0
 11 12  1  0
 12 13  1  0
 14 10  1  1
 14 15  1  0
 15 16  1  0
 16 17  1  6
 17 18  1  0
 18 19  1  0
 14 20  1  0
 16 20  1  0
 20 21  1  0
 21 22  1  0
 22 23  1  0
 23 24  1  0
 20 25  1  0
 24 25  1  0
  7 26  1  0
  4 27  1  0
 26 27  1  0
M  END
