piperidine-amides-14301-covalent
     RDKit          3D

 21 23  0  0  0  0  0  0  0  0999 V2000
    7.1170   -3.2660   19.2060 C   0  0  0  0  0  0  0  0  0  0  0  0
    6.3720   -4.0170   20.2170 C   0  0  0  0  0  0  0  0  0  0  0  0
    5.3020   -4.5600   19.8850 O   0  0  0  0  0  0  0  0  0  0  0  0
    6.8900   -4.1570   21.5250 N   0  0  0  0  0  0  0  0  0  0  0  0
    6.5040   -5.3180   22.2810 C   0  0  0  0  0  0  0  0  0  0  0  0
    6.3700   -5.0230   23.7640 C   0  0  0  0  0  0  0  0  0  0  0  0
    6.2370   -3.5290   23.9810 C   0  0  0  0  0  0  0  0  0  0  0  0
    5.8900   -3.2100   25.3990 C   0  0  0  0  0  0  0  0  0  0  0  0
    4.6980   -3.0020   25.6240 O   0  0  0  0  0  0  0  0  0  0  0  0
    6.9190   -3.1720   26.3370 N   0  0  0  0  0  0  0  0  0  0  0  0
    6.8240   -3.8920   27.5650 C   0  0  1  0  0  0  0  0  0  0  0  0
    5.6060   -3.8270   28.2210 C   0  0  0  0  0  0  0  0  0  0  0  0
    5.4380   -5.1170   28.0560 C   0  0  2  0  0  0  0  0  0  0  0  0
    5.1850   -5.8650   29.2400 N   0  0  0  0  0  0  0  0  0  0  0  0
    6.1210   -6.8340   29.6510 C   0  0  0  0  0  0  0  0  0  0  0  0
    5.6400   -7.4430   30.8640 C   0  0  0  0  0  0  0  0  0  0  0  0
    4.3360   -6.7160   31.0800 C   0  0  0  0  0  0  0  0  0  0  0  0
    4.1080   -5.8000   30.1050 N   0  0  0  0  0  0  0  0  0  0  0  0
    6.7790   -5.3600   27.3640 C   0  0  0  0  0  0  0  0  0  0  0  0
    7.4500   -2.8310   23.5100 C   0  0  0  0  0  0  0  0  0  0  0  0
    7.7350   -3.1090   22.0390 C   0  0  0  0  0  0  0  0  0  0  0  0
  1  2  1  0
  2  3  2  0
  2  4  1  0
  4  5  1  0
  5  6  1  0
  6  7  1  0
  7  8  1  0
  8  9  2  0
  8 10  1  0
 11 10  1  6
 11 12  1  0
 12 13  1  0
 13 14  1  1
 14 15  1  0
 15 16  2  0
 16 17  1  0
 14 18  1  0
 17 18  2  0
 11 19  1  0
 13 19  1  0
  7 20  1  0
  4 21  1  0
 20 21  1  0
M  END
