piperidine-amides-32734-covalent
     RDKit          3D

 29 32  0  0  0  0  0  0  0  0999 V2000
    7.0980   -3.3670   19.3890 C   0  0  0  0  0  0  0  0  0  0  0  0
    6.3640   -4.2250   20.3540 C   0  0  0  0  0  0  0  0  0  0  0  0
    5.3310   -4.7990   19.9720 O   0  0  0  0  0  0  0  0  0  0  0  0
    6.8850   -4.4210   21.6570 N   0  0  0  0  0  0  0  0  0  0  0  0
    6.6060   -5.6170   22.4080 C   0  0  0  0  0  0  0  0  0  0  0  0
    6.5540   -5.2090   23.8900 C   0  0  0  0  0  0  0  0  0  0  0  0
    5.9120   -3.8650   23.9540 C   0  0  0  0  0  0  0  0  0  0  0  0
    5.4250   -3.4330   25.2910 C   0  0  0  0  0  0  0  0  0  0  0  0
    4.7850   -2.3820   25.3020 O   0  0  0  0  0  0  0  0  0  0  0  0
    5.6630   -4.1660   26.4580 N   0  0  0  0  0  0  0  0  0  0  0  0
    6.9070   -4.5830   26.8650 C   0  0  0  0  0  0  0  0  0  0  0  0
    7.0740   -5.4580   27.8820 C   0  0  0  0  0  0  0  0  0  0  0  0
    6.3020   -5.1230   28.9760 C   0  0  0  0  0  0  0  0  0  0  0  0
    5.0310   -4.6780   28.6740 C   0  0  1  0  0  0  0  0  0  0  0  0
    4.1120   -4.5690   29.8380 C   0  0  0  0  0  0  0  0  0  0  0  0
    4.0090   -3.3830   30.5200 N   0  0  0  0  0  0  0  0  0  0  0  0
    3.0660   -3.7670   31.5000 C   0  0  0  0  0  0  0  0  0  0  0  0
    2.6000   -2.7760   32.5630 C   0  0  0  0  0  0  0  0  0  0  0  0
    1.4020   -2.9300   33.1330 C   0  0  0  0  0  0  0  0  0  0  0  0
    0.7850   -2.1030   34.1550 C   0  0  0  0  0  0  0  0  0  0  0  0
    1.7480   -0.9560   34.5190 C   0  0  0  0  0  0  0  0  0  0  0  0
    1.2460   -0.1230   35.4790 F   0  0  0  0  0  0  0  0  0  0  0  0
    3.0360   -0.6000   34.0600 C   0  0  0  0  0  0  0  0  0  0  0  0
    3.3230   -1.7110   33.0000 C   0  0  0  0  0  0  0  0  0  0  0  0
    2.6870   -5.0650   31.3440 N   0  0  0  0  0  0  0  0  0  0  0  0
    3.3460   -5.5630   30.3010 O   0  0  0  0  0  0  0  0  0  0  0  0
    4.9550   -3.7010   27.6880 C   0  0  0  0  0  0  0  0  0  0  0  0
    6.8070   -2.7790   23.4040 C   0  0  0  0  0  0  0  0  0  0  0  0
    7.6410   -3.3480   22.3140 C   0  0  0  0  0  0  0  0  0  0  0  0
  1  2  1  0
  2  3  2  0
  2  4  1  0
  4  5  1  0
  5  6  1  0
  6  7  1  0
  7  8  1  0
  8  9  2  0
  8 10  1  0
 10 11  1  0
 11 12  1  0
 12 13  1  0
 13 14  1  0
 14 15  1  1
 15 16  2  0
 16 17  1  0
 17 18  1  0
 18 19  2  0
 19 20  1  0
 20 21  2  0
 21 22  1  0
 21 23  1  0
 18 24  1  0
 23 24  2  0
 17 25  2  0
 15 26  1  0
 25 26  1  0
 10 27  1  0
 14 27  1  0
  7 28  1  0
  4 29  1  0
 28 29  1  0
M  END
