piperidine-amides-2453-covalent
     RDKit          3D

 26 28  0  0  0  0  0  0  0  0999 V2000
    7.0160   -3.3380   19.3540 C   0  0  0  0  0  0  0  0  0  0  0  0
    6.3520   -4.2090   20.3660 C   0  0  0  0  0  0  0  0  0  0  0  0
    5.3870   -4.8700   19.9820 O   0  0  0  0  0  0  0  0  0  0  0  0
    6.8450   -4.2790   21.6750 N   0  0  0  0  0  0  0  0  0  0  0  0
    7.7210   -3.2480   22.1830 C   0  0  0  0  0  0  0  0  0  0  0  0
    7.6150   -3.2230   23.6690 C   0  0  0  0  0  0  0  0  0  0  0  0
    6.1840   -3.5970   24.0260 C   0  0  0  0  0  0  0  0  0  0  0  0
    5.8920   -3.0610   25.3820 C   0  0  0  0  0  0  0  0  0  0  0  0
    4.9650   -3.5360   26.0550 O   0  0  0  0  0  0  0  0  0  0  0  0
    6.6970   -1.9730   25.8660 N   0  0  0  0  0  0  0  0  0  0  0  0
    6.3350   -1.1290   27.0280 C   0  0  0  0  0  0  0  0  0  0  0  0
    5.7340    0.0020   26.5200 C   0  0  0  0  0  0  0  0  0  0  0  0
    6.2050   -1.0300   25.6790 N   0  0  0  0  0  0  0  0  0  0  0  0
    6.0480   -0.8770   24.2180 C   0  0  0  0  0  0  0  0  0  0  0  0
    6.8130   -2.1550   26.4640 N   0  0  0  0  0  0  0  0  0  0  0  0
    6.7890   -1.9120   27.9580 C   0  0  0  0  0  0  0  0  0  0  0  0
    6.3760   -0.9580   28.8680 C   0  0  0  0  0  0  0  0  0  0  0  0
    7.2320    0.0870   29.0980 O   0  0  0  0  0  0  0  0  0  0  0  0
    5.1480   -0.9090   29.6520 N   0  0  0  0  0  0  0  0  0  0  0  0
    5.4820   -0.6450   31.0090 C   0  0  0  0  0  0  0  0  0  0  0  0
    4.9970    0.6820   31.4940 C   0  0  0  0  0  0  0  0  0  0  0  0
    4.2300    1.4350   30.6370 O   0  0  0  0  0  0  0  0  0  0  0  0
    4.2010    1.0910   29.2460 C   0  0  0  0  0  0  0  0  0  0  0  0
    4.0170   -0.3840   29.0730 C   0  0  0  0  0  0  0  0  0  0  0  0
    5.9410   -5.0680   23.8090 C   0  0  0  0  0  0  0  0  0  0  0  0
    6.5940   -5.4630   22.4790 C   0  0  0  0  0  0  0  0  0  0  0  0
  1  2  1  0
  2  3  2  0
  2  4  1  0
  4  5  1  0
  5  6  1  0
  6  7  1  0
  7  8  1  0
  8  9  2  0
  8 10  1  0
 10 11  1  0
 11 12  2  0
 12 13  1  0
 13 14  1  0
 13 15  1  0
 11 16  1  0
 15 16  2  0
 16 17  1  0
 17 18  2  0
 17 19  1  0
 19 20  1  0
 20 21  1  0
 21 22  1  0
 22 23  1  0
 19 24  1  0
 23 24  1  0
  7 25  1  0
  4 26  1  0
 25 26  1  0
M  END
