piperidine-amides-28869-covalent
     RDKit          3D

 25 27  0  0  0  0  0  0  0  0999 V2000
    7.0820   -3.3840   19.3560 C   0  0  0  0  0  0  0  0  0  0  0  0
    6.4160   -4.2280   20.3410 C   0  0  0  0  0  0  0  0  0  0  0  0
    5.3880   -4.8350   19.9860 O   0  0  0  0  0  0  0  0  0  0  0  0
    6.9840   -4.3830   21.6400 N   0  0  0  0  0  0  0  0  0  0  0  0
    6.5710   -5.4920   22.4300 C   0  0  0  0  0  0  0  0  0  0  0  0
    5.5820   -4.9950   23.4450 C   0  0  0  0  0  0  0  0  0  0  0  0
    6.2120   -3.8780   24.2650 C   0  0  0  0  0  0  0  0  0  0  0  0
    5.1230   -3.2010   25.0640 C   0  0  0  0  0  0  0  0  0  0  0  0
    4.0960   -2.9630   24.4520 O   0  0  0  0  0  0  0  0  0  0  0  0
    5.3050   -2.8900   26.4050 N   0  0  0  0  0  0  0  0  0  0  0  0
    6.5020   -3.2190   26.9600 C   0  0  0  0  0  0  0  0  0  0  0  0
    6.2350   -4.2700   27.8430 C   0  0  1  0  0  0  0  0  0  0  0  0
    6.6740   -4.1990   29.0980 C   0  0  0  0  0  0  0  0  0  0  0  0
    6.4560   -2.8910   29.4850 O   0  0  0  0  0  0  0  0  0  0  0  0
    4.8170   -4.1900   28.1480 C   0  0  2  0  0  0  0  0  0  0  0  0
    3.9280   -5.3660   28.3890 C   0  0  0  0  0  0  0  0  0  0  0  0
    3.7850   -6.4700   27.3100 C   0  0  0  0  0  0  0  0  0  0  0  0
    2.8890   -7.6440   27.5300 C   0  0  0  0  0  0  0  0  0  0  0  0
    2.1300   -7.7170   28.8380 C   0  0  0  0  0  0  0  0  0  0  0  0
    1.0300   -9.0250   29.2460 Cl  0  0  0  0  0  0  0  0  0  0  0  0
    2.3560   -6.5630   29.8380 C   0  0  0  0  0  0  0  0  0  0  0  0
    3.1610   -5.4780   29.6780 C   0  0  0  0  0  0  0  0  0  0  0  0
    4.2520   -3.2510   27.3130 C   0  0  0  0  0  0  0  0  0  0  0  0
    6.9250   -2.8190   23.4720 C   0  0  0  0  0  0  0  0  0  0  0  0
    7.6970   -3.3280   22.2890 C   0  0  0  0  0  0  0  0  0  0  0  0
  1  2  1  0
  2  3  2  0
  2  4  1  0
  4  5  1  0
  5  6  1  0
  6  7  1  0
  7  8  1  0
  8  9  2  0
  8 10  1  0
 10 11  1  0
 11 12  1  0
 12 13  1  1
 13 14  1  0
 12 15  1  0
 15 16  1  6
 16 17  2  0
 17 18  1  0
 18 19  2  0
 19 20  1  0
 19 21  1  0
 16 22  1  0
 21 22  2  0
 10 23  1  0
 15 23  1  0
  7 24  1  0
  4 25  1  0
 24 25  1  0
M  END
