piperidine-amides-13020-covalent
     RDKit          3D

 23 24  0  0  0  0  0  0  0  0999 V2000
    7.1290   -3.2850   19.1730 C   0  0  0  0  0  0  0  0  0  0  0  0
    6.3970   -4.0380   20.2140 C   0  0  0  0  0  0  0  0  0  0  0  0
    5.2960   -4.5170   19.8780 O   0  0  0  0  0  0  0  0  0  0  0  0
    6.9520   -4.2570   21.4830 N   0  0  0  0  0  0  0  0  0  0  0  0
    7.7200   -3.2310   22.1260 C   0  0  0  0  0  0  0  0  0  0  0  0
    7.2630   -2.9610   23.4760 C   0  0  0  0  0  0  0  0  0  0  0  0
    6.0090   -3.6690   23.7670 C   0  0  0  0  0  0  0  0  0  0  0  0
    5.5030   -3.3300   25.0940 C   0  0  0  0  0  0  0  0  0  0  0  0
    4.3040   -3.0070   25.1870 O   0  0  0  0  0  0  0  0  0  0  0  0
    6.2990   -3.3580   26.2350 N   0  0  0  0  0  0  0  0  0  0  0  0
    5.6260   -3.1020   27.4980 C   0  0  1  0  0  0  0  0  0  0  0  0
    6.4470   -3.4150   28.6730 C   0  0  0  0  0  0  0  0  0  0  0  0
    6.9780   -4.5440   28.8320 O   0  0  0  0  0  0  0  0  0  0  0  0
    6.6190   -2.4800   29.6620 O   0  0  0  0  0  0  0  0  0  0  0  0
    7.4460   -1.3560   29.4460 C   0  0  0  0  0  0  0  0  0  0  0  0
    5.3690   -1.6800   27.4380 C   0  0  0  0  0  0  0  0  0  0  0  0
    4.3850   -1.0910   28.2230 C   0  0  0  0  0  0  0  0  0  0  0  0
    4.1710    0.2570   28.1380 C   0  0  0  0  0  0  0  0  0  0  0  0
    4.9080    1.0320   27.2970 C   0  0  0  0  0  0  0  0  0  0  0  0
    5.8840    0.5100   26.5080 C   0  0  0  0  0  0  0  0  0  0  0  0
    6.0930   -0.8600   26.6020 C   0  0  0  0  0  0  0  0  0  0  0  0
    6.0340   -5.1350   23.5580 C   0  0  0  0  0  0  0  0  0  0  0  0
    6.6950   -5.4760   22.2460 C   0  0  0  0  0  0  0  0  0  0  0  0
  1  2  1  0
  2  3  2  0
  2  4  1  0
  4  5  1  0
  5  6  1  0
  6  7  1  0
  7  8  1  0
  8  9  2  0
  8 10  1  0
 11 10  1  6
 11 12  1  0
 12 13  2  0
 12 14  1  0
 14 15  1  0
 11 16  1  0
 16 17  2  0
 17 18  1  0
 18 19  2  0
 19 20  1  0
 16 21  1  0
 20 21  2  0
  7 22  1  0
  4 23  1  0
 22 23  1  0
M  END
