piperidine-amides-5030-covalent
     RDKit          3D

 22 23  0  0  0  0  0  0  0  0999 V2000
    7.1330   -3.2940   19.2700 C   0  0  0  0  0  0  0  0  0  0  0  0
    6.3820   -4.0510   20.2950 C   0  0  0  0  0  0  0  0  0  0  0  0
    5.3230   -4.5920   19.9100 O   0  0  0  0  0  0  0  0  0  0  0  0
    6.8690   -4.1900   21.6100 N   0  0  0  0  0  0  0  0  0  0  0  0
    7.6850   -3.1740   22.2080 C   0  0  0  0  0  0  0  0  0  0  0  0
    7.2940   -2.8930   23.5800 C   0  0  0  0  0  0  0  0  0  0  0  0
    6.0580   -3.6100   23.9480 C   0  0  0  0  0  0  0  0  0  0  0  0
    5.6030   -3.2480   25.3160 C   0  0  0  0  0  0  0  0  0  0  0  0
    4.3850   -3.0510   25.4760 O   0  0  0  0  0  0  0  0  0  0  0  0
    6.4730   -3.1190   26.4110 N   0  0  0  0  0  0  0  0  0  0  0  0
    6.2000   -3.7500   27.7280 C   0  0  0  0  0  0  0  0  0  0  0  0
    5.8300   -5.1990   27.6220 C   0  0  0  0  0  0  0  0  0  0  0  0
    5.8410   -5.9570   28.8130 N   0  0  0  0  0  0  0  0  0  0  0  0
    4.5660   -6.2350   29.4230 C   0  0  0  0  0  0  0  0  0  0  0  0
    4.3280   -7.4860   29.8150 C   0  0  0  0  0  0  0  0  0  0  0  0
    3.1370   -7.7820   30.3890 C   0  0  0  0  0  0  0  0  0  0  0  0
    2.2390   -6.7500   30.5270 C   0  0  0  0  0  0  0  0  0  0  0  0
    2.4950   -5.4400   30.1120 C   0  0  0  0  0  0  0  0  0  0  0  0
    1.5460   -4.4130   30.2730 F   0  0  0  0  0  0  0  0  0  0  0  0
    3.7190   -5.2180   29.5440 N   0  0  0  0  0  0  0  0  0  0  0  0
    6.0670   -5.0700   23.6550 C   0  0  0  0  0  0  0  0  0  0  0  0
    6.5770   -5.3790   22.3780 C   0  0  0  0  0  0  0  0  0  0  0  0
  1  2  1  0
  2  3  2  0
  2  4  1  0
  4  5  1  0
  5  6  1  0
  6  7  1  0
  7  8  1  0
  8  9  2  0
  8 10  1  0
 10 11  1  0
 11 12  1  0
 12 13  1  0
 13 14  1  0
 14 15  2  0
 15 16  1  0
 16 17  2  0
 17 18  1  0
 18 19  1  0
 14 20  1  0
 18 20  2  0
  7 21  1  0
  4 22  1  0
 21 22  1  0
M  END
