piperidine-amides-19162-covalent
     RDKit          3D

 21 22  0  0  0  0  0  0  0  0999 V2000
    7.0270   -3.3970   19.2820 C   0  0  0  0  0  0  0  0  0  0  0  0
    6.3580   -4.1530   20.3130 C   0  0  0  0  0  0  0  0  0  0  0  0
    5.3530   -4.8490   19.9780 O   0  0  0  0  0  0  0  0  0  0  0  0
    6.8090   -4.1740   21.6400 N   0  0  0  0  0  0  0  0  0  0  0  0
    6.7260   -5.4690   22.3490 C   0  0  0  0  0  0  0  0  0  0  0  0
    5.8170   -5.0260   23.5450 C   0  0  0  0  0  0  0  0  0  0  0  0
    6.6790   -4.0800   24.3460 C   0  0  0  0  0  0  0  0  0  0  0  0
    5.7210   -3.1510   25.2190 C   0  0  0  0  0  0  0  0  0  0  0  0
    4.8720   -2.6390   24.5090 O   0  0  0  0  0  0  0  0  0  0  0  0
    6.0410   -3.1640   26.4580 N   0  0  0  0  0  0  0  0  0  0  0  0
    5.8800   -3.0300   27.8050 C   0  0  0  0  0  0  0  0  0  0  0  0
    5.7120   -3.8880   28.8490 C   0  0  0  0  0  0  0  0  0  0  0  0
    6.4420   -5.0560   28.5940 C   0  0  0  0  0  0  0  0  0  0  0  0
    7.0540   -5.0060   27.2490 C   0  0  2  0  0  0  0  0  0  0  0  0
    8.2840   -5.5390   27.8900 C   0  0  0  0  0  0  0  0  0  0  0  0
    8.9230   -5.8440   26.6770 C   0  0  0  0  0  0  0  0  0  0  0  0
    8.8810   -4.5820   28.6720 F   0  0  0  0  0  0  0  0  0  0  0  0
    7.8950   -6.6300   28.6190 F   0  0  0  0  0  0  0  0  0  0  0  0
    7.3680   -3.6460   26.7260 C   0  0  0  0  0  0  0  0  0  0  0  0
    7.8510   -3.5400   23.7040 C   0  0  0  0  0  0  0  0  0  0  0  0
    7.3690   -3.0560   22.3010 C   0  0  0  0  0  0  0  0  0  0  0  0
  1  2  1  0
  2  3  2  0
  2  4  1  0
  4  5  1  0
  5  6  1  0
  6  7  1  0
  7  8  1  0
  8  9  2  0
  8 10  1  0
 10 11  1  0
 11 12  1  0
 12 13  1  0
 13 14  1  0
 14 15  1  1
 15 16  1  0
 15 17  1  0
 15 18  1  0
 10 19  1  0
 14 19  1  0
  7 20  1  0
  4 21  1  0
 20 21  1  0
M  END
