piperidine-amides-29294-covalent
     RDKit          3D

 26 27  0  0  0  0  0  0  0  0999 V2000
    7.1190   -3.2850   19.2430 C   0  0  0  0  0  0  0  0  0  0  0  0
    6.3920   -4.0700   20.2390 C   0  0  0  0  0  0  0  0  0  0  0  0
    5.3100   -4.5810   19.9030 O   0  0  0  0  0  0  0  0  0  0  0  0
    6.9520   -4.2820   21.5260 N   0  0  0  0  0  0  0  0  0  0  0  0
    7.6060   -3.1840   22.1730 C   0  0  0  0  0  0  0  0  0  0  0  0
    6.7370   -2.6980   23.2950 C   0  0  0  0  0  0  0  0  0  0  0  0
    6.5100   -3.8710   24.2310 C   0  0  0  0  0  0  0  0  0  0  0  0
    5.6930   -3.4270   25.4120 C   0  0  0  0  0  0  0  0  0  0  0  0
    4.4740   -3.4430   25.2510 O   0  0  0  0  0  0  0  0  0  0  0  0
    6.3300   -3.0130   26.5810 N   0  0  0  0  0  0  0  0  0  0  0  0
    6.1440   -3.7330   27.8110 C   0  0  0  0  0  0  0  0  0  0  0  0
    6.1020   -5.1400   27.7770 C   0  0  0  0  0  0  0  0  0  0  0  0
    6.6570   -5.8650   28.6290 O   0  0  0  0  0  0  0  0  0  0  0  0
    5.4130   -5.7800   26.7850 O   0  0  0  0  0  0  0  0  0  0  0  0
    4.5510   -6.8400   26.8520 C   0  0  0  0  0  0  0  0  0  0  0  0
    6.5960   -1.5840   26.5760 C   0  0  0  0  0  0  0  0  0  0  0  0
    6.1530   -0.8680   27.8110 C   0  0  0  0  0  0  0  0  0  0  0  0
    4.8310   -0.0730   27.7590 C   0  0  0  0  0  0  0  0  0  0  0  0
    4.3220    0.6680   28.9470 C   0  0  0  0  0  0  0  0  0  0  0  0
    5.1520    0.6130   30.2100 C   0  0  0  0  0  0  0  0  0  0  0  0
    4.7340    1.2810   31.3420 F   0  0  0  0  0  0  0  0  0  0  0  0
    6.4620   -0.2090   30.1690 C   0  0  0  0  0  0  0  0  0  0  0  0
    7.1160   -0.1630   31.4040 F   0  0  0  0  0  0  0  0  0  0  0  0
    6.9510   -0.8990   29.0920 C   0  0  0  0  0  0  0  0  0  0  0  0
    5.7170   -4.9100   23.4880 C   0  0  0  0  0  0  0  0  0  0  0  0
    6.4390   -5.4010   22.2640 C   0  0  0  0  0  0  0  0  0  0  0  0
  1  2  1  0
  2  3  2  0
  2  4  1  0
  4  5  1  0
  5  6  1  0
  6  7  1  0
  7  8  1  0
  8  9  2  0
  8 10  1  0
 10 11  1  0
 11 12  1  0
 12 13  2  0
 12 14  1  0
 14 15  1  0
 10 16  1  0
 16 17  1  0
 17 18  2  0
 18 19  1  0
 19 20  2  0
 20 21  1  0
 20 22  1  0
 22 23  1  0
 17 24  1  0
 22 24  2  0
  7 25  1  0
  4 26  1  0
 25 26  1  0
M  END
