piperidine-amides-5367-covalent
     RDKit          3D

 20 20  0  0  0  0  0  0  0  0999 V2000
    7.1580   -3.2710   19.1730 C   0  0  0  0  0  0  0  0  0  0  0  0
    6.3190   -3.9550   20.1540 C   0  0  0  0  0  0  0  0  0  0  0  0
    5.2190   -4.4130   19.8170 O   0  0  0  0  0  0  0  0  0  0  0  0
    6.7640   -4.1600   21.4570 N   0  0  0  0  0  0  0  0  0  0  0  0
    7.6800   -3.2360   22.1040 C   0  0  0  0  0  0  0  0  0  0  0  0
    6.9340   -2.6540   23.2660 C   0  0  0  0  0  0  0  0  0  0  0  0
    6.4300   -3.7560   24.1320 C   0  0  0  0  0  0  0  0  0  0  0  0
    5.8210   -3.2470   25.3760 C   0  0  0  0  0  0  0  0  0  0  0  0
    4.5680   -3.0660   25.4610 O   0  0  0  0  0  0  0  0  0  0  0  0
    6.6120   -2.9280   26.5010 N   0  0  0  0  0  0  0  0  0  0  0  0
    6.2360   -3.3440   27.8700 C   0  0  0  0  0  0  0  0  0  0  0  0
    6.7180   -4.7130   28.1470 C   0  0  0  0  0  0  0  0  0  0  0  0
    7.6450   -5.0270   28.9190 O   0  0  0  0  0  0  0  0  0  0  0  0
    6.0300   -5.6370   27.4610 N   0  0  0  0  0  0  0  0  0  0  0  0
    4.9030   -6.4050   28.2390 S   0  0  0  0  0  0  0  0  0  0  0  0
    3.9120   -7.2010   26.9980 C   0  0  0  0  0  0  0  0  0  0  0  0
    5.5460   -7.5280   29.4280 C   0  0  0  0  0  0  0  0  0  0  0  0
    4.0170   -5.3860   28.9260 O   0  0  0  0  0  0  0  0  0  0  0  0
    5.6660   -4.8220   23.4420 C   0  0  0  0  0  0  0  0  0  0  0  0
    6.3440   -5.2970   22.2180 C   0  0  0  0  0  0  0  0  0  0  0  0
  1  2  1  0
  2  3  2  0
  2  4  1  0
  4  5  1  0
  5  6  1  0
  6  7  1  0
  7  8  1  0
  8  9  2  0
  8 10  1  0
 10 11  1  0
 11 12  1  0
 12 13  2  0
 12 14  1  0
 14 15  2  0
 15 16  1  0
 15 17  1  0
 15 18  2  0
  7 19  1  0
  4 20  1  0
 19 20  1  0
M  END
