piperidine-amides-5131-covalent
     RDKit          3D

 22 23  0  0  0  0  0  0  0  0999 V2000
    7.0630   -3.2810   19.2420 C   0  0  0  0  0  0  0  0  0  0  0  0
    6.3300   -4.0400   20.2850 C   0  0  0  0  0  0  0  0  0  0  0  0
    5.2810   -4.5920   19.9030 O   0  0  0  0  0  0  0  0  0  0  0  0
    6.8020   -4.1800   21.6080 N   0  0  0  0  0  0  0  0  0  0  0  0
    7.6290   -3.1760   22.1960 C   0  0  0  0  0  0  0  0  0  0  0  0
    7.2780   -2.9320   23.5870 C   0  0  0  0  0  0  0  0  0  0  0  0
    6.0230   -3.6170   23.9600 C   0  0  0  0  0  0  0  0  0  0  0  0
    5.5690   -3.2890   25.3440 C   0  0  0  0  0  0  0  0  0  0  0  0
    4.3760   -2.9690   25.4920 O   0  0  0  0  0  0  0  0  0  0  0  0
    6.4300   -3.3180   26.4570 N   0  0  0  0  0  0  0  0  0  0  0  0
    6.1640   -4.1010   27.7010 C   0  0  0  0  0  0  0  0  0  0  0  0
    5.8390   -5.5530   27.4660 C   0  0  2  0  0  0  0  0  0  0  0  0
    5.3590   -5.9430   26.3660 O   0  0  0  0  0  0  0  0  0  0  0  0
    5.0550   -6.2140   28.4990 C   0  0  0  0  0  0  0  0  0  0  0  0
    5.6060   -6.5830   29.6990 C   0  0  0  0  0  0  0  0  0  0  0  0
    4.9450   -7.2010   30.7310 C   0  0  0  0  0  0  0  0  0  0  0  0
    3.6260   -7.4690   30.5410 C   0  0  0  0  0  0  0  0  0  0  0  0
    2.6930   -8.2560   31.8290 Cl  0  0  0  0  0  0  0  0  0  0  0  0
    3.0400   -7.1240   29.3560 C   0  0  0  0  0  0  0  0  0  0  0  0
    3.7150   -6.5050   28.3280 C   0  0  0  0  0  0  0  0  0  0  0  0
    6.1110   -5.1070   23.7240 C   0  0  0  0  0  0  0  0  0  0  0  0
    6.6310   -5.4160   22.3540 C   0  0  0  0  0  0  0  0  0  0  0  0
  1  2  1  0
  2  3  2  0
  2  4  1  0
  4  5  1  0
  5  6  1  0
  6  7  1  0
  7  8  1  0
  8  9  2  0
  8 10  1  0
 10 11  1  0
 11 12  1  0
 12 13  1  6
 12 14  1  0
 14 15  2  0
 15 16  1  0
 16 17  2  0
 17 18  1  0
 17 19  1  0
 14 20  1  0
 19 20  2  0
  7 21  1  0
  4 22  1  0
 21 22  1  0
M  END
