piperidine-amides-112-covalent
     RDKit          3D

 22 24  0  0  0  0  0  0  0  0999 V2000
    7.1960   -3.3120   19.3670 C   0  0  0  0  0  0  0  0  0  0  0  0
    6.4700   -4.1210   20.3140 C   0  0  0  0  0  0  0  0  0  0  0  0
    5.3820   -4.6720   19.9420 O   0  0  0  0  0  0  0  0  0  0  0  0
    6.9740   -4.3480   21.6110 N   0  0  0  0  0  0  0  0  0  0  0  0
    6.4880   -5.5090   22.3750 C   0  0  0  0  0  0  0  0  0  0  0  0
    5.4990   -4.7580   23.3450 C   0  0  0  0  0  0  0  0  0  0  0  0
    6.3450   -3.7590   24.1080 C   0  0  0  0  0  0  0  0  0  0  0  0
    5.4890   -2.9690   25.1810 C   0  0  0  0  0  0  0  0  0  0  0  0
    4.7880   -2.1370   24.6360 O   0  0  0  0  0  0  0  0  0  0  0  0
    5.7350   -3.4100   26.3400 N   0  0  0  0  0  0  0  0  0  0  0  0
    5.8700   -3.8590   27.6060 C   0  0  0  0  0  0  0  0  0  0  0  0
    5.2360   -3.9550   28.7960 C   0  0  0  0  0  0  0  0  0  0  0  0
    5.4540   -5.2200   29.3890 C   0  0  2  0  0  0  0  0  0  0  0  0
    5.3770   -6.3730   28.4680 C   0  0  0  0  0  0  0  0  0  0  0  0
    5.4420   -7.3630   29.6510 C   0  0  0  0  0  0  0  0  0  0  0  0
    4.4120   -6.7130   30.3500 C   0  0  0  0  0  0  0  0  0  0  0  0
    4.5090   -5.4770   30.3740 O   0  0  0  0  0  0  0  0  0  0  0  0
    4.7730   -2.8990   29.5100 C   0  0  0  0  0  0  0  0  0  0  0  0
    3.3500   -3.1610   29.4390 C   0  0  0  0  0  0  0  0  0  0  0  0
    3.7100   -4.3620   28.5500 C   0  0  0  0  0  0  0  0  0  0  0  0
    7.0220   -2.7410   23.1790 C   0  0  0  0  0  0  0  0  0  0  0  0
    7.8210   -3.3860   22.2900 C   0  0  0  0  0  0  0  0  0  0  0  0
  1  2  1  0
  2  3  2  0
  2  4  1  0
  4  5  1  0
  5  6  1  0
  6  7  1  0
  7  8  1  0
  8  9  2  0
  8 10  1  0
 10 11  1  0
 12 11  1  0
 13 12  1  6
 13 14  1  0
 14 15  1  0
 15 16  1  0
 13 17  1  0
 16 17  1  0
 12 18  1  0
 18 19  1  0
 12 20  1  0
 19 20  1  0
  7 21  1  0
  4 22  1  0
 21 22  1  0
M  END
