piperidine-amides-4666-covalent
     RDKit          3D

 24 26  0  0  0  0  0  0  0  0999 V2000
    7.1290   -3.2040   19.1160 C   0  0  0  0  0  0  0  0  0  0  0  0
    6.3130   -3.8990   20.1380 C   0  0  0  0  0  0  0  0  0  0  0  0
    5.2190   -4.3620   19.7820 O   0  0  0  0  0  0  0  0  0  0  0  0
    6.7690   -4.0700   21.4410 N   0  0  0  0  0  0  0  0  0  0  0  0
    6.1130   -5.0380   22.2450 C   0  0  0  0  0  0  0  0  0  0  0  0
    5.4620   -4.4620   23.4270 C   0  0  0  0  0  0  0  0  0  0  0  0
    6.3020   -3.4770   24.1400 C   0  0  0  0  0  0  0  0  0  0  0  0
    5.6130   -2.9000   25.3290 C   0  0  0  0  0  0  0  0  0  0  0  0
    4.4590   -2.4520   25.1840 O   0  0  0  0  0  0  0  0  0  0  0  0
    6.2300   -2.8710   26.6050 N   0  0  0  0  0  0  0  0  0  0  0  0
    6.6660   -4.1420   27.2160 C   0  0  0  0  0  0  0  0  0  0  0  0
    6.8330   -5.1050   26.1120 C   0  0  0  0  0  0  0  0  0  0  0  0
    5.8190   -6.0550   25.7660 N   0  0  0  0  0  0  0  0  0  0  0  0
    6.3170   -6.7950   24.6700 C   0  0  0  0  0  0  0  0  0  0  0  0
    7.5380   -6.2970   24.4090 C   0  0  0  0  0  0  0  0  0  0  0  0
    7.8910   -5.2690   25.2520 N   0  0  0  0  0  0  0  0  0  0  0  0
    9.0390   -4.5450   25.2440 C   0  0  0  0  0  0  0  0  0  0  0  0
    9.1730   -3.3530   24.5570 C   0  0  0  0  0  0  0  0  0  0  0  0
   10.3380   -2.6210   24.5420 C   0  0  0  0  0  0  0  0  0  0  0  0
   11.4400   -3.0370   25.2140 C   0  0  0  0  0  0  0  0  0  0  0  0
   11.3400   -4.2140   25.9100 C   0  0  0  0  0  0  0  0  0  0  0  0
   10.1110   -5.0010   25.9370 C   0  0  0  0  0  0  0  0  0  0  0  0
    6.7890   -2.4090   23.2220 C   0  0  0  0  0  0  0  0  0  0  0  0
    7.5570   -3.0370   22.0840 C   0  0  0  0  0  0  0  0  0  0  0  0
  1  2  1  0
  2  3  2  0
  2  4  1  0
  4  5  1  0
  5  6  1  0
  6  7  1  0
  7  8  1  0
  8  9  2  0
  8 10  1  0
 10 11  1  0
 11 12  1  0
 12 13  2  0
 13 14  1  0
 14 15  2  0
 12 16  1  0
 15 16  1  0
 16 17  1  0
 17 18  2  0
 18 19  1  0
 19 20  2  0
 20 21  1  0
 17 22  1  0
 21 22  2  0
  7 23  1  0
  4 24  1  0
 23 24  1  0
M  END
