piperidine-amides-225-covalent
     RDKit          3D

 20 21  0  0  0  0  0  0  0  0999 V2000
    7.2220   -3.2250   19.2160 C   0  0  0  0  0  0  0  0  0  0  0  0
    6.3940   -3.9140   20.1780 C   0  0  0  0  0  0  0  0  0  0  0  0
    5.2850   -4.4170   19.8220 O   0  0  0  0  0  0  0  0  0  0  0  0
    6.8150   -4.0760   21.4990 N   0  0  0  0  0  0  0  0  0  0  0  0
    7.6960   -3.0400   22.0740 C   0  0  0  0  0  0  0  0  0  0  0  0
    7.2720   -3.1380   23.5790 C   0  0  0  0  0  0  0  0  0  0  0  0
    5.8080   -3.5160   23.5390 C   0  0  0  0  0  0  0  0  0  0  0  0
    5.0840   -3.1420   24.8890 C   0  0  0  0  0  0  0  0  0  0  0  0
    4.3520   -2.1690   24.8280 O   0  0  0  0  0  0  0  0  0  0  0  0
    5.5200   -4.0250   25.6400 N   0  0  0  0  0  0  0  0  0  0  0  0
    6.1200   -5.0010   26.3120 C   0  0  0  0  0  0  0  0  0  0  0  0
    7.3330   -5.3490   26.6960 C   0  0  0  0  0  0  0  0  0  0  0  0
    7.9790   -4.3480   27.3870 C   0  0  0  0  0  0  0  0  0  0  0  0
    8.5760   -4.6560   28.6300 C   0  0  0  0  0  0  0  0  0  0  0  0
    7.9430   -3.0540   26.7450 C   0  0  0  0  0  0  0  0  0  0  0  0
    7.2480   -3.1980   28.0120 C   0  0  2  0  0  0  0  0  0  0  0  0
    7.9120   -2.3050   28.8360 F   0  0  0  0  0  0  0  0  0  0  0  0
    5.4950   -2.9320   28.0290 Cl  0  0  0  0  0  0  0  0  0  0  0  0
    5.5670   -4.9800   23.2080 C   0  0  0  0  0  0  0  0  0  0  0  0
    6.6120   -5.3430   22.1680 C   0  0  0  0  0  0  0  0  0  0  0  0
  1  2  1  0
  2  3  2  0
  2  4  1  0
  4  5  1  0
  5  6  1  0
  6  7  1  0
  7  8  1  0
  8  9  2  0
  8 10  1  0
 10 11  1  0
 11 12  1  0
 12 13  1  0
 13 14  1  0
 13 15  1  0
 13 16  1  0
 15 16  1  0
 16 17  1  1
 16 18  1  0
  7 19  1  0
  4 20  1  0
 19 20  1  0
M  END
