piperidine-amides-1158-covalent
     RDKit          3D

 23 24  0  0  0  0  0  0  0  0999 V2000
    7.0000   -3.3540   19.3770 C   0  0  0  0  0  0  0  0  0  0  0  0
    6.3190   -4.2340   20.3720 C   0  0  0  0  0  0  0  0  0  0  0  0
    5.3620   -4.9250   19.9920 O   0  0  0  0  0  0  0  0  0  0  0  0
    6.7900   -4.2990   21.7060 N   0  0  0  0  0  0  0  0  0  0  0  0
    7.6710   -3.2840   22.2350 C   0  0  0  0  0  0  0  0  0  0  0  0
    7.2530   -2.9890   23.6710 C   0  0  0  0  0  0  0  0  0  0  0  0
    6.0210   -3.7680   23.9560 C   0  0  0  0  0  0  0  0  0  0  0  0
    5.3890   -3.5070   25.2890 C   0  0  0  0  0  0  0  0  0  0  0  0
    4.2100   -3.8540   25.3810 O   0  0  0  0  0  0  0  0  0  0  0  0
    6.0580   -2.8970   26.3690 N   0  0  0  0  0  0  0  0  0  0  0  0
    6.1890   -1.4920   26.5770 C   0  0  0  0  0  0  0  0  0  0  0  0
    6.8860   -0.8580   25.5970 C   0  0  0  0  0  0  0  0  0  0  0  0
    6.4020    0.4370   25.1470 N   0  0  0  0  0  0  0  0  0  0  0  0
    8.0390   -1.5990   25.1210 O   0  0  0  0  0  0  0  0  0  0  0  0
    7.0650   -1.3900   27.8510 C   0  0  0  0  0  0  0  0  0  0  0  0
    6.7010   -0.6220   28.9430 C   0  0  0  0  0  0  0  0  0  0  0  0
    5.8850    0.5860   28.7350 C   0  0  0  0  0  0  0  0  0  0  0  0
    6.6280    1.9170   28.5270 C   0  0  0  0  0  0  0  0  0  0  0  0
    4.9350    0.6730   29.7020 C   0  0  0  0  0  0  0  0  0  0  0  0
    5.0890    0.6190   27.4930 C   0  0  0  0  0  0  0  0  0  0  0  0
    4.9810   -0.6950   26.8110 C   0  0  0  0  0  0  0  0  0  0  0  0
    6.1530   -5.2450   23.7440 C   0  0  0  0  0  0  0  0  0  0  0  0
    6.6310   -5.5060   22.4760 C   0  0  0  0  0  0  0  0  0  0  0  0
  1  2  1  0
  2  3  2  0
  2  4  1  0
  4  5  1  0
  5  6  1  0
  6  7  1  0
  7  8  1  0
  8  9  2  0
  8 10  1  0
 10 11  1  0
 11 12  1  0
 12 13  1  0
 12 14  2  0
 11 15  1  0
 15 16  1  0
 16 17  1  0
 17 18  1  0
 17 19  1  0
 17 20  1  0
 11 21  1  0
 20 21  1  0
  7 22  1  0
  4 23  1  0
 22 23  1  0
M  END
