piperidine-amides-18972-covalent
     RDKit          3D

 22 23  0  0  0  0  0  0  0  0999 V2000
    7.1970   -3.3820   19.4430 C   0  0  0  0  0  0  0  0  0  0  0  0
    6.4630   -4.2030   20.3700 C   0  0  0  0  0  0  0  0  0  0  0  0
    5.3930   -4.7670   19.9720 O   0  0  0  0  0  0  0  0  0  0  0  0
    6.9550   -4.4290   21.6710 N   0  0  0  0  0  0  0  0  0  0  0  0
    7.9180   -3.4620   22.2350 C   0  0  0  0  0  0  0  0  0  0  0  0
    6.9400   -2.7150   23.1850 C   0  0  0  0  0  0  0  0  0  0  0  0
    6.5770   -3.7440   24.2290 C   0  0  0  0  0  0  0  0  0  0  0  0
    5.6890   -3.0210   25.3200 C   0  0  0  0  0  0  0  0  0  0  0  0
    4.7940   -2.3990   24.7720 O   0  0  0  0  0  0  0  0  0  0  0  0
    6.1190   -3.2540   26.4840 N   0  0  0  0  0  0  0  0  0  0  0  0
    6.4490   -3.9330   27.6170 C   0  0  0  0  0  0  0  0  0  0  0  0
    6.8770   -5.2140   27.8920 C   0  0  0  0  0  0  0  0  0  0  0  0
    5.7930   -6.0710   28.2050 C   0  0  0  0  0  0  0  0  0  0  0  0
    4.8810   -6.5300   27.3470 N   0  0  0  0  0  0  0  0  0  0  0  0
    6.2660   -1.9210   27.1760 C   0  0  0  0  0  0  0  0  0  0  0  0
    6.8940   -2.0010   28.5400 C   0  0  0  0  0  0  0  0  0  0  0  0
    6.9880   -0.6840   29.1370 C   0  0  0  0  0  0  0  0  0  0  0  0
    6.6510    0.7130   28.8150 C   0  0  0  0  0  0  0  0  0  0  0  0
    6.0400    0.5490   27.4060 C   0  0  0  0  0  0  0  0  0  0  0  0
    5.8320   -0.7110   26.5670 C   0  0  0  0  0  0  0  0  0  0  0  0
    5.8360   -4.9520   23.6030 C   0  0  0  0  0  0  0  0  0  0  0  0
    6.4890   -5.5020   22.5230 C   0  0  0  0  0  0  0  0  0  0  0  0
  1  2  1  0
  2  3  2  0
  2  4  1  0
  4  5  1  0
  5  6  1  0
  6  7  1  0
  7  8  1  0
  8  9  2  0
  8 10  1  0
 10 11  1  0
 11 12  1  0
 12 13  1  0
 13 14  3  0
 10 15  1  0
 15 16  2  0
 16 17  1  0
 17 18  2  0
 18 19  1  0
 15 20  1  0
 19 20  2  0
  7 21  1  0
  4 22  1  0
 21 22  1  0
M  END
