piperidine-amides-35158-covalent
     RDKit          3D

 33 36  0  0  0  0  0  0  0  0999 V2000
    7.0100   -3.3650   19.3890 C   0  0  0  0  0  0  0  0  0  0  0  0
    6.3910   -4.2530   20.4080 C   0  0  0  0  0  0  0  0  0  0  0  0
    5.4370   -4.9330   20.0130 O   0  0  0  0  0  0  0  0  0  0  0  0
    6.9030   -4.3300   21.7210 N   0  0  0  0  0  0  0  0  0  0  0  0
    6.7170   -5.5480   22.5000 C   0  0  0  0  0  0  0  0  0  0  0  0
    6.2190   -5.2570   23.9010 C   0  0  0  0  0  0  0  0  0  0  0  0
    6.1820   -3.7510   24.1140 C   0  0  0  0  0  0  0  0  0  0  0  0
    5.5380   -3.3920   25.4130 C   0  0  0  0  0  0  0  0  0  0  0  0
    4.3490   -3.0860   25.3070 O   0  0  0  0  0  0  0  0  0  0  0  0
    6.1130   -3.3370   26.7280 N   0  0  0  0  0  0  0  0  0  0  0  0
    5.8170   -2.1650   27.4520 C   0  0  0  0  0  0  0  0  0  0  0  0
    5.0880   -2.7810   28.5460 C   0  0  1  0  0  0  0  0  0  0  0  0
    3.7090   -2.6790   28.6940 C   0  0  0  0  0  0  0  0  0  0  0  0
    3.1450   -3.6940   29.4290 C   0  0  0  0  0  0  0  0  0  0  0  0
    1.7770   -3.6900   29.3010 C   0  0  0  0  0  0  0  0  0  0  0  0
    1.6770   -4.4840   28.2610 N   0  0  0  0  0  0  0  0  0  0  0  0
    0.7080   -5.5930   28.2610 C   0  0  0  0  0  0  0  0  0  0  0  0
   -0.4840   -5.3390   28.8950 O   0  0  0  0  0  0  0  0  0  0  0  0
    0.9130   -6.8350   27.6860 O   0  0  0  0  0  0  0  0  0  0  0  0
    2.2160   -7.3830   27.4980 C   0  0  0  0  0  0  0  0  0  0  0  0
    2.1040   -8.4890   26.4820 C   0  0  0  0  0  0  0  0  0  0  0  0
    3.2170   -6.5630   26.7190 C   0  0  0  0  0  0  0  0  0  0  0  0
    2.8430   -7.6260   28.7060 C   0  0  0  0  0  0  0  0  0  0  0  0
    1.9940   -3.7970   27.0840 C   0  0  0  0  0  0  0  0  0  0  0  0
    3.2960   -3.1220   27.2810 C   0  0  0  0  0  0  0  0  0  0  0  0
    5.5360   -4.0610   28.6350 C   0  0  0  0  0  0  0  0  0  0  0  0
    5.3140   -4.8540   29.7570 C   0  0  0  0  0  0  0  0  0  0  0  0
    5.7990   -6.2560   29.9260 C   0  0  0  0  0  0  0  0  0  0  0  0
    6.5740   -6.8480   28.8110 C   0  0  0  0  0  0  0  0  0  0  0  0
    6.1400   -5.4360   28.5180 C   0  0  0  0  0  0  0  0  0  0  0  0
    6.2880   -4.6320   27.4870 C   0  0  0  0  0  0  0  0  0  0  0  0
    7.4040   -3.0610   23.7390 C   0  0  0  0  0  0  0  0  0  0  0  0
    7.7160   -3.2850   22.3020 C   0  0  0  0  0  0  0  0  0  0  0  0
  1  2  1  0
  2  3  2  0
  2  4  1  0
  4  5  1  0
  5  6  1  0
  6  7  1  0
  7  8  1  0
  8  9  2  0
  8 10  1  0
 10 11  1  0
 11 12  1  0
 12 13  1  6
 13 14  1  0
 14 15  1  0
 15 16  1  0
 16 17  1  0
 17 18  2  0
 17 19  1  0
 20 19  1  0
 20 21  1  0
 20 22  1  0
 20 23  1  0
 16 24  1  0
 13 25  1  0
 24 25  1  0
 12 26  1  0
 26 27  1  0
 27 28  2  0
 28 29  1  0
 29 30  2  0
 10 31  1  0
 26 31  2  0
 30 31  1  0
  7 32  1  0
  4 33  1  0
 32 33  1  0
M  END
