piperidine-amides-10651-covalent
     RDKit          3D

 23 24  0  0  0  0  0  0  0  0999 V2000
    7.0530   -3.3440   19.3510 C   0  0  0  0  0  0  0  0  0  0  0  0
    6.3980   -4.1720   20.3650 C   0  0  0  0  0  0  0  0  0  0  0  0
    5.3930   -4.8320   19.9830 O   0  0  0  0  0  0  0  0  0  0  0  0
    6.9160   -4.2320   21.6660 N   0  0  0  0  0  0  0  0  0  0  0  0
    7.7580   -3.1840   22.2100 C   0  0  0  0  0  0  0  0  0  0  0  0
    7.3470   -2.9250   23.6310 C   0  0  0  0  0  0  0  0  0  0  0  0
    6.0070   -3.5230   23.9360 C   0  0  0  0  0  0  0  0  0  0  0  0
    5.6170   -3.1540   25.3160 C   0  0  0  0  0  0  0  0  0  0  0  0
    4.4040   -3.0940   25.5970 O   0  0  0  0  0  0  0  0  0  0  0  0
    6.5660   -2.8740   26.3090 N   0  0  0  0  0  0  0  0  0  0  0  0
    6.5220   -1.7020   27.1500 C   0  0  0  0  0  0  0  0  0  0  0  0
    5.9040   -0.4290   26.5940 C   0  0  0  0  0  0  0  0  0  0  0  0
    5.8290    0.7350   27.3430 C   0  0  0  0  0  0  0  0  0  0  0  0
    6.3150    0.8160   28.6490 C   0  0  0  0  0  0  0  0  0  0  0  0
    6.1960    1.9940   29.2940 N   0  0  0  0  0  0  0  0  0  0  0  0
    6.1390    2.0310   30.6220 C   0  0  0  0  0  0  0  0  0  0  0  0
    6.8540    1.2030   31.4610 O   0  0  0  0  0  0  0  0  0  0  0  0
    5.2410    3.0270   31.1080 N   0  0  0  0  0  0  0  0  0  0  0  0
    4.5540    2.5990   32.3060 C   0  0  0  0  0  0  0  0  0  0  0  0
    6.9450   -0.4370   29.2520 C   0  0  0  0  0  0  0  0  0  0  0  0
    7.0210   -1.6880   28.4410 C   0  0  0  0  0  0  0  0  0  0  0  0
    6.0310   -5.0080   23.7870 C   0  0  0  0  0  0  0  0  0  0  0  0
    6.5880   -5.4270   22.4420 C   0  0  0  0  0  0  0  0  0  0  0  0
  1  2  1  0
  2  3  2  0
  2  4  1  0
  4  5  1  0
  5  6  1  0
  6  7  1  0
  7  8  1  0
  8  9  2  0
  8 10  1  0
 10 11  1  0
 11 12  2  0
 12 13  1  0
 13 14  2  0
 14 15  1  0
 15 16  1  0
 16 17  2  0
 16 18  1  0
 18 19  1  0
 14 20  1  0
 11 21  1  0
 20 21  2  0
  7 22  1  0
  4 23  1  0
 22 23  1  0
M  END
