piperidine-amides-31276-covalent
     RDKit          3D

 27 29  0  0  0  0  0  0  0  0999 V2000
    7.0310   -3.4070   19.3930 C   0  0  0  0  0  0  0  0  0  0  0  0
    6.3870   -4.2250   20.3990 C   0  0  0  0  0  0  0  0  0  0  0  0
    5.3950   -4.9120   20.0050 O   0  0  0  0  0  0  0  0  0  0  0  0
    6.8150   -4.3490   21.7500 N   0  0  0  0  0  0  0  0  0  0  0  0
    7.7300   -3.3400   22.3300 C   0  0  0  0  0  0  0  0  0  0  0  0
    6.7730   -2.6790   23.3990 C   0  0  0  0  0  0  0  0  0  0  0  0
    6.4940   -3.7470   24.4390 C   0  0  0  0  0  0  0  0  0  0  0  0
    5.0900   -3.5020   25.1780 C   0  0  0  0  0  0  0  0  0  0  0  0
    4.2300   -3.5130   24.3200 O   0  0  0  0  0  0  0  0  0  0  0  0
    5.1100   -3.3410   26.4720 N   0  0  0  0  0  0  0  0  0  0  0  0
    4.5810   -3.1030   27.7030 C   0  0  0  0  0  0  0  0  0  0  0  0
    4.7500   -3.5130   28.9710 C   0  0  0  0  0  0  0  0  0  0  0  0
    5.6250   -4.5320   28.9450 O   0  0  0  0  0  0  0  0  0  0  0  0
    6.6760   -4.3220   28.1040 C   0  0  0  0  0  0  0  0  0  0  0  0
    6.4410   -3.1940   27.0820 C   0  0  2  0  0  0  0  0  0  0  0  0
    6.4900   -1.9900   28.0670 C   0  0  0  0  0  0  0  0  0  0  0  0
    5.4120   -1.1820   27.6630 C   0  0  0  0  0  0  0  0  0  0  0  0
    4.9160    0.0840   28.1740 C   0  0  0  0  0  0  0  0  0  0  0  0
    5.9640    0.2820   29.3330 C   0  0  0  0  0  0  0  0  0  0  0  0
    5.8380    1.5680   30.2160 C   0  0  0  0  0  0  0  0  0  0  0  0
    5.4770    1.2490   31.5290 F   0  0  0  0  0  0  0  0  0  0  0  0
    6.9660    2.3020   30.3310 F   0  0  0  0  0  0  0  0  0  0  0  0
    4.7900    2.3850   29.7570 F   0  0  0  0  0  0  0  0  0  0  0  0
    7.0990   -0.5970   29.7280 C   0  0  0  0  0  0  0  0  0  0  0  0
    7.3120   -1.7110   29.0600 C   0  0  0  0  0  0  0  0  0  0  0  0
    6.7170   -5.1660   23.9230 C   0  0  0  0  0  0  0  0  0  0  0  0
    6.2370   -5.3330   22.6310 C   0  0  0  0  0  0  0  0  0  0  0  0
  1  2  1  0
  2  3  2  0
  2  4  1  0
  4  5  1  0
  5  6  1  0
  6  7  1  0
  7  8  1  0
  8  9  2  0
  8 10  1  0
 10 11  1  0
 11 12  1  0
 12 13  1  0
 13 14  1  0
 10 15  1  0
 14 15  1  0
 15 16  1  1
 16 17  2  0
 17 18  1  0
 18 19  2  0
 19 20  1  0
 20 21  1  0
 20 22  1  0
 20 23  1  0
 19 24  1  0
 16 25  1  0
 24 25  2  0
  7 26  1  0
  4 27  1  0
 26 27  1  0
M  END
