piperidine-amides-7378-covalent
     RDKit          3D

 20 21  0  0  0  0  0  0  0  0999 V2000
    7.0970   -3.2740   19.2360 C   0  0  0  0  0  0  0  0  0  0  0  0
    6.3780   -4.0300   20.2690 C   0  0  0  0  0  0  0  0  0  0  0  0
    5.3140   -4.6000   19.9070 O   0  0  0  0  0  0  0  0  0  0  0  0
    6.8990   -4.1330   21.5670 N   0  0  0  0  0  0  0  0  0  0  0  0
    7.7610   -3.1170   22.1350 C   0  0  0  0  0  0  0  0  0  0  0  0
    7.3720   -2.9340   23.5710 C   0  0  0  0  0  0  0  0  0  0  0  0
    6.0300   -3.5500   23.8240 C   0  0  0  0  0  0  0  0  0  0  0  0
    5.5470   -3.2640   25.1850 C   0  0  0  0  0  0  0  0  0  0  0  0
    4.3540   -2.9210   25.3210 O   0  0  0  0  0  0  0  0  0  0  0  0
    6.3410   -3.3620   26.3300 N   0  0  0  0  0  0  0  0  0  0  0  0
    5.9550   -4.2430   27.3960 C   0  0  0  0  0  0  0  0  0  0  0  0
    6.4120   -3.7370   28.7440 C   0  0  0  0  0  0  0  0  0  0  0  0
    5.6850   -2.8510   29.4890 C   0  0  0  0  0  0  0  0  0  0  0  0
    4.4740   -3.0520   30.0380 C   0  0  0  0  0  0  0  0  0  0  0  0
    4.1050   -1.9250   30.7000 C   0  0  0  0  0  0  0  0  0  0  0  0
    2.9030   -1.8230   31.3750 C   0  0  0  0  0  0  0  0  0  0  0  0
    5.0970   -1.0090   30.5590 N   0  0  0  0  0  0  0  0  0  0  0  0
    6.0770   -1.5920   29.8040 N   0  0  0  0  0  0  0  0  0  0  0  0
    6.0520   -5.0660   23.6590 C   0  0  0  0  0  0  0  0  0  0  0  0
    6.6030   -5.3760   22.2880 C   0  0  0  0  0  0  0  0  0  0  0  0
  1  2  1  0
  2  3  2  0
  2  4  1  0
  4  5  1  0
  5  6  1  0
  6  7  1  0
  7  8  1  0
  8  9  2  0
  8 10  1  0
 10 11  1  0
 11 12  1  0
 12 13  1  0
 13 14  2  0
 14 15  1  0
 15 16  1  0
 15 17  2  0
 13 18  1  0
 17 18  1  0
  7 19  1  0
  4 20  1  0
 19 20  1  0
M  END
