piperidine-amides-8115-covalent
     RDKit          3D

 26 28  0  0  0  0  0  0  0  0999 V2000
    7.1070   -3.3620   19.3410 C   0  0  0  0  0  0  0  0  0  0  0  0
    6.3940   -4.1900   20.3030 C   0  0  0  0  0  0  0  0  0  0  0  0
    5.3260   -4.7170   19.9480 O   0  0  0  0  0  0  0  0  0  0  0  0
    6.9620   -4.4260   21.5790 N   0  0  0  0  0  0  0  0  0  0  0  0
    7.7030   -3.3700   22.2010 C   0  0  0  0  0  0  0  0  0  0  0  0
    6.8440   -2.7440   23.2440 C   0  0  0  0  0  0  0  0  0  0  0  0
    6.4970   -3.8430   24.2200 C   0  0  0  0  0  0  0  0  0  0  0  0
    5.8080   -3.2580   25.4060 C   0  0  0  0  0  0  0  0  0  0  0  0
    4.5960   -3.4450   25.4960 O   0  0  0  0  0  0  0  0  0  0  0  0
    6.5930   -2.5400   26.2980 N   0  0  0  0  0  0  0  0  0  0  0  0
    6.0550   -1.6180   27.2360 C   0  0  0  0  0  0  0  0  0  0  0  0
    5.8380   -0.3030   26.7770 C   0  0  0  0  0  0  0  0  0  0  0  0
    5.5320    0.6840   27.7020 C   0  0  0  0  0  0  0  0  0  0  0  0
    6.3560    0.7470   28.8780 N   0  0  0  0  0  0  0  0  0  0  0  0
    5.7450    1.3660   29.9850 C   0  0  0  0  0  0  0  0  0  0  0  0
    6.5000    1.2110   31.2770 C   0  0  0  0  0  0  0  0  0  0  0  0
    5.8940    0.3160   32.3890 C   0  0  0  0  0  0  0  0  0  0  0  0
    6.6190    0.1350   33.6860 C   0  0  0  0  0  0  0  0  0  0  0  0
    7.9370    0.8390   33.8780 C   0  0  0  0  0  0  0  0  0  0  0  0
    8.6450    0.7070   35.0570 F   0  0  0  0  0  0  0  0  0  0  0  0
    8.4310    1.6980   32.6970 C   0  0  0  0  0  0  0  0  0  0  0  0
    7.8210    1.9060   31.4890 C   0  0  0  0  0  0  0  0  0  0  0  0
    6.8040   -0.4880   29.4010 C   0  0  0  0  0  0  0  0  0  0  0  0
    7.0730   -1.4560   28.3080 C   0  0  0  0  0  0  0  0  0  0  0  0
    5.6430   -4.9050   23.5110 C   0  0  0  0  0  0  0  0  0  0  0  0
    6.4860   -5.4930   22.4000 C   0  0  0  0  0  0  0  0  0  0  0  0
  1  2  1  0
  2  3  2  0
  2  4  1  0
  4  5  1  0
  5  6  1  0
  6  7  1  0
  7  8  1  0
  8  9  2  0
  8 10  1  0
 10 11  1  0
 11 12  1  0
 12 13  1  0
 13 14  1  0
 14 15  1  0
 15 16  1  0
 16 17  2  0
 17 18  1  0
 18 19  2  0
 19 20  1  0
 19 21  1  0
 16 22  1  0
 21 22  2  0
 14 23  1  0
 11 24  1  0
 23 24  1  0
  7 25  1  0
  4 26  1  0
 25 26  1  0
M  END
