piperidine-amides-11494-covalent
     RDKit          3D

 17 17  0  0  0  0  0  0  0  0999 V2000
    7.1140   -3.2730   19.2030 C   0  0  0  0  0  0  0  0  0  0  0  0
    6.3170   -3.9880   20.2060 C   0  0  0  0  0  0  0  0  0  0  0  0
    5.2470   -4.5140   19.8650 O   0  0  0  0  0  0  0  0  0  0  0  0
    6.7570   -4.1440   21.5240 N   0  0  0  0  0  0  0  0  0  0  0  0
    6.4720   -5.3430   22.2840 C   0  0  0  0  0  0  0  0  0  0  0  0
    5.6740   -4.8870   23.4840 C   0  0  0  0  0  0  0  0  0  0  0  0
    6.4060   -3.8210   24.2400 C   0  0  0  0  0  0  0  0  0  0  0  0
    5.6340   -3.3480   25.4250 C   0  0  0  0  0  0  0  0  0  0  0  0
    4.4690   -2.8810   25.2650 O   0  0  0  0  0  0  0  0  0  0  0  0
    6.1210   -3.3830   26.7560 N   0  0  0  0  0  0  0  0  0  0  0  0
    6.2790   -4.6680   27.4910 C   0  0  0  0  0  0  0  0  0  0  0  0
    5.0970   -4.9590   28.2960 C   0  0  0  0  0  0  0  0  0  0  0  0
    3.9760   -5.7170   27.7110 C   0  0  0  0  0  0  0  0  0  0  0  0
    2.8930   -6.3020   28.5810 C   0  0  0  0  0  0  0  0  0  0  0  0
    1.4030   -7.2880   27.8850 Br  0  0  0  0  0  0  0  0  0  0  0  0
    6.9430   -2.7050   23.4190 C   0  0  0  0  0  0  0  0  0  0  0  0
    7.5840   -3.1620   22.1710 C   0  0  0  0  0  0  0  0  0  0  0  0
  1  2  1  0
  2  3  2  0
  2  4  1  0
  4  5  1  0
  5  6  1  0
  6  7  1  0
  7  8  1  0
  8  9  2  0
  8 10  1  0
 10 11  1  0
 11 12  1  0
 12 13  1  0
 13 14  2  3
 14 15  1  0
  7 16  1  0
  4 17  1  0
 16 17  1  0
M  END
