piperidine-amides-31554-covalent
     RDKit          3D

 28 30  0  0  0  0  0  0  0  0999 V2000
    7.0460   -3.3970   19.2930 C   0  0  0  0  0  0  0  0  0  0  0  0
    6.3860   -4.1870   20.3010 C   0  0  0  0  0  0  0  0  0  0  0  0
    5.3280   -4.7990   19.9700 O   0  0  0  0  0  0  0  0  0  0  0  0
    6.9000   -4.3540   21.6000 N   0  0  0  0  0  0  0  0  0  0  0  0
    6.6010   -5.6370   22.2600 C   0  0  0  0  0  0  0  0  0  0  0  0
    5.5620   -5.1010   23.3010 C   0  0  0  0  0  0  0  0  0  0  0  0
    6.4080   -4.3210   24.2690 C   0  0  0  0  0  0  0  0  0  0  0  0
    5.5540   -3.3520   25.1890 C   0  0  0  0  0  0  0  0  0  0  0  0
    5.2290   -2.3460   24.5870 O   0  0  0  0  0  0  0  0  0  0  0  0
    5.4070   -3.8770   26.3350 N   0  0  0  0  0  0  0  0  0  0  0  0
    4.8640   -4.6250   27.3290 C   0  0  0  0  0  0  0  0  0  0  0  0
    4.6080   -4.4750   28.6520 C   0  0  0  0  0  0  0  0  0  0  0  0
    5.7160   -3.8780   29.2110 C   0  0  0  0  0  0  0  0  0  0  0  0
    5.5930   -2.4520   29.6240 C   0  0  0  0  0  0  0  0  0  0  0  0
    4.2230   -2.6080   30.3060 C   0  0  0  0  0  0  0  0  0  0  0  0
    4.2800   -1.2690   30.7470 C   0  0  0  0  0  0  0  0  0  0  0  0
    5.5480   -0.6670   30.8700 C   0  0  0  0  0  0  0  0  0  0  0  0
    5.1210   -0.3160   32.2710 C   0  0  0  0  0  0  0  0  0  0  0  0
    6.2050    0.4610   33.0710 C   0  0  0  0  0  0  0  0  0  0  0  0
    7.4090    0.7410   32.4380 C   0  0  0  0  0  0  0  0  0  0  0  0
    7.6440    0.3370   31.1180 C   0  0  0  0  0  0  0  0  0  0  0  0
    8.7420    0.6150   30.6070 O   0  0  0  0  0  0  0  0  0  0  0  0
    9.9330    0.5820   31.3790 C   0  0  0  0  0  0  0  0  0  0  0  0
    6.7730   -0.3560   30.2900 C   0  0  0  0  0  0  0  0  0  0  0  0
    6.7310   -3.9890   28.3390 C   0  0  0  0  0  0  0  0  0  0  0  0
    6.3580   -3.1340   27.1490 C   0  0  0  0  0  0  0  0  0  0  0  0
    7.6430   -3.5970   23.7430 C   0  0  0  0  0  0  0  0  0  0  0  0
    7.4570   -3.2100   22.2790 C   0  0  0  0  0  0  0  0  0  0  0  0
  1  2  1  0
  2  3  2  0
  2  4  1  0
  4  5  1  0
  5  6  1  0
  6  7  1  0
  7  8  1  0
  8  9  2  0
  8 10  1  0
 10 11  1  0
 11 12  1  0
 12 13  1  0
 13 14  1  0
 14 15  1  0
 15 16  1  0
 16 17  1  0
 17 18  2  0
 18 19  1  0
 19 20  2  0
 20 21  1  0
 21 22  1  0
 22 23  1  0
 17 24  1  0
 21 24  2  0
 13 25  1  0
 10 26  1  0
 25 26  1  0
  7 27  1  0
  4 28  1  0
 27 28  1  0
M  END
