piperidine-amides-24355-covalent
     RDKit          3D

 24 26  0  0  0  0  0  0  0  0999 V2000
    7.0930   -3.3820   19.4050 C   0  0  0  0  0  0  0  0  0  0  0  0
    6.4120   -4.2470   20.3680 C   0  0  0  0  0  0  0  0  0  0  0  0
    5.3940   -4.8820   20.0040 O   0  0  0  0  0  0  0  0  0  0  0  0
    6.9260   -4.4180   21.6710 N   0  0  0  0  0  0  0  0  0  0  0  0
    6.5990   -5.6410   22.3820 C   0  0  0  0  0  0  0  0  0  0  0  0
    6.1280   -5.2440   23.7960 C   0  0  0  0  0  0  0  0  0  0  0  0
    5.8530   -3.7660   23.7230 C   0  0  0  0  0  0  0  0  0  0  0  0
    5.0150   -3.2640   24.8430 C   0  0  0  0  0  0  0  0  0  0  0  0
    3.8630   -2.9060   24.5540 O   0  0  0  0  0  0  0  0  0  0  0  0
    5.4190   -3.1880   26.1770 N   0  0  0  0  0  0  0  0  0  0  0  0
    4.4330   -3.1440   27.2120 C   0  0  0  0  0  0  0  0  0  0  0  0
    4.4710   -4.4590   27.9400 C   0  0  0  0  0  0  0  0  0  0  0  0
    5.8490   -4.8440   28.0030 N   0  0  0  0  0  0  0  0  0  0  0  0
    6.3590   -5.7450   29.0000 C   0  0  0  0  0  0  0  0  0  0  0  0
    5.2650   -6.0420   29.7890 C   0  0  0  0  0  0  0  0  0  0  0  0
    5.3890   -6.8730   30.8240 C   0  0  0  0  0  0  0  0  0  0  0  0
    4.3630   -7.7360   30.5970 C   0  0  0  0  0  0  0  0  0  0  0  0
    3.0610   -7.2220   29.9670 C   0  0  0  0  0  0  0  0  0  0  0  0
    4.2200   -6.6320   29.1390 C   0  0  0  0  0  0  0  0  0  0  0  0
    6.5760   -3.5790   27.9670 C   0  0  0  0  0  0  0  0  0  0  0  0
    7.1090   -3.1480   29.0530 O   0  0  0  0  0  0  0  0  0  0  0  0
    6.5990   -2.7480   26.7670 C   0  0  0  0  0  0  0  0  0  0  0  0
    7.1520   -3.0570   23.5570 C   0  0  0  0  0  0  0  0  0  0  0  0
    7.6290   -3.3360   22.3120 C   0  0  0  0  0  0  0  0  0  0  0  0
  1  2  1  0
  2  3  2  0
  2  4  1  0
  4  5  1  0
  5  6  1  0
  6  7  1  0
  7  8  1  0
  8  9  2  0
  8 10  1  0
 10 11  1  0
 11 12  1  0
 12 13  1  0
 13 14  1  0
 14 15  1  0
 15 16  1  0
 16 17  1  0
 17 18  1  0
 15 19  1  0
 18 19  1  0
 13 20  1  0
 20 21  2  0
 10 22  1  0
 20 22  1  0
  7 23  1  0
  4 24  1  0
 23 24  1  0
M  END
