piperidine-amides-33500-covalent
     RDKit          3D

 29 30  0  0  0  0  0  0  0  0999 V2000
    7.2080   -3.2020   19.0980 C   0  0  0  0  0  0  0  0  0  0  0  0
    6.4360   -3.8810   20.1400 C   0  0  0  0  0  0  0  0  0  0  0  0
    5.3220   -4.3700   19.8290 O   0  0  0  0  0  0  0  0  0  0  0  0
    6.9840   -4.0250   21.4320 N   0  0  0  0  0  0  0  0  0  0  0  0
    6.5030   -5.0800   22.2160 C   0  0  0  0  0  0  0  0  0  0  0  0
    5.9110   -4.6320   23.4650 C   0  0  0  0  0  0  0  0  0  0  0  0
    6.6200   -3.5440   24.1590 C   0  0  0  0  0  0  0  0  0  0  0  0
    5.8280   -3.0740   25.3380 C   0  0  0  0  0  0  0  0  0  0  0  0
    4.6310   -2.7720   25.1800 O   0  0  0  0  0  0  0  0  0  0  0  0
    6.4000   -2.9500   26.6200 N   0  0  0  0  0  0  0  0  0  0  0  0
    6.6950   -1.7390   27.2820 C   0  0  0  0  0  0  0  0  0  0  0  0
    6.3230   -4.1140   27.4910 C   0  0  0  0  0  0  0  0  0  0  0  0
    5.0880   -4.2710   28.3460 C   0  0  0  0  0  0  0  0  0  0  0  0
    5.1030   -3.4320   29.4380 O   0  0  0  0  0  0  0  0  0  0  0  0
    4.1530   -5.2530   27.7980 N   0  0  0  0  0  0  0  0  0  0  0  0
    2.9430   -4.5900   27.4180 C   0  0  0  0  0  0  0  0  0  0  0  0
    2.3490   -5.6070   26.4390 C   0  0  0  0  0  0  0  0  0  0  0  0
    3.0190   -6.8580   26.5170 N   0  0  0  0  0  0  0  0  0  0  0  0
    3.0680   -7.7700   25.5050 C   0  0  0  0  0  0  0  0  0  0  0  0
    1.9640   -8.4940   25.0450 O   0  0  0  0  0  0  0  0  0  0  0  0
    4.1590   -8.0310   24.8820 O   0  0  0  0  0  0  0  0  0  0  0  0
    4.8370   -6.9740   24.3360 C   0  0  0  0  0  0  0  0  0  0  0  0
    5.1220   -5.9100   25.3650 C   0  0  0  0  0  0  0  0  0  0  0  0
    6.1500   -7.3920   23.6600 C   0  0  0  0  0  0  0  0  0  0  0  0
    3.8760   -6.4550   23.3500 C   0  0  0  0  0  0  0  0  0  0  0  0
    3.4340   -7.4140   27.8110 C   0  0  0  0  0  0  0  0  0  0  0  0
    3.9490   -6.3900   28.6090 C   0  0  0  0  0  0  0  0  0  0  0  0
    7.0590   -2.4390   23.2770 C   0  0  0  0  0  0  0  0  0  0  0  0
    7.7170   -2.9350   22.0180 C   0  0  0  0  0  0  0  0  0  0  0  0
  1  2  1  0
  2  3  2  0
  2  4  1  0
  4  5  1  0
  5  6  1  0
  6  7  1  0
  7  8  1  0
  8  9  2  0
  8 10  1  0
 10 11  1  0
 10 12  1  0
 12 13  1  0
 13 14  2  0
 13 15  1  0
 15 16  1  0
 16 17  1  0
 17 18  1  0
 18 19  1  0
 19 20  2  0
 19 21  1  0
 22 21  1  0
 22 23  1  0
 22 24  1  0
 22 25  1  0
 18 26  1  0
 15 27  1  0
 26 27  1  0
  7 28  1  0
  4 29  1  0
 28 29  1  0
M  END
