piperidine-amides-4983-covalent
     RDKit          3D

 23 25  0  0  0  0  0  0  0  0999 V2000
    7.0490   -3.3230   19.3420 C   0  0  0  0  0  0  0  0  0  0  0  0
    6.3650   -4.1650   20.3510 C   0  0  0  0  0  0  0  0  0  0  0  0
    5.3560   -4.7870   19.9630 O   0  0  0  0  0  0  0  0  0  0  0  0
    6.8590   -4.2860   21.6640 N   0  0  0  0  0  0  0  0  0  0  0  0
    7.6640   -3.2500   22.2160 C   0  0  0  0  0  0  0  0  0  0  0  0
    7.2960   -2.9540   23.5830 C   0  0  0  0  0  0  0  0  0  0  0  0
    6.0120   -3.5760   23.9550 C   0  0  0  0  0  0  0  0  0  0  0  0
    5.6280   -3.1860   25.3350 C   0  0  0  0  0  0  0  0  0  0  0  0
    4.4200   -3.1730   25.6280 O   0  0  0  0  0  0  0  0  0  0  0  0
    6.6050   -2.8450   26.2780 N   0  0  0  0  0  0  0  0  0  0  0  0
    6.5370   -1.6420   27.1420 C   0  0  0  0  0  0  0  0  0  0  0  0
    5.9160   -0.4210   26.5940 C   0  0  0  0  0  0  0  0  0  0  0  0
    5.8180    0.7880   27.4050 C   0  0  0  0  0  0  0  0  0  0  0  0
    6.3170    0.7760   28.7030 C   0  0  0  0  0  0  0  0  0  0  0  0
    6.2410    1.8950   29.5110 C   0  0  0  0  0  0  0  0  0  0  0  0
    6.3730    1.8430   30.9150 N   0  0  0  0  0  0  0  0  0  0  0  0
    6.2340    3.1030   31.2740 C   0  0  0  0  0  0  0  0  0  0  0  0
    6.0200    3.9930   30.1930 O   0  0  0  0  0  0  0  0  0  0  0  0
    6.0240    3.2470   29.0720 N   0  0  0  0  0  0  0  0  0  0  0  0
    6.8960   -0.3980   29.1710 C   0  0  0  0  0  0  0  0  0  0  0  0
    7.0110   -1.5510   28.4520 C   0  0  0  0  0  0  0  0  0  0  0  0
    6.0230   -5.0760   23.7600 C   0  0  0  0  0  0  0  0  0  0  0  0
    6.6730   -5.4790   22.4700 C   0  0  0  0  0  0  0  0  0  0  0  0
  1  2  1  0
  2  3  2  0
  2  4  1  0
  4  5  1  0
  5  6  1  0
  6  7  1  0
  7  8  1  0
  8  9  2  0
  8 10  1  0
 10 11  1  0
 11 12  2  0
 12 13  1  0
 13 14  2  0
 14 15  1  0
 15 16  1  0
 16 17  2  0
 17 18  1  0
 15 19  2  0
 18 19  1  0
 14 20  1  0
 11 21  1  0
 20 21  2  0
  7 22  1  0
  4 23  1  0
 22 23  1  0
M  END
