piperidine-amides-14872-covalent
     RDKit          3D

 21 21  0  0  0  0  0  0  0  0999 V2000
    7.0740   -3.2950   19.3250 C   0  0  0  0  0  0  0  0  0  0  0  0
    6.3820   -4.1160   20.3190 C   0  0  0  0  0  0  0  0  0  0  0  0
    5.3610   -4.7240   19.9530 O   0  0  0  0  0  0  0  0  0  0  0  0
    6.8820   -4.2500   21.6480 N   0  0  0  0  0  0  0  0  0  0  0  0
    6.6390   -5.4640   22.3840 C   0  0  0  0  0  0  0  0  0  0  0  0
    6.1540   -5.1570   23.7790 C   0  0  0  0  0  0  0  0  0  0  0  0
    5.9940   -3.6570   23.8730 C   0  0  0  0  0  0  0  0  0  0  0  0
    5.5090   -3.2150   25.2260 C   0  0  0  0  0  0  0  0  0  0  0  0
    4.4100   -2.6710   25.2310 O   0  0  0  0  0  0  0  0  0  0  0  0
    6.2810   -3.4240   26.3700 N   0  0  0  0  0  0  0  0  0  0  0  0
    6.0010   -4.4390   27.3510 C   0  0  1  0  0  0  0  0  0  0  0  0
    6.4070   -4.1460   28.6570 C   0  0  0  0  0  0  0  0  0  0  0  0
    5.5440   -3.3990   29.4150 C   0  0  0  0  0  0  0  0  0  0  0  0
    4.5370   -4.6500   27.3780 C   0  0  0  0  0  0  0  0  0  0  0  0
    4.0260   -5.9240   27.0900 N   0  0  0  0  0  0  0  0  0  0  0  0
    3.0230   -6.7420   28.2410 S   0  0  0  0  0  0  0  0  0  0  0  0
    4.0910   -7.7730   29.2680 C   0  0  0  0  0  0  0  0  0  0  0  0
    2.2600   -5.7200   29.0490 O   0  0  0  0  0  0  0  0  0  0  0  0
    2.0100   -7.5970   27.5560 O   0  0  0  0  0  0  0  0  0  0  0  0
    7.2550   -2.9100   23.5750 C   0  0  0  0  0  0  0  0  0  0  0  0
    7.7010   -3.1400   22.1860 C   0  0  0  0  0  0  0  0  0  0  0  0
  1  2  1  0
  2  3  2  0
  2  4  1  0
  4  5  1  0
  5  6  1  0
  6  7  1  0
  7  8  1  0
  8  9  2  0
  8 10  1  0
 10 11  1  0
 11 12  1  1
 12 13  1  0
 11 14  1  0
 14 15  1  0
 16 15  1  0
 16 17  1  0
 16 18  2  0
 16 19  2  0
  7 20  1  0
  4 21  1  0
 20 21  1  0
M  END
