piperidine-amides-1275-covalent
     RDKit          3D

 23 24  0  0  0  0  0  0  0  0999 V2000
    7.1390   -3.2940   19.2090 C   0  0  0  0  0  0  0  0  0  0  0  0
    6.3400   -4.0280   20.2260 C   0  0  0  0  0  0  0  0  0  0  0  0
    5.2790   -4.5810   19.8930 O   0  0  0  0  0  0  0  0  0  0  0  0
    6.8450   -4.1090   21.5360 N   0  0  0  0  0  0  0  0  0  0  0  0
    7.7750   -3.1330   22.0490 C   0  0  0  0  0  0  0  0  0  0  0  0
    7.1670   -2.5840   23.3280 C   0  0  0  0  0  0  0  0  0  0  0  0
    6.7530   -3.7640   24.1370 C   0  0  0  0  0  0  0  0  0  0  0  0
    6.0910   -3.3440   25.3830 C   0  0  0  0  0  0  0  0  0  0  0  0
    4.8610   -3.1930   25.3360 O   0  0  0  0  0  0  0  0  0  0  0  0
    6.8750   -3.1300   26.5320 N   0  0  0  0  0  0  0  0  0  0  0  0
    7.6030   -4.0960   27.2760 C   0  0  0  0  0  0  0  0  0  0  0  0
    7.0130   -5.1240   27.9690 C   0  0  0  0  0  0  0  0  0  0  0  0
    5.3690   -4.6110   28.5760 S   0  0  0  0  0  0  0  0  0  0  0  0
    5.4560   -3.6750   29.7600 O   0  0  0  0  0  0  0  0  0  0  0  0
    4.7650   -3.8170   27.4680 O   0  0  0  0  0  0  0  0  0  0  0  0
    4.3460   -5.9310   29.0100 N   0  0  0  0  0  0  0  0  0  0  0  0
    4.8940   -7.2170   29.0060 C   0  0  0  0  0  0  0  0  0  0  0  0
    5.9490   -7.3460   29.8760 C   0  0  0  0  0  0  0  0  0  0  0  0
    5.2680   -7.1950   31.5610 S   0  0  0  0  0  0  0  0  0  0  0  0
    3.5220   -6.8650   31.1240 C   0  0  0  0  0  0  0  0  0  0  0  0
    3.5490   -5.6400   30.1930 C   0  0  0  0  0  0  0  0  0  0  0  0
    5.8590   -4.7570   23.4410 C   0  0  0  0  0  0  0  0  0  0  0  0
    6.5270   -5.2510   22.3370 C   0  0  0  0  0  0  0  0  0  0  0  0
  1  2  1  0
  2  3  2  0
  2  4  1  0
  4  5  1  0
  5  6  1  0
  6  7  1  0
  7  8  1  0
  8  9  2  0
  8 10  1  0
 10 11  1  0
 11 12  1  0
 13 12  1  0
 13 14  2  0
 13 15  2  0
 13 16  1  0
 16 17  1  0
 17 18  1  0
 18 19  1  0
 19 20  1  0
 16 21  1  0
 20 21  1  0
  7 22  1  0
  4 23  1  0
 22 23  1  0
M  END
