piperidine-amides-30370-covalent
     RDKit          3D

 26 27  0  0  0  0  0  0  0  0999 V2000
    7.0750   -3.3220   19.2070 C   0  0  0  0  0  0  0  0  0  0  0  0
    6.3560   -4.1060   20.2020 C   0  0  0  0  0  0  0  0  0  0  0  0
    5.2980   -4.6550   19.9170 O   0  0  0  0  0  0  0  0  0  0  0  0
    6.9230   -4.2980   21.4990 N   0  0  0  0  0  0  0  0  0  0  0  0
    6.6310   -5.5060   22.2160 C   0  0  0  0  0  0  0  0  0  0  0  0
    5.9350   -5.1460   23.4870 C   0  0  0  0  0  0  0  0  0  0  0  0
    6.7220   -4.0270   24.1370 C   0  0  0  0  0  0  0  0  0  0  0  0
    5.9380   -3.5430   25.2840 C   0  0  0  0  0  0  0  0  0  0  0  0
    4.9050   -2.8690   25.1140 O   0  0  0  0  0  0  0  0  0  0  0  0
    6.3460   -3.8400   26.6010 N   0  0  0  0  0  0  0  0  0  0  0  0
    7.7740   -3.9550   26.9230 C   0  0  2  0  0  0  0  0  0  0  0  0
    8.5180   -4.5620   25.7540 C   0  0  0  0  0  0  0  0  0  0  0  0
    7.9270   -4.9770   27.9840 C   0  0  0  0  0  0  0  0  0  0  0  0
    6.7840   -5.2760   28.6880 C   0  0  0  0  0  0  0  0  0  0  0  0
    5.9340   -4.2270   28.8710 C   0  0  0  0  0  0  0  0  0  0  0  0
    5.5860   -3.3730   27.7630 C   0  0  2  0  0  0  0  0  0  0  0  0
    4.2990   -3.0180   27.3960 C   0  0  0  0  0  0  0  0  0  0  0  0
    3.5390   -2.9920   28.5110 N   0  0  0  0  0  0  0  0  0  0  0  0
    2.2580   -3.6320   28.3720 C   0  0  0  0  0  0  0  0  0  0  0  0
    1.9390   -4.8220   27.7440 O   0  0  0  0  0  0  0  0  0  0  0  0
    1.1580   -2.9900   28.9430 C   0  0  0  0  0  0  0  0  0  0  0  0
    1.3310   -2.2930   30.0920 F   0  0  0  0  0  0  0  0  0  0  0  0
    0.5060   -2.1200   28.1390 F   0  0  0  0  0  0  0  0  0  0  0  0
    0.2810   -3.9880   29.3670 F   0  0  0  0  0  0  0  0  0  0  0  0
    7.0860   -2.9000   23.2990 C   0  0  0  0  0  0  0  0  0  0  0  0
    7.7160   -3.2800   22.1420 C   0  0  0  0  0  0  0  0  0  0  0  0
  1  2  1  0
  2  3  2  0
  2  4  1  0
  4  5  1  0
  5  6  1  0
  6  7  1  0
  7  8  1  0
  8  9  2  0
  8 10  1  0
 10 11  1  0
 11 12  1  6
 11 13  1  0
 13 14  1  0
 14 15  1  0
 10 16  1  0
 15 16  1  0
 16 17  1  6
 17 18  1  0
 18 19  1  0
 19 20  2  0
 19 21  1  0
 21 22  1  0
 21 23  1  0
 21 24  1  0
  7 25  1  0
  4 26  1  0
 25 26  1  0
M  END
