piperidine-amides-173-covalent
     RDKit          3D

 25 28  0  0  0  0  0  0  0  0999 V2000
    7.0540   -3.4000   19.3120 C   0  0  0  0  0  0  0  0  0  0  0  0
    6.4150   -4.1660   20.3510 C   0  0  0  0  0  0  0  0  0  0  0  0
    5.4020   -4.8550   20.0030 O   0  0  0  0  0  0  0  0  0  0  0  0
    6.9030   -4.2260   21.6850 N   0  0  0  0  0  0  0  0  0  0  0  0
    6.5970   -5.4200   22.4860 C   0  0  0  0  0  0  0  0  0  0  0  0
    5.6080   -4.7640   23.5210 C   0  0  0  0  0  0  0  0  0  0  0  0
    6.3500   -3.6400   24.2370 C   0  0  0  0  0  0  0  0  0  0  0  0
    5.4410   -3.1530   25.4680 C   0  0  0  0  0  0  0  0  0  0  0  0
    4.3340   -3.6560   25.3510 O   0  0  0  0  0  0  0  0  0  0  0  0
    6.0550   -2.3640   26.2750 N   0  0  0  0  0  0  0  0  0  0  0  0
    6.6410   -1.5330   27.2080 C   0  0  2  0  0  0  0  0  0  0  0  0
    7.1810   -1.6340   28.4740 C   0  0  0  0  0  0  0  0  0  0  0  0
    6.2200   -0.8610   29.1040 C   0  0  1  0  0  0  0  0  0  0  0  0
    6.4660    0.1560   29.9600 N   0  0  0  0  0  0  0  0  0  0  0  0
    5.7760   -0.1280   31.1280 C   0  0  0  0  0  0  0  0  0  0  0  0
    6.6000    0.5420   32.2200 C   0  0  0  0  0  0  0  0  0  0  0  0
    6.9820    1.8420   31.8790 O   0  0  0  0  0  0  0  0  0  0  0  0
    6.3270    2.4470   30.7860 C   0  0  0  0  0  0  0  0  0  0  0  0
    6.3190    1.5890   29.6510 C   0  0  0  0  0  0  0  0  0  0  0  0
    5.6950   -0.4800   27.7570 C   0  0  0  0  0  0  0  0  0  0  0  0
    6.4160    0.6610   27.1140 C   0  0  0  0  0  0  0  0  0  0  0  0
    5.1850    1.1350   26.9720 C   0  0  0  0  0  0  0  0  0  0  0  0
    4.3690    0.0410   27.3560 C   0  0  0  0  0  0  0  0  0  0  0  0
    6.9160   -2.5570   23.3260 C   0  0  0  0  0  0  0  0  0  0  0  0
    7.6370   -3.1490   22.3120 C   0  0  0  0  0  0  0  0  0  0  0  0
  1  2  1  0
  2  3  2  0
  2  4  1  0
  4  5  1  0
  5  6  1  0
  6  7  1  0
  7  8  1  0
  8  9  2  0
  8 10  1  0
 11 10  1  1
 11 12  1  0
 12 13  1  0
 13 14  1  6
 14 15  1  0
 15 16  1  0
 16 17  1  0
 17 18  1  0
 14 19  1  0
 18 19  1  0
 11 20  1  0
 13 20  1  0
 20 21  1  0
 21 22  1  0
 20 23  1  0
 22 23  1  0
  7 24  1  0
  4 25  1  0
 24 25  1  0
M  END
