piperidine-amides-35596-covalent
     RDKit          3D

 37 40  0  0  0  0  0  0  0  0999 V2000
    7.0710   -3.3020   19.2470 C   0  0  0  0  0  0  0  0  0  0  0  0
    6.3660   -4.1250   20.2660 C   0  0  0  0  0  0  0  0  0  0  0  0
    5.3110   -4.6480   19.9200 O   0  0  0  0  0  0  0  0  0  0  0  0
    6.9190   -4.3320   21.5330 N   0  0  0  0  0  0  0  0  0  0  0  0
    6.5890   -5.5030   22.2950 C   0  0  0  0  0  0  0  0  0  0  0  0
    5.8850   -5.0630   23.5410 C   0  0  0  0  0  0  0  0  0  0  0  0
    6.6480   -3.8790   24.1360 C   0  0  0  0  0  0  0  0  0  0  0  0
    5.9580   -3.4390   25.3430 C   0  0  0  0  0  0  0  0  0  0  0  0
    4.7590   -3.1080   25.3070 O   0  0  0  0  0  0  0  0  0  0  0  0
    6.6800   -3.4100   26.5360 N   0  0  0  0  0  0  0  0  0  0  0  0
    7.1790   -4.6720   27.0480 C   0  0  0  0  0  0  0  0  0  0  0  0
    7.0850   -2.1880   27.1360 C   0  0  0  0  0  0  0  0  0  0  0  0
    6.1470   -1.1660   26.9140 C   0  0  0  0  0  0  0  0  0  0  0  0
    6.3000    0.0640   27.4060 C   0  0  0  0  0  0  0  0  0  0  0  0
    7.4000    0.2250   28.1150 C   0  0  0  0  0  0  0  0  0  0  0  0
    7.4540    1.4690   28.5620 N   0  0  0  0  0  0  0  0  0  0  0  0
    8.4100    1.5640   29.5000 O   0  0  0  0  0  0  0  0  0  0  0  0
    6.3860    2.2710   28.6410 O   0  0  0  0  0  0  0  0  0  0  0  0
    8.5000   -0.7550   28.4430 C   0  0  0  0  0  0  0  0  0  0  0  0
    8.3960   -2.2000   27.8930 C   0  0  0  0  0  0  0  0  0  0  0  0
    9.2740   -3.3110   28.0640 N   0  0  0  0  0  0  0  0  0  0  0  0
    9.8120   -4.2990   27.3160 C   0  0  0  0  0  0  0  0  0  0  0  0
   10.6300   -5.1720   28.1150 N   0  0  0  0  0  0  0  0  0  0  0  0
   10.9690   -5.1450   29.5410 C   0  0  0  0  0  0  0  0  0  0  0  0
   11.9050   -6.5560   32.1590 C   0  0  0  0  0  0  0  0  0  0  0  0
   12.2670   -6.4990   34.0840 C   0  0  0  0  0  0  0  0  0  0  0  0
   12.7760   -7.4350   35.1290 C   0  0  0  0  0  0  0  0  0  0  0  0
   13.1800   -8.8060   34.8970 C   0  0  0  0  0  0  0  0  0  0  0  0
   13.6590   -9.7230   35.8070 C   0  0  0  0  0  0  0  0  0  0  0  0
   13.7480  -10.9840   35.3410 F   0  0  0  0  0  0  0  0  0  0  0  0
   12.8840   -9.8610   36.9640 F   0  0  0  0  0  0  0  0  0  0  0  0
   14.8620   -9.4640   36.3590 F   0  0  0  0  0  0  0  0  0  0  0  0
   13.0530   -9.2270   33.5110 C   0  0  0  0  0  0  0  0  0  0  0  0
   12.5380   -8.3330   32.3770 C   0  0  0  0  0  0  0  0  0  0  0  0
    9.9070   -3.7220   29.2850 C   0  0  0  0  0  0  0  0  0  0  0  0
    6.8990   -2.6990   23.2400 C   0  0  0  0  0  0  0  0  0  0  0  0
    7.7340   -3.2730   22.1060 C   0  0  0  0  0  0  0  0  0  0  0  0
  1  2  1  0
  2  3  2  0
  2  4  1  0
  4  5  1  0
  5  6  1  0
  6  7  1  0
  7  8  1  0
  8  9  2  0
  8 10  1  0
 10 11  1  0
 10 12  1  0
 12 13  2  0
 13 14  1  0
 14 15  2  0
 15 16  1  0
 16 17  2  0
 16 18  1  0
 15 19  1  0
 12 20  1  0
 19 20  2  0
 20 21  1  0
 21 22  1  0
 22 23  2  0
 23 24  1  0
 24 25  1  0
 25 26  2  0
 26 27  1  0
 27 28  2  0
 28 29  1  0
 29 30  1  0
 29 31  1  0
 29 32  1  0
 28 33  1  0
 25 34  1  0
 33 34  2  0
 21 35  1  0
 24 35  2  0
  7 36  1  0
  4 37  1  0
 36 37  1  0
M  CHG  2  16   1  18  -1
M  END
