piperidine-amides-3771-covalent
     RDKit          3D

 20 20  0  0  0  0  0  0  0  0999 V2000
    7.1300   -3.3030   19.1890 C   0  0  0  0  0  0  0  0  0  0  0  0
    6.3610   -4.0110   20.2240 C   0  0  0  0  0  0  0  0  0  0  0  0
    5.2690   -4.5130   19.8720 O   0  0  0  0  0  0  0  0  0  0  0  0
    6.8640   -4.1700   21.5390 N   0  0  0  0  0  0  0  0  0  0  0  0
    7.6720   -3.1460   22.0940 C   0  0  0  0  0  0  0  0  0  0  0  0
    7.4570   -2.9860   23.5180 C   0  0  0  0  0  0  0  0  0  0  0  0
    6.0850   -3.3200   23.9480 C   0  0  0  0  0  0  0  0  0  0  0  0
    5.8540   -3.0390   25.4040 C   0  0  0  0  0  0  0  0  0  0  0  0
    4.6820   -3.0530   25.8360 O   0  0  0  0  0  0  0  0  0  0  0  0
    6.9200   -2.7480   26.2890 N   0  0  0  0  0  0  0  0  0  0  0  0
    7.2550   -3.3990   27.5020 C   0  0  0  0  0  0  0  0  0  0  0  0
    7.3880   -4.8430   27.5530 C   0  0  2  0  0  0  0  0  0  0  0  0
    8.7170   -5.2510   28.1690 C   0  0  0  0  0  0  0  0  0  0  0  0
    7.2150   -5.6900   26.4150 C   0  0  0  0  0  0  0  0  0  0  0  0
    7.5950   -5.1990   25.1840 O   0  0  0  0  0  0  0  0  0  0  0  0
    6.3750   -5.3290   28.6720 C   0  0  0  0  0  0  0  0  0  0  0  0
    5.2320   -5.8330   28.0950 O   0  0  0  0  0  0  0  0  0  0  0  0
    5.1140   -7.0830   28.4400 C   0  0  0  0  0  0  0  0  0  0  0  0
    5.6680   -4.7590   23.5680 C   0  0  0  0  0  0  0  0  0  0  0  0
    6.5090   -5.2650   22.4070 C   0  0  0  0  0  0  0  0  0  0  0  0
  1  2  1  0
  2  3  2  0
  2  4  1  0
  4  5  1  0
  5  6  1  0
  6  7  1  0
  7  8  1  0
  8  9  2  0
  8 10  1  0
 10 11  1  0
 12 11  1  0
 12 13  1  1
 12 14  1  0
 14 15  1  0
 12 16  1  0
 16 17  1  0
 17 18  1  0
  7 19  1  0
  4 20  1  0
 19 20  1  0
M  END
