piperidine-amides-21738-covalent
     RDKit          3D

 23 25  0  0  0  0  0  0  0  0999 V2000
    7.0750   -3.3340   19.2950 C   0  0  0  0  0  0  0  0  0  0  0  0
    6.3280   -4.0970   20.2930 C   0  0  0  0  0  0  0  0  0  0  0  0
    5.2760   -4.6690   19.9160 O   0  0  0  0  0  0  0  0  0  0  0  0
    6.8290   -4.1930   21.5840 N   0  0  0  0  0  0  0  0  0  0  0  0
    7.5690   -3.1100   22.1700 C   0  0  0  0  0  0  0  0  0  0  0  0
    6.8390   -2.6630   23.4060 C   0  0  0  0  0  0  0  0  0  0  0  0
    6.3870   -3.8160   24.2770 C   0  0  0  0  0  0  0  0  0  0  0  0
    5.6690   -3.2700   25.4530 C   0  0  0  0  0  0  0  0  0  0  0  0
    4.4180   -3.2790   25.4300 O   0  0  0  0  0  0  0  0  0  0  0  0
    6.3160   -2.7250   26.5890 N   0  0  0  0  0  0  0  0  0  0  0  0
    7.7160   -2.8650   26.7780 C   0  0  0  0  0  0  0  0  0  0  0  0
    8.2220   -4.2360   26.4840 C   0  0  0  0  0  0  0  0  0  0  0  0
    8.2270   -5.3010   27.2650 C   0  0  0  0  0  0  0  0  0  0  0  0
    7.7520   -5.4360   28.5160 C   0  0  0  0  0  0  0  0  0  0  0  0
    8.7810   -6.3180   26.6870 N   0  0  0  0  0  0  0  0  0  0  0  0
    9.1330   -5.9710   25.4990 O   0  0  0  0  0  0  0  0  0  0  0  0
    8.8000   -4.6940   25.3360 C   0  0  0  0  0  0  0  0  0  0  0  0
    8.9630   -3.8820   24.2350 C   0  0  0  0  0  0  0  0  0  0  0  0
    5.7980   -1.6040   27.2730 C   0  0  0  0  0  0  0  0  0  0  0  0
    6.6710   -0.8540   28.0030 C   0  0  0  0  0  0  0  0  0  0  0  0
    5.9280   -0.3640   26.6410 C   0  0  0  0  0  0  0  0  0  0  0  0
    5.5280   -4.8210   23.4840 C   0  0  0  0  0  0  0  0  0  0  0  0
    6.4880   -5.3360   22.4190 C   0  0  0  0  0  0  0  0  0  0  0  0
  1  2  1  0
  2  3  2  0
  2  4  1  0
  4  5  1  0
  5  6  1  0
  6  7  1  0
  7  8  1  0
  8  9  2  0
  8 10  1  0
 10 11  1  0
 11 12  1  0
 12 13  1  0
 13 14  1  0
 13 15  2  0
 15 16  1  0
 12 17  2  0
 16 17  1  0
 17 18  1  0
 10 19  1  0
 19 20  1  0
 19 21  1  0
 20 21  1  0
  7 22  1  0
  4 23  1  0
 22 23  1  0
M  END
