piperidine-amides-4530-covalent
     RDKit          3D

 25 27  0  0  0  0  0  0  0  0999 V2000
    7.0790   -3.3040   19.2620 C   0  0  0  0  0  0  0  0  0  0  0  0
    6.3710   -4.1180   20.2740 C   0  0  0  0  0  0  0  0  0  0  0  0
    5.3100   -4.6640   19.9170 O   0  0  0  0  0  0  0  0  0  0  0  0
    6.9060   -4.2960   21.5530 N   0  0  0  0  0  0  0  0  0  0  0  0
    6.4860   -5.4090   22.3380 C   0  0  0  0  0  0  0  0  0  0  0  0
    5.9000   -5.0280   23.6250 C   0  0  0  0  0  0  0  0  0  0  0  0
    6.4920   -3.8200   24.2390 C   0  0  0  0  0  0  0  0  0  0  0  0
    5.7400   -3.3880   25.4480 C   0  0  0  0  0  0  0  0  0  0  0  0
    4.4920   -3.3130   25.4090 O   0  0  0  0  0  0  0  0  0  0  0  0
    6.3980   -3.0740   26.6480 N   0  0  0  0  0  0  0  0  0  0  0  0
    6.3700   -1.7000   27.2080 C   0  0  0  0  0  0  0  0  0  0  0  0
    7.0170   -1.5980   28.5270 C   0  0  0  0  0  0  0  0  0  0  0  0
    7.0800   -0.3440   29.2360 C   0  0  0  0  0  0  0  0  0  0  0  0
    6.5100    0.7530   28.6260 C   0  0  0  0  0  0  0  0  0  0  0  0
    5.8920    0.6920   27.3800 C   0  0  0  0  0  0  0  0  0  0  0  0
    5.3420    1.8050   26.8220 C   0  0  0  0  0  0  0  0  0  0  0  0
    5.6540    1.9600   25.4570 O   0  0  0  0  0  0  0  0  0  0  0  0
    4.5200    2.7330   27.5010 N   0  0  0  0  0  0  0  0  0  0  0  0
    3.2050    2.9180   26.9510 C   0  0  0  0  0  0  0  0  0  0  0  0
    2.5380    3.6620   27.8840 C   0  0  0  0  0  0  0  0  0  0  0  0
    3.1690    3.4800   29.1020 C   0  0  0  0  0  0  0  0  0  0  0  0
    4.4200    2.7210   28.9740 C   0  0  0  0  0  0  0  0  0  0  0  0
    5.8420   -0.5370   26.7030 C   0  0  0  0  0  0  0  0  0  0  0  0
    6.7090   -2.7200   23.2030 C   0  0  0  0  0  0  0  0  0  0  0  0
    7.5970   -3.2210   22.2320 C   0  0  0  0  0  0  0  0  0  0  0  0
  1  2  1  0
  2  3  2  0
  2  4  1  0
  4  5  1  0
  5  6  1  0
  6  7  1  0
  7  8  1  0
  8  9  2  0
  8 10  1  0
 10 11  1  0
 11 12  2  0
 12 13  1  0
 13 14  2  0
 14 15  1  0
 15 16  1  0
 16 17  2  0
 16 18  1  0
 18 19  1  0
 19 20  1  0
 20 21  1  0
 18 22  1  0
 21 22  1  0
 11 23  1  0
 15 23  2  0
  7 24  1  0
  4 25  1  0
 24 25  1  0
M  END
