piperidine-amides-3658-covalent
     RDKit          3D

 31 33  0  0  0  0  0  0  0  0999 V2000
    7.1290   -3.2850   19.2230 C   0  0  0  0  0  0  0  0  0  0  0  0
    6.4090   -4.0380   20.2620 C   0  0  0  0  0  0  0  0  0  0  0  0
    5.3330   -4.5820   19.9100 O   0  0  0  0  0  0  0  0  0  0  0  0
    6.9290   -4.1960   21.5770 N   0  0  0  0  0  0  0  0  0  0  0  0
    7.7520   -3.1640   22.1300 C   0  0  0  0  0  0  0  0  0  0  0  0
    7.4300   -2.8750   23.5120 C   0  0  0  0  0  0  0  0  0  0  0  0
    6.1380   -3.4580   23.8740 C   0  0  0  0  0  0  0  0  0  0  0  0
    5.6040   -3.0060   25.1980 C   0  0  0  0  0  0  0  0  0  0  0  0
    4.3920   -2.7330   25.2630 O   0  0  0  0  0  0  0  0  0  0  0  0
    6.3580   -2.8760   26.3810 N   0  0  0  0  0  0  0  0  0  0  0  0
    5.8250   -3.2080   27.6400 C   0  0  1  0  0  0  0  0  0  0  0  0
    6.1220   -4.4940   28.2070 C   0  0  0  0  0  0  0  0  0  0  0  0
    4.8530   -4.9660   28.9500 C   0  0  0  0  0  0  0  0  0  0  0  0
    5.2150   -6.0210   29.6980 C   0  0  0  0  0  0  0  0  0  0  0  0
    4.5240   -5.6750   30.9980 C   0  0  0  0  0  0  0  0  0  0  0  0
    4.8370   -6.7100   32.0580 C   0  0  0  0  0  0  0  0  0  0  0  0
    5.7550   -7.8920   31.6230 C   0  0  0  0  0  0  0  0  0  0  0  0
    6.0270   -8.7850   32.6200 F   0  0  0  0  0  0  0  0  0  0  0  0
    6.3690   -8.1510   30.2260 C   0  0  0  0  0  0  0  0  0  0  0  0
    7.4160   -9.5590   29.6980 Cl  0  0  0  0  0  0  0  0  0  0  0  0
    5.9690   -7.0320   29.3570 C   0  0  0  0  0  0  0  0  0  0  0  0
    5.9590   -2.1560   28.7260 C   0  0  0  0  0  0  0  0  0  0  0  0
    4.6710   -1.9450   29.4470 C   0  0  0  0  0  0  0  0  0  0  0  0
    4.5570   -1.0250   30.4860 C   0  0  0  0  0  0  0  0  0  0  0  0
    5.6560   -0.2890   30.8600 C   0  0  0  0  0  0  0  0  0  0  0  0
    5.5620    0.6220   31.8840 F   0  0  0  0  0  0  0  0  0  0  0  0
    6.9690   -0.4850   30.1450 C   0  0  0  0  0  0  0  0  0  0  0  0
    8.0250    0.2550   30.5440 F   0  0  0  0  0  0  0  0  0  0  0  0
    7.0490   -1.4150   29.1090 C   0  0  0  0  0  0  0  0  0  0  0  0
    6.2380   -4.9670   23.7650 C   0  0  0  0  0  0  0  0  0  0  0  0
    6.5960   -5.3780   22.3400 C   0  0  0  0  0  0  0  0  0  0  0  0
  1  2  1  0
  2  3  2  0
  2  4  1  0
  4  5  1  0
  5  6  1  0
  6  7  1  0
  7  8  1  0
  8  9  2  0
  8 10  1  0
 10 11  1  0
 11 12  1  1
 12 13  1  0
 13 14  1  0
 14 15  2  0
 15 16  1  0
 16 17  2  0
 17 18  1  0
 17 19  1  0
 19 20  1  0
 14 21  1  0
 19 21  2  0
 11 22  1  0
 22 23  2  0
 23 24  1  0
 24 25  2  0
 25 26  1  0
 25 27  1  0
 27 28  1  0
 22 29  1  0
 27 29  2  0
  7 30  1  0
  4 31  1  0
 30 31  1  0
M  END
