piperidine-amides-25177-covalent
     RDKit          3D

 23 24  0  0  0  0  0  0  0  0999 V2000
    7.0780   -3.3030   19.2770 C   0  0  0  0  0  0  0  0  0  0  0  0
    6.3660   -4.1300   20.2840 C   0  0  0  0  0  0  0  0  0  0  0  0
    5.3280   -4.6820   19.9300 O   0  0  0  0  0  0  0  0  0  0  0  0
    6.9110   -4.2880   21.5550 N   0  0  0  0  0  0  0  0  0  0  0  0
    7.6260   -3.2070   22.1830 C   0  0  0  0  0  0  0  0  0  0  0  0
    6.8020   -2.6850   23.3200 C   0  0  0  0  0  0  0  0  0  0  0  0
    6.4790   -3.8670   24.2230 C   0  0  0  0  0  0  0  0  0  0  0  0
    5.7500   -3.3740   25.4180 C   0  0  0  0  0  0  0  0  0  0  0  0
    4.5130   -3.2840   25.3600 O   0  0  0  0  0  0  0  0  0  0  0  0
    6.4080   -2.9840   26.6150 N   0  0  0  0  0  0  0  0  0  0  0  0
    6.3790   -3.8910   27.7550 C   0  0  0  0  0  0  0  0  0  0  0  0
    6.2270   -5.3230   27.2930 C   0  0  0  0  0  0  0  0  0  0  0  0
    4.9960   -5.8130   27.6720 O   0  0  0  0  0  0  0  0  0  0  0  0
    4.5510   -7.0470   27.4590 C   0  0  0  0  0  0  0  0  0  0  0  0
    6.3190   -1.6200   27.0140 C   0  0  0  0  0  0  0  0  0  0  0  0
    5.9630   -0.6090   26.0710 N   0  0  0  0  0  0  0  0  0  0  0  0
    5.8640    0.7520   26.4860 C   0  0  0  0  0  0  0  0  0  0  0  0
    6.1090    1.2580   27.8900 C   0  0  0  0  0  0  0  0  0  0  0  0
    6.4780    0.1190   28.8170 C   0  0  0  0  0  0  0  0  0  0  0  0
    6.8480    0.2610   30.5380 Cl  0  0  0  0  0  0  0  0  0  0  0  0
    6.5240   -1.1160   28.2450 N   0  0  0  0  0  0  0  0  0  0  0  0
    5.7270   -4.9490   23.5610 C   0  0  0  0  0  0  0  0  0  0  0  0
    6.4270   -5.3970   22.3280 C   0  0  0  0  0  0  0  0  0  0  0  0
  1  2  1  0
  2  3  2  0
  2  4  1  0
  4  5  1  0
  5  6  1  0
  6  7  1  0
  7  8  1  0
  8  9  2  0
  8 10  1  0
 10 11  1  0
 11 12  1  0
 12 13  1  0
 13 14  1  0
 10 15  1  0
 15 16  2  0
 16 17  1  0
 17 18  2  0
 18 19  1  0
 19 20  1  0
 15 21  1  0
 19 21  2  0
  7 22  1  0
  4 23  1  0
 22 23  1  0
M  END
