piperidine-amides-11619-covalent
     RDKit          3D

 29 32  0  0  0  0  0  0  0  0999 V2000
    7.0880   -3.3310   19.3210 C   0  0  0  0  0  0  0  0  0  0  0  0
    6.3960   -4.1730   20.2890 C   0  0  0  0  0  0  0  0  0  0  0  0
    5.3730   -4.7800   19.9650 O   0  0  0  0  0  0  0  0  0  0  0  0
    6.9410   -4.3300   21.6050 N   0  0  0  0  0  0  0  0  0  0  0  0
    6.5680   -5.4640   22.4020 C   0  0  0  0  0  0  0  0  0  0  0  0
    5.7710   -5.0050   23.5920 C   0  0  0  0  0  0  0  0  0  0  0  0
    6.5110   -3.8560   24.2600 C   0  0  0  0  0  0  0  0  0  0  0  0
    5.7110   -3.3130   25.3900 C   0  0  0  0  0  0  0  0  0  0  0  0
    4.4850   -3.1180   25.2980 O   0  0  0  0  0  0  0  0  0  0  0  0
    6.3560   -3.0070   26.6070 N   0  0  0  0  0  0  0  0  0  0  0  0
    5.7580   -2.0070   27.4600 C   0  0  2  0  0  0  0  0  0  0  0  0
    6.0090   -0.7340   27.1310 C   0  0  0  0  0  0  0  0  0  0  0  0
    6.7900   -1.1510   28.2730 C   0  0  1  0  0  0  0  0  0  0  0  0
    6.5590   -0.6820   29.5710 C   0  0  0  0  0  0  0  0  0  0  0  0
    5.3200   -0.4630   30.1200 C   0  0  0  0  0  0  0  0  0  0  0  0
    5.2310    0.0280   31.4690 C   0  0  0  0  0  0  0  0  0  0  0  0
    6.2440    0.3240   32.3320 C   0  0  0  0  0  0  0  0  0  0  0  0
    6.0760    0.7670   33.5510 O   0  0  0  0  0  0  0  0  0  0  0  0
    5.1780    1.2850   34.5280 C   0  0  0  0  0  0  0  0  0  0  0  0
    4.7550    0.2560   35.3610 C   0  0  0  0  0  0  0  0  0  0  0  0
    3.9460    0.5020   36.5910 C   0  0  0  0  0  0  0  0  0  0  0  0
    3.4530   -0.4120   37.5160 C   0  0  0  0  0  0  0  0  0  0  0  0
    3.7000   -1.7530   37.3440 C   0  0  0  0  0  0  0  0  0  0  0  0
    4.4900   -2.1730   36.1730 C   0  0  0  0  0  0  0  0  0  0  0  0
    5.0080   -1.1280   35.1910 C   0  0  0  0  0  0  0  0  0  0  0  0
    7.5020    0.1120   31.8080 C   0  0  0  0  0  0  0  0  0  0  0  0
    7.6430   -0.4050   30.3930 C   0  0  0  0  0  0  0  0  0  0  0  0
    6.8500   -2.7230   23.3110 C   0  0  0  0  0  0  0  0  0  0  0  0
    7.7370   -3.3080   22.2430 C   0  0  0  0  0  0  0  0  0  0  0  0
  1  2  1  0
  2  3  2  0
  2  4  1  0
  4  5  1  0
  5  6  1  0
  6  7  1  0
  7  8  1  0
  8  9  2  0
  8 10  1  0
 11 10  1  6
 11 12  1  0
 11 13  1  0
 12 13  1  0
 13 14  1  1
 14 15  2  0
 15 16  1  0
 16 17  2  0
 17 18  1  0
 18 19  1  0
 19 20  1  0
 20 21  2  0
 21 22  1  0
 22 23  2  0
 23 24  1  0
 20 25  1  0
 24 25  2  0
 17 26  1  0
 14 27  1  0
 26 27  2  0
  7 28  1  0
  4 29  1  0
 28 29  1  0
M  END
