piperidine-amides-24133-covalent
     RDKit          3D

 24 26  0  0  0  0  0  0  0  0999 V2000
    7.1150   -3.3320   19.2940 C   0  0  0  0  0  0  0  0  0  0  0  0
    6.4420   -4.1940   20.2700 C   0  0  0  0  0  0  0  0  0  0  0  0
    5.3810   -4.7780   19.9680 O   0  0  0  0  0  0  0  0  0  0  0  0
    7.0270   -4.4280   21.5200 N   0  0  0  0  0  0  0  0  0  0  0  0
    6.6760   -5.6230   22.2370 C   0  0  0  0  0  0  0  0  0  0  0  0
    5.8090   -5.1480   23.3940 C   0  0  0  0  0  0  0  0  0  0  0  0
    6.5680   -4.0340   24.0920 C   0  0  0  0  0  0  0  0  0  0  0  0
    5.7200   -3.5000   25.1510 C   0  0  0  0  0  0  0  0  0  0  0  0
    4.6420   -2.9480   24.8450 O   0  0  0  0  0  0  0  0  0  0  0  0
    6.1300   -3.6270   26.4740 N   0  0  0  0  0  0  0  0  0  0  0  0
    5.1380   -3.7640   27.5080 C   0  0  0  0  0  0  0  0  0  0  0  0
    5.5810   -4.8440   28.4620 C   0  0  0  0  0  0  0  0  0  0  0  0
    6.9110   -4.9360   28.6290 C   0  0  0  0  0  0  0  0  0  0  0  0
    7.5720   -3.8110   28.2390 C   0  0  2  0  0  0  0  0  0  0  0  0
    7.2420   -2.6250   28.9170 C   0  0  0  0  0  0  0  0  0  0  0  0
    5.9080   -2.4700   29.2260 N   0  0  0  0  0  0  0  0  0  0  0  0
    5.9420   -1.3010   29.8690 N   0  0  0  0  0  0  0  0  0  0  0  0
    7.2840   -0.8040   29.9210 C   0  0  0  0  0  0  0  0  0  0  0  0
    7.6800    0.4920   30.5900 C   0  0  0  0  0  0  0  0  0  0  0  0
    8.1010   -1.6420   29.3100 O   0  0  0  0  0  0  0  0  0  0  0  0
    7.5160   -3.6710   26.9030 C   0  0  2  0  0  0  0  0  0  0  0  0
    8.0730   -2.3790   26.3900 C   0  0  0  0  0  0  0  0  0  0  0  0
    6.9130   -2.8920   23.1690 C   0  0  0  0  0  0  0  0  0  0  0  0
    7.7800   -3.4140   22.2160 C   0  0  0  0  0  0  0  0  0  0  0  0
  1  2  1  0
  2  3  2  0
  2  4  1  0
  4  5  1  0
  5  6  1  0
  6  7  1  0
  7  8  1  0
  8  9  2  0
  8 10  1  0
 10 11  1  0
 11 12  1  0
 12 13  1  0
 13 14  1  0
 14 15  1  1
 15 16  2  0
 16 17  1  0
 17 18  2  0
 18 19  1  0
 15 20  1  0
 18 20  1  0
 10 21  1  0
 14 21  1  0
 21 22  1  1
  7 23  1  0
  4 24  1  0
 23 24  1  0
M  END
