piperidine-amides-3603-covalent
     RDKit          3D

 19 20  0  0  0  0  0  0  0  0999 V2000
    7.1750   -3.2720   19.2070 C   0  0  0  0  0  0  0  0  0  0  0  0
    6.3570   -3.9850   20.1950 C   0  0  0  0  0  0  0  0  0  0  0  0
    5.2370   -4.4060   19.8210 O   0  0  0  0  0  0  0  0  0  0  0  0
    6.8480   -4.2520   21.4900 N   0  0  0  0  0  0  0  0  0  0  0  0
    7.5810   -3.2190   22.1490 C   0  0  0  0  0  0  0  0  0  0  0  0
    7.1430   -2.8980   23.5040 C   0  0  0  0  0  0  0  0  0  0  0  0
    6.4070   -3.9620   24.2170 C   0  0  0  0  0  0  0  0  0  0  0  0
    5.7500   -3.4040   25.4480 C   0  0  0  0  0  0  0  0  0  0  0  0
    4.6560   -2.8160   25.3380 O   0  0  0  0  0  0  0  0  0  0  0  0
    6.3390   -3.5220   26.7260 N   0  0  0  0  0  0  0  0  0  0  0  0
    5.9440   -4.3390   27.8160 C   0  0  2  0  0  0  0  0  0  0  0  0
    6.8920   -5.0270   28.6840 C   0  0  0  0  0  0  0  0  0  0  0  0
    5.1060   -5.4810   27.3220 C   0  0  0  0  0  0  0  0  0  0  0  0
    4.9220   -6.5920   28.1040 C   0  0  0  0  0  0  0  0  0  0  0  0
    3.7010   -6.9690   27.2430 C   0  0  0  0  0  0  0  0  0  0  0  0
    2.8960   -5.8080   27.7750 C   0  0  0  0  0  0  0  0  0  0  0  0
    3.8200   -4.9110   26.9390 C   0  0  0  0  0  0  0  0  0  0  0  0
    5.4610   -4.7520   23.3580 C   0  0  0  0  0  0  0  0  0  0  0  0
    6.3030   -5.3440   22.2500 C   0  0  0  0  0  0  0  0  0  0  0  0
  1  2  1  0
  2  3  2  0
  2  4  1  0
  4  5  1  0
  5  6  1  0
  6  7  1  0
  7  8  1  0
  8  9  2  0
  8 10  1  0
 10 11  1  0
 11 12  1  6
 11 13  1  0
 13 14  1  0
 14 15  1  0
 15 16  1  0
 13 17  1  0
 16 17  1  0
  7 18  1  0
  4 19  1  0
 18 19  1  0
M  END
