piperidine-amides-14696-covalent
     RDKit          3D

 23 23  0  0  0  0  0  0  0  0999 V2000
    7.1100   -3.2450   19.2060 C   0  0  0  0  0  0  0  0  0  0  0  0
    6.3460   -3.9760   20.2180 C   0  0  0  0  0  0  0  0  0  0  0  0
    5.2920   -4.5370   19.8770 O   0  0  0  0  0  0  0  0  0  0  0  0
    6.8270   -4.0720   21.5460 N   0  0  0  0  0  0  0  0  0  0  0  0
    7.7140   -3.0720   22.0600 C   0  0  0  0  0  0  0  0  0  0  0  0
    7.4570   -2.9390   23.5210 C   0  0  0  0  0  0  0  0  0  0  0  0
    6.0250   -3.3810   23.6970 C   0  0  0  0  0  0  0  0  0  0  0  0
    5.5630   -3.0920   25.0900 C   0  0  0  0  0  0  0  0  0  0  0  0
    4.4230   -2.6530   25.2190 O   0  0  0  0  0  0  0  0  0  0  0  0
    6.4480   -3.3490   26.1190 N   0  0  0  0  0  0  0  0  0  0  0  0
    6.8700   -4.6750   26.3260 C   0  0  1  0  0  0  0  0  0  0  0  0
    8.2270   -4.8700   26.0800 C   0  0  0  0  0  0  0  0  0  0  0  0
    8.8610   -5.7740   26.8530 C   0  0  0  0  0  0  0  0  0  0  0  0
    8.9200   -5.5750   28.1930 C   0  0  0  0  0  0  0  0  0  0  0  0
    6.5080   -5.0500   27.7210 C   0  0  0  0  0  0  0  0  0  0  0  0
    6.9290   -4.4380   28.8720 O   0  0  0  0  0  0  0  0  0  0  0  0
    5.6170   -6.1370   27.7440 O   0  0  0  0  0  0  0  0  0  0  0  0
    4.9960   -6.5570   28.9540 C   0  0  0  0  0  0  0  0  0  0  0  0
    3.8170   -7.4040   28.6600 C   0  0  0  0  0  0  0  0  0  0  0  0
    6.0410   -7.3800   29.6390 C   0  0  0  0  0  0  0  0  0  0  0  0
    4.7780   -5.5000   29.8260 C   0  0  0  0  0  0  0  0  0  0  0  0
    5.9090   -4.8840   23.4860 C   0  0  0  0  0  0  0  0  0  0  0  0
    6.5770   -5.2530   22.3320 C   0  0  0  0  0  0  0  0  0  0  0  0
  1  2  1  0
  2  3  2  0
  2  4  1  0
  4  5  1  0
  5  6  1  0
  6  7  1  0
  7  8  1  0
  8  9  2  0
  8 10  1  0
 10 11  1  0
 11 12  1  1
 12 13  1  0
 13 14  1  0
 11 15  1  0
 15 16  2  0
 15 17  1  0
 18 17  1  0
 18 19  1  0
 18 20  1  0
 18 21  1  0
  7 22  1  0
  4 23  1  0
 22 23  1  0
M  END
