piperidine-amides-32303-covalent
     RDKit          3D

 24 26  0  0  0  0  0  0  0  0999 V2000
    7.0570   -3.3650   19.3740 C   0  0  0  0  0  0  0  0  0  0  0  0
    6.4000   -4.2630   20.3590 C   0  0  0  0  0  0  0  0  0  0  0  0
    5.3880   -4.8890   19.9970 O   0  0  0  0  0  0  0  0  0  0  0  0
    6.9640   -4.4340   21.6520 N   0  0  0  0  0  0  0  0  0  0  0  0
    6.5750   -5.5290   22.4830 C   0  0  0  0  0  0  0  0  0  0  0  0
    5.6050   -4.9310   23.5060 C   0  0  0  0  0  0  0  0  0  0  0  0
    6.2940   -3.8840   24.3420 C   0  0  0  0  0  0  0  0  0  0  0  0
    5.3530   -3.4130   25.4000 C   0  0  0  0  0  0  0  0  0  0  0  0
    4.2960   -2.9770   24.9530 O   0  0  0  0  0  0  0  0  0  0  0  0
    5.5940   -3.4430   26.7950 N   0  0  0  0  0  0  0  0  0  0  0  0
    6.3180   -4.3290   27.5270 C   0  0  0  0  0  0  0  0  0  0  0  0
    5.8060   -4.5500   28.7080 C   0  0  0  0  0  0  0  0  0  0  0  0
    4.5900   -3.8600   28.7610 C   0  0  2  0  0  0  0  0  0  0  0  0
    4.5960   -2.8600   29.7150 O   0  0  0  0  0  0  0  0  0  0  0  0
    3.5270   -4.7250   28.9200 C   0  0  0  0  0  0  0  0  0  0  0  0
    3.5860   -6.1200   28.3780 C   0  0  0  0  0  0  0  0  0  0  0  0
    2.4400   -7.1340   28.5250 C   0  0  0  0  0  0  0  0  0  0  0  0
    1.2660   -6.5160   29.2870 C   0  0  0  0  0  0  0  0  0  0  0  0
    1.2290   -5.2300   29.7770 C   0  0  0  0  0  0  0  0  0  0  0  0
   -0.3270   -4.6240   30.7070 Br  0  0  0  0  0  0  0  0  0  0  0  0
    2.3860   -4.3310   29.5840 C   0  0  0  0  0  0  0  0  0  0  0  0
    4.4340   -3.0530   27.5780 C   0  0  0  0  0  0  0  0  0  0  0  0
    6.8020   -2.8030   23.4580 C   0  0  0  0  0  0  0  0  0  0  0  0
    7.6700   -3.3700   22.3170 C   0  0  0  0  0  0  0  0  0  0  0  0
  1  2  1  0
  2  3  2  0
  2  4  1  0
  4  5  1  0
  5  6  1  0
  6  7  1  0
  7  8  1  0
  8  9  2  0
  8 10  1  0
 10 11  1  0
 11 12  1  0
 12 13  1  0
 13 14  1  1
 13 15  1  0
 15 16  2  0
 16 17  1  0
 17 18  2  0
 18 19  1  0
 19 20  1  0
 15 21  1  0
 19 21  2  0
 10 22  1  0
 13 22  1  0
  7 23  1  0
  4 24  1  0
 23 24  1  0
M  END
