piperidine-amides-19351-covalent
     RDKit          3D

 21 23  0  0  0  0  0  0  0  0999 V2000
    7.0600   -3.3320   19.2100 C   0  0  0  0  0  0  0  0  0  0  0  0
    6.3170   -3.9990   20.2590 C   0  0  0  0  0  0  0  0  0  0  0  0
    5.2740   -4.6310   19.9140 O   0  0  0  0  0  0  0  0  0  0  0  0
    6.7130   -4.0160   21.6130 N   0  0  0  0  0  0  0  0  0  0  0  0
    6.7350   -5.3440   22.2700 C   0  0  0  0  0  0  0  0  0  0  0  0
    5.8690   -5.0410   23.5480 C   0  0  0  0  0  0  0  0  0  0  0  0
    6.0740   -3.5720   23.8290 C   0  0  0  0  0  0  0  0  0  0  0  0
    5.4690   -3.1770   25.2470 C   0  0  0  0  0  0  0  0  0  0  0  0
    5.0980   -4.1730   25.8490 O   0  0  0  0  0  0  0  0  0  0  0  0
    5.5120   -1.9140   25.3940 N   0  0  0  0  0  0  0  0  0  0  0  0
    5.2020   -0.5920   25.3890 C   0  0  0  0  0  0  0  0  0  0  0  0
    6.0680    0.0620   26.0080 C   0  0  0  0  0  0  0  0  0  0  0  0
    5.9670   -0.3930   27.2290 C   0  0  0  0  0  0  0  0  0  0  0  0
    5.8810    1.0390   27.3520 C   0  0  2  0  0  0  0  0  0  0  0  0
    4.4510    1.3270   26.8580 C   0  0  0  0  0  0  0  0  0  0  0  0
    4.3660    1.5170   25.4790 F   0  0  0  0  0  0  0  0  0  0  0  0
    3.5800    0.2990   27.2310 F   0  0  0  0  0  0  0  0  0  0  0  0
    3.9740    2.4580   27.4680 F   0  0  0  0  0  0  0  0  0  0  0  0
    6.7170   -1.2840   26.2270 C   0  0  0  0  0  0  0  0  0  0  0  0
    7.5040   -3.1290   23.6130 C   0  0  0  0  0  0  0  0  0  0  0  0
    7.6200   -2.9780   22.1010 C   0  0  0  0  0  0  0  0  0  0  0  0
  1  2  1  0
  2  3  2  0
  2  4  1  0
  4  5  1  0
  5  6  1  0
  6  7  1  0
  7  8  1  0
  8  9  2  0
  8 10  1  0
 10 11  1  0
 12 11  1  0
 12 13  1  0
 12 14  1  0
 13 14  1  0
 14 15  1  6
 15 16  1  0
 15 17  1  0
 15 18  1  0
 10 19  1  0
 12 19  1  0
  7 20  1  0
  4 21  1  0
 20 21  1  0
M  END
