piperidine-amides-11288-covalent
     RDKit          3D

 19 20  0  0  0  0  0  0  0  0999 V2000
    7.1920   -4.0230   19.6580 C   0  0  0  0  0  0  0  0  0  0  0  0
    5.9780   -3.8280   20.2850 C   0  0  0  0  0  0  0  0  0  0  0  0
    4.9720   -3.9590   19.5790 O   0  0  0  0  0  0  0  0  0  0  0  0
    6.0330   -3.6180   21.6380 N   0  0  0  0  0  0  0  0  0  0  0  0
    7.1870   -2.8800   22.0840 C   0  0  0  0  0  0  0  0  0  0  0  0
    6.8760   -2.4170   23.4670 C   0  0  0  0  0  0  0  0  0  0  0  0
    6.3750   -3.5170   24.3580 C   0  0  0  0  0  0  0  0  0  0  0  0
    5.7350   -2.9450   25.5580 C   0  0  0  0  0  0  0  0  0  0  0  0
    4.4880   -3.0840   25.7420 O   0  0  0  0  0  0  0  0  0  0  0  0
    6.4550   -2.2140   26.5290 N   0  0  0  0  0  0  0  0  0  0  0  0
    7.5820   -2.8310   27.2460 C   0  0  0  0  0  0  0  0  0  0  0  0
    7.7410   -4.1890   26.7150 C   0  0  0  0  0  0  0  0  0  0  0  0
    7.6330   -5.0490   27.7070 N   0  0  0  0  0  0  0  0  0  0  0  0
    8.5900   -6.0340   27.9070 C   0  0  0  0  0  0  0  0  0  0  0  0
    6.3490   -5.8160   27.8020 C   0  0  0  0  0  0  0  0  0  0  0  0
    5.2420   -5.3760   28.5230 C   0  0  0  0  0  0  0  0  0  0  0  0
    5.9870   -6.5900   29.1330 C   0  0  0  0  0  0  0  0  0  0  0  0
    5.3740   -4.4140   23.6500 C   0  0  0  0  0  0  0  0  0  0  0  0
    5.8020   -4.8190   22.3970 C   0  0  0  0  0  0  0  0  0  0  0  0
  1  2  1  0
  2  3  2  0
  2  4  1  0
  4  5  1  0
  5  6  1  0
  6  7  1  0
  7  8  1  0
  8  9  2  0
  8 10  1  0
 10 11  1  0
 11 12  1  0
 12 13  1  0
 13 14  1  0
 13 15  1  0
 15 16  1  0
 15 17  1  0
 16 17  1  0
  7 18  1  0
  4 19  1  0
 18 19  1  0
M  END
