piperidine-amides-10198-covalent
     RDKit          3D

 25 27  0  0  0  0  0  0  0  0999 V2000
    7.0860   -3.3260   19.3100 C   0  0  0  0  0  0  0  0  0  0  0  0
    6.3340   -4.1280   20.2790 C   0  0  0  0  0  0  0  0  0  0  0  0
    5.2320   -4.5730   19.8860 O   0  0  0  0  0  0  0  0  0  0  0  0
    6.8520   -4.4270   21.5440 N   0  0  0  0  0  0  0  0  0  0  0  0
    7.7090   -3.5110   22.2420 C   0  0  0  0  0  0  0  0  0  0  0  0
    6.8950   -2.8740   23.3120 C   0  0  0  0  0  0  0  0  0  0  0  0
    5.8080   -3.7580   23.8350 C   0  0  0  0  0  0  0  0  0  0  0  0
    5.5330   -3.4020   25.2410 C   0  0  0  0  0  0  0  0  0  0  0  0
    4.3910   -3.6200   25.6970 O   0  0  0  0  0  0  0  0  0  0  0  0
    6.4950   -2.8170   26.0800 N   0  0  0  0  0  0  0  0  0  0  0  0
    6.5640   -1.3910   26.2740 C   0  0  0  0  0  0  0  0  0  0  0  0
    6.4000   -0.5520   24.9890 C   0  0  0  0  0  0  0  0  0  0  0  0
    5.3320    0.2880   24.7890 C   0  0  0  0  0  0  0  0  0  0  0  0
    4.2710    0.4740   25.7180 O   0  0  0  0  0  0  0  0  0  0  0  0
    3.3090   -0.4490   25.9210 C   0  0  0  0  0  0  0  0  0  0  0  0
    5.1850    1.0330   23.6600 C   0  0  0  0  0  0  0  0  0  0  0  0
    6.1380    0.9470   22.6790 C   0  0  0  0  0  0  0  0  0  0  0  0
    7.2120    0.1050   22.8710 C   0  0  0  0  0  0  0  0  0  0  0  0
    8.2470    0.0520   21.7320 C   0  0  0  0  0  0  0  0  0  0  0  0
    9.4110   -0.8980   22.0020 C   0  0  0  0  0  0  0  0  0  0  0  0
    9.4740   -1.6690   23.2680 C   0  0  0  0  0  0  0  0  0  0  0  0
    8.3790   -1.4950   24.2700 C   0  0  0  0  0  0  0  0  0  0  0  0
    7.3020   -0.6490   24.0820 C   0  0  0  0  0  0  0  0  0  0  0  0
    6.2520   -5.2100   23.7320 C   0  0  0  0  0  0  0  0  0  0  0  0
    6.4710   -5.6160   22.2750 C   0  0  0  0  0  0  0  0  0  0  0  0
  1  2  1  0
  2  3  2  0
  2  4  1  0
  4  5  1  0
  5  6  1  0
  6  7  1  0
  7  8  1  0
  8  9  2  0
  8 10  1  0
 10 11  1  0
 11 12  1  0
 12 13  2  0
 13 14  1  0
 14 15  1  0
 13 16  1  0
 16 17  2  0
 17 18  1  0
 18 19  1  0
 19 20  2  0
 20 21  1  0
 21 22  2  0
 12 23  1  0
 18 23  2  0
 22 23  1  0
  7 24  1  0
  4 25  1  0
 24 25  1  0
M  END
