piperidine-amides-1050-covalent
     RDKit          3D

 24 25  0  0  0  0  0  0  0  0999 V2000
    7.1530   -3.2630   19.2210 C   0  0  0  0  0  0  0  0  0  0  0  0
    6.3300   -3.9790   20.2300 C   0  0  0  0  0  0  0  0  0  0  0  0
    5.2700   -4.5200   19.8760 O   0  0  0  0  0  0  0  0  0  0  0  0
    6.8040   -4.0740   21.5530 N   0  0  0  0  0  0  0  0  0  0  0  0
    7.6650   -3.0520   22.1160 C   0  0  0  0  0  0  0  0  0  0  0  0
    7.6170   -3.2020   23.6380 C   0  0  0  0  0  0  0  0  0  0  0  0
    6.2310   -3.6320   23.9770 C   0  0  0  0  0  0  0  0  0  0  0  0
    5.7840   -3.1600   25.3130 C   0  0  0  0  0  0  0  0  0  0  0  0
    5.0300   -2.1830   25.3200 O   0  0  0  0  0  0  0  0  0  0  0  0
    6.1910   -3.8100   26.4880 N   0  0  0  0  0  0  0  0  0  0  0  0
    5.7880   -5.1140   26.8860 C   0  0  1  0  0  0  0  0  0  0  0  0
    6.3170   -5.7890   27.9600 C   0  0  0  0  0  0  0  0  0  0  0  0
    5.4270   -6.5010   28.7910 C   0  0  0  0  0  0  0  0  0  0  0  0
    4.3180   -7.1630   28.3050 C   0  0  0  0  0  0  0  0  0  0  0  0
    3.3940   -7.8900   29.2180 C   0  0  0  0  0  0  0  0  0  0  0  0
    3.6180   -7.9510   30.7240 C   0  0  0  0  0  0  0  0  0  0  0  0
    4.8810   -7.1750   31.0480 C   0  0  0  0  0  0  0  0  0  0  0  0
    5.6660   -6.5340   30.1240 C   0  0  0  0  0  0  0  0  0  0  0  0
    4.3540   -5.2070   27.0190 C   0  0  0  0  0  0  0  0  0  0  0  0
    3.1600   -5.4910   26.7930 O   0  0  0  0  0  0  0  0  0  0  0  0
    4.8550   -5.8760   25.8470 N   0  0  0  0  0  0  0  0  0  0  0  0
    4.0540   -6.8530   25.1920 C   0  0  0  0  0  0  0  0  0  0  0  0
    6.1600   -5.0800   23.7160 C   0  0  0  0  0  0  0  0  0  0  0  0
    6.6320   -5.3090   22.2650 C   0  0  0  0  0  0  0  0  0  0  0  0
  1  2  1  0
  2  3  2  0
  2  4  1  0
  4  5  1  0
  5  6  1  0
  6  7  1  0
  7  8  1  0
  8  9  2  0
  8 10  1  0
 10 11  1  0
 11 12  1  1
 12 13  1  0
 13 14  2  0
 14 15  1  0
 15 16  2  0
 16 17  1  0
 13 18  1  0
 17 18  2  0
 11 19  1  0
 19 20  2  0
 19 21  1  0
 21 22  1  0
  7 23  1  0
  4 24  1  0
 23 24  1  0
M  END
