piperidine-amides-19292-covalent
     RDKit          3D

 22 24  0  0  0  0  0  0  0  0999 V2000
    7.0040   -3.4460   19.4330 C   0  0  0  0  0  0  0  0  0  0  0  0
    6.3440   -4.2480   20.4510 C   0  0  0  0  0  0  0  0  0  0  0  0
    5.4240   -5.0200   20.0260 O   0  0  0  0  0  0  0  0  0  0  0  0
    6.6810   -4.2400   21.8380 N   0  0  0  0  0  0  0  0  0  0  0  0
    6.6000   -5.5500   22.5560 C   0  0  0  0  0  0  0  0  0  0  0  0
    5.8900   -5.1890   23.9350 C   0  0  0  0  0  0  0  0  0  0  0  0
    6.1670   -3.7320   24.1900 C   0  0  0  0  0  0  0  0  0  0  0  0
    5.4510   -3.0750   25.4980 C   0  0  0  0  0  0  0  0  0  0  0  0
    4.8590   -2.0740   25.1170 O   0  0  0  0  0  0  0  0  0  0  0  0
    5.6490   -3.7390   26.6250 N   0  0  0  0  0  0  0  0  0  0  0  0
    6.2430   -4.4950   27.5690 C   0  0  0  0  0  0  0  0  0  0  0  0
    6.1210   -4.7980   28.8560 C   0  0  0  0  0  0  0  0  0  0  0  0
    5.4540   -3.7150   29.4280 O   0  0  0  0  0  0  0  0  0  0  0  0
    4.1580   -3.5160   28.9560 C   0  0  0  0  0  0  0  0  0  0  0  0
    3.4160   -3.4110   27.9120 N   0  0  0  0  0  0  0  0  0  0  0  0
    4.2490   -3.5470   26.6570 C   0  0  0  0  0  0  0  0  0  0  0  0
    5.7850   -3.7510   27.3380 C   0  0  0  0  0  0  0  0  0  0  0  0
    5.5000   -3.7010   28.6000 C   0  0  0  0  0  0  0  0  0  0  0  0
    4.1630   -3.5070   29.0670 C   0  0  0  0  0  0  0  0  0  0  0  0
    4.5220   -3.5710   27.5800 C   0  0  0  0  0  0  0  0  0  0  0  0
    7.5490   -3.3670   23.7580 C   0  0  0  0  0  0  0  0  0  0  0  0
    7.4510   -3.1440   22.3930 C   0  0  0  0  0  0  0  0  0  0  0  0
  1  2  1  0
  2  3  2  0
  2  4  1  0
  4  5  1  0
  5  6  1  0
  6  7  1  0
  7  8  1  0
  8  9  2  0
  8 10  1  0
 10 11  1  0
 11 12  1  0
 12 13  1  0
 13 14  1  0
 14 15  2  0
 15 16  1  0
 16 17  2  0
 17 18  1  0
 18 19  1  0
 10 20  1  0
 14 20  1  0
 18 20  2  0
  7 21  1  0
  4 22  1  0
 21 22  1  0
M  END
