piperidine-amides-29196-covalent
     RDKit          3D

 26 27  0  0  0  0  0  0  0  0999 V2000
    7.0130   -3.3960   19.3930 C   0  0  0  0  0  0  0  0  0  0  0  0
    6.3620   -4.3310   20.3160 C   0  0  0  0  0  0  0  0  0  0  0  0
    5.3060   -4.8670   19.9610 O   0  0  0  0  0  0  0  0  0  0  0  0
    6.9580   -4.6440   21.5530 N   0  0  0  0  0  0  0  0  0  0  0  0
    6.3910   -5.7250   22.3060 C   0  0  0  0  0  0  0  0  0  0  0  0
    5.3830   -5.1910   23.3050 C   0  0  0  0  0  0  0  0  0  0  0  0
    6.0280   -4.0860   24.1250 C   0  0  0  0  0  0  0  0  0  0  0  0
    5.0540   -3.4710   25.1040 C   0  0  0  0  0  0  0  0  0  0  0  0
    4.0950   -2.9100   24.5930 O   0  0  0  0  0  0  0  0  0  0  0  0
    5.2540   -3.5460   26.4800 N   0  0  0  0  0  0  0  0  0  0  0  0
    4.1770   -3.5860   27.3890 C   0  0  0  0  0  0  0  0  0  0  0  0
    4.4950   -4.1130   28.6320 C   0  0  0  0  0  0  0  0  0  0  0  0
    5.8060   -4.0900   28.9360 C   0  0  0  0  0  0  0  0  0  0  0  0
    6.7550   -4.1340   27.9820 C   0  0  0  0  0  0  0  0  0  0  0  0
    6.5250   -2.9350   27.0180 C   0  0  1  0  0  0  0  0  0  0  0  0
    7.2030   -2.6640   25.5910 C   0  0  0  0  0  0  0  0  0  0  0  0
    7.0280   -3.6600   24.8740 O   0  0  0  0  0  0  0  0  0  0  0  0
    7.9320   -1.5050   25.1380 N   0  0  0  0  0  0  0  0  0  0  0  0
    8.7820   -1.6010   23.9260 C   0  0  2  0  0  0  0  0  0  0  0  0
    9.2800   -3.0020   23.7510 C   0  0  0  0  0  0  0  0  0  0  0  0
    9.7150   -0.6300   23.6120 C   0  0  0  0  0  0  0  0  0  0  0  0
    9.3170    0.5410   23.0250 O   0  0  0  0  0  0  0  0  0  0  0  0
   11.0640   -0.8570   23.8830 O   0  0  0  0  0  0  0  0  0  0  0  0
   12.0510   -0.3540   22.9960 C   0  0  0  0  0  0  0  0  0  0  0  0
    6.4010   -3.0150   23.1440 C   0  0  0  0  0  0  0  0  0  0  0  0
    7.4630   -3.5030   22.2250 C   0  0  0  0  0  0  0  0  0  0  0  0
  1  2  1  0
  2  3  2  0
  2  4  1  0
  4  5  1  0
  5  6  1  0
  6  7  1  0
  7  8  1  0
  8  9  2  0
  8 10  1  0
 10 11  1  0
 11 12  1  0
 12 13  1  0
 13 14  1  0
 10 15  1  0
 14 15  1  0
 15 16  1  6
 16 17  2  0
 16 18  1  0
 18 19  1  0
 19 20  1  1
 19 21  1  0
 21 22  2  0
 21 23  1  0
 23 24  1  0
  7 25  1  0
  4 26  1  0
 25 26  1  0
M  END
