piperidine-amides-13384-covalent
     RDKit          3D

 21 23  0  0  0  0  0  0  0  0999 V2000
    7.0830   -3.2950   19.2320 C   0  0  0  0  0  0  0  0  0  0  0  0
    6.3720   -4.0690   20.2760 C   0  0  0  0  0  0  0  0  0  0  0  0
    5.3010   -4.6030   19.9120 O   0  0  0  0  0  0  0  0  0  0  0  0
    6.9040   -4.2350   21.5720 N   0  0  0  0  0  0  0  0  0  0  0  0
    6.5650   -5.3800   22.3520 C   0  0  0  0  0  0  0  0  0  0  0  0
    6.0250   -5.0300   23.6680 C   0  0  0  0  0  0  0  0  0  0  0  0
    6.0990   -3.5830   23.9530 C   0  0  0  0  0  0  0  0  0  0  0  0
    5.6740   -3.2890   25.3460 C   0  0  0  0  0  0  0  0  0  0  0  0
    4.5340   -3.6560   25.6870 O   0  0  0  0  0  0  0  0  0  0  0  0
    6.4970   -2.6040   26.2610 N   0  0  0  0  0  0  0  0  0  0  0  0
    6.0420   -1.3510   26.9160 C   0  0  1  0  0  0  0  0  0  0  0  0
    4.6940   -1.4240   27.4480 C   0  0  0  0  0  0  0  0  0  0  0  0
    5.2560   -1.0160   28.6740 C   0  0  2  0  0  0  0  0  0  0  0  0
    4.9180   -1.4060   29.9650 C   0  0  0  0  0  0  0  0  0  0  0  0
    5.1690   -0.3980   30.9090 C   0  0  0  0  0  0  0  0  0  0  0  0
    5.7770    0.6510   30.1410 N   0  0  0  0  0  0  0  0  0  0  0  0
    5.8020    0.3440   28.8490 C   0  0  0  0  0  0  0  0  0  0  0  0
    6.2220    1.1220   27.7490 O   0  0  0  0  0  0  0  0  0  0  0  0
    6.6060   -0.9720   28.2930 C   0  0  0  0  0  0  0  0  0  0  0  0
    7.3750   -2.9570   23.5420 C   0  0  0  0  0  0  0  0  0  0  0  0
    7.6770   -3.1650   22.1890 C   0  0  0  0  0  0  0  0  0  0  0  0
  1  2  1  0
  2  3  2  0
  2  4  1  0
  4  5  1  0
  5  6  1  0
  6  7  1  0
  7  8  1  0
  8  9  2  0
  8 10  1  0
 11 10  1  1
 11 12  1  0
 13 12  1  6
 13 14  1  0
 14 15  1  0
 15 16  1  0
 13 17  1  0
 16 17  1  0
 17 18  2  0
 11 19  1  0
 13 19  1  0
  7 20  1  0
  4 21  1  0
 20 21  1  0
M  END
