piperidine-amides-25770-covalent
     RDKit          3D

 25 27  0  0  0  0  0  0  0  0999 V2000
    7.1350   -3.3360   19.2690 C   0  0  0  0  0  0  0  0  0  0  0  0
    6.3850   -4.1300   20.2700 C   0  0  0  0  0  0  0  0  0  0  0  0
    5.3120   -4.6080   19.9130 O   0  0  0  0  0  0  0  0  0  0  0  0
    6.9460   -4.3510   21.5260 N   0  0  0  0  0  0  0  0  0  0  0  0
    6.6410   -5.5200   22.2940 C   0  0  0  0  0  0  0  0  0  0  0  0
    5.9910   -5.0880   23.5750 C   0  0  0  0  0  0  0  0  0  0  0  0
    6.7740   -3.9200   24.1870 C   0  0  0  0  0  0  0  0  0  0  0  0
    5.9490   -3.3150   25.2240 C   0  0  0  0  0  0  0  0  0  0  0  0
    4.9580   -2.6400   24.9180 O   0  0  0  0  0  0  0  0  0  0  0  0
    6.2790   -3.5280   26.5480 N   0  0  0  0  0  0  0  0  0  0  0  0
    6.0690   -2.4540   27.4810 C   0  0  0  0  0  0  0  0  0  0  0  0
    6.3040   -3.0360   28.8570 C   0  0  0  0  0  0  0  0  0  0  0  0
    5.7340   -4.2000   29.2570 C   0  0  0  0  0  0  0  0  0  0  0  0
    4.5310   -4.0610   29.8730 C   0  0  0  0  0  0  0  0  0  0  0  0
    3.4780   -4.0260   29.0100 C   0  0  0  0  0  0  0  0  0  0  0  0
    3.5460   -4.4650   27.5650 C   0  0  2  0  0  0  0  0  0  0  0  0
    2.6460   -5.3960   27.0980 O   0  0  0  0  0  0  0  0  0  0  0  0
    4.8790   -5.1020   27.8280 C   0  0  0  0  0  0  0  0  0  0  0  0
    4.5390   -6.2950   28.7150 C   0  0  0  0  0  0  0  0  0  0  0  0
    5.7080   -7.0860   29.1250 C   0  0  0  0  0  0  0  0  0  0  0  0
    7.0120   -6.6460   28.6320 C   0  0  0  0  0  0  0  0  0  0  0  0
    7.2160   -5.4920   27.7770 C   0  0  0  0  0  0  0  0  0  0  0  0
    6.1080   -4.6560   27.3490 C   0  0  0  0  0  0  0  0  0  0  0  0
    7.0420   -2.8190   23.1820 C   0  0  0  0  0  0  0  0  0  0  0  0
    7.7750   -3.3400   22.1640 C   0  0  0  0  0  0  0  0  0  0  0  0
  1  2  1  0
  2  3  2  0
  2  4  1  0
  4  5  1  0
  5  6  1  0
  6  7  1  0
  7  8  1  0
  8  9  2  0
  8 10  1  0
 10 11  1  0
 11 12  1  0
 12 13  1  0
 13 14  1  0
 14 15  1  0
 15 16  1  0
 16 17  1  1
 16 18  1  0
 18 19  1  0
 19 20  2  0
 20 21  1  0
 21 22  2  0
 10 23  1  0
 18 23  2  0
 22 23  1  0
  7 24  1  0
  4 25  1  0
 24 25  1  0
M  END
