piperidine-amides-24357-covalent
     RDKit          3D

 24 26  0  0  0  0  0  0  0  0999 V2000
    7.0170   -3.3390   19.3170 C   0  0  0  0  0  0  0  0  0  0  0  0
    6.3330   -4.2050   20.2910 C   0  0  0  0  0  0  0  0  0  0  0  0
    5.3160   -4.8400   19.9620 O   0  0  0  0  0  0  0  0  0  0  0  0
    6.8330   -4.3740   21.5860 N   0  0  0  0  0  0  0  0  0  0  0  0
    6.5470   -5.6170   22.2690 C   0  0  0  0  0  0  0  0  0  0  0  0
    6.2370   -5.3060   23.7430 C   0  0  0  0  0  0  0  0  0  0  0  0
    5.8800   -3.8350   23.8390 C   0  0  0  0  0  0  0  0  0  0  0  0
    5.4000   -3.4520   25.1930 C   0  0  0  0  0  0  0  0  0  0  0  0
    4.5010   -2.5900   25.2530 O   0  0  0  0  0  0  0  0  0  0  0  0
    5.9120   -4.0210   26.3900 N   0  0  0  0  0  0  0  0  0  0  0  0
    5.5000   -3.4380   27.6550 C   0  0  0  0  0  0  0  0  0  0  0  0
    5.5840   -4.4640   28.7800 C   0  0  0  0  0  0  0  0  0  0  0  0
    6.5640   -5.4100   28.7220 C   0  0  0  0  0  0  0  0  0  0  0  0
    7.5160   -5.1500   27.8030 C   0  0  0  0  0  0  0  0  0  0  0  0
    7.2340   -4.1150   26.9270 C   0  0  1  0  0  0  0  0  0  0  0  0
    7.8270   -4.0210   25.7110 C   0  0  0  0  0  0  0  0  0  0  0  0
    9.1290   -4.1980   25.4750 N   0  0  0  0  0  0  0  0  0  0  0  0
    9.6650   -4.7610   26.4970 C   0  0  0  0  0  0  0  0  0  0  0  0
   11.0180   -4.5530   25.9980 C   0  0  0  0  0  0  0  0  0  0  0  0
   11.3590   -3.3990   25.0560 C   0  0  0  0  0  0  0  0  0  0  0  0
    9.9520   -3.0270   25.3410 C   0  0  0  0  0  0  0  0  0  0  0  0
    9.6160   -1.8360   25.4120 O   0  0  0  0  0  0  0  0  0  0  0  0
    7.0570   -2.9850   23.4400 C   0  0  0  0  0  0  0  0  0  0  0  0
    7.5180   -3.2900   22.2050 C   0  0  0  0  0  0  0  0  0  0  0  0
  1  2  1  0
  2  3  2  0
  2  4  1  0
  4  5  1  0
  5  6  1  0
  6  7  1  0
  7  8  1  0
  8  9  2  0
  8 10  1  0
 10 11  1  0
 11 12  1  0
 12 13  1  0
 13 14  1  0
 10 15  1  0
 14 15  1  0
 15 16  1  6
 16 17  1  0
 17 18  1  0
 18 19  1  0
 19 20  1  0
 17 21  1  0
 20 21  1  0
 21 22  2  0
  7 23  1  0
  4 24  1  0
 23 24  1  0
M  END
