piperidine-amides-3009-covalent
     RDKit          3D

 23 24  0  0  0  0  0  0  0  0999 V2000
    7.0720   -3.3200   19.3200 C   0  0  0  0  0  0  0  0  0  0  0  0
    6.3640   -4.1340   20.3050 C   0  0  0  0  0  0  0  0  0  0  0  0
    5.3810   -4.7950   19.9680 O   0  0  0  0  0  0  0  0  0  0  0  0
    6.8400   -4.1970   21.6620 N   0  0  0  0  0  0  0  0  0  0  0  0
    7.7580   -3.1880   22.1320 C   0  0  0  0  0  0  0  0  0  0  0  0
    7.6150   -3.0340   23.6110 C   0  0  0  0  0  0  0  0  0  0  0  0
    6.2710   -3.6320   23.9620 C   0  0  0  0  0  0  0  0  0  0  0  0
    5.8790   -3.3050   25.3610 C   0  0  0  0  0  0  0  0  0  0  0  0
    4.8580   -3.7920   25.8800 O   0  0  0  0  0  0  0  0  0  0  0  0
    6.6730   -2.4060   26.1190 N   0  0  0  0  0  0  0  0  0  0  0  0
    6.0050   -1.6630   27.1680 C   0  0  1  0  0  0  0  0  0  0  0  0
    6.8580   -1.4600   28.3840 C   0  0  0  0  0  0  0  0  0  0  0  0
    6.6180   -0.1870   28.8030 C   0  0  0  0  0  0  0  0  0  0  0  0
    5.9870    0.5420   27.7840 C   0  0  0  0  0  0  0  0  0  0  0  0
    5.6160   -0.2890   26.7220 C   0  0  2  0  0  0  0  0  0  0  0  0
    4.2750   -0.0730   26.1920 C   0  0  0  0  0  0  0  0  0  0  0  0
    3.4360    0.3620   27.1530 N   0  0  0  0  0  0  0  0  0  0  0  0
    1.8300   -0.1960   26.9790 S   0  0  0  0  0  0  0  0  0  0  0  0
    1.7900   -1.7720   26.3300 C   0  0  0  0  0  0  0  0  0  0  0  0
    1.2070   -0.2310   28.3350 O   0  0  0  0  0  0  0  0  0  0  0  0
    1.0250    0.7120   26.1170 O   0  0  0  0  0  0  0  0  0  0  0  0
    6.3710   -5.1400   23.7680 C   0  0  0  0  0  0  0  0  0  0  0  0
    6.5230   -5.4130   22.3990 C   0  0  0  0  0  0  0  0  0  0  0  0
  1  2  1  0
  2  3  2  0
  2  4  1  0
  4  5  1  0
  5  6  1  0
  6  7  1  0
  7  8  1  0
  8  9  2  0
  8 10  1  0
 11 10  1  6
 11 12  1  0
 12 13  1  0
 13 14  1  0
 11 15  1  0
 14 15  1  0
 15 16  1  1
 16 17  1  0
 18 17  1  0
 18 19  1  0
 18 20  2  0
 18 21  2  0
  7 22  1  0
  4 23  1  0
 22 23  1  0
M  END
