piperidine-amides-6259-covalent
     RDKit          3D

 26 28  0  0  0  0  0  0  0  0999 V2000
    7.0340   -3.3410   19.3140 C   0  0  0  0  0  0  0  0  0  0  0  0
    6.3520   -4.1790   20.3150 C   0  0  0  0  0  0  0  0  0  0  0  0
    5.3610   -4.8650   19.9810 O   0  0  0  0  0  0  0  0  0  0  0  0
    6.8300   -4.2480   21.6310 N   0  0  0  0  0  0  0  0  0  0  0  0
    7.6560   -3.1650   22.1230 C   0  0  0  0  0  0  0  0  0  0  0  0
    7.4990   -3.1120   23.6400 C   0  0  0  0  0  0  0  0  0  0  0  0
    6.0890   -3.5580   23.9500 C   0  0  0  0  0  0  0  0  0  0  0  0
    5.7570   -3.1480   25.3260 C   0  0  0  0  0  0  0  0  0  0  0  0
    4.5990   -3.3050   25.7670 O   0  0  0  0  0  0  0  0  0  0  0  0
    6.8080   -2.5780   26.0650 N   0  0  0  0  0  0  0  0  0  0  0  0
    6.5910   -1.5620   27.0540 C   0  0  0  0  0  0  0  0  0  0  0  0
    5.8650   -0.3540   26.5530 C   0  0  0  0  0  0  0  0  0  0  0  0
    5.6250    0.6770   27.4170 C   0  0  0  0  0  0  0  0  0  0  0  0
    6.0520    0.5980   28.7390 C   0  0  0  0  0  0  0  0  0  0  0  0
    5.7920    1.6600   29.5910 O   0  0  0  0  0  0  0  0  0  0  0  0
    4.5550    2.3160   29.4110 C   0  0  0  0  0  0  0  0  0  0  0  0
    3.5670    1.5110   29.7730 C   0  0  0  0  0  0  0  0  0  0  0  0
    2.0940    1.7940   29.7470 C   0  0  0  0  0  0  0  0  0  0  0  0
    2.1710    3.2520   29.1880 C   0  0  0  0  0  0  0  0  0  0  0  0
    0.9030    3.7180   29.0800 F   0  0  0  0  0  0  0  0  0  0  0  0
    3.2020    4.3110   28.7270 C   0  0  0  0  0  0  0  0  0  0  0  0
    4.4290    3.5630   28.9430 C   0  0  0  0  0  0  0  0  0  0  0  0
    6.7220   -0.5380   29.1760 C   0  0  0  0  0  0  0  0  0  0  0  0
    6.9780   -1.5880   28.3440 C   0  0  0  0  0  0  0  0  0  0  0  0
    5.9720   -5.0580   23.7780 C   0  0  0  0  0  0  0  0  0  0  0  0
    6.5590   -5.4210   22.4300 C   0  0  0  0  0  0  0  0  0  0  0  0
  1  2  1  0
  2  3  2  0
  2  4  1  0
  4  5  1  0
  5  6  1  0
  6  7  1  0
  7  8  1  0
  8  9  2  0
  8 10  1  0
 10 11  1  0
 11 12  2  0
 12 13  1  0
 13 14  2  0
 14 15  1  0
 15 16  1  0
 16 17  2  0
 17 18  1  0
 18 19  2  0
 19 20  1  0
 19 21  1  0
 16 22  1  0
 21 22  2  0
 14 23  1  0
 11 24  1  0
 23 24  2  0
  7 25  1  0
  4 26  1  0
 25 26  1  0
M  END
