piperidine-amides-13496-covalent
     RDKit          3D

 22 23  0  0  0  0  0  0  0  0999 V2000
    7.1160   -3.2370   19.2160 C   0  0  0  0  0  0  0  0  0  0  0  0
    6.3200   -3.9960   20.2130 C   0  0  0  0  0  0  0  0  0  0  0  0
    5.2460   -4.5090   19.8630 O   0  0  0  0  0  0  0  0  0  0  0  0
    6.8240   -4.1630   21.5150 N   0  0  0  0  0  0  0  0  0  0  0  0
    6.6240   -5.4010   22.2180 C   0  0  0  0  0  0  0  0  0  0  0  0
    5.6680   -5.0800   23.3560 C   0  0  0  0  0  0  0  0  0  0  0  0
    6.0820   -3.7410   23.8620 C   0  0  0  0  0  0  0  0  0  0  0  0
    5.9420   -3.6610   25.3190 C   0  0  0  0  0  0  0  0  0  0  0  0
    5.0420   -2.9360   25.7650 O   0  0  0  0  0  0  0  0  0  0  0  0
    6.8290   -4.4160   26.0900 N   0  0  0  0  0  0  0  0  0  0  0  0
    6.5280   -5.3270   27.1380 C   0  0  0  0  0  0  0  0  0  0  0  0
    5.4570   -5.1940   27.9870 C   0  0  0  0  0  0  0  0  0  0  0  0
    4.8760   -6.3610   28.5880 C   0  0  0  0  0  0  0  0  0  0  0  0
    3.7910   -6.3080   29.4480 C   0  0  0  0  0  0  0  0  0  0  0  0
    3.2500   -4.9750   29.7260 C   0  0  0  0  0  0  0  0  0  0  0  0
    2.0670   -4.5700   30.6180 C   0  0  0  0  0  0  0  0  0  0  0  0
    1.0100   -5.6230   30.2710 C   0  0  0  0  0  0  0  0  0  0  0  0
   -0.3180   -5.4720   30.4680 N   0  0  0  0  0  0  0  0  0  0  0  0
    3.8340   -3.7720   29.1230 C   0  0  0  0  0  0  0  0  0  0  0  0
    4.9920   -3.9090   28.2130 C   0  0  0  0  0  0  0  0  0  0  0  0
    7.4830   -3.3370   23.5150 C   0  0  0  0  0  0  0  0  0  0  0  0
    7.5950   -3.1340   22.1650 C   0  0  0  0  0  0  0  0  0  0  0  0
  1  2  1  0
  2  3  2  0
  2  4  1  0
  4  5  1  0
  5  6  1  0
  6  7  1  0
  7  8  1  0
  8  9  2  0
  8 10  1  0
 10 11  1  0
 11 12  1  0
 12 13  2  0
 13 14  1  0
 14 15  2  0
 15 16  1  0
 16 17  1  0
 17 18  3  0
 15 19  1  0
 12 20  1  0
 19 20  2  0
  7 21  1  0
  4 22  1  0
 21 22  1  0
M  END
