piperidine-amides-31577-covalent
     RDKit          3D

 27 29  0  0  0  0  0  0  0  0999 V2000
    7.0240   -3.3340   19.2710 C   0  0  0  0  0  0  0  0  0  0  0  0
    6.3250   -4.0510   20.3180 C   0  0  0  0  0  0  0  0  0  0  0  0
    5.3180   -4.7300   19.9560 O   0  0  0  0  0  0  0  0  0  0  0  0
    6.7200   -4.0800   21.6840 N   0  0  0  0  0  0  0  0  0  0  0  0
    6.7580   -5.4380   22.2790 C   0  0  0  0  0  0  0  0  0  0  0  0
    6.1860   -5.1820   23.7230 C   0  0  0  0  0  0  0  0  0  0  0  0
    6.0810   -3.6880   23.8680 C   0  0  0  0  0  0  0  0  0  0  0  0
    5.3500   -3.2810   25.2330 C   0  0  0  0  0  0  0  0  0  0  0  0
    4.2230   -3.7480   25.2320 O   0  0  0  0  0  0  0  0  0  0  0  0
    6.0910   -2.5690   25.9870 N   0  0  0  0  0  0  0  0  0  0  0  0
    6.8150   -1.4870   26.3870 C   0  0  0  0  0  0  0  0  0  0  0  0
    6.1080   -3.2920   27.2020 C   0  0  0  0  0  0  0  0  0  0  0  0
    5.1670   -2.9760   28.2070 C   0  0  0  0  0  0  0  0  0  0  0  0
    4.6360   -1.7500   28.4480 N   0  0  0  0  0  0  0  0  0  0  0  0
    3.7980   -1.8460   29.4780 N   0  0  0  0  0  0  0  0  0  0  0  0
    3.8360   -3.1220   29.8400 C   0  0  0  0  0  0  0  0  0  0  0  0
    4.6600   -3.8620   29.0940 N   0  0  0  0  0  0  0  0  0  0  0  0
    4.7430   -5.2840   29.4510 C   0  0  0  0  0  0  0  0  0  0  0  0
    3.5090   -5.7210   29.9580 C   0  0  1  0  0  0  0  0  0  0  0  0
    3.4720   -6.6710   31.0000 C   0  0  0  0  0  0  0  0  0  0  0  0
    3.1260   -7.9100   30.5420 F   0  0  0  0  0  0  0  0  0  0  0  0
    4.6660   -6.7880   31.6710 F   0  0  0  0  0  0  0  0  0  0  0  0
    2.4960   -6.2880   31.9080 F   0  0  0  0  0  0  0  0  0  0  0  0
    3.1840   -5.1110   31.2960 C   0  0  0  0  0  0  0  0  0  0  0  0
    3.0110   -3.5900   30.9790 C   0  0  0  0  0  0  0  0  0  0  0  0
    7.4370   -3.0310   23.5980 C   0  0  0  0  0  0  0  0  0  0  0  0
    7.6290   -3.0650   22.2300 C   0  0  0  0  0  0  0  0  0  0  0  0
  1  2  1  0
  2  3  2  0
  2  4  1  0
  4  5  1  0
  5  6  1  0
  6  7  1  0
  7  8  1  0
  8  9  2  0
  8 10  1  0
 10 11  1  0
 10 12  1  0
 12 13  1  0
 13 14  2  0
 14 15  1  0
 15 16  2  0
 13 17  1  0
 16 17  1  0
 17 18  1  0
 18 19  1  0
 19 20  1  1
 20 21  1  0
 20 22  1  0
 20 23  1  0
 19 24  1  0
 16 25  1  0
 24 25  1  0
  7 26  1  0
  4 27  1  0
 26 27  1  0
M  END
