piperidine-amides-4518-covalent
     RDKit          3D

 25 27  0  0  0  0  0  0  0  0999 V2000
    7.1410   -3.2810   19.2160 C   0  0  0  0  0  0  0  0  0  0  0  0
    6.3370   -4.0050   20.2220 C   0  0  0  0  0  0  0  0  0  0  0  0
    5.2450   -4.4740   19.8490 O   0  0  0  0  0  0  0  0  0  0  0  0
    6.8300   -4.1920   21.5150 N   0  0  0  0  0  0  0  0  0  0  0  0
    6.4090   -5.3040   22.2950 C   0  0  0  0  0  0  0  0  0  0  0  0
    5.9060   -4.9380   23.6240 C   0  0  0  0  0  0  0  0  0  0  0  0
    6.5720   -3.7710   24.2520 C   0  0  0  0  0  0  0  0  0  0  0  0
    5.7990   -3.3050   25.4370 C   0  0  0  0  0  0  0  0  0  0  0  0
    4.5820   -3.0900   25.2870 O   0  0  0  0  0  0  0  0  0  0  0  0
    6.4050   -3.1070   26.6960 N   0  0  0  0  0  0  0  0  0  0  0  0
    6.2240   -4.0260   27.8570 C   0  0  0  0  0  0  0  0  0  0  0  0
    5.9040   -5.4380   27.4640 C   0  0  0  0  0  0  0  0  0  0  0  0
    5.1160   -6.2410   28.3790 C   0  0  0  0  0  0  0  0  0  0  0  0
    5.2850   -6.3650   29.7730 N   0  0  0  0  0  0  0  0  0  0  0  0
    4.3530   -7.2330   30.3500 C   0  0  0  0  0  0  0  0  0  0  0  0
    4.3130   -7.5280   31.6950 C   0  0  0  0  0  0  0  0  0  0  0  0
    5.4900   -7.8040   32.3190 C   0  0  0  0  0  0  0  0  0  0  0  0
    5.5020   -8.1100   33.6470 C   0  0  0  0  0  0  0  0  0  0  0  0
    4.3410   -8.1420   34.3640 C   0  0  0  0  0  0  0  0  0  0  0  0
    3.1310   -7.8590   33.7320 C   0  0  0  0  0  0  0  0  0  0  0  0
    3.0890   -7.5560   32.4290 N   0  0  0  0  0  0  0  0  0  0  0  0
    3.4330   -7.8140   29.4750 C   0  0  0  0  0  0  0  0  0  0  0  0
    3.8130   -7.2050   27.8930 S   0  0  0  0  0  0  0  0  0  0  0  0
    6.8330   -2.6400   23.3290 C   0  0  0  0  0  0  0  0  0  0  0  0
    7.6100   -3.1630   22.1640 C   0  0  0  0  0  0  0  0  0  0  0  0
  1  2  1  0
  2  3  2  0
  2  4  1  0
  4  5  1  0
  5  6  1  0
  6  7  1  0
  7  8  1  0
  8  9  2  0
  8 10  1  0
 10 11  1  0
 11 12  1  0
 12 13  1  0
 13 14  2  0
 14 15  1  0
 15 16  1  0
 16 17  2  0
 17 18  1  0
 18 19  2  0
 19 20  1  0
 16 21  1  0
 20 21  2  0
 15 22  2  0
 13 23  1  0
 22 23  1  0
  7 24  1  0
  4 25  1  0
 24 25  1  0
M  END
