piperidine-amides-583-covalent
     RDKit          3D

 26 28  0  0  0  0  0  0  0  0999 V2000
    7.0300   -3.3150   19.1630 C   0  0  0  0  0  0  0  0  0  0  0  0
    6.2730   -4.0210   20.1780 C   0  0  0  0  0  0  0  0  0  0  0  0
    5.1700   -4.5320   19.8480 O   0  0  0  0  0  0  0  0  0  0  0  0
    6.7180   -4.2100   21.4850 N   0  0  0  0  0  0  0  0  0  0  0  0
    6.5800   -5.5530   22.0940 C   0  0  0  0  0  0  0  0  0  0  0  0
    5.5280   -5.2700   23.2380 C   0  0  0  0  0  0  0  0  0  0  0  0
    5.6870   -3.8220   23.6430 C   0  0  0  0  0  0  0  0  0  0  0  0
    5.1780   -3.5640   25.1180 C   0  0  0  0  0  0  0  0  0  0  0  0
    3.9900   -3.7650   25.2990 O   0  0  0  0  0  0  0  0  0  0  0  0
    6.2290   -3.2100   25.6630 N   0  0  0  0  0  0  0  0  0  0  0  0
    7.4300   -2.8160   26.0320 C   0  0  0  0  0  0  0  0  0  0  0  0
    8.5360   -2.2700   25.4910 C   0  0  0  0  0  0  0  0  0  0  0  0
    9.7050   -3.0170   25.7930 N   0  0  0  0  0  0  0  0  0  0  0  0
   10.7150   -2.4110   25.2750 C   0  0  0  0  0  0  0  0  0  0  0  0
   12.0010   -2.9430   25.4850 C   0  0  0  0  0  0  0  0  0  0  0  0
   12.8820   -1.9040   24.8050 C   0  0  0  0  0  0  0  0  0  0  0  0
   13.9150   -2.6420   25.3350 C   0  0  0  0  0  0  0  0  0  0  0  0
   14.6870   -2.2160   26.1780 O   0  0  0  0  0  0  0  0  0  0  0  0
   14.0840   -3.9500   25.2610 O   0  0  0  0  0  0  0  0  0  0  0  0
   14.0830   -4.6280   26.4370 C   0  0  0  0  0  0  0  0  0  0  0  0
   12.7840   -0.6280   23.9710 C   0  0  0  0  0  0  0  0  0  0  0  0
   11.2100   -0.5000   24.0050 C   0  0  0  0  0  0  0  0  0  0  0  0
   10.3190   -1.3160   24.6220 C   0  0  0  0  0  0  0  0  0  0  0  0
    8.9140   -1.1930   24.7180 N   0  0  0  0  0  0  0  0  0  0  0  0
    7.0680   -3.1940   23.4450 C   0  0  0  0  0  0  0  0  0  0  0  0
    7.4510   -3.1940   22.1640 C   0  0  0  0  0  0  0  0  0  0  0  0
  1  2  1  0
  2  3  2  0
  2  4  1  0
  4  5  1  0
  5  6  1  0
  6  7  1  0
  7  8  1  0
  8  9  2  0
  8 10  1  0
 10 11  1  0
 11 12  1  0
 12 13  2  0
 13 14  1  0
 14 15  2  0
 15 16  1  0
 16 17  1  0
 17 18  2  0
 17 19  1  0
 19 20  1  0
 16 21  2  0
 21 22  1  0
 14 23  1  0
 22 23  2  0
 12 24  1  0
 23 24  1  0
  7 25  1  0
  4 26  1  0
 25 26  1  0
M  END
