piperidine-amides-5166-covalent
     RDKit          3D

 22 23  0  0  0  0  0  0  0  0999 V2000
    7.1210   -3.2690   19.1410 C   0  0  0  0  0  0  0  0  0  0  0  0
    6.3620   -3.9960   20.1850 C   0  0  0  0  0  0  0  0  0  0  0  0
    5.2640   -4.4760   19.8510 O   0  0  0  0  0  0  0  0  0  0  0  0
    6.8930   -4.1830   21.4630 N   0  0  0  0  0  0  0  0  0  0  0  0
    6.4770   -5.3080   22.2240 C   0  0  0  0  0  0  0  0  0  0  0  0
    5.9860   -4.9660   23.5610 C   0  0  0  0  0  0  0  0  0  0  0  0
    6.6850   -3.8400   24.2350 C   0  0  0  0  0  0  0  0  0  0  0  0
    5.9290   -3.3660   25.4080 C   0  0  0  0  0  0  0  0  0  0  0  0
    4.8010   -2.8650   25.2270 O   0  0  0  0  0  0  0  0  0  0  0  0
    6.4730   -3.4820   26.6910 N   0  0  0  0  0  0  0  0  0  0  0  0
    6.7720   -4.8150   27.2660 C   0  0  2  0  0  0  0  0  0  0  0  0
    5.8410   -5.8400   26.7640 C   0  0  0  0  0  0  0  0  0  0  0  0
    6.6880   -4.7790   28.7260 C   0  0  0  0  0  0  0  0  0  0  0  0
    5.4410   -4.9390   29.4590 N   0  0  0  0  0  0  0  0  0  0  0  0
    4.4320   -3.9430   29.6080 C   0  0  0  0  0  0  0  0  0  0  0  0
    3.4030   -4.1380   30.5070 C   0  0  0  0  0  0  0  0  0  0  0  0
    3.1170   -5.3920   30.6620 O   0  0  0  0  0  0  0  0  0  0  0  0
    3.9080   -6.4360   30.2440 C   0  0  0  0  0  0  0  0  0  0  0  0
    5.2470   -6.2240   30.0990 C   0  0  1  0  0  0  0  0  0  0  0  0
    6.0010   -7.1430   29.4350 C   0  0  0  0  0  0  0  0  0  0  0  0
    6.9500   -2.7040   23.2890 C   0  0  0  0  0  0  0  0  0  0  0  0
    7.7120   -3.1960   22.1320 C   0  0  0  0  0  0  0  0  0  0  0  0
  1  2  1  0
  2  3  2  0
  2  4  1  0
  4  5  1  0
  5  6  1  0
  6  7  1  0
  7  8  1  0
  8  9  2  0
  8 10  1  0
 10 11  1  0
 11 12  1  6
 11 13  1  0
 13 14  1  0
 14 15  1  0
 15 16  1  0
 16 17  1  0
 17 18  1  0
 14 19  1  0
 18 19  1  0
 19 20  1  6
  7 21  1  0
  4 22  1  0
 21 22  1  0
M  END
