piperidine-amides-7423-covalent
     RDKit          3D

 18 19  0  0  0  0  0  0  0  0999 V2000
    7.0950   -3.3420   19.2760 C   0  0  0  0  0  0  0  0  0  0  0  0
    6.3740   -4.1190   20.2850 C   0  0  0  0  0  0  0  0  0  0  0  0
    5.3020   -4.6640   19.9230 O   0  0  0  0  0  0  0  0  0  0  0  0
    6.9160   -4.2680   21.5590 N   0  0  0  0  0  0  0  0  0  0  0  0
    7.7590   -3.2550   22.1420 C   0  0  0  0  0  0  0  0  0  0  0  0
    7.1080   -2.7940   23.4020 C   0  0  0  0  0  0  0  0  0  0  0  0
    6.6980   -3.9430   24.2810 C   0  0  0  0  0  0  0  0  0  0  0  0
    5.9830   -3.3840   25.4440 C   0  0  0  0  0  0  0  0  0  0  0  0
    4.7170   -3.4170   25.4910 O   0  0  0  0  0  0  0  0  0  0  0  0
    6.7040   -2.7810   26.4960 N   0  0  0  0  0  0  0  0  0  0  0  0
    6.0570   -1.8400   27.3660 C   0  0  2  0  0  0  0  0  0  0  0  0
    5.7980   -0.4810   26.7700 C   0  0  0  0  0  0  0  0  0  0  0  0
    6.0670    0.4390   27.7260 C   0  0  0  0  0  0  0  0  0  0  0  0
    6.5570   -0.2130   28.8600 C   0  0  0  0  0  0  0  0  0  0  0  0
    6.8130   -1.5830   28.6300 C   0  0  2  0  0  0  0  0  0  0  0  0
    8.1130   -2.0440   28.5340 C   0  0  0  0  0  0  0  0  0  0  0  0
    5.7700   -4.9450   23.5940 C   0  0  0  0  0  0  0  0  0  0  0  0
    6.4560   -5.4160   22.3350 C   0  0  0  0  0  0  0  0  0  0  0  0
  1  2  1  0
  2  3  2  0
  2  4  1  0
  4  5  1  0
  5  6  1  0
  6  7  1  0
  7  8  1  0
  8  9  2  0
  8 10  1  0
 11 10  1  6
 11 12  1  0
 12 13  1  0
 13 14  1  0
 11 15  1  0
 14 15  1  0
 15 16  1  6
  7 17  1  0
  4 18  1  0
 17 18  1  0
M  END
