piperidine-amides-19808-covalent
     RDKit          3D

 22 24  0  0  0  0  0  0  0  0999 V2000
    7.0310   -3.3530   19.3280 C   0  0  0  0  0  0  0  0  0  0  0  0
    6.3910   -4.2140   20.3600 C   0  0  0  0  0  0  0  0  0  0  0  0
    5.4200   -4.8810   19.9950 O   0  0  0  0  0  0  0  0  0  0  0  0
    6.9090   -4.2760   21.6650 N   0  0  0  0  0  0  0  0  0  0  0  0
    6.7340   -5.4510   22.5050 C   0  0  0  0  0  0  0  0  0  0  0  0
    6.1080   -5.0690   23.8300 C   0  0  0  0  0  0  0  0  0  0  0  0
    6.2270   -3.5590   23.9850 C   0  0  0  0  0  0  0  0  0  0  0  0
    5.7600   -3.1090   25.3110 C   0  0  0  0  0  0  0  0  0  0  0  0
    5.2760   -1.9830   25.4120 O   0  0  0  0  0  0  0  0  0  0  0  0
    5.7910   -3.9070   26.4540 N   0  0  0  0  0  0  0  0  0  0  0  0
    6.3110   -3.3470   27.6650 C   0  0  0  0  0  0  0  0  0  0  0  0
    6.5660   -4.5420   28.5630 C   0  0  0  0  0  0  0  0  0  0  0  0
    5.5130   -5.0860   29.1980 C   0  0  0  0  0  0  0  0  0  0  0  0
    5.7550   -6.3100   29.7630 C   0  0  0  0  0  0  0  0  0  0  0  0
    4.8760   -6.5840   30.7810 C   0  0  0  0  0  0  0  0  0  0  0  0
    3.5180   -5.9220   30.7380 C   0  0  0  0  0  0  0  0  0  0  0  0
    3.8560   -5.3790   29.3900 C   0  0  0  0  0  0  0  0  0  0  0  0
    4.5190   -4.0930   29.7840 C   0  0  0  0  0  0  0  0  0  0  0  0
    4.7950   -5.5590   27.9680 C   0  0  0  0  0  0  0  0  0  0  0  0
    4.5600   -4.5100   26.9460 C   0  0  0  0  0  0  0  0  0  0  0  0
    7.5220   -3.0050   23.5820 C   0  0  0  0  0  0  0  0  0  0  0  0
    7.7880   -3.2090   22.1450 C   0  0  0  0  0  0  0  0  0  0  0  0
  1  2  1  0
  2  3  2  0
  2  4  1  0
  4  5  1  0
  5  6  1  0
  6  7  1  0
  7  8  1  0
  8  9  2  0
  8 10  1  0
 10 11  1  0
 11 12  1  0
 13 12  1  0
 13 14  1  0
 14 15  1  0
 15 16  1  0
 16 17  1  0
 13 18  1  0
 17 18  1  0
 13 19  1  0
 10 20  1  0
 19 20  1  0
  7 21  1  0
  4 22  1  0
 21 22  1  0
M  END
