piperidine-amides-19002-covalent
     RDKit          3D

 21 23  0  0  0  0  0  0  0  0999 V2000
    7.1160   -3.3710   19.4530 C   0  0  0  0  0  0  0  0  0  0  0  0
    6.4050   -4.1860   20.4140 C   0  0  0  0  0  0  0  0  0  0  0  0
    5.4430   -4.9130   20.0010 O   0  0  0  0  0  0  0  0  0  0  0  0
    6.7900   -4.1930   21.7760 N   0  0  0  0  0  0  0  0  0  0  0  0
    6.7720   -5.5380   22.4290 C   0  0  0  0  0  0  0  0  0  0  0  0
    6.1190   -5.2520   23.8480 C   0  0  0  0  0  0  0  0  0  0  0  0
    6.3760   -3.8000   24.1350 C   0  0  0  0  0  0  0  0  0  0  0  0
    5.4420   -3.2640   25.3240 C   0  0  0  0  0  0  0  0  0  0  0  0
    4.4310   -2.8160   24.8120 O   0  0  0  0  0  0  0  0  0  0  0  0
    5.9000   -3.4010   26.5200 N   0  0  0  0  0  0  0  0  0  0  0  0
    6.5240   -3.2830   27.6970 C   0  0  0  0  0  0  0  0  0  0  0  0
    6.8550   -4.1300   28.7140 C   0  0  0  0  0  0  0  0  0  0  0  0
    6.4300   -5.4480   28.4930 C   0  0  1  0  0  0  0  0  0  0  0  0
    5.4340   -6.1040   29.1620 C   0  0  0  0  0  0  0  0  0  0  0  0
    5.1560   -5.4860   30.3660 F   0  0  0  0  0  0  0  0  0  0  0  0
    5.7710   -7.4440   29.2020 F   0  0  0  0  0  0  0  0  0  0  0  0
    5.1510   -5.4290   27.7020 C   0  0  2  0  0  0  0  0  0  0  0  0
    4.2040   -4.7080   28.4420 C   0  0  0  0  0  0  0  0  0  0  0  0
    4.9260   -3.9480   27.4060 C   0  0  0  0  0  0  0  0  0  0  0  0
    7.6710   -3.2900   23.8390 C   0  0  0  0  0  0  0  0  0  0  0  0
    7.6810   -3.2080   22.2810 C   0  0  0  0  0  0  0  0  0  0  0  0
  1  2  1  0
  2  3  2  0
  2  4  1  0
  4  5  1  0
  5  6  1  0
  6  7  1  0
  7  8  1  0
  8  9  2  0
  8 10  1  0
 10 11  1  0
 11 12  1  0
 13 12  1  1
 13 14  1  0
 14 15  1  0
 14 16  1  0
 13 17  1  0
 14 17  1  0
 17 18  1  1
 10 19  1  0
 17 19  1  0
  7 20  1  0
  4 21  1  0
 20 21  1  0
M  END
