piperidine-amides-2290-covalent
     RDKit          3D

 27 28  0  0  0  0  0  0  0  0999 V2000
    7.0760   -3.2640   19.2140 C   0  0  0  0  0  0  0  0  0  0  0  0
    6.3360   -4.0530   20.2370 C   0  0  0  0  0  0  0  0  0  0  0  0
    5.2860   -4.5830   19.8890 O   0  0  0  0  0  0  0  0  0  0  0  0
    6.8650   -4.2030   21.5190 N   0  0  0  0  0  0  0  0  0  0  0  0
    7.6010   -3.1440   22.1470 C   0  0  0  0  0  0  0  0  0  0  0  0
    6.8010   -2.6660   23.3210 C   0  0  0  0  0  0  0  0  0  0  0  0
    6.4220   -3.8680   24.1950 C   0  0  0  0  0  0  0  0  0  0  0  0
    5.6300   -3.3490   25.3370 C   0  0  0  0  0  0  0  0  0  0  0  0
    4.4150   -3.1570   25.1810 O   0  0  0  0  0  0  0  0  0  0  0  0
    6.2060   -3.0590   26.5950 N   0  0  0  0  0  0  0  0  0  0  0  0
    7.0500   -4.0260   27.2560 C   0  0  2  0  0  0  0  0  0  0  0  0
    8.3780   -3.9430   26.5350 C   0  0  0  0  0  0  0  0  0  0  0  0
    9.5510   -4.6830   26.5900 C   0  0  0  0  0  0  0  0  0  0  0  0
   10.6860   -4.4490   25.8630 C   0  0  0  0  0  0  0  0  0  0  0  0
   10.8030   -3.4370   24.9740 C   0  0  0  0  0  0  0  0  0  0  0  0
   11.9430   -3.2190   24.2540 O   0  0  0  0  0  0  0  0  0  0  0  0
   12.5300   -1.9980   24.1850 C   0  0  0  0  0  0  0  0  0  0  0  0
   11.5790   -1.0060   23.9430 F   0  0  0  0  0  0  0  0  0  0  0  0
   13.3460   -2.0010   23.0480 F   0  0  0  0  0  0  0  0  0  0  0  0
    9.7780   -2.5070   24.6830 C   0  0  0  0  0  0  0  0  0  0  0  0
    8.5670   -2.8010   25.4980 C   0  0  0  0  0  0  0  0  0  0  0  0
    6.6540   -5.4490   27.1500 C   0  0  0  0  0  0  0  0  0  0  0  0
    5.3550   -5.6480   27.5360 F   0  0  0  0  0  0  0  0  0  0  0  0
    6.8310   -5.8200   25.8400 F   0  0  0  0  0  0  0  0  0  0  0  0
    7.5590   -6.1140   27.9760 F   0  0  0  0  0  0  0  0  0  0  0  0
    5.6650   -4.9100   23.4100 C   0  0  0  0  0  0  0  0  0  0  0  0
    6.5670   -5.3880   22.2790 C   0  0  0  0  0  0  0  0  0  0  0  0
  1  2  1  0
  2  3  2  0
  2  4  1  0
  4  5  1  0
  5  6  1  0
  6  7  1  0
  7  8  1  0
  8  9  2  0
  8 10  1  0
 11 10  1  6
 11 12  1  0
 12 13  2  0
 13 14  1  0
 14 15  2  0
 15 16  1  0
 16 17  1  0
 17 18  1  0
 17 19  1  0
 15 20  1  0
 12 21  1  0
 20 21  2  0
 11 22  1  0
 22 23  1  0
 22 24  1  0
 22 25  1  0
  7 26  1  0
  4 27  1  0
 26 27  1  0
M  END
