piperidine-amides-12053-covalent
     RDKit          3D

 25 26  0  0  0  0  0  0  0  0999 V2000
    7.0910   -3.3300   19.3180 C   0  0  0  0  0  0  0  0  0  0  0  0
    6.3960   -4.1660   20.2890 C   0  0  0  0  0  0  0  0  0  0  0  0
    5.3760   -4.7740   19.9630 O   0  0  0  0  0  0  0  0  0  0  0  0
    6.9310   -4.3230   21.6110 N   0  0  0  0  0  0  0  0  0  0  0  0
    6.5570   -5.4710   22.3940 C   0  0  0  0  0  0  0  0  0  0  0  0
    5.8270   -5.0170   23.6270 C   0  0  0  0  0  0  0  0  0  0  0  0
    6.5520   -3.8010   24.1800 C   0  0  0  0  0  0  0  0  0  0  0  0
    5.7830   -3.2660   25.3370 C   0  0  0  0  0  0  0  0  0  0  0  0
    4.5460   -3.1160   25.3060 O   0  0  0  0  0  0  0  0  0  0  0  0
    6.4940   -2.9290   26.5080 N   0  0  0  0  0  0  0  0  0  0  0  0
    6.3840   -1.6040   27.0730 C   0  0  0  0  0  0  0  0  0  0  0  0
    7.0210   -1.5620   28.4320 C   0  0  0  0  0  0  0  0  0  0  0  0
    7.0420   -0.4060   29.1810 C   0  0  0  0  0  0  0  0  0  0  0  0
    6.4570    0.7700   28.6740 C   0  0  0  0  0  0  0  0  0  0  0  0
    5.8550    0.7820   27.4240 C   0  0  0  0  0  0  0  0  0  0  0  0
    5.2130    1.9500   26.8120 C   0  0  2  0  0  0  0  0  0  0  0  0
    4.0810    2.1090   27.3760 O   0  0  0  0  0  0  0  0  0  0  0  0
    4.1560    2.9560   28.4840 C   0  0  0  0  0  0  0  0  0  0  0  0
    5.1050    1.9580   25.4550 C   0  0  0  0  0  0  0  0  0  0  0  0
    4.8940    3.2050   24.9570 F   0  0  0  0  0  0  0  0  0  0  0  0
    6.2030    1.4410   24.8080 F   0  0  0  0  0  0  0  0  0  0  0  0
    4.0260    1.1270   25.1530 F   0  0  0  0  0  0  0  0  0  0  0  0
    5.8260   -0.4620   26.5990 C   0  0  0  0  0  0  0  0  0  0  0  0
    6.8750   -2.7540   23.2380 C   0  0  0  0  0  0  0  0  0  0  0  0
    7.6880   -3.2830   22.2600 C   0  0  0  0  0  0  0  0  0  0  0  0
  1  2  1  0
  2  3  2  0
  2  4  1  0
  4  5  1  0
  5  6  1  0
  6  7  1  0
  7  8  1  0
  8  9  2  0
  8 10  1  0
 10 11  1  0
 11 12  2  0
 12 13  1  0
 13 14  2  0
 14 15  1  0
 15 16  1  0
 16 17  1  1
 17 18  1  0
 16 19  1  0
 19 20  1  0
 19 21  1  0
 19 22  1  0
 11 23  1  0
 15 23  2  0
  7 24  1  0
  4 25  1  0
 24 25  1  0
M  END
