piperidine-amides-11489-covalent
     RDKit          3D

 21 22  0  0  0  0  0  0  0  0999 V2000
    7.0690   -3.2940   19.2930 C   0  0  0  0  0  0  0  0  0  0  0  0
    6.3440   -4.0850   20.2960 C   0  0  0  0  0  0  0  0  0  0  0  0
    5.3200   -4.6890   19.9390 O   0  0  0  0  0  0  0  0  0  0  0  0
    6.7930   -4.2250   21.6310 N   0  0  0  0  0  0  0  0  0  0  0  0
    6.6660   -5.4820   22.3410 C   0  0  0  0  0  0  0  0  0  0  0  0
    6.0950   -5.1530   23.6950 C   0  0  0  0  0  0  0  0  0  0  0  0
    6.0680   -3.6770   23.9420 C   0  0  0  0  0  0  0  0  0  0  0  0
    5.6160   -3.3100   25.3090 C   0  0  0  0  0  0  0  0  0  0  0  0
    4.3820   -3.1310   25.5210 O   0  0  0  0  0  0  0  0  0  0  0  0
    6.4820   -3.1350   26.4150 N   0  0  0  0  0  0  0  0  0  0  0  0
    6.2350   -3.8010   27.7280 C   0  0  2  0  0  0  0  0  0  0  0  0
    5.9350   -5.2470   27.5350 C   0  0  0  0  0  0  0  0  0  0  0  0
    5.0320   -3.1690   28.4370 C   0  0  0  0  0  0  0  0  0  0  0  0
    3.6750   -3.7540   28.3620 N   0  0  0  0  0  0  0  0  0  0  0  0
    2.6220   -3.0240   29.1080 C   0  0  0  0  0  0  0  0  0  0  0  0
    2.8770   -1.7810   29.8930 C   0  0  0  0  0  0  0  0  0  0  0  0
    1.4990   -0.8550   30.8530 Br  0  0  0  0  0  0  0  0  0  0  0  0
    4.2790   -1.3420   29.8530 C   0  0  0  0  0  0  0  0  0  0  0  0
    5.1960   -2.0350   29.1640 N   0  0  0  0  0  0  0  0  0  0  0  0
    7.4240   -3.1110   23.5920 C   0  0  0  0  0  0  0  0  0  0  0  0
    7.6140   -3.1650   22.2010 C   0  0  0  0  0  0  0  0  0  0  0  0
  1  2  1  0
  2  3  2  0
  2  4  1  0
  4  5  1  0
  5  6  1  0
  6  7  1  0
  7  8  1  0
  8  9  2  0
  8 10  1  0
 10 11  1  0
 11 12  1  6
 11 13  1  0
 13 14  2  0
 14 15  1  0
 15 16  2  0
 16 17  1  0
 16 18  1  0
 13 19  1  0
 18 19  2  0
  7 20  1  0
  4 21  1  0
 20 21  1  0
M  END
