piperidine-amides-19784-covalent
     RDKit          3D

 22 24  0  0  0  0  0  0  0  0999 V2000
    7.1150   -3.2850   19.2350 C   0  0  0  0  0  0  0  0  0  0  0  0
    6.3940   -4.0970   20.2460 C   0  0  0  0  0  0  0  0  0  0  0  0
    5.3340   -4.6210   19.9090 O   0  0  0  0  0  0  0  0  0  0  0  0
    6.9510   -4.2910   21.5040 N   0  0  0  0  0  0  0  0  0  0  0  0
    6.6400   -5.4460   22.3000 C   0  0  0  0  0  0  0  0  0  0  0  0
    5.8010   -5.0020   23.4600 C   0  0  0  0  0  0  0  0  0  0  0  0
    6.5140   -3.8400   24.1650 C   0  0  0  0  0  0  0  0  0  0  0  0
    5.6220   -3.3780   25.2400 C   0  0  0  0  0  0  0  0  0  0  0  0
    4.7200   -2.5660   25.0210 O   0  0  0  0  0  0  0  0  0  0  0  0
    5.8240   -3.8720   26.5210 N   0  0  0  0  0  0  0  0  0  0  0  0
    5.2580   -3.1100   27.6040 C   0  0  0  0  0  0  0  0  0  0  0  0
    5.5730   -3.8420   28.8830 C   0  0  0  0  0  0  0  0  0  0  0  0
    6.0630   -5.1140   28.9040 C   0  0  0  0  0  0  0  0  0  0  0  0
    6.6030   -5.5550   27.7560 C   0  0  0  0  0  0  0  0  0  0  0  0
    6.9570   -4.5840   26.8630 C   0  0  0  0  0  0  0  0  0  0  0  0
    8.0160   -3.5880   27.0980 C   0  0  0  0  0  0  0  0  0  0  0  0
    8.3530   -4.3140   28.3620 C   0  0  0  0  0  0  0  0  0  0  0  0
    8.9530   -5.6220   27.9130 C   0  0  0  0  0  0  0  0  0  0  0  0
    8.8350   -5.6530   26.4420 C   0  0  0  0  0  0  0  0  0  0  0  0
    7.4140   -5.7400   26.0310 C   0  0  0  0  0  0  0  0  0  0  0  0
    6.9990   -2.7580   23.2960 C   0  0  0  0  0  0  0  0  0  0  0  0
    7.7460   -3.2370   22.1160 C   0  0  0  0  0  0  0  0  0  0  0  0
  1  2  1  0
  2  3  2  0
  2  4  1  0
  4  5  1  0
  5  6  1  0
  6  7  1  0
  7  8  1  0
  8  9  2  0
  8 10  1  0
 10 11  1  0
 11 12  1  0
 12 13  1  0
 13 14  1  0
 15 10  1  0
 14 15  1  0
 15 16  1  0
 16 17  1  0
 17 18  1  0
 18 19  1  0
 15 20  1  0
 19 20  1  0
  7 21  1  0
  4 22  1  0
 21 22  1  0
M  END
