piperidine-amides-5349-covalent
     RDKit          3D

 21 22  0  0  0  0  0  0  0  0999 V2000
    7.1620   -3.2900   19.2430 C   0  0  0  0  0  0  0  0  0  0  0  0
    6.3600   -4.0350   20.2390 C   0  0  0  0  0  0  0  0  0  0  0  0
    5.2630   -4.4880   19.8590 O   0  0  0  0  0  0  0  0  0  0  0  0
    6.8570   -4.2590   21.5210 N   0  0  0  0  0  0  0  0  0  0  0  0
    7.6300   -3.2480   22.1540 C   0  0  0  0  0  0  0  0  0  0  0  0
    7.2040   -2.9130   23.5050 C   0  0  0  0  0  0  0  0  0  0  0  0
    6.4370   -3.9520   24.2170 C   0  0  0  0  0  0  0  0  0  0  0  0
    5.7490   -3.3290   25.3750 C   0  0  0  0  0  0  0  0  0  0  0  0
    4.5100   -3.2170   25.3360 O   0  0  0  0  0  0  0  0  0  0  0  0
    6.4710   -2.8770   26.5000 N   0  0  0  0  0  0  0  0  0  0  0  0
    6.2820   -1.5510   27.1370 C   0  0  0  0  0  0  0  0  0  0  0  0
    6.1360   -0.4250   26.1690 C   0  0  0  0  0  0  0  0  0  0  0  0
    6.5970   -0.4070   24.8100 C   0  0  0  0  0  0  0  0  0  0  0  0
    6.4230    0.6710   24.0010 C   0  0  0  0  0  0  0  0  0  0  0  0
    5.7870    1.8020   24.4740 C   0  0  0  0  0  0  0  0  0  0  0  0
    5.5920    3.2720   23.2610 Br  0  0  0  0  0  0  0  0  0  0  0  0
    5.3080    1.8770   25.7690 C   0  0  0  0  0  0  0  0  0  0  0  0
    5.4380    0.8290   26.6620 C   0  0  0  0  0  0  0  0  0  0  0  0
    4.9890    0.8120   27.9940 F   0  0  0  0  0  0  0  0  0  0  0  0
    5.5650   -4.8040   23.3740 C   0  0  0  0  0  0  0  0  0  0  0  0
    6.3200   -5.3250   22.3220 C   0  0  0  0  0  0  0  0  0  0  0  0
  1  2  1  0
  2  3  2  0
  2  4  1  0
  4  5  1  0
  5  6  1  0
  6  7  1  0
  7  8  1  0
  8  9  2  0
  8 10  1  0
 10 11  1  0
 11 12  1  0
 12 13  2  0
 13 14  1  0
 14 15  2  0
 15 16  1  0
 15 17  1  0
 12 18  1  0
 17 18  2  0
 18 19  1  0
  7 20  1  0
  4 21  1  0
 20 21  1  0
M  END
