piperidine-amides-6978-covalent
     RDKit          3D

 22 22  0  0  0  0  0  0  0  0999 V2000
    7.1110   -3.2720   19.2040 C   0  0  0  0  0  0  0  0  0  0  0  0
    6.3610   -4.0470   20.2070 C   0  0  0  0  0  0  0  0  0  0  0  0
    5.2850   -4.6090   19.9020 O   0  0  0  0  0  0  0  0  0  0  0  0
    6.8730   -4.2070   21.4970 N   0  0  0  0  0  0  0  0  0  0  0  0
    7.6490   -3.1460   22.0990 C   0  0  0  0  0  0  0  0  0  0  0  0
    6.7940   -2.5950   23.2340 C   0  0  0  0  0  0  0  0  0  0  0  0
    6.6120   -3.7580   24.1720 C   0  0  0  0  0  0  0  0  0  0  0  0
    5.8580   -3.3100   25.3590 C   0  0  0  0  0  0  0  0  0  0  0  0
    4.6110   -3.2520   25.2930 O   0  0  0  0  0  0  0  0  0  0  0  0
    6.5760   -2.9480   26.5210 N   0  0  0  0  0  0  0  0  0  0  0  0
    6.3100   -3.5370   27.8140 C   0  0  0  0  0  0  0  0  0  0  0  0
    5.9010   -4.9940   27.6770 C   0  0  1  0  0  0  0  0  0  0  0  0
    6.5710   -5.9740   28.3430 C   0  0  0  0  0  0  0  0  0  0  0  0
    4.4790   -5.0270   28.2100 C   0  0  0  0  0  0  0  0  0  0  0  0
    4.0930   -4.1430   29.2120 O   0  0  0  0  0  0  0  0  0  0  0  0
    3.5540   -5.9080   27.7350 O   0  0  0  0  0  0  0  0  0  0  0  0
    3.1830   -6.9380   28.5650 C   0  0  0  0  0  0  0  0  0  0  0  0
    2.5000   -7.7880   27.7320 C   0  0  0  0  0  0  0  0  0  0  0  0
    4.1940   -7.8080   29.3190 C   0  0  0  0  0  0  0  0  0  0  0  0
    2.2720   -6.3230   29.5850 C   0  0  0  0  0  0  0  0  0  0  0  0
    5.9160   -4.9100   23.5710 C   0  0  0  0  0  0  0  0  0  0  0  0
    6.4840   -5.3190   22.2900 C   0  0  0  0  0  0  0  0  0  0  0  0
  1  2  1  0
  2  3  2  0
  2  4  1  0
  4  5  1  0
  5  6  1  0
  6  7  1  0
  7  8  1  0
  8  9  2  0
  8 10  1  0
 10 11  1  0
 11 12  1  0
 12 13  1  1
 12 14  1  0
 14 15  2  0
 14 16  1  0
 17 16  1  0
 17 18  1  0
 17 19  1  0
 17 20  1  0
  7 21  1  0
  4 22  1  0
 21 22  1  0
M  END
