piperidine-amides-2473-covalent
     RDKit          3D

 26 28  0  0  0  0  0  0  0  0999 V2000
    7.0890   -3.3140   19.2870 C   0  0  0  0  0  0  0  0  0  0  0  0
    6.3900   -4.1620   20.2850 C   0  0  0  0  0  0  0  0  0  0  0  0
    5.3480   -4.7130   19.9370 O   0  0  0  0  0  0  0  0  0  0  0  0
    6.9530   -4.3460   21.5450 N   0  0  0  0  0  0  0  0  0  0  0  0
    7.6880   -3.2890   22.1930 C   0  0  0  0  0  0  0  0  0  0  0  0
    6.8500   -2.7390   23.2990 C   0  0  0  0  0  0  0  0  0  0  0  0
    6.4770   -3.8860   24.2250 C   0  0  0  0  0  0  0  0  0  0  0  0
    5.7770   -3.3350   25.3980 C   0  0  0  0  0  0  0  0  0  0  0  0
    4.5530   -3.1480   25.3450 O   0  0  0  0  0  0  0  0  0  0  0  0
    6.4810   -3.0240   26.5780 N   0  0  0  0  0  0  0  0  0  0  0  0
    6.3740   -1.6970   27.1400 C   0  0  0  0  0  0  0  0  0  0  0  0
    7.0150   -1.5090   28.4770 C   0  0  0  0  0  0  0  0  0  0  0  0
    7.0640   -0.3790   29.2320 C   0  0  0  0  0  0  0  0  0  0  0  0
    6.4580    0.7460   28.7320 C   0  0  0  0  0  0  0  0  0  0  0  0
    6.4810    1.9170   29.4710 O   0  0  0  0  0  0  0  0  0  0  0  0
    5.8020    0.8050   27.5080 C   0  0  0  0  0  0  0  0  0  0  0  0
    5.1230    2.0440   26.9410 C   0  0  0  0  0  0  0  0  0  0  0  0
    5.5180    2.1790   25.6570 N   0  0  0  0  0  0  0  0  0  0  0  0
    6.4500    3.1410   25.5280 C   0  0  0  0  0  0  0  0  0  0  0  0
    6.5420    4.1370   24.4080 C   0  0  0  0  0  0  0  0  0  0  0  0
    5.5350    3.7940   23.5140 O   0  0  0  0  0  0  0  0  0  0  0  0
    4.9800    2.5100   23.3990 C   0  0  0  0  0  0  0  0  0  0  0  0
    4.4400    2.0860   24.7310 C   0  0  0  0  0  0  0  0  0  0  0  0
    5.7230   -0.4250   26.6330 C   0  0  0  0  0  0  0  0  0  0  0  0
    5.6280   -4.9020   23.4920 C   0  0  0  0  0  0  0  0  0  0  0  0
    6.5060   -5.4310   22.3910 C   0  0  0  0  0  0  0  0  0  0  0  0
  1  2  1  0
  2  3  2  0
  2  4  1  0
  4  5  1  0
  5  6  1  0
  6  7  1  0
  7  8  1  0
  8  9  2  0
  8 10  1  0
 10 11  1  0
 11 12  2  0
 12 13  1  0
 13 14  2  0
 14 15  1  0
 14 16  1  0
 16 17  1  0
 17 18  1  0
 18 19  1  0
 19 20  1  0
 20 21  1  0
 21 22  1  0
 18 23  1  0
 22 23  1  0
 11 24  1  0
 16 24  2  0
  7 25  1  0
  4 26  1  0
 25 26  1  0
M  END
