piperidine-amides-25074-covalent
     RDKit          3D

 24 27  0  0  0  0  0  0  0  0999 V2000
    7.0930   -3.3700   19.2950 C   0  0  0  0  0  0  0  0  0  0  0  0
    6.4070   -4.1870   20.3260 C   0  0  0  0  0  0  0  0  0  0  0  0
    5.3930   -4.7930   19.9750 O   0  0  0  0  0  0  0  0  0  0  0  0
    6.9550   -4.2740   21.6100 N   0  0  0  0  0  0  0  0  0  0  0  0
    6.7560   -5.4440   22.4470 C   0  0  0  0  0  0  0  0  0  0  0  0
    6.1300   -5.0210   23.7490 C   0  0  0  0  0  0  0  0  0  0  0  0
    6.3050   -3.5120   23.8500 C   0  0  0  0  0  0  0  0  0  0  0  0
    5.8060   -3.0040   25.1290 C   0  0  0  0  0  0  0  0  0  0  0  0
    5.3920   -1.8480   25.1980 O   0  0  0  0  0  0  0  0  0  0  0  0
    5.7280   -3.7860   26.2600 N   0  0  0  0  0  0  0  0  0  0  0  0
    4.4060   -4.3280   26.3560 C   0  0  0  0  0  0  0  0  0  0  0  0
    4.1190   -4.6520   27.7800 C   0  0  0  0  0  0  0  0  0  0  0  0
    5.1330   -4.8850   28.5950 C   0  0  1  0  0  0  0  0  0  0  0  0
    6.3930   -4.6830   28.1740 C   0  0  0  0  0  0  0  0  0  0  0  0
    6.3030   -3.4930   27.5010 C   0  0  0  0  0  0  0  0  0  0  0  0
    5.0050   -4.0320   29.7330 C   0  0  0  0  0  0  0  0  0  0  0  0
    6.0710   -3.1530   29.8820 F   0  0  0  0  0  0  0  0  0  0  0  0
    3.7850   -3.3930   30.0020 F   0  0  0  0  0  0  0  0  0  0  0  0
    5.0560   -5.5370   29.9470 C   0  0  1  0  0  0  0  0  0  0  0  0
    4.1670   -6.1090   28.9290 C   0  0  0  0  0  0  0  0  0  0  0  0
    5.1660   -7.1730   29.1670 C   0  0  0  0  0  0  0  0  0  0  0  0
    6.0810   -6.4290   30.1430 C   0  0  0  0  0  0  0  0  0  0  0  0
    7.6370   -3.0290   23.5010 C   0  0  0  0  0  0  0  0  0  0  0  0
    7.8840   -3.2380   22.0660 C   0  0  0  0  0  0  0  0  0  0  0  0
  1  2  1  0
  2  3  2  0
  2  4  1  0
  4  5  1  0
  5  6  1  0
  6  7  1  0
  7  8  1  0
  8  9  2  0
  8 10  1  0
 10 11  1  0
 11 12  1  0
 13 12  1  6
 13 14  1  0
 10 15  1  0
 14 15  1  0
 13 16  1  0
 16 17  1  0
 16 18  1  0
 13 19  1  0
 16 19  1  0
 19 20  1  6
 20 21  1  0
 19 22  1  0
 21 22  1  0
  7 23  1  0
  4 24  1  0
 23 24  1  0
M  END
