piperidine-amides-23488-covalent
     RDKit          3D

 24 26  0  0  0  0  0  0  0  0999 V2000
    7.1420   -3.3430   19.2970 C   0  0  0  0  0  0  0  0  0  0  0  0
    6.3990   -4.1330   20.2850 C   0  0  0  0  0  0  0  0  0  0  0  0
    5.3080   -4.6320   19.9190 O   0  0  0  0  0  0  0  0  0  0  0  0
    6.9530   -4.3620   21.5610 N   0  0  0  0  0  0  0  0  0  0  0  0
    6.6910   -5.6100   22.2020 C   0  0  0  0  0  0  0  0  0  0  0  0
    6.2050   -5.3860   23.5360 C   0  0  0  0  0  0  0  0  0  0  0  0
    6.1920   -3.9550   23.7940 C   0  0  0  0  0  0  0  0  0  0  0  0
    5.5170   -3.6360   25.0710 C   0  0  0  0  0  0  0  0  0  0  0  0
    4.4230   -3.0470   25.0420 O   0  0  0  0  0  0  0  0  0  0  0  0
    6.0400   -3.9590   26.3120 N   0  0  0  0  0  0  0  0  0  0  0  0
    5.4630   -4.9440   27.1280 C   0  0  0  0  0  0  0  0  0  0  0  0
    5.1150   -4.6070   28.4740 C   0  0  0  0  0  0  0  0  0  0  0  0
    6.3120   -3.8270   28.9620 C   0  0  0  0  0  0  0  0  0  0  0  0
    6.3940   -2.5250   28.5140 C   0  0  0  0  0  0  0  0  0  0  0  0
    6.2480   -2.7300   27.0210 C   0  0  0  0  0  0  0  0  0  0  0  0
    6.3080   -1.4520   26.2380 C   0  0  0  0  0  0  0  0  0  0  0  0
    6.4920   -0.2320   27.1480 C   0  0  0  0  0  0  0  0  0  0  0  0
    6.6100   -0.0950   28.5450 N   0  0  0  0  0  0  0  0  0  0  0  0
    6.5490   -1.3220   29.1940 C   0  0  0  0  0  0  0  0  0  0  0  0
    6.6440   -1.1010   30.5180 N   0  0  0  0  0  0  0  0  0  0  0  0
    5.3780   -0.8570   31.2650 C   0  0  0  0  0  0  0  0  0  0  0  0
    7.9750   -0.5400   30.6540 C   0  0  0  0  0  0  0  0  0  0  0  0
    7.5630   -3.4010   23.6330 C   0  0  0  0  0  0  0  0  0  0  0  0
    7.7010   -3.3020   22.2430 C   0  0  0  0  0  0  0  0  0  0  0  0
  1  2  1  0
  2  3  2  0
  2  4  1  0
  4  5  1  0
  5  6  1  0
  6  7  1  0
  7  8  1  0
  8  9  2  0
  8 10  1  0
 10 11  1  0
 11 12  1  0
 12 13  1  0
 13 14  1  0
 10 15  1  0
 14 15  2  0
 15 16  1  0
 16 17  2  0
 17 18  1  0
 14 19  1  0
 18 19  2  0
 19 20  1  0
 20 21  1  0
 20 22  1  0
  7 23  1  0
  4 24  1  0
 23 24  1  0
M  END
