piperidine-amides-12034-covalent
     RDKit          3D

 25 27  0  0  0  0  0  0  0  0999 V2000
    7.0620   -3.3230   19.3080 C   0  0  0  0  0  0  0  0  0  0  0  0
    6.3370   -4.1770   20.2460 C   0  0  0  0  0  0  0  0  0  0  0  0
    5.2690   -4.6810   19.9190 O   0  0  0  0  0  0  0  0  0  0  0  0
    6.8990   -4.4800   21.5270 N   0  0  0  0  0  0  0  0  0  0  0  0
    7.5860   -3.4630   22.2540 C   0  0  0  0  0  0  0  0  0  0  0  0
    6.6910   -2.9800   23.3460 C   0  0  0  0  0  0  0  0  0  0  0  0
    6.3510   -4.1660   24.2420 C   0  0  0  0  0  0  0  0  0  0  0  0
    5.3300   -3.7460   25.2410 C   0  0  0  0  0  0  0  0  0  0  0  0
    4.1310   -3.6190   24.9340 O   0  0  0  0  0  0  0  0  0  0  0  0
    5.6840   -3.4640   26.5790 N   0  0  0  0  0  0  0  0  0  0  0  0
    4.9740   -2.3540   27.1640 C   0  0  0  0  0  0  0  0  0  0  0  0
    5.6710   -1.1700   26.6060 C   0  0  2  0  0  0  0  0  0  0  0  0
    5.9970   -1.2200   25.3120 C   0  0  0  0  0  0  0  0  0  0  0  0
    7.2680   -1.5670   25.6070 C   0  0  1  0  0  0  0  0  0  0  0  0
    8.3320   -1.1030   24.8000 O   0  0  0  0  0  0  0  0  0  0  0  0
    9.1810   -2.0410   24.1390 C   0  0  0  0  0  0  0  0  0  0  0  0
   10.4320   -1.3890   23.7960 C   0  0  0  0  0  0  0  0  0  0  0  0
   10.5850   -0.1610   23.1430 C   0  0  0  0  0  0  0  0  0  0  0  0
   11.8350    0.3510   22.8720 C   0  0  0  0  0  0  0  0  0  0  0  0
   12.9860   -0.2940   23.2130 C   0  0  0  0  0  0  0  0  0  0  0  0
   12.8650   -1.5660   23.8910 C   0  0  0  0  0  0  0  0  0  0  0  0
   11.6040   -2.0650   24.1570 C   0  0  0  0  0  0  0  0  0  0  0  0
    6.9760   -1.1270   27.0770 C   0  0  0  0  0  0  0  0  0  0  0  0
    5.7010   -5.2690   23.4260 C   0  0  0  0  0  0  0  0  0  0  0  0
    6.5740   -5.6900   22.2340 C   0  0  0  0  0  0  0  0  0  0  0  0
  1  2  1  0
  2  3  2  0
  2  4  1  0
  4  5  1  0
  5  6  1  0
  6  7  1  0
  7  8  1  0
  8  9  2  0
  8 10  1  0
 10 11  1  0
 12 11  1  1
 12 13  1  0
 13 14  1  0
 14 15  1  6
 15 16  1  0
 16 17  1  0
 17 18  2  0
 18 19  1  0
 19 20  2  0
 20 21  1  0
 17 22  1  0
 21 22  2  0
 12 23  1  0
 14 23  1  0
  7 24  1  0
  4 25  1  0
 24 25  1  0
M  END
