piperidine-amides-18842-covalent
     RDKit          3D

 22 25  0  0  0  0  0  0  0  0999 V2000
    7.0270   -3.4300   19.3490 C   0  0  0  0  0  0  0  0  0  0  0  0
    6.3940   -4.2330   20.3730 C   0  0  0  0  0  0  0  0  0  0  0  0
    5.3990   -4.9350   20.0080 O   0  0  0  0  0  0  0  0  0  0  0  0
    6.8650   -4.3060   21.7080 N   0  0  0  0  0  0  0  0  0  0  0  0
    6.6740   -5.5550   22.4820 C   0  0  0  0  0  0  0  0  0  0  0  0
    5.7940   -5.0330   23.6960 C   0  0  0  0  0  0  0  0  0  0  0  0
    6.5430   -3.8760   24.3510 C   0  0  0  0  0  0  0  0  0  0  0  0
    5.7120   -3.2680   25.5830 C   0  0  0  0  0  0  0  0  0  0  0  0
    4.8250   -2.5430   25.1540 O   0  0  0  0  0  0  0  0  0  0  0  0
    6.1610   -3.6900   26.7100 N   0  0  0  0  0  0  0  0  0  0  0  0
    6.6340   -3.8040   27.9680 C   0  0  0  0  0  0  0  0  0  0  0  0
    7.0790   -4.9640   28.2120 C   0  0  1  0  0  0  0  0  0  0  0  0
    6.4190   -5.8460   29.1270 C   0  0  0  0  0  0  0  0  0  0  0  0
    5.0570   -6.1370   28.7720 C   0  0  0  0  0  0  0  0  0  0  0  0
    4.1830   -6.7410   29.7890 C   0  0  0  0  0  0  0  0  0  0  0  0
    2.9320   -6.8690   29.0710 C   0  0  0  0  0  0  0  0  0  0  0  0
    2.4160   -6.5590   27.7080 C   0  0  0  0  0  0  0  0  0  0  0  0
    3.6520   -5.9390   26.9550 C   0  0  0  0  0  0  0  0  0  0  0  0
    5.0540   -5.7120   27.5090 C   0  0  0  0  0  0  0  0  0  0  0  0
    6.1970   -5.2070   26.9900 C   0  0  1  0  0  0  0  0  0  0  0  0
    6.9430   -2.7730   23.3770 C   0  0  0  0  0  0  0  0  0  0  0  0
    7.6160   -3.2380   22.3030 C   0  0  0  0  0  0  0  0  0  0  0  0
  1  2  1  0
  2  3  2  0
  2  4  1  0
  4  5  1  0
  5  6  1  0
  6  7  1  0
  7  8  1  0
  8  9  2  0
  8 10  1  0
 10 11  1  0
 12 11  1  1
 12 13  1  0
 13 14  1  0
 14 15  1  0
 15 16  2  0
 16 17  1  0
 17 18  2  0
 14 19  2  0
 18 19  1  0
 20 10  1  1
 12 20  1  0
 19 20  1  0
  7 21  1  0
  4 22  1  0
 21 22  1  0
M  END
