piperidine-amides-33783-covalent
     RDKit          3D

 30 32  0  0  0  0  0  0  0  0999 V2000
    7.1620   -3.2870   19.2230 C   0  0  0  0  0  0  0  0  0  0  0  0
    6.3770   -4.0140   20.2320 C   0  0  0  0  0  0  0  0  0  0  0  0
    5.2820   -4.5050   19.8680 O   0  0  0  0  0  0  0  0  0  0  0  0
    6.8800   -4.1920   21.5430 N   0  0  0  0  0  0  0  0  0  0  0  0
    7.6350   -3.1360   22.1160 C   0  0  0  0  0  0  0  0  0  0  0  0
    7.3640   -2.8580   23.5250 C   0  0  0  0  0  0  0  0  0  0  0  0
    6.8230   -3.9670   24.3440 C   0  0  0  0  0  0  0  0  0  0  0  0
    6.2050   -3.4130   25.5920 C   0  0  0  0  0  0  0  0  0  0  0  0
    4.9830   -3.1420   25.6120 O   0  0  0  0  0  0  0  0  0  0  0  0
    7.0000   -3.1710   26.7390 N   0  0  0  0  0  0  0  0  0  0  0  0
    7.6450   -1.9520   27.0430 C   0  0  0  0  0  0  0  0  0  0  0  0
    7.6500   -4.3150   27.3540 C   0  0  0  0  0  0  0  0  0  0  0  0
    6.8270   -5.5860   27.6530 C   0  0  0  0  0  0  0  0  0  0  0  0
    5.4900   -5.4230   27.9730 C   0  0  0  0  0  0  0  0  0  0  0  0
    5.0880   -6.4840   26.9410 C   0  0  0  0  0  0  0  0  0  0  0  0
    3.8030   -6.7450   27.6440 C   0  0  0  0  0  0  0  0  0  0  0  0
    3.2720   -7.1100   26.2430 C   0  0  0  0  0  0  0  0  0  0  0  0
    2.0910   -6.4770   25.5890 C   0  0  0  0  0  0  0  0  0  0  0  0
    1.9600   -7.1400   24.2660 C   0  0  0  0  0  0  0  0  0  0  0  0
    0.8570   -6.7750   23.2630 C   0  0  0  0  0  0  0  0  0  0  0  0
    0.1040   -5.5390   23.6480 C   0  0  0  0  0  0  0  0  0  0  0  0
   -0.9300   -5.0850   22.8300 C   0  0  0  0  0  0  0  0  0  0  0  0
   -1.2800   -5.7370   21.6800 C   0  0  0  0  0  0  0  0  0  0  0  0
   -0.5480   -6.9760   21.2720 C   0  0  0  0  0  0  0  0  0  0  0  0
   -0.9860   -7.5690   20.0700 F   0  0  0  0  0  0  0  0  0  0  0  0
    0.4790   -7.4080   22.1040 C   0  0  0  0  0  0  0  0  0  0  0  0
    2.9490   -8.0510   24.1680 N   0  0  0  0  0  0  0  0  0  0  0  0
    3.7670   -8.0800   25.3110 O   0  0  0  0  0  0  0  0  0  0  0  0
    5.7990   -4.7540   23.5480 C   0  0  0  0  0  0  0  0  0  0  0  0
    6.4900   -5.3260   22.3260 C   0  0  0  0  0  0  0  0  0  0  0  0
  1  2  1  0
  2  3  2  0
  2  4  1  0
  4  5  1  0
  5  6  1  0
  6  7  1  0
  7  8  1  0
  8  9  2  0
  8 10  1  0
 10 11  1  0
 10 12  1  0
 12 13  1  0
 13 14  1  0
 14 15  1  0
 15 16  1  0
 16 17  1  0
 17 18  2  0
 18 19  1  0
 19 20  1  0
 20 21  2  0
 21 22  1  0
 22 23  2  0
 23 24  1  0
 24 25  1  0
 20 26  1  0
 24 26  2  0
 19 27  2  0
 17 28  1  0
 27 28  1  0
  7 29  1  0
  4 30  1  0
 29 30  1  0
M  END
