piperidine-amides-23400-covalent
     RDKit          3D

 24 26  0  0  0  0  0  0  0  0999 V2000
    7.0770   -3.3120   19.2690 C   0  0  0  0  0  0  0  0  0  0  0  0
    6.3840   -4.1180   20.2890 C   0  0  0  0  0  0  0  0  0  0  0  0
    5.3370   -4.7110   19.9400 O   0  0  0  0  0  0  0  0  0  0  0  0
    6.9140   -4.2540   21.5930 N   0  0  0  0  0  0  0  0  0  0  0  0
    6.5640   -5.3920   22.3670 C   0  0  0  0  0  0  0  0  0  0  0  0
    6.4140   -5.1400   23.8000 C   0  0  0  0  0  0  0  0  0  0  0  0
    6.6940   -3.7570   24.2670 C   0  0  0  0  0  0  0  0  0  0  0  0
    5.7280   -3.3680   25.3420 C   0  0  0  0  0  0  0  0  0  0  0  0
    4.5080   -3.4690   25.1120 O   0  0  0  0  0  0  0  0  0  0  0  0
    6.1260   -2.8620   26.6000 N   0  0  0  0  0  0  0  0  0  0  0  0
    6.0860   -3.5670   27.8220 C   0  0  0  0  0  0  0  0  0  0  0  0
    5.3770   -2.8760   28.9000 C   0  0  0  0  0  0  0  0  0  0  0  0
    3.9640   -3.3650   28.9830 C   0  0  0  0  0  0  0  0  0  0  0  0
    3.0640   -2.8970   29.8810 C   0  0  0  0  0  0  0  0  0  0  0  0
    3.5100   -1.8030   30.8730 C   0  0  0  0  0  0  0  0  0  0  0  0
    4.9470   -1.2860   30.8110 C   0  0  0  0  0  0  0  0  0  0  0  0
    5.9600   -1.8510   29.7630 C   0  0  0  0  0  0  0  0  0  0  0  0
    7.2910   -1.4600   29.6170 O   0  0  0  0  0  0  0  0  0  0  0  0
    7.9280   -0.5780   30.5360 C   0  0  0  0  0  0  0  0  0  0  0  0
    5.7970   -1.5060   26.8460 C   0  0  0  0  0  0  0  0  0  0  0  0
    6.4130   -0.4410   26.2270 C   0  0  0  0  0  0  0  0  0  0  0  0
    6.8570   -0.7520   27.6900 C   0  0  0  0  0  0  0  0  0  0  0  0
    6.7370   -2.7440   23.1840 C   0  0  0  0  0  0  0  0  0  0  0  0
    7.6070   -3.1610   22.2090 C   0  0  0  0  0  0  0  0  0  0  0  0
  1  2  1  0
  2  3  2  0
  2  4  1  0
  4  5  1  0
  5  6  1  0
  6  7  1  0
  7  8  1  0
  8  9  2  0
  8 10  1  0
 10 11  1  0
 11 12  1  0
 12 13  2  0
 13 14  1  0
 14 15  2  0
 15 16  1  0
 12 17  1  0
 16 17  2  0
 17 18  1  0
 18 19  1  0
 10 20  1  0
 20 21  1  0
 20 22  1  0
 21 22  1  0
  7 23  1  0
  4 24  1  0
 23 24  1  0
M  END
