piperidine-amides-29665-covalent
     RDKit          3D

 22 23  0  0  0  0  0  0  0  0999 V2000
    7.0680   -3.3260   19.2620 C   0  0  0  0  0  0  0  0  0  0  0  0
    6.3210   -4.1450   20.2140 C   0  0  0  0  0  0  0  0  0  0  0  0
    5.2340   -4.6090   19.8930 O   0  0  0  0  0  0  0  0  0  0  0  0
    6.8730   -4.4700   21.4970 N   0  0  0  0  0  0  0  0  0  0  0  0
    6.3600   -5.6120   22.2020 C   0  0  0  0  0  0  0  0  0  0  0  0
    5.7170   -5.1730   23.4950 C   0  0  0  0  0  0  0  0  0  0  0  0
    6.5810   -4.0820   24.1170 C   0  0  0  0  0  0  0  0  0  0  0  0
    6.0020   -3.5930   25.3930 C   0  0  0  0  0  0  0  0  0  0  0  0
    4.7700   -3.5080   25.5940 O   0  0  0  0  0  0  0  0  0  0  0  0
    6.9070   -3.2020   26.4100 N   0  0  0  0  0  0  0  0  0  0  0  0
    7.7330   -4.2160   27.0260 C   0  0  0  0  0  0  0  0  0  0  0  0
    7.1870   -1.7950   26.5290 C   0  0  0  0  0  0  0  0  0  0  0  0
    6.7740   -0.9300   25.5230 C   0  0  0  0  0  0  0  0  0  0  0  0
    5.5910   -0.0880   25.6960 N   0  0  0  0  0  0  0  0  0  0  0  0
    5.4860    0.6380   24.5390 N   0  0  0  0  0  0  0  0  0  0  0  0
    4.5140    1.6290   24.1620 C   0  0  0  0  0  0  0  0  0  0  0  0
    3.5570    2.0070   25.0730 C   0  0  0  0  0  0  0  0  0  0  0  0
    6.5860    0.1580   23.8190 C   0  0  0  0  0  0  0  0  0  0  0  0
    7.3980   -0.7660   24.3250 C   0  0  0  0  0  0  0  0  0  0  0  0
    8.9510   -1.5370   23.5150 Br  0  0  0  0  0  0  0  0  0  0  0  0
    6.6020   -2.9340   23.1300 C   0  0  0  0  0  0  0  0  0  0  0  0
    7.5130   -3.3780   22.1900 C   0  0  0  0  0  0  0  0  0  0  0  0
  1  2  1  0
  2  3  2  0
  2  4  1  0
  4  5  1  0
  5  6  1  0
  6  7  1  0
  7  8  1  0
  8  9  2  0
  8 10  1  0
 10 11  1  0
 10 12  1  0
 12 13  1  0
 13 14  2  0
 14 15  1  0
 15 16  1  0
 16 17  1  0
 15 18  1  0
 13 19  1  0
 18 19  2  0
 19 20  1  0
  7 21  1  0
  4 22  1  0
 21 22  1  0
M  END
