piperidine-amides-1163-covalent
     RDKit          3D

 23 24  0  0  0  0  0  0  0  0999 V2000
    7.1690   -3.2470   19.1670 C   0  0  0  0  0  0  0  0  0  0  0  0
    6.3960   -3.9890   20.1990 C   0  0  0  0  0  0  0  0  0  0  0  0
    5.3230   -4.5390   19.8860 O   0  0  0  0  0  0  0  0  0  0  0  0
    6.9380   -4.0800   21.4930 N   0  0  0  0  0  0  0  0  0  0  0  0
    7.8150   -3.0600   22.0230 C   0  0  0  0  0  0  0  0  0  0  0  0
    7.4510   -2.9270   23.4870 C   0  0  0  0  0  0  0  0  0  0  0  0
    6.0060   -3.2570   23.5440 C   0  0  0  0  0  0  0  0  0  0  0  0
    5.4290   -2.9140   24.8470 C   0  0  0  0  0  0  0  0  0  0  0  0
    4.5030   -2.1020   24.8840 O   0  0  0  0  0  0  0  0  0  0  0  0
    5.9460   -3.5270   25.9570 N   0  0  0  0  0  0  0  0  0  0  0  0
    5.8930   -4.9100   26.1790 C   0  0  0  0  0  0  0  0  0  0  0  0
    4.7740   -5.5960   26.5110 C   0  0  0  0  0  0  0  0  0  0  0  0
    4.8580   -6.2460   27.7130 C   0  0  0  0  0  0  0  0  0  0  0  0
    4.2600   -7.4100   28.1100 C   0  0  0  0  0  0  0  0  0  0  0  0
    4.5080   -7.9470   29.4610 C   0  0  0  0  0  0  0  0  0  0  0  0
    5.4550   -7.1880   30.3830 C   0  0  0  0  0  0  0  0  0  0  0  0
    5.8710   -7.4810   31.6910 O   0  0  0  0  0  0  0  0  0  0  0  0
    5.0430   -8.0930   32.6500 C   0  0  0  0  0  0  0  0  0  0  0  0
    5.9750   -6.0430   29.8590 C   0  0  0  0  0  0  0  0  0  0  0  0
    5.6760   -5.5600   28.5500 C   0  0  0  0  0  0  0  0  0  0  0  0
    6.4470   -4.0490   28.1890 Cl  0  0  0  0  0  0  0  0  0  0  0  0
    5.6460   -4.6780   23.2070 C   0  0  0  0  0  0  0  0  0  0  0  0
    6.6060   -5.1720   22.3580 C   0  0  0  0  0  0  0  0  0  0  0  0
  1  2  1  0
  2  3  2  0
  2  4  1  0
  4  5  1  0
  5  6  1  0
  6  7  1  0
  7  8  1  0
  8  9  2  0
  8 10  1  0
 10 11  1  0
 11 12  1  0
 12 13  1  0
 13 14  2  0
 14 15  1  0
 15 16  2  0
 16 17  1  0
 17 18  1  0
 16 19  1  0
 13 20  1  0
 19 20  2  0
 20 21  1  0
  7 22  1  0
  4 23  1  0
 22 23  1  0
M  END
