piperidine-amides-8233-covalent
     RDKit          3D

 25 27  0  0  0  0  0  0  0  0999 V2000
    7.0910   -3.2890   19.2510 C   0  0  0  0  0  0  0  0  0  0  0  0
    6.3740   -4.0780   20.2500 C   0  0  0  0  0  0  0  0  0  0  0  0
    5.3180   -4.6430   19.9170 O   0  0  0  0  0  0  0  0  0  0  0  0
    6.9210   -4.2240   21.5460 N   0  0  0  0  0  0  0  0  0  0  0  0
    6.5750   -5.3860   22.3100 C   0  0  0  0  0  0  0  0  0  0  0  0
    5.7970   -4.9740   23.5320 C   0  0  0  0  0  0  0  0  0  0  0  0
    6.5900   -3.9010   24.2590 C   0  0  0  0  0  0  0  0  0  0  0  0
    5.8400   -3.4290   25.4660 C   0  0  0  0  0  0  0  0  0  0  0  0
    4.7080   -2.9950   25.2630 O   0  0  0  0  0  0  0  0  0  0  0  0
    6.4630   -3.5260   26.7070 N   0  0  0  0  0  0  0  0  0  0  0  0
    6.8430   -4.7820   27.2620 C   0  0  0  0  0  0  0  0  0  0  0  0
    5.7950   -5.6800   27.4440 C   0  0  0  0  0  0  0  0  0  0  0  0
    5.3260   -5.9850   28.7010 C   0  0  0  0  0  0  0  0  0  0  0  0
    5.9720   -6.8940   29.5290 C   0  0  0  0  0  0  0  0  0  0  0  0
    5.1240   -6.8890   30.7080 C   0  0  0  0  0  0  0  0  0  0  0  0
    4.1360   -6.0440   30.4900 N   0  0  0  0  0  0  0  0  0  0  0  0
    3.1370   -5.7480   31.3180 C   0  0  0  0  0  0  0  0  0  0  0  0
    3.3660   -5.4580   32.7670 C   0  0  0  0  0  0  0  0  0  0  0  0
    2.1570   -5.1390   33.5990 C   0  0  0  0  0  0  0  0  0  0  0  0
    0.7910   -5.1360   32.8930 C   0  0  0  0  0  0  0  0  0  0  0  0
    0.7300   -5.4210   31.5620 C   0  0  0  0  0  0  0  0  0  0  0  0
    1.8380   -5.7130   30.8000 C   0  0  0  0  0  0  0  0  0  0  0  0
    4.1810   -5.4440   29.2940 N   0  0  0  0  0  0  0  0  0  0  0  0
    6.8350   -2.7200   23.3870 C   0  0  0  0  0  0  0  0  0  0  0  0
    7.6080   -3.1380   22.1820 C   0  0  0  0  0  0  0  0  0  0  0  0
  1  2  1  0
  2  3  2  0
  2  4  1  0
  4  5  1  0
  5  6  1  0
  6  7  1  0
  7  8  1  0
  8  9  2  0
  8 10  1  0
 10 11  1  0
 11 12  1  0
 12 13  1  0
 13 14  1  0
 14 15  2  0
 15 16  1  0
 16 17  1  0
 17 18  2  0
 18 19  1  0
 19 20  2  0
 20 21  1  0
 17 22  1  0
 21 22  2  0
 13 23  2  0
 16 23  1  0
  7 24  1  0
  4 25  1  0
 24 25  1  0
M  END
