piperidine-amides-16998-covalent
     RDKit          3D

 19 20  0  0  0  0  0  0  0  0999 V2000
    7.1090   -3.2800   19.2680 C   0  0  0  0  0  0  0  0  0  0  0  0
    6.3750   -4.0530   20.2890 C   0  0  0  0  0  0  0  0  0  0  0  0
    5.3070   -4.5940   19.9080 O   0  0  0  0  0  0  0  0  0  0  0  0
    6.8660   -4.2260   21.6150 N   0  0  0  0  0  0  0  0  0  0  0  0
    7.6180   -3.1640   22.2060 C   0  0  0  0  0  0  0  0  0  0  0  0
    7.2840   -2.9390   23.6050 C   0  0  0  0  0  0  0  0  0  0  0  0
    6.0820   -3.6850   24.0010 C   0  0  0  0  0  0  0  0  0  0  0  0
    5.5790   -3.3860   25.3900 C   0  0  0  0  0  0  0  0  0  0  0  0
    4.3570   -3.4880   25.5920 O   0  0  0  0  0  0  0  0  0  0  0  0
    6.3930   -2.9850   26.4770 N   0  0  0  0  0  0  0  0  0  0  0  0
    6.4140   -3.6190   27.7510 C   0  0  0  0  0  0  0  0  0  0  0  0
    6.6160   -1.5530   26.5680 C   0  0  0  0  0  0  0  0  0  0  0  0
    5.3630   -0.6490   26.6110 C   0  0  0  0  0  0  0  0  0  0  0  0
    5.6300    0.7260   26.3050 N   0  0  0  0  0  0  0  0  0  0  0  0
    4.3210    1.3240   26.4170 C   0  0  0  0  0  0  0  0  0  0  0  0
    3.1600    0.3480   26.8020 C   0  0  0  0  0  0  0  0  0  0  0  0
    3.8360   -1.2250   26.9830 S   0  0  0  0  0  0  0  0  0  0  0  0
    6.1540   -5.1550   23.7750 C   0  0  0  0  0  0  0  0  0  0  0  0
    6.5270   -5.4580   22.3070 C   0  0  0  0  0  0  0  0  0  0  0  0
  1  2  1  0
  2  3  2  0
  2  4  1  0
  4  5  1  0
  5  6  1  0
  6  7  1  0
  7  8  1  0
  8  9  2  0
  8 10  1  0
 10 11  1  0
 10 12  1  0
 12 13  1  0
 13 14  2  0
 14 15  1  0
 15 16  2  0
 13 17  1  0
 16 17  1  0
  7 18  1  0
  4 19  1  0
 18 19  1  0
M  END
