piperidine-amides-7393-covalent
     RDKit          3D

 19 20  0  0  0  0  0  0  0  0999 V2000
    7.0890   -3.2550   19.2200 C   0  0  0  0  0  0  0  0  0  0  0  0
    6.3520   -3.9850   20.2570 C   0  0  0  0  0  0  0  0  0  0  0  0
    5.2990   -4.5720   19.8930 O   0  0  0  0  0  0  0  0  0  0  0  0
    6.8330   -4.0440   21.5670 N   0  0  0  0  0  0  0  0  0  0  0  0
    7.6920   -3.0310   22.1310 C   0  0  0  0  0  0  0  0  0  0  0  0
    7.1760   -2.6670   23.4980 C   0  0  0  0  0  0  0  0  0  0  0  0
    5.7790   -3.2000   23.7800 C   0  0  0  0  0  0  0  0  0  0  0  0
    5.3480   -2.9310   25.1900 C   0  0  0  0  0  0  0  0  0  0  0  0
    4.2170   -3.3430   25.5220 O   0  0  0  0  0  0  0  0  0  0  0  0
    6.1100   -2.2510   26.1780 N   0  0  0  0  0  0  0  0  0  0  0  0
    6.7320   -3.0050   27.2310 C   0  0  0  0  0  0  0  0  0  0  0  0
    7.5470   -4.0610   26.5680 C   0  0  0  0  0  0  0  0  0  0  0  0
    7.5320   -4.2430   25.2070 C   0  0  0  0  0  0  0  0  0  0  0  0
    8.2930   -5.2000   24.7500 C   0  0  0  0  0  0  0  0  0  0  0  0
    9.1380   -5.9870   25.9200 S   0  0  0  0  0  0  0  0  0  0  0  0
    8.4050   -4.9800   27.1890 C   0  0  0  0  0  0  0  0  0  0  0  0
    8.6130   -5.0510   28.4990 C   0  0  0  0  0  0  0  0  0  0  0  0
    5.5740   -4.7110   23.5650 C   0  0  0  0  0  0  0  0  0  0  0  0
    6.3770   -5.1690   22.3670 C   0  0  0  0  0  0  0  0  0  0  0  0
  1  2  1  0
  2  3  2  0
  2  4  1  0
  4  5  1  0
  5  6  1  0
  6  7  1  0
  7  8  1  0
  8  9  2  0
  8 10  1  0
 10 11  1  0
 11 12  1  0
 12 13  1  0
 13 14  2  0
 14 15  1  0
 12 16  2  0
 15 16  1  0
 16 17  1  0
  7 18  1  0
  4 19  1  0
 18 19  1  0
M  END
