piperidine-amides-25620-covalent
     RDKit          3D

 25 27  0  0  0  0  0  0  0  0999 V2000
    7.0200   -3.3450   19.3240 C   0  0  0  0  0  0  0  0  0  0  0  0
    6.3690   -4.2160   20.3390 C   0  0  0  0  0  0  0  0  0  0  0  0
    5.3700   -4.8300   19.9760 O   0  0  0  0  0  0  0  0  0  0  0  0
    6.9100   -4.3540   21.6250 N   0  0  0  0  0  0  0  0  0  0  0  0
    6.6500   -5.5080   22.4480 C   0  0  0  0  0  0  0  0  0  0  0  0
    5.7830   -5.0960   23.6100 C   0  0  0  0  0  0  0  0  0  0  0  0
    6.3610   -3.8500   24.2860 C   0  0  0  0  0  0  0  0  0  0  0  0
    5.3460   -3.3480   25.2540 C   0  0  0  0  0  0  0  0  0  0  0  0
    4.4690   -2.5840   24.8520 O   0  0  0  0  0  0  0  0  0  0  0  0
    5.3460   -3.7190   26.6210 N   0  0  0  0  0  0  0  0  0  0  0  0
    4.1610   -3.5580   27.4390 C   0  0  0  0  0  0  0  0  0  0  0  0
    4.4480   -3.7640   28.9370 C   0  0  0  0  0  0  0  0  0  0  0  0
    5.3860   -4.8680   29.1450 N   0  0  0  0  0  0  0  0  0  0  0  0
    4.6740   -6.1100   28.7830 C   0  0  0  0  0  0  0  0  0  0  0  0
    4.2700   -6.5990   27.6910 O   0  0  0  0  0  0  0  0  0  0  0  0
    4.4620   -6.7780   29.9360 C   0  0  0  0  0  0  0  0  0  0  0  0
    3.4630   -7.4840   30.4960 C   0  0  0  0  0  0  0  0  0  0  0  0
    3.4970   -8.1380   31.8780 C   0  0  0  0  0  0  0  0  0  0  0  0
    4.7910   -7.9580   32.6720 C   0  0  0  0  0  0  0  0  0  0  0  0
    5.7900   -7.2390   32.0800 N   0  0  0  0  0  0  0  0  0  0  0  0
    5.6680   -6.6800   30.8010 C   0  0  0  0  0  0  0  0  0  0  0  0
    6.5550   -4.7080   28.3510 C   0  0  0  0  0  0  0  0  0  0  0  0
    6.4140   -3.4870   27.5130 C   0  0  0  0  0  0  0  0  0  0  0  0
    6.8780   -2.7890   23.3820 C   0  0  0  0  0  0  0  0  0  0  0  0
    7.6790   -3.2950   22.2380 C   0  0  0  0  0  0  0  0  0  0  0  0
  1  2  1  0
  2  3  2  0
  2  4  1  0
  4  5  1  0
  5  6  1  0
  6  7  1  0
  7  8  1  0
  8  9  2  0
  8 10  1  0
 10 11  1  0
 11 12  1  0
 12 13  1  0
 13 14  1  0
 14 15  2  0
 14 16  1  0
 16 17  2  0
 17 18  1  0
 18 19  2  0
 19 20  1  0
 16 21  1  0
 20 21  2  0
 13 22  1  0
 10 23  1  0
 22 23  1  0
  7 24  1  0
  4 25  1  0
 24 25  1  0
M  END
