piperidine-amides-12197-covalent
     RDKit          3D

 23 24  0  0  0  0  0  0  0  0999 V2000
    7.1140   -3.3150   19.2180 C   0  0  0  0  0  0  0  0  0  0  0  0
    6.3410   -4.0390   20.2160 C   0  0  0  0  0  0  0  0  0  0  0  0
    5.2820   -4.5730   19.8970 O   0  0  0  0  0  0  0  0  0  0  0  0
    6.8460   -4.1840   21.5520 N   0  0  0  0  0  0  0  0  0  0  0  0
    7.6920   -3.1710   22.1290 C   0  0  0  0  0  0  0  0  0  0  0  0
    7.0770   -2.6490   23.3900 C   0  0  0  0  0  0  0  0  0  0  0  0
    6.5350   -3.8190   24.1960 C   0  0  0  0  0  0  0  0  0  0  0  0
    5.7380   -3.2830   25.3340 C   0  0  0  0  0  0  0  0  0  0  0  0
    4.5220   -3.0440   25.2240 O   0  0  0  0  0  0  0  0  0  0  0  0
    6.3760   -3.0240   26.5740 N   0  0  0  0  0  0  0  0  0  0  0  0
    6.1980   -3.9660   27.6570 C   0  0  0  0  0  0  0  0  0  0  0  0
    4.7960   -3.8160   28.1910 C   0  0  0  0  0  0  0  0  0  0  0  0
    3.8230   -4.3880   27.3960 C   0  0  0  0  0  0  0  0  0  0  0  0
    2.4750   -4.5410   27.7840 C   0  0  0  0  0  0  0  0  0  0  0  0
    1.9460   -5.6630   27.1830 C   0  0  0  0  0  0  0  0  0  0  0  0
    1.8040   -3.4010   27.4040 C   0  0  0  0  0  0  0  0  0  0  0  0
    2.3470   -4.5010   29.1960 O   0  0  0  0  0  0  0  0  0  0  0  0
    3.4650   -5.0490   29.8370 C   0  0  0  0  0  0  0  0  0  0  0  0
    3.5900   -6.3330   29.3380 C   0  0  0  0  0  0  0  0  0  0  0  0
    3.4370   -5.0750   31.3570 C   0  0  0  0  0  0  0  0  0  0  0  0
    4.6760   -4.2640   29.4730 C   0  0  0  0  0  0  0  0  0  0  0  0
    5.7070   -4.8200   23.3980 C   0  0  0  0  0  0  0  0  0  0  0  0
    6.4880   -5.3090   22.3580 C   0  0  0  0  0  0  0  0  0  0  0  0
  1  2  1  0
  2  3  2  0
  2  4  1  0
  4  5  1  0
  5  6  1  0
  6  7  1  0
  7  8  1  0
  8  9  2  0
  8 10  1  0
 10 11  1  0
 11 12  1  0
 12 13  1  0
 13 14  1  0
 14 15  1  0
 14 16  1  0
 14 17  1  0
 17 18  1  0
 18 19  1  0
 18 20  1  0
 12 21  1  0
 18 21  1  0
  7 22  1  0
  4 23  1  0
 22 23  1  0
M  END
