piperidine-amides-18-covalent
     RDKit          3D

 20 21  0  0  0  0  0  0  0  0999 V2000
    7.1400   -3.3770   19.4800 C   0  0  0  0  0  0  0  0  0  0  0  0
    6.4640   -4.2470   20.4110 C   0  0  0  0  0  0  0  0  0  0  0  0
    5.4380   -4.8870   20.0010 O   0  0  0  0  0  0  0  0  0  0  0  0
    6.9420   -4.4370   21.7300 N   0  0  0  0  0  0  0  0  0  0  0  0
    6.4210   -5.5500   22.5370 C   0  0  0  0  0  0  0  0  0  0  0  0
    5.4810   -4.7360   23.5120 C   0  0  0  0  0  0  0  0  0  0  0  0
    6.3720   -3.7810   24.2900 C   0  0  0  0  0  0  0  0  0  0  0  0
    5.5860   -3.0480   25.4860 C   0  0  0  0  0  0  0  0  0  0  0  0
    4.8710   -2.1940   24.9960 O   0  0  0  0  0  0  0  0  0  0  0  0
    5.8460   -3.5140   26.6580 N   0  0  0  0  0  0  0  0  0  0  0  0
    6.3660   -3.9520   27.7910 C   0  0  0  0  0  0  0  0  0  0  0  0
    6.2690   -5.1900   28.2160 C   0  0  1  0  0  0  0  0  0  0  0  0
    6.6980   -5.5400   29.4870 O   0  0  0  0  0  0  0  0  0  0  0  0
    6.1820   -6.7580   29.8890 C   0  0  0  0  0  0  0  0  0  0  0  0
    4.7480   -5.2170   28.1970 C   0  0  0  0  0  0  0  0  0  0  0  0
    4.6010   -3.9050   27.3130 C   0  0  1  0  0  0  0  0  0  0  0  0
    4.3160   -3.1410   28.4640 C   0  0  0  0  0  0  0  0  0  0  0  0
    4.2570   -1.7360   28.3350 N   0  0  0  0  0  0  0  0  0  0  0  0
    7.0380   -2.7380   23.4140 C   0  0  0  0  0  0  0  0  0  0  0  0
    7.8390   -3.4780   22.3530 C   0  0  0  0  0  0  0  0  0  0  0  0
  1  2  1  0
  2  3  2  0
  2  4  1  0
  4  5  1  0
  5  6  1  0
  6  7  1  0
  7  8  1  0
  8  9  2  0
  8 10  1  0
 10 11  1  0
 11 12  1  0
 12 13  1  1
 13 14  1  0
 12 15  1  0
 10 16  1  0
 15 16  1  0
 16 17  1  1
 17 18  1  0
  7 19  1  0
  4 20  1  0
 19 20  1  0
M  END
