piperidine-amides-1606-covalent
     RDKit          3D

 21 21  0  0  0  0  0  0  0  0999 V2000
    7.0400   -3.2520   19.2890 C   0  0  0  0  0  0  0  0  0  0  0  0
    6.2550   -4.0610   20.2730 C   0  0  0  0  0  0  0  0  0  0  0  0
    5.2210   -4.6160   19.8930 O   0  0  0  0  0  0  0  0  0  0  0  0
    6.7050   -4.2210   21.6040 N   0  0  0  0  0  0  0  0  0  0  0  0
    6.5910   -5.5130   22.2400 C   0  0  0  0  0  0  0  0  0  0  0  0
    6.1310   -5.3060   23.6890 C   0  0  0  0  0  0  0  0  0  0  0  0
    5.8700   -3.8540   23.9030 C   0  0  0  0  0  0  0  0  0  0  0  0
    5.2650   -3.5730   25.2450 C   0  0  0  0  0  0  0  0  0  0  0  0
    4.0470   -3.7400   25.3080 O   0  0  0  0  0  0  0  0  0  0  0  0
    5.9960   -3.1330   26.3660 N   0  0  0  0  0  0  0  0  0  0  0  0
    6.7400   -3.8680   27.3430 C   0  0  0  0  0  0  0  0  0  0  0  0
    6.3750   -3.8790   28.6620 C   0  0  0  0  0  0  0  0  0  0  0  0
    6.6580   -5.3540   27.0060 C   0  0  0  0  0  0  0  0  0  0  0  0
    8.0750   -3.5080   27.4330 C   0  0  0  0  0  0  0  0  0  0  0  0
    8.4140   -2.8700   26.1430 C   0  0  0  0  0  0  0  0  0  0  0  0
    9.1160   -3.7130   25.0940 C   0  0  0  0  0  0  0  0  0  0  0  0
    9.9140   -3.1090   24.1290 O   0  0  0  0  0  0  0  0  0  0  0  0
    8.9890   -5.0790   25.1090 O   0  0  0  0  0  0  0  0  0  0  0  0
    9.7240   -5.8450   26.0650 C   0  0  0  0  0  0  0  0  0  0  0  0
    7.1470   -3.0500   23.6390 C   0  0  0  0  0  0  0  0  0  0  0  0
    7.4130   -3.0990   22.1740 C   0  0  0  0  0  0  0  0  0  0  0  0
  1  2  1  0
  2  3  2  0
  2  4  1  0
  4  5  1  0
  5  6  1  0
  6  7  1  0
  7  8  1  0
  8  9  2  0
  8 10  1  0
 11 10  1  0
 11 12  1  0
 11 13  1  0
 11 14  1  0
 14 15  1  0
 15 16  1  0
 16 17  2  0
 16 18  1  0
 18 19  1  0
  7 20  1  0
  4 21  1  0
 20 21  1  0
M  END
