piperidine-amides-17069-covalent
     RDKit          3D

 20 21  0  0  0  0  0  0  0  0999 V2000
    7.0610   -3.3740   19.3170 C   0  0  0  0  0  0  0  0  0  0  0  0
    6.4060   -4.2050   20.3380 C   0  0  0  0  0  0  0  0  0  0  0  0
    5.3800   -4.8340   19.9810 O   0  0  0  0  0  0  0  0  0  0  0  0
    6.9500   -4.3210   21.6400 N   0  0  0  0  0  0  0  0  0  0  0  0
    6.6440   -5.4890   22.4040 C   0  0  0  0  0  0  0  0  0  0  0  0
    6.1230   -5.1780   23.7270 C   0  0  0  0  0  0  0  0  0  0  0  0
    6.1140   -3.7320   23.9900 C   0  0  0  0  0  0  0  0  0  0  0  0
    5.5370   -3.3260   25.3130 C   0  0  0  0  0  0  0  0  0  0  0  0
    4.6070   -2.5040   25.3220 O   0  0  0  0  0  0  0  0  0  0  0  0
    5.9760   -3.8310   26.5430 N   0  0  0  0  0  0  0  0  0  0  0  0
    5.4730   -4.9450   27.2130 C   0  0  0  0  0  0  0  0  0  0  0  0
    5.8380   -4.9570   28.6070 C   0  0  0  0  0  0  0  0  0  0  0  0
    6.6400   -3.6570   28.6690 C   0  0  0  0  0  0  0  0  0  0  0  0
    6.5130   -2.9220   27.4920 C   0  0  2  0  0  0  0  0  0  0  0  0
    5.4550   -2.1130   28.2450 C   0  0  0  0  0  0  0  0  0  0  0  0
    4.1580   -2.1100   27.7380 O   0  0  0  0  0  0  0  0  0  0  0  0
    5.7620   -1.4070   29.3850 O   0  0  0  0  0  0  0  0  0  0  0  0
    6.9800   -0.9430   29.2750 C   0  0  0  0  0  0  0  0  0  0  0  0
    7.5130   -3.1790   23.7420 C   0  0  0  0  0  0  0  0  0  0  0  0
    7.7280   -3.2500   22.2500 C   0  0  0  0  0  0  0  0  0  0  0  0
  1  2  1  0
  2  3  2  0
  2  4  1  0
  4  5  1  0
  5  6  1  0
  6  7  1  0
  7  8  1  0
  8  9  2  0
  8 10  1  0
 10 11  1  0
 11 12  1  0
 12 13  1  0
 10 14  1  0
 13 14  1  0
 14 15  1  1
 15 16  2  0
 15 17  1  0
 17 18  1  0
  7 19  1  0
  4 20  1  0
 19 20  1  0
M  END
