piperidine-amides-31552-covalent
     RDKit          3D

 28 30  0  0  0  0  0  0  0  0999 V2000
    7.1210   -3.2740   19.3370 C   0  0  0  0  0  0  0  0  0  0  0  0
    6.3860   -4.0350   20.3250 C   0  0  0  0  0  0  0  0  0  0  0  0
    5.3820   -4.7170   19.9440 O   0  0  0  0  0  0  0  0  0  0  0  0
    6.7700   -4.0620   21.6840 N   0  0  0  0  0  0  0  0  0  0  0  0
    6.7400   -5.3810   22.3610 C   0  0  0  0  0  0  0  0  0  0  0  0
    5.8470   -5.0940   23.6370 C   0  0  0  0  0  0  0  0  0  0  0  0
    6.1070   -3.6700   24.0840 C   0  0  0  0  0  0  0  0  0  0  0  0
    5.4950   -3.4300   25.5390 C   0  0  0  0  0  0  0  0  0  0  0  0
    4.4500   -4.0520   25.6430 O   0  0  0  0  0  0  0  0  0  0  0  0
    6.2280   -2.6390   26.2180 N   0  0  0  0  0  0  0  0  0  0  0  0
    6.9910   -1.5460   26.4820 C   0  0  0  0  0  0  0  0  0  0  0  0
    6.1950   -3.1230   27.5530 C   0  0  0  0  0  0  0  0  0  0  0  0
    5.0470   -3.7850   28.0440 C   0  0  0  0  0  0  0  0  0  0  0  0
    4.9380   -5.2650   27.8980 C   0  0  0  0  0  0  0  0  0  0  0  0
    3.6080   -5.8760   28.5010 C   0  0  0  0  0  0  0  0  0  0  0  0
    2.7140   -4.9390   29.0940 C   0  0  0  0  0  0  0  0  0  0  0  0
    1.5010   -5.3610   29.6690 C   0  0  0  0  0  0  0  0  0  0  0  0
    1.3800   -6.6460   30.0310 N   0  0  0  0  0  0  0  0  0  0  0  0
    2.5030   -7.4460   30.4670 C   0  0  0  0  0  0  0  0  0  0  0  0
    2.0200   -8.3710   31.6330 C   0  0  0  0  0  0  0  0  0  0  0  0
    1.0070   -7.8940   32.3420 N   0  0  0  0  0  0  0  0  0  0  0  0
    1.2770   -7.1700   33.5580 C   0  0  0  0  0  0  0  0  0  0  0  0
   -0.0880   -7.4440   31.6840 C   0  0  0  0  0  0  0  0  0  0  0  0
    0.1340   -7.2280   30.3580 C   0  0  0  0  0  0  0  0  0  0  0  0
    2.9450   -3.6150   29.1530 C   0  0  0  0  0  0  0  0  0  0  0  0
    4.0680   -3.0570   28.6470 C   0  0  0  0  0  0  0  0  0  0  0  0
    7.4130   -3.0440   23.7440 C   0  0  0  0  0  0  0  0  0  0  0  0
    7.6640   -3.1030   22.2730 C   0  0  0  0  0  0  0  0  0  0  0  0
  1  2  1  0
  2  3  2  0
  2  4  1  0
  4  5  1  0
  5  6  1  0
  6  7  1  0
  7  8  1  0
  8  9  2  0
  8 10  1  0
 10 11  1  0
 10 12  1  0
 12 13  1  0
 13 14  2  0
 14 15  1  0
 15 16  2  0
 16 17  1  0
 17 18  1  0
 18 19  1  0
 19 20  1  0
 20 21  1  0
 21 22  1  0
 21 23  1  0
 18 24  1  0
 23 24  1  0
 16 25  1  0
 13 26  1  0
 25 26  2  0
  7 27  1  0
  4 28  1  0
 27 28  1  0
M  END
