piperidine-amides-13380-covalent
     RDKit          3D

 26 28  0  0  0  0  0  0  0  0999 V2000
    7.1370   -3.2590   19.2200 C   0  0  0  0  0  0  0  0  0  0  0  0
    6.3700   -4.0310   20.2220 C   0  0  0  0  0  0  0  0  0  0  0  0
    5.2710   -4.4880   19.8580 O   0  0  0  0  0  0  0  0  0  0  0  0
    6.8900   -4.2820   21.4990 N   0  0  0  0  0  0  0  0  0  0  0  0
    6.4550   -5.4280   22.2140 C   0  0  0  0  0  0  0  0  0  0  0  0
    5.9170   -5.1200   23.5390 C   0  0  0  0  0  0  0  0  0  0  0  0
    6.5920   -4.0150   24.2630 C   0  0  0  0  0  0  0  0  0  0  0  0
    5.7280   -3.5080   25.3460 C   0  0  0  0  0  0  0  0  0  0  0  0
    4.5670   -3.9480   25.4480 O   0  0  0  0  0  0  0  0  0  0  0  0
    6.1920   -2.5340   26.2340 N   0  0  0  0  0  0  0  0  0  0  0  0
    7.2160   -2.7620   27.2700 C   0  0  0  0  0  0  0  0  0  0  0  0
    7.3030   -1.5290   28.1130 C   0  0  2  0  0  0  0  0  0  0  0  0
    6.5320   -1.5280   29.3460 C   0  0  0  0  0  0  0  0  0  0  0  0
    6.5850   -0.3930   30.1150 C   0  0  0  0  0  0  0  0  0  0  0  0
    6.5530    0.8270   29.4700 C   0  0  0  0  0  0  0  0  0  0  0  0
    6.4630    0.8390   28.0260 N   0  0  0  0  0  0  0  0  0  0  0  0
    5.5580    1.5990   27.3790 C   0  0  0  0  0  0  0  0  0  0  0  0
    6.8890   -0.3130   27.2890 C   0  0  1  0  0  0  0  0  0  0  0  0
    7.7920    0.1750   26.3620 C   0  0  0  0  0  0  0  0  0  0  0  0
    7.7220    1.2490   25.5460 C   0  0  0  0  0  0  0  0  0  0  0  0
    8.7590    1.4690   24.7450 N   0  0  0  0  0  0  0  0  0  0  0  0
    9.6570    0.4740   24.9920 N   0  0  0  0  0  0  0  0  0  0  0  0
   10.8470    0.3640   24.3540 C   0  0  0  0  0  0  0  0  0  0  0  0
    9.1390   -0.3700   25.9830 C   0  0  0  0  0  0  0  0  0  0  0  0
    6.9900   -2.8670   23.3160 C   0  0  0  0  0  0  0  0  0  0  0  0
    7.7140   -3.3270   22.2050 C   0  0  0  0  0  0  0  0  0  0  0  0
  1  2  1  0
  2  3  2  0
  2  4  1  0
  4  5  1  0
  5  6  1  0
  6  7  1  0
  7  8  1  0
  8  9  2  0
  8 10  1  0
 10 11  1  0
 12 11  1  6
 12 13  1  0
 13 14  1  0
 14 15  1  0
 15 16  1  0
 16 17  1  0
 12 18  1  0
 16 18  1  0
 18 19  1  1
 19 20  1  0
 20 21  2  0
 21 22  1  0
 22 23  1  0
 19 24  2  0
 22 24  1  0
  7 25  1  0
  4 26  1  0
 25 26  1  0
M  END
