piperidine-amides-57-covalent
     RDKit          3D

 23 24  0  0  0  0  0  0  0  0999 V2000
    7.0860   -3.2980   19.1740 C   0  0  0  0  0  0  0  0  0  0  0  0
    6.3290   -3.9680   20.2140 C   0  0  0  0  0  0  0  0  0  0  0  0
    5.2460   -4.5280   19.8740 O   0  0  0  0  0  0  0  0  0  0  0  0
    6.7460   -4.0860   21.5550 N   0  0  0  0  0  0  0  0  0  0  0  0
    7.6840   -3.0810   22.1210 C   0  0  0  0  0  0  0  0  0  0  0  0
    6.7430   -2.3770   23.1670 C   0  0  0  0  0  0  0  0  0  0  0  0
    6.3940   -3.4850   24.1230 C   0  0  0  0  0  0  0  0  0  0  0  0
    5.7430   -2.9650   25.4840 C   0  0  0  0  0  0  0  0  0  0  0  0
    4.6550   -2.4360   25.2940 O   0  0  0  0  0  0  0  0  0  0  0  0
    6.5480   -3.2610   26.4370 N   0  0  0  0  0  0  0  0  0  0  0  0
    7.4270   -3.6640   27.4050 C   0  0  0  0  0  0  0  0  0  0  0  0
    8.4500   -4.5450   27.5910 C   0  0  0  0  0  0  0  0  0  0  0  0
    8.4410   -5.5130   26.5740 C   0  0  0  0  0  0  0  0  0  0  0  0
    9.4480   -6.5670   26.4390 C   0  0  0  0  0  0  0  0  0  0  0  0
   10.5330   -5.9710   25.8270 O   0  0  0  0  0  0  0  0  0  0  0  0
    9.1900   -7.8850   26.8960 O   0  0  0  0  0  0  0  0  0  0  0  0
    9.9580   -9.2260   26.6420 C   0  0  0  0  0  0  0  0  0  0  0  0
    9.7850  -10.6920   27.9430 C   0  0  0  0  0  0  0  0  0  0  0  0
    8.6470   -4.4450   25.4870 C   0  0  0  0  0  0  0  0  0  0  0  0
    7.5230   -5.1910   24.8720 C   0  0  0  0  0  0  0  0  0  0  0  0
    6.9840   -5.7920   26.1510 C   0  0  0  0  0  0  0  0  0  0  0  0
    5.5250   -4.5480   23.4050 C   0  0  0  0  0  0  0  0  0  0  0  0
    6.2510   -5.1520   22.4040 C   0  0  0  0  0  0  0  0  0  0  0  0
  1  2  1  0
  2  3  2  0
  2  4  1  0
  4  5  1  0
  5  6  1  0
  6  7  1  0
  7  8  1  0
  8  9  2  0
  8 10  1  0
 10 11  1  0
 11 12  1  0
 12 13  1  0
 13 14  1  0
 14 15  2  0
 14 16  1  0
 16 17  1  0
 17 18  1  0
 13 19  1  0
 19 20  1  0
 13 21  1  0
 20 21  1  0
  7 22  1  0
  4 23  1  0
 22 23  1  0
M  END
