piperidine-amides-34182-covalent
     RDKit          3D

 31 34  0  0  0  0  0  0  0  0999 V2000
    7.0590   -3.3370   19.3020 C   0  0  0  0  0  0  0  0  0  0  0  0
    6.4000   -4.1770   20.3140 C   0  0  0  0  0  0  0  0  0  0  0  0
    5.4000   -4.8580   19.9910 O   0  0  0  0  0  0  0  0  0  0  0  0
    6.9090   -4.2630   21.6210 N   0  0  0  0  0  0  0  0  0  0  0  0
    7.7070   -3.1880   22.1690 C   0  0  0  0  0  0  0  0  0  0  0  0
    6.8760   -2.5700   23.2890 C   0  0  0  0  0  0  0  0  0  0  0  0
    6.6610   -3.6800   24.2860 C   0  0  0  0  0  0  0  0  0  0  0  0
    5.7910   -3.2010   25.3870 C   0  0  0  0  0  0  0  0  0  0  0  0
    4.5560   -3.2950   25.2110 O   0  0  0  0  0  0  0  0  0  0  0  0
    6.3270   -2.6460   26.5940 N   0  0  0  0  0  0  0  0  0  0  0  0
    6.2810   -3.4800   27.7800 C   0  0  0  0  0  0  0  0  0  0  0  0
    4.9110   -3.3740   28.4260 C   0  0  0  0  0  0  0  0  0  0  0  0
    4.2920   -2.2250   28.9160 C   0  0  0  0  0  0  0  0  0  0  0  0
    3.0340   -2.2290   29.4910 C   0  0  0  0  0  0  0  0  0  0  0  0
    2.2970   -3.3910   29.6220 C   0  0  0  0  0  0  0  0  0  0  0  0
    1.0450   -3.3510   30.2040 F   0  0  0  0  0  0  0  0  0  0  0  0
    2.7780   -4.5740   29.1890 C   0  0  0  0  0  0  0  0  0  0  0  0
    4.1300   -4.6810   28.5510 C   0  0  0  0  0  0  0  0  0  0  0  0
    4.5580   -5.9410   28.1300 F   0  0  0  0  0  0  0  0  0  0  0  0
    6.1520   -1.2020   26.9430 C   0  0  0  0  0  0  0  0  0  0  0  0
    6.8590   -1.8560   28.1550 C   0  0  0  0  0  0  0  0  0  0  0  0
    6.9530   -0.6080   29.0040 C   0  0  0  0  0  0  0  0  0  0  0  0
    6.4990    0.6730   28.6700 C   0  0  0  0  0  0  0  0  0  0  0  0
    6.0900    0.2300   27.5230 C   0  0  0  0  0  0  0  0  0  0  0  0
    5.9710   -0.9220   26.6380 C   0  0  0  0  0  0  0  0  0  0  0  0
    5.3180   -0.1420   25.6080 C   0  0  0  0  0  0  0  0  0  0  0  0
    5.2870    1.2650   26.2870 C   0  0  0  0  0  0  0  0  0  0  0  0
    5.8660    1.3690   27.6300 C   0  0  0  0  0  0  0  0  0  0  0  0
    6.2100    0.0450   27.7060 N   0  0  0  0  0  0  0  0  0  0  0  0
    6.0230   -4.9020   23.6760 C   0  0  0  0  0  0  0  0  0  0  0  0
    6.5720   -5.3490   22.4870 C   0  0  0  0  0  0  0  0  0  0  0  0
  1  2  1  0
  2  3  2  0
  2  4  1  0
  4  5  1  0
  5  6  1  0
  6  7  1  0
  7  8  1  0
  8  9  2  0
  8 10  1  0
 10 11  1  0
 11 12  1  0
 12 13  2  0
 13 14  1  0
 14 15  2  0
 15 16  1  0
 15 17  1  0
 12 18  1  0
 17 18  2  0
 18 19  1  0
 10 20  1  0
 20 21  2  0
 21 22  1  0
 22 23  2  0
 23 24  1  0
 24 25  2  0
 25 26  1  0
 26 27  2  0
 23 28  1  0
 27 28  1  0
 20 29  1  0
 28 29  2  0
  7 30  1  0
  4 31  1  0
 30 31  1  0
M  END
