piperidine-amides-28764-covalent
     RDKit          3D

 26 28  0  0  0  0  0  0  0  0999 V2000
    6.9680   -3.3650   19.4150 C   0  0  0  0  0  0  0  0  0  0  0  0
    6.3800   -4.2860   20.3910 C   0  0  0  0  0  0  0  0  0  0  0  0
    5.4030   -4.9530   20.0030 O   0  0  0  0  0  0  0  0  0  0  0  0
    6.9140   -4.4500   21.7060 N   0  0  0  0  0  0  0  0  0  0  0  0
    6.5600   -5.6340   22.4500 C   0  0  0  0  0  0  0  0  0  0  0  0
    6.3120   -5.3010   23.9080 C   0  0  0  0  0  0  0  0  0  0  0  0
    6.1020   -3.8100   23.9950 C   0  0  0  0  0  0  0  0  0  0  0  0
    5.4850   -3.3000   25.2830 C   0  0  0  0  0  0  0  0  0  0  0  0
    4.7120   -2.3710   25.1070 O   0  0  0  0  0  0  0  0  0  0  0  0
    5.7250   -3.8170   26.5640 N   0  0  0  0  0  0  0  0  0  0  0  0
    4.6220   -3.7540   27.4990 C   0  0  0  0  0  0  0  0  0  0  0  0
    4.6020   -4.6020   28.6410 C   0  0  0  0  0  0  0  0  0  0  0  0
    5.7440   -4.6530   29.3620 C   0  0  0  0  0  0  0  0  0  0  0  0
    5.7230   -5.7860   30.1490 O   0  0  0  0  0  0  0  0  0  0  0  0
    4.8490   -6.7350   30.4900 C   0  0  0  0  0  0  0  0  0  0  0  0
    4.7880   -7.2280   31.9130 C   0  0  0  0  0  0  0  0  0  0  0  0
    3.7290   -7.6560   32.6430 N   0  0  0  0  0  0  0  0  0  0  0  0
    4.1760   -8.0300   33.9170 O   0  0  0  0  0  0  0  0  0  0  0  0
    5.5800   -7.7660   33.8120 C   0  0  0  0  0  0  0  0  0  0  0  0
    6.4470   -8.0610   34.9930 C   0  0  0  0  0  0  0  0  0  0  0  0
    7.2190   -6.8030   35.2950 C   0  0  0  0  0  0  0  0  0  0  0  0
    5.8990   -7.2880   32.6270 N   0  0  0  0  0  0  0  0  0  0  0  0
    6.7470   -4.5430   28.5000 C   0  0  0  0  0  0  0  0  0  0  0  0
    6.4500   -3.4420   27.7300 C   0  0  0  0  0  0  0  0  0  0  0  0
    7.4180   -3.1700   23.7010 C   0  0  0  0  0  0  0  0  0  0  0  0
    7.7550   -3.4030   22.2570 C   0  0  0  0  0  0  0  0  0  0  0  0
  1  2  1  0
  2  3  2  0
  2  4  1  0
  4  5  1  0
  5  6  1  0
  6  7  1  0
  7  8  1  0
  8  9  2  0
  8 10  1  0
 10 11  1  0
 11 12  1  0
 12 13  1  0
 13 14  1  0
 14 15  1  0
 15 16  1  0
 16 17  2  0
 17 18  1  0
 18 19  1  0
 19 20  1  0
 20 21  1  0
 16 22  1  0
 19 22  2  0
 13 23  1  0
 10 24  1  0
 23 24  1  0
  7 25  1  0
  4 26  1  0
 25 26  1  0
M  END
