piperidine-amides-33841-covalent
     RDKit          3D

 26 28  0  0  0  0  0  0  0  0999 V2000
    7.1320   -3.3310   19.2410 C   0  0  0  0  0  0  0  0  0  0  0  0
    6.3980   -4.0820   20.2650 C   0  0  0  0  0  0  0  0  0  0  0  0
    5.3160   -4.6140   19.9180 O   0  0  0  0  0  0  0  0  0  0  0  0
    6.9410   -4.2350   21.5610 N   0  0  0  0  0  0  0  0  0  0  0  0
    6.4870   -5.3080   22.3690 C   0  0  0  0  0  0  0  0  0  0  0  0
    6.0530   -4.9230   23.7170 C   0  0  0  0  0  0  0  0  0  0  0  0
    6.6020   -3.6540   24.2750 C   0  0  0  0  0  0  0  0  0  0  0  0
    5.7710   -3.1660   25.4300 C   0  0  0  0  0  0  0  0  0  0  0  0
    4.5950   -2.8180   25.2060 O   0  0  0  0  0  0  0  0  0  0  0  0
    6.2630   -3.0830   26.7560 N   0  0  0  0  0  0  0  0  0  0  0  0
    6.0630   -4.0650   27.7720 C   0  0  0  0  0  0  0  0  0  0  0  0
    5.0350   -5.0950   27.6430 C   0  0  0  0  0  0  0  0  0  0  0  0
    5.3110   -5.8660   26.3600 C   0  0  0  0  0  0  0  0  0  0  0  0
    4.5800   -6.9040   25.8840 C   0  0  0  0  0  0  0  0  0  0  0  0
    3.3890   -7.3060   26.7400 C   0  0  0  0  0  0  0  0  0  0  0  0
    3.2770   -6.4350   27.9620 C   0  0  0  0  0  0  0  0  0  0  0  0
    3.9890   -5.3880   28.4630 N   0  0  0  0  0  0  0  0  0  0  0  0
    6.3750   -1.7690   27.3360 C   0  0  0  0  0  0  0  0  0  0  0  0
    5.7710   -0.6270   26.5690 C   0  0  0  0  0  0  0  0  0  0  0  0
    5.8770    0.7410   27.2070 C   0  0  0  0  0  0  0  0  0  0  0  0
    6.5660    0.9660   28.5630 C   0  0  0  0  0  0  0  0  0  0  0  0
    6.7380    2.6450   29.4370 Br  0  0  0  0  0  0  0  0  0  0  0  0
    7.0880   -0.3230   29.1130 C   0  0  0  0  0  0  0  0  0  0  0  0
    7.0160   -1.6070   28.5690 C   0  0  0  0  0  0  0  0  0  0  0  0
    6.8650   -2.5910   23.2810 C   0  0  0  0  0  0  0  0  0  0  0  0
    7.6630   -3.1380   22.1390 C   0  0  0  0  0  0  0  0  0  0  0  0
  1  2  1  0
  2  3  2  0
  2  4  1  0
  4  5  1  0
  5  6  1  0
  6  7  1  0
  7  8  1  0
  8  9  2  0
  8 10  1  0
 10 11  1  0
 11 12  1  0
 12 13  2  0
 13 14  1  0
 14 15  2  0
 15 16  1  0
 12 17  1  0
 16 17  2  0
 10 18  1  0
 18 19  2  0
 19 20  1  0
 20 21  2  0
 21 22  1  0
 21 23  1  0
 18 24  1  0
 23 24  2  0
  7 25  1  0
  4 26  1  0
 25 26  1  0
M  END
