piperidine-amides-29469-covalent
     RDKit          3D

 27 30  0  0  0  0  0  0  0  0999 V2000
    7.1110   -3.3030   19.2540 C   0  0  0  0  0  0  0  0  0  0  0  0
    6.4070   -4.0990   20.2570 C   0  0  0  0  0  0  0  0  0  0  0  0
    5.3370   -4.6400   19.9250 O   0  0  0  0  0  0  0  0  0  0  0  0
    6.9740   -4.2910   21.5440 N   0  0  0  0  0  0  0  0  0  0  0  0
    7.7080   -3.2200   22.1440 C   0  0  0  0  0  0  0  0  0  0  0  0
    6.8630   -2.6180   23.2170 C   0  0  0  0  0  0  0  0  0  0  0  0
    6.5380   -3.7070   24.2180 C   0  0  0  0  0  0  0  0  0  0  0  0
    5.5300   -3.1590   25.1740 C   0  0  0  0  0  0  0  0  0  0  0  0
    4.5090   -2.7440   24.6420 O   0  0  0  0  0  0  0  0  0  0  0  0
    5.7280   -3.1310   26.5470 N   0  0  0  0  0  0  0  0  0  0  0  0
    5.9920   -1.9000   27.1430 C   0  0  0  0  0  0  0  0  0  0  0  0
    4.7150   -1.8930   27.6530 C   0  0  0  0  0  0  0  0  0  0  0  0
    3.6800   -1.2980   26.9660 C   0  0  0  0  0  0  0  0  0  0  0  0
    4.3840   -1.6880   29.0650 C   0  0  0  0  0  0  0  0  0  0  0  0
    4.7910   -2.5730   30.1230 N   0  0  0  0  0  0  0  0  0  0  0  0
    4.2870   -2.0460   31.2320 N   0  0  0  0  0  0  0  0  0  0  0  0
    3.6050   -0.8890   30.8410 C   0  0  0  0  0  0  0  0  0  0  0  0
    2.8280    0.1030   31.7380 C   0  0  0  0  0  0  0  0  0  0  0  0
    1.8460    0.9850   31.0260 C   0  0  0  0  0  0  0  0  0  0  0  0
    1.0990    1.9420   31.9240 C   0  0  0  0  0  0  0  0  0  0  0  0
    1.4340    1.8900   33.4220 C   0  0  0  0  0  0  0  0  0  0  0  0
    2.3290    1.0650   33.9690 N   0  0  0  0  0  0  0  0  0  0  0  0
    3.0620    0.1340   33.1160 C   0  0  0  0  0  0  0  0  0  0  0  0
    3.6220   -0.6050   29.5320 O   0  0  0  0  0  0  0  0  0  0  0  0
    4.4810   -3.3790   27.2650 C   0  0  0  0  0  0  0  0  0  0  0  0
    5.9270   -4.9470   23.6270 C   0  0  0  0  0  0  0  0  0  0  0  0
    6.6050   -5.4020   22.3630 C   0  0  0  0  0  0  0  0  0  0  0  0
  1  2  1  0
  2  3  2  0
  2  4  1  0
  4  5  1  0
  5  6  1  0
  6  7  1  0
  7  8  1  0
  8  9  2  0
  8 10  1  0
 10 11  1  0
 11 12  1  0
 12 13  1  0
 12 14  1  0
 14 15  2  0
 15 16  1  0
 16 17  2  0
 17 18  1  0
 18 19  2  0
 19 20  1  0
 20 21  2  0
 21 22  1  0
 18 23  1  0
 22 23  2  0
 14 24  1  0
 17 24  1  0
 10 25  1  0
 12 25  1  0
  7 26  1  0
  4 27  1  0
 26 27  1  0
M  END
