piperidine-amides-8737-covalent
     RDKit          3D

 23 25  0  0  0  0  0  0  0  0999 V2000
    7.0240   -3.3420   19.3280 C   0  0  0  0  0  0  0  0  0  0  0  0
    6.3610   -4.1740   20.3360 C   0  0  0  0  0  0  0  0  0  0  0  0
    5.3810   -4.8500   19.9780 O   0  0  0  0  0  0  0  0  0  0  0  0
    6.8480   -4.2340   21.6690 N   0  0  0  0  0  0  0  0  0  0  0  0
    7.7400   -3.2030   22.1440 C   0  0  0  0  0  0  0  0  0  0  0  0
    7.4290   -2.8520   23.5600 C   0  0  0  0  0  0  0  0  0  0  0  0
    6.1360   -3.5460   23.8910 C   0  0  0  0  0  0  0  0  0  0  0  0
    5.8190   -3.2420   25.3120 C   0  0  0  0  0  0  0  0  0  0  0  0
    4.7190   -3.5890   25.7380 O   0  0  0  0  0  0  0  0  0  0  0  0
    6.8140   -2.5740   26.0140 N   0  0  0  0  0  0  0  0  0  0  0  0
    6.5180   -1.5290   26.9240 C   0  0  0  0  0  0  0  0  0  0  0  0
    6.2210   -0.2190   26.5510 C   0  0  0  0  0  0  0  0  0  0  0  0
    5.9420    0.7790   27.4750 C   0  0  0  0  0  0  0  0  0  0  0  0
    5.5850    2.4130   26.8730 Cl  0  0  0  0  0  0  0  0  0  0  0  0
    5.9190    0.5860   28.8680 C   0  0  0  0  0  0  0  0  0  0  0  0
    6.2290   -0.8260   29.2950 C   0  0  0  0  0  0  0  0  0  0  0  0
    6.5490   -1.9340   28.2930 C   0  0  0  0  0  0  0  0  0  0  0  0
    6.2120   -1.1410   30.6380 O   0  0  0  0  0  0  0  0  0  0  0  0
    6.1030   -0.0790   31.5000 C   0  0  0  0  0  0  0  0  0  0  0  0
    5.2990    1.0320   30.8920 C   0  0  0  0  0  0  0  0  0  0  0  0
    5.6720    1.4280   29.7640 O   0  0  0  0  0  0  0  0  0  0  0  0
    6.1220   -5.0020   23.6920 C   0  0  0  0  0  0  0  0  0  0  0  0
    6.6690   -5.4120   22.4950 C   0  0  0  0  0  0  0  0  0  0  0  0
  1  2  1  0
  2  3  2  0
  2  4  1  0
  4  5  1  0
  5  6  1  0
  6  7  1  0
  7  8  1  0
  8  9  2  0
  8 10  1  0
 10 11  1  0
 11 12  2  0
 12 13  1  0
 13 14  1  0
 13 15  2  0
 15 16  1  0
 11 17  1  0
 16 17  2  0
 16 18  1  0
 18 19  1  0
 19 20  1  0
 15 21  1  0
 20 21  1  0
  7 22  1  0
  4 23  1  0
 22 23  1  0
M  END
