piperidine-amides-5289-covalent
     RDKit          3D

 21 21  0  0  0  0  0  0  0  0999 V2000
    7.1550   -3.2860   19.2370 C   0  0  0  0  0  0  0  0  0  0  0  0
    6.4310   -4.0800   20.2520 C   0  0  0  0  0  0  0  0  0  0  0  0
    5.3360   -4.5700   19.9010 O   0  0  0  0  0  0  0  0  0  0  0  0
    6.9990   -4.3100   21.5160 N   0  0  0  0  0  0  0  0  0  0  0  0
    6.5550   -5.3900   22.3150 C   0  0  0  0  0  0  0  0  0  0  0  0
    6.2070   -4.9570   23.6690 C   0  0  0  0  0  0  0  0  0  0  0  0
    5.9520   -3.5030   23.8110 C   0  0  0  0  0  0  0  0  0  0  0  0
    5.7310   -3.1510   25.2300 C   0  0  0  0  0  0  0  0  0  0  0  0
    4.7570   -2.4270   25.5040 O   0  0  0  0  0  0  0  0  0  0  0  0
    6.5690   -3.6210   26.2520 N   0  0  0  0  0  0  0  0  0  0  0  0
    6.0440   -4.5400   27.2740 C   0  0  1  0  0  0  0  0  0  0  0  0
    5.9420   -5.9160   26.7560 C   0  0  0  0  0  0  0  0  0  0  0  0
    4.6190   -6.5530   26.7520 C   0  0  0  0  0  0  0  0  0  0  0  0
    3.8320   -6.3110   27.7290 O   0  0  0  0  0  0  0  0  0  0  0  0
    4.1910   -7.3860   25.7440 O   0  0  0  0  0  0  0  0  0  0  0  0
    2.9430   -8.0740   25.8390 C   0  0  0  0  0  0  0  0  0  0  0  0
    6.6820   -4.4110   28.5630 C   0  0  0  0  0  0  0  0  0  0  0  0
    6.4960   -3.1240   28.9620 C   0  0  0  0  0  0  0  0  0  0  0  0
    6.2290   -5.6460   29.2810 C   0  0  0  0  0  0  0  0  0  0  0  0
    6.9070   -2.5940   23.1240 C   0  0  0  0  0  0  0  0  0  0  0  0
    7.7080   -3.2530   22.1950 C   0  0  0  0  0  0  0  0  0  0  0  0
  1  2  1  0
  2  3  2  0
  2  4  1  0
  4  5  1  0
  5  6  1  0
  6  7  1  0
  7  8  1  0
  8  9  2  0
  8 10  1  0
 10 11  1  0
 11 12  1  6
 12 13  1  0
 13 14  2  0
 13 15  1  0
 15 16  1  0
 11 17  1  0
 17 18  1  0
 17 19  1  0
  7 20  1  0
  4 21  1  0
 20 21  1  0
M  END
