piperidine-amides-160-covalent
     RDKit          3D

 23 25  0  0  0  0  0  0  0  0999 V2000
    7.0860   -3.2970   19.4120 C   0  0  0  0  0  0  0  0  0  0  0  0
    6.3540   -4.0890   20.3800 C   0  0  0  0  0  0  0  0  0  0  0  0
    5.3830   -4.7970   19.9640 O   0  0  0  0  0  0  0  0  0  0  0  0
    6.6850   -4.1340   21.7530 N   0  0  0  0  0  0  0  0  0  0  0  0
    7.7030   -3.1370   22.2150 C   0  0  0  0  0  0  0  0  0  0  0  0
    7.3640   -2.8610   23.7400 C   0  0  0  0  0  0  0  0  0  0  0  0
    6.2660   -3.8140   24.1270 C   0  0  0  0  0  0  0  0  0  0  0  0
    5.7860   -3.7350   25.6490 C   0  0  0  0  0  0  0  0  0  0  0  0
    5.3430   -4.8120   25.9770 O   0  0  0  0  0  0  0  0  0  0  0  0
    5.9350   -2.5750   26.1510 N   0  0  0  0  0  0  0  0  0  0  0  0
    5.9150   -1.3450   26.7490 C   0  0  2  0  0  0  0  0  0  0  0  0
    5.7750   -0.0760   26.2860 C   0  0  0  0  0  0  0  0  0  0  0  0
    5.1340    0.7400   27.2270 C   0  0  0  0  0  0  0  0  0  0  0  0
    5.9720    1.0640   28.3770 C   0  0  1  0  0  0  0  0  0  0  0  0
    5.2430    1.9020   29.2250 O   0  0  0  0  0  0  0  0  0  0  0  0
    6.0970   -0.4190   28.7880 C   0  0  0  0  0  0  0  0  0  0  0  0
    6.7530    0.1000   29.8640 C   0  0  0  0  0  0  0  0  0  0  0  0
    7.1810   -0.9110   30.6480 C   0  0  0  0  0  0  0  0  0  0  0  0
    5.6760   -0.5460   30.4940 C   0  0  0  0  0  0  0  0  0  0  0  0
    4.8480   -1.1270   29.2560 C   0  0  0  0  0  0  0  0  0  0  0  0
    6.9000   -1.2790   27.9530 C   0  0  0  0  0  0  0  0  0  0  0  0
    6.4990   -5.2630   23.7270 C   0  0  0  0  0  0  0  0  0  0  0  0
    6.6170   -5.4200   22.3920 C   0  0  0  0  0  0  0  0  0  0  0  0
  1  2  1  0
  2  3  2  0
  2  4  1  0
  4  5  1  0
  5  6  1  0
  6  7  1  0
  7  8  1  0
  8  9  2  0
  8 10  1  0
 11 10  1  6
 11 12  1  0
 12 13  1  0
 13 14  1  0
 14 15  1  1
 14 16  1  0
 16 17  1  0
 17 18  1  0
 18 19  1  0
 16 20  1  0
 19 20  1  0
 11 21  1  0
 16 21  1  0
  7 22  1  0
  4 23  1  0
 22 23  1  0
M  END
