piperidine-amides-29797-covalent
     RDKit          3D

 26 28  0  0  0  0  0  0  0  0999 V2000
    7.1640   -3.3420   19.3050 C   0  0  0  0  0  0  0  0  0  0  0  0
    6.3460   -4.0710   20.2630 C   0  0  0  0  0  0  0  0  0  0  0  0
    5.3010   -4.6170   19.9120 O   0  0  0  0  0  0  0  0  0  0  0  0
    6.8080   -4.1890   21.6080 N   0  0  0  0  0  0  0  0  0  0  0  0
    6.4950   -5.3600   22.3920 C   0  0  0  0  0  0  0  0  0  0  0  0
    5.8150   -4.9600   23.6690 C   0  0  0  0  0  0  0  0  0  0  0  0
    6.6470   -3.8770   24.3470 C   0  0  0  0  0  0  0  0  0  0  0  0
    5.9100   -3.3150   25.4970 C   0  0  0  0  0  0  0  0  0  0  0  0
    4.6640   -3.3440   25.5810 O   0  0  0  0  0  0  0  0  0  0  0  0
    6.6730   -2.7090   26.5190 N   0  0  0  0  0  0  0  0  0  0  0  0
    7.0450   -3.5140   27.6460 C   0  0  0  0  0  0  0  0  0  0  0  0
    6.8780   -2.4930   28.7460 C   0  0  0  0  0  0  0  0  0  0  0  0
    5.6230   -2.2260   29.3200 C   0  0  0  0  0  0  0  0  0  0  0  0
    5.4690   -1.2600   30.3390 C   0  0  0  0  0  0  0  0  0  0  0  0
    6.5700   -0.5710   30.7830 C   0  0  0  0  0  0  0  0  0  0  0  0
    7.8490   -0.8540   30.1910 C   0  0  0  0  0  0  0  0  0  0  0  0
    7.9820   -1.7880   29.1970 C   0  0  0  0  0  0  0  0  0  0  0  0
    6.4460   -1.3450   26.9520 C   0  0  0  0  0  0  0  0  0  0  0  0
    7.1340   -1.0230   28.1530 N   0  0  0  0  0  0  0  0  0  0  0  0
    6.8200    0.1960   28.4180 C   0  0  0  0  0  0  0  0  0  0  0  0
    6.0970    1.2940   28.0040 C   0  0  0  0  0  0  0  0  0  0  0  0
    5.4320    1.0200   26.8520 C   0  0  0  0  0  0  0  0  0  0  0  0
    5.5550   -0.2880   26.2570 C   0  0  0  0  0  0  0  0  0  0  0  0
    4.6840   -0.6180   24.7830 Cl  0  0  0  0  0  0  0  0  0  0  0  0
    6.8850   -2.6970   23.4370 C   0  0  0  0  0  0  0  0  0  0  0  0
    7.6140   -3.1450   22.1880 C   0  0  0  0  0  0  0  0  0  0  0  0
  1  2  1  0
  2  3  2  0
  2  4  1  0
  4  5  1  0
  5  6  1  0
  6  7  1  0
  7  8  1  0
  8  9  2  0
  8 10  1  0
 10 11  1  0
 11 12  1  0
 12 13  2  0
 13 14  1  0
 14 15  2  0
 15 16  1  0
 12 17  1  0
 16 17  2  0
 10 18  1  0
 18 19  2  0
 19 20  1  0
 20 21  2  0
 21 22  1  0
 18 23  1  0
 22 23  2  0
 23 24  1  0
  7 25  1  0
  4 26  1  0
 25 26  1  0
M  END
