piperidine-amides-19139-covalent
     RDKit          3D

 22 24  0  0  0  0  0  0  0  0999 V2000
    7.0720   -3.3910   19.4880 C   0  0  0  0  0  0  0  0  0  0  0  0
    6.4000   -4.2810   20.4130 C   0  0  0  0  0  0  0  0  0  0  0  0
    5.4020   -4.9460   19.9970 O   0  0  0  0  0  0  0  0  0  0  0  0
    6.8480   -4.4510   21.7390 N   0  0  0  0  0  0  0  0  0  0  0  0
    6.4640   -5.6640   22.4970 C   0  0  0  0  0  0  0  0  0  0  0  0
    5.5090   -5.0520   23.6140 C   0  0  0  0  0  0  0  0  0  0  0  0
    6.2810   -3.9570   24.3310 C   0  0  0  0  0  0  0  0  0  0  0  0
    5.4330   -3.2070   25.4870 C   0  0  0  0  0  0  0  0  0  0  0  0
    4.8860   -2.2380   24.9920 O   0  0  0  0  0  0  0  0  0  0  0  0
    5.4830   -3.7730   26.6500 N   0  0  0  0  0  0  0  0  0  0  0  0
    5.0960   -4.4700   27.7460 C   0  0  0  0  0  0  0  0  0  0  0  0
    5.8170   -5.1960   28.6010 C   0  0  0  0  0  0  0  0  0  0  0  0
    7.0480   -4.7120   28.2360 C   0  0  0  0  0  0  0  0  0  0  0  0
    6.7490   -3.4930   27.4360 C   0  0  1  0  0  0  0  0  0  0  0  0
    7.8280   -3.8790   26.5270 C   0  0  0  0  0  0  0  0  0  0  0  0
    7.9340   -2.7920   25.6810 C   0  0  0  0  0  0  0  0  0  0  0  0
    8.7400   -2.5130   24.5780 C   0  0  0  0  0  0  0  0  0  0  0  0
    9.4740   -3.8650   24.6430 C   0  0  0  0  0  0  0  0  0  0  0  0
    9.3700   -5.0970   25.6050 C   0  0  0  0  0  0  0  0  0  0  0  0
    8.4770   -5.1270   26.6390 N   0  0  0  0  0  0  0  0  0  0  0  0
    6.7140   -2.8910   23.2920 C   0  0  0  0  0  0  0  0  0  0  0  0
    7.6150   -3.4440   22.4280 C   0  0  0  0  0  0  0  0  0  0  0  0
  1  2  1  0
  2  3  2  0
  2  4  1  0
  4  5  1  0
  5  6  1  0
  6  7  1  0
  7  8  1  0
  8  9  2  0
  8 10  1  0
 10 11  1  0
 11 12  1  0
 12 13  1  0
 10 14  1  0
 13 14  1  0
 14 15  1  6
 15 16  2  0
 16 17  1  0
 17 18  2  0
 18 19  1  0
 15 20  1  0
 19 20  2  0
  7 21  1  0
  4 22  1  0
 21 22  1  0
M  END
