piperidine-amides-24338-covalent
     RDKit          3D

 24 26  0  0  0  0  0  0  0  0999 V2000
    7.0730   -3.3350   19.3500 C   0  0  0  0  0  0  0  0  0  0  0  0
    6.4070   -4.2250   20.3120 C   0  0  0  0  0  0  0  0  0  0  0  0
    5.3700   -4.8380   19.9770 O   0  0  0  0  0  0  0  0  0  0  0  0
    6.9530   -4.4470   21.5870 N   0  0  0  0  0  0  0  0  0  0  0  0
    6.5030   -5.5950   22.3120 C   0  0  0  0  0  0  0  0  0  0  0  0
    5.5340   -5.0220   23.3430 C   0  0  0  0  0  0  0  0  0  0  0  0
    6.3410   -4.1100   24.2450 C   0  0  0  0  0  0  0  0  0  0  0  0
    5.4240   -3.4900   25.2350 C   0  0  0  0  0  0  0  0  0  0  0  0
    4.6040   -2.6500   24.8230 O   0  0  0  0  0  0  0  0  0  0  0  0
    5.4680   -3.8550   26.6060 N   0  0  0  0  0  0  0  0  0  0  0  0
    4.3280   -3.7320   27.5030 C   0  0  0  0  0  0  0  0  0  0  0  0
    4.4320   -4.6290   28.7440 C   0  0  0  0  0  0  0  0  0  0  0  0
    5.5630   -5.3260   28.9670 C   0  0  0  0  0  0  0  0  0  0  0  0
    6.6090   -4.6970   28.4830 C   0  0  0  0  0  0  0  0  0  0  0  0
    6.3600   -3.5870   27.6720 C   0  0  2  0  0  0  0  0  0  0  0  0
    5.8100   -2.3960   28.1190 C   0  0  0  0  0  0  0  0  0  0  0  0
    5.0760   -1.6060   27.2940 O   0  0  0  0  0  0  0  0  0  0  0  0
    5.9610   -1.8520   29.3560 N   0  0  0  0  0  0  0  0  0  0  0  0
    7.0550   -1.1110   29.2990 C   0  0  0  0  0  0  0  0  0  0  0  0
    6.4810    0.1180   29.9280 C   0  0  0  0  0  0  0  0  0  0  0  0
    5.4410   -0.1990   30.9660 C   0  0  0  0  0  0  0  0  0  0  0  0
    4.9650   -0.8490   29.7170 C   0  0  0  0  0  0  0  0  0  0  0  0
    7.0010   -3.0000   23.4530 C   0  0  0  0  0  0  0  0  0  0  0  0
    7.5890   -3.3730   22.2760 C   0  0  0  0  0  0  0  0  0  0  0  0
  1  2  1  0
  2  3  2  0
  2  4  1  0
  4  5  1  0
  5  6  1  0
  6  7  1  0
  7  8  1  0
  8  9  2  0
  8 10  1  0
 10 11  1  0
 11 12  1  0
 12 13  1  0
 13 14  1  0
 10 15  1  0
 14 15  1  0
 15 16  1  1
 16 17  2  0
 16 18  1  0
 18 19  1  0
 19 20  1  0
 20 21  1  0
 18 22  1  0
 21 22  1  0
  7 23  1  0
  4 24  1  0
 23 24  1  0
M  END
