piperidine-amides-30707-covalent
     RDKit          3D

 27 29  0  0  0  0  0  0  0  0999 V2000
    7.0930   -3.3530   19.2810 C   0  0  0  0  0  0  0  0  0  0  0  0
    6.4250   -4.1750   20.2910 C   0  0  0  0  0  0  0  0  0  0  0  0
    5.3930   -4.7930   19.9770 O   0  0  0  0  0  0  0  0  0  0  0  0
    6.9660   -4.3110   21.5820 N   0  0  0  0  0  0  0  0  0  0  0  0
    7.8330   -3.2820   22.1460 C   0  0  0  0  0  0  0  0  0  0  0  0
    7.2680   -2.9080   23.4830 C   0  0  0  0  0  0  0  0  0  0  0  0
    6.0160   -3.6680   23.7540 C   0  0  0  0  0  0  0  0  0  0  0  0
    5.4770   -3.3700   25.0840 C   0  0  0  0  0  0  0  0  0  0  0  0
    4.4480   -2.6560   25.2190 O   0  0  0  0  0  0  0  0  0  0  0  0
    6.0570   -3.8520   26.2390 N   0  0  0  0  0  0  0  0  0  0  0  0
    6.2420   -3.0090   27.3340 C   0  0  0  0  0  0  0  0  0  0  0  0
    6.2470   -4.1260   28.2650 C   0  0  1  0  0  0  0  0  0  0  0  0
    5.8710   -3.7340   29.5760 C   0  0  0  0  0  0  0  0  0  0  0  0
    4.3840   -3.5710   29.7840 C   0  0  0  0  0  0  0  0  0  0  0  0
    3.8990   -4.8610   30.0860 N   0  0  0  0  0  0  0  0  0  0  0  0
    2.4450   -4.7620   29.9660 C   0  0  0  0  0  0  0  0  0  0  0  0
    1.9440   -3.5080   30.3940 O   0  0  0  0  0  0  0  0  0  0  0  0
    1.6900   -5.7060   29.5260 O   0  0  0  0  0  0  0  0  0  0  0  0
    1.9020   -7.0070   29.9830 C   0  0  0  0  0  0  0  0  0  0  0  0
    2.8890   -7.6830   30.6650 C   0  0  0  0  0  0  0  0  0  0  0  0
    2.5520   -8.1170   29.1890 C   0  0  0  0  0  0  0  0  0  0  0  0
    0.8060   -7.6300   30.8490 C   0  0  0  0  0  0  0  0  0  0  0  0
    4.5520   -5.6470   29.0810 C   0  0  0  0  0  0  0  0  0  0  0  0
    5.1810   -5.1120   27.8200 C   0  0  2  0  0  0  0  0  0  0  0  0
    5.5960   -5.1300   26.6720 C   0  0  0  0  0  0  0  0  0  0  0  0
    6.1050   -5.1250   23.5720 C   0  0  0  0  0  0  0  0  0  0  0  0
    6.6940   -5.4680   22.3860 C   0  0  0  0  0  0  0  0  0  0  0  0
  1  2  1  0
  2  3  2  0
  2  4  1  0
  4  5  1  0
  5  6  1  0
  6  7  1  0
  7  8  1  0
  8  9  2  0
  8 10  1  0
 10 11  1  0
 12 11  1  6
 12 13  1  0
 13 14  1  0
 14 15  1  0
 15 16  1  0
 16 17  2  0
 16 18  1  0
 19 18  1  0
 19 20  1  0
 19 21  1  0
 19 22  1  0
 15 23  1  0
 12 24  1  0
 24 23  1  1
 10 25  1  0
 24 25  1  0
  7 26  1  0
  4 27  1  0
 26 27  1  0
M  END
