piperidine-amides-2223-covalent
     RDKit          3D

 29 31  0  0  0  0  0  0  0  0999 V2000
    7.0810   -3.3920   19.3790 C   0  0  0  0  0  0  0  0  0  0  0  0
    6.3560   -4.2710   20.3300 C   0  0  0  0  0  0  0  0  0  0  0  0
    5.3070   -4.7740   19.9470 O   0  0  0  0  0  0  0  0  0  0  0  0
    6.9040   -4.5300   21.5820 N   0  0  0  0  0  0  0  0  0  0  0  0
    6.3760   -5.5610   22.4500 C   0  0  0  0  0  0  0  0  0  0  0  0
    5.6530   -4.9490   23.6390 C   0  0  0  0  0  0  0  0  0  0  0  0
    6.4670   -3.7620   24.1770 C   0  0  0  0  0  0  0  0  0  0  0  0
    5.7350   -2.9490   25.1950 C   0  0  0  0  0  0  0  0  0  0  0  0
    4.7340   -3.4330   25.7480 O   0  0  0  0  0  0  0  0  0  0  0  0
    6.1790   -1.6010   25.5270 N   0  0  0  0  0  0  0  0  0  0  0  0
    5.9010   -1.0980   26.8640 C   0  0  0  0  0  0  0  0  0  0  0  0
    4.9010   -1.2070   25.8730 C   0  0  0  0  0  0  0  0  0  0  0  0
    5.9090   -1.6620   24.8930 N   0  0  0  0  0  0  0  0  0  0  0  0
    7.2270   -1.7530   25.3660 N   0  0  0  0  0  0  0  0  0  0  0  0
    8.1590   -2.1890   24.4160 C   0  0  0  0  0  0  0  0  0  0  0  0
    9.2130   -1.3520   24.1050 C   0  0  0  0  0  0  0  0  0  0  0  0
   10.4390   -1.5100   24.7260 O   0  0  0  0  0  0  0  0  0  0  0  0
    8.9340   -0.4510   23.1240 N   0  0  0  0  0  0  0  0  0  0  0  0
    9.6540    0.6870   22.9780 C   0  0  0  0  0  0  0  0  0  0  0  0
    8.9110    2.0190   22.8660 C   0  0  0  0  0  0  0  0  0  0  0  0
    9.7510    3.2550   22.7170 C   0  0  0  0  0  0  0  0  0  0  0  0
   11.2410    3.1170   22.6900 C   0  0  0  0  0  0  0  0  0  0  0  0
   11.9440    4.3090   22.5570 O   0  0  0  0  0  0  0  0  0  0  0  0
   13.3310    4.4480   22.5180 C   0  0  0  0  0  0  0  0  0  0  0  0
   11.9880    1.8140   22.7950 C   0  0  0  0  0  0  0  0  0  0  0  0
   11.1640    0.5480   22.9410 C   0  0  0  0  0  0  0  0  0  0  0  0
    7.2700   -1.3800   26.7120 C   0  0  0  0  0  0  0  0  0  0  0  0
    6.8140   -2.8490   23.0240 C   0  0  0  0  0  0  0  0  0  0  0  0
    7.6860   -3.5000   22.2170 C   0  0  0  0  0  0  0  0  0  0  0  0
  1  2  1  0
  2  3  2  0
  2  4  1  0
  4  5  1  0
  5  6  1  0
  6  7  1  0
  7  8  1  0
  8  9  2  0
  8 10  1  0
 10 11  1  0
 11 12  1  0
 12 13  2  0
 13 14  1  0
 14 15  1  0
 15 16  1  0
 16 17  2  0
 16 18  1  0
 18 19  1  0
 19 20  2  0
 20 21  1  0
 21 22  2  0
 22 23  1  0
 23 24  1  0
 22 25  1  0
 19 26  1  0
 25 26  2  0
 11 27  2  0
 14 27  1  0
  7 28  1  0
  4 29  1  0
 28 29  1  0
M  END
