piperidine-amides-10983-covalent
     RDKit          3D

 21 22  0  0  0  0  0  0  0  0999 V2000
    7.1110   -3.2830   19.2150 C   0  0  0  0  0  0  0  0  0  0  0  0
    6.3640   -4.0280   20.2270 C   0  0  0  0  0  0  0  0  0  0  0  0
    5.3130   -4.6050   19.9090 O   0  0  0  0  0  0  0  0  0  0  0  0
    6.8560   -4.1390   21.5310 N   0  0  0  0  0  0  0  0  0  0  0  0
    7.6550   -3.1010   22.1340 C   0  0  0  0  0  0  0  0  0  0  0  0
    6.8690   -2.6870   23.3340 C   0  0  0  0  0  0  0  0  0  0  0  0
    6.6060   -3.8560   24.2270 C   0  0  0  0  0  0  0  0  0  0  0  0
    5.8320   -3.4870   25.4350 C   0  0  0  0  0  0  0  0  0  0  0  0
    4.5770   -3.6550   25.4640 O   0  0  0  0  0  0  0  0  0  0  0  0
    6.4170   -2.9350   26.5960 N   0  0  0  0  0  0  0  0  0  0  0  0
    6.6760   -1.4810   26.6780 C   0  0  0  0  0  0  0  0  0  0  0  0
    5.3890   -0.7770   26.4720 C   0  0  0  0  0  0  0  0  0  0  0  0
    4.7270   -0.6000   25.1720 C   0  0  0  0  0  0  0  0  0  0  0  0
    3.4840    0.1560   25.4160 C   0  0  0  0  0  0  0  0  0  0  0  0
    2.5720    0.5040   24.2570 C   0  0  0  0  0  0  0  0  0  0  0  0
    2.6590    1.8920   24.0030 O   0  0  0  0  0  0  0  0  0  0  0  0
    2.7310    2.5620   25.2060 C   0  0  0  0  0  0  0  0  0  0  0  0
    3.4420    0.4010   26.8110 N   0  0  0  0  0  0  0  0  0  0  0  0
    4.5650   -0.1490   27.4360 O   0  0  0  0  0  0  0  0  0  0  0  0
    5.9060   -4.9620   23.4520 C   0  0  0  0  0  0  0  0  0  0  0  0
    6.5890   -5.3370   22.2900 C   0  0  0  0  0  0  0  0  0  0  0  0
  1  2  1  0
  2  3  2  0
  2  4  1  0
  4  5  1  0
  5  6  1  0
  6  7  1  0
  7  8  1  0
  8  9  2  0
  8 10  1  0
 10 11  1  0
 11 12  1  0
 12 13  2  0
 13 14  1  0
 14 15  1  0
 15 16  1  0
 16 17  1  0
 14 18  2  0
 12 19  1  0
 18 19  1  0
  7 20  1  0
  4 21  1  0
 20 21  1  0
M  END
