piperidine-amides-8362-covalent
     RDKit          3D

 24 25  0  0  0  0  0  0  0  0999 V2000
    7.0550   -3.2900   19.2990 C   0  0  0  0  0  0  0  0  0  0  0  0
    6.3510   -4.0910   20.3010 C   0  0  0  0  0  0  0  0  0  0  0  0
    5.3360   -4.7140   19.9400 O   0  0  0  0  0  0  0  0  0  0  0  0
    6.8360   -4.1890   21.6340 N   0  0  0  0  0  0  0  0  0  0  0  0
    6.6670   -5.4260   22.3440 C   0  0  0  0  0  0  0  0  0  0  0  0
    6.0350   -5.1500   23.6770 C   0  0  0  0  0  0  0  0  0  0  0  0
    6.0570   -3.6520   23.8460 C   0  0  0  0  0  0  0  0  0  0  0  0
    5.6430   -3.2970   25.2400 C   0  0  0  0  0  0  0  0  0  0  0  0
    4.4370   -3.3320   25.4670 O   0  0  0  0  0  0  0  0  0  0  0  0
    6.6190   -2.9620   26.1690 N   0  0  0  0  0  0  0  0  0  0  0  0
    6.3350   -2.9160   27.5640 C   0  0  0  0  0  0  0  0  0  0  0  0
    6.3250   -1.6080   28.0770 C   0  0  0  0  0  0  0  0  0  0  0  0
    7.0120   -1.4270   29.3560 N   0  0  0  0  0  0  0  0  0  0  0  0
    7.0180   -0.1480   29.8870 C   0  0  0  0  0  0  0  0  0  0  0  0
    7.5520    0.4040   31.0450 C   0  0  0  0  0  0  0  0  0  0  0  0
    6.8900    0.0770   32.2200 O   0  0  0  0  0  0  0  0  0  0  0  0
    8.5530    1.1640   31.0430 O   0  0  0  0  0  0  0  0  0  0  0  0
    9.4820    1.0850   32.1150 C   0  0  0  0  0  0  0  0  0  0  0  0
   10.8640    0.5630   31.6490 C   0  0  0  0  0  0  0  0  0  0  0  0
    6.3010    0.8470   29.0260 C   0  0  0  0  0  0  0  0  0  0  0  0
    5.9490    2.3060   28.9950 C   0  0  0  0  0  0  0  0  0  0  0  0
    5.7250   -0.0500   27.6470 S   0  0  0  0  0  0  0  0  0  0  0  0
    7.3300   -2.9850   23.5530 C   0  0  0  0  0  0  0  0  0  0  0  0
    7.6820   -3.1720   22.2350 C   0  0  0  0  0  0  0  0  0  0  0  0
  1  2  1  0
  2  3  2  0
  2  4  1  0
  4  5  1  0
  5  6  1  0
  6  7  1  0
  7  8  1  0
  8  9  2  0
  8 10  1  0
 10 11  1  0
 11 12  1  0
 12 13  2  0
 13 14  1  0
 14 15  1  0
 15 16  2  0
 15 17  1  0
 17 18  1  0
 18 19  1  0
 14 20  2  0
 20 21  1  0
 12 22  1  0
 20 22  1  0
  7 23  1  0
  4 24  1  0
 23 24  1  0
M  END
