piperidine-amides-27887-covalent
     RDKit          3D

 26 29  0  0  0  0  0  0  0  0999 V2000
    7.0190   -3.3750   19.3440 C   0  0  0  0  0  0  0  0  0  0  0  0
    6.3720   -4.2290   20.3660 C   0  0  0  0  0  0  0  0  0  0  0  0
    5.3660   -4.8620   19.9840 O   0  0  0  0  0  0  0  0  0  0  0  0
    6.8960   -4.3600   21.6680 N   0  0  0  0  0  0  0  0  0  0  0  0
    6.5220   -5.4590   22.4850 C   0  0  0  0  0  0  0  0  0  0  0  0
    5.8850   -5.0850   23.7650 C   0  0  0  0  0  0  0  0  0  0  0  0
    6.2880   -3.7810   24.3730 C   0  0  0  0  0  0  0  0  0  0  0  0
    5.2570   -3.2880   25.3550 C   0  0  0  0  0  0  0  0  0  0  0  0
    4.3390   -2.5950   24.8980 O   0  0  0  0  0  0  0  0  0  0  0  0
    5.2940   -3.5740   26.7550 N   0  0  0  0  0  0  0  0  0  0  0  0
    6.5160   -3.5450   27.4850 C   0  0  1  0  0  0  0  0  0  0  0  0
    6.3780   -2.2810   28.2150 C   0  0  0  0  0  0  0  0  0  0  0  0
    4.9630   -2.0940   28.2710 C   0  0  0  0  0  0  0  0  0  0  0  0
    4.3650   -3.2680   27.8520 C   0  0  2  0  0  0  0  0  0  0  0  0
    4.4020   -4.3730   28.7160 C   0  0  0  0  0  0  0  0  0  0  0  0
    3.2350   -4.7190   29.3160 C   0  0  0  0  0  0  0  0  0  0  0  0
    3.1110   -5.8000   30.1970 N   0  0  0  0  0  0  0  0  0  0  0  0
    4.3230   -6.5060   30.4070 C   0  0  0  0  0  0  0  0  0  0  0  0
    4.1190   -7.5440   31.2690 C   0  0  0  0  0  0  0  0  0  0  0  0
    3.5430   -7.1820   32.4400 O   0  0  0  0  0  0  0  0  0  0  0  0
    3.5260   -8.1070   33.5050 C   0  0  0  0  0  0  0  0  0  0  0  0
    5.4840   -6.1640   29.8150 N   0  0  0  0  0  0  0  0  0  0  0  0
    5.5530   -5.1180   28.9800 C   0  0  0  0  0  0  0  0  0  0  0  0
    6.7630   -4.6480   28.2620 C   0  0  0  0  0  0  0  0  0  0  0  0
    6.6690   -2.7520   23.2950 C   0  0  0  0  0  0  0  0  0  0  0  0
    7.5750   -3.2770   22.3460 C   0  0  0  0  0  0  0  0  0  0  0  0
  1  2  1  0
  2  3  2  0
  2  4  1  0
  4  5  1  0
  5  6  1  0
  6  7  1  0
  7  8  1  0
  8  9  2  0
  8 10  1  0
 10 11  1  0
 11 12  1  1
 12 13  1  0
 10 14  1  0
 14 13  1  1
 14 15  1  0
 15 16  1  0
 16 17  2  0
 17 18  1  0
 18 19  1  0
 19 20  1  0
 20 21  1  0
 18 22  2  0
 15 23  2  0
 22 23  1  0
 11 24  1  0
 23 24  1  0
  7 25  1  0
  4 26  1  0
 25 26  1  0
M  END
