piperidine-amides-31828-covalent
     RDKit          3D

 29 32  0  0  0  0  0  0  0  0999 V2000
    7.1610   -3.3380   19.4210 C   0  0  0  0  0  0  0  0  0  0  0  0
    6.4110   -4.1080   20.3850 C   0  0  0  0  0  0  0  0  0  0  0  0
    5.4110   -4.7850   19.9760 O   0  0  0  0  0  0  0  0  0  0  0  0
    6.7980   -4.1530   21.7430 N   0  0  0  0  0  0  0  0  0  0  0  0
    6.7090   -5.4910   22.4010 C   0  0  0  0  0  0  0  0  0  0  0  0
    6.2080   -5.1910   23.8810 C   0  0  0  0  0  0  0  0  0  0  0  0
    6.1930   -3.6920   24.0470 C   0  0  0  0  0  0  0  0  0  0  0  0
    5.2000   -3.1780   25.1750 C   0  0  0  0  0  0  0  0  0  0  0  0
    4.0660   -3.2970   24.7420 O   0  0  0  0  0  0  0  0  0  0  0  0
    5.7340   -2.7580   26.2600 N   0  0  0  0  0  0  0  0  0  0  0  0
    6.1710   -1.8850   27.2370 C   0  0  0  0  0  0  0  0  0  0  0  0
    6.8980   -1.9200   28.4320 C   0  0  0  0  0  0  0  0  0  0  0  0
    7.1800   -0.8020   29.2500 C   0  0  0  0  0  0  0  0  0  0  0  0
    6.6900    0.4950   28.8490 C   0  0  0  0  0  0  0  0  0  0  0  0
    5.9760    0.5850   27.6820 N   0  0  0  0  0  0  0  0  0  0  0  0
    5.6330   -0.5000   26.7630 C   0  0  0  0  0  0  0  0  0  0  0  0
    5.4750   -3.6220   27.4360 C   0  0  0  0  0  0  0  0  0  0  0  0
    4.0630   -3.6190   27.7170 C   0  0  0  0  0  0  0  0  0  0  0  0
    4.0760   -4.6770   28.8870 C   0  0  0  0  0  0  0  0  0  0  0  0
    2.7510   -4.8360   29.6930 C   0  0  0  0  0  0  0  0  0  0  0  0
    2.6990   -5.7460   30.6990 C   0  0  0  0  0  0  0  0  0  0  0  0
    3.7610   -6.5340   31.0350 C   0  0  0  0  0  0  0  0  0  0  0  0
    4.9530   -6.4540   30.3790 C   0  0  0  0  0  0  0  0  0  0  0  0
    5.0810   -5.5380   29.3400 C   0  0  0  0  0  0  0  0  0  0  0  0
    6.2220   -5.3880   28.6520 C   0  0  0  0  0  0  0  0  0  0  0  0
    7.0060   -6.4450   28.7300 O   0  0  0  0  0  0  0  0  0  0  0  0
    6.4610   -4.2800   28.0210 N   0  0  0  0  0  0  0  0  0  0  0  0
    7.4290   -2.9610   23.7400 C   0  0  0  0  0  0  0  0  0  0  0  0
    7.7400   -3.1980   22.3060 C   0  0  0  0  0  0  0  0  0  0  0  0
  1  2  1  0
  2  3  2  0
  2  4  1  0
  4  5  1  0
  5  6  1  0
  6  7  1  0
  7  8  1  0
  8  9  2  0
  8 10  1  0
 10 11  1  0
 11 12  2  0
 12 13  1  0
 13 14  2  0
 14 15  1  0
 11 16  1  0
 15 16  2  0
 10 17  1  0
 17 18  2  0
 18 19  1  0
 19 20  2  0
 20 21  1  0
 21 22  2  0
 22 23  1  0
 19 24  1  0
 23 24  2  0
 24 25  1  0
 25 26  2  0
 17 27  1  0
 25 27  1  0
  7 28  1  0
  4 29  1  0
 28 29  1  0
M  END
