piperidine-amides-28771-covalent
     RDKit          3D

 25 27  0  0  0  0  0  0  0  0999 V2000
    6.9880   -3.3700   19.4140 C   0  0  0  0  0  0  0  0  0  0  0  0
    6.3590   -4.2560   20.3980 C   0  0  0  0  0  0  0  0  0  0  0  0
    5.4030   -4.9460   20.0040 O   0  0  0  0  0  0  0  0  0  0  0  0
    6.8470   -4.3430   21.7370 N   0  0  0  0  0  0  0  0  0  0  0  0
    6.6850   -5.5840   22.4580 C   0  0  0  0  0  0  0  0  0  0  0  0
    6.1130   -5.2930   23.8170 C   0  0  0  0  0  0  0  0  0  0  0  0
    6.0040   -3.7950   23.8450 C   0  0  0  0  0  0  0  0  0  0  0  0
    5.3470   -3.2280   25.0870 C   0  0  0  0  0  0  0  0  0  0  0  0
    4.6790   -2.2280   24.8840 O   0  0  0  0  0  0  0  0  0  0  0  0
    5.4780   -3.7860   26.3580 N   0  0  0  0  0  0  0  0  0  0  0  0
    6.3950   -3.2340   27.2140 C   0  0  0  0  0  0  0  0  0  0  0  0
    6.6980   -4.1280   28.2340 C   0  0  0  0  0  0  0  0  0  0  0  0
    5.6600   -4.2870   29.0150 C   0  0  0  0  0  0  0  0  0  0  0  0
    4.4360   -4.4510   28.4120 C   0  0  2  0  0  0  0  0  0  0  0  0
    4.2270   -5.9220   28.5870 C   0  0  0  0  0  0  0  0  0  0  0  0
    4.7270   -6.6690   27.5490 O   0  0  0  0  0  0  0  0  0  0  0  0
    3.5940   -6.4360   29.6640 N   0  0  0  0  0  0  0  0  0  0  0  0
    2.6270   -7.3420   29.5450 C   0  0  0  0  0  0  0  0  0  0  0  0
    1.9600   -7.6280   28.3980 N   0  0  0  0  0  0  0  0  0  0  0  0
    0.9850   -8.6420   28.5770 C   0  0  0  0  0  0  0  0  0  0  0  0
    0.9660   -9.1050   29.9730 C   0  0  0  0  0  0  0  0  0  0  0  0
    2.1450   -8.2660   30.9800 S   0  0  0  0  0  0  0  0  0  0  0  0
    4.2300   -3.9080   27.1210 C   0  0  0  0  0  0  0  0  0  0  0  0
    7.3880   -3.2160   23.6860 C   0  0  0  0  0  0  0  0  0  0  0  0
    7.6380   -3.2670   22.3240 C   0  0  0  0  0  0  0  0  0  0  0  0
  1  2  1  0
  2  3  2  0
  2  4  1  0
  4  5  1  0
  5  6  1  0
  6  7  1  0
  7  8  1  0
  8  9  2  0
  8 10  1  0
 10 11  1  0
 11 12  1  0
 12 13  1  0
 13 14  1  0
 14 15  1  6
 15 16  2  0
 15 17  1  0
 17 18  1  0
 18 19  2  0
 19 20  1  0
 20 21  2  0
 18 22  1  0
 21 22  1  0
 10 23  1  0
 14 23  1  0
  7 24  1  0
  4 25  1  0
 24 25  1  0
M  END
