piperidine-amides-2459-covalent
     RDKit          3D

 26 28  0  0  0  0  0  0  0  0999 V2000
    7.0480   -3.3080   19.3190 C   0  0  0  0  0  0  0  0  0  0  0  0
    6.3750   -4.1510   20.3420 C   0  0  0  0  0  0  0  0  0  0  0  0
    5.3860   -4.7830   19.9690 O   0  0  0  0  0  0  0  0  0  0  0  0
    6.8860   -4.2370   21.6510 N   0  0  0  0  0  0  0  0  0  0  0  0
    7.6740   -3.1670   22.2220 C   0  0  0  0  0  0  0  0  0  0  0  0
    7.3720   -3.0040   23.6950 C   0  0  0  0  0  0  0  0  0  0  0  0
    5.9980   -3.6080   23.9960 C   0  0  0  0  0  0  0  0  0  0  0  0
    5.5450   -3.2560   25.3680 C   0  0  0  0  0  0  0  0  0  0  0  0
    4.4200   -2.7620   25.4890 O   0  0  0  0  0  0  0  0  0  0  0  0
    6.3200   -3.4550   26.5340 N   0  0  0  0  0  0  0  0  0  0  0  0
    5.6500   -3.9560   27.7270 C   0  0  1  0  0  0  0  0  0  0  0  0
    6.4930   -5.0330   28.3910 C   0  0  0  0  0  0  0  0  0  0  0  0
    5.4370   -2.9110   28.7820 C   0  0  0  0  0  0  0  0  0  0  0  0
    6.6500   -2.3160   28.7800 C   0  0  0  0  0  0  0  0  0  0  0  0
    6.9060   -1.2770   29.6340 C   0  0  0  0  0  0  0  0  0  0  0  0
    5.8710   -0.7470   30.6050 C   0  0  0  0  0  0  0  0  0  0  0  0
    6.4470    0.3730   31.4030 C   0  0  0  0  0  0  0  0  0  0  0  0
    7.9490    0.4040   31.4940 C   0  0  0  0  0  0  0  0  0  0  0  0
    8.4150    1.5670   32.3240 C   0  0  0  0  0  0  0  0  0  0  0  0
    7.4590    2.5430   32.9580 C   0  0  0  0  0  0  0  0  0  0  0  0
    6.0680    2.4550   32.8310 N   0  0  0  0  0  0  0  0  0  0  0  0
    5.6000    1.3790   32.0630 C   0  0  0  0  0  0  0  0  0  0  0  0
    4.5020   -1.4390   30.5790 C   0  0  0  0  0  0  0  0  0  0  0  0
    4.3780   -2.5600   29.5900 C   0  0  0  0  0  0  0  0  0  0  0  0
    6.0930   -5.0950   23.7840 C   0  0  0  0  0  0  0  0  0  0  0  0
    6.5850   -5.4300   22.3950 C   0  0  0  0  0  0  0  0  0  0  0  0
  1  2  1  0
  2  3  2  0
  2  4  1  0
  4  5  1  0
  5  6  1  0
  6  7  1  0
  7  8  1  0
  8  9  2  0
  8 10  1  0
 10 11  1  0
 11 12  1  1
 11 13  1  0
 13 14  2  0
 14 15  1  0
 15 16  2  0
 16 17  1  0
 17 18  2  0
 18 19  1  0
 19 20  2  0
 20 21  1  0
 17 22  1  0
 21 22  2  0
 16 23  1  0
 13 24  1  0
 23 24  2  0
  7 25  1  0
  4 26  1  0
 25 26  1  0
M  END
