piperidine-amides-2141-covalent
     RDKit          3D

 31 33  0  0  0  0  0  0  0  0999 V2000
    7.0840   -3.2630   19.2040 C   0  0  0  0  0  0  0  0  0  0  0  0
    6.3380   -4.0270   20.2390 C   0  0  0  0  0  0  0  0  0  0  0  0
    5.2900   -4.5620   19.8890 O   0  0  0  0  0  0  0  0  0  0  0  0
    6.8490   -4.1490   21.5320 N   0  0  0  0  0  0  0  0  0  0  0  0
    6.5870   -5.3230   22.3210 C   0  0  0  0  0  0  0  0  0  0  0  0
    5.9100   -4.9050   23.5950 C   0  0  0  0  0  0  0  0  0  0  0  0
    6.0980   -3.3990   23.7950 C   0  0  0  0  0  0  0  0  0  0  0  0
    5.6800   -3.0440   25.1670 C   0  0  0  0  0  0  0  0  0  0  0  0
    4.4860   -3.1670   25.4830 O   0  0  0  0  0  0  0  0  0  0  0  0
    6.6090   -2.5590   26.1100 N   0  0  0  0  0  0  0  0  0  0  0  0
    7.2190   -3.4990   27.0080 C   0  0  2  0  0  0  0  0  0  0  0  0
    8.5360   -3.7710   26.3130 C   0  0  0  0  0  0  0  0  0  0  0  0
    8.9080   -4.9950   25.8640 C   0  0  0  0  0  0  0  0  0  0  0  0
    9.0120   -5.8990   26.8340 C   0  0  0  0  0  0  0  0  0  0  0  0
    9.1970   -5.3410   28.0600 C   0  0  0  0  0  0  0  0  0  0  0  0
    6.4560   -4.5910   27.4020 C   0  0  0  0  0  0  0  0  0  0  0  0
    6.4450   -5.8200   26.8000 O   0  0  0  0  0  0  0  0  0  0  0  0
    5.6880   -4.2630   28.4650 N   0  0  0  0  0  0  0  0  0  0  0  0
    5.5100   -5.3260   29.2700 C   0  0  0  0  0  0  0  0  0  0  0  0
    6.3660   -6.5750   29.2980 C   0  0  0  0  0  0  0  0  0  0  0  0
    5.9780   -7.6110   30.2760 C   0  0  0  0  0  0  0  0  0  0  0  0
    4.8190   -7.3820   31.1400 C   0  0  0  0  0  0  0  0  0  0  0  0
    4.0090   -6.1240   31.0610 C   0  0  0  0  0  0  0  0  0  0  0  0
    2.9950   -6.0700   31.9050 N   0  0  0  0  0  0  0  0  0  0  0  0
    2.0060   -5.3820   31.3020 C   0  0  0  0  0  0  0  0  0  0  0  0
    0.8240   -5.6810   32.1910 C   0  0  0  0  0  0  0  0  0  0  0  0
    1.0940   -6.7300   32.9860 C   0  0  0  0  0  0  0  0  0  0  0  0
    2.4970   -7.1720   32.7310 C   0  0  0  0  0  0  0  0  0  0  0  0
    4.3840   -5.1620   30.1420 C   0  0  0  0  0  0  0  0  0  0  0  0
    7.5460   -3.0840   23.4780 C   0  0  0  0  0  0  0  0  0  0  0  0
    7.6570   -3.1000   22.1260 C   0  0  0  0  0  0  0  0  0  0  0  0
  1  2  1  0
  2  3  2  0
  2  4  1  0
  4  5  1  0
  5  6  1  0
  6  7  1  0
  7  8  1  0
  8  9  2  0
  8 10  1  0
 10 11  1  0
 11 12  1  6
 12 13  1  0
 13 14  1  0
 14 15  1  0
 11 16  1  0
 16 17  2  0
 16 18  1  0
 18 19  1  0
 19 20  2  0
 20 21  1  0
 21 22  2  0
 22 23  1  0
 23 24  1  0
 24 25  1  0
 25 26  1  0
 26 27  1  0
 24 28  1  0
 27 28  1  0
 19 29  1  0
 23 29  2  0
  7 30  1  0
  4 31  1  0
 30 31  1  0
M  END
