piperidine-amides-4019-covalent
     RDKit          3D

 28 30  0  0  0  0  0  0  0  0999 V2000
    7.1890   -3.2470   19.1410 C   0  0  0  0  0  0  0  0  0  0  0  0
    6.4460   -3.9930   20.1650 C   0  0  0  0  0  0  0  0  0  0  0  0
    5.3210   -4.4520   19.8520 O   0  0  0  0  0  0  0  0  0  0  0  0
    7.0310   -4.2400   21.4220 N   0  0  0  0  0  0  0  0  0  0  0  0
    7.7380   -3.1590   22.0170 C   0  0  0  0  0  0  0  0  0  0  0  0
    7.1350   -2.6670   23.2390 C   0  0  0  0  0  0  0  0  0  0  0  0
    6.5100   -3.6980   24.0760 C   0  0  0  0  0  0  0  0  0  0  0  0
    5.7290   -3.0450   25.1580 C   0  0  0  0  0  0  0  0  0  0  0  0
    4.5050   -2.8630   25.0110 O   0  0  0  0  0  0  0  0  0  0  0  0
    6.3470   -2.6370   26.3420 N   0  0  0  0  0  0  0  0  0  0  0  0
    5.7670   -2.7440   27.6090 C   0  0  1  0  0  0  0  0  0  0  0  0
    5.4830   -4.1050   28.0400 C   0  0  0  0  0  0  0  0  0  0  0  0
    4.3500   -4.2890   28.5880 O   0  0  0  0  0  0  0  0  0  0  0  0
    6.2690   -5.1560   27.9250 N   0  0  0  0  0  0  0  0  0  0  0  0
    7.3830   -5.2500   28.7610 C   0  0  0  0  0  0  0  0  0  0  0  0
    8.2630   -4.3290   28.2220 C   0  0  0  0  0  0  0  0  0  0  0  0
    9.1050   -5.4320   27.5630 C   0  0  0  0  0  0  0  0  0  0  0  0
    7.9460   -6.0580   26.9680 C   0  0  2  0  0  0  0  0  0  0  0  0
    8.0000   -4.9880   25.8740 C   0  0  0  0  0  0  0  0  0  0  0  0
    6.6160   -5.6640   26.7100 C   0  0  0  0  0  0  0  0  0  0  0  0
    6.2340   -1.9710   28.6400 C   0  0  0  0  0  0  0  0  0  0  0  0
    5.3310   -1.3420   29.6920 C   0  0  0  0  0  0  0  0  0  0  0  0
    5.9740   -0.6130   30.6130 N   0  0  0  0  0  0  0  0  0  0  0  0
    7.2810   -0.6340   30.3530 N   0  0  0  0  0  0  0  0  0  0  0  0
    8.2520    0.0400   31.1330 C   0  0  0  0  0  0  0  0  0  0  0  0
    7.4830   -1.4520   29.1600 C   0  0  0  0  0  0  0  0  0  0  0  0
    5.7100   -4.7460   23.3660 C   0  0  0  0  0  0  0  0  0  0  0  0
    6.5170   -5.3050   22.2230 C   0  0  0  0  0  0  0  0  0  0  0  0
  1  2  1  0
  2  3  2  0
  2  4  1  0
  4  5  1  0
  5  6  1  0
  6  7  1  0
  7  8  1  0
  8  9  2  0
  8 10  1  0
 11 10  1  6
 11 12  1  0
 12 13  2  0
 12 14  1  0
 14 15  1  0
 15 16  1  0
 16 17  1  0
 17 18  1  0
 18 19  1  6
 14 20  1  0
 18 20  1  0
 11 21  1  0
 21 22  1  0
 22 23  2  0
 23 24  1  0
 24 25  1  0
 21 26  2  0
 24 26  1  0
  7 27  1  0
  4 28  1  0
 27 28  1  0
M  END
