piperidine-amides-24240-covalent
     RDKit          3D

 23 25  0  0  0  0  0  0  0  0999 V2000
    7.0250   -3.3630   19.4010 C   0  0  0  0  0  0  0  0  0  0  0  0
    6.3750   -4.2540   20.3820 C   0  0  0  0  0  0  0  0  0  0  0  0
    5.4060   -4.9510   20.0080 O   0  0  0  0  0  0  0  0  0  0  0  0
    6.8510   -4.3670   21.7070 N   0  0  0  0  0  0  0  0  0  0  0  0
    6.6010   -5.6060   22.4300 C   0  0  0  0  0  0  0  0  0  0  0  0
    6.1750   -5.2450   23.8720 C   0  0  0  0  0  0  0  0  0  0  0  0
    6.0580   -3.7410   23.9100 C   0  0  0  0  0  0  0  0  0  0  0  0
    5.4560   -3.1680   25.1500 C   0  0  0  0  0  0  0  0  0  0  0  0
    4.7280   -2.1790   24.9770 O   0  0  0  0  0  0  0  0  0  0  0  0
    5.6150   -3.6480   26.4780 N   0  0  0  0  0  0  0  0  0  0  0  0
    4.3490   -3.9410   27.1510 C   0  0  0  0  0  0  0  0  0  0  0  0
    4.5790   -5.2230   27.8970 C   0  0  0  0  0  0  0  0  0  0  0  0
    3.8960   -6.4000   28.1810 C   0  0  0  0  0  0  0  0  0  0  0  0
    2.2480   -6.7030   27.6230 Cl  0  0  0  0  0  0  0  0  0  0  0  0
    4.4960   -7.4270   28.9410 C   0  0  0  0  0  0  0  0  0  0  0  0
    5.8140   -7.3210   29.4490 C   0  0  0  0  0  0  0  0  0  0  0  0
    6.5560   -6.2120   29.2250 C   0  0  0  0  0  0  0  0  0  0  0  0
    5.8820   -5.1970   28.4510 C   0  0  0  0  0  0  0  0  0  0  0  0
    6.9390   -4.2110   28.4450 C   0  0  2  0  0  0  0  0  0  0  0  0
    6.5640   -2.8180   28.8500 C   0  0  0  0  0  0  0  0  0  0  0  0
    6.4950   -3.0820   27.4850 C   0  0  0  0  0  0  0  0  0  0  0  0
    7.3940   -3.1300   23.6090 C   0  0  0  0  0  0  0  0  0  0  0  0
    7.6260   -3.3010   22.2760 C   0  0  0  0  0  0  0  0  0  0  0  0
  1  2  1  0
  2  3  2  0
  2  4  1  0
  4  5  1  0
  5  6  1  0
  6  7  1  0
  7  8  1  0
  8  9  2  0
  8 10  1  0
 10 11  1  0
 11 12  1  0
 12 13  2  0
 13 14  1  0
 13 15  1  0
 15 16  2  0
 16 17  1  0
 12 18  1  0
 17 18  2  0
 18 19  1  0
 19 20  1  1
 10 21  1  0
 19 21  1  0
  7 22  1  0
  4 23  1  0
 22 23  1  0
M  END
