piperidine-amides-35169-covalent
     RDKit          3D

 32 35  0  0  0  0  0  0  0  0999 V2000
    7.0980   -3.3460   19.3570 C   0  0  0  0  0  0  0  0  0  0  0  0
    6.3790   -4.1890   20.3420 C   0  0  0  0  0  0  0  0  0  0  0  0
    5.3490   -4.7380   19.9540 O   0  0  0  0  0  0  0  0  0  0  0  0
    6.9050   -4.3770   21.6300 N   0  0  0  0  0  0  0  0  0  0  0  0
    6.6300   -5.5720   22.3790 C   0  0  0  0  0  0  0  0  0  0  0  0
    5.9890   -5.1780   23.6810 C   0  0  0  0  0  0  0  0  0  0  0  0
    6.7840   -4.0510   24.3470 C   0  0  0  0  0  0  0  0  0  0  0  0
    6.0020   -3.5820   25.5150 C   0  0  0  0  0  0  0  0  0  0  0  0
    4.9080   -3.0320   25.3130 O   0  0  0  0  0  0  0  0  0  0  0  0
    6.4580   -3.7570   26.8420 N   0  0  0  0  0  0  0  0  0  0  0  0
    7.0540   -5.0260   27.1940 C   0  0  0  0  0  0  0  0  0  0  0  0
    5.9410   -5.9190   27.6220 C   0  0  0  0  0  0  0  0  0  0  0  0
    5.4560   -5.4310   28.9220 N   0  0  0  0  0  0  0  0  0  0  0  0
    4.1360   -6.0540   29.0740 C   0  0  0  0  0  0  0  0  0  0  0  0
    4.1590   -6.7600   30.2300 C   0  0  0  0  0  0  0  0  0  0  0  0
    5.1540   -6.9830   31.1310 C   0  0  0  0  0  0  0  0  0  0  0  0
    4.8510   -7.8270   32.3470 C   0  0  0  0  0  0  0  0  0  0  0  0
    3.4100   -8.1740   32.1260 C   0  0  0  0  0  0  0  0  0  0  0  0
    2.6790   -9.0390   33.1300 C   0  0  0  0  0  0  0  0  0  0  0  0
    3.5720   -9.3740   34.2790 C   0  0  0  0  0  0  0  0  0  0  0  0
    2.9850  -10.2290   35.3440 C   0  0  0  0  0  0  0  0  0  0  0  0
    1.5550  -10.6970   35.2060 C   0  0  0  0  0  0  0  0  0  0  0  0
    0.7910  -10.2750   33.9960 C   0  0  0  0  0  0  0  0  0  0  0  0
    1.3620   -9.4040   32.8930 C   0  0  0  0  0  0  0  0  0  0  0  0
    0.5460   -9.0890   31.8300 N   0  0  0  0  0  0  0  0  0  0  0  0
   -0.1210  -10.0960   31.3720 O   0  0  0  0  0  0  0  0  0  0  0  0
    0.1110   -7.8530   31.4340 O   0  0  0  0  0  0  0  0  0  0  0  0
    2.7080   -7.5410   30.7090 S   0  0  0  0  0  0  0  0  0  0  0  0
    5.4140   -4.0170   28.9790 C   0  0  0  0  0  0  0  0  0  0  0  0
    5.7650   -3.0530   27.8810 C   0  0  0  0  0  0  0  0  0  0  0  0
    6.9650   -2.8250   23.4370 C   0  0  0  0  0  0  0  0  0  0  0  0
    7.7190   -3.3380   22.2200 C   0  0  0  0  0  0  0  0  0  0  0  0
  1  2  1  0
  2  3  2  0
  2  4  1  0
  4  5  1  0
  5  6  1  0
  6  7  1  0
  7  8  1  0
  8  9  2  0
  8 10  1  0
 10 11  1  0
 11 12  1  0
 12 13  1  0
 13 14  1  0
 14 15  1  0
 15 16  2  0
 16 17  1  0
 17 18  2  0
 18 19  1  0
 19 20  2  0
 20 21  1  0
 21 22  2  0
 22 23  1  0
 19 24  1  0
 23 24  2  0
 24 25  1  0
 25 26  2  0
 25 27  1  0
 15 28  1  0
 18 28  1  0
 13 29  1  0
 10 30  1  0
 29 30  1  0
  7 31  1  0
  4 32  1  0
 31 32  1  0
M  CHG  2  25   1  27  -1
M  END
