piperidine-amides-14644-covalent
     RDKit          3D

 22 22  0  0  0  0  0  0  0  0999 V2000
    7.0600   -3.2980   19.2930 C   0  0  0  0  0  0  0  0  0  0  0  0
    6.3640   -4.0980   20.3030 C   0  0  0  0  0  0  0  0  0  0  0  0
    5.3630   -4.7470   19.9480 O   0  0  0  0  0  0  0  0  0  0  0  0
    6.8400   -4.1580   21.6420 N   0  0  0  0  0  0  0  0  0  0  0  0
    7.7260   -3.1220   22.1360 C   0  0  0  0  0  0  0  0  0  0  0  0
    7.4330   -2.8000   23.5720 C   0  0  0  0  0  0  0  0  0  0  0  0
    6.1470   -3.5020   23.8960 C   0  0  0  0  0  0  0  0  0  0  0  0
    5.7230   -3.2180   25.3100 C   0  0  0  0  0  0  0  0  0  0  0  0
    4.6280   -2.6680   25.4180 O   0  0  0  0  0  0  0  0  0  0  0  0
    6.5540   -3.5660   26.3800 N   0  0  0  0  0  0  0  0  0  0  0  0
    6.0160   -4.1100   27.5870 C   0  0  2  0  0  0  0  0  0  0  0  0
    6.8450   -4.7370   28.5200 C   0  0  0  0  0  0  0  0  0  0  0  0
    7.0210   -6.0970   28.4030 C   0  0  0  0  0  0  0  0  0  0  0  0
    5.0710   -5.1760   27.1500 C   0  0  0  0  0  0  0  0  0  0  0  0
    5.6070   -5.9170   26.1030 O   0  0  0  0  0  0  0  0  0  0  0  0
    3.8060   -5.3300   27.7670 N   0  0  0  0  0  0  0  0  0  0  0  0
    3.1710   -6.6470   27.8140 C   0  0  0  0  0  0  0  0  0  0  0  0
    2.3540   -6.8790   26.5220 C   0  0  0  0  0  0  0  0  0  0  0  0
    3.2100   -7.3410   25.3970 C   0  0  0  0  0  0  0  0  0  0  0  0
    2.4920   -8.5720   24.9440 C   0  0  0  0  0  0  0  0  0  0  0  0
    6.1360   -4.9530   23.6680 C   0  0  0  0  0  0  0  0  0  0  0  0
    6.6590   -5.3440   22.4540 C   0  0  0  0  0  0  0  0  0  0  0  0
  1  2  1  0
  2  3  2  0
  2  4  1  0
  4  5  1  0
  5  6  1  0
  6  7  1  0
  7  8  1  0
  8  9  2  0
  8 10  1  0
 10 11  1  0
 11 12  1  1
 12 13  1  0
 11 14  1  0
 14 15  2  0
 14 16  1  0
 16 17  1  0
 17 18  1  0
 18 19  1  0
 19 20  1  0
  7 21  1  0
  4 22  1  0
 21 22  1  0
M  END
