piperidine-amides-34119-covalent
     RDKit          3D

 31 35  0  0  0  0  0  0  0  0999 V2000
    7.0650   -3.3230   19.3450 C   0  0  0  0  0  0  0  0  0  0  0  0
    6.3900   -4.2010   20.3140 C   0  0  0  0  0  0  0  0  0  0  0  0
    5.3660   -4.8330   19.9760 O   0  0  0  0  0  0  0  0  0  0  0  0
    6.9100   -4.3840   21.6050 N   0  0  0  0  0  0  0  0  0  0  0  0
    7.6590   -3.3150   22.2370 C   0  0  0  0  0  0  0  0  0  0  0  0
    6.7880   -2.8070   23.3880 C   0  0  0  0  0  0  0  0  0  0  0  0
    6.4490   -4.0280   24.2100 C   0  0  0  0  0  0  0  0  0  0  0  0
    5.4490   -3.6770   25.2480 C   0  0  0  0  0  0  0  0  0  0  0  0
    4.5460   -2.8640   24.9740 O   0  0  0  0  0  0  0  0  0  0  0  0
    5.5680   -4.2760   26.5180 N   0  0  0  0  0  0  0  0  0  0  0  0
    6.8920   -4.4880   26.8340 C   0  0  0  0  0  0  0  0  0  0  0  0
    7.0340   -5.3110   28.0870 C   0  0  0  0  0  0  0  0  0  0  0  0
    6.2700   -4.8880   29.1120 C   0  0  0  0  0  0  0  0  0  0  0  0
    4.9730   -4.6270   28.7760 C   0  0  1  0  0  0  0  0  0  0  0  0
    4.0850   -4.1970   29.7620 C   0  0  0  0  0  0  0  0  0  0  0  0
    3.0010   -4.9290   29.9800 N   0  0  0  0  0  0  0  0  0  0  0  0
    2.2440   -4.3320   30.9970 C   0  0  0  0  0  0  0  0  0  0  0  0
    0.9270   -4.8230   31.5680 C   0  0  0  0  0  0  0  0  0  0  0  0
    1.3870   -4.3220   32.8870 C   0  0  0  0  0  0  0  0  0  0  0  0
    0.1600   -4.7710   33.4440 C   0  0  0  0  0  0  0  0  0  0  0  0
    0.2800   -4.4120   34.8360 C   0  0  0  0  0  0  0  0  0  0  0  0
   -0.9080   -4.8080   35.5420 C   0  0  0  0  0  0  0  0  0  0  0  0
   -1.9670   -5.4500   34.8590 C   0  0  0  0  0  0  0  0  0  0  0  0
   -1.9400   -5.7630   33.3720 C   0  0  0  0  0  0  0  0  0  0  0  0
   -0.7170   -5.3520   32.6520 C   0  0  0  0  0  0  0  0  0  0  0  0
   -0.2220   -5.3870   31.4380 O   0  0  0  0  0  0  0  0  0  0  0  0
    2.9520   -3.2440   31.3300 N   0  0  0  0  0  0  0  0  0  0  0  0
    4.0590   -3.1070   30.6320 O   0  0  0  0  0  0  0  0  0  0  0  0
    4.7690   -3.7300   27.5950 C   0  0  0  0  0  0  0  0  0  0  0  0
    5.8620   -5.1720   23.4440 C   0  0  0  0  0  0  0  0  0  0  0  0
    6.6170   -5.5570   22.3790 C   0  0  0  0  0  0  0  0  0  0  0  0
  1  2  1  0
  2  3  2  0
  2  4  1  0
  4  5  1  0
  5  6  1  0
  6  7  1  0
  7  8  1  0
  8  9  2  0
  8 10  1  0
 10 11  1  0
 11 12  1  0
 12 13  1  0
 13 14  1  0
 14 15  1  1
 15 16  2  0
 16 17  1  0
 17 18  1  0
 18 19  2  0
 19 20  1  0
 20 21  2  0
 21 22  1  0
 22 23  2  0
 23 24  1  0
 20 25  1  0
 24 25  2  0
 18 26  1  0
 25 26  1  0
 17 27  2  0
 15 28  1  0
 27 28  1  0
 10 29  1  0
 14 29  1  0
  7 30  1  0
  4 31  1  0
 30 31  1  0
M  END
