piperidine-amides-32239-covalent
     RDKit          3D

 27 29  0  0  0  0  0  0  0  0999 V2000
    7.0690   -3.3610   19.4140 C   0  0  0  0  0  0  0  0  0  0  0  0
    6.3450   -4.2210   20.3860 C   0  0  0  0  0  0  0  0  0  0  0  0
    5.3650   -4.8740   19.9890 O   0  0  0  0  0  0  0  0  0  0  0  0
    6.8110   -4.3080   21.7170 N   0  0  0  0  0  0  0  0  0  0  0  0
    7.6370   -3.3030   22.3440 C   0  0  0  0  0  0  0  0  0  0  0  0
    6.9050   -2.7740   23.5960 C   0  0  0  0  0  0  0  0  0  0  0  0
    6.4600   -3.9010   24.4960 C   0  0  0  0  0  0  0  0  0  0  0  0
    5.4630   -3.4550   25.5290 C   0  0  0  0  0  0  0  0  0  0  0  0
    4.3010   -3.3520   25.1220 O   0  0  0  0  0  0  0  0  0  0  0  0
    5.8070   -3.1490   26.8750 N   0  0  0  0  0  0  0  0  0  0  0  0
    6.9180   -2.3660   27.3110 C   0  0  0  0  0  0  0  0  0  0  0  0
    7.2800   -2.1870   28.6630 C   0  0  0  0  0  0  0  0  0  0  0  0
    6.1100   -2.5130   29.5150 O   0  0  0  0  0  0  0  0  0  0  0  0
    5.6420   -3.6960   29.0500 C   0  0  2  0  0  0  0  0  0  0  0  0
    6.6830   -4.1900   28.4470 C   0  0  0  0  0  0  0  0  0  0  0  0
    7.0620   -5.5820   28.3080 C   0  0  0  0  0  0  0  0  0  0  0  0
    8.2870   -5.9190   27.4880 C   0  0  0  0  0  0  0  0  0  0  0  0
    9.0110   -4.7200   26.8770 C   0  0  0  0  0  0  0  0  0  0  0  0
   10.3060   -4.9560   25.8560 S   0  0  0  0  0  0  0  0  0  0  0  0
    9.4960   -3.9290   24.5980 C   0  0  0  0  0  0  0  0  0  0  0  0
   11.6560   -4.5600   26.3110 O   0  0  0  0  0  0  0  0  0  0  0  0
   10.0620   -6.3850   25.7380 O   0  0  0  0  0  0  0  0  0  0  0  0
    8.6260   -3.3490   27.0770 C   0  0  0  0  0  0  0  0  0  0  0  0
    7.4220   -3.2140   27.8920 C   0  0  0  0  0  0  0  0  0  0  0  0
    4.8330   -3.5000   27.9400 C   0  0  0  0  0  0  0  0  0  0  0  0
    5.8090   -5.0660   23.7850 C   0  0  0  0  0  0  0  0  0  0  0  0
    6.5340   -5.4770   22.5200 C   0  0  0  0  0  0  0  0  0  0  0  0
  1  2  1  0
  2  3  2  0
  2  4  1  0
  4  5  1  0
  5  6  1  0
  6  7  1  0
  7  8  1  0
  8  9  2  0
  8 10  1  0
 10 11  1  0
 11 12  1  0
 12 13  1  0
 13 14  1  0
 14 15  1  6
 15 16  2  0
 16 17  1  0
 17 18  2  0
 18 19  1  0
 19 20  1  0
 19 21  2  0
 19 22  2  0
 18 23  1  0
 15 24  1  0
 23 24  2  0
 10 25  1  0
 14 25  1  0
  7 26  1  0
  4 27  1  0
 26 27  1  0
M  END
