piperidine-amides-32526-covalent
     RDKit          3D

 28 29  0  0  0  0  0  0  0  0999 V2000
    7.0590   -3.3730   19.4480 C   0  0  0  0  0  0  0  0  0  0  0  0
    6.3470   -4.2670   20.4010 C   0  0  0  0  0  0  0  0  0  0  0  0
    5.3530   -4.8900   19.9890 O   0  0  0  0  0  0  0  0  0  0  0  0
    6.8280   -4.4410   21.7230 N   0  0  0  0  0  0  0  0  0  0  0  0
    6.4500   -5.5610   22.5340 C   0  0  0  0  0  0  0  0  0  0  0  0
    5.4400   -5.0180   23.5580 C   0  0  0  0  0  0  0  0  0  0  0  0
    6.1770   -4.0830   24.4620 C   0  0  0  0  0  0  0  0  0  0  0  0
    5.3010   -3.3720   25.4680 C   0  0  0  0  0  0  0  0  0  0  0  0
    4.6710   -2.4260   25.0020 O   0  0  0  0  0  0  0  0  0  0  0  0
    5.1760   -3.7320   26.8520 N   0  0  0  0  0  0  0  0  0  0  0  0
    4.7400   -2.8820   27.8790 C   0  0  0  0  0  0  0  0  0  0  0  0
    4.5570   -3.3610   29.1560 C   0  0  0  0  0  0  0  0  0  0  0  0
    5.7660   -4.0720   29.5190 O   0  0  0  0  0  0  0  0  0  0  0  0
    6.1890   -5.0560   28.6440 C   0  0  1  0  0  0  0  0  0  0  0  0
    5.6190   -6.3140   28.8070 C   0  0  0  0  0  0  0  0  0  0  0  0
    4.4110   -6.5300   29.6740 C   0  0  0  0  0  0  0  0  0  0  0  0
    3.2050   -5.9530   29.3120 O   0  0  0  0  0  0  0  0  0  0  0  0
    4.6230   -7.3410   30.8250 N   0  0  0  0  0  0  0  0  0  0  0  0
    4.0840   -6.8870   32.0910 C   0  0  1  0  0  0  0  0  0  0  0  0
    2.8610   -5.9720   32.0190 C   0  0  0  0  0  0  0  0  0  0  0  0
    2.1400   -5.8670   33.1930 C   0  0  0  0  0  0  0  0  0  0  0  0
    3.6220   -8.0900   32.8860 C   0  0  0  0  0  0  0  0  0  0  0  0
    2.4480   -8.7420   32.6060 O   0  0  0  0  0  0  0  0  0  0  0  0
    4.3950   -8.5880   33.9530 O   0  0  0  0  0  0  0  0  0  0  0  0
    5.7170   -8.9930   33.6560 C   0  0  0  0  0  0  0  0  0  0  0  0
    6.1770   -4.6120   27.3110 C   0  0  0  0  0  0  0  0  0  0  0  0
    6.9830   -3.0170   23.7490 C   0  0  0  0  0  0  0  0  0  0  0  0
    7.5980   -3.4110   22.4070 C   0  0  0  0  0  0  0  0  0  0  0  0
  1  2  1  0
  2  3  2  0
  2  4  1  0
  4  5  1  0
  5  6  1  0
  6  7  1  0
  7  8  1  0
  8  9  2  0
  8 10  1  0
 10 11  1  0
 11 12  1  0
 12 13  1  0
 13 14  1  0
 14 15  1  6
 15 16  1  0
 16 17  2  0
 16 18  1  0
 18 19  1  0
 19 20  1  6
 20 21  1  0
 19 22  1  0
 22 23  2  0
 22 24  1  0
 24 25  1  0
 10 26  1  0
 14 26  1  0
  7 27  1  0
  4 28  1  0
 27 28  1  0
M  END
