piperidine-amides-34929-covalent
     RDKit          3D

 31 33  0  0  0  0  0  0  0  0999 V2000
    7.0710   -3.2740   19.2120 C   0  0  0  0  0  0  0  0  0  0  0  0
    6.3300   -4.0460   20.2440 C   0  0  0  0  0  0  0  0  0  0  0  0
    5.2770   -4.5710   19.8900 O   0  0  0  0  0  0  0  0  0  0  0  0
    6.8520   -4.1840   21.5340 N   0  0  0  0  0  0  0  0  0  0  0  0
    7.6710   -3.1620   22.1270 C   0  0  0  0  0  0  0  0  0  0  0  0
    7.0980   -2.7700   23.4560 C   0  0  0  0  0  0  0  0  0  0  0  0
    6.7640   -4.0150   24.2890 C   0  0  0  0  0  0  0  0  0  0  0  0
    6.1470   -3.5300   25.5390 C   0  0  0  0  0  0  0  0  0  0  0  0
    4.9110   -3.3960   25.5980 O   0  0  0  0  0  0  0  0  0  0  0  0
    6.9610   -3.2140   26.6560 N   0  0  0  0  0  0  0  0  0  0  0  0
    7.6420   -4.3220   27.3040 C   0  0  0  0  0  0  0  0  0  0  0  0
    6.6460   -5.4420   27.5440 C   0  0  0  0  0  0  0  0  0  0  0  0
    5.8040   -5.1390   28.5980 O   0  0  0  0  0  0  0  0  0  0  0  0
    7.2460   -1.8650   26.7790 C   0  0  0  0  0  0  0  0  0  0  0  0
    6.1380   -1.0790   26.7640 C   0  0  0  0  0  0  0  0  0  0  0  0
    5.1860   -1.2580   27.7170 C   0  0  0  0  0  0  0  0  0  0  0  0
    3.8620   -0.5390   27.9520 C   0  0  0  0  0  0  0  0  0  0  0  0
    3.6610    0.5360   26.9020 C   0  0  0  0  0  0  0  0  0  0  0  0
    4.7120    0.7490   25.8360 C   0  0  0  0  0  0  0  0  0  0  0  0
    4.4080    1.7670   24.9360 O   0  0  0  0  0  0  0  0  0  0  0  0
    3.1730    2.4130   24.8410 C   0  0  0  0  0  0  0  0  0  0  0  0
    3.0830    3.4010   25.9560 C   0  0  0  0  0  0  0  0  0  0  0  0
    2.2330    3.2920   27.2160 C   0  0  0  0  0  0  0  0  0  0  0  0
    2.2710    4.3730   28.2210 C   0  0  0  0  0  0  0  0  0  0  0  0
    3.1480    5.5550   27.9740 C   0  0  0  0  0  0  0  0  0  0  0  0
    3.9030    5.6220   26.8240 C   0  0  0  0  0  0  0  0  0  0  0  0
    3.8880    4.5250   25.7680 C   0  0  0  0  0  0  0  0  0  0  0  0
    4.8880    4.7080   24.3410 Cl  0  0  0  0  0  0  0  0  0  0  0  0
    5.9560   -0.1190   25.8310 C   0  0  0  0  0  0  0  0  0  0  0  0
    5.8400   -4.9070   23.4660 C   0  0  0  0  0  0  0  0  0  0  0  0
    6.5320   -5.3170   22.3680 C   0  0  0  0  0  0  0  0  0  0  0  0
  1  2  1  0
  2  3  2  0
  2  4  1  0
  4  5  1  0
  5  6  1  0
  6  7  1  0
  7  8  1  0
  8  9  2  0
  8 10  1  0
 10 11  1  0
 11 12  1  0
 12 13  1  0
 10 14  1  0
 14 15  1  0
 15 16  2  0
 16 17  1  0
 17 18  2  0
 18 19  1  0
 19 20  1  0
 20 21  1  0
 21 22  1  0
 22 23  2  0
 23 24  1  0
 24 25  2  0
 25 26  1  0
 22 27  1  0
 26 27  2  0
 27 28  1  0
 15 29  1  0
 19 29  2  0
  7 30  1  0
  4 31  1  0
 30 31  1  0
M  END
