piperidine-amides-2506-covalent
     RDKit          3D

 26 28  0  0  0  0  0  0  0  0999 V2000
    7.0600   -3.2770   19.2330 C   0  0  0  0  0  0  0  0  0  0  0  0
    6.3350   -4.0530   20.2710 C   0  0  0  0  0  0  0  0  0  0  0  0
    5.3140   -4.6400   19.9190 O   0  0  0  0  0  0  0  0  0  0  0  0
    6.8420   -4.1190   21.5700 N   0  0  0  0  0  0  0  0  0  0  0  0
    7.5450   -3.0160   22.1650 C   0  0  0  0  0  0  0  0  0  0  0  0
    6.8270   -2.6180   23.4200 C   0  0  0  0  0  0  0  0  0  0  0  0
    6.6320   -3.8740   24.2680 C   0  0  0  0  0  0  0  0  0  0  0  0
    5.8350   -3.5450   25.4730 C   0  0  0  0  0  0  0  0  0  0  0  0
    4.6360   -3.2550   25.3280 O   0  0  0  0  0  0  0  0  0  0  0  0
    6.4010   -3.5270   26.7780 N   0  0  0  0  0  0  0  0  0  0  0  0
    6.8120   -4.7440   27.4910 C   0  0  2  0  0  0  0  0  0  0  0  0
    7.6300   -5.6360   26.5840 C   0  0  0  0  0  0  0  0  0  0  0  0
    8.6650   -6.4310   27.2600 N   0  0  0  0  0  0  0  0  0  0  0  0
    7.3670   -5.6500   25.2360 O   0  0  0  0  0  0  0  0  0  0  0  0
    5.7130   -5.5590   28.0860 C   0  0  0  0  0  0  0  0  0  0  0  0
    4.8970   -5.9110   27.0210 C   0  0  0  0  0  0  0  0  0  0  0  0
    3.7840   -6.6770   27.2830 C   0  0  0  0  0  0  0  0  0  0  0  0
    3.3330   -7.1940   28.6130 C   0  0  0  0  0  0  0  0  0  0  0  0
    2.0710   -7.9970   28.5430 C   0  0  0  0  0  0  0  0  0  0  0  0
    1.5560   -8.5540   29.8650 C   0  0  0  0  0  0  0  0  0  0  0  0
    2.3710   -8.2360   31.0900 C   0  0  0  0  0  0  0  0  0  0  0  0
    3.6180   -7.4250   31.0460 C   0  0  0  0  0  0  0  0  0  0  0  0
    4.1580   -6.8560   29.7680 C   0  0  0  0  0  0  0  0  0  0  0  0
    5.3600   -6.0360   29.5260 C   0  0  0  0  0  0  0  0  0  0  0  0
    5.8590   -4.9320   23.4740 C   0  0  0  0  0  0  0  0  0  0  0  0
    6.6440   -5.3000   22.3950 C   0  0  0  0  0  0  0  0  0  0  0  0
  1  2  1  0
  2  3  2  0
  2  4  1  0
  4  5  1  0
  5  6  1  0
  6  7  1  0
  7  8  1  0
  8  9  2  0
  8 10  1  0
 11 10  1  6
 11 12  1  0
 12 13  1  0
 12 14  2  0
 11 15  1  0
 15 16  2  0
 16 17  1  0
 17 18  2  0
 18 19  1  0
 19 20  2  0
 20 21  1  0
 21 22  2  0
 18 23  1  0
 22 23  1  0
 15 24  1  0
 23 24  2  0
  7 25  1  0
  4 26  1  0
 25 26  1  0
M  END
