piperidine-amides-29899-covalent
     RDKit          3D

 26 29  0  0  0  0  0  0  0  0999 V2000
    7.0160   -3.3720   19.4490 C   0  0  0  0  0  0  0  0  0  0  0  0
    6.3750   -4.2740   20.4040 C   0  0  0  0  0  0  0  0  0  0  0  0
    5.4300   -4.9650   20.0150 O   0  0  0  0  0  0  0  0  0  0  0  0
    6.8610   -4.3850   21.7690 N   0  0  0  0  0  0  0  0  0  0  0  0
    6.5210   -5.5490   22.5720 C   0  0  0  0  0  0  0  0  0  0  0  0
    6.0180   -5.1550   23.9560 C   0  0  0  0  0  0  0  0  0  0  0  0
    5.9130   -3.6430   23.9930 C   0  0  0  0  0  0  0  0  0  0  0  0
    5.1990   -3.0050   25.1740 C   0  0  0  0  0  0  0  0  0  0  0  0
    4.5380   -1.9790   24.9880 O   0  0  0  0  0  0  0  0  0  0  0  0
    5.1960   -3.4840   26.5190 N   0  0  0  0  0  0  0  0  0  0  0  0
    4.3280   -2.8180   27.4310 C   0  0  0  0  0  0  0  0  0  0  0  0
    4.3350   -3.6200   28.7000 C   0  0  0  0  0  0  0  0  0  0  0  0
    5.4420   -4.0500   29.3010 N   0  0  0  0  0  0  0  0  0  0  0  0
    5.2630   -5.3060   29.7480 C   0  0  0  0  0  0  0  0  0  0  0  0
    6.0170   -6.4130   29.3880 C   0  0  0  0  0  0  0  0  0  0  0  0
    5.7710   -7.6850   29.9040 C   0  0  0  0  0  0  0  0  0  0  0  0
    4.6700   -7.8860   30.8720 N   0  0  0  0  0  0  0  0  0  0  0  0
    3.9240   -6.7380   31.2130 C   0  0  0  0  0  0  0  0  0  0  0  0
    2.8570   -6.4520   32.0340 C   0  0  0  0  0  0  0  0  0  0  0  0
    2.3850   -5.1900   32.1210 C   0  0  0  0  0  0  0  0  0  0  0  0
    3.3170   -4.1710   31.0940 S   0  0  0  0  0  0  0  0  0  0  0  0
    4.2730   -5.5330   30.6280 C   0  0  0  0  0  0  0  0  0  0  0  0
    6.4450   -4.0060   28.4010 C   0  0  0  0  0  0  0  0  0  0  0  0
    6.3590   -3.9430   27.0180 C   0  0  0  0  0  0  0  0  0  0  0  0
    7.2590   -3.0310   23.7380 C   0  0  0  0  0  0  0  0  0  0  0  0
    7.6270   -3.3070   22.3160 C   0  0  0  0  0  0  0  0  0  0  0  0
  1  2  1  0
  2  3  2  0
  2  4  1  0
  4  5  1  0
  5  6  1  0
  6  7  1  0
  7  8  1  0
  8  9  2  0
  8 10  1  0
 10 11  1  0
 11 12  1  0
 12 13  1  0
 13 14  1  0
 14 15  2  0
 15 16  1  0
 16 17  2  0
 17 18  1  0
 18 19  1  0
 19 20  2  0
 20 21  1  0
 14 22  1  0
 18 22  2  0
 21 22  1  0
 13 23  1  0
 10 24  1  0
 23 24  1  0
  7 25  1  0
  4 26  1  0
 25 26  1  0
M  END
