piperidine-amides-10600-covalent
     RDKit          3D

 23 24  0  0  0  0  0  0  0  0999 V2000
    7.1370   -3.2960   19.2390 C   0  0  0  0  0  0  0  0  0  0  0  0
    6.3500   -4.0100   20.2490 C   0  0  0  0  0  0  0  0  0  0  0  0
    5.2620   -4.5150   19.8690 O   0  0  0  0  0  0  0  0  0  0  0  0
    6.8480   -4.1420   21.5470 N   0  0  0  0  0  0  0  0  0  0  0  0
    7.7550   -3.1600   22.0760 C   0  0  0  0  0  0  0  0  0  0  0  0
    7.2010   -2.7590   23.3920 C   0  0  0  0  0  0  0  0  0  0  0  0
    5.8550   -3.3990   23.5760 C   0  0  0  0  0  0  0  0  0  0  0  0
    5.2880   -2.9960   24.8760 C   0  0  0  0  0  0  0  0  0  0  0  0
    4.1190   -3.3450   25.1510 O   0  0  0  0  0  0  0  0  0  0  0  0
    5.9920   -2.2350   25.8180 N   0  0  0  0  0  0  0  0  0  0  0  0
    6.3740   -2.8750   27.0220 C   0  0  0  0  0  0  0  0  0  0  0  0
    7.3590   -3.9670   26.7270 C   0  0  0  0  0  0  0  0  0  0  0  0
    8.3620   -3.5560   25.7520 N   0  0  0  0  0  0  0  0  0  0  0  0
    9.2850   -4.4380   25.4280 C   0  0  0  0  0  0  0  0  0  0  0  0
    9.3320   -5.6840   25.9960 C   0  0  0  0  0  0  0  0  0  0  0  0
    8.3860   -6.0600   26.9050 C   0  0  0  0  0  0  0  0  0  0  0  0
    7.3780   -5.2240   27.2690 C   0  0  0  0  0  0  0  0  0  0  0  0
    6.3360   -5.4690   28.1280 C   0  0  0  0  0  0  0  0  0  0  0  0
    5.0940   -5.8610   27.3540 C   0  0  0  0  0  0  0  0  0  0  0  0
    6.6990   -6.4530   28.9680 C   0  0  0  0  0  0  0  0  0  0  0  0
    6.1610   -4.4450   29.0200 C   0  0  0  0  0  0  0  0  0  0  0  0
    5.9000   -4.9110   23.5170 C   0  0  0  0  0  0  0  0  0  0  0  0
    6.5860   -5.3210   22.3810 C   0  0  0  0  0  0  0  0  0  0  0  0
  1  2  1  0
  2  3  2  0
  2  4  1  0
  4  5  1  0
  5  6  1  0
  6  7  1  0
  7  8  1  0
  8  9  2  0
  8 10  1  0
 10 11  1  0
 11 12  1  0
 12 13  2  0
 13 14  1  0
 14 15  2  0
 15 16  1  0
 12 17  1  0
 16 17  2  0
 17 18  1  0
 18 19  1  0
 18 20  1  0
 18 21  1  0
  7 22  1  0
  4 23  1  0
 22 23  1  0
M  END
