piperidine-amides-9925-covalent
     RDKit          3D

 27 29  0  0  0  0  0  0  0  0999 V2000
    7.0100   -3.2680   19.2240 C   0  0  0  0  0  0  0  0  0  0  0  0
    6.2320   -4.0270   20.2230 C   0  0  0  0  0  0  0  0  0  0  0  0
    5.1610   -4.5410   19.8380 O   0  0  0  0  0  0  0  0  0  0  0  0
    6.6780   -4.1910   21.5220 N   0  0  0  0  0  0  0  0  0  0  0  0
    7.5130   -3.1990   22.1170 C   0  0  0  0  0  0  0  0  0  0  0  0
    7.1490   -3.0970   23.5610 C   0  0  0  0  0  0  0  0  0  0  0  0
    5.8320   -3.7370   23.8960 C   0  0  0  0  0  0  0  0  0  0  0  0
    5.5350   -3.4910   25.3310 C   0  0  0  0  0  0  0  0  0  0  0  0
    4.3500   -3.6400   25.7080 O   0  0  0  0  0  0  0  0  0  0  0  0
    6.4950   -3.0730   26.2860 N   0  0  0  0  0  0  0  0  0  0  0  0
    7.0040   -3.9380   27.3330 C   0  0  0  0  0  0  0  0  0  0  0  0
    7.9150   -5.0340   26.8050 C   0  0  1  0  0  0  0  0  0  0  0  0
    7.3180   -6.1160   26.5800 O   0  0  0  0  0  0  0  0  0  0  0  0
    8.7140   -4.9130   25.6830 C   0  0  0  0  0  0  0  0  0  0  0  0
    9.3440   -3.6860   25.4930 O   0  0  0  0  0  0  0  0  0  0  0  0
    8.7930   -2.3750   25.4920 C   0  0  0  0  0  0  0  0  0  0  0  0
    8.2500   -1.8790   26.6890 C   0  0  0  0  0  0  0  0  0  0  0  0
    7.6810   -0.6220   26.7940 C   0  0  0  0  0  0  0  0  0  0  0  0
    7.6300    0.1900   25.7040 C   0  0  0  0  0  0  0  0  0  0  0  0
    8.2210   -0.3550   24.4440 C   0  0  0  0  0  0  0  0  0  0  0  0
    8.1440    0.5770   23.2610 C   0  0  0  0  0  0  0  0  0  0  0  0
    8.7290    0.0950   21.9780 C   0  0  0  0  0  0  0  0  0  0  0  0
    9.3640   -1.2850   21.9250 C   0  0  0  0  0  0  0  0  0  0  0  0
    9.4110   -2.1160   23.0310 C   0  0  0  0  0  0  0  0  0  0  0  0
    8.8050   -1.6220   24.3430 C   0  0  0  0  0  0  0  0  0  0  0  0
    5.8250   -5.2120   23.5870 C   0  0  0  0  0  0  0  0  0  0  0  0
    6.4620   -5.4500   22.2050 C   0  0  0  0  0  0  0  0  0  0  0  0
  1  2  1  0
  2  3  2  0
  2  4  1  0
  4  5  1  0
  5  6  1  0
  6  7  1  0
  7  8  1  0
  8  9  2  0
  8 10  1  0
 10 11  1  0
 11 12  1  0
 12 13  1  6
 12 14  1  0
 14 15  1  0
 15 16  1  0
 16 17  2  0
 17 18  1  0
 18 19  2  0
 19 20  1  0
 20 21  1  0
 21 22  2  0
 22 23  1  0
 23 24  2  0
 16 25  1  0
 20 25  2  0
 24 25  1  0
  7 26  1  0
  4 27  1  0
 26 27  1  0
M  END
