piperidine-amides-25367-covalent
     RDKit          3D

 25 27  0  0  0  0  0  0  0  0999 V2000
    7.0520   -3.3750   19.4230 C   0  0  0  0  0  0  0  0  0  0  0  0
    6.3710   -4.2420   20.4150 C   0  0  0  0  0  0  0  0  0  0  0  0
    5.3870   -4.8540   19.9940 O   0  0  0  0  0  0  0  0  0  0  0  0
    6.8590   -4.3860   21.7320 N   0  0  0  0  0  0  0  0  0  0  0  0
    6.6540   -5.6340   22.4310 C   0  0  0  0  0  0  0  0  0  0  0  0
    6.3540   -5.3950   23.8930 C   0  0  0  0  0  0  0  0  0  0  0  0
    6.0650   -3.9180   24.1350 C   0  0  0  0  0  0  0  0  0  0  0  0
    5.4470   -3.7020   25.4880 C   0  0  0  0  0  0  0  0  0  0  0  0
    4.2180   -3.5870   25.4860 O   0  0  0  0  0  0  0  0  0  0  0  0
    6.0910   -3.5860   26.7550 N   0  0  0  0  0  0  0  0  0  0  0  0
    5.5620   -2.5760   27.5880 C   0  0  0  0  0  0  0  0  0  0  0  0
    4.6270   -3.3730   28.4410 C   0  0  0  0  0  0  0  0  0  0  0  0
    5.0250   -3.9340   29.5880 C   0  0  1  0  0  0  0  0  0  0  0  0
    4.0130   -4.1360   30.4750 C   0  0  0  0  0  0  0  0  0  0  0  0
    3.3700   -3.0730   30.9880 C   0  0  0  0  0  0  0  0  0  0  0  0
    2.2310   -2.9850   31.9710 C   0  0  0  0  0  0  0  0  0  0  0  0
    1.7820   -4.3600   32.4180 C   0  0  0  0  0  0  0  0  0  0  0  0
    2.4750   -5.6110   31.8700 C   0  0  0  0  0  0  0  0  0  0  0  0
    3.5880   -5.3680   30.8970 C   0  0  0  0  0  0  0  0  0  0  0  0
    5.5920   -5.0030   28.9350 C   0  0  1  0  0  0  0  0  0  0  0  0
    4.8660   -6.2640   28.5000 C   0  0  0  0  0  0  0  0  0  0  0  0
    5.3040   -7.4970   29.2210 C   0  0  0  0  0  0  0  0  0  0  0  0
    6.4020   -4.6350   27.7300 C   0  0  0  0  0  0  0  0  0  0  0  0
    7.3170   -3.1480   23.8160 C   0  0  0  0  0  0  0  0  0  0  0  0
    7.6000   -3.2900   22.3340 C   0  0  0  0  0  0  0  0  0  0  0  0
  1  2  1  0
  2  3  2  0
  2  4  1  0
  4  5  1  0
  5  6  1  0
  6  7  1  0
  7  8  1  0
  8  9  2  0
  8 10  1  0
 10 11  1  0
 11 12  1  0
 12 13  1  0
 13 14  1  1
 14 15  2  0
 15 16  1  0
 16 17  2  0
 17 18  1  0
 14 19  1  0
 18 19  2  0
 13 20  1  0
 20 21  1  6
 21 22  1  0
 10 23  1  0
 20 23  1  0
  7 24  1  0
  4 25  1  0
 24 25  1  0
M  END
