piperidine-amides-29140-covalent
     RDKit          3D

 26 27  0  0  0  0  0  0  0  0999 V2000
    7.0300   -3.3200   19.3190 C   0  0  0  0  0  0  0  0  0  0  0  0
    6.3700   -4.1530   20.3250 C   0  0  0  0  0  0  0  0  0  0  0  0
    5.3850   -4.8280   19.9750 O   0  0  0  0  0  0  0  0  0  0  0  0
    6.8750   -4.2140   21.6510 N   0  0  0  0  0  0  0  0  0  0  0  0
    6.6800   -5.4330   22.3920 C   0  0  0  0  0  0  0  0  0  0  0  0
    6.2780   -5.1430   23.8180 C   0  0  0  0  0  0  0  0  0  0  0  0
    6.2240   -3.6390   23.9970 C   0  0  0  0  0  0  0  0  0  0  0  0
    5.6670   -3.2130   25.3300 C   0  0  0  0  0  0  0  0  0  0  0  0
    4.4420   -3.1100   25.3730 O   0  0  0  0  0  0  0  0  0  0  0  0
    6.5160   -2.9550   26.4120 N   0  0  0  0  0  0  0  0  0  0  0  0
    6.0370   -2.3030   27.5950 C   0  0  0  0  0  0  0  0  0  0  0  0
    5.2040   -3.0260   28.4740 C   0  0  0  0  0  0  0  0  0  0  0  0
    5.4580   -4.3520   28.6570 C   0  0  0  0  0  0  0  0  0  0  0  0
    5.5600   -5.1790   27.5610 C   0  0  2  0  0  0  0  0  0  0  0  0
    5.0270   -6.4540   28.1530 C   0  0  0  0  0  0  0  0  0  0  0  0
    6.0170   -7.0760   29.1420 C   0  0  0  0  0  0  0  0  0  0  0  0
    5.4010   -7.6160   30.0980 O   0  0  0  0  0  0  0  0  0  0  0  0
    7.3070   -6.9880   28.9340 O   0  0  0  0  0  0  0  0  0  0  0  0
    7.5830   -5.8480   28.1970 C   0  0  0  0  0  0  0  0  0  0  0  0
    8.9870   -5.4130   28.1220 C   0  0  0  0  0  0  0  0  0  0  0  0
    6.8410   -4.8490   28.7200 C   0  0  0  0  0  0  0  0  0  0  0  0
    7.1110   -6.0870   26.9250 C   0  0  0  0  0  0  0  0  0  0  0  0
    6.8200   -5.2130   26.9660 C   0  0  0  0  0  0  0  0  0  0  0  0
    7.5350   -3.9360   26.6060 C   0  0  0  0  0  0  0  0  0  0  0  0
    7.6110   -3.0880   23.6760 C   0  0  0  0  0  0  0  0  0  0  0  0
    7.7340   -3.1820   22.1760 C   0  0  0  0  0  0  0  0  0  0  0  0
  1  2  1  0
  2  3  2  0
  2  4  1  0
  4  5  1  0
  5  6  1  0
  6  7  1  0
  7  8  1  0
  8  9  2  0
  8 10  1  0
 10 11  1  0
 11 12  1  0
 12 13  1  0
 13 14  1  0
 14 15  1  1
 15 16  1  0
 16 17  2  0
 16 18  1  0
 19 18  1  0
 19 20  1  0
 19 21  1  0
 19 22  1  0
 14 23  1  0
 10 24  1  0
 23 24  1  0
  7 25  1  0
  4 26  1  0
 25 26  1  0
M  END
