piperidine-amides-31584-covalent
     RDKit          3D

 28 30  0  0  0  0  0  0  0  0999 V2000
    7.1220   -3.3840   19.4760 C   0  0  0  0  0  0  0  0  0  0  0  0
    6.3970   -4.2040   20.4210 C   0  0  0  0  0  0  0  0  0  0  0  0
    5.4180   -4.8980   19.9960 O   0  0  0  0  0  0  0  0  0  0  0  0
    6.7800   -4.2710   21.7790 N   0  0  0  0  0  0  0  0  0  0  0  0
    6.6930   -5.6080   22.4420 C   0  0  0  0  0  0  0  0  0  0  0  0
    6.0540   -5.2670   23.8580 C   0  0  0  0  0  0  0  0  0  0  0  0
    6.2450   -3.7850   24.0060 C   0  0  0  0  0  0  0  0  0  0  0  0
    5.4890   -3.0710   25.2160 C   0  0  0  0  0  0  0  0  0  0  0  0
    5.0030   -2.0350   24.8060 O   0  0  0  0  0  0  0  0  0  0  0  0
    5.5260   -3.7090   26.3130 N   0  0  0  0  0  0  0  0  0  0  0  0
    5.1660   -4.5930   27.2450 C   0  0  0  0  0  0  0  0  0  0  0  0
    5.7630   -5.6070   27.8640 C   0  0  0  0  0  0  0  0  0  0  0  0
    5.4220   -6.9560   27.7500 O   0  0  0  0  0  0  0  0  0  0  0  0
    6.7450   -4.9520   28.5890 N   0  0  0  0  0  0  0  0  0  0  0  0
    6.4510   -3.6740   28.7080 C   0  0  2  0  0  0  0  0  0  0  0  0
    5.2310   -3.7710   29.5580 C   0  0  0  0  0  0  0  0  0  0  0  0
    4.9060   -5.1790   29.9060 C   0  0  0  0  0  0  0  0  0  0  0  0
    3.7140   -5.1050   30.7240 C   0  0  0  0  0  0  0  0  0  0  0  0
    2.7980   -4.0640   31.2660 C   0  0  0  0  0  0  0  0  0  0  0  0
    3.4220   -2.7320   30.7190 C   0  0  0  0  0  0  0  0  0  0  0  0
    4.6590   -2.5230   29.8460 C   0  0  0  0  0  0  0  0  0  0  0  0
    6.2730   -3.0200   27.4270 C   0  0  2  0  0  0  0  0  0  0  0  0
    5.6420   -1.8180   27.6510 C   0  0  0  0  0  0  0  0  0  0  0  0
    4.4610   -1.5290   27.3400 O   0  0  0  0  0  0  0  0  0  0  0  0
    6.3710   -0.8120   28.2960 O   0  0  0  0  0  0  0  0  0  0  0  0
    7.1920   -1.0770   29.4250 C   0  0  0  0  0  0  0  0  0  0  0  0
    7.5840   -3.2570   23.6730 C   0  0  0  0  0  0  0  0  0  0  0  0
    7.7120   -3.2920   22.2940 C   0  0  0  0  0  0  0  0  0  0  0  0
  1  2  1  0
  2  3  2  0
  2  4  1  0
  4  5  1  0
  5  6  1  0
  6  7  1  0
  7  8  1  0
  8  9  2  0
  8 10  1  0
 10 11  1  0
 11 12  1  0
 12 13  2  0
 12 14  1  0
 14 15  1  0
 15 16  1  1
 16 17  2  0
 17 18  1  0
 18 19  2  0
 19 20  1  0
 16 21  1  0
 20 21  2  0
 10 22  1  0
 15 22  1  0
 22 23  1  1
 23 24  2  0
 23 25  1  0
 25 26  1  0
  7 27  1  0
  4 28  1  0
 27 28  1  0
M  END
