piperidine-amides-9995-covalent
     RDKit          3D

 26 27  0  0  0  0  0  0  0  0999 V2000
    7.0340   -3.1930   19.1290 C   0  0  0  0  0  0  0  0  0  0  0  0
    6.2150   -3.8880   20.1480 C   0  0  0  0  0  0  0  0  0  0  0  0
    5.1400   -4.3950   19.7710 O   0  0  0  0  0  0  0  0  0  0  0  0
    6.5960   -4.0100   21.4710 N   0  0  0  0  0  0  0  0  0  0  0  0
    7.4960   -3.0210   22.0430 C   0  0  0  0  0  0  0  0  0  0  0  0
    7.0240   -2.5990   23.3860 C   0  0  0  0  0  0  0  0  0  0  0  0
    6.8190   -3.7900   24.2550 C   0  0  0  0  0  0  0  0  0  0  0  0
    6.5430   -3.3330   25.6210 C   0  0  0  0  0  0  0  0  0  0  0  0
    5.3530   -3.3200   26.0210 O   0  0  0  0  0  0  0  0  0  0  0  0
    7.5940   -2.8800   26.4620 N   0  0  0  0  0  0  0  0  0  0  0  0
    8.4990   -3.7840   27.1530 C   0  0  0  0  0  0  0  0  0  0  0  0
    9.7760   -4.2290   26.3950 C   0  0  0  0  0  0  0  0  0  0  0  0
   10.6430   -3.4680   25.5750 C   0  0  0  0  0  0  0  0  0  0  0  0
   12.0470   -3.7480   25.4540 C   0  0  0  0  0  0  0  0  0  0  0  0
   13.2010   -3.7660   26.3840 C   0  0  0  0  0  0  0  0  0  0  0  0
   12.3420   -4.6220   26.7860 O   0  0  0  0  0  0  0  0  0  0  0  0
   14.3000   -4.3730   27.2990 O   0  0  0  0  0  0  0  0  0  0  0  0
   14.6520   -4.8990   28.8470 C   0  0  0  0  0  0  0  0  0  0  0  0
   15.1690   -6.3880   29.0650 C   0  0  0  0  0  0  0  0  0  0  0  0
   16.2890   -6.5900   27.7840 C   0  0  0  0  0  0  0  0  0  0  0  0
   16.0870   -8.4160   27.3190 C   0  0  0  0  0  0  0  0  0  0  0  0
   15.1340   -9.4700   28.9210 C   0  0  0  0  0  0  0  0  0  0  0  0
   14.4780   -8.9240   30.1930 C   0  0  0  0  0  0  0  0  0  0  0  0
   14.5480   -7.6320   29.9910 C   0  0  0  0  0  0  0  0  0  0  0  0
    5.6450   -4.5380   23.6690 C   0  0  0  0  0  0  0  0  0  0  0  0
    5.9930   -5.0750   22.2820 C   0  0  0  0  0  0  0  0  0  0  0  0
  1  2  1  0
  2  3  2  0
  2  4  1  0
  4  5  1  0
  5  6  1  0
  6  7  1  0
  7  8  1  0
  8  9  2  0
  8 10  1  0
 10 11  1  0
 11 12  1  0
 12 13  1  0
 13 14  1  0
 14 15  1  0
 15 16  2  0
 15 17  1  0
 17 18  1  0
 18 19  1  0
 19 20  2  0
 20 21  1  0
 21 22  2  0
 22 23  1  0
 19 24  1  0
 23 24  2  0
  7 25  1  0
  4 26  1  0
 25 26  1  0
M  END
