piperidine-amides-27403-covalent
     RDKit          3D

 26 29  0  0  0  0  0  0  0  0999 V2000
    7.0030   -3.3660   19.4040 C   0  0  0  0  0  0  0  0  0  0  0  0
    6.3840   -4.2430   20.4020 C   0  0  0  0  0  0  0  0  0  0  0  0
    5.4000   -4.9190   20.0000 O   0  0  0  0  0  0  0  0  0  0  0  0
    6.9000   -4.3380   21.7100 N   0  0  0  0  0  0  0  0  0  0  0  0
    6.6260   -5.4760   22.5470 C   0  0  0  0  0  0  0  0  0  0  0  0
    5.7750   -5.0230   23.7180 C   0  0  0  0  0  0  0  0  0  0  0  0
    6.2820   -3.7900   24.4460 C   0  0  0  0  0  0  0  0  0  0  0  0
    5.2360   -3.2730   25.4080 C   0  0  0  0  0  0  0  0  0  0  0  0
    4.1440   -2.9570   24.9060 O   0  0  0  0  0  0  0  0  0  0  0  0
    5.3660   -3.1100   26.8290 N   0  0  0  0  0  0  0  0  0  0  0  0
    4.3230   -3.0510   27.7750 C   0  0  0  0  0  0  0  0  0  0  0  0
    4.9510   -3.5700   29.0650 C   0  0  0  0  0  0  0  0  0  0  0  0
    5.4050   -4.8520   29.1690 C   0  0  0  0  0  0  0  0  0  0  0  0
    4.5310   -5.9030   28.9820 C   0  0  0  0  0  0  0  0  0  0  0  0
    4.1220   -6.4630   27.7890 C   0  0  0  0  0  0  0  0  0  0  0  0
    3.2580   -7.4450   28.0350 N   0  0  0  0  0  0  0  0  0  0  0  0
    3.1080   -7.5270   29.3600 C   0  0  0  0  0  0  0  0  0  0  0  0
    2.3910   -8.3160   29.8790 N   0  0  0  0  0  0  0  0  0  0  0  0
    2.3430   -8.2840   31.3430 C   0  0  0  0  0  0  0  0  0  0  0  0
    3.0830   -7.3720   32.3080 C   0  0  0  0  0  0  0  0  0  0  0  0
    3.9310   -6.4420   31.4830 C   0  0  0  0  0  0  0  0  0  0  0  0
    3.8820   -6.5920   30.0060 C   0  0  0  0  0  0  0  0  0  0  0  0
    6.4920   -4.6100   28.1500 C   0  0  0  0  0  0  0  0  0  0  0  0
    6.5380   -3.3750   27.4590 C   0  0  0  0  0  0  0  0  0  0  0  0
    6.6360   -2.7100   23.4220 C   0  0  0  0  0  0  0  0  0  0  0  0
    7.6010   -3.2610   22.3720 C   0  0  0  0  0  0  0  0  0  0  0  0
  1  2  1  0
  2  3  2  0
  2  4  1  0
  4  5  1  0
  5  6  1  0
  6  7  1  0
  7  8  1  0
  8  9  2  0
  8 10  1  0
 10 11  1  0
 11 12  1  0
 12 13  1  0
 13 14  1  0
 14 15  2  0
 15 16  1  0
 16 17  1  0
 17 18  1  0
 18 19  2  0
 19 20  1  0
 20 21  2  0
 14 22  1  0
 17 22  2  0
 21 22  1  0
 13 23  1  0
 10 24  1  0
 23 24  1  0
  7 25  1  0
  4 26  1  0
 25 26  1  0
M  END
