piperidine-amides-755-covalent
     RDKit          3D

 25 26  0  0  0  0  0  0  0  0999 V2000
    7.0650   -3.3640   19.3030 C   0  0  0  0  0  0  0  0  0  0  0  0
    6.3040   -4.0560   20.3210 C   0  0  0  0  0  0  0  0  0  0  0  0
    5.2690   -4.6740   19.9310 O   0  0  0  0  0  0  0  0  0  0  0  0
    6.6800   -4.1290   21.6890 N   0  0  0  0  0  0  0  0  0  0  0  0
    6.5990   -5.4820   22.3070 C   0  0  0  0  0  0  0  0  0  0  0  0
    6.0180   -5.1810   23.7520 C   0  0  0  0  0  0  0  0  0  0  0  0
    6.0460   -3.6860   23.9030 C   0  0  0  0  0  0  0  0  0  0  0  0
    5.3730   -3.1490   25.2480 C   0  0  0  0  0  0  0  0  0  0  0  0
    4.7800   -2.1020   25.0390 O   0  0  0  0  0  0  0  0  0  0  0  0
    5.6180   -3.9520   26.2010 N   0  0  0  0  0  0  0  0  0  0  0  0
    5.8890   -4.7910   27.2390 C   0  0  0  0  0  0  0  0  0  0  0  0
    5.4470   -5.6820   28.1540 C   0  0  1  0  0  0  0  0  0  0  0  0
    5.4630   -5.2190   29.4890 C   0  0  0  0  0  0  0  0  0  0  0  0
    5.2660   -3.8420   29.6710 O   0  0  0  0  0  0  0  0  0  0  0  0
    5.6850   -6.1150   30.5370 O   0  0  0  0  0  0  0  0  0  0  0  0
    5.7780   -7.4840   30.3430 C   0  0  0  0  0  0  0  0  0  0  0  0
    3.9310   -5.9020   28.2690 C   0  0  0  0  0  0  0  0  0  0  0  0
    3.4380   -7.1710   27.8860 C   0  0  0  0  0  0  0  0  0  0  0  0
    2.1270   -7.7970   27.8340 C   0  0  0  0  0  0  0  0  0  0  0  0
    1.2560   -6.6080   28.3640 C   0  0  0  0  0  0  0  0  0  0  0  0
   -0.0640   -6.8680   28.4430 F   0  0  0  0  0  0  0  0  0  0  0  0
    1.7660   -5.2070   28.7920 C   0  0  0  0  0  0  0  0  0  0  0  0
    3.0520   -4.9490   28.7180 C   0  0  0  0  0  0  0  0  0  0  0  0
    7.3710   -3.0430   23.5520 C   0  0  0  0  0  0  0  0  0  0  0  0
    7.6240   -3.1640   22.2250 C   0  0  0  0  0  0  0  0  0  0  0  0
  1  2  1  0
  2  3  2  0
  2  4  1  0
  4  5  1  0
  5  6  1  0
  6  7  1  0
  7  8  1  0
  8  9  2  0
  8 10  1  0
 10 11  1  0
 12 11  1  6
 12 13  1  0
 13 14  2  0
 13 15  1  0
 15 16  1  0
 12 17  1  0
 17 18  2  0
 18 19  1  0
 19 20  2  0
 20 21  1  0
 20 22  1  0
 17 23  1  0
 22 23  2  0
  7 24  1  0
  4 25  1  0
 24 25  1  0
M  END
