piperidine-amides-4752-covalent
     RDKit          3D

 24 25  0  0  0  0  0  0  0  0999 V2000
    7.1270   -3.2480   19.1360 C   0  0  0  0  0  0  0  0  0  0  0  0
    6.3600   -3.9460   20.1890 C   0  0  0  0  0  0  0  0  0  0  0  0
    5.2680   -4.4340   19.8390 O   0  0  0  0  0  0  0  0  0  0  0  0
    6.8570   -4.1130   21.4910 N   0  0  0  0  0  0  0  0  0  0  0  0
    6.2900   -5.1000   22.3110 C   0  0  0  0  0  0  0  0  0  0  0  0
    5.4760   -4.5350   23.3940 C   0  0  0  0  0  0  0  0  0  0  0  0
    6.0280   -3.3240   24.0740 C   0  0  0  0  0  0  0  0  0  0  0  0
    4.8730   -2.5790   24.6710 C   0  0  0  0  0  0  0  0  0  0  0  0
    4.0330   -2.1480   23.8820 O   0  0  0  0  0  0  0  0  0  0  0  0
    4.6590   -2.3430   26.0490 N   0  0  0  0  0  0  0  0  0  0  0  0
    4.5880   -3.4690   26.9790 C   0  0  0  0  0  0  0  0  0  0  0  0
    5.8770   -4.0360   26.7740 C   0  0  0  0  0  0  0  0  0  0  0  0
    6.9380   -3.4090   27.4860 C   0  0  0  0  0  0  0  0  0  0  0  0
    8.2150   -3.7840   27.4050 C   0  0  0  0  0  0  0  0  0  0  0  0
    8.6230   -4.8290   26.6090 C   0  0  0  0  0  0  0  0  0  0  0  0
    9.8240   -5.0390   26.6840 O   0  0  0  0  0  0  0  0  0  0  0  0
   10.1280   -5.0660   27.9870 C   0  0  0  0  0  0  0  0  0  0  0  0
    7.5760   -5.5210   25.8410 C   0  0  0  0  0  0  0  0  0  0  0  0
    7.8110   -6.6160   24.9750 O   0  0  0  0  0  0  0  0  0  0  0  0
    6.7580   -7.0320   24.1370 C   0  0  0  0  0  0  0  0  0  0  0  0
    7.1780   -7.8840   23.1470 C   0  0  0  0  0  0  0  0  0  0  0  0
    6.1630   -5.0780   25.9620 C   0  0  0  0  0  0  0  0  0  0  0  0
    6.7730   -2.3840   23.1670 C   0  0  0  0  0  0  0  0  0  0  0  0
    7.6480   -3.1150   22.1800 C   0  0  0  0  0  0  0  0  0  0  0  0
  1  2  1  0
  2  3  2  0
  2  4  1  0
  4  5  1  0
  5  6  1  0
  6  7  1  0
  7  8  1  0
  8  9  2  0
  8 10  1  0
 10 11  1  0
 11 12  1  0
 12 13  2  0
 13 14  1  0
 14 15  2  0
 15 16  1  0
 16 17  1  0
 15 18  1  0
 18 19  1  0
 19 20  1  0
 20 21  1  0
 12 22  1  0
 18 22  2  0
  7 23  1  0
  4 24  1  0
 23 24  1  0
M  END
