piperidine-amides-17213-covalent
     RDKit          3D

 20 21  0  0  0  0  0  0  0  0999 V2000
    7.1320   -3.2980   19.2270 C   0  0  0  0  0  0  0  0  0  0  0  0
    6.4000   -4.0900   20.2270 C   0  0  0  0  0  0  0  0  0  0  0  0
    5.2980   -4.5750   19.8910 O   0  0  0  0  0  0  0  0  0  0  0  0
    6.9660   -4.3450   21.4910 N   0  0  0  0  0  0  0  0  0  0  0  0
    6.4790   -5.4620   22.2170 C   0  0  0  0  0  0  0  0  0  0  0  0
    5.9230   -5.1140   23.5180 C   0  0  0  0  0  0  0  0  0  0  0  0
    6.5870   -3.9890   24.2130 C   0  0  0  0  0  0  0  0  0  0  0  0
    5.7920   -3.5950   25.4150 C   0  0  0  0  0  0  0  0  0  0  0  0
    4.5830   -3.2990   25.3310 O   0  0  0  0  0  0  0  0  0  0  0  0
    6.3650   -3.5640   26.6790 N   0  0  0  0  0  0  0  0  0  0  0  0
    5.6040   -3.4960   27.8420 C   0  0  0  0  0  0  0  0  0  0  0  0
    6.1920   -4.2840   28.8760 C   0  0  0  0  0  0  0  0  0  0  0  0
    7.4260   -4.8810   28.1580 C   0  0  0  0  0  0  0  0  0  0  0  0
    7.5950   -4.2780   26.9110 C   0  0  1  0  0  0  0  0  0  0  0  0
    7.6490   -5.6790   26.3190 C   0  0  0  0  0  0  0  0  0  0  0  0
    8.9380   -6.0490   27.0040 C   0  0  0  0  0  0  0  0  0  0  0  0
    9.5750   -4.7280   26.5870 C   0  0  0  0  0  0  0  0  0  0  0  0
   10.2530   -4.5590   25.3840 O   0  0  0  0  0  0  0  0  0  0  0  0
    6.8800   -2.8000   23.3350 C   0  0  0  0  0  0  0  0  0  0  0  0
    7.7060   -3.3120   22.1780 C   0  0  0  0  0  0  0  0  0  0  0  0
  1  2  1  0
  2  3  2  0
  2  4  1  0
  4  5  1  0
  5  6  1  0
  6  7  1  0
  7  8  1  0
  8  9  2  0
  8 10  1  0
 10 11  1  0
 11 12  1  0
 12 13  1  0
 10 14  1  0
 13 14  1  0
 14 15  1  6
 15 16  1  0
 16 17  1  0
 17 18  1  0
  7 19  1  0
  4 20  1  0
 19 20  1  0
M  END
