piperidine-amides-14593-covalent
     RDKit          3D

 23 24  0  0  0  0  0  0  0  0999 V2000
    7.0380   -3.3300   19.3020 C   0  0  0  0  0  0  0  0  0  0  0  0
    6.3630   -4.1550   20.3040 C   0  0  0  0  0  0  0  0  0  0  0  0
    5.3510   -4.7870   19.9610 O   0  0  0  0  0  0  0  0  0  0  0  0
    6.8820   -4.2640   21.6190 N   0  0  0  0  0  0  0  0  0  0  0  0
    7.6980   -3.2090   22.1610 C   0  0  0  0  0  0  0  0  0  0  0  0
    7.0210   -2.6210   23.3540 C   0  0  0  0  0  0  0  0  0  0  0  0
    6.6410   -3.8030   24.2000 C   0  0  0  0  0  0  0  0  0  0  0  0
    5.8290   -3.3310   25.3660 C   0  0  0  0  0  0  0  0  0  0  0  0
    4.6080   -3.2960   25.2110 O   0  0  0  0  0  0  0  0  0  0  0  0
    6.4990   -2.9640   26.5290 N   0  0  0  0  0  0  0  0  0  0  0  0
    6.4230   -1.6530   27.0740 C   0  0  0  0  0  0  0  0  0  0  0  0
    6.0040   -0.4450   26.4640 C   0  0  0  0  0  0  0  0  0  0  0  0
    5.9770    0.7760   27.1310 C   0  0  0  0  0  0  0  0  0  0  0  0
    6.3610    0.9100   28.4610 C   0  0  0  0  0  0  0  0  0  0  0  0
    6.2170    2.3430   28.8740 C   0  0  0  0  0  0  0  0  0  0  0  0
    6.9860    3.2760   27.9000 C   0  0  0  0  0  0  0  0  0  0  0  0
    6.7960   -0.1700   29.2150 C   0  0  0  0  0  0  0  0  0  0  0  0
    7.2000   -0.1200   30.5890 N   0  0  0  0  0  0  0  0  0  0  0  0
    6.3990   -0.4230   31.4910 O   0  0  0  0  0  0  0  0  0  0  0  0
    8.2900    0.6450   30.9180 O   0  0  0  0  0  0  0  0  0  0  0  0
    6.8360   -1.4770   28.5220 C   0  0  0  0  0  0  0  0  0  0  0  0
    5.8870   -4.8750   23.5270 C   0  0  0  0  0  0  0  0  0  0  0  0
    6.5830   -5.4010   22.4610 C   0  0  0  0  0  0  0  0  0  0  0  0
  1  2  1  0
  2  3  2  0
  2  4  1  0
  4  5  1  0
  5  6  1  0
  6  7  1  0
  7  8  1  0
  8  9  2  0
  8 10  1  0
 10 11  1  0
 11 12  2  0
 12 13  1  0
 13 14  2  0
 14 15  1  0
 15 16  1  0
 14 17  1  0
 17 18  1  0
 18 19  2  0
 18 20  1  0
 11 21  1  0
 17 21  2  0
  7 22  1  0
  4 23  1  0
 22 23  1  0
M  CHG  2  18   1  20  -1
M  END
