piperidine-amides-29800-covalent
     RDKit          3D

 21 23  0  0  0  0  0  0  0  0999 V2000
    7.0270   -3.4060   19.4050 C   0  0  0  0  0  0  0  0  0  0  0  0
    6.3720   -4.2880   20.3620 C   0  0  0  0  0  0  0  0  0  0  0  0
    5.3740   -4.9160   20.0020 O   0  0  0  0  0  0  0  0  0  0  0  0
    6.9150   -4.4770   21.6850 N   0  0  0  0  0  0  0  0  0  0  0  0
    6.6160   -5.6520   22.4720 C   0  0  0  0  0  0  0  0  0  0  0  0
    6.4130   -5.2680   23.9170 C   0  0  0  0  0  0  0  0  0  0  0  0
    5.8970   -3.8480   23.9160 C   0  0  0  0  0  0  0  0  0  0  0  0
    5.4330   -3.3520   25.2470 C   0  0  0  0  0  0  0  0  0  0  0  0
    4.9120   -2.2310   25.3430 O   0  0  0  0  0  0  0  0  0  0  0  0
    5.5260   -4.0970   26.4470 N   0  0  0  0  0  0  0  0  0  0  0  0
    6.8460   -4.2560   26.9580 C   0  0  0  0  0  0  0  0  0  0  0  0
    7.0370   -5.4470   27.8980 C   0  0  0  0  0  0  0  0  0  0  0  0
    6.0460   -5.6520   28.8140 C   0  0  0  0  0  0  0  0  0  0  0  0
    5.9840   -6.6250   29.8650 N   0  0  0  0  0  0  0  0  0  0  0  0
    4.7290   -6.5290   30.6260 C   0  0  0  0  0  0  0  0  0  0  0  0
    4.2480   -7.6240   32.1130 Br  0  0  0  0  0  0  0  0  0  0  0  0
    3.8040   -5.1820   29.8480 S   0  0  0  0  0  0  0  0  0  0  0  0
    4.9440   -4.6830   28.5700 C   0  0  0  0  0  0  0  0  0  0  0  0
    4.7690   -3.6370   27.6040 C   0  0  0  0  0  0  0  0  0  0  0  0
    6.8230   -2.8340   23.2920 C   0  0  0  0  0  0  0  0  0  0  0  0
    7.6680   -3.4280   22.3840 C   0  0  0  0  0  0  0  0  0  0  0  0
  1  2  1  0
  2  3  2  0
  2  4  1  0
  4  5  1  0
  5  6  1  0
  6  7  1  0
  7  8  1  0
  8  9  2  0
  8 10  1  0
 10 11  1  0
 11 12  1  0
 12 13  1  0
 13 14  1  0
 14 15  2  0
 15 16  1  0
 15 17  1  0
 13 18  2  0
 17 18  1  0
 10 19  1  0
 18 19  1  0
  7 20  1  0
  4 21  1  0
 20 21  1  0
M  END
