piperidine-amides-33048-covalent
     RDKit          3D

 29 32  0  0  0  0  0  0  0  0999 V2000
    7.1340   -3.2730   19.2190 C   0  0  0  0  0  0  0  0  0  0  0  0
    6.3690   -4.0490   20.2310 C   0  0  0  0  0  0  0  0  0  0  0  0
    5.2960   -4.5810   19.8990 O   0  0  0  0  0  0  0  0  0  0  0  0
    6.9120   -4.2120   21.5210 N   0  0  0  0  0  0  0  0  0  0  0  0
    6.5750   -5.3320   22.3430 C   0  0  0  0  0  0  0  0  0  0  0  0
    5.6890   -4.7750   23.4600 C   0  0  0  0  0  0  0  0  0  0  0  0
    6.4530   -3.7210   24.2080 C   0  0  0  0  0  0  0  0  0  0  0  0
    5.6430   -3.1380   25.3060 C   0  0  0  0  0  0  0  0  0  0  0  0
    4.6060   -3.7550   25.5800 O   0  0  0  0  0  0  0  0  0  0  0  0
    6.0170   -1.9580   25.9780 N   0  0  0  0  0  0  0  0  0  0  0  0
    6.5110   -1.9020   27.2570 C   0  0  0  0  0  0  0  0  0  0  0  0
    5.4480   -1.2030   27.6030 C   0  0  0  0  0  0  0  0  0  0  0  0
    4.6100   -1.6960   28.6110 C   0  0  0  0  0  0  0  0  0  0  0  0
    4.6800   -0.8660   29.6820 C   0  0  0  0  0  0  0  0  0  0  0  0
    4.9650    0.4050   29.5980 O   0  0  0  0  0  0  0  0  0  0  0  0
    4.5410    0.8360   28.4310 C   0  0  0  0  0  0  0  0  0  0  0  0
    5.2460    0.1290   27.2380 C   0  0  0  0  0  0  0  0  0  0  0  0
    4.8600   -1.0410   26.3220 C   0  0  1  0  0  0  0  0  0  0  0  0
    4.8790    0.1260   25.5440 C   0  0  0  0  0  0  0  0  0  0  0  0
    5.9900    0.7370   24.8310 C   0  0  0  0  0  0  0  0  0  0  0  0
    5.6020    1.9310   24.1450 N   0  0  0  0  0  0  0  0  0  0  0  0
    4.2880    1.9750   24.4780 N   0  0  0  0  0  0  0  0  0  0  0  0
    3.3980    3.0180   24.0310 C   0  0  0  0  0  0  0  0  0  0  0  0
    3.9620    4.1640   24.5330 C   0  0  0  0  0  0  0  0  0  0  0  0
    3.1350    5.0380   24.9560 O   0  0  0  0  0  0  0  0  0  0  0  0
    3.5840    5.6840   26.0910 C   0  0  0  0  0  0  0  0  0  0  0  0
    3.8120    0.9540   25.2860 C   0  0  0  0  0  0  0  0  0  0  0  0
    6.9260   -2.5940   23.3190 C   0  0  0  0  0  0  0  0  0  0  0  0
    7.6480   -3.1110   22.1350 C   0  0  0  0  0  0  0  0  0  0  0  0
  1  2  1  0
  2  3  2  0
  2  4  1  0
  4  5  1  0
  5  6  1  0
  6  7  1  0
  7  8  1  0
  8  9  2  0
  8 10  1  0
 10 11  1  0
 12 11  1  0
 12 13  1  0
 13 14  1  0
 14 15  1  0
 15 16  1  0
 12 17  1  0
 16 17  1  0
 10 18  1  0
 12 18  1  0
 18 19  1  6
 19 20  1  0
 20 21  2  0
 21 22  1  0
 22 23  1  0
 23 24  1  0
 24 25  1  0
 25 26  1  0
 19 27  2  0
 22 27  1  0
  7 28  1  0
  4 29  1  0
 28 29  1  0
M  END
