piperidine-amides-26033-covalent
     RDKit          3D

 25 27  0  0  0  0  0  0  0  0999 V2000
    7.1510   -3.3350   19.2850 C   0  0  0  0  0  0  0  0  0  0  0  0
    6.3920   -4.1030   20.2680 C   0  0  0  0  0  0  0  0  0  0  0  0
    5.3160   -4.6250   19.9230 O   0  0  0  0  0  0  0  0  0  0  0  0
    6.8910   -4.3170   21.5620 N   0  0  0  0  0  0  0  0  0  0  0  0
    6.7050   -5.5720   22.2510 C   0  0  0  0  0  0  0  0  0  0  0  0
    6.2930   -5.2250   23.6610 C   0  0  0  0  0  0  0  0  0  0  0  0
    6.2300   -3.7400   23.8930 C   0  0  0  0  0  0  0  0  0  0  0  0
    5.6700   -3.3400   25.2000 C   0  0  0  0  0  0  0  0  0  0  0  0
    4.7070   -2.5220   25.2450 O   0  0  0  0  0  0  0  0  0  0  0  0
    6.1160   -3.8120   26.4330 N   0  0  0  0  0  0  0  0  0  0  0  0
    6.4440   -2.7990   27.4360 C   0  0  0  0  0  0  0  0  0  0  0  0
    6.8010   -3.4390   28.7210 C   0  0  0  0  0  0  0  0  0  0  0  0
    5.8390   -4.3520   29.3170 C   0  0  0  0  0  0  0  0  0  0  0  0
    5.2620   -5.2700   28.3170 C   0  0  0  0  0  0  0  0  0  0  0  0
    4.5030   -6.5260   28.6910 C   0  0  0  0  0  0  0  0  0  0  0  0
    4.3940   -6.7360   30.0790 O   0  0  0  0  0  0  0  0  0  0  0  0
    5.4990   -7.4710   30.4400 C   0  0  0  0  0  0  0  0  0  0  0  0
    3.9430   -7.4290   27.5730 C   0  0  0  0  0  0  0  0  0  0  0  0
    4.1350   -7.1120   26.2230 C   0  0  0  0  0  0  0  0  0  0  0  0
    3.6420   -7.9530   25.2040 O   0  0  0  0  0  0  0  0  0  0  0  0
    2.4120   -8.6160   25.3640 C   0  0  0  0  0  0  0  0  0  0  0  0
    4.8660   -5.8890   25.8090 C   0  0  0  0  0  0  0  0  0  0  0  0
    5.4160   -4.9850   26.8770 C   0  0  0  0  0  0  0  0  0  0  0  0
    7.5460   -3.1320   23.5700 C   0  0  0  0  0  0  0  0  0  0  0  0
    7.6920   -3.2580   22.1120 C   0  0  0  0  0  0  0  0  0  0  0  0
  1  2  1  0
  2  3  2  0
  2  4  1  0
  4  5  1  0
  5  6  1  0
  6  7  1  0
  7  8  1  0
  8  9  2  0
  8 10  1  0
 10 11  1  0
 11 12  1  0
 12 13  1  0
 13 14  1  0
 14 15  2  0
 15 16  1  0
 16 17  1  0
 15 18  1  0
 18 19  2  0
 19 20  1  0
 20 21  1  0
 19 22  1  0
 10 23  1  0
 14 23  1  0
 22 23  2  0
  7 24  1  0
  4 25  1  0
 24 25  1  0
M  END
