piperidine-amides-14985-covalent
     RDKit          3D

 21 22  0  0  0  0  0  0  0  0999 V2000
    7.0940   -3.2700   19.2860 C   0  0  0  0  0  0  0  0  0  0  0  0
    6.3160   -4.0020   20.2800 C   0  0  0  0  0  0  0  0  0  0  0  0
    5.2850   -4.5830   19.8970 O   0  0  0  0  0  0  0  0  0  0  0  0
    6.7490   -4.0850   21.6290 N   0  0  0  0  0  0  0  0  0  0  0  0
    6.4770   -5.2790   22.3660 C   0  0  0  0  0  0  0  0  0  0  0  0
    5.6310   -4.9280   23.5550 C   0  0  0  0  0  0  0  0  0  0  0  0
    5.8330   -3.4420   23.8240 C   0  0  0  0  0  0  0  0  0  0  0  0
    5.3400   -3.0870   25.2170 C   0  0  0  0  0  0  0  0  0  0  0  0
    4.1240   -3.1860   25.3600 O   0  0  0  0  0  0  0  0  0  0  0  0
    6.2050   -2.6790   26.2450 N   0  0  0  0  0  0  0  0  0  0  0  0
    6.3870   -3.4380   27.4490 C   0  0  1  0  0  0  0  0  0  0  0  0
    5.3680   -4.3070   27.8720 C   0  0  0  0  0  0  0  0  0  0  0  0
    5.6180   -5.6660   27.8530 C   0  0  0  0  0  0  0  0  0  0  0  0
    7.4090   -4.3530   27.0220 C   0  0  0  0  0  0  0  0  0  0  0  0
    7.3870   -4.7300   25.6470 C   0  0  0  0  0  0  0  0  0  0  0  0
    8.3930   -5.6690   25.1280 C   0  0  0  0  0  0  0  0  0  0  0  0
    9.3430   -6.1430   26.0570 N   0  0  0  0  0  0  0  0  0  0  0  0
    9.3110   -5.7220   27.4430 C   0  0  0  0  0  0  0  0  0  0  0  0
    8.2910   -4.7730   27.9830 C   0  0  0  0  0  0  0  0  0  0  0  0
    7.1810   -2.8820   23.5790 C   0  0  0  0  0  0  0  0  0  0  0  0
    7.5810   -3.0770   22.2670 C   0  0  0  0  0  0  0  0  0  0  0  0
  1  2  1  0
  2  3  2  0
  2  4  1  0
  4  5  1  0
  5  6  1  0
  6  7  1  0
  7  8  1  0
  8  9  2  0
  8 10  1  0
 10 11  1  0
 11 12  1  6
 12 13  1  0
 11 14  1  0
 14 15  2  0
 15 16  1  0
 16 17  2  0
 17 18  1  0
 14 19  1  0
 18 19  2  0
  7 20  1  0
  4 21  1  0
 20 21  1  0
M  END
