piperidine-amides-32825-covalent
     RDKit          3D

 29 32  0  0  0  0  0  0  0  0999 V2000
    7.0210   -3.3410   19.4360 C   0  0  0  0  0  0  0  0  0  0  0  0
    6.3570   -4.2440   20.4180 C   0  0  0  0  0  0  0  0  0  0  0  0
    5.4070   -4.9360   20.0070 O   0  0  0  0  0  0  0  0  0  0  0  0
    6.8250   -4.3370   21.7620 N   0  0  0  0  0  0  0  0  0  0  0  0
    6.6250   -5.5570   22.5250 C   0  0  0  0  0  0  0  0  0  0  0  0
    6.2140   -5.2100   23.9750 C   0  0  0  0  0  0  0  0  0  0  0  0
    5.9000   -3.7510   24.0470 C   0  0  0  0  0  0  0  0  0  0  0  0
    5.0180   -3.2880   25.1920 C   0  0  0  0  0  0  0  0  0  0  0  0
    3.8290   -3.3040   24.8880 O   0  0  0  0  0  0  0  0  0  0  0  0
    5.3710   -2.8560   26.5020 N   0  0  0  0  0  0  0  0  0  0  0  0
    4.5140   -2.5150   27.5570 C   0  0  0  0  0  0  0  0  0  0  0  0
    4.7880   -2.9420   28.8310 C   0  0  0  0  0  0  0  0  0  0  0  0
    5.1000   -4.3260   28.6750 N   0  0  0  0  0  0  0  0  0  0  0  0
    4.4340   -5.3610   29.3300 C   0  0  0  0  0  0  0  0  0  0  0  0
    4.1250   -5.1170   30.6490 N   0  0  0  0  0  0  0  0  0  0  0  0
    3.4490   -6.0270   31.3810 C   0  0  0  0  0  0  0  0  0  0  0  0
    2.8610   -7.1610   30.6370 C   0  0  0  0  0  0  0  0  0  0  0  0
    3.0800   -7.2080   29.1500 C   0  0  0  0  0  0  0  0  0  0  0  0
    2.2030   -7.9610   28.3810 O   0  0  0  0  0  0  0  0  0  0  0  0
    4.0950   -6.4900   28.6640 N   0  0  0  0  0  0  0  0  0  0  0  0
    2.1540   -8.1140   31.2940 C   0  0  0  0  0  0  0  0  0  0  0  0
    2.7290   -8.4320   32.5120 C   0  0  0  0  0  0  0  0  0  0  0  0
    4.1820   -8.2150   32.7530 C   0  0  0  0  0  0  0  0  0  0  0  0
    3.9270   -6.9270   33.5200 C   0  0  0  0  0  0  0  0  0  0  0  0
    3.2600   -5.9240   32.8650 C   0  0  0  0  0  0  0  0  0  0  0  0
    6.2710   -4.6100   27.9100 C   0  0  0  0  0  0  0  0  0  0  0  0
    6.5690   -3.3210   27.1030 C   0  0  0  0  0  0  0  0  0  0  0  0
    7.1470   -2.9380   23.7860 C   0  0  0  0  0  0  0  0  0  0  0  0
    7.5800   -3.2240   22.3780 C   0  0  0  0  0  0  0  0  0  0  0  0
  1  2  1  0
  2  3  2  0
  2  4  1  0
  4  5  1  0
  5  6  1  0
  6  7  1  0
  7  8  1  0
  8  9  2  0
  8 10  1  0
 10 11  1  0
 11 12  1  0
 12 13  1  0
 13 14  1  0
 14 15  2  0
 15 16  1  0
 16 17  2  0
 17 18  1  0
 18 19  2  0
 14 20  1  0
 18 20  1  0
 17 21  1  0
 21 22  1  0
 22 23  1  0
 23 24  1  0
 16 25  1  0
 24 25  1  0
 13 26  1  0
 10 27  1  0
 26 27  1  0
  7 28  1  0
  4 29  1  0
 28 29  1  0
M  END
