piperidine-amides-27740-covalent
     RDKit          3D

 26 28  0  0  0  0  0  0  0  0999 V2000
    7.0180   -3.3770   19.4190 C   0  0  0  0  0  0  0  0  0  0  0  0
    6.3850   -4.2650   20.4270 C   0  0  0  0  0  0  0  0  0  0  0  0
    5.4310   -4.9590   20.0100 O   0  0  0  0  0  0  0  0  0  0  0  0
    6.8690   -4.3270   21.7550 N   0  0  0  0  0  0  0  0  0  0  0  0
    6.5900   -5.4700   22.5800 C   0  0  0  0  0  0  0  0  0  0  0  0
    6.1100   -5.1240   23.9330 C   0  0  0  0  0  0  0  0  0  0  0  0
    6.1500   -3.6700   24.1730 C   0  0  0  0  0  0  0  0  0  0  0  0
    5.7020   -3.1820   25.5250 C   0  0  0  0  0  0  0  0  0  0  0  0
    5.4800   -1.9690   25.5950 O   0  0  0  0  0  0  0  0  0  0  0  0
    5.4570   -3.9450   26.6980 N   0  0  0  0  0  0  0  0  0  0  0  0
    4.0890   -3.9970   27.2050 C   0  0  0  0  0  0  0  0  0  0  0  0
    4.0080   -4.7140   28.5220 C   0  0  0  0  0  0  0  0  0  0  0  0
    4.8650   -4.3860   29.6480 C   0  0  0  0  0  0  0  0  0  0  0  0
    5.9280   -5.3050   29.5680 N   0  0  0  0  0  0  0  0  0  0  0  0
    5.8490   -6.6710   29.9200 C   0  0  0  0  0  0  0  0  0  0  0  0
    6.6750   -7.4010   29.3800 O   0  0  0  0  0  0  0  0  0  0  0  0
    4.8830   -7.1130   30.7960 C   0  0  0  0  0  0  0  0  0  0  0  0
    3.7090   -7.6060   30.2860 C   0  0  0  0  0  0  0  0  0  0  0  0
    2.7060   -8.0670   31.1060 C   0  0  0  0  0  0  0  0  0  0  0  0
    2.7870   -8.0780   32.4720 C   0  0  0  0  0  0  0  0  0  0  0  0
    3.9610   -7.5870   33.0200 C   0  0  0  0  0  0  0  0  0  0  0  0
    5.0380   -7.0900   32.1560 C   0  0  0  0  0  0  0  0  0  0  0  0
    6.8710   -4.9310   28.6220 C   0  0  0  0  0  0  0  0  0  0  0  0
    6.4000   -3.7950   27.7480 C   0  0  0  0  0  0  0  0  0  0  0  0
    7.3790   -3.0110   23.7220 C   0  0  0  0  0  0  0  0  0  0  0  0
    7.7480   -3.2830   22.2790 C   0  0  0  0  0  0  0  0  0  0  0  0
  1  2  1  0
  2  3  2  0
  2  4  1  0
  4  5  1  0
  5  6  1  0
  6  7  1  0
  7  8  1  0
  8  9  2  0
  8 10  1  0
 10 11  1  0
 11 12  1  0
 12 13  1  0
 13 14  1  0
 14 15  1  0
 15 16  2  0
 15 17  1  0
 17 18  2  0
 18 19  1  0
 19 20  2  0
 20 21  1  0
 17 22  1  0
 21 22  2  0
 14 23  1  0
 10 24  1  0
 23 24  1  0
  7 25  1  0
  4 26  1  0
 25 26  1  0
M  END
