piperidine-amides-25690-covalent
     RDKit          3D

 25 27  0  0  0  0  0  0  0  0999 V2000
    7.0010   -3.3640   19.3700 C   0  0  0  0  0  0  0  0  0  0  0  0
    6.3710   -4.2520   20.3840 C   0  0  0  0  0  0  0  0  0  0  0  0
    5.4050   -4.9100   19.9980 O   0  0  0  0  0  0  0  0  0  0  0  0
    6.8910   -4.3550   21.6890 N   0  0  0  0  0  0  0  0  0  0  0  0
    6.7410   -5.5720   22.4590 C   0  0  0  0  0  0  0  0  0  0  0  0
    6.1260   -5.2450   23.7910 C   0  0  0  0  0  0  0  0  0  0  0  0
    6.0500   -3.7290   23.8970 C   0  0  0  0  0  0  0  0  0  0  0  0
    5.5020   -3.2880   25.2060 C   0  0  0  0  0  0  0  0  0  0  0  0
    4.4370   -2.6650   25.2010 O   0  0  0  0  0  0  0  0  0  0  0  0
    6.0990   -3.5360   26.4520 N   0  0  0  0  0  0  0  0  0  0  0  0
    6.4390   -2.3780   27.2150 C   0  0  0  0  0  0  0  0  0  0  0  0
    6.7370   -2.8950   28.5810 C   0  0  0  0  0  0  0  0  0  0  0  0
    6.9790   -4.2180   28.4750 O   0  0  0  0  0  0  0  0  0  0  0  0
    6.0790   -5.1540   28.2840 C   0  0  0  0  0  0  0  0  0  0  0  0
    5.6720   -4.6780   27.1870 C   0  0  0  0  0  0  0  0  0  0  0  0
    4.7440   -5.6480   27.0160 C   0  0  0  0  0  0  0  0  0  0  0  0
    4.6050   -6.8120   28.1340 C   0  0  0  0  0  0  0  0  0  0  0  0
    5.5680   -6.7960   29.4330 C   0  0  0  0  0  0  0  0  0  0  0  0
    6.5390   -5.6480   29.4730 C   0  0  0  0  0  0  0  0  0  0  0  0
    5.4460   -6.3860   28.7910 C   0  0  0  0  0  0  0  0  0  0  0  0
    4.1030   -5.6860   28.8290 C   0  0  0  0  0  0  0  0  0  0  0  0
    5.3840   -7.7550   29.4290 C   0  0  0  0  0  0  0  0  0  0  0  0
    5.5230   -6.4590   27.2690 C   0  0  0  0  0  0  0  0  0  0  0  0
    7.4080   -3.1170   23.6140 C   0  0  0  0  0  0  0  0  0  0  0  0
    7.6950   -3.2710   22.2700 C   0  0  0  0  0  0  0  0  0  0  0  0
  1  2  1  0
  2  3  2  0
  2  4  1  0
  4  5  1  0
  5  6  1  0
  6  7  1  0
  7  8  1  0
  8  9  2  0
  8 10  1  0
 10 11  1  0
 11 12  1  0
 12 13  1  0
 13 14  1  0
 10 15  1  0
 14 15  2  0
 15 16  1  0
 16 17  2  0
 17 18  1  0
 14 19  1  0
 18 19  2  0
 19 20  1  0
 20 21  1  0
 20 22  1  0
 20 23  1  0
  7 24  1  0
  4 25  1  0
 24 25  1  0
M  END
