piperidine-amides-4874-covalent
     RDKit          3D

 23 26  0  0  0  0  0  0  0  0999 V2000
    7.1190   -3.2830   19.2010 C   0  0  0  0  0  0  0  0  0  0  0  0
    6.3660   -4.0570   20.2130 C   0  0  0  0  0  0  0  0  0  0  0  0
    5.2720   -4.5410   19.8700 O   0  0  0  0  0  0  0  0  0  0  0  0
    6.9090   -4.2730   21.4760 N   0  0  0  0  0  0  0  0  0  0  0  0
    7.6680   -3.2260   22.0870 C   0  0  0  0  0  0  0  0  0  0  0  0
    7.1890   -2.8140   23.3930 C   0  0  0  0  0  0  0  0  0  0  0  0
    6.6000   -3.9020   24.1850 C   0  0  0  0  0  0  0  0  0  0  0  0
    5.9260   -3.3220   25.3600 C   0  0  0  0  0  0  0  0  0  0  0  0
    4.7050   -3.5250   25.5090 O   0  0  0  0  0  0  0  0  0  0  0  0
    6.6560   -2.5420   26.2740 N   0  0  0  0  0  0  0  0  0  0  0  0
    5.9990   -1.7300   27.3100 C   0  0  2  0  0  0  0  0  0  0  0  0
    5.3090   -0.5270   26.7370 C   0  0  0  0  0  0  0  0  0  0  0  0
    4.8110    0.4780   27.6750 C   0  0  2  0  0  0  0  0  0  0  0  0
    5.6980    1.4580   28.0050 C   0  0  0  0  0  0  0  0  0  0  0  0
    6.6770    0.9250   28.7860 C   0  0  0  0  0  0  0  0  0  0  0  0
    6.2570   -0.2980   29.1630 C   0  0  2  0  0  0  0  0  0  0  0  0
    6.8520   -1.3140   28.4570 C   0  0  0  0  0  0  0  0  0  0  0  0
    4.8670   -0.2270   28.9440 N   0  0  0  0  0  0  0  0  0  0  0  0
    4.1660   -1.5210   29.2290 C   0  0  0  0  0  0  0  0  0  0  0  0
    3.1340   -1.9300   28.6720 C   0  0  0  0  0  0  0  0  0  0  0  0
    2.9890   -1.7020   30.1350 C   0  0  0  0  0  0  0  0  0  0  0  0
    5.6990   -4.8160   23.4430 C   0  0  0  0  0  0  0  0  0  0  0  0
    6.4640   -5.3830   22.2890 C   0  0  0  0  0  0  0  0  0  0  0  0
  1  2  1  0
  2  3  2  0
  2  4  1  0
  4  5  1  0
  5  6  1  0
  6  7  1  0
  7  8  1  0
  8  9  2  0
  8 10  1  0
 11 10  1  6
 11 12  1  0
 13 12  1  6
 13 14  1  0
 14 15  1  0
 16 15  1  6
 11 17  1  0
 16 17  1  0
 13 18  1  0
 16 18  1  0
 18 19  1  0
 19 20  1  0
 19 21  1  0
 20 21  1  0
  7 22  1  0
  4 23  1  0
 22 23  1  0
M  END
