piperidine-amides-2795-covalent
     RDKit          3D

 24 26  0  0  0  0  0  0  0  0999 V2000
    7.1140   -3.2730   19.2220 C   0  0  0  0  0  0  0  0  0  0  0  0
    6.3600   -4.0440   20.2080 C   0  0  0  0  0  0  0  0  0  0  0  0
    5.3000   -4.5790   19.8940 O   0  0  0  0  0  0  0  0  0  0  0  0
    6.8830   -4.2210   21.5310 N   0  0  0  0  0  0  0  0  0  0  0  0
    7.7110   -3.1970   22.1170 C   0  0  0  0  0  0  0  0  0  0  0  0
    7.1210   -2.7270   23.4130 C   0  0  0  0  0  0  0  0  0  0  0  0
    6.8300   -3.9420   24.2810 C   0  0  0  0  0  0  0  0  0  0  0  0
    6.2370   -3.4850   25.5640 C   0  0  0  0  0  0  0  0  0  0  0  0
    5.0020   -3.4260   25.7480 O   0  0  0  0  0  0  0  0  0  0  0  0
    7.1340   -3.0830   26.5930 N   0  0  0  0  0  0  0  0  0  0  0  0
    7.7140   -4.0530   27.5040 C   0  0  2  0  0  0  0  0  0  0  0  0
    8.4920   -5.1070   26.7490 C   0  0  0  0  0  0  0  0  0  0  0  0
    6.6640   -4.7230   28.2980 C   0  0  0  0  0  0  0  0  0  0  0  0
    6.4970   -6.0150   28.3580 O   0  0  0  0  0  0  0  0  0  0  0  0
    5.4230   -6.3730   29.1950 C   0  0  0  0  0  0  0  0  0  0  0  0
    4.9010   -7.6060   29.5410 C   0  0  0  0  0  0  0  0  0  0  0  0
    3.7670   -7.5850   30.4450 C   0  0  0  0  0  0  0  0  0  0  0  0
    3.2280   -6.4370   30.9390 C   0  0  0  0  0  0  0  0  0  0  0  0
    3.7790   -5.2380   30.5650 C   0  0  0  0  0  0  0  0  0  0  0  0
    4.8730   -5.2620   29.6940 C   0  0  0  0  0  0  0  0  0  0  0  0
    5.6690   -4.2290   29.1170 C   0  0  0  0  0  0  0  0  0  0  0  0
    5.4350   -2.8900   29.3750 C   0  0  0  0  0  0  0  0  0  0  0  0
    5.8710   -4.8830   23.5990 C   0  0  0  0  0  0  0  0  0  0  0  0
    6.4240   -5.3280   22.2880 C   0  0  0  0  0  0  0  0  0  0  0  0
  1  2  1  0
  2  3  2  0
  2  4  1  0
  4  5  1  0
  5  6  1  0
  6  7  1  0
  7  8  1  0
  8  9  2  0
  8 10  1  0
 10 11  1  0
 11 12  1  6
 11 13  1  0
 13 14  1  0
 14 15  1  0
 15 16  2  0
 16 17  1  0
 17 18  2  0
 18 19  1  0
 15 20  1  0
 19 20  2  0
 13 21  2  0
 20 21  1  0
 21 22  1  0
  7 23  1  0
  4 24  1  0
 23 24  1  0
M  END
