piperidine-amides-11015-covalent
     RDKit          3D

 21 23  0  0  0  0  0  0  0  0999 V2000
    7.0710   -3.3190   19.2870 C   0  0  0  0  0  0  0  0  0  0  0  0
    6.3720   -4.1330   20.2820 C   0  0  0  0  0  0  0  0  0  0  0  0
    5.3360   -4.7260   19.9480 O   0  0  0  0  0  0  0  0  0  0  0  0
    6.8660   -4.3140   21.5840 N   0  0  0  0  0  0  0  0  0  0  0  0
    6.6080   -5.5080   22.3490 C   0  0  0  0  0  0  0  0  0  0  0  0
    5.8220   -5.0460   23.5490 C   0  0  0  0  0  0  0  0  0  0  0  0
    6.5020   -3.9160   24.2640 C   0  0  0  0  0  0  0  0  0  0  0  0
    5.7360   -3.4570   25.4560 C   0  0  0  0  0  0  0  0  0  0  0  0
    4.4640   -3.4480   25.4520 O   0  0  0  0  0  0  0  0  0  0  0  0
    6.3410   -2.9960   26.6470 N   0  0  0  0  0  0  0  0  0  0  0  0
    5.7860   -1.8130   27.3460 C   0  0  0  0  0  0  0  0  0  0  0  0
    4.8570   -1.9700   28.4910 C   0  0  0  0  0  0  0  0  0  0  0  0
    4.1730   -3.1220   28.4220 N   0  0  0  0  0  0  0  0  0  0  0  0
    3.2120   -3.6270   29.3060 C   0  0  0  0  0  0  0  0  0  0  0  0
    2.9350   -2.7350   30.4690 C   0  0  0  0  0  0  0  0  0  0  0  0
    3.7290   -1.4420   30.5120 C   0  0  0  0  0  0  0  0  0  0  0  0
    4.6330   -1.1100   29.5560 N   0  0  0  0  0  0  0  0  0  0  0  0
    6.9020   -0.9700   27.8330 C   0  0  0  0  0  0  0  0  0  0  0  0
    6.1090   -0.3900   26.8680 C   0  0  0  0  0  0  0  0  0  0  0  0
    6.7490   -2.7590   23.3430 C   0  0  0  0  0  0  0  0  0  0  0  0
    7.6350   -3.2650   22.2300 C   0  0  0  0  0  0  0  0  0  0  0  0
  1  2  1  0
  2  3  2  0
  2  4  1  0
  4  5  1  0
  5  6  1  0
  6  7  1  0
  7  8  1  0
  8  9  2  0
  8 10  1  0
 11 10  1  0
 11 12  1  0
 12 13  2  0
 13 14  1  0
 14 15  2  0
 15 16  1  0
 12 17  1  0
 16 17  2  0
 11 18  1  0
 11 19  1  0
 18 19  1  0
  7 20  1  0
  4 21  1  0
 20 21  1  0
M  END
