piperidine-amides-7155-covalent
     RDKit          3D

 22 23  0  0  0  0  0  0  0  0999 V2000
    7.0570   -3.2990   19.2890 C   0  0  0  0  0  0  0  0  0  0  0  0
    6.3580   -4.0860   20.3160 C   0  0  0  0  0  0  0  0  0  0  0  0
    5.3310   -4.7100   19.9380 O   0  0  0  0  0  0  0  0  0  0  0  0
    6.8440   -4.1550   21.6290 N   0  0  0  0  0  0  0  0  0  0  0  0
    7.6940   -3.1380   22.2040 C   0  0  0  0  0  0  0  0  0  0  0  0
    7.3400   -2.9780   23.6550 C   0  0  0  0  0  0  0  0  0  0  0  0
    6.0260   -3.6520   23.9590 C   0  0  0  0  0  0  0  0  0  0  0  0
    5.5800   -3.3810   25.3530 C   0  0  0  0  0  0  0  0  0  0  0  0
    4.3490   -3.3090   25.5400 O   0  0  0  0  0  0  0  0  0  0  0  0
    6.4370   -3.2000   26.4630 N   0  0  0  0  0  0  0  0  0  0  0  0
    6.1910   -3.8390   27.7470 C   0  0  2  0  0  0  0  0  0  0  0  0
    6.0330   -5.3540   27.5890 C   0  0  0  0  0  0  0  0  0  0  0  0
    5.0400   -3.2390   28.4650 C   0  0  0  0  0  0  0  0  0  0  0  0
    3.7760   -3.8350   28.4930 C   0  0  0  0  0  0  0  0  0  0  0  0
    2.6900   -3.2700   29.1760 C   0  0  0  0  0  0  0  0  0  0  0  0
    2.8090   -2.0800   29.8650 C   0  0  0  0  0  0  0  0  0  0  0  0
    1.3530   -1.2620   30.8170 Br  0  0  0  0  0  0  0  0  0  0  0  0
    4.0180   -1.4490   29.8750 C   0  0  0  0  0  0  0  0  0  0  0  0
    5.1840   -2.0450   29.1490 C   0  0  0  0  0  0  0  0  0  0  0  0
    6.8630   -1.1810   29.1590 Br  0  0  0  0  0  0  0  0  0  0  0  0
    6.1050   -5.1210   23.7280 C   0  0  0  0  0  0  0  0  0  0  0  0
    6.5930   -5.4220   22.3270 C   0  0  0  0  0  0  0  0  0  0  0  0
  1  2  1  0
  2  3  2  0
  2  4  1  0
  4  5  1  0
  5  6  1  0
  6  7  1  0
  7  8  1  0
  8  9  2  0
  8 10  1  0
 10 11  1  0
 11 12  1  6
 11 13  1  0
 13 14  2  0
 14 15  1  0
 15 16  2  0
 16 17  1  0
 16 18  1  0
 13 19  1  0
 18 19  2  0
 19 20  1  0
  7 21  1  0
  4 22  1  0
 21 22  1  0
M  END
