piperidine-amides-35145-covalent
     RDKit          3D

 32 33  0  0  0  0  0  0  0  0999 V2000
    7.0460   -3.3470   19.3480 C   0  0  0  0  0  0  0  0  0  0  0  0
    6.4130   -4.2470   20.3420 C   0  0  0  0  0  0  0  0  0  0  0  0
    5.3910   -4.8310   19.9840 O   0  0  0  0  0  0  0  0  0  0  0  0
    7.0090   -4.4500   21.5960 N   0  0  0  0  0  0  0  0  0  0  0  0
    6.6670   -5.5650   22.4240 C   0  0  0  0  0  0  0  0  0  0  0  0
    5.7540   -5.0820   23.5170 C   0  0  0  0  0  0  0  0  0  0  0  0
    6.3350   -3.8650   24.2610 C   0  0  0  0  0  0  0  0  0  0  0  0
    5.2600   -3.3910   25.1700 C   0  0  0  0  0  0  0  0  0  0  0  0
    4.2200   -2.9710   24.6650 O   0  0  0  0  0  0  0  0  0  0  0  0
    5.3740   -3.3990   26.5770 N   0  0  0  0  0  0  0  0  0  0  0  0
    6.5390   -2.9280   27.1670 C   0  0  0  0  0  0  0  0  0  0  0  0
    6.6870   -3.7800   28.4210 C   0  0  0  0  0  0  0  0  0  0  0  0
    5.7240   -3.1390   29.3110 N   0  0  0  0  0  0  0  0  0  0  0  0
    4.8470   -4.1990   29.8200 C   0  0  0  0  0  0  0  0  0  0  0  0
    3.6270   -4.0380   30.1050 O   0  0  0  0  0  0  0  0  0  0  0  0
    5.3320   -5.4460   30.0300 O   0  0  0  0  0  0  0  0  0  0  0  0
    5.0140   -6.5330   29.1880 C   0  0  0  0  0  0  0  0  0  0  0  0
    6.0460   -7.3590   29.5070 C   0  0  0  0  0  0  0  0  0  0  0  0
    4.8820   -7.8110   29.8180 C   0  0  0  0  0  0  0  0  0  0  0  0
    5.5450   -6.6170   27.8140 C   0  0  0  0  0  0  0  0  0  0  0  0
    5.0230   -2.1230   28.9170 N   0  0  0  0  0  0  0  0  0  0  0  0
    4.6060   -1.3420   30.0250 C   0  0  0  0  0  0  0  0  0  0  0  0
    3.2910   -0.8940   30.1470 O   0  0  0  0  0  0  0  0  0  0  0  0
    5.5410   -1.0240   30.9940 O   0  0  0  0  0  0  0  0  0  0  0  0
    5.3630    0.0580   31.9070 C   0  0  0  0  0  0  0  0  0  0  0  0
    4.6530   -0.3490   33.1600 C   0  0  0  0  0  0  0  0  0  0  0  0
    4.7840    1.2960   31.2960 C   0  0  0  0  0  0  0  0  0  0  0  0
    6.6110    0.3090   32.7320 C   0  0  0  0  0  0  0  0  0  0  0  0
    3.9050   -2.6760   28.1870 C   0  0  0  0  0  0  0  0  0  0  0  0
    4.3010   -3.7740   27.4410 C   0  0  0  0  0  0  0  0  0  0  0  0
    6.8280   -2.8040   23.3130 C   0  0  0  0  0  0  0  0  0  0  0  0
    7.7730   -3.3980   22.2680 C   0  0  0  0  0  0  0  0  0  0  0  0
  1  2  1  0
  2  3  2  0
  2  4  1  0
  4  5  1  0
  5  6  1  0
  6  7  1  0
  7  8  1  0
  8  9  2  0
  8 10  1  0
 10 11  1  0
 11 12  1  0
 12 13  1  0
 13 14  1  0
 14 15  2  0
 14 16  1  0
 17 16  1  0
 17 18  1  0
 17 19  1  0
 17 20  1  0
 13 21  1  0
 21 22  1  0
 22 23  2  0
 22 24  1  0
 25 24  1  0
 25 26  1  0
 25 27  1  0
 25 28  1  0
 21 29  1  0
 10 30  1  0
 29 30  1  0
  7 31  1  0
  4 32  1  0
 31 32  1  0
M  END
