piperidine-amides-17168-covalent
     RDKit          3D

 20 21  0  0  0  0  0  0  0  0999 V2000
    7.1410   -3.3340   19.2150 C   0  0  0  0  0  0  0  0  0  0  0  0
    6.4380   -4.1240   20.2320 C   0  0  0  0  0  0  0  0  0  0  0  0
    5.3310   -4.6180   19.9170 O   0  0  0  0  0  0  0  0  0  0  0  0
    7.0470   -4.3720   21.4830 N   0  0  0  0  0  0  0  0  0  0  0  0
    6.5100   -5.4110   22.2820 C   0  0  0  0  0  0  0  0  0  0  0  0
    5.9960   -4.9510   23.5700 C   0  0  0  0  0  0  0  0  0  0  0  0
    6.6600   -3.7550   24.1360 C   0  0  0  0  0  0  0  0  0  0  0  0
    5.8840   -3.2040   25.2710 C   0  0  0  0  0  0  0  0  0  0  0  0
    4.9280   -2.4340   25.0930 O   0  0  0  0  0  0  0  0  0  0  0  0
    6.2460   -3.5940   26.5380 N   0  0  0  0  0  0  0  0  0  0  0  0
    6.6860   -4.8880   26.7890 C   0  0  0  0  0  0  0  0  0  0  0  0
    6.7670   -5.3800   28.1300 C   0  0  1  0  0  0  0  0  0  0  0  0
    8.1640   -5.9440   28.2330 C   0  0  0  0  0  0  0  0  0  0  0  0
    6.6220   -4.5310   29.0650 O   0  0  0  0  0  0  0  0  0  0  0  0
    5.4180   -3.8780   28.8050 C   0  0  0  0  0  0  0  0  0  0  0  0
    5.6050   -2.9010   27.6540 C   0  0  1  0  0  0  0  0  0  0  0  0
    6.6530   -2.1360   28.4030 C   0  0  0  0  0  0  0  0  0  0  0  0
    5.5540   -1.4470   29.2220 C   0  0  0  0  0  0  0  0  0  0  0  0
    6.9690   -2.6750   23.1460 C   0  0  0  0  0  0  0  0  0  0  0  0
    7.8300   -3.3320   22.1100 C   0  0  0  0  0  0  0  0  0  0  0  0
  1  2  1  0
  2  3  2  0
  2  4  1  0
  4  5  1  0
  5  6  1  0
  6  7  1  0
  7  8  1  0
  8  9  2  0
  8 10  1  0
 10 11  1  0
 11 12  1  0
 12 13  1  1
 12 14  1  0
 14 15  1  0
 10 16  1  0
 15 16  1  0
 16 17  1  1
 17 18  1  0
  7 19  1  0
  4 20  1  0
 19 20  1  0
M  END
