piperidine-amides-1694-covalent
     RDKit          3D

 20 21  0  0  0  0  0  0  0  0999 V2000
    7.0370   -3.3270   19.3290 C   0  0  0  0  0  0  0  0  0  0  0  0
    6.3540   -4.1750   20.3450 C   0  0  0  0  0  0  0  0  0  0  0  0
    5.3830   -4.8690   19.9880 O   0  0  0  0  0  0  0  0  0  0  0  0
    6.8400   -4.2040   21.6720 N   0  0  0  0  0  0  0  0  0  0  0  0
    7.6950   -3.1390   22.1620 C   0  0  0  0  0  0  0  0  0  0  0  0
    7.5690   -3.1340   23.6780 C   0  0  0  0  0  0  0  0  0  0  0  0
    6.1900   -3.5990   23.9550 C   0  0  0  0  0  0  0  0  0  0  0  0
    5.6890   -3.1950   25.2930 C   0  0  0  0  0  0  0  0  0  0  0  0
    4.4930   -3.4050   25.5150 O   0  0  0  0  0  0  0  0  0  0  0  0
    6.5610   -2.6030   26.2170 N   0  0  0  0  0  0  0  0  0  0  0  0
    6.2560   -1.5590   27.1440 C   0  0  1  0  0  0  0  0  0  0  0  0
    7.0090   -1.4470   28.2870 C   0  0  0  0  0  0  0  0  0  0  0  0
    6.6140   -0.4970   29.1980 C   0  0  0  0  0  0  0  0  0  0  0  0
    5.8190    0.4660   28.6340 O   0  0  0  0  0  0  0  0  0  0  0  0
    5.0760    0.2280   27.4830 C   0  0  0  0  0  0  0  0  0  0  0  0
    3.8230   -0.5060   27.8040 C   0  0  0  0  0  0  0  0  0  0  0  0
    4.5980    1.3500   26.8230 C   0  0  0  0  0  0  0  0  0  0  0  0
    5.9530   -0.3110   26.5330 C   0  0  0  0  0  0  0  0  0  0  0  0
    6.1090   -5.1180   23.7670 C   0  0  0  0  0  0  0  0  0  0  0  0
    6.6190   -5.4380   22.4010 C   0  0  0  0  0  0  0  0  0  0  0  0
  1  2  1  0
  2  3  2  0
  2  4  1  0
  4  5  1  0
  5  6  1  0
  6  7  1  0
  7  8  1  0
  8  9  2  0
  8 10  1  0
 11 10  1  6
 11 12  1  0
 12 13  1  0
 13 14  1  0
 14 15  1  0
 15 16  1  0
 15 17  1  0
 11 18  1  0
 15 18  1  0
  7 19  1  0
  4 20  1  0
 19 20  1  0
M  END
