piperidine-amides-8068-covalent
     RDKit          3D

 26 27  0  0  0  0  0  0  0  0999 V2000
    7.1160   -3.2630   19.1970 C   0  0  0  0  0  0  0  0  0  0  0  0
    6.3690   -4.0090   20.2140 C   0  0  0  0  0  0  0  0  0  0  0  0
    5.3030   -4.5550   19.8830 O   0  0  0  0  0  0  0  0  0  0  0  0
    6.8820   -4.1370   21.5240 N   0  0  0  0  0  0  0  0  0  0  0  0
    7.7770   -3.1280   22.0330 C   0  0  0  0  0  0  0  0  0  0  0  0
    7.3820   -2.8030   23.4270 C   0  0  0  0  0  0  0  0  0  0  0  0
    6.0490   -3.4660   23.6260 C   0  0  0  0  0  0  0  0  0  0  0  0
    5.5980   -3.1930   25.0130 C   0  0  0  0  0  0  0  0  0  0  0  0
    4.5210   -2.6190   25.1380 O   0  0  0  0  0  0  0  0  0  0  0  0
    6.4200   -3.6090   26.0420 N   0  0  0  0  0  0  0  0  0  0  0  0
    5.8440   -4.1380   27.2150 C   0  0  0  0  0  0  0  0  0  0  0  0
    5.1780   -5.3670   27.0540 C   0  0  0  0  0  0  0  0  0  0  0  0
    4.0650   -5.3950   28.0670 N   0  0  0  0  0  0  0  0  0  0  0  0
    4.4570   -4.6320   29.5850 S   0  0  0  0  0  0  0  0  0  0  0  0
    4.7210   -5.6730   30.6460 O   0  0  0  0  0  0  0  0  0  0  0  0
    3.3990   -3.6890   30.0670 O   0  0  0  0  0  0  0  0  0  0  0  0
    5.8890   -3.7910   29.1260 C   0  0  0  0  0  0  0  0  0  0  0  0
    5.9230   -2.4040   29.1440 C   0  0  0  0  0  0  0  0  0  0  0  0
    7.2010   -1.8040   28.6840 C   0  0  0  0  0  0  0  0  0  0  0  0
    8.4290   -2.5900   28.2090 C   0  0  0  0  0  0  0  0  0  0  0  0
    8.2930   -4.0680   28.2400 C   0  0  0  0  0  0  0  0  0  0  0  0
    9.5300   -5.1860   27.7560 Cl  0  0  0  0  0  0  0  0  0  0  0  0
    6.9650   -4.5520   28.7270 C   0  0  0  0  0  0  0  0  0  0  0  0
    6.7170   -6.2800   28.8070 Cl  0  0  0  0  0  0  0  0  0  0  0  0
    5.9820   -4.9230   23.4200 C   0  0  0  0  0  0  0  0  0  0  0  0
    6.6860   -5.3360   22.3110 C   0  0  0  0  0  0  0  0  0  0  0  0
  1  2  1  0
  2  3  2  0
  2  4  1  0
  4  5  1  0
  5  6  1  0
  6  7  1  0
  7  8  1  0
  8  9  2  0
  8 10  1  0
 10 11  1  0
 11 12  1  0
 12 13  1  0
 14 13  1  0
 14 15  2  0
 14 16  2  0
 14 17  1  0
 17 18  2  0
 18 19  1  0
 19 20  2  0
 20 21  1  0
 21 22  1  0
 17 23  1  0
 21 23  2  0
 23 24  1  0
  7 25  1  0
  4 26  1  0
 25 26  1  0
M  END
