piperidine-amides-88-covalent
     RDKit          3D

 24 26  0  0  0  0  0  0  0  0999 V2000
    7.0700   -3.3820   19.3340 C   0  0  0  0  0  0  0  0  0  0  0  0
    6.3490   -4.0970   20.3630 C   0  0  0  0  0  0  0  0  0  0  0  0
    5.3490   -4.7780   19.9750 O   0  0  0  0  0  0  0  0  0  0  0  0
    6.7280   -4.1230   21.7290 N   0  0  0  0  0  0  0  0  0  0  0  0
    7.6840   -3.0610   22.1950 C   0  0  0  0  0  0  0  0  0  0  0  0
    7.4650   -2.9660   23.7670 C   0  0  0  0  0  0  0  0  0  0  0  0
    6.1980   -3.7210   24.0240 C   0  0  0  0  0  0  0  0  0  0  0  0
    5.4200   -3.4880   25.3990 C   0  0  0  0  0  0  0  0  0  0  0  0
    4.4870   -4.2710   25.4270 O   0  0  0  0  0  0  0  0  0  0  0  0
    5.8810   -2.5660   26.1600 N   0  0  0  0  0  0  0  0  0  0  0  0
    6.1560   -1.6460   27.1380 C   0  0  1  0  0  0  0  0  0  0  0  0
    7.1260   -1.3310   28.0390 C   0  0  0  0  0  0  0  0  0  0  0  0
    6.7110   -0.3860   28.9870 C   0  0  0  0  0  0  0  0  0  0  0  0
    6.4100    0.9240   28.3880 C   0  0  0  0  0  0  0  0  0  0  0  0
    5.0130    0.4490   27.9660 C   0  0  0  0  0  0  0  0  0  0  0  0
    5.4820   -0.2730   26.8480 C   0  0  1  0  0  0  0  0  0  0  0  0
    5.9790    0.5580   25.8110 C   0  0  0  0  0  0  0  0  0  0  0  0
    5.6960   -0.3400   24.6930 C   0  0  0  0  0  0  0  0  0  0  0  0
    6.1850    0.4450   23.4630 C   0  0  0  0  0  0  0  0  0  0  0  0
    6.6970    1.7230   24.0530 N   0  0  0  0  0  0  0  0  0  0  0  0
    6.5790    1.8010   25.4290 N   0  0  0  0  0  0  0  0  0  0  0  0
    6.9900    2.9220   26.2460 C   0  0  0  0  0  0  0  0  0  0  0  0
    6.2960   -5.1960   23.6890 C   0  0  0  0  0  0  0  0  0  0  0  0
    6.6760   -5.3940   22.4120 C   0  0  0  0  0  0  0  0  0  0  0  0
  1  2  1  0
  2  3  2  0
  2  4  1  0
  4  5  1  0
  5  6  1  0
  6  7  1  0
  7  8  1  0
  8  9  2  0
  8 10  1  0
 11 10  1  6
 11 12  1  0
 12 13  1  0
 13 14  1  0
 14 15  1  0
 11 16  1  0
 15 16  1  0
 16 17  1  1
 17 18  2  0
 18 19  1  0
 19 20  2  0
 17 21  1  0
 20 21  1  0
 21 22  1  0
  7 23  1  0
  4 24  1  0
 23 24  1  0
M  END
