piperidine-amides-11240-covalent
     RDKit          3D

 18 18  0  0  0  0  0  0  0  0999 V2000
    7.1070   -3.2710   19.2010 C   0  0  0  0  0  0  0  0  0  0  0  0
    6.3420   -4.0110   20.2080 C   0  0  0  0  0  0  0  0  0  0  0  0
    5.2740   -4.5500   19.8810 O   0  0  0  0  0  0  0  0  0  0  0  0
    6.8120   -4.1730   21.5160 N   0  0  0  0  0  0  0  0  0  0  0  0
    7.7330   -3.2360   22.1280 C   0  0  0  0  0  0  0  0  0  0  0  0
    7.0930   -2.7460   23.3980 C   0  0  0  0  0  0  0  0  0  0  0  0
    5.9430   -3.6070   23.8370 C   0  0  0  0  0  0  0  0  0  0  0  0
    5.6060   -3.3270   25.2470 C   0  0  0  0  0  0  0  0  0  0  0  0
    4.4050   -3.1210   25.5940 O   0  0  0  0  0  0  0  0  0  0  0  0
    6.5880   -3.2700   26.2480 N   0  0  0  0  0  0  0  0  0  0  0  0
    6.6030   -4.2460   27.3550 C   0  0  1  0  0  0  0  0  0  0  0  0
    6.1140   -5.5640   26.9130 C   0  0  0  0  0  0  0  0  0  0  0  0
    5.5990   -6.4410   27.9850 C   0  0  0  0  0  0  0  0  0  0  0  0
    7.9670   -4.4080   27.8990 C   0  0  0  0  0  0  0  0  0  0  0  0
    8.3740   -3.2780   28.5880 F   0  0  0  0  0  0  0  0  0  0  0  0
    7.9670   -5.4710   28.7590 F   0  0  0  0  0  0  0  0  0  0  0  0
    6.0360   -5.0700   23.5620 C   0  0  0  0  0  0  0  0  0  0  0  0
    6.6020   -5.3910   22.2330 C   0  0  0  0  0  0  0  0  0  0  0  0
  1  2  1  0
  2  3  2  0
  2  4  1  0
  4  5  1  0
  5  6  1  0
  6  7  1  0
  7  8  1  0
  8  9  2  0
  8 10  1  0
 10 11  1  0
 11 12  1  6
 12 13  1  0
 11 14  1  0
 14 15  1  0
 14 16  1  0
  7 17  1  0
  4 18  1  0
 17 18  1  0
M  END
