piperidine-amides-10510-covalent
     RDKit          3D

 24 26  0  0  0  0  0  0  0  0999 V2000
    7.1060   -3.3070   19.2720 C   0  0  0  0  0  0  0  0  0  0  0  0
    6.3460   -4.0460   20.2830 C   0  0  0  0  0  0  0  0  0  0  0  0
    5.2730   -4.5770   19.8990 O   0  0  0  0  0  0  0  0  0  0  0  0
    6.8460   -4.1800   21.5840 N   0  0  0  0  0  0  0  0  0  0  0  0
    6.6660   -5.4210   22.3070 C   0  0  0  0  0  0  0  0  0  0  0  0
    6.0630   -5.0610   23.6280 C   0  0  0  0  0  0  0  0  0  0  0  0
    6.0310   -3.5700   23.7540 C   0  0  0  0  0  0  0  0  0  0  0  0
    5.5590   -3.1570   25.0820 C   0  0  0  0  0  0  0  0  0  0  0  0
    4.4410   -2.6060   25.1480 O   0  0  0  0  0  0  0  0  0  0  0  0
    6.2650   -3.3490   26.2750 N   0  0  0  0  0  0  0  0  0  0  0  0
    5.4980   -3.5240   27.4710 C   0  0  2  0  0  0  0  0  0  0  0  0
    5.7990   -2.3250   28.3650 C   0  0  0  0  0  0  0  0  0  0  0  0
    6.9620   -2.1880   29.0700 C   0  0  0  0  0  0  0  0  0  0  0  0
    7.1960   -1.0890   29.8600 C   0  0  0  0  0  0  0  0  0  0  0  0
    6.2990   -0.0620   30.0050 C   0  0  0  0  0  0  0  0  0  0  0  0
    5.1260   -0.1900   29.3030 C   0  0  0  0  0  0  0  0  0  0  0  0
    4.8800   -1.2920   28.5010 C   0  0  0  0  0  0  0  0  0  0  0  0
    5.4670   -4.8230   27.9930 C   0  0  0  0  0  0  0  0  0  0  0  0
    4.3250   -5.7230   27.7200 N   0  0  0  0  0  0  0  0  0  0  0  0
    4.3760   -7.0190   28.2820 C   0  0  0  0  0  0  0  0  0  0  0  0
    5.6440   -7.0680   29.0180 C   0  0  0  0  0  0  0  0  0  0  0  0
    6.6270   -5.7120   29.0140 S   0  0  0  0  0  0  0  0  0  0  0  0
    7.3790   -2.9790   23.5030 C   0  0  0  0  0  0  0  0  0  0  0  0
    7.7360   -3.1680   22.1840 C   0  0  0  0  0  0  0  0  0  0  0  0
  1  2  1  0
  2  3  2  0
  2  4  1  0
  4  5  1  0
  5  6  1  0
  6  7  1  0
  7  8  1  0
  8  9  2  0
  8 10  1  0
 11 10  1  6
 11 12  1  0
 12 13  2  0
 13 14  1  0
 14 15  2  0
 15 16  1  0
 12 17  1  0
 16 17  2  0
 11 18  1  0
 18 19  2  0
 19 20  1  0
 20 21  2  0
 18 22  1  0
 21 22  1  0
  7 23  1  0
  4 24  1  0
 23 24  1  0
M  END
