piperidine-amides-23381-covalent
     RDKit          3D

 24 26  0  0  0  0  0  0  0  0999 V2000
    7.0780   -3.3330   19.2430 C   0  0  0  0  0  0  0  0  0  0  0  0
    6.3920   -4.1180   20.2830 C   0  0  0  0  0  0  0  0  0  0  0  0
    5.3340   -4.7050   19.9430 O   0  0  0  0  0  0  0  0  0  0  0  0
    6.9370   -4.2550   21.5850 N   0  0  0  0  0  0  0  0  0  0  0  0
    6.5300   -5.3490   22.3900 C   0  0  0  0  0  0  0  0  0  0  0  0
    6.2090   -4.9870   23.7690 C   0  0  0  0  0  0  0  0  0  0  0  0
    6.7000   -3.6650   24.2230 C   0  0  0  0  0  0  0  0  0  0  0  0
    5.8180   -3.1130   25.2980 C   0  0  0  0  0  0  0  0  0  0  0  0
    4.7070   -2.6480   24.9830 O   0  0  0  0  0  0  0  0  0  0  0  0
    6.1970   -3.1210   26.6510 N   0  0  0  0  0  0  0  0  0  0  0  0
    5.9120   -4.1730   27.5580 C   0  0  0  0  0  0  0  0  0  0  0  0
    4.5220   -4.5010   27.8610 C   0  0  0  0  0  0  0  0  0  0  0  0
    4.4860   -5.4490   29.0230 C   0  0  0  0  0  0  0  0  0  0  0  0
    3.7140   -4.2930   29.0970 C   0  0  0  0  0  0  0  0  0  0  0  0
    6.3470   -1.8160   27.3270 C   0  0  0  0  0  0  0  0  0  0  0  0
    5.7320   -0.7100   26.4970 C   0  0  0  0  0  0  0  0  0  0  0  0
    5.9150    0.6040   27.2810 C   0  0  0  0  0  0  0  0  0  0  0  0
    6.5700    0.8180   28.6160 C   0  0  0  0  0  0  0  0  0  0  0  0
    6.6680    2.0880   29.2100 O   0  0  0  0  0  0  0  0  0  0  0  0
    5.4940    2.8650   29.3610 C   0  0  0  0  0  0  0  0  0  0  0  0
    7.1100   -0.4180   29.2500 C   0  0  0  0  0  0  0  0  0  0  0  0
    6.9840   -1.7250   28.5780 C   0  0  0  0  0  0  0  0  0  0  0  0
    6.8830   -2.6730   23.1320 C   0  0  0  0  0  0  0  0  0  0  0  0
    7.7110   -3.1930   22.1670 C   0  0  0  0  0  0  0  0  0  0  0  0
  1  2  1  0
  2  3  2  0
  2  4  1  0
  4  5  1  0
  5  6  1  0
  6  7  1  0
  7  8  1  0
  8  9  2  0
  8 10  1  0
 10 11  1  0
 11 12  1  0
 12 13  1  0
 12 14  1  0
 13 14  1  0
 10 15  1  0
 15 16  2  0
 16 17  1  0
 17 18  2  0
 18 19  1  0
 19 20  1  0
 18 21  1  0
 15 22  1  0
 21 22  2  0
  7 23  1  0
  4 24  1  0
 23 24  1  0
M  END
