piperidine-amides-30806-covalent
     RDKit          3D

 28 30  0  0  0  0  0  0  0  0999 V2000
    7.0970   -3.2810   19.2740 C   0  0  0  0  0  0  0  0  0  0  0  0
    6.3560   -4.0520   20.2770 C   0  0  0  0  0  0  0  0  0  0  0  0
    5.3200   -4.6430   19.9270 O   0  0  0  0  0  0  0  0  0  0  0  0
    6.8170   -4.1820   21.6020 N   0  0  0  0  0  0  0  0  0  0  0  0
    6.6910   -5.4500   22.2990 C   0  0  0  0  0  0  0  0  0  0  0  0
    6.0470   -5.1690   23.6350 C   0  0  0  0  0  0  0  0  0  0  0  0
    5.9940   -3.7070   23.9290 C   0  0  0  0  0  0  0  0  0  0  0  0
    5.5370   -3.4340   25.3180 C   0  0  0  0  0  0  0  0  0  0  0  0
    4.3050   -3.5530   25.5790 O   0  0  0  0  0  0  0  0  0  0  0  0
    6.3640   -3.0290   26.3920 N   0  0  0  0  0  0  0  0  0  0  0  0
    6.8390   -1.6320   26.3370 C   0  0  0  0  0  0  0  0  0  0  0  0
    5.7770   -0.8230   25.7020 C   0  0  0  0  0  0  0  0  0  0  0  0
    6.1380    0.1630   24.6760 C   0  0  0  0  0  0  0  0  0  0  0  0
    5.0440    0.9750   24.0350 C   0  0  0  0  0  0  0  0  0  0  0  0
    3.6040    0.7660   24.4560 C   0  0  0  0  0  0  0  0  0  0  0  0
    3.4450   -0.2750   25.5070 C   0  0  0  0  0  0  0  0  0  0  0  0
    4.4720   -0.9930   26.0640 C   0  0  0  0  0  0  0  0  0  0  0  0
    6.2610   -3.6090   27.7000 C   0  0  2  0  0  0  0  0  0  0  0  0
    5.7390   -5.0380   27.7310 C   0  0  0  0  0  0  0  0  0  0  0  0
    4.5460   -5.2320   28.4020 O   0  0  0  0  0  0  0  0  0  0  0  0
    5.5180   -2.7160   28.6370 C   0  0  0  0  0  0  0  0  0  0  0  0
    4.0590   -2.6830   28.8910 C   0  0  0  0  0  0  0  0  0  0  0  0
    3.0400   -2.3380   29.3660 C   0  0  0  0  0  0  0  0  0  0  0  0
    3.6130   -1.2690   30.2590 C   0  0  0  0  0  0  0  0  0  0  0  0
    4.9860   -0.9510   30.3380 C   0  0  0  0  0  0  0  0  0  0  0  0
    6.1030   -1.6460   29.5280 C   0  0  0  0  0  0  0  0  0  0  0  0
    7.2650   -2.9880   23.6530 C   0  0  0  0  0  0  0  0  0  0  0  0
    7.6980   -3.2100   22.2240 C   0  0  0  0  0  0  0  0  0  0  0  0
  1  2  1  0
  2  3  2  0
  2  4  1  0
  4  5  1  0
  5  6  1  0
  6  7  1  0
  7  8  1  0
  8  9  2  0
  8 10  1  0
 10 11  1  0
 11 12  1  0
 12 13  2  0
 13 14  1  0
 14 15  2  0
 15 16  1  0
 12 17  1  0
 16 17  2  0
 10 18  1  0
 18 19  1  6
 19 20  1  0
 18 21  1  0
 21 22  2  0
 22 23  1  0
 23 24  2  0
 24 25  1  0
 21 26  1  0
 25 26  2  0
  7 27  1  0
  4 28  1  0
 27 28  1  0
M  END
