piperidine-amides-8250-covalent
     RDKit          3D

 25 27  0  0  0  0  0  0  0  0999 V2000
    7.1250   -3.2900   19.2320 C   0  0  0  0  0  0  0  0  0  0  0  0
    6.4130   -4.0780   20.2350 C   0  0  0  0  0  0  0  0  0  0  0  0
    5.3300   -4.5980   19.9080 O   0  0  0  0  0  0  0  0  0  0  0  0
    6.9870   -4.2850   21.5150 N   0  0  0  0  0  0  0  0  0  0  0  0
    7.6460   -3.1810   22.1400 C   0  0  0  0  0  0  0  0  0  0  0  0
    6.7640   -2.6750   23.2370 C   0  0  0  0  0  0  0  0  0  0  0  0
    6.5880   -3.8060   24.2280 C   0  0  0  0  0  0  0  0  0  0  0  0
    5.7850   -3.3190   25.3960 C   0  0  0  0  0  0  0  0  0  0  0  0
    4.5660   -3.3060   25.2340 O   0  0  0  0  0  0  0  0  0  0  0  0
    6.4460   -2.9300   26.5570 N   0  0  0  0  0  0  0  0  0  0  0  0
    6.3250   -1.6170   27.1130 C   0  0  0  0  0  0  0  0  0  0  0  0
    5.3590   -1.5040   28.1350 C   0  0  1  0  0  0  0  0  0  0  0  0
    5.0220   -0.0570   28.0760 N   0  0  0  0  0  0  0  0  0  0  0  0
    3.9220    0.5940   27.4460 C   0  0  0  0  0  0  0  0  0  0  0  0
    4.3090    1.6130   26.5780 C   0  0  0  0  0  0  0  0  0  0  0  0
    4.8990    2.6830   27.2400 O   0  0  0  0  0  0  0  0  0  0  0  0
    5.8160    2.2370   28.1510 C   0  0  0  0  0  0  0  0  0  0  0  0
    5.8910    0.7800   28.6460 C   0  0  0  0  0  0  0  0  0  0  0  0
    4.1470   -2.1150   27.8910 C   0  0  0  0  0  0  0  0  0  0  0  0
    2.9640   -1.7760   28.7540 C   0  0  0  0  0  0  0  0  0  0  0  0
    3.4020   -1.9590   30.2280 C   0  0  0  0  0  0  0  0  0  0  0  0
    4.7580   -1.9580   30.4100 O   0  0  0  0  0  0  0  0  0  0  0  0
    5.7430   -1.9280   29.4180 C   0  0  0  0  0  0  0  0  0  0  0  0
    5.8130   -4.9050   23.5560 C   0  0  0  0  0  0  0  0  0  0  0  0
    6.4530   -5.3770   22.2800 C   0  0  0  0  0  0  0  0  0  0  0  0
  1  2  1  0
  2  3  2  0
  2  4  1  0
  4  5  1  0
  5  6  1  0
  6  7  1  0
  7  8  1  0
  8  9  2  0
  8 10  1  0
 10 11  1  0
 12 11  1  6
 12 13  1  0
 13 14  1  0
 14 15  1  0
 15 16  1  0
 16 17  1  0
 13 18  1  0
 17 18  1  0
 12 19  1  0
 19 20  1  0
 20 21  1  0
 21 22  1  0
 12 23  1  0
 22 23  1  0
  7 24  1  0
  4 25  1  0
 24 25  1  0
M  END
