piperidine-amides-32945-covalent
     RDKit          3D

 27 30  0  0  0  0  0  0  0  0999 V2000
    7.0580   -3.3220   19.3320 C   0  0  0  0  0  0  0  0  0  0  0  0
    6.3590   -4.1760   20.3330 C   0  0  0  0  0  0  0  0  0  0  0  0
    5.3690   -4.8370   19.9750 O   0  0  0  0  0  0  0  0  0  0  0  0
    6.8610   -4.2500   21.6500 N   0  0  0  0  0  0  0  0  0  0  0  0
    7.7260   -3.2150   22.1950 C   0  0  0  0  0  0  0  0  0  0  0  0
    7.5130   -3.1450   23.7130 C   0  0  0  0  0  0  0  0  0  0  0  0
    6.1770   -3.7440   23.9590 C   0  0  0  0  0  0  0  0  0  0  0  0
    5.5350   -3.3820   25.2530 C   0  0  0  0  0  0  0  0  0  0  0  0
    4.5750   -2.6130   25.1690 O   0  0  0  0  0  0  0  0  0  0  0  0
    5.9760   -3.8920   26.4760 N   0  0  0  0  0  0  0  0  0  0  0  0
    6.8600   -5.0100   26.5450 C   0  0  0  0  0  0  0  0  0  0  0  0
    7.1700   -5.7390   27.6560 C   0  0  0  0  0  0  0  0  0  0  0  0
    6.2560   -5.7360   28.6890 C   0  0  0  0  0  0  0  0  0  0  0  0
    6.0320   -6.7880   30.0520 S   0  0  0  0  0  0  0  0  0  0  0  0
    4.6960   -5.9520   30.6310 C   0  0  0  0  0  0  0  0  0  0  0  0
    4.3610   -4.8360   29.8080 C   0  0  0  0  0  0  0  0  0  0  0  0
    5.3050   -4.6860   28.6100 C   0  0  0  0  0  0  0  0  0  0  0  0
    5.0800   -3.5470   27.6170 C   0  0  1  0  0  0  0  0  0  0  0  0
    5.2700   -2.2810   28.1390 C   0  0  0  0  0  0  0  0  0  0  0  0
    5.3680   -2.0440   29.5770 C   0  0  0  0  0  0  0  0  0  0  0  0
    5.5920   -0.5750   29.9780 C   0  0  0  0  0  0  0  0  0  0  0  0
    5.7420    0.6950   29.3850 C   0  0  0  0  0  0  0  0  0  0  0  0
    5.9990    2.3120   30.0350 Cl  0  0  0  0  0  0  0  0  0  0  0  0
    5.5980    0.1540   27.9340 C   0  0  0  0  0  0  0  0  0  0  0  0
    5.3810   -1.2010   27.3450 C   0  0  0  0  0  0  0  0  0  0  0  0
    6.2590   -5.2430   23.7960 C   0  0  0  0  0  0  0  0  0  0  0  0
    6.6430   -5.5060   22.3790 C   0  0  0  0  0  0  0  0  0  0  0  0
  1  2  1  0
  2  3  2  0
  2  4  1  0
  4  5  1  0
  5  6  1  0
  6  7  1  0
  7  8  1  0
  8  9  2  0
  8 10  1  0
 10 11  1  0
 11 12  1  0
 12 13  1  0
 13 14  1  0
 14 15  1  0
 15 16  2  0
 13 17  2  0
 16 17  1  0
 10 18  1  0
 17 18  1  0
 18 19  1  1
 19 20  2  0
 20 21  1  0
 21 22  2  0
 22 23  1  0
 22 24  1  0
 19 25  1  0
 24 25  2  0
  7 26  1  0
  4 27  1  0
 26 27  1  0
M  END
