piperidine-amides-24735-covalent
     RDKit          3D

 24 26  0  0  0  0  0  0  0  0999 V2000
    7.0470   -3.3310   19.3140 C   0  0  0  0  0  0  0  0  0  0  0  0
    6.3640   -4.1810   20.3040 C   0  0  0  0  0  0  0  0  0  0  0  0
    5.3480   -4.8310   19.9740 O   0  0  0  0  0  0  0  0  0  0  0  0
    6.8620   -4.3120   21.6110 N   0  0  0  0  0  0  0  0  0  0  0  0
    6.6370   -5.5670   22.3010 C   0  0  0  0  0  0  0  0  0  0  0  0
    6.3200   -5.2540   23.7730 C   0  0  0  0  0  0  0  0  0  0  0  0
    6.1930   -3.7470   23.8900 C   0  0  0  0  0  0  0  0  0  0  0  0
    5.7600   -3.2790   25.2280 C   0  0  0  0  0  0  0  0  0  0  0  0
    4.9580   -2.3240   25.2380 O   0  0  0  0  0  0  0  0  0  0  0  0
    6.1670   -3.8550   26.4610 N   0  0  0  0  0  0  0  0  0  0  0  0
    5.6500   -3.1030   27.5680 C   0  0  0  0  0  0  0  0  0  0  0  0
    6.3870   -3.4360   28.8220 C   0  0  0  0  0  0  0  0  0  0  0  0
    6.8920   -4.6710   28.9580 C   0  0  0  0  0  0  0  0  0  0  0  0
    6.4730   -5.6260   28.1120 C   0  0  1  0  0  0  0  0  0  0  0  0
    5.5420   -6.5140   28.6940 C   0  0  0  0  0  0  0  0  0  0  0  0
    4.3030   -6.0910   28.3710 N   0  0  0  0  0  0  0  0  0  0  0  0
    3.3170   -7.0080   27.9390 C   0  0  0  0  0  0  0  0  0  0  0  0
    1.9430   -6.4170   27.5460 C   0  0  0  0  0  0  0  0  0  0  0  0
    2.2360   -5.7170   28.9020 C   0  0  1  0  0  0  0  0  0  0  0  0
    2.0430   -6.5540   29.8280 O   0  0  0  0  0  0  0  0  0  0  0  0
    3.5930   -5.1250   29.1410 C   0  0  0  0  0  0  0  0  0  0  0  0
    6.1460   -5.2710   26.8080 C   0  0  0  0  0  0  0  0  0  0  0  0
    7.4630   -3.0740   23.4830 C   0  0  0  0  0  0  0  0  0  0  0  0
    7.6760   -3.2670   22.1590 C   0  0  0  0  0  0  0  0  0  0  0  0
  1  2  1  0
  2  3  2  0
  2  4  1  0
  4  5  1  0
  5  6  1  0
  6  7  1  0
  7  8  1  0
  8  9  2  0
  8 10  1  0
 10 11  1  0
 11 12  1  0
 12 13  1  0
 13 14  1  0
 14 15  1  1
 15 16  1  0
 16 17  1  0
 17 18  1  0
 18 19  1  0
 19 20  1  1
 16 21  1  0
 19 21  1  0
 10 22  1  0
 14 22  1  0
  7 23  1  0
  4 24  1  0
 23 24  1  0
M  END
