piperidine-amides-13187-covalent
     RDKit          3D

 19 19  0  0  0  0  0  0  0  0999 V2000
    7.1210   -3.2560   19.1750 C   0  0  0  0  0  0  0  0  0  0  0  0
    6.3590   -3.9920   20.2110 C   0  0  0  0  0  0  0  0  0  0  0  0
    5.2760   -4.5030   19.8600 O   0  0  0  0  0  0  0  0  0  0  0  0
    6.8700   -4.1380   21.5060 N   0  0  0  0  0  0  0  0  0  0  0  0
    7.6580   -3.0850   22.0550 C   0  0  0  0  0  0  0  0  0  0  0  0
    7.3340   -2.7170   23.4330 C   0  0  0  0  0  0  0  0  0  0  0  0
    6.6300   -3.7400   24.2420 C   0  0  0  0  0  0  0  0  0  0  0  0
    5.8810   -3.0570   25.3280 C   0  0  0  0  0  0  0  0  0  0  0  0
    4.6320   -3.0330   25.2800 O   0  0  0  0  0  0  0  0  0  0  0  0
    6.5710   -2.4450   26.3990 N   0  0  0  0  0  0  0  0  0  0  0  0
    7.2930   -3.2470   27.4110 C   0  0  0  0  0  0  0  0  0  0  0  0
    6.4370   -4.3520   27.9100 C   0  0  0  0  0  0  0  0  0  0  0  0
    6.3770   -5.5330   27.0730 C   0  0  0  0  0  0  0  0  0  0  0  0
    7.7270   -5.9730   26.9720 N   0  0  0  0  0  0  0  0  0  0  0  0
    8.6870   -5.7990   27.9690 C   0  0  0  0  0  0  0  0  0  0  0  0
    8.2100   -5.6280   25.8320 O   0  0  0  0  0  0  0  0  0  0  0  0
    9.4900   -5.6220   26.0060 C   0  0  0  0  0  0  0  0  0  0  0  0
    5.8220   -4.7350   23.4580 C   0  0  0  0  0  0  0  0  0  0  0  0
    6.4300   -5.2040   22.3280 C   0  0  0  0  0  0  0  0  0  0  0  0
  1  2  1  0
  2  3  2  0
  2  4  1  0
  4  5  1  0
  5  6  1  0
  6  7  1  0
  7  8  1  0
  8  9  2  0
  8 10  1  0
 10 11  1  0
 11 12  1  0
 12 13  1  0
 13 14  1  0
 14 15  1  0
 14 16  1  0
 16 17  1  0
  7 18  1  0
  4 19  1  0
 18 19  1  0
M  END
