piperidine-amides-28932-covalent
     RDKit          3D

 25 27  0  0  0  0  0  0  0  0999 V2000
    7.0140   -3.3480   19.3980 C   0  0  0  0  0  0  0  0  0  0  0  0
    6.3750   -4.2020   20.4010 C   0  0  0  0  0  0  0  0  0  0  0  0
    5.4290   -4.9130   20.0060 O   0  0  0  0  0  0  0  0  0  0  0  0
    6.8390   -4.2470   21.7570 N   0  0  0  0  0  0  0  0  0  0  0  0
    6.7180   -5.4920   22.4760 C   0  0  0  0  0  0  0  0  0  0  0  0
    6.1890   -5.1970   23.8440 C   0  0  0  0  0  0  0  0  0  0  0  0
    6.0460   -3.7010   23.8610 C   0  0  0  0  0  0  0  0  0  0  0  0
    5.3370   -3.1860   25.0960 C   0  0  0  0  0  0  0  0  0  0  0  0
    4.1300   -3.0510   24.9320 O   0  0  0  0  0  0  0  0  0  0  0  0
    5.9400   -2.8760   26.3210 N   0  0  0  0  0  0  0  0  0  0  0  0
    5.6460   -3.7530   27.3930 C   0  0  0  0  0  0  0  0  0  0  0  0
    4.6310   -4.7090   27.3390 N   0  0  0  0  0  0  0  0  0  0  0  0
    4.4520   -5.4600   28.4350 C   0  0  0  0  0  0  0  0  0  0  0  0
    3.5430   -6.4620   28.6860 C   0  0  0  0  0  0  0  0  0  0  0  0
    2.8200   -6.9100   27.6080 O   0  0  0  0  0  0  0  0  0  0  0  0
    3.4040   -6.9470   29.9990 O   0  0  0  0  0  0  0  0  0  0  0  0
    4.5940   -7.2240   30.7520 C   0  0  0  0  0  0  0  0  0  0  0  0
    5.8290   -7.6650   30.0190 C   0  0  0  0  0  0  0  0  0  0  0  0
    5.3090   -5.1840   29.4890 C   0  0  0  0  0  0  0  0  0  0  0  0
    6.3430   -3.8970   28.9520 S   0  0  0  0  0  0  0  0  0  0  0  0
    5.7540   -1.5170   26.7930 C   0  0  0  0  0  0  0  0  0  0  0  0
    6.4340   -0.5520   26.1630 C   0  0  0  0  0  0  0  0  0  0  0  0
    6.7190   -0.9900   27.7050 C   0  0  0  0  0  0  0  0  0  0  0  0
    7.4150   -3.0920   23.6790 C   0  0  0  0  0  0  0  0  0  0  0  0
    7.6790   -3.1860   22.3120 C   0  0  0  0  0  0  0  0  0  0  0  0
  1  2  1  0
  2  3  2  0
  2  4  1  0
  4  5  1  0
  5  6  1  0
  6  7  1  0
  7  8  1  0
  8  9  2  0
  8 10  1  0
 10 11  1  0
 11 12  2  0
 12 13  1  0
 13 14  1  0
 14 15  2  0
 14 16  1  0
 16 17  1  0
 17 18  1  0
 13 19  2  0
 11 20  1  0
 19 20  1  0
 10 21  1  0
 21 22  1  0
 21 23  1  0
 22 23  1  0
  7 24  1  0
  4 25  1  0
 24 25  1  0
M  END
