piperidine-amides-16201-covalent
     RDKit          3D

 19 20  0  0  0  0  0  0  0  0999 V2000
    7.0770   -3.2700   19.2670 C   0  0  0  0  0  0  0  0  0  0  0  0
    6.3640   -4.0820   20.2870 C   0  0  0  0  0  0  0  0  0  0  0  0
    5.3310   -4.6450   19.9230 O   0  0  0  0  0  0  0  0  0  0  0  0
    6.8830   -4.2280   21.5810 N   0  0  0  0  0  0  0  0  0  0  0  0
    6.5990   -5.3890   22.3800 C   0  0  0  0  0  0  0  0  0  0  0  0
    5.8830   -4.9830   23.6440 C   0  0  0  0  0  0  0  0  0  0  0  0
    5.7940   -3.4520   23.7420 C   0  0  0  0  0  0  0  0  0  0  0  0
    5.1040   -3.1410   25.0170 C   0  0  0  0  0  0  0  0  0  0  0  0
    4.2250   -3.9070   25.4170 O   0  0  0  0  0  0  0  0  0  0  0  0
    5.4070   -2.0100   25.7910 N   0  0  0  0  0  0  0  0  0  0  0  0
    6.6660   -2.1060   26.4810 C   0  0  0  0  0  0  0  0  0  0  0  0
    6.0800   -1.7430   27.7510 C   0  0  0  0  0  0  0  0  0  0  0  0
    6.0610   -2.8650   28.5520 O   0  0  0  0  0  0  0  0  0  0  0  0
    6.4440   -0.6710   28.5260 C   0  0  0  0  0  0  0  0  0  0  0  0
    5.6460   -0.5660   29.6140 C   0  0  0  0  0  0  0  0  0  0  0  0
    6.1220    0.5470   27.6560 C   0  0  0  0  0  0  0  0  0  0  0  0
    4.7970   -1.4640   27.0590 C   0  0  0  0  0  0  0  0  0  0  0  0
    7.1240   -2.8100   23.5410 C   0  0  0  0  0  0  0  0  0  0  0  0
    7.6600   -3.1540   22.1820 C   0  0  0  0  0  0  0  0  0  0  0  0
  1  2  1  0
  2  3  2  0
  2  4  1  0
  4  5  1  0
  5  6  1  0
  6  7  1  0
  7  8  1  0
  8  9  2  0
  8 10  1  0
 10 11  1  0
 11 12  1  0
 12 13  1  0
 12 14  1  0
 14 15  1  0
 14 16  1  0
 10 17  1  0
 12 17  1  0
  7 18  1  0
  4 19  1  0
 18 19  1  0
M  END
