piperidine-amides-9317-covalent
     RDKit          3D

 19 20  0  0  0  0  0  0  0  0999 V2000
    7.1040   -3.2900   19.2490 C   0  0  0  0  0  0  0  0  0  0  0  0
    6.3890   -4.0560   20.2710 C   0  0  0  0  0  0  0  0  0  0  0  0
    5.3640   -4.6890   19.9460 O   0  0  0  0  0  0  0  0  0  0  0  0
    6.8600   -4.1220   21.5970 N   0  0  0  0  0  0  0  0  0  0  0  0
    7.7620   -3.1160   22.1220 C   0  0  0  0  0  0  0  0  0  0  0  0
    7.4720   -3.0250   23.5910 C   0  0  0  0  0  0  0  0  0  0  0  0
    6.1260   -3.5850   23.8990 C   0  0  0  0  0  0  0  0  0  0  0  0
    5.6710   -3.3380   25.2870 C   0  0  0  0  0  0  0  0  0  0  0  0
    4.4460   -3.4500   25.5790 O   0  0  0  0  0  0  0  0  0  0  0  0
    6.5410   -2.9650   26.3320 N   0  0  0  0  0  0  0  0  0  0  0  0
    6.1560   -3.1920   27.7420 C   0  0  0  0  0  0  0  0  0  0  0  0
    5.6710   -1.8900   28.2680 C   0  0  2  0  0  0  0  0  0  0  0  0
    6.3830   -0.7410   27.6740 C   0  0  0  0  0  0  0  0  0  0  0  0
    6.2060    0.8530   28.3730 S   0  0  0  0  0  0  0  0  0  0  0  0
    6.7520    0.8710   30.0420 C   0  0  0  0  0  0  0  0  0  0  0  0
    7.0620   -0.5680   30.3820 C   0  0  0  0  0  0  0  0  0  0  0  0
    5.5510   -1.4920   29.9260 S   0  0  0  0  0  0  0  0  0  0  0  0
    6.1190   -5.0490   23.6030 C   0  0  0  0  0  0  0  0  0  0  0  0
    6.5320   -5.3170   22.3180 C   0  0  0  0  0  0  0  0  0  0  0  0
  1  2  1  0
  2  3  2  0
  2  4  1  0
  4  5  1  0
  5  6  1  0
  6  7  1  0
  7  8  1  0
  8  9  2  0
  8 10  1  0
 10 11  1  0
 12 11  1  1
 12 13  1  0
 13 14  1  0
 14 15  1  0
 15 16  1  0
 12 17  1  0
 16 17  1  0
  7 18  1  0
  4 19  1  0
 18 19  1  0
M  END
