piperidine-amides-25830-covalent
     RDKit          3D

 25 26  0  0  0  0  0  0  0  0999 V2000
    7.0280   -3.2890   19.2400 C   0  0  0  0  0  0  0  0  0  0  0  0
    6.2670   -4.1140   20.2210 C   0  0  0  0  0  0  0  0  0  0  0  0
    5.1830   -4.5420   19.8560 O   0  0  0  0  0  0  0  0  0  0  0  0
    6.7840   -4.4340   21.4740 N   0  0  0  0  0  0  0  0  0  0  0  0
    6.3610   -5.6100   22.1710 C   0  0  0  0  0  0  0  0  0  0  0  0
    6.2870   -5.2950   23.6420 C   0  0  0  0  0  0  0  0  0  0  0  0
    5.7390   -3.8800   23.8760 C   0  0  0  0  0  0  0  0  0  0  0  0
    5.6070   -3.6500   25.3320 C   0  0  0  0  0  0  0  0  0  0  0  0
    4.4700   -3.5820   25.8250 O   0  0  0  0  0  0  0  0  0  0  0  0
    6.7370   -3.4780   26.1630 N   0  0  0  0  0  0  0  0  0  0  0  0
    7.4890   -4.6570   26.5630 C   0  0  0  0  0  0  0  0  0  0  0  0
    6.7750   -5.3390   27.7140 C   0  0  0  0  0  0  0  0  0  0  0  0
    5.6010   -6.0250   27.5590 C   0  0  0  0  0  0  0  0  0  0  0  0
    5.3190   -6.9470   28.5120 C   0  0  0  0  0  0  0  0  0  0  0  0
    7.4010   -2.2620   26.3920 C   0  0  2  0  0  0  0  0  0  0  0  0
    6.6500   -1.2070   27.1780 C   0  0  0  0  0  0  0  0  0  0  0  0
    7.3150   -1.5690   28.4740 C   0  0  0  0  0  0  0  0  0  0  0  0
    7.8430   -1.7870   25.0430 C   0  0  0  0  0  0  0  0  0  0  0  0
    7.2300   -0.5340   24.4730 C   0  0  0  0  0  0  0  0  0  0  0  0
    7.6900   -0.0640   23.1340 C   0  0  0  0  0  0  0  0  0  0  0  0
    8.7470   -0.8510   22.3960 C   0  0  0  0  0  0  0  0  0  0  0  0
    9.2930   -2.0750   23.0260 C   0  0  0  0  0  0  0  0  0  0  0  0
    8.8030   -2.5310   24.3870 C   0  0  0  0  0  0  0  0  0  0  0  0
    6.6860   -2.8660   23.2900 C   0  0  0  0  0  0  0  0  0  0  0  0
    7.5060   -3.4220   22.1630 C   0  0  0  0  0  0  0  0  0  0  0  0
  1  2  1  0
  2  3  2  0
  2  4  1  0
  4  5  1  0
  5  6  1  0
  6  7  1  0
  7  8  1  0
  8  9  2  0
  8 10  1  0
 10 11  1  0
 11 12  1  0
 12 13  1  0
 13 14  1  0
 10 15  1  0
 15 16  1  6
 16 17  1  0
 15 18  1  0
 18 19  2  0
 19 20  1  0
 20 21  2  0
 21 22  1  0
 18 23  1  0
 22 23  2  0
  7 24  1  0
  4 25  1  0
 24 25  1  0
M  END
