piperidine-amides-1298-covalent
     RDKit          3D

 22 23  0  0  0  0  0  0  0  0999 V2000
    7.1470   -3.2960   19.2480 C   0  0  0  0  0  0  0  0  0  0  0  0
    6.3710   -4.0630   20.2530 C   0  0  0  0  0  0  0  0  0  0  0  0
    5.3040   -4.5980   19.9100 O   0  0  0  0  0  0  0  0  0  0  0  0
    6.9000   -4.2050   21.5510 N   0  0  0  0  0  0  0  0  0  0  0  0
    7.6910   -3.1630   22.1560 C   0  0  0  0  0  0  0  0  0  0  0  0
    6.8550   -2.6160   23.3090 C   0  0  0  0  0  0  0  0  0  0  0  0
    6.4440   -3.7780   24.1470 C   0  0  0  0  0  0  0  0  0  0  0  0
    5.7330   -3.3440   25.3730 C   0  0  0  0  0  0  0  0  0  0  0  0
    4.5700   -2.9510   25.2140 O   0  0  0  0  0  0  0  0  0  0  0  0
    6.3660   -3.3730   26.6210 N   0  0  0  0  0  0  0  0  0  0  0  0
    6.1340   -4.2830   27.6950 C   0  0  0  0  0  0  0  0  0  0  0  0
    6.0610   -5.6580   27.5710 C   0  0  0  0  0  0  0  0  0  0  0  0
    4.3450   -6.2610   27.5120 S   0  0  0  0  0  0  0  0  0  0  0  0
    4.0850   -7.1070   26.2790 O   0  0  0  0  0  0  0  0  0  0  0  0
    3.4800   -5.0460   27.4080 O   0  0  0  0  0  0  0  0  0  0  0  0
    3.8960   -7.1640   28.9770 C   0  0  0  0  0  0  0  0  0  0  0  0
    2.5420   -7.1800   29.2580 C   0  0  0  0  0  0  0  0  0  0  0  0
    1.5980   -7.8210   28.3330 C   0  0  0  0  0  0  0  0  0  0  0  0
    1.0640   -8.7310   29.4490 C   0  0  0  0  0  0  0  0  0  0  0  0
    2.1110   -7.9660   30.2970 C   0  0  0  0  0  0  0  0  0  0  0  0
    5.5490   -4.7390   23.3440 C   0  0  0  0  0  0  0  0  0  0  0  0
    6.4250   -5.3280   22.3070 C   0  0  0  0  0  0  0  0  0  0  0  0
  1  2  1  0
  2  3  2  0
  2  4  1  0
  4  5  1  0
  5  6  1  0
  6  7  1  0
  7  8  1  0
  8  9  2  0
  8 10  1  0
 10 11  1  0
 11 12  1  0
 13 12  1  0
 13 14  2  0
 13 15  2  0
 13 16  1  0
 16 17  1  0
 17 18  1  0
 18 19  1  0
 17 20  1  0
 19 20  1  0
  7 21  1  0
  4 22  1  0
 21 22  1  0
M  END
