piperidine-amides-25880-covalent
     RDKit          3D

 25 27  0  0  0  0  0  0  0  0999 V2000
    7.0170   -3.3450   19.3070 C   0  0  0  0  0  0  0  0  0  0  0  0
    6.3620   -4.1960   20.3380 C   0  0  0  0  0  0  0  0  0  0  0  0
    5.3730   -4.8310   19.9740 O   0  0  0  0  0  0  0  0  0  0  0  0
    6.8860   -4.2880   21.6350 N   0  0  0  0  0  0  0  0  0  0  0  0
    6.6530   -5.4340   22.4870 C   0  0  0  0  0  0  0  0  0  0  0  0
    5.9450   -5.0170   23.7570 C   0  0  0  0  0  0  0  0  0  0  0  0
    6.6210   -3.7830   24.3630 C   0  0  0  0  0  0  0  0  0  0  0  0
    5.7610   -3.2830   25.4580 C   0  0  0  0  0  0  0  0  0  0  0  0
    4.5650   -3.0590   25.2260 O   0  0  0  0  0  0  0  0  0  0  0  0
    6.2720   -3.0660   26.7590 N   0  0  0  0  0  0  0  0  0  0  0  0
    6.5960   -4.2590   27.5160 C   0  0  0  0  0  0  0  0  0  0  0  0
    5.9490   -1.8300   27.4450 C   0  0  0  0  0  0  0  0  0  0  0  0
    6.0140   -0.6800   26.6660 C   0  0  0  0  0  0  0  0  0  0  0  0
    5.5760    0.4880   27.2280 C   0  0  0  0  0  0  0  0  0  0  0  0
    5.6940    0.5020   28.6460 N   0  0  0  0  0  0  0  0  0  0  0  0
    4.5200    0.7290   29.4620 C   0  0  0  0  0  0  0  0  0  0  0  0
    4.3320    0.2740   30.9120 C   0  0  0  0  0  0  0  0  0  0  0  0
    3.1510    0.5320   31.6530 N   0  0  0  0  0  0  0  0  0  0  0  0
    2.1120    1.2510   30.9820 C   0  0  0  0  0  0  0  0  0  0  0  0
    2.2860    1.6960   29.5720 C   0  0  0  0  0  0  0  0  0  0  0  0
    3.4370    1.4640   28.8020 N   0  0  0  0  0  0  0  0  0  0  0  0
    6.4570   -0.5390   29.2620 C   0  0  0  0  0  0  0  0  0  0  0  0
    7.1460   -1.4430   28.3030 C   0  0  0  0  0  0  0  0  0  0  0  0
    6.9330   -2.7250   23.3780 C   0  0  0  0  0  0  0  0  0  0  0  0
    7.6730   -3.2080   22.1950 C   0  0  0  0  0  0  0  0  0  0  0  0
  1  2  1  0
  2  3  2  0
  2  4  1  0
  4  5  1  0
  5  6  1  0
  6  7  1  0
  7  8  1  0
  8  9  2  0
  8 10  1  0
 10 11  1  0
 10 12  1  0
 12 13  1  0
 13 14  1  0
 14 15  1  0
 15 16  1  0
 16 17  2  0
 17 18  1  0
 18 19  2  0
 19 20  1  0
 16 21  1  0
 20 21  2  0
 15 22  1  0
 12 23  1  0
 22 23  1  0
  7 24  1  0
  4 25  1  0
 24 25  1  0
M  END
