piperidine-amides-35260-covalent
     RDKit          3D

 32 34  0  0  0  0  0  0  0  0999 V2000
    6.9820   -3.3510   19.4200 C   0  0  0  0  0  0  0  0  0  0  0  0
    6.3630   -4.2420   20.4380 C   0  0  0  0  0  0  0  0  0  0  0  0
    5.4450   -4.9520   20.0150 O   0  0  0  0  0  0  0  0  0  0  0  0
    6.8190   -4.2930   21.7770 N   0  0  0  0  0  0  0  0  0  0  0  0
    6.6590   -5.4960   22.5550 C   0  0  0  0  0  0  0  0  0  0  0  0
    6.0420   -5.1530   23.8860 C   0  0  0  0  0  0  0  0  0  0  0  0
    5.8560   -3.6360   23.9890 C   0  0  0  0  0  0  0  0  0  0  0  0
    5.0130   -3.2990   25.2080 C   0  0  0  0  0  0  0  0  0  0  0  0
    3.8080   -3.5150   25.0900 O   0  0  0  0  0  0  0  0  0  0  0  0
    5.4270   -2.7600   26.4690 N   0  0  0  0  0  0  0  0  0  0  0  0
    6.5560   -3.2850   27.0350 C   0  0  0  0  0  0  0  0  0  0  0  0
    6.1800   -4.6320   27.6840 C   0  0  0  0  0  0  0  0  0  0  0  0
    4.7490   -4.4850   27.9870 N   0  0  0  0  0  0  0  0  0  0  0  0
    3.9350   -5.8700   28.5890 S   0  0  0  0  0  0  0  0  0  0  0  0
    2.4910   -5.6080   28.3140 O   0  0  0  0  0  0  0  0  0  0  0  0
    4.3520   -7.0370   27.7440 O   0  0  0  0  0  0  0  0  0  0  0  0
    4.2320   -6.1750   30.3740 C   0  0  0  0  0  0  0  0  0  0  0  0
    5.1900   -7.0620   30.6020 C   0  0  0  0  0  0  0  0  0  0  0  0
    6.0670   -7.8430   29.9320 C   0  0  0  0  0  0  0  0  0  0  0  0
    5.7240   -7.6010   31.8020 C   0  0  0  0  0  0  0  0  0  0  0  0
    5.0820   -7.0610   33.0270 C   0  0  0  0  0  0  0  0  0  0  0  0
    5.6840   -7.6890   34.2630 C   0  0  0  0  0  0  0  0  0  0  0  0
    4.4740   -7.6910   35.1370 C   0  0  0  0  0  0  0  0  0  0  0  0
    6.0720   -9.1410   34.0430 C   0  0  0  0  0  0  0  0  0  0  0  0
    6.8080   -6.9970   35.0010 C   0  0  0  0  0  0  0  0  0  0  0  0
    4.0710   -6.1170   32.9020 C   0  0  0  0  0  0  0  0  0  0  0  0
    3.6280   -5.6550   31.5140 C   0  0  0  0  0  0  0  0  0  0  0  0
    2.6350   -4.7280   31.2970 C   0  0  0  0  0  0  0  0  0  0  0  0
    4.7310   -3.3540   28.6290 C   0  0  0  0  0  0  0  0  0  0  0  0
    4.5330   -2.3230   27.5070 C   0  0  0  0  0  0  0  0  0  0  0  0
    7.2340   -3.0250   23.7630 C   0  0  0  0  0  0  0  0  0  0  0  0
    7.5580   -3.2050   22.4300 C   0  0  0  0  0  0  0  0  0  0  0  0
  1  2  1  0
  2  3  2  0
  2  4  1  0
  4  5  1  0
  5  6  1  0
  6  7  1  0
  7  8  1  0
  8  9  2  0
  8 10  1  0
 10 11  1  0
 11 12  1  0
 12 13  1  0
 13 14  1  0
 14 15  2  0
 14 16  2  0
 14 17  1  0
 17 18  2  0
 18 19  1  0
 18 20  1  0
 20 21  2  0
 21 22  1  0
 22 23  1  0
 22 24  1  0
 22 25  1  0
 21 26  1  0
 17 27  1  0
 26 27  2  0
 27 28  1  0
 13 29  1  0
 10 30  1  0
 29 30  1  0
  7 31  1  0
  4 32  1  0
 31 32  1  0
M  END
