piperidine-amides-3876-covalent
     RDKit          3D

 22 24  0  0  0  0  0  0  0  0999 V2000
    7.0980   -3.3220   19.2600 C   0  0  0  0  0  0  0  0  0  0  0  0
    6.3880   -4.1140   20.2760 C   0  0  0  0  0  0  0  0  0  0  0  0
    5.3070   -4.6410   19.9200 O   0  0  0  0  0  0  0  0  0  0  0  0
    6.9320   -4.3280   21.5680 N   0  0  0  0  0  0  0  0  0  0  0  0
    7.6180   -3.2380   22.1820 C   0  0  0  0  0  0  0  0  0  0  0  0
    7.1000   -2.8150   23.4780 C   0  0  0  0  0  0  0  0  0  0  0  0
    6.4230   -3.8580   24.2720 C   0  0  0  0  0  0  0  0  0  0  0  0
    5.6800   -3.2400   25.4250 C   0  0  0  0  0  0  0  0  0  0  0  0
    4.4450   -3.1030   25.3370 O   0  0  0  0  0  0  0  0  0  0  0  0
    6.3430   -2.8140   26.6020 N   0  0  0  0  0  0  0  0  0  0  0  0
    6.0420   -1.7120   27.4580 C   0  0  1  0  0  0  0  0  0  0  0  0
    7.0890   -1.0630   28.2490 C   0  0  0  0  0  0  0  0  0  0  0  0
    6.4330   -0.6710   29.5500 C   0  0  1  0  0  0  0  0  0  0  0  0
    6.2050    0.6950   29.7350 C   0  0  0  0  0  0  0  0  0  0  0  0
    6.1900    0.9600   28.2050 C   0  0  0  0  0  0  0  0  0  0  0  0
    5.0860   -0.0100   27.9700 C   0  0  1  0  0  0  0  0  0  0  0  0
    5.7980   -0.4330   26.6190 C   0  0  0  0  0  0  0  0  0  0  0  0
    4.8430   -1.1510   29.2700 S   0  0  0  0  0  0  0  0  0  0  0  0
    4.7430   -2.6230   28.9690 O   0  0  0  0  0  0  0  0  0  0  0  0
    3.8730   -0.6720   30.2910 O   0  0  0  0  0  0  0  0  0  0  0  0
    5.5640   -4.8060   23.4700 C   0  0  0  0  0  0  0  0  0  0  0  0
    6.4440   -5.4060   22.3910 C   0  0  0  0  0  0  0  0  0  0  0  0
  1  2  1  0
  2  3  2  0
  2  4  1  0
  4  5  1  0
  5  6  1  0
  6  7  1  0
  7  8  1  0
  8  9  2  0
  8 10  1  0
 11 10  1  6
 11 12  1  0
 13 12  1  6
 13 14  1  0
 14 15  1  0
 16 15  1  1
 11 17  1  0
 16 17  1  0
 18 13  1  0
 16 18  1  0
 18 19  2  0
 18 20  2  0
  7 21  1  0
  4 22  1  0
 21 22  1  0
M  END
