piperidine-amides-34984-covalent
     RDKit          3D

 30 32  0  0  0  0  0  0  0  0999 V2000
    7.0510   -3.3410   19.3570 C   0  0  0  0  0  0  0  0  0  0  0  0
    6.3960   -4.2310   20.3490 C   0  0  0  0  0  0  0  0  0  0  0  0
    5.3870   -4.8310   19.9760 O   0  0  0  0  0  0  0  0  0  0  0  0
    6.9500   -4.3970   21.6220 N   0  0  0  0  0  0  0  0  0  0  0  0
    6.5810   -5.4960   22.4690 C   0  0  0  0  0  0  0  0  0  0  0  0
    5.7640   -4.9720   23.6240 C   0  0  0  0  0  0  0  0  0  0  0  0
    6.5000   -3.8260   24.3430 C   0  0  0  0  0  0  0  0  0  0  0  0
    5.6510   -3.3140   25.4570 C   0  0  0  0  0  0  0  0  0  0  0  0
    4.8880   -2.3730   25.2190 O   0  0  0  0  0  0  0  0  0  0  0  0
    5.6480   -3.8590   26.7690 N   0  0  0  0  0  0  0  0  0  0  0  0
    4.4620   -3.7570   27.5650 C   0  0  0  0  0  0  0  0  0  0  0  0
    4.4090   -4.9730   28.4890 C   0  0  0  0  0  0  0  0  0  0  0  0
    5.5680   -5.0880   29.4080 N   0  0  0  0  0  0  0  0  0  0  0  0
    5.4750   -6.6830   30.0970 S   0  0  0  0  0  0  0  0  0  0  0  0
    6.5090   -7.4460   29.3570 O   0  0  0  0  0  0  0  0  0  0  0  0
    5.9020   -6.6820   31.5480 O   0  0  0  0  0  0  0  0  0  0  0  0
    3.7950   -7.3860   29.8090 C   0  0  0  0  0  0  0  0  0  0  0  0
    3.6010   -7.4030   28.4770 C   0  0  0  0  0  0  0  0  0  0  0  0
    2.4450   -7.8740   28.0630 C   0  0  0  0  0  0  0  0  0  0  0  0
    1.3210   -8.3950   28.8550 C   0  0  0  0  0  0  0  0  0  0  0  0
    1.6270   -8.3420   30.3320 C   0  0  0  0  0  0  0  0  0  0  0  0
    2.9290   -7.8190   31.0060 C   0  0  0  0  0  0  0  0  0  0  0  0
    2.9420   -7.8900   32.5050 C   0  0  0  0  0  0  0  0  0  0  0  0
    2.4390   -9.0070   33.1170 F   0  0  0  0  0  0  0  0  0  0  0  0
    4.2500   -7.7420   32.9170 F   0  0  0  0  0  0  0  0  0  0  0  0
    2.1330   -6.8900   32.9800 F   0  0  0  0  0  0  0  0  0  0  0  0
    6.6970   -4.8540   28.5790 C   0  0  0  0  0  0  0  0  0  0  0  0
    6.4910   -3.5240   27.8800 C   0  0  0  0  0  0  0  0  0  0  0  0
    6.8110   -2.7190   23.3660 C   0  0  0  0  0  0  0  0  0  0  0  0
    7.6530   -3.3100   22.2730 C   0  0  0  0  0  0  0  0  0  0  0  0
  1  2  1  0
  2  3  2  0
  2  4  1  0
  4  5  1  0
  5  6  1  0
  6  7  1  0
  7  8  1  0
  8  9  2  0
  8 10  1  0
 10 11  1  0
 11 12  1  0
 12 13  1  0
 13 14  1  0
 14 15  2  0
 14 16  2  0
 14 17  1  0
 17 18  2  0
 18 19  1  0
 19 20  2  0
 20 21  1  0
 17 22  1  0
 21 22  2  0
 22 23  1  0
 23 24  1  0
 23 25  1  0
 23 26  1  0
 13 27  1  0
 10 28  1  0
 27 28  1  0
  7 29  1  0
  4 30  1  0
 29 30  1  0
M  END
