piperidine-amides-6684-covalent
     RDKit          3D

 24 25  0  0  0  0  0  0  0  0999 V2000
    7.0850   -3.2480   19.2450 C   0  0  0  0  0  0  0  0  0  0  0  0
    6.3140   -4.0490   20.2130 C   0  0  0  0  0  0  0  0  0  0  0  0
    5.2420   -4.5890   19.8820 O   0  0  0  0  0  0  0  0  0  0  0  0
    6.7920   -4.2570   21.5030 N   0  0  0  0  0  0  0  0  0  0  0  0
    7.5540   -3.2050   22.1200 C   0  0  0  0  0  0  0  0  0  0  0  0
    6.7650   -2.7820   23.3600 C   0  0  0  0  0  0  0  0  0  0  0  0
    6.6340   -4.0300   24.2050 C   0  0  0  0  0  0  0  0  0  0  0  0
    5.9850   -3.6840   25.4840 C   0  0  0  0  0  0  0  0  0  0  0  0
    4.8820   -3.0850   25.4570 O   0  0  0  0  0  0  0  0  0  0  0  0
    6.6220   -4.0480   26.7000 N   0  0  0  0  0  0  0  0  0  0  0  0
    7.8840   -4.7390   26.6820 C   0  0  0  0  0  0  0  0  0  0  0  0
    8.8810   -3.7540   26.1260 C   0  0  0  0  0  0  0  0  0  0  0  0
    8.4120   -2.4230   26.0410 O   0  0  0  0  0  0  0  0  0  0  0  0
   10.2080   -4.1840   25.7200 N   0  0  0  0  0  0  0  0  0  0  0  0
   11.1220   -3.2440   25.0830 C   0  0  0  0  0  0  0  0  0  0  0  0
   12.4360   -3.3500   25.5720 C   0  0  0  0  0  0  0  0  0  0  0  0
   13.4690   -2.5180   25.0890 C   0  0  0  0  0  0  0  0  0  0  0  0
   13.2900   -1.5690   24.1340 C   0  0  0  0  0  0  0  0  0  0  0  0
   11.9120   -1.5180   23.6710 C   0  0  0  0  0  0  0  0  0  0  0  0
   12.3940   -0.4090   22.7580 C   0  0  0  0  0  0  0  0  0  0  0  0
   10.8190   -2.3250   24.1140 C   0  0  0  0  0  0  0  0  0  0  0  0
    9.5180   -2.0960   23.5080 C   0  0  0  0  0  0  0  0  0  0  0  0
    5.7840   -5.0280   23.4710 C   0  0  0  0  0  0  0  0  0  0  0  0
    6.2980   -5.3610   22.2470 C   0  0  0  0  0  0  0  0  0  0  0  0
  1  2  1  0
  2  3  2  0
  2  4  1  0
  4  5  1  0
  5  6  1  0
  6  7  1  0
  7  8  1  0
  8  9  2  0
  8 10  1  0
 10 11  1  0
 11 12  1  0
 12 13  2  0
 12 14  1  0
 14 15  1  0
 15 16  2  0
 16 17  1  0
 17 18  2  0
 18 19  1  0
 19 20  1  0
 15 21  1  0
 19 21  2  0
 21 22  1  0
  7 23  1  0
  4 24  1  0
 23 24  1  0
M  END
