piperidine-amides-25526-covalent
     RDKit          3D

 23 25  0  0  0  0  0  0  0  0999 V2000
    7.0410   -3.3430   19.3450 C   0  0  0  0  0  0  0  0  0  0  0  0
    6.3740   -4.2170   20.3440 C   0  0  0  0  0  0  0  0  0  0  0  0
    5.3610   -4.8000   19.9670 O   0  0  0  0  0  0  0  0  0  0  0  0
    6.9080   -4.4040   21.6280 N   0  0  0  0  0  0  0  0  0  0  0  0
    6.4560   -5.4970   22.4330 C   0  0  0  0  0  0  0  0  0  0  0  0
    5.5460   -4.9310   23.4880 C   0  0  0  0  0  0  0  0  0  0  0  0
    6.3260   -3.9370   24.3550 C   0  0  0  0  0  0  0  0  0  0  0  0
    5.3640   -3.2480   25.2620 C   0  0  0  0  0  0  0  0  0  0  0  0
    4.5440   -2.4840   24.7550 O   0  0  0  0  0  0  0  0  0  0  0  0
    5.3220   -3.4210   26.6770 N   0  0  0  0  0  0  0  0  0  0  0  0
    4.1860   -2.9770   27.3890 C   0  0  0  0  0  0  0  0  0  0  0  0
    3.9640   -4.0450   28.4210 C   0  0  0  0  0  0  0  0  0  0  0  0
    5.0790   -4.0450   29.3720 N   0  0  0  0  0  0  0  0  0  0  0  0
    4.7750   -5.1960   30.2360 C   0  0  0  0  0  0  0  0  0  0  0  0
    4.0700   -6.0850   29.5450 C   0  0  0  0  0  0  0  0  0  0  0  0
    5.3470   -6.8700   28.7880 S   0  0  0  0  0  0  0  0  0  0  0  0
    4.7650   -7.9230   27.9410 O   0  0  0  0  0  0  0  0  0  0  0  0
    6.3270   -7.3790   29.8080 O   0  0  0  0  0  0  0  0  0  0  0  0
    5.9280   -5.6250   27.7740 C   0  0  0  0  0  0  0  0  0  0  0  0
    6.3210   -4.4030   28.5900 C   0  0  1  0  0  0  0  0  0  0  0  0
    6.4490   -3.3920   27.4530 C   0  0  0  0  0  0  0  0  0  0  0  0
    7.1130   -2.9200   23.6080 C   0  0  0  0  0  0  0  0  0  0  0  0
    7.6000   -3.3060   22.2480 C   0  0  0  0  0  0  0  0  0  0  0  0
  1  2  1  0
  2  3  2  0
  2  4  1  0
  4  5  1  0
  5  6  1  0
  6  7  1  0
  7  8  1  0
  8  9  2  0
  8 10  1  0
 10 11  1  0
 11 12  1  0
 12 13  1  0
 13 14  1  0
 14 15  1  0
 16 15  1  0
 16 17  2  0
 16 18  2  0
 16 19  1  0
 13 20  1  0
 20 19  1  6
 10 21  1  0
 20 21  1  0
  7 22  1  0
  4 23  1  0
 22 23  1  0
M  END
