piperidine-amides-8806-covalent
     RDKit          3D

 22 23  0  0  0  0  0  0  0  0999 V2000
    7.1060   -3.2810   19.2230 C   0  0  0  0  0  0  0  0  0  0  0  0
    6.3740   -4.0490   20.2270 C   0  0  0  0  0  0  0  0  0  0  0  0
    5.2980   -4.5730   19.8950 O   0  0  0  0  0  0  0  0  0  0  0  0
    6.9250   -4.2270   21.5210 N   0  0  0  0  0  0  0  0  0  0  0  0
    6.4260   -5.2980   22.3210 C   0  0  0  0  0  0  0  0  0  0  0  0
    5.5670   -4.7030   23.4010 C   0  0  0  0  0  0  0  0  0  0  0  0
    6.4730   -3.8700   24.2920 C   0  0  0  0  0  0  0  0  0  0  0  0
    5.6910   -3.3510   25.4630 C   0  0  0  0  0  0  0  0  0  0  0  0
    4.4960   -3.1640   25.2570 O   0  0  0  0  0  0  0  0  0  0  0  0
    6.3450   -3.1100   26.6780 N   0  0  0  0  0  0  0  0  0  0  0  0
    6.2310   -3.9910   27.8000 C   0  0  0  0  0  0  0  0  0  0  0  0
    5.2750   -3.6440   28.7650 C   0  0  0  0  0  0  0  0  0  0  0  0
    3.9540   -3.5610   28.4430 C   0  0  0  0  0  0  0  0  0  0  0  0
    3.8520   -2.1960   28.8730 N   0  0  0  0  0  0  0  0  0  0  0  0
    2.9280   -2.0420   29.9300 C   0  0  0  0  0  0  0  0  0  0  0  0
    1.5740   -1.8450   29.7050 O   0  0  0  0  0  0  0  0  0  0  0  0
    3.4350   -2.0880   31.3410 C   0  0  0  0  0  0  0  0  0  0  0  0
    4.3660   -1.1200   31.7420 O   0  0  0  0  0  0  0  0  0  0  0  0
    4.5160   -0.7750   33.1120 C   0  0  0  0  0  0  0  0  0  0  0  0
    5.2560   -2.3430   29.1880 C   0  0  0  0  0  0  0  0  0  0  0  0
    7.1440   -2.7870   23.5280 C   0  0  0  0  0  0  0  0  0  0  0  0
    7.6380   -3.1200   22.1080 C   0  0  0  0  0  0  0  0  0  0  0  0
  1  2  1  0
  2  3  2  0
  2  4  1  0
  4  5  1  0
  5  6  1  0
  6  7  1  0
  7  8  1  0
  8  9  2  0
  8 10  1  0
 10 11  1  0
 11 12  1  0
 12 13  1  0
 13 14  1  0
 14 15  1  0
 15 16  2  0
 15 17  1  0
 17 18  1  0
 18 19  1  0
 12 20  1  0
 14 20  1  0
  7 21  1  0
  4 22  1  0
 21 22  1  0
M  END
