piperidine-amides-29113-covalent
     RDKit          3D

 27 29  0  0  0  0  0  0  0  0999 V2000
    7.1240   -3.9910   19.7110 C   0  0  0  0  0  0  0  0  0  0  0  0
    5.8690   -3.9400   20.3340 C   0  0  0  0  0  0  0  0  0  0  0  0
    4.9080   -4.0410   19.5770 O   0  0  0  0  0  0  0  0  0  0  0  0
    5.8160   -3.8730   21.7220 N   0  0  0  0  0  0  0  0  0  0  0  0
    6.4320   -2.6770   22.2140 C   0  0  0  0  0  0  0  0  0  0  0  0
    6.7270   -2.7850   23.6680 C   0  0  0  0  0  0  0  0  0  0  0  0
    5.5580   -3.5080   24.2570 C   0  0  0  0  0  0  0  0  0  0  0  0
    5.4360   -3.2620   25.7230 C   0  0  0  0  0  0  0  0  0  0  0  0
    4.2860   -3.2980   26.1580 O   0  0  0  0  0  0  0  0  0  0  0  0
    6.5770   -3.0020   26.4770 N   0  0  0  0  0  0  0  0  0  0  0  0
    7.3680   -4.0370   27.0560 C   0  0  0  0  0  0  0  0  0  0  0  0
    8.2560   -4.5770   26.1370 C   0  0  0  0  0  0  0  0  0  0  0  0
    8.5010   -3.7470   25.0650 C   0  0  0  0  0  0  0  0  0  0  0  0
    8.8870   -2.4170   25.2660 C   0  0  0  0  0  0  0  0  0  0  0  0
    9.1540   -1.5290   24.0610 C   0  0  0  0  0  0  0  0  0  0  0  0
    9.0040   -2.0380   22.6250 C   0  0  0  0  0  0  0  0  0  0  0  0
    8.5870   -3.4250   22.5270 C   0  0  0  0  0  0  0  0  0  0  0  0
    8.3640   -4.2000   23.7830 C   0  0  0  0  0  0  0  0  0  0  0  0
    6.5650   -1.7540   27.2350 C   0  0  0  0  0  0  0  0  0  0  0  0
    5.9610   -0.5950   26.7420 C   0  0  0  0  0  0  0  0  0  0  0  0
    5.8670    0.6440   27.3530 C   0  0  0  0  0  0  0  0  0  0  0  0
    6.4660    0.8280   28.7090 C   0  0  0  0  0  0  0  0  0  0  0  0
    6.3570    2.0800   29.3070 O   0  0  0  0  0  0  0  0  0  0  0  0
    7.1250   -0.3760   29.2750 C   0  0  0  0  0  0  0  0  0  0  0  0
    7.1510   -1.6620   28.4900 C   0  0  0  0  0  0  0  0  0  0  0  0
    5.6390   -4.9760   23.9220 C   0  0  0  0  0  0  0  0  0  0  0  0
    6.0570   -5.1080   22.4600 C   0  0  0  0  0  0  0  0  0  0  0  0
  1  2  1  0
  2  3  2  0
  2  4  1  0
  4  5  1  0
  5  6  1  0
  6  7  1  0
  7  8  1  0
  8  9  2  0
  8 10  1  0
 10 11  1  0
 11 12  1  0
 12 13  1  0
 13 14  2  0
 14 15  1  0
 15 16  2  0
 16 17  1  0
 13 18  1  0
 17 18  2  0
 10 19  1  0
 19 20  2  0
 20 21  1  0
 21 22  2  0
 22 23  1  0
 22 24  1  0
 19 25  1  0
 24 25  2  0
  7 26  1  0
  4 27  1  0
 26 27  1  0
M  END
