piperidine-amides-2786-covalent
     RDKit          3D

 24 26  0  0  0  0  0  0  0  0999 V2000
    7.0880   -3.3170   19.2770 C   0  0  0  0  0  0  0  0  0  0  0  0
    6.3150   -4.0460   20.2730 C   0  0  0  0  0  0  0  0  0  0  0  0
    5.2930   -4.6340   19.9230 O   0  0  0  0  0  0  0  0  0  0  0  0
    6.7700   -4.1290   21.6400 N   0  0  0  0  0  0  0  0  0  0  0  0
    6.6230   -5.3770   22.3460 C   0  0  0  0  0  0  0  0  0  0  0  0
    6.0510   -5.1140   23.7090 C   0  0  0  0  0  0  0  0  0  0  0  0
    6.1050   -3.6130   23.9150 C   0  0  0  0  0  0  0  0  0  0  0  0
    5.6310   -3.2460   25.2820 C   0  0  0  0  0  0  0  0  0  0  0  0
    4.4160   -3.2130   25.5550 O   0  0  0  0  0  0  0  0  0  0  0  0
    6.5520   -2.9310   26.3060 N   0  0  0  0  0  0  0  0  0  0  0  0
    6.2660   -3.4160   27.6430 C   0  0  0  0  0  0  0  0  0  0  0  0
    6.0940   -2.2210   28.5600 C   0  0  0  0  0  0  0  0  0  0  0  0
    7.1730   -1.6720   29.2670 C   0  0  0  0  0  0  0  0  0  0  0  0
    7.0300   -0.5690   30.1240 C   0  0  0  0  0  0  0  0  0  0  0  0
    5.7890   -0.0190   30.2640 C   0  0  0  0  0  0  0  0  0  0  0  0
    4.7310   -0.5790   29.5510 C   0  0  0  0  0  0  0  0  0  0  0  0
    4.8360   -1.6520   28.7100 C   0  0  0  0  0  0  0  0  0  0  0  0
    3.6310    0.1650   29.8790 C   0  0  0  0  0  0  0  0  0  0  0  0
    4.0480    1.1880   30.8030 C   0  0  0  0  0  0  0  0  0  0  0  0
    3.1410    2.0840   31.2870 O   0  0  0  0  0  0  0  0  0  0  0  0
    5.3730    1.0560   31.0330 N   0  0  0  0  0  0  0  0  0  0  0  0
    5.6860    1.1640   32.3480 C   0  0  0  0  0  0  0  0  0  0  0  0
    7.4640   -3.0430   23.5680 C   0  0  0  0  0  0  0  0  0  0  0  0
    7.6380   -3.1040   22.1830 C   0  0  0  0  0  0  0  0  0  0  0  0
  1  2  1  0
  2  3  2  0
  2  4  1  0
  4  5  1  0
  5  6  1  0
  6  7  1  0
  7  8  1  0
  8  9  2  0
  8 10  1  0
 10 11  1  0
 11 12  1  0
 12 13  2  0
 13 14  1  0
 14 15  2  0
 15 16  1  0
 12 17  1  0
 16 17  2  0
 16 18  1  0
 18 19  1  0
 19 20  2  0
 15 21  1  0
 19 21  1  0
 21 22  1  0
  7 23  1  0
  4 24  1  0
 23 24  1  0
M  END
