piperidine-amides-4594-covalent
     RDKit          3D

 24 25  0  0  0  0  0  0  0  0999 V2000
    7.1620   -3.3190   19.2960 C   0  0  0  0  0  0  0  0  0  0  0  0
    6.4100   -4.0990   20.3000 C   0  0  0  0  0  0  0  0  0  0  0  0
    5.3260   -4.5890   19.9130 O   0  0  0  0  0  0  0  0  0  0  0  0
    6.9370   -4.3140   21.5870 N   0  0  0  0  0  0  0  0  0  0  0  0
    6.5220   -5.4130   22.3800 C   0  0  0  0  0  0  0  0  0  0  0  0
    6.1790   -4.9820   23.7360 C   0  0  0  0  0  0  0  0  0  0  0  0
    5.9430   -3.5210   23.8490 C   0  0  0  0  0  0  0  0  0  0  0  0
    5.6510   -3.1300   25.2490 C   0  0  0  0  0  0  0  0  0  0  0  0
    4.4520   -3.0440   25.5720 O   0  0  0  0  0  0  0  0  0  0  0  0
    6.6520   -2.8550   26.1980 N   0  0  0  0  0  0  0  0  0  0  0  0
    6.3850   -3.0170   27.6430 C   0  0  0  0  0  0  0  0  0  0  0  0
    5.7640   -4.3340   27.9130 C   0  0  0  0  0  0  0  0  0  0  0  0
    5.9480   -5.5070   27.1090 C   0  0  0  0  0  0  0  0  0  0  0  0
    5.3520   -6.6830   27.4130 C   0  0  0  0  0  0  0  0  0  0  0  0
    4.5440   -6.8050   28.5180 C   0  0  0  0  0  0  0  0  0  0  0  0
    3.9800   -7.9920   28.7800 F   0  0  0  0  0  0  0  0  0  0  0  0
    4.3270   -5.7290   29.3250 C   0  0  0  0  0  0  0  0  0  0  0  0
    3.2150   -6.2560   30.6920 S   0  0  0  0  0  0  0  0  0  0  0  0
    3.0330   -7.9480   30.7250 N   0  0  0  0  0  0  0  0  0  0  0  0
    3.8650   -5.8580   31.9590 O   0  0  0  0  0  0  0  0  0  0  0  0
    1.8840   -5.6280   30.5000 O   0  0  0  0  0  0  0  0  0  0  0  0
    4.8630   -4.4760   29.1240 C   0  0  0  0  0  0  0  0  0  0  0  0
    6.9190   -2.6220   23.1760 C   0  0  0  0  0  0  0  0  0  0  0  0
    7.7240   -3.2980   22.2550 C   0  0  0  0  0  0  0  0  0  0  0  0
  1  2  1  0
  2  3  2  0
  2  4  1  0
  4  5  1  0
  5  6  1  0
  6  7  1  0
  7  8  1  0
  8  9  2  0
  8 10  1  0
 10 11  1  0
 11 12  1  0
 12 13  2  0
 13 14  1  0
 14 15  2  0
 15 16  1  0
 15 17  1  0
 17 18  1  0
 18 19  1  0
 18 20  2  0
 18 21  2  0
 12 22  1  0
 17 22  2  0
  7 23  1  0
  4 24  1  0
 23 24  1  0
M  END
