piperidine-amides-33765-covalent
     RDKit          3D

 26 28  0  0  0  0  0  0  0  0999 V2000
    7.0610   -3.3580   19.3370 C   0  0  0  0  0  0  0  0  0  0  0  0
    6.4060   -4.1990   20.3520 C   0  0  0  0  0  0  0  0  0  0  0  0
    5.3780   -4.8180   19.9790 O   0  0  0  0  0  0  0  0  0  0  0  0
    6.9460   -4.3350   21.6590 N   0  0  0  0  0  0  0  0  0  0  0  0
    6.5780   -5.4860   22.4230 C   0  0  0  0  0  0  0  0  0  0  0  0
    5.9340   -5.1340   23.6800 C   0  0  0  0  0  0  0  0  0  0  0  0
    5.9440   -3.6860   23.9000 C   0  0  0  0  0  0  0  0  0  0  0  0
    5.4540   -3.2820   25.2630 C   0  0  0  0  0  0  0  0  0  0  0  0
    4.2380   -3.0520   25.3930 O   0  0  0  0  0  0  0  0  0  0  0  0
    6.2720   -3.1350   26.3980 N   0  0  0  0  0  0  0  0  0  0  0  0
    6.7610   -4.2560   27.1410 C   0  0  0  0  0  0  0  0  0  0  0  0
    5.9040   -5.3250   27.6400 C   0  0  0  0  0  0  0  0  0  0  0  0
    4.8670   -5.7450   26.6440 C   0  0  0  0  0  0  0  0  0  0  0  0
    3.9600   -6.7240   26.8910 C   0  0  0  0  0  0  0  0  0  0  0  0
    3.9820   -7.4500   28.2580 C   0  0  0  0  0  0  0  0  0  0  0  0
    5.0290   -7.0520   29.2930 C   0  0  0  0  0  0  0  0  0  0  0  0
    6.0410   -5.9240   28.9550 C   0  0  0  0  0  0  0  0  0  0  0  0
    6.3680   -1.9050   27.1530 C   0  0  0  0  0  0  0  0  0  0  0  0
    5.8100   -0.6010   26.6260 C   0  0  0  0  0  0  0  0  0  0  0  0
    5.8780    0.7050   27.4090 C   0  0  0  0  0  0  0  0  0  0  0  0
    6.5420    0.5730   28.7320 C   0  0  0  0  0  0  0  0  0  0  0  0
    6.7050    2.1060   29.8580 Br  0  0  0  0  0  0  0  0  0  0  0  0
    7.0500   -0.6710   29.1640 C   0  0  0  0  0  0  0  0  0  0  0  0
    6.9670   -1.8440   28.4140 C   0  0  0  0  0  0  0  0  0  0  0  0
    7.2950   -3.1350   23.6280 C   0  0  0  0  0  0  0  0  0  0  0  0
    7.6750   -3.2470   22.2900 C   0  0  0  0  0  0  0  0  0  0  0  0
  1  2  1  0
  2  3  2  0
  2  4  1  0
  4  5  1  0
  5  6  1  0
  6  7  1  0
  7  8  1  0
  8  9  2  0
  8 10  1  0
 10 11  1  0
 11 12  1  0
 12 13  2  0
 13 14  1  0
 14 15  2  0
 15 16  1  0
 12 17  1  0
 16 17  2  0
 10 18  1  0
 18 19  2  0
 19 20  1  0
 20 21  2  0
 21 22  1  0
 21 23  1  0
 18 24  1  0
 23 24  2  0
  7 25  1  0
  4 26  1  0
 25 26  1  0
M  END
