piperidine-amides-8187-covalent
     RDKit          3D

 25 27  0  0  0  0  0  0  0  0999 V2000
    7.0910   -3.2540   19.1860 C   0  0  0  0  0  0  0  0  0  0  0  0
    6.3360   -4.0150   20.1840 C   0  0  0  0  0  0  0  0  0  0  0  0
    5.2490   -4.5120   19.8560 O   0  0  0  0  0  0  0  0  0  0  0  0
    6.8710   -4.2120   21.4700 N   0  0  0  0  0  0  0  0  0  0  0  0
    7.5480   -3.1160   22.0940 C   0  0  0  0  0  0  0  0  0  0  0  0
    7.3560   -3.2020   23.5720 C   0  0  0  0  0  0  0  0  0  0  0  0
    5.9210   -3.6230   23.8150 C   0  0  0  0  0  0  0  0  0  0  0  0
    5.5440   -3.4190   25.2490 C   0  0  0  0  0  0  0  0  0  0  0  0
    4.4500   -2.8920   25.4480 O   0  0  0  0  0  0  0  0  0  0  0  0
    6.4300   -3.8300   26.2430 N   0  0  0  0  0  0  0  0  0  0  0  0
    7.3050   -4.9370   26.0620 C   0  0  0  0  0  0  0  0  0  0  0  0
    8.3970   -5.0180   26.9380 C   0  0  2  0  0  0  0  0  0  0  0  0
    8.2710   -4.2800   28.0710 C   0  0  0  0  0  0  0  0  0  0  0  0
    7.8640   -2.9720   27.9300 C   0  0  0  0  0  0  0  0  0  0  0  0
    8.5720   -2.5290   26.6630 C   0  0  0  0  0  0  0  0  0  0  0  0
    9.5760   -3.2950   26.1460 N   0  0  0  0  0  0  0  0  0  0  0  0
   10.5130   -2.7750   25.3150 C   0  0  0  0  0  0  0  0  0  0  0  0
   10.0990   -1.8440   24.4600 N   0  0  0  0  0  0  0  0  0  0  0  0
   11.1390   -1.3380   23.6390 C   0  0  0  0  0  0  0  0  0  0  0  0
   12.5720   -1.7430   23.6600 C   0  0  0  0  0  0  0  0  0  0  0  0
   12.8410   -2.8350   24.7170 C   0  0  0  0  0  0  0  0  0  0  0  0
   11.8380   -3.3200   25.4980 N   0  0  0  0  0  0  0  0  0  0  0  0
    9.6180   -4.7130   26.3540 C   0  0  0  0  0  0  0  0  0  0  0  0
    5.7960   -5.0790   23.4580 C   0  0  0  0  0  0  0  0  0  0  0  0
    6.4750   -5.4160   22.1610 C   0  0  0  0  0  0  0  0  0  0  0  0
  1  2  1  0
  2  3  2  0
  2  4  1  0
  4  5  1  0
  5  6  1  0
  6  7  1  0
  7  8  1  0
  8  9  2  0
  8 10  1  0
 10 11  1  0
 12 11  1  6
 12 13  1  0
 13 14  1  0
 14 15  1  0
 15 16  1  0
 16 17  1  0
 17 18  2  0
 18 19  1  0
 19 20  2  0
 20 21  1  0
 17 22  1  0
 21 22  2  0
 12 23  1  0
 16 23  1  0
  7 24  1  0
  4 25  1  0
 24 25  1  0
M  END
