piperidine-amides-28715-covalent
     RDKit          3D

 25 27  0  0  0  0  0  0  0  0999 V2000
    6.9300   -3.3810   19.4710 C   0  0  0  0  0  0  0  0  0  0  0  0
    6.3250   -4.2890   20.4550 C   0  0  0  0  0  0  0  0  0  0  0  0
    5.4310   -5.0420   20.0200 O   0  0  0  0  0  0  0  0  0  0  0  0
    6.7430   -4.3290   21.8290 N   0  0  0  0  0  0  0  0  0  0  0  0
    6.4600   -5.5250   22.5950 C   0  0  0  0  0  0  0  0  0  0  0  0
    5.9940   -5.2210   24.0150 C   0  0  0  0  0  0  0  0  0  0  0  0
    5.8240   -3.7220   24.1470 C   0  0  0  0  0  0  0  0  0  0  0  0
    5.1020   -3.1790   25.4110 C   0  0  0  0  0  0  0  0  0  0  0  0
    4.4510   -2.1780   25.1640 O   0  0  0  0  0  0  0  0  0  0  0  0
    5.1470   -3.7270   26.7320 N   0  0  0  0  0  0  0  0  0  0  0  0
    6.3120   -4.3220   27.0520 C   0  0  0  0  0  0  0  0  0  0  0  0
    6.6350   -4.9360   28.2920 C   0  0  0  0  0  0  0  0  0  0  0  0
    5.7020   -5.3930   29.1320 C   0  0  0  0  0  0  0  0  0  0  0  0
    4.4040   -4.9120   28.9010 N   0  0  0  0  0  0  0  0  0  0  0  0
    3.5160   -6.0090   29.0030 C   0  0  0  0  0  0  0  0  0  0  0  0
    2.5550   -6.2170   27.8910 C   0  0  0  0  0  0  0  0  0  0  0  0
    1.5290   -7.3660   27.8580 C   0  0  0  0  0  0  0  0  0  0  0  0
    1.4930   -8.3220   29.0010 C   0  0  0  0  0  0  0  0  0  0  0  0
    2.4920   -8.0640   30.1060 C   0  0  0  0  0  0  0  0  0  0  0  0
    3.5060   -6.8890   30.0850 C   0  0  0  0  0  0  0  0  0  0  0  0
    4.6420   -6.6590   31.4120 Cl  0  0  0  0  0  0  0  0  0  0  0  0
    3.8570   -3.6260   28.5950 C   0  0  0  0  0  0  0  0  0  0  0  0
    4.7030   -2.8750   27.7950 C   0  0  0  0  0  0  0  0  0  0  0  0
    7.1090   -3.0100   23.8580 C   0  0  0  0  0  0  0  0  0  0  0  0
    7.5300   -3.2690   22.4300 C   0  0  0  0  0  0  0  0  0  0  0  0
  1  2  1  0
  2  3  2  0
  2  4  1  0
  4  5  1  0
  5  6  1  0
  6  7  1  0
  7  8  1  0
  8  9  2  0
  8 10  1  0
 10 11  1  0
 11 12  1  0
 12 13  1  0
 13 14  1  0
 14 15  1  0
 15 16  2  0
 16 17  1  0
 17 18  2  0
 18 19  1  0
 15 20  1  0
 19 20  2  0
 20 21  1  0
 14 22  1  0
 10 23  1  0
 22 23  1  0
  7 24  1  0
  4 25  1  0
 24 25  1  0
M  END
