piperidine-amides-25509-covalent
     RDKit          3D

 24 26  0  0  0  0  0  0  0  0999 V2000
    7.0600   -3.3330   19.3090 C   0  0  0  0  0  0  0  0  0  0  0  0
    6.3860   -4.1920   20.3200 C   0  0  0  0  0  0  0  0  0  0  0  0
    5.3720   -4.7920   19.9630 O   0  0  0  0  0  0  0  0  0  0  0  0
    6.9320   -4.3260   21.5970 N   0  0  0  0  0  0  0  0  0  0  0  0
    6.6540   -5.4650   22.4450 C   0  0  0  0  0  0  0  0  0  0  0  0
    5.9360   -5.0220   23.6960 C   0  0  0  0  0  0  0  0  0  0  0  0
    6.6370   -3.7920   24.2780 C   0  0  0  0  0  0  0  0  0  0  0  0
    5.8290   -3.2980   25.4000 C   0  0  0  0  0  0  0  0  0  0  0  0
    4.6240   -3.0610   25.2370 O   0  0  0  0  0  0  0  0  0  0  0  0
    6.4250   -3.1020   26.6540 N   0  0  0  0  0  0  0  0  0  0  0  0
    6.6290   -4.2880   27.4620 C   0  0  0  0  0  0  0  0  0  0  0  0
    6.4070   -1.7960   27.2530 C   0  0  0  0  0  0  0  0  0  0  0  0
    5.8660   -0.6140   26.6930 C   0  0  0  0  0  0  0  0  0  0  0  0
    5.8350    0.6350   27.2720 C   0  0  0  0  0  0  0  0  0  0  0  0
    6.3560    0.8140   28.4900 C   0  0  0  0  0  0  0  0  0  0  0  0
    6.5560    1.9210   29.5110 C   0  0  0  0  0  0  0  0  0  0  0  0
    5.4160    2.7270   29.5860 N   0  0  0  0  0  0  0  0  0  0  0  0
    5.6230    3.6910   30.4940 C   0  0  0  0  0  0  0  0  0  0  0  0
    6.8950    3.7280   31.1890 C   0  0  0  0  0  0  0  0  0  0  0  0
    7.8630    2.4840   30.6620 S   0  0  0  0  0  0  0  0  0  0  0  0
    6.9690   -0.3030   29.2190 C   0  0  0  0  0  0  0  0  0  0  0  0
    7.0240   -1.6500   28.6370 C   0  0  0  0  0  0  0  0  0  0  0  0
    6.9240   -2.7290   23.2990 C   0  0  0  0  0  0  0  0  0  0  0  0
    7.7150   -3.2510   22.1720 C   0  0  0  0  0  0  0  0  0  0  0  0
  1  2  1  0
  2  3  2  0
  2  4  1  0
  4  5  1  0
  5  6  1  0
  6  7  1  0
  7  8  1  0
  8  9  2  0
  8 10  1  0
 10 11  1  0
 10 12  1  0
 12 13  2  0
 13 14  1  0
 14 15  2  0
 15 16  1  0
 16 17  2  0
 17 18  1  0
 18 19  2  0
 16 20  1  0
 19 20  1  0
 15 21  1  0
 12 22  1  0
 21 22  2  0
  7 23  1  0
  4 24  1  0
 23 24  1  0
M  END
