piperidine-amides-17026-covalent
     RDKit          3D

 20 21  0  0  0  0  0  0  0  0999 V2000
    7.0960   -3.2970   19.2940 C   0  0  0  0  0  0  0  0  0  0  0  0
    6.3770   -4.0940   20.3050 C   0  0  0  0  0  0  0  0  0  0  0  0
    5.3210   -4.6570   19.9280 O   0  0  0  0  0  0  0  0  0  0  0  0
    6.8780   -4.2650   21.6250 N   0  0  0  0  0  0  0  0  0  0  0  0
    7.6520   -3.2200   22.2120 C   0  0  0  0  0  0  0  0  0  0  0  0
    7.3900   -3.0510   23.6330 C   0  0  0  0  0  0  0  0  0  0  0  0
    6.1570   -3.7300   24.0520 C   0  0  0  0  0  0  0  0  0  0  0  0
    5.7390   -3.3610   25.4460 C   0  0  0  0  0  0  0  0  0  0  0  0
    4.5110   -3.3320   25.7080 O   0  0  0  0  0  0  0  0  0  0  0  0
    6.6640   -3.0130   26.4660 N   0  0  0  0  0  0  0  0  0  0  0  0
    7.8750   -3.6850   26.7840 C   0  0  0  0  0  0  0  0  0  0  0  0
    7.9700   -5.1340   26.9500 C   0  0  0  0  0  0  0  0  0  0  0  0
    6.3230   -1.9180   27.3590 C   0  0  1  0  0  0  0  0  0  0  0  0
    7.2820   -1.6090   28.3180 C   0  0  0  0  0  0  0  0  0  0  0  0
    6.5210   -0.3310   28.7610 C   0  0  0  0  0  0  0  0  0  0  0  0
    5.7720    0.1890   27.6490 N   0  0  0  0  0  0  0  0  0  0  0  0
    6.1470    1.5950   27.4450 C   0  0  0  0  0  0  0  0  0  0  0  0
    5.8110   -0.7210   26.6970 C   0  0  0  0  0  0  0  0  0  0  0  0
    6.1770   -5.2230   23.8210 C   0  0  0  0  0  0  0  0  0  0  0  0
    6.6060   -5.4770   22.3770 C   0  0  0  0  0  0  0  0  0  0  0  0
  1  2  1  0
  2  3  2  0
  2  4  1  0
  4  5  1  0
  5  6  1  0
  6  7  1  0
  7  8  1  0
  8  9  2  0
  8 10  1  0
 10 11  1  0
 11 12  1  0
 13 10  1  6
 13 14  1  0
 14 15  1  0
 15 16  1  0
 16 17  1  0
 13 18  1  0
 16 18  1  0
  7 19  1  0
  4 20  1  0
 19 20  1  0
M  END
