piperidine-amides-32314-covalent
     RDKit          3D

 24 25  0  0  0  0  0  0  0  0999 V2000
    7.1210   -3.2460   19.1680 C   0  0  0  0  0  0  0  0  0  0  0  0
    6.3260   -4.0010   20.1810 C   0  0  0  0  0  0  0  0  0  0  0  0
    5.2510   -4.5220   19.8600 O   0  0  0  0  0  0  0  0  0  0  0  0
    6.8440   -4.1470   21.4760 N   0  0  0  0  0  0  0  0  0  0  0  0
    7.7100   -3.1640   22.0850 C   0  0  0  0  0  0  0  0  0  0  0  0
    6.9980   -2.6490   23.3260 C   0  0  0  0  0  0  0  0  0  0  0  0
    6.8070   -3.8430   24.1890 C   0  0  0  0  0  0  0  0  0  0  0  0
    6.2670   -3.5090   25.5140 C   0  0  0  0  0  0  0  0  0  0  0  0
    5.0460   -3.2900   25.5900 O   0  0  0  0  0  0  0  0  0  0  0  0
    7.1580   -3.4590   26.5940 N   0  0  0  0  0  0  0  0  0  0  0  0
    7.4240   -2.2640   27.3100 C   0  0  0  0  0  0  0  0  0  0  0  0
    6.6440   -1.1420   27.2180 C   0  0  0  0  0  0  0  0  0  0  0  0
    6.2270   -0.7220   25.9280 C   0  0  0  0  0  0  0  0  0  0  0  0
    5.4470    0.3910   25.6830 C   0  0  0  0  0  0  0  0  0  0  0  0
    4.9950    1.2250   26.8110 C   0  0  0  0  0  0  0  0  0  0  0  0
    3.9050    2.7840   26.5100 Br  0  0  0  0  0  0  0  0  0  0  0  0
    5.3950    0.8460   28.2210 C   0  0  0  0  0  0  0  0  0  0  0  0
    6.2550   -0.4080   28.3030 C   0  0  0  0  0  0  0  0  0  0  0  0
    7.7250   -4.7240   26.9640 C   0  0  0  0  0  0  0  0  0  0  0  0
    6.8100   -5.7760   27.4530 C   0  0  0  0  0  0  0  0  0  0  0  0
    8.7510   -5.0950   26.0770 C   0  0  0  0  0  0  0  0  0  0  0  0
    8.2940   -4.7440   28.3740 C   0  0  0  0  0  0  0  0  0  0  0  0
    5.9540   -4.9070   23.5820 C   0  0  0  0  0  0  0  0  0  0  0  0
    6.5080   -5.3340   22.2480 C   0  0  0  0  0  0  0  0  0  0  0  0
  1  2  1  0
  2  3  2  0
  2  4  1  0
  4  5  1  0
  5  6  1  0
  6  7  1  0
  7  8  1  0
  8  9  2  0
  8 10  1  0
 10 11  1  0
 11 12  1  0
 12 13  2  0
 13 14  1  0
 14 15  2  0
 15 16  1  0
 15 17  1  0
 12 18  1  0
 17 18  2  0
 19 10  1  0
 19 20  1  0
 19 21  1  0
 19 22  1  0
  7 23  1  0
  4 24  1  0
 23 24  1  0
M  END
