piperidine-amides-13209-covalent
     RDKit          3D

 19 19  0  0  0  0  0  0  0  0999 V2000
    7.1590   -3.2990   19.2770 C   0  0  0  0  0  0  0  0  0  0  0  0
    6.3940   -4.0540   20.2900 C   0  0  0  0  0  0  0  0  0  0  0  0
    5.3240   -4.5700   19.9070 O   0  0  0  0  0  0  0  0  0  0  0  0
    6.9030   -4.2130   21.5890 N   0  0  0  0  0  0  0  0  0  0  0  0
    6.5180   -5.3260   22.3940 C   0  0  0  0  0  0  0  0  0  0  0  0
    6.0020   -4.9240   23.7040 C   0  0  0  0  0  0  0  0  0  0  0  0
    6.0890   -3.4660   23.9360 C   0  0  0  0  0  0  0  0  0  0  0  0
    5.6310   -3.0790   25.2930 C   0  0  0  0  0  0  0  0  0  0  0  0
    4.5930   -2.4020   25.3740 O   0  0  0  0  0  0  0  0  0  0  0  0
    6.3030   -3.4570   26.4660 N   0  0  0  0  0  0  0  0  0  0  0  0
    5.7520   -4.5310   27.3170 C   0  0  1  0  0  0  0  0  0  0  0  0
    5.8680   -5.8710   26.6910 C   0  0  0  0  0  0  0  0  0  0  0  0
    6.2780   -4.5760   28.6850 C   0  0  0  0  0  0  0  0  0  0  0  0
    5.6040   -5.3790   29.5670 C   0  0  1  0  0  0  0  0  0  0  0  0
    4.3330   -5.0150   29.9520 C   0  0  0  0  0  0  0  0  0  0  0  0
    5.5000   -6.7860   29.1380 C   0  0  0  0  0  0  0  0  0  0  0  0
    5.7030   -7.6930   30.1290 C   0  0  0  0  0  0  0  0  0  0  0  0
    7.3720   -2.8760   23.5120 C   0  0  0  0  0  0  0  0  0  0  0  0
    7.7110   -3.1640   22.1890 C   0  0  0  0  0  0  0  0  0  0  0  0
  1  2  1  0
  2  3  2  0
  2  4  1  0
  4  5  1  0
  5  6  1  0
  6  7  1  0
  7  8  1  0
  8  9  2  0
  8 10  1  0
 10 11  1  0
 11 12  1  6
 11 13  1  0
 13 14  1  0
 14 15  1  6
 14 16  1  0
 16 17  1  0
  7 18  1  0
  4 19  1  0
 18 19  1  0
M  END
