piperidine-amides-283-covalent
     RDKit          3D

 29 31  0  0  0  0  0  0  0  0999 V2000
    7.0670   -3.3850   19.3180 C   0  0  0  0  0  0  0  0  0  0  0  0
    6.3600   -4.1130   20.3430 C   0  0  0  0  0  0  0  0  0  0  0  0
    5.3540   -4.7920   19.9750 O   0  0  0  0  0  0  0  0  0  0  0  0
    6.7630   -4.1450   21.6940 N   0  0  0  0  0  0  0  0  0  0  0  0
    6.6920   -5.4520   22.3740 C   0  0  0  0  0  0  0  0  0  0  0  0
    5.7050   -5.0820   23.5400 C   0  0  0  0  0  0  0  0  0  0  0  0
    6.1710   -3.7500   24.0990 C   0  0  0  0  0  0  0  0  0  0  0  0
    5.8480   -3.7330   25.6590 C   0  0  0  0  0  0  0  0  0  0  0  0
    5.4010   -4.8090   25.9920 O   0  0  0  0  0  0  0  0  0  0  0  0
    6.0930   -2.6010   26.1750 N   0  0  0  0  0  0  0  0  0  0  0  0
    6.1830   -1.3880   26.7760 C   0  0  0  0  0  0  0  0  0  0  0  0
    5.8520   -0.0740   26.4840 C   0  0  0  0  0  0  0  0  0  0  0  0
    6.0650    1.0270   27.3540 C   0  0  0  0  0  0  0  0  0  0  0  0
    6.6670    0.8920   28.6770 C   0  0  0  0  0  0  0  0  0  0  0  0
    7.0590   -0.4820   29.0960 C   0  0  0  0  0  0  0  0  0  0  0  0
    6.8170   -1.5110   28.1820 C   0  0  0  0  0  0  0  0  0  0  0  0
    7.6290   -0.4230   30.4260 N   0  0  0  0  0  0  0  0  0  0  0  0
    7.5680    1.0100   30.7690 C   0  0  0  0  0  0  0  0  0  0  0  0
    8.0250    1.7200   32.0500 C   0  0  0  0  0  0  0  0  0  0  0  0
    8.6630    1.0050   32.9970 F   0  0  0  0  0  0  0  0  0  0  0  0
    6.8980    2.2260   32.7510 F   0  0  0  0  0  0  0  0  0  0  0  0
    8.8620    2.7500   31.6710 F   0  0  0  0  0  0  0  0  0  0  0  0
    6.9730    1.7350   29.6500 N   0  0  0  0  0  0  0  0  0  0  0  0
    6.7860    3.1620   29.6780 C   0  0  1  0  0  0  0  0  0  0  0  0
    6.3100    3.9570   30.6910 C   0  0  0  0  0  0  0  0  0  0  0  0
    7.8970    3.8760   29.0180 C   0  0  0  0  0  0  0  0  0  0  0  0
    7.9920    3.7100   27.6740 C   0  0  0  0  0  0  0  0  0  0  0  0
    7.5180   -3.2540   23.6790 C   0  0  0  0  0  0  0  0  0  0  0  0
    7.5820   -3.1200   22.2890 C   0  0  0  0  0  0  0  0  0  0  0  0
  1  2  1  0
  2  3  2  0
  2  4  1  0
  4  5  1  0
  5  6  1  0
  6  7  1  0
  7  8  1  0
  8  9  2  0
  8 10  1  0
 10 11  1  0
 11 12  2  0
 12 13  1  0
 13 14  2  0
 14 15  1  0
 11 16  1  0
 15 16  2  0
 15 17  1  0
 17 18  2  0
 18 19  1  0
 19 20  1  0
 19 21  1  0
 19 22  1  0
 14 23  1  0
 18 23  1  0
 23 24  1  0
 24 25  1  1
 24 26  1  0
 26 27  1  0
  7 28  1  0
  4 29  1  0
 28 29  1  0
M  END
