piperidine-amides-334-covalent
     RDKit          3D

 28 30  0  0  0  0  0  0  0  0999 V2000
    7.1150   -3.3010   19.4080 C   0  0  0  0  0  0  0  0  0  0  0  0
    6.3850   -4.0970   20.3750 C   0  0  0  0  0  0  0  0  0  0  0  0
    5.4000   -4.7940   19.9650 O   0  0  0  0  0  0  0  0  0  0  0  0
    6.7410   -4.1600   21.7380 N   0  0  0  0  0  0  0  0  0  0  0  0
    7.6980   -3.0950   22.1900 C   0  0  0  0  0  0  0  0  0  0  0  0
    7.5170   -3.0490   23.7580 C   0  0  0  0  0  0  0  0  0  0  0  0
    6.2710   -3.8390   24.0100 C   0  0  0  0  0  0  0  0  0  0  0  0
    5.4340   -3.4790   25.3150 C   0  0  0  0  0  0  0  0  0  0  0  0
    4.3700   -4.0780   25.2780 O   0  0  0  0  0  0  0  0  0  0  0  0
    6.0020   -2.6560   26.1030 N   0  0  0  0  0  0  0  0  0  0  0  0
    6.3220   -1.7470   27.0600 C   0  0  0  0  0  0  0  0  0  0  0  0
    6.9930   -1.6160   28.2760 C   0  0  0  0  0  0  0  0  0  0  0  0
    7.1440   -0.4660   29.1070 C   0  0  0  0  0  0  0  0  0  0  0  0
    6.6080    0.8830   28.8620 C   0  0  0  0  0  0  0  0  0  0  0  0
    6.7840    1.9690   29.7120 O   0  0  0  0  0  0  0  0  0  0  0  0
    7.1920    1.4710   30.9400 C   0  0  0  0  0  0  0  0  0  0  0  0
    5.8810    0.7390   27.5440 C   0  0  0  0  0  0  0  0  0  0  0  0
    5.0470    2.2100   26.8840 S   0  0  0  0  0  0  0  0  0  0  0  0
    4.6140    1.9520   25.4770 O   0  0  0  0  0  0  0  0  0  0  0  0
    3.7950    2.3880   27.6900 O   0  0  0  0  0  0  0  0  0  0  0  0
    5.9540    3.7050   27.0010 N   0  0  0  0  0  0  0  0  0  0  0  0
    7.2660    3.6950   26.3300 C   0  0  0  0  0  0  0  0  0  0  0  0
    8.2390    4.2960   27.3500 C   0  0  0  0  0  0  0  0  0  0  0  0
    7.4320    4.4960   28.6520 C   0  0  0  0  0  0  0  0  0  0  0  0
    6.1590    4.1460   28.3530 C   0  0  0  0  0  0  0  0  0  0  0  0
    5.7560   -0.3670   26.7730 C   0  0  0  0  0  0  0  0  0  0  0  0
    6.4230   -5.3240   23.7470 C   0  0  0  0  0  0  0  0  0  0  0  0
    6.6860   -5.4410   22.4070 C   0  0  0  0  0  0  0  0  0  0  0  0
  1  2  1  0
  2  3  2  0
  2  4  1  0
  4  5  1  0
  5  6  1  0
  6  7  1  0
  7  8  1  0
  8  9  2  0
  8 10  1  0
 10 11  1  0
 11 12  2  0
 12 13  1  0
 13 14  2  0
 14 15  1  0
 15 16  1  0
 14 17  1  0
 18 17  1  0
 18 19  2  0
 18 20  2  0
 18 21  1  0
 21 22  1  0
 22 23  1  0
 23 24  1  0
 21 25  1  0
 24 25  1  0
 11 26  1  0
 17 26  2  0
  7 27  1  0
  4 28  1  0
 27 28  1  0
M  END
