piperidine-amides-29859-covalent
     RDKit          3D

 27 30  0  0  0  0  0  0  0  0999 V2000
    6.9600   -3.3990   19.3800 C   0  0  0  0  0  0  0  0  0  0  0  0
    6.3130   -4.2870   20.3480 C   0  0  0  0  0  0  0  0  0  0  0  0
    5.3540   -4.9610   19.9930 O   0  0  0  0  0  0  0  0  0  0  0  0
    6.8070   -4.4100   21.6930 N   0  0  0  0  0  0  0  0  0  0  0  0
    7.5950   -3.3470   22.2660 C   0  0  0  0  0  0  0  0  0  0  0  0
    7.2940   -3.2460   23.7200 C   0  0  0  0  0  0  0  0  0  0  0  0
    5.8940   -3.7200   23.9110 C   0  0  0  0  0  0  0  0  0  0  0  0
    5.3190   -3.1890   25.1960 C   0  0  0  0  0  0  0  0  0  0  0  0
    4.6900   -2.1210   25.1800 O   0  0  0  0  0  0  0  0  0  0  0  0
    5.4220   -3.8110   26.4710 N   0  0  0  0  0  0  0  0  0  0  0  0
    4.2950   -3.5630   27.3190 C   0  0  0  0  0  0  0  0  0  0  0  0
    4.7390   -4.0560   28.6560 C   0  0  0  0  0  0  0  0  0  0  0  0
    5.6580   -5.0130   28.7170 N   0  0  0  0  0  0  0  0  0  0  0  0
    5.5310   -6.1300   29.6230 C   0  0  0  0  0  0  0  0  0  0  0  0
    4.5260   -6.4570   30.5660 C   0  0  0  0  0  0  0  0  0  0  0  0
    3.3140   -5.7560   30.4670 O   0  0  0  0  0  0  0  0  0  0  0  0
    4.8090   -7.4190   31.4900 N   0  0  0  0  0  0  0  0  0  0  0  0
    4.5200   -7.2790   32.7800 C   0  0  0  0  0  0  0  0  0  0  0  0
    5.2920   -7.0100   33.7660 C   0  0  0  0  0  0  0  0  0  0  0  0
    5.0860   -8.3600   33.6940 C   0  0  0  0  0  0  0  0  0  0  0  0
    6.6130   -6.9590   29.4610 C   0  0  0  0  0  0  0  0  0  0  0  0
    6.3690   -5.8460   28.8250 C   0  0  0  0  0  0  0  0  0  0  0  0
    6.8180   -4.9790   27.8710 C   0  0  0  0  0  0  0  0  0  0  0  0
    6.6450   -3.8060   27.1240 C   0  0  2  0  0  0  0  0  0  0  0  0
    6.6730   -2.6230   27.8870 C   0  0  0  0  0  0  0  0  0  0  0  0
    5.8840   -5.2200   23.7960 C   0  0  0  0  0  0  0  0  0  0  0  0
    6.5870   -5.6190   22.4730 C   0  0  0  0  0  0  0  0  0  0  0  0
  1  2  1  0
  2  3  2  0
  2  4  1  0
  4  5  1  0
  5  6  1  0
  6  7  1  0
  7  8  1  0
  8  9  2  0
  8 10  1  0
 10 11  1  0
 11 12  1  0
 12 13  1  0
 13 14  1  0
 14 15  1  0
 15 16  2  0
 15 17  1  0
 17 18  1  0
 18 19  1  0
 18 20  1  0
 19 20  1  0
 14 21  2  0
 21 22  1  0
 13 23  1  0
 22 23  2  0
 10 24  1  0
 23 24  1  0
 24 25  1  1
  7 26  1  0
  4 27  1  0
 26 27  1  0
M  END
