piperidine-amides-4771-covalent
     RDKit          3D

 24 25  0  0  0  0  0  0  0  0999 V2000
    7.0770   -3.2870   19.1990 C   0  0  0  0  0  0  0  0  0  0  0  0
    6.3420   -4.0420   20.2440 C   0  0  0  0  0  0  0  0  0  0  0  0
    5.2690   -4.5630   19.8870 O   0  0  0  0  0  0  0  0  0  0  0  0
    6.8580   -4.2040   21.5430 N   0  0  0  0  0  0  0  0  0  0  0  0
    7.6390   -3.1750   22.1510 C   0  0  0  0  0  0  0  0  0  0  0  0
    7.2710   -2.8750   23.5350 C   0  0  0  0  0  0  0  0  0  0  0  0
    6.0390   -3.5460   23.9960 C   0  0  0  0  0  0  0  0  0  0  0  0
    5.7740   -3.2740   25.4370 C   0  0  0  0  0  0  0  0  0  0  0  0
    4.5840   -3.2190   25.7940 O   0  0  0  0  0  0  0  0  0  0  0  0
    6.8180   -3.0550   26.3680 N   0  0  0  0  0  0  0  0  0  0  0  0
    6.9600   -3.7670   27.6710 C   0  0  2  0  0  0  0  0  0  0  0  0
    8.1390   -4.6480   27.5860 C   0  0  0  0  0  0  0  0  0  0  0  0
    8.4520   -5.3930   28.5470 O   0  0  0  0  0  0  0  0  0  0  0  0
    8.9330   -4.7070   26.4850 O   0  0  0  0  0  0  0  0  0  0  0  0
    9.4450   -5.9220   26.0620 C   0  0  0  0  0  0  0  0  0  0  0  0
    5.7740   -4.5660   27.8770 C   0  0  0  0  0  0  0  0  0  0  0  0
    4.5580   -3.9720   28.1790 C   0  0  0  0  0  0  0  0  0  0  0  0
    3.4570   -4.7520   28.3750 C   0  0  0  0  0  0  0  0  0  0  0  0
    3.5220   -6.1110   28.2800 C   0  0  0  0  0  0  0  0  0  0  0  0
    1.9200   -7.1190   28.5710 Br  0  0  0  0  0  0  0  0  0  0  0  0
    4.6960   -6.7300   27.9850 C   0  0  0  0  0  0  0  0  0  0  0  0
    5.8260   -5.9430   27.7830 C   0  0  0  0  0  0  0  0  0  0  0  0
    5.9380   -4.9950   23.6670 C   0  0  0  0  0  0  0  0  0  0  0  0
    6.5860   -5.3850   22.3570 C   0  0  0  0  0  0  0  0  0  0  0  0
  1  2  1  0
  2  3  2  0
  2  4  1  0
  4  5  1  0
  5  6  1  0
  6  7  1  0
  7  8  1  0
  8  9  2  0
  8 10  1  0
 11 10  1  6
 11 12  1  0
 12 13  2  0
 12 14  1  0
 14 15  1  0
 11 16  1  0
 16 17  2  0
 17 18  1  0
 18 19  2  0
 19 20  1  0
 19 21  1  0
 16 22  1  0
 21 22  2  0
  7 23  1  0
  4 24  1  0
 23 24  1  0
M  END
