piperidine-amides-33137-covalent
     RDKit          3D

 27 28  0  0  0  0  0  0  0  0999 V2000
    7.0640   -3.3260   19.2690 C   0  0  0  0  0  0  0  0  0  0  0  0
    6.3740   -4.1190   20.3020 C   0  0  0  0  0  0  0  0  0  0  0  0
    5.3340   -4.7190   19.9460 O   0  0  0  0  0  0  0  0  0  0  0  0
    6.8880   -4.2490   21.6180 N   0  0  0  0  0  0  0  0  0  0  0  0
    7.6870   -3.2070   22.1800 C   0  0  0  0  0  0  0  0  0  0  0  0
    7.4100   -2.9650   23.5810 C   0  0  0  0  0  0  0  0  0  0  0  0
    6.2230   -3.6960   24.0500 C   0  0  0  0  0  0  0  0  0  0  0  0
    5.8240   -3.3720   25.4590 C   0  0  0  0  0  0  0  0  0  0  0  0
    4.5940   -3.3250   25.7250 O   0  0  0  0  0  0  0  0  0  0  0  0
    6.7730   -3.0940   26.4850 N   0  0  0  0  0  0  0  0  0  0  0  0
    7.5190   -4.0850   27.2080 C   0  0  0  0  0  0  0  0  0  0  0  0
    8.4470   -5.0090   26.5540 C   0  0  0  0  0  0  0  0  0  0  0  0
    6.6560   -1.8120   27.1810 C   0  0  0  0  0  0  0  0  0  0  0  0
    5.9170   -0.8150   26.4900 C   0  0  0  0  0  0  0  0  0  0  0  0
    5.7370    0.5770   27.1860 C   0  0  0  0  0  0  0  0  0  0  0  0
    6.4040    0.6110   28.5110 C   0  0  0  0  0  0  0  0  0  0  0  0
    6.2610    2.1240   29.3770 S   0  0  0  0  0  0  0  0  0  0  0  0
    4.8750    2.3330   29.9150 O   0  0  0  0  0  0  0  0  0  0  0  0
    7.2470    2.1580   30.4890 O   0  0  0  0  0  0  0  0  0  0  0  0
    6.5760    3.5090   28.2790 C   0  0  0  0  0  0  0  0  0  0  0  0
    7.8330    4.0010   28.4840 F   0  0  0  0  0  0  0  0  0  0  0  0
    6.4470    3.1020   26.9590 F   0  0  0  0  0  0  0  0  0  0  0  0
    5.6020    4.4660   28.5390 F   0  0  0  0  0  0  0  0  0  0  0  0
    7.1190   -0.3970   29.1390 C   0  0  0  0  0  0  0  0  0  0  0  0
    7.2680   -1.7030   28.4410 C   0  0  0  0  0  0  0  0  0  0  0  0
    6.3930   -5.2070   23.8370 C   0  0  0  0  0  0  0  0  0  0  0  0
    6.4900   -5.4600   22.3670 C   0  0  0  0  0  0  0  0  0  0  0  0
  1  2  1  0
  2  3  2  0
  2  4  1  0
  4  5  1  0
  5  6  1  0
  6  7  1  0
  7  8  1  0
  8  9  2  0
  8 10  1  0
 10 11  1  0
 11 12  1  0
 10 13  1  0
 13 14  2  0
 14 15  1  0
 15 16  2  0
 17 16  1  0
 17 18  2  0
 17 19  2  0
 17 20  1  0
 20 21  1  0
 20 22  1  0
 20 23  1  0
 16 24  1  0
 13 25  1  0
 24 25  2  0
  7 26  1  0
  4 27  1  0
 26 27  1  0
M  END
