piperidine-amides-30984-covalent
     RDKit          3D

 26 28  0  0  0  0  0  0  0  0999 V2000
    6.9960   -3.3800   19.4660 C   0  0  0  0  0  0  0  0  0  0  0  0
    6.3550   -4.2820   20.4310 C   0  0  0  0  0  0  0  0  0  0  0  0
    5.4150   -4.9830   20.0150 O   0  0  0  0  0  0  0  0  0  0  0  0
    6.7840   -4.4160   21.7840 N   0  0  0  0  0  0  0  0  0  0  0  0
    6.6410   -5.6540   22.5230 C   0  0  0  0  0  0  0  0  0  0  0  0
    6.0660   -5.2780   23.8720 C   0  0  0  0  0  0  0  0  0  0  0  0
    6.0450   -3.7920   24.0240 C   0  0  0  0  0  0  0  0  0  0  0  0
    5.5090   -3.2240   25.3200 C   0  0  0  0  0  0  0  0  0  0  0  0
    5.1060   -2.0320   25.3130 O   0  0  0  0  0  0  0  0  0  0  0  0
    5.3520   -3.8700   26.5930 N   0  0  0  0  0  0  0  0  0  0  0  0
    4.0810   -3.7560   27.3180 C   0  0  0  0  0  0  0  0  0  0  0  0
    4.3630   -3.4910   28.7640 C   0  0  0  0  0  0  0  0  0  0  0  0
    5.0330   -4.5480   29.5410 C   0  0  0  0  0  0  0  0  0  0  0  0
    5.4780   -5.6650   28.7790 N   0  0  0  0  0  0  0  0  0  0  0  0
    5.5910   -6.7700   29.7730 C   0  0  0  0  0  0  0  0  0  0  0  0
    4.3180   -7.2470   30.4370 C   0  0  0  0  0  0  0  0  0  0  0  0
    3.0740   -7.2810   29.9070 N   0  0  0  0  0  0  0  0  0  0  0  0
    2.2540   -7.7720   30.8220 C   0  0  0  0  0  0  0  0  0  0  0  0
    2.9510   -8.0580   31.9450 C   0  0  0  0  0  0  0  0  0  0  0  0
    2.1590   -8.7270   33.3550 Cl  0  0  0  0  0  0  0  0  0  0  0  0
    4.2390   -7.7270   31.6970 N   0  0  0  0  0  0  0  0  0  0  0  0
    5.2580   -7.9250   32.7380 C   0  0  0  0  0  0  0  0  0  0  0  0
    6.5320   -5.2330   28.1350 C   0  0  0  0  0  0  0  0  0  0  0  0
    6.3940   -3.8020   27.5520 C   0  0  0  0  0  0  0  0  0  0  0  0
    7.4450   -3.3000   23.6060 C   0  0  0  0  0  0  0  0  0  0  0  0
    7.4740   -3.2550   22.3850 C   0  0  0  0  0  0  0  0  0  0  0  0
  1  2  1  0
  2  3  2  0
  2  4  1  0
  4  5  1  0
  5  6  1  0
  6  7  1  0
  7  8  1  0
  8  9  2  0
  8 10  1  0
 10 11  1  0
 11 12  1  0
 12 13  1  0
 13 14  1  0
 14 15  1  0
 15 16  1  0
 16 17  2  0
 17 18  1  0
 18 19  2  0
 19 20  1  0
 16 21  1  0
 19 21  1  0
 21 22  1  0
 14 23  1  0
 10 24  1  0
 23 24  1  0
  7 25  1  0
  4 26  1  0
 25 26  1  0
M  END
