piperidine-amides-8726-covalent
     RDKit          3D

 23 24  0  0  0  0  0  0  0  0999 V2000
    7.1210   -3.2780   19.2470 C   0  0  0  0  0  0  0  0  0  0  0  0
    6.4060   -4.0750   20.2420 C   0  0  0  0  0  0  0  0  0  0  0  0
    5.3250   -4.5920   19.9100 O   0  0  0  0  0  0  0  0  0  0  0  0
    6.9730   -4.2970   21.5230 N   0  0  0  0  0  0  0  0  0  0  0  0
    7.6500   -3.2090   22.1670 C   0  0  0  0  0  0  0  0  0  0  0  0
    6.7590   -2.6540   23.2370 C   0  0  0  0  0  0  0  0  0  0  0  0
    6.5400   -3.7460   24.2580 C   0  0  0  0  0  0  0  0  0  0  0  0
    5.7350   -3.2060   25.4010 C   0  0  0  0  0  0  0  0  0  0  0  0
    4.5290   -3.0990   25.2040 O   0  0  0  0  0  0  0  0  0  0  0  0
    6.3940   -2.8670   26.5820 N   0  0  0  0  0  0  0  0  0  0  0  0
    6.2320   -3.6130   27.7920 C   0  0  0  0  0  0  0  0  0  0  0  0
    5.0180   -3.4150   28.4730 C   0  0  0  0  0  0  0  0  0  0  0  0
    4.1920   -4.5000   28.7630 C   0  0  0  0  0  0  0  0  0  0  0  0
    4.6030   -5.7350   28.3610 F   0  0  0  0  0  0  0  0  0  0  0  0
    2.9610   -4.4740   29.4340 C   0  0  0  0  0  0  0  0  0  0  0  0
    2.2500   -5.6040   29.6580 F   0  0  0  0  0  0  0  0  0  0  0  0
    2.5670   -3.0910   29.8480 C   0  0  0  0  0  0  0  0  0  0  0  0
    3.4340   -1.8680   29.5530 C   0  0  0  0  0  0  0  0  0  0  0  0
    3.0160   -0.6000   29.9640 F   0  0  0  0  0  0  0  0  0  0  0  0
    4.6930   -2.1200   28.8360 C   0  0  0  0  0  0  0  0  0  0  0  0
    5.5410   -1.1130   28.5250 F   0  0  0  0  0  0  0  0  0  0  0  0
    5.9110   -4.9520   23.6440 C   0  0  0  0  0  0  0  0  0  0  0  0
    6.4650   -5.4030   22.2790 C   0  0  0  0  0  0  0  0  0  0  0  0
  1  2  1  0
  2  3  2  0
  2  4  1  0
  4  5  1  0
  5  6  1  0
  6  7  1  0
  7  8  1  0
  8  9  2  0
  8 10  1  0
 10 11  1  0
 11 12  1  0
 12 13  2  0
 13 14  1  0
 13 15  1  0
 15 16  1  0
 15 17  2  0
 17 18  1  0
 18 19  1  0
 12 20  1  0
 18 20  2  0
 20 21  1  0
  7 22  1  0
  4 23  1  0
 22 23  1  0
M  END
