piperidine-amides-18886-covalent
     RDKit          3D

 21 21  0  0  0  0  0  0  0  0999 V2000
    7.0910   -3.3450   19.2220 C   0  0  0  0  0  0  0  0  0  0  0  0
    6.3850   -4.0480   20.2660 C   0  0  0  0  0  0  0  0  0  0  0  0
    5.3220   -4.6600   19.9350 O   0  0  0  0  0  0  0  0  0  0  0  0
    6.8510   -4.1240   21.5960 N   0  0  0  0  0  0  0  0  0  0  0  0
    6.6940   -5.4070   22.2840 C   0  0  0  0  0  0  0  0  0  0  0  0
    5.6200   -4.9370   23.3140 C   0  0  0  0  0  0  0  0  0  0  0  0
    6.2220   -3.8160   24.1540 C   0  0  0  0  0  0  0  0  0  0  0  0
    4.9980   -3.3330   25.0420 C   0  0  0  0  0  0  0  0  0  0  0  0
    4.0300   -3.1300   24.3320 O   0  0  0  0  0  0  0  0  0  0  0  0
    5.3020   -3.2660   26.2650 N   0  0  0  0  0  0  0  0  0  0  0  0
    5.3000   -2.7880   27.5400 C   0  0  0  0  0  0  0  0  0  0  0  0
    4.3980   -2.5790   28.5450 C   0  0  0  0  0  0  0  0  0  0  0  0
    4.9940   -1.8290   29.5890 C   0  0  0  0  0  0  0  0  0  0  0  0
    6.2220   -4.3800   26.6540 C   0  0  2  0  0  0  0  0  0  0  0  0
    5.5430   -5.7490   26.7880 C   0  0  0  0  0  0  0  0  0  0  0  0
    6.0910   -4.9490   28.0770 C   0  0  0  0  0  0  0  0  0  0  0  0
    4.9010   -5.0280   28.4580 O   0  0  0  0  0  0  0  0  0  0  0  0
    7.2190   -5.3280   28.7790 O   0  0  0  0  0  0  0  0  0  0  0  0
    8.2230   -6.0200   28.1780 C   0  0  0  0  0  0  0  0  0  0  0  0
    7.0690   -2.7760   23.5900 C   0  0  0  0  0  0  0  0  0  0  0  0
    7.7020   -3.2060   22.2260 C   0  0  0  0  0  0  0  0  0  0  0  0
  1  2  1  0
  2  3  2  0
  2  4  1  0
  4  5  1  0
  5  6  1  0
  6  7  1  0
  7  8  1  0
  8  9  2  0
  8 10  1  0
 10 11  1  0
 11 12  1  0
 12 13  1  0
 10 14  1  0
 14 15  1  6
 14 16  1  0
 16 17  2  0
 16 18  1  0
 18 19  1  0
  7 20  1  0
  4 21  1  0
 20 21  1  0
M  END
