piperidine-amides-32844-covalent
     RDKit          3D

 29 31  0  0  0  0  0  0  0  0999 V2000
    7.1250   -3.3170   19.2990 C   0  0  0  0  0  0  0  0  0  0  0  0
    6.4100   -4.1720   20.2800 C   0  0  0  0  0  0  0  0  0  0  0  0
    5.3380   -4.7070   19.9440 O   0  0  0  0  0  0  0  0  0  0  0  0
    6.9920   -4.4150   21.5400 N   0  0  0  0  0  0  0  0  0  0  0  0
    6.7920   -5.6930   22.1880 C   0  0  0  0  0  0  0  0  0  0  0  0
    6.1950   -5.4240   23.5640 C   0  0  0  0  0  0  0  0  0  0  0  0
    6.0060   -3.9620   23.6510 C   0  0  0  0  0  0  0  0  0  0  0  0
    5.4440   -3.5040   24.9180 C   0  0  0  0  0  0  0  0  0  0  0  0
    4.5020   -2.7120   24.8430 O   0  0  0  0  0  0  0  0  0  0  0  0
    5.9320   -3.9380   26.1250 N   0  0  0  0  0  0  0  0  0  0  0  0
    6.2690   -2.9760   27.0470 C   0  0  0  0  0  0  0  0  0  0  0  0
    6.6870   -1.7650   26.6920 C   0  0  0  0  0  0  0  0  0  0  0  0
    6.9760   -0.8640   27.6520 C   0  0  0  0  0  0  0  0  0  0  0  0
    6.8640   -1.1680   28.9610 C   0  0  0  0  0  0  0  0  0  0  0  0
    6.4220   -2.4420   29.6200 C   0  0  0  0  0  0  0  0  0  0  0  0
    6.1370   -3.2970   28.3940 C   0  0  0  0  0  0  0  0  0  0  0  0
    5.6520   -4.5660   28.8810 N   0  0  0  0  0  0  0  0  0  0  0  0
    4.3630   -4.5950   29.4860 C   0  0  0  0  0  0  0  0  0  0  0  0
    3.5000   -3.5280   29.2910 O   0  0  0  0  0  0  0  0  0  0  0  0
    3.8960   -5.6320   30.2740 O   0  0  0  0  0  0  0  0  0  0  0  0
    2.9650   -6.5380   29.7480 C   0  0  0  0  0  0  0  0  0  0  0  0
    2.8960   -7.7110   30.6490 C   0  0  0  0  0  0  0  0  0  0  0  0
    1.7880   -6.0660   29.1530 C   0  0  0  0  0  0  0  0  0  0  0  0
    3.6810   -7.4510   28.7500 C   0  0  0  0  0  0  0  0  0  0  0  0
    5.9040   -5.4960   27.9030 C   0  0  0  0  0  0  0  0  0  0  0  0
    5.0960   -4.9610   26.7660 C   0  0  2  0  0  0  0  0  0  0  0  0
    4.5630   -5.9260   25.7100 C   0  0  0  0  0  0  0  0  0  0  0  0
    7.2800   -3.1870   23.4580 C   0  0  0  0  0  0  0  0  0  0  0  0
    7.7040   -3.3310   22.1640 C   0  0  0  0  0  0  0  0  0  0  0  0
  1  2  1  0
  2  3  2  0
  2  4  1  0
  4  5  1  0
  5  6  1  0
  6  7  1  0
  7  8  1  0
  8  9  2  0
  8 10  1  0
 10 11  1  0
 11 12  2  0
 12 13  1  0
 13 14  2  0
 14 15  1  0
 11 16  1  0
 15 16  2  0
 16 17  1  0
 17 18  1  0
 18 19  2  0
 18 20  1  0
 21 20  1  0
 21 22  1  0
 21 23  1  0
 21 24  1  0
 17 25  1  0
 10 26  1  0
 25 26  1  0
 26 27  1  6
  7 28  1  0
  4 29  1  0
 28 29  1  0
M  END
