piperidine-amides-12989-covalent
     RDKit          3D

 21 22  0  0  0  0  0  0  0  0999 V2000
    7.1060   -3.3530   19.3390 C   0  0  0  0  0  0  0  0  0  0  0  0
    6.3820   -4.1660   20.3350 C   0  0  0  0  0  0  0  0  0  0  0  0
    5.3360   -4.7240   19.9500 O   0  0  0  0  0  0  0  0  0  0  0  0
    6.9040   -4.3240   21.6270 N   0  0  0  0  0  0  0  0  0  0  0  0
    6.5830   -5.4670   22.4160 C   0  0  0  0  0  0  0  0  0  0  0  0
    6.0670   -5.1050   23.7350 C   0  0  0  0  0  0  0  0  0  0  0  0
    6.1370   -3.6530   24.0040 C   0  0  0  0  0  0  0  0  0  0  0  0
    5.7780   -3.3570   25.4080 C   0  0  0  0  0  0  0  0  0  0  0  0
    4.6790   -3.7720   25.8250 O   0  0  0  0  0  0  0  0  0  0  0  0
    6.6300   -2.6200   26.2460 N   0  0  0  0  0  0  0  0  0  0  0  0
    6.1340   -1.5690   27.1640 C   0  0  1  0  0  0  0  0  0  0  0  0
    7.0360   -1.4420   28.3360 C   0  0  0  0  0  0  0  0  0  0  0  0
    6.6880   -0.4520   29.3310 C   0  0  0  0  0  0  0  0  0  0  0  0
    5.7700    0.3290   28.9080 O   0  0  0  0  0  0  0  0  0  0  0  0
    5.8970    0.6300   27.5410 C   0  0  0  0  0  0  0  0  0  0  0  0
    5.8520   -0.2940   26.4990 C   0  0  2  0  0  0  0  0  0  0  0  0
    4.8030   -0.2310   25.5730 O   0  0  0  0  0  0  0  0  0  0  0  0
    3.4800   -0.4130   26.0560 C   0  0  0  0  0  0  0  0  0  0  0  0
    2.9740   -1.6380   25.7300 C   0  0  0  0  0  0  0  0  0  0  0  0
    7.3870   -2.9950   23.5530 C   0  0  0  0  0  0  0  0  0  0  0  0
    7.6840   -3.2550   22.2160 C   0  0  0  0  0  0  0  0  0  0  0  0
  1  2  1  0
  2  3  2  0
  2  4  1  0
  4  5  1  0
  5  6  1  0
  6  7  1  0
  7  8  1  0
  8  9  2  0
  8 10  1  0
 11 10  1  6
 11 12  1  0
 12 13  1  0
 13 14  1  0
 14 15  1  0
 11 16  1  0
 15 16  1  0
 16 17  1  1
 17 18  1  0
 18 19  1  0
  7 20  1  0
  4 21  1  0
 20 21  1  0
M  END
