piperidine-amides-4458-covalent
     RDKit          3D

 25 27  0  0  0  0  0  0  0  0999 V2000
    7.0630   -3.3370   19.3850 C   0  0  0  0  0  0  0  0  0  0  0  0
    6.3950   -4.1880   20.3870 C   0  0  0  0  0  0  0  0  0  0  0  0
    5.3890   -4.8270   19.9840 O   0  0  0  0  0  0  0  0  0  0  0  0
    6.8810   -4.3300   21.7240 N   0  0  0  0  0  0  0  0  0  0  0  0
    6.4290   -5.4160   22.5070 C   0  0  0  0  0  0  0  0  0  0  0  0
    6.0990   -5.0670   23.8960 C   0  0  0  0  0  0  0  0  0  0  0  0
    6.5020   -3.7230   24.3990 C   0  0  0  0  0  0  0  0  0  0  0  0
    5.3810   -3.1470   25.2400 C   0  0  0  0  0  0  0  0  0  0  0  0
    4.2250   -3.1820   24.7870 O   0  0  0  0  0  0  0  0  0  0  0  0
    5.5560   -2.5610   26.5200 N   0  0  0  0  0  0  0  0  0  0  0  0
    5.8200   -1.1930   26.8490 C   0  0  0  0  0  0  0  0  0  0  0  0
    5.9810   -0.1170   25.9270 C   0  0  0  0  0  0  0  0  0  0  0  0
    6.2270    1.1200   26.1760 N   0  0  0  0  0  0  0  0  0  0  0  0
    6.3740    1.5180   27.5090 C   0  0  0  0  0  0  0  0  0  0  0  0
    6.2540    0.6390   28.5570 C   0  0  0  0  0  0  0  0  0  0  0  0
    5.9430   -0.8880   28.4070 C   0  0  0  0  0  0  0  0  0  0  0  0
    5.8030   -1.7740   29.4900 N   0  0  0  0  0  0  0  0  0  0  0  0
    5.6680   -1.1780   30.6950 C   0  0  0  0  0  0  0  0  0  0  0  0
    7.0250   -0.5280   30.9940 C   0  0  0  0  0  0  0  0  0  0  0  0
    7.1890    0.2220   32.2780 C   0  0  0  0  0  0  0  0  0  0  0  0
    5.9860    0.2790   33.1900 C   0  0  0  0  0  0  0  0  0  0  0  0
    4.6360   -0.3860   32.8570 C   0  0  0  0  0  0  0  0  0  0  0  0
    4.5730   -1.1130   31.5460 C   0  0  0  0  0  0  0  0  0  0  0  0
    6.8880   -2.7190   23.3470 C   0  0  0  0  0  0  0  0  0  0  0  0
    7.6700   -3.3240   22.3770 C   0  0  0  0  0  0  0  0  0  0  0  0
  1  2  1  0
  2  3  2  0
  2  4  1  0
  4  5  1  0
  5  6  1  0
  6  7  1  0
  7  8  1  0
  8  9  2  0
  8 10  1  0
 10 11  1  0
 11 12  2  0
 12 13  1  0
 13 14  2  0
 14 15  1  0
 11 16  1  0
 15 16  2  0
 16 17  1  0
 17 18  1  0
 18 19  2  0
 19 20  1  0
 20 21  2  0
 21 22  1  0
 18 23  1  0
 22 23  2  0
  7 24  1  0
  4 25  1  0
 24 25  1  0
M  END
