piperidine-amides-13350-covalent
     RDKit          3D

 26 27  0  0  0  0  0  0  0  0999 V2000
    7.1070   -3.2540   19.2030 C   0  0  0  0  0  0  0  0  0  0  0  0
    6.3420   -4.0080   20.2220 C   0  0  0  0  0  0  0  0  0  0  0  0
    5.2610   -4.5050   19.8590 O   0  0  0  0  0  0  0  0  0  0  0  0
    6.8410   -4.1990   21.5180 N   0  0  0  0  0  0  0  0  0  0  0  0
    7.5880   -3.1610   22.1580 C   0  0  0  0  0  0  0  0  0  0  0  0
    7.1360   -2.8110   23.5080 C   0  0  0  0  0  0  0  0  0  0  0  0
    6.4670   -3.8970   24.2580 C   0  0  0  0  0  0  0  0  0  0  0  0
    5.6980   -3.3600   25.4180 C   0  0  0  0  0  0  0  0  0  0  0  0
    4.4610   -3.2800   25.3040 O   0  0  0  0  0  0  0  0  0  0  0  0
    6.3310   -2.9360   26.6170 N   0  0  0  0  0  0  0  0  0  0  0  0
    6.1430   -3.5750   27.9530 C   0  0  1  0  0  0  0  0  0  0  0  0
    5.1810   -2.9110   28.7990 C   0  0  0  0  0  0  0  0  0  0  0  0
    4.7030   -4.2250   29.0610 C   0  0  1  0  0  0  0  0  0  0  0  0
    3.4380   -4.3170   28.9200 O   0  0  0  0  0  0  0  0  0  0  0  0
    2.7380   -4.3910   30.1340 C   0  0  0  0  0  0  0  0  0  0  0  0
    1.3740   -4.5650   30.0320 C   0  0  0  0  0  0  0  0  0  0  0  0
    3.0760   -5.5870   30.9630 C   0  0  0  0  0  0  0  0  0  0  0  0
    3.0560   -3.3900   31.0230 C   0  0  0  0  0  0  0  0  0  0  0  0
    5.6080   -4.9060   28.1940 C   0  0  2  0  0  0  0  0  0  0  0  0
    6.3450   -5.8480   28.9300 C   0  0  0  0  0  0  0  0  0  0  0  0
    5.7180   -6.7020   29.9780 C   0  0  0  0  0  0  0  0  0  0  0  0
    4.8500   -7.5190   29.5980 O   0  0  0  0  0  0  0  0  0  0  0  0
    6.0260   -6.6680   31.3390 O   0  0  0  0  0  0  0  0  0  0  0  0
    5.3810   -7.5540   32.2730 C   0  0  0  0  0  0  0  0  0  0  0  0
    5.6240   -4.7780   23.3250 C   0  0  0  0  0  0  0  0  0  0  0  0
    6.4350   -5.3280   22.3140 C   0  0  0  0  0  0  0  0  0  0  0  0
  1  2  1  0
  2  3  2  0
  2  4  1  0
  4  5  1  0
  5  6  1  0
  6  7  1  0
  7  8  1  0
  8  9  2  0
  8 10  1  0
 11 10  1  6
 11 12  1  0
 12 13  1  0
 13 14  1  6
 15 14  1  0
 15 16  1  0
 15 17  1  0
 15 18  1  0
 11 19  1  0
 13 19  1  0
 19 20  1  1
 20 21  1  0
 21 22  2  0
 21 23  1  0
 23 24  1  0
  7 25  1  0
  4 26  1  0
 25 26  1  0
M  END
