piperidine-amides-23792-covalent
     RDKit          3D

 24 26  0  0  0  0  0  0  0  0999 V2000
    7.0750   -3.3470   19.3440 C   0  0  0  0  0  0  0  0  0  0  0  0
    6.4220   -4.2100   20.3430 C   0  0  0  0  0  0  0  0  0  0  0  0
    5.3770   -4.7980   19.9730 O   0  0  0  0  0  0  0  0  0  0  0  0
    6.9820   -4.4100   21.6350 N   0  0  0  0  0  0  0  0  0  0  0  0
    6.5290   -5.5180   22.3970 C   0  0  0  0  0  0  0  0  0  0  0  0
    6.0480   -5.1710   23.7350 C   0  0  0  0  0  0  0  0  0  0  0  0
    6.3850   -3.8220   24.2490 C   0  0  0  0  0  0  0  0  0  0  0  0
    5.2620   -3.3090   25.1190 C   0  0  0  0  0  0  0  0  0  0  0  0
    4.1860   -3.0040   24.5900 O   0  0  0  0  0  0  0  0  0  0  0  0
    5.3760   -3.1620   26.5100 N   0  0  0  0  0  0  0  0  0  0  0  0
    6.5360   -2.9310   27.1640 C   0  0  0  0  0  0  0  0  0  0  0  0
    6.6120   -3.7450   28.3630 C   0  0  0  0  0  0  0  0  0  0  0  0
    5.1040   -3.9200   28.5730 C   0  0  2  0  0  0  0  0  0  0  0  0
    4.5240   -3.6920   29.8040 C   0  0  0  0  0  0  0  0  0  0  0  0
    4.7540   -5.2000   29.3550 C   0  0  0  0  0  0  0  0  0  0  0  0
    3.3550   -4.8440   28.9400 C   0  0  0  0  0  0  0  0  0  0  0  0
    2.4710   -5.9630   29.5550 C   0  0  0  0  0  0  0  0  0  0  0  0
    2.8660   -7.1700   30.3960 C   0  0  0  0  0  0  0  0  0  0  0  0
    1.9150   -8.0530   30.8540 F   0  0  0  0  0  0  0  0  0  0  0  0
    4.3370   -7.3470   30.7010 C   0  0  0  0  0  0  0  0  0  0  0  0
    5.3180   -6.3270   30.1600 C   0  0  0  0  0  0  0  0  0  0  0  0
    4.4270   -3.8140   27.3680 C   0  0  0  0  0  0  0  0  0  0  0  0
    6.7570   -2.8100   23.2120 C   0  0  0  0  0  0  0  0  0  0  0  0
    7.6630   -3.3510   22.3200 C   0  0  0  0  0  0  0  0  0  0  0  0
  1  2  1  0
  2  3  2  0
  2  4  1  0
  4  5  1  0
  5  6  1  0
  6  7  1  0
  7  8  1  0
  8  9  2  0
  8 10  1  0
 10 11  1  0
 11 12  1  0
 12 13  1  0
 13 14  1  1
 13 15  1  0
 15 16  2  0
 16 17  1  0
 17 18  2  0
 18 19  1  0
 18 20  1  0
 15 21  1  0
 20 21  2  0
 10 22  1  0
 13 22  1  0
  7 23  1  0
  4 24  1  0
 23 24  1  0
M  END
