piperidine-amides-24693-covalent
     RDKit          3D

 24 26  0  0  0  0  0  0  0  0999 V2000
    7.0600   -3.3450   19.3220 C   0  0  0  0  0  0  0  0  0  0  0  0
    6.3990   -4.2170   20.3020 C   0  0  0  0  0  0  0  0  0  0  0  0
    5.3630   -4.8380   19.9760 O   0  0  0  0  0  0  0  0  0  0  0  0
    6.9390   -4.4200   21.5830 N   0  0  0  0  0  0  0  0  0  0  0  0
    6.4590   -5.5390   22.3380 C   0  0  0  0  0  0  0  0  0  0  0  0
    5.5520   -4.9190   23.4050 C   0  0  0  0  0  0  0  0  0  0  0  0
    6.4430   -4.0090   24.2260 C   0  0  0  0  0  0  0  0  0  0  0  0
    5.6510   -3.3710   25.3110 C   0  0  0  0  0  0  0  0  0  0  0  0
    4.9000   -2.4340   24.9820 O   0  0  0  0  0  0  0  0  0  0  0  0
    5.7040   -3.7930   26.6660 N   0  0  0  0  0  0  0  0  0  0  0  0
    4.4560   -4.0710   27.3100 C   0  0  0  0  0  0  0  0  0  0  0  0
    4.6770   -4.4580   28.7740 C   0  0  0  0  0  0  0  0  0  0  0  0
    5.8160   -5.0980   29.1290 C   0  0  0  0  0  0  0  0  0  0  0  0
    5.7220   -6.4670   29.1420 C   0  0  0  0  0  0  0  0  0  0  0  0
    4.6750   -6.8510   30.0320 N   0  0  0  0  0  0  0  0  0  0  0  0
    3.5430   -7.5600   29.6320 C   0  0  0  0  0  0  0  0  0  0  0  0
    2.4490   -6.9420   30.2000 C   0  0  0  0  0  0  0  0  0  0  0  0
    2.5510   -6.3830   31.4160 O   0  0  0  0  0  0  0  0  0  0  0  0
    3.6660   -6.3390   32.1690 C   0  0  0  0  0  0  0  0  0  0  0  0
    4.8110   -7.0190   31.4540 C   0  0  0  0  0  0  0  0  0  0  0  0
    6.8180   -4.6180   28.4260 C   0  0  0  0  0  0  0  0  0  0  0  0
    6.4870   -3.3550   27.7630 C   0  0  0  0  0  0  0  0  0  0  0  0
    7.0100   -2.9080   23.3730 C   0  0  0  0  0  0  0  0  0  0  0  0
    7.6230   -3.3490   22.2340 C   0  0  0  0  0  0  0  0  0  0  0  0
  1  2  1  0
  2  3  2  0
  2  4  1  0
  4  5  1  0
  5  6  1  0
  6  7  1  0
  7  8  1  0
  8  9  2  0
  8 10  1  0
 10 11  1  0
 11 12  1  0
 12 13  1  0
 13 14  1  0
 14 15  1  0
 15 16  1  0
 16 17  1  0
 17 18  1  0
 18 19  1  0
 15 20  1  0
 19 20  1  0
 13 21  1  0
 10 22  1  0
 21 22  1  0
  7 23  1  0
  4 24  1  0
 23 24  1  0
M  END
