piperidine-amides-3-covalent
     RDKit          3D

 19 20  0  0  0  0  0  0  0  0999 V2000
    7.2620   -3.3190   19.3360 C   0  0  0  0  0  0  0  0  0  0  0  0
    6.4650   -4.0720   20.2630 C   0  0  0  0  0  0  0  0  0  0  0  0
    5.3380   -4.5290   19.8900 O   0  0  0  0  0  0  0  0  0  0  0  0
    6.9630   -4.3640   21.5430 N   0  0  0  0  0  0  0  0  0  0  0  0
    7.8420   -3.3630   22.1870 C   0  0  0  0  0  0  0  0  0  0  0  0
    6.7640   -2.5830   23.0140 C   0  0  0  0  0  0  0  0  0  0  0  0
    6.2380   -3.6300   23.9520 C   0  0  0  0  0  0  0  0  0  0  0  0
    5.4460   -2.9920   25.1550 C   0  0  0  0  0  0  0  0  0  0  0  0
    4.8760   -1.9550   24.8650 O   0  0  0  0  0  0  0  0  0  0  0  0
    5.6400   -3.7800   26.0970 N   0  0  0  0  0  0  0  0  0  0  0  0
    5.8550   -4.6740   27.0660 C   0  0  0  0  0  0  0  0  0  0  0  0
    6.5900   -5.7550   27.3620 C   0  0  1  0  0  0  0  0  0  0  0  0
    7.9220   -5.6500   27.0280 C   0  0  0  0  0  0  0  0  0  0  0  0
    8.4510   -5.0540   28.2130 C   0  0  1  0  0  0  0  0  0  0  0  0
    8.5050   -3.2860   28.2270 S   0  0  0  0  0  0  0  0  0  0  0  0
    8.0060   -2.5230   26.6910 C   0  0  0  0  0  0  0  0  0  0  0  0
    7.1690   -5.7390   28.7940 C   0  0  0  0  0  0  0  0  0  0  0  0
    5.4330   -4.7230   23.2730 C   0  0  0  0  0  0  0  0  0  0  0  0
    6.3790   -5.4380   22.3170 C   0  0  0  0  0  0  0  0  0  0  0  0
  1  2  1  0
  2  3  2  0
  2  4  1  0
  4  5  1  0
  5  6  1  0
  6  7  1  0
  7  8  1  0
  8  9  2  0
  8 10  1  0
 10 11  1  0
 12 11  1  1
 12 13  1  0
 13 14  1  0
 14 15  1  6
 15 16  1  0
 12 17  1  0
 14 17  1  0
  7 18  1  0
  4 19  1  0
 18 19  1  0
M  END
