piperidine-amides-27355-covalent
     RDKit          3D

 26 29  0  0  0  0  0  0  0  0999 V2000
    6.9660   -3.3940   19.4430 C   0  0  0  0  0  0  0  0  0  0  0  0
    6.3560   -4.2850   20.4410 C   0  0  0  0  0  0  0  0  0  0  0  0
    5.4130   -4.9990   20.0110 O   0  0  0  0  0  0  0  0  0  0  0  0
    6.8320   -4.3480   21.7730 N   0  0  0  0  0  0  0  0  0  0  0  0
    6.7040   -5.5830   22.5390 C   0  0  0  0  0  0  0  0  0  0  0  0
    6.2070   -5.2720   23.9350 C   0  0  0  0  0  0  0  0  0  0  0  0
    6.1700   -3.7890   24.1420 C   0  0  0  0  0  0  0  0  0  0  0  0
    5.7930   -3.2840   25.5100 C   0  0  0  0  0  0  0  0  0  0  0  0
    5.4150   -2.0970   25.5180 O   0  0  0  0  0  0  0  0  0  0  0  0
    5.7170   -3.9260   26.7930 N   0  0  0  0  0  0  0  0  0  0  0  0
    4.6050   -3.4210   27.6010 C   0  0  0  0  0  0  0  0  0  0  0  0
    4.0950   -4.3570   28.7120 C   0  0  0  0  0  0  0  0  0  0  0  0
    5.0700   -5.4090   28.8800 N   0  0  0  0  0  0  0  0  0  0  0  0
    6.2930   -5.1670   28.5350 C   0  0  0  0  0  0  0  0  0  0  0  0
    7.0930   -6.2560   28.7460 N   0  0  0  0  0  0  0  0  0  0  0  0
    6.2030   -7.1150   29.2410 N   0  0  0  0  0  0  0  0  0  0  0  0
    4.8710   -6.6250   29.3550 C   0  0  0  0  0  0  0  0  0  0  0  0
    3.7640   -7.3160   29.8410 C   0  0  0  0  0  0  0  0  0  0  0  0
    2.7410   -7.7540   29.0180 C   0  0  0  0  0  0  0  0  0  0  0  0
    1.6600   -8.4340   29.5330 C   0  0  0  0  0  0  0  0  0  0  0  0
    1.5340   -8.7340   30.9960 C   0  0  0  0  0  0  0  0  0  0  0  0
    2.7100   -8.2080   31.8050 C   0  0  0  0  0  0  0  0  0  0  0  0
    3.6760   -7.5720   31.1680 N   0  0  0  0  0  0  0  0  0  0  0  0
    6.4150   -3.8680   28.0640 C   0  0  0  0  0  0  0  0  0  0  0  0
    7.4740   -3.1860   23.7030 C   0  0  0  0  0  0  0  0  0  0  0  0
    7.6810   -3.2760   22.3380 C   0  0  0  0  0  0  0  0  0  0  0  0
  1  2  1  0
  2  3  2  0
  2  4  1  0
  4  5  1  0
  5  6  1  0
  6  7  1  0
  7  8  1  0
  8  9  2  0
  8 10  1  0
 10 11  1  0
 11 12  1  0
 12 13  1  0
 13 14  1  0
 14 15  2  0
 15 16  1  0
 13 17  1  0
 16 17  2  0
 17 18  1  0
 18 19  2  0
 19 20  1  0
 20 21  2  0
 21 22  1  0
 18 23  1  0
 22 23  2  0
 10 24  1  0
 14 24  1  0
  7 25  1  0
  4 26  1  0
 25 26  1  0
M  END
