piperidine-amides-33385-covalent
     RDKit          3D

 25 27  0  0  0  0  0  0  0  0999 V2000
    7.0260   -3.4110   19.4610 C   0  0  0  0  0  0  0  0  0  0  0  0
    6.3680   -4.2700   20.4590 C   0  0  0  0  0  0  0  0  0  0  0  0
    5.4210   -4.9740   20.0190 O   0  0  0  0  0  0  0  0  0  0  0  0
    6.8080   -4.3270   21.8210 N   0  0  0  0  0  0  0  0  0  0  0  0
    6.4720   -5.4680   22.6120 C   0  0  0  0  0  0  0  0  0  0  0  0
    5.8840   -5.1020   23.9010 C   0  0  0  0  0  0  0  0  0  0  0  0
    5.8910   -3.6370   24.0860 C   0  0  0  0  0  0  0  0  0  0  0  0
    5.1430   -3.0660   25.3080 C   0  0  0  0  0  0  0  0  0  0  0  0
    4.4760   -2.0430   25.1090 O   0  0  0  0  0  0  0  0  0  0  0  0
    5.1070   -3.5790   26.6460 N   0  0  0  0  0  0  0  0  0  0  0  0
    4.3120   -3.2200   27.7490 C   0  0  0  0  0  0  0  0  0  0  0  0
    4.4680   -4.0240   28.9680 C   0  0  0  0  0  0  0  0  0  0  0  0
    5.3700   -5.0110   29.0790 N   0  0  0  0  0  0  0  0  0  0  0  0
    5.3090   -6.1840   29.9220 C   0  0  0  0  0  0  0  0  0  0  0  0
    4.0980   -6.8320   29.8280 C   0  0  0  0  0  0  0  0  0  0  0  0
    3.9960   -7.3440   31.2580 C   0  0  0  0  0  0  0  0  0  0  0  0
    2.7040   -8.1200   31.3740 C   0  0  0  0  0  0  0  0  0  0  0  0
    1.9050   -8.1550   30.0410 C   0  0  0  0  0  0  0  0  0  0  0  0
    0.2620   -9.1180   30.0910 Br  0  0  0  0  0  0  0  0  0  0  0  0
    2.2960   -7.5100   28.7260 C   0  0  0  0  0  0  0  0  0  0  0  0
    3.4500   -6.8340   28.6830 N   0  0  0  0  0  0  0  0  0  0  0  0
    6.4790   -4.8330   28.3860 C   0  0  0  0  0  0  0  0  0  0  0  0
    6.2560   -4.2240   26.9920 C   0  0  0  0  0  0  0  0  0  0  0  0
    7.2870   -3.1390   23.8340 C   0  0  0  0  0  0  0  0  0  0  0  0
    7.5240   -3.2060   22.4360 C   0  0  0  0  0  0  0  0  0  0  0  0
  1  2  1  0
  2  3  2  0
  2  4  1  0
  4  5  1  0
  5  6  1  0
  6  7  1  0
  7  8  1  0
  8  9  2  0
  8 10  1  0
 10 11  1  0
 11 12  1  0
 12 13  1  0
 13 14  1  0
 14 15  1  0
 15 16  2  0
 16 17  1  0
 17 18  2  0
 18 19  1  0
 18 20  1  0
 15 21  1  0
 20 21  2  0
 13 22  1  0
 10 23  1  0
 22 23  1  0
  7 24  1  0
  4 25  1  0
 24 25  1  0
M  END
