piperidine-amides-4838-covalent
     RDKit          3D

 23 24  0  0  0  0  0  0  0  0999 V2000
    7.0940   -3.2760   19.1600 C   0  0  0  0  0  0  0  0  0  0  0  0
    6.3410   -4.0100   20.2050 C   0  0  0  0  0  0  0  0  0  0  0  0
    5.2500   -4.5040   19.8590 O   0  0  0  0  0  0  0  0  0  0  0  0
    6.8550   -4.1960   21.4960 N   0  0  0  0  0  0  0  0  0  0  0  0
    7.6060   -3.1510   22.1090 C   0  0  0  0  0  0  0  0  0  0  0  0
    7.1970   -2.8070   23.4750 C   0  0  0  0  0  0  0  0  0  0  0  0
    6.5010   -3.8720   24.2300 C   0  0  0  0  0  0  0  0  0  0  0  0
    5.7690   -3.2920   25.3890 C   0  0  0  0  0  0  0  0  0  0  0  0
    4.5490   -3.0830   25.2520 O   0  0  0  0  0  0  0  0  0  0  0  0
    6.4110   -2.9700   26.6030 N   0  0  0  0  0  0  0  0  0  0  0  0
    6.2660   -3.7800   27.8430 C   0  0  0  0  0  0  0  0  0  0  0  0
    4.8550   -3.8690   28.3110 C   0  0  0  0  0  0  0  0  0  0  0  0
    4.2800   -2.8080   29.1330 C   0  0  0  0  0  0  0  0  0  0  0  0
    2.9990   -2.7190   29.6590 C   0  0  0  0  0  0  0  0  0  0  0  0
    2.2250   -3.8460   29.2990 N   0  0  0  0  0  0  0  0  0  0  0  0
    2.7780   -4.9060   28.4830 C   0  0  0  0  0  0  0  0  0  0  0  0
    2.0480   -6.0010   28.1250 C   0  0  0  0  0  0  0  0  0  0  0  0
    1.1190   -6.4770   29.0710 O   0  0  0  0  0  0  0  0  0  0  0  0
    2.2360   -6.5910   26.8670 O   0  0  0  0  0  0  0  0  0  0  0  0
    2.9810   -7.7540   27.0170 C   0  0  0  0  0  0  0  0  0  0  0  0
    4.0430   -4.9540   27.9870 C   0  0  0  0  0  0  0  0  0  0  0  0
    5.5980   -4.6960   23.3550 C   0  0  0  0  0  0  0  0  0  0  0  0
    6.4640   -5.3070   22.3240 C   0  0  0  0  0  0  0  0  0  0  0  0
  1  2  1  0
  2  3  2  0
  2  4  1  0
  4  5  1  0
  5  6  1  0
  6  7  1  0
  7  8  1  0
  8  9  2  0
  8 10  1  0
 10 11  1  0
 11 12  1  0
 12 13  2  0
 13 14  1  0
 14 15  2  0
 15 16  1  0
 16 17  1  0
 17 18  2  0
 17 19  1  0
 19 20  1  0
 12 21  1  0
 16 21  2  0
  7 22  1  0
  4 23  1  0
 22 23  1  0
M  END
