piperidine-amides-10256-covalent
     RDKit          3D

 25 26  0  0  0  0  0  0  0  0999 V2000
    7.0480   -3.3530   19.3450 C   0  0  0  0  0  0  0  0  0  0  0  0
    6.4020   -4.2130   20.3420 C   0  0  0  0  0  0  0  0  0  0  0  0
    5.3590   -4.8090   19.9700 O   0  0  0  0  0  0  0  0  0  0  0  0
    6.9610   -4.3890   21.6130 N   0  0  0  0  0  0  0  0  0  0  0  0
    6.6390   -5.5190   22.4420 C   0  0  0  0  0  0  0  0  0  0  0  0
    5.8710   -5.0140   23.6340 C   0  0  0  0  0  0  0  0  0  0  0  0
    6.5030   -3.8050   24.2870 C   0  0  0  0  0  0  0  0  0  0  0  0
    5.6450   -3.3330   25.4010 C   0  0  0  0  0  0  0  0  0  0  0  0
    4.4280   -3.1810   25.1650 O   0  0  0  0  0  0  0  0  0  0  0  0
    6.1050   -3.0410   26.7030 N   0  0  0  0  0  0  0  0  0  0  0  0
    6.5970   -1.7190   27.0120 C   0  0  0  0  0  0  0  0  0  0  0  0
    5.5680   -0.6110   26.7750 C   0  0  0  0  0  0  0  0  0  0  0  0
    5.5230    0.5690   27.4990 C   0  0  0  0  0  0  0  0  0  0  0  0
    5.7390    0.5580   28.8490 N   0  0  0  0  0  0  0  0  0  0  0  0
    4.6240    1.3270   29.8490 S   0  0  0  0  0  0  0  0  0  0  0  0
    5.3400    2.3960   30.5920 O   0  0  0  0  0  0  0  0  0  0  0  0
    3.5690    1.8530   28.9440 O   0  0  0  0  0  0  0  0  0  0  0  0
    3.8110    0.2550   31.0340 C   0  0  0  0  0  0  0  0  0  0  0  0
    2.8520   -0.6760   30.6670 C   0  0  0  0  0  0  0  0  0  0  0  0
    3.1870    1.1010   32.1160 C   0  0  0  0  0  0  0  0  0  0  0  0
    4.8500   -0.5720   31.7760 C   0  0  0  0  0  0  0  0  0  0  0  0
    6.6770   -0.2790   29.2960 C   0  0  0  0  0  0  0  0  0  0  0  0
    6.9970   -1.4580   28.3990 C   0  0  0  0  0  0  0  0  0  0  0  0
    6.7610   -2.6800   23.2730 C   0  0  0  0  0  0  0  0  0  0  0  0
    7.6920   -3.3040   22.2570 C   0  0  0  0  0  0  0  0  0  0  0  0
  1  2  1  0
  2  3  2  0
  2  4  1  0
  4  5  1  0
  5  6  1  0
  6  7  1  0
  7  8  1  0
  8  9  2  0
  8 10  1  0
 10 11  1  0
 11 12  1  0
 12 13  1  0
 13 14  1  0
 15 14  1  0
 15 16  2  0
 15 17  2  0
 15 18  1  0
 18 19  1  0
 18 20  1  0
 18 21  1  0
 14 22  1  0
 11 23  1  0
 22 23  1  0
  7 24  1  0
  4 25  1  0
 24 25  1  0
M  END
