piperidine-amides-27239-covalent
     RDKit          3D

 26 29  0  0  0  0  0  0  0  0999 V2000
    7.0810   -3.3850   19.4270 C   0  0  0  0  0  0  0  0  0  0  0  0
    6.3980   -4.2340   20.4030 C   0  0  0  0  0  0  0  0  0  0  0  0
    5.3750   -4.8430   19.9880 O   0  0  0  0  0  0  0  0  0  0  0  0
    6.9060   -4.3870   21.7030 N   0  0  0  0  0  0  0  0  0  0  0  0
    6.5350   -5.5120   22.5150 C   0  0  0  0  0  0  0  0  0  0  0  0
    5.6910   -4.9970   23.6580 C   0  0  0  0  0  0  0  0  0  0  0  0
    6.2810   -3.8010   24.3850 C   0  0  0  0  0  0  0  0  0  0  0  0
    5.2650   -3.2330   25.3400 C   0  0  0  0  0  0  0  0  0  0  0  0
    4.5110   -2.3430   24.9140 O   0  0  0  0  0  0  0  0  0  0  0  0
    5.0950   -3.6520   26.6920 N   0  0  0  0  0  0  0  0  0  0  0  0
    4.9910   -2.6990   27.7730 C   0  0  0  0  0  0  0  0  0  0  0  0
    5.7460   -3.2270   29.0140 C   0  0  0  0  0  0  0  0  0  0  0  0
    6.1520   -4.5320   29.1630 C   0  0  0  0  0  0  0  0  0  0  0  0
    5.9090   -5.3640   28.1330 C   0  0  1  0  0  0  0  0  0  0  0  0
    4.7700   -6.1430   28.2570 C   0  0  0  0  0  0  0  0  0  0  0  0
    3.8310   -6.4440   27.2560 C   0  0  0  0  0  0  0  0  0  0  0  0
    2.8760   -7.2230   27.8140 N   0  0  0  0  0  0  0  0  0  0  0  0
    3.2360   -7.3800   29.0940 C   0  0  0  0  0  0  0  0  0  0  0  0
    2.3590   -8.2150   30.0190 C   0  0  0  0  0  0  0  0  0  0  0  0
    2.9760   -8.2470   31.4250 C   0  0  0  0  0  0  0  0  0  0  0  0
    4.2610   -7.5360   31.7540 C   0  0  0  0  0  0  0  0  0  0  0  0
    4.9760   -6.7600   30.6830 C   0  0  0  0  0  0  0  0  0  0  0  0
    4.3990   -6.7450   29.4380 C   0  0  0  0  0  0  0  0  0  0  0  0
    6.0320   -4.5960   27.0270 C   0  0  0  0  0  0  0  0  0  0  0  0
    6.7370   -2.7300   23.4250 C   0  0  0  0  0  0  0  0  0  0  0  0
    7.6460   -3.3140   22.3340 C   0  0  0  0  0  0  0  0  0  0  0  0
  1  2  1  0
  2  3  2  0
  2  4  1  0
  4  5  1  0
  5  6  1  0
  6  7  1  0
  7  8  1  0
  8  9  2  0
  8 10  1  0
 10 11  1  0
 11 12  1  0
 12 13  1  0
 13 14  1  0
 14 15  1  1
 15 16  2  0
 16 17  1  0
 17 18  1  0
 18 19  1  0
 19 20  2  0
 20 21  1  0
 21 22  2  0
 15 23  1  0
 18 23  2  0
 22 23  1  0
 10 24  1  0
 14 24  1  0
  7 25  1  0
  4 26  1  0
 25 26  1  0
M  END
