piperidine-amides-10860-covalent
     RDKit          3D

 22 23  0  0  0  0  0  0  0  0999 V2000
    7.0740   -3.2710   19.1970 C   0  0  0  0  0  0  0  0  0  0  0  0
    6.3000   -4.0070   20.2060 C   0  0  0  0  0  0  0  0  0  0  0  0
    5.2510   -4.5750   19.8810 O   0  0  0  0  0  0  0  0  0  0  0  0
    6.7440   -4.1100   21.5270 N   0  0  0  0  0  0  0  0  0  0  0  0
    7.6220   -3.1230   22.1010 C   0  0  0  0  0  0  0  0  0  0  0  0
    7.2820   -3.0600   23.5550 C   0  0  0  0  0  0  0  0  0  0  0  0
    5.9330   -3.5890   23.8740 C   0  0  0  0  0  0  0  0  0  0  0  0
    5.6440   -3.4630   25.3230 C   0  0  0  0  0  0  0  0  0  0  0  0
    4.5180   -3.0330   25.7070 O   0  0  0  0  0  0  0  0  0  0  0  0
    6.5830   -3.7940   26.3280 N   0  0  0  0  0  0  0  0  0  0  0  0
    6.9210   -5.2140   26.5940 C   0  0  0  0  0  0  0  0  0  0  0  0
    5.9460   -5.7410   27.5620 C   0  0  0  0  0  0  0  0  0  0  0  0
    6.2300   -5.6280   29.0020 C   0  0  0  0  0  0  0  0  0  0  0  0
    5.9510   -7.0010   30.0520 S   0  0  0  0  0  0  0  0  0  0  0  0
    4.2690   -7.4990   30.1210 C   0  0  0  0  0  0  0  0  0  0  0  0
    3.7960   -7.7620   31.5420 C   0  0  0  0  0  0  0  0  0  0  0  0
    2.3830   -8.1980   31.7540 C   0  0  0  0  0  0  0  0  0  0  0  0
    1.5800   -8.3390   30.6500 C   0  0  0  0  0  0  0  0  0  0  0  0
    2.0020   -8.0990   29.3400 C   0  0  0  0  0  0  0  0  0  0  0  0
    3.4180   -7.6580   29.0800 C   0  0  0  0  0  0  0  0  0  0  0  0
    5.6890   -5.0180   23.4460 C   0  0  0  0  0  0  0  0  0  0  0  0
    6.5710   -5.3440   22.2620 C   0  0  0  0  0  0  0  0  0  0  0  0
  1  2  1  0
  2  3  2  0
  2  4  1  0
  4  5  1  0
  5  6  1  0
  6  7  1  0
  7  8  1  0
  8  9  2  0
  8 10  1  0
 10 11  1  0
 11 12  1  0
 12 13  1  0
 13 14  1  0
 14 15  1  0
 15 16  2  0
 16 17  1  0
 17 18  2  0
 18 19  1  0
 15 20  1  0
 19 20  2  0
  7 21  1  0
  4 22  1  0
 21 22  1  0
M  END
