piperidine-amides-25075-covalent
     RDKit          3D

 25 28  0  0  0  0  0  0  0  0999 V2000
    7.0300   -3.3320   19.4230 C   0  0  0  0  0  0  0  0  0  0  0  0
    6.3790   -4.2210   20.4180 C   0  0  0  0  0  0  0  0  0  0  0  0
    5.4300   -4.8950   20.0020 O   0  0  0  0  0  0  0  0  0  0  0  0
    6.8530   -4.3050   21.7410 N   0  0  0  0  0  0  0  0  0  0  0  0
    6.6900   -5.5130   22.5120 C   0  0  0  0  0  0  0  0  0  0  0  0
    6.1040   -5.1880   23.8610 C   0  0  0  0  0  0  0  0  0  0  0  0
    5.8670   -3.6800   23.9860 C   0  0  0  0  0  0  0  0  0  0  0  0
    5.0210   -3.3850   25.2010 C   0  0  0  0  0  0  0  0  0  0  0  0
    3.8380   -3.7090   25.1170 O   0  0  0  0  0  0  0  0  0  0  0  0
    5.3890   -2.7600   26.4270 N   0  0  0  0  0  0  0  0  0  0  0  0
    6.6530   -2.9500   26.9140 C   0  0  0  0  0  0  0  0  0  0  0  0
    6.3870   -3.9740   28.0060 C   0  0  0  0  0  0  0  0  0  0  0  0
    5.0970   -4.2370   28.3270 C   0  0  2  0  0  0  0  0  0  0  0  0
    4.3340   -5.3100   27.8230 N   0  0  0  0  0  0  0  0  0  0  0  0
    4.5000   -5.8940   26.5190 C   0  0  0  0  0  0  0  0  0  0  0  0
    3.6130   -6.9170   26.2770 C   0  0  0  0  0  0  0  0  0  0  0  0
    3.3090   -7.8630   25.1430 C   0  0  0  0  0  0  0  0  0  0  0  0
    2.1820   -8.8220   25.4370 C   0  0  0  0  0  0  0  0  0  0  0  0
    1.4400   -8.8080   26.7730 C   0  0  0  0  0  0  0  0  0  0  0  0
    1.8830   -7.7950   27.7780 C   0  0  0  0  0  0  0  0  0  0  0  0
    2.9610   -6.8080   27.6170 C   0  0  0  0  0  0  0  0  0  0  0  0
    3.4110   -5.8010   28.5930 N   0  0  0  0  0  0  0  0  0  0  0  0
    4.6800   -2.9070   27.7250 C   0  0  0  0  0  0  0  0  0  0  0  0
    7.1940   -2.9740   23.8130 C   0  0  0  0  0  0  0  0  0  0  0  0
    7.6080   -3.2160   22.3720 C   0  0  0  0  0  0  0  0  0  0  0  0
  1  2  1  0
  2  3  2  0
  2  4  1  0
  4  5  1  0
  5  6  1  0
  6  7  1  0
  7  8  1  0
  8  9  2  0
  8 10  1  0
 10 11  1  0
 11 12  1  0
 12 13  1  0
 13 14  1  6
 14 15  1  0
 15 16  2  0
 16 17  1  0
 17 18  2  0
 18 19  1  0
 19 20  2  0
 16 21  1  0
 20 21  1  0
 14 22  1  0
 21 22  2  0
 10 23  1  0
 13 23  1  0
  7 24  1  0
  4 25  1  0
 24 25  1  0
M  END
