piperidine-amides-3046-covalent
     RDKit          3D

 23 24  0  0  0  0  0  0  0  0999 V2000
    6.9450   -3.1580   19.1130 C   0  0  0  0  0  0  0  0  0  0  0  0
    6.0920   -3.7750   20.1460 C   0  0  0  0  0  0  0  0  0  0  0  0
    5.1700   -4.4980   19.8130 O   0  0  0  0  0  0  0  0  0  0  0  0
    6.2740   -3.6160   21.5600 N   0  0  0  0  0  0  0  0  0  0  0  0
    5.8960   -4.7910   22.3050 C   0  0  0  0  0  0  0  0  0  0  0  0
    5.4580   -4.4980   23.6970 C   0  0  0  0  0  0  0  0  0  0  0  0
    5.9100   -3.1110   24.0800 C   0  0  0  0  0  0  0  0  0  0  0  0
    5.8380   -3.0040   25.5690 C   0  0  0  0  0  0  0  0  0  0  0  0
    4.8070   -2.5740   26.1220 O   0  0  0  0  0  0  0  0  0  0  0  0
    6.9360   -3.4040   26.3900 N   0  0  0  0  0  0  0  0  0  0  0  0
    6.9270   -4.7540   26.9360 C   0  0  2  0  0  0  0  0  0  0  0  0
    5.8770   -4.8830   27.9860 C   0  0  0  0  0  0  0  0  0  0  0  0
    8.2090   -5.1090   27.5720 C   0  0  0  0  0  0  0  0  0  0  0  0
    9.4130   -5.6130   26.3490 S   0  0  0  0  0  0  0  0  0  0  0  0
    9.1610   -4.5870   24.9630 C   0  0  0  0  0  0  0  0  0  0  0  0
    8.3150   -5.2890   24.1490 C   0  0  0  0  0  0  0  0  0  0  0  0
    7.6240   -6.4650   24.5740 C   0  0  0  0  0  0  0  0  0  0  0  0
    6.7890   -7.1780   23.7760 C   0  0  0  0  0  0  0  0  0  0  0  0
    6.5570   -6.8140   22.4960 C   0  0  0  0  0  0  0  0  0  0  0  0
    7.1900   -5.6900   21.9990 C   0  0  0  0  0  0  0  0  0  0  0  0
    8.0890   -4.9090   22.8530 C   0  0  0  0  0  0  0  0  0  0  0  0
    7.2460   -2.6710   23.5000 C   0  0  0  0  0  0  0  0  0  0  0  0
    7.2210   -2.6580   22.0920 C   0  0  0  0  0  0  0  0  0  0  0  0
  1  2  1  0
  2  3  2  0
  2  4  1  0
  4  5  1  0
  5  6  1  0
  6  7  1  0
  7  8  1  0
  8  9  2  0
  8 10  1  0
 10 11  1  0
 11 12  1  1
 11 13  1  0
 13 14  1  0
 14 15  1  0
 15 16  1  0
 16 17  2  0
 17 18  1  0
 18 19  2  0
 19 20  1  0
 16 21  1  0
 20 21  2  0
  7 22  1  0
  4 23  1  0
 22 23  1  0
M  END
