piperidine-amides-32995-covalent
     RDKit          3D

 29 31  0  0  0  0  0  0  0  0999 V2000
    7.0880   -3.3490   19.3190 C   0  0  0  0  0  0  0  0  0  0  0  0
    6.3980   -4.2190   20.3060 C   0  0  0  0  0  0  0  0  0  0  0  0
    5.3550   -4.8010   19.9680 O   0  0  0  0  0  0  0  0  0  0  0  0
    6.9830   -4.4140   21.5740 N   0  0  0  0  0  0  0  0  0  0  0  0
    6.6900   -5.5810   22.3590 C   0  0  0  0  0  0  0  0  0  0  0  0
    5.7800   -5.1140   23.5020 C   0  0  0  0  0  0  0  0  0  0  0  0
    6.4870   -4.0430   24.2780 C   0  0  0  0  0  0  0  0  0  0  0  0
    5.6660   -3.5380   25.4020 C   0  0  0  0  0  0  0  0  0  0  0  0
    4.8980   -2.6020   25.1640 O   0  0  0  0  0  0  0  0  0  0  0  0
    5.7870   -4.1440   26.6540 N   0  0  0  0  0  0  0  0  0  0  0  0
    6.9630   -4.6250   27.1680 C   0  0  0  0  0  0  0  0  0  0  0  0
    7.0120   -5.5400   28.1420 C   0  0  0  0  0  0  0  0  0  0  0  0
    6.1030   -5.2590   29.1420 C   0  0  0  0  0  0  0  0  0  0  0  0
    4.8870   -4.7520   28.7140 C   0  0  1  0  0  0  0  0  0  0  0  0
    3.9610   -4.3640   29.6310 N   0  0  0  0  0  0  0  0  0  0  0  0
    4.1290   -5.1750   30.6730 N   0  0  0  0  0  0  0  0  0  0  0  0
    3.1330   -5.4040   31.6630 C   0  0  0  0  0  0  0  0  0  0  0  0
    1.7780   -4.7140   31.5650 C   0  0  0  0  0  0  0  0  0  0  0  0
    0.8110   -4.5670   32.5120 N   0  0  0  0  0  0  0  0  0  0  0  0
   -0.3950   -5.1970   32.0780 C   0  0  0  0  0  0  0  0  0  0  0  0
    1.2650   -5.1210   33.7860 C   0  0  0  0  0  0  0  0  0  0  0  0
    0.9340   -6.5450   34.0490 C   0  0  0  0  0  0  0  0  0  0  0  0
    0.9150   -4.2830   34.8480 C   0  0  0  0  0  0  0  0  0  0  0  0
    1.6000   -4.1620   30.2160 C   0  0  0  0  0  0  0  0  0  0  0  0
    2.6370   -4.2700   29.0710 C   0  0  0  0  0  0  0  0  0  0  0  0
    2.3090   -4.2770   27.8570 O   0  0  0  0  0  0  0  0  0  0  0  0
    4.9320   -3.7110   27.7870 C   0  0  0  0  0  0  0  0  0  0  0  0
    6.8390   -2.8570   23.4010 C   0  0  0  0  0  0  0  0  0  0  0  0
    7.6410   -3.2920   22.2340 C   0  0  0  0  0  0  0  0  0  0  0  0
  1  2  1  0
  2  3  2  0
  2  4  1  0
  4  5  1  0
  5  6  1  0
  6  7  1  0
  7  8  1  0
  8  9  2  0
  8 10  1  0
 10 11  1  0
 11 12  1  0
 12 13  1  0
 13 14  1  0
 14 15  1  1
 15 16  1  0
 16 17  2  0
 17 18  1  0
 18 19  1  0
 19 20  1  0
 19 21  1  0
 21 22  1  0
 21 23  1  0
 18 24  2  0
 15 25  1  0
 24 25  1  0
 25 26  2  0
 10 27  1  0
 14 27  1  0
  7 28  1  0
  4 29  1  0
 28 29  1  0
M  END
