piperidine-amides-2055-covalent
     RDKit          3D

 22 23  0  0  0  0  0  0  0  0999 V2000
    7.0960   -3.3120   19.2670 C   0  0  0  0  0  0  0  0  0  0  0  0
    6.3560   -4.0890   20.2940 C   0  0  0  0  0  0  0  0  0  0  0  0
    5.3120   -4.6260   19.9190 O   0  0  0  0  0  0  0  0  0  0  0  0
    6.8680   -4.2360   21.5940 N   0  0  0  0  0  0  0  0  0  0  0  0
    6.5120   -5.3280   22.4440 C   0  0  0  0  0  0  0  0  0  0  0  0
    5.6480   -4.8120   23.5680 C   0  0  0  0  0  0  0  0  0  0  0  0
    6.2910   -3.6140   24.3010 C   0  0  0  0  0  0  0  0  0  0  0  0
    5.2100   -3.0330   25.1440 C   0  0  0  0  0  0  0  0  0  0  0  0
    4.1790   -2.6600   24.5880 O   0  0  0  0  0  0  0  0  0  0  0  0
    5.3090   -2.8980   26.5490 N   0  0  0  0  0  0  0  0  0  0  0  0
    6.1350   -3.8330   27.2280 C   0  0  0  0  0  0  0  0  0  0  0  0
    5.4530   -4.4990   28.3900 C   0  0  0  0  0  0  0  0  0  0  0  0
    4.3970   -3.8570   29.1330 N   0  0  0  0  0  0  0  0  0  0  0  0
    3.9410   -4.6130   30.1040 N   0  0  0  0  0  0  0  0  0  0  0  0
    4.7030   -5.7300   29.9850 N   0  0  0  0  0  0  0  0  0  0  0  0
    4.7810   -7.0050   30.7090 C   0  0  0  0  0  0  0  0  0  0  0  0
    3.6450   -7.7000   30.4450 C   0  0  0  0  0  0  0  0  0  0  0  0
    5.9540   -7.7650   30.0840 C   0  0  0  0  0  0  0  0  0  0  0  0
    5.0360   -7.0700   32.1820 C   0  0  0  0  0  0  0  0  0  0  0  0
    5.5850   -5.6690   28.9860 N   0  0  0  0  0  0  0  0  0  0  0  0
    6.9130   -2.5950   23.3910 C   0  0  0  0  0  0  0  0  0  0  0  0
    7.6350   -3.1750   22.2070 C   0  0  0  0  0  0  0  0  0  0  0  0
  1  2  1  0
  2  3  2  0
  2  4  1  0
  4  5  1  0
  5  6  1  0
  6  7  1  0
  7  8  1  0
  8  9  2  0
  8 10  1  0
 10 11  1  0
 11 12  1  0
 12 13  1  0
 13 14  2  0
 14 15  1  0
 15 16  1  0
 16 17  1  0
 16 18  1  0
 16 19  1  0
 12 20  2  0
 15 20  1  0
  7 21  1  0
  4 22  1  0
 21 22  1  0
M  END
