piperidine-amides-1568-covalent
     RDKit          3D

 21 22  0  0  0  0  0  0  0  0999 V2000
    7.1270   -3.2670   19.2130 C   0  0  0  0  0  0  0  0  0  0  0  0
    6.3650   -4.0500   20.2280 C   0  0  0  0  0  0  0  0  0  0  0  0
    5.2930   -4.5820   19.8950 O   0  0  0  0  0  0  0  0  0  0  0  0
    6.9070   -4.2160   21.5200 N   0  0  0  0  0  0  0  0  0  0  0  0
    6.5920   -5.3420   22.3540 C   0  0  0  0  0  0  0  0  0  0  0  0
    5.7470   -4.7920   23.5070 C   0  0  0  0  0  0  0  0  0  0  0  0
    6.5370   -3.7160   24.1810 C   0  0  0  0  0  0  0  0  0  0  0  0
    5.8400   -3.1380   25.3600 C   0  0  0  0  0  0  0  0  0  0  0  0
    4.7020   -2.7020   25.1550 O   0  0  0  0  0  0  0  0  0  0  0  0
    6.4460   -3.1100   26.6260 N   0  0  0  0  0  0  0  0  0  0  0  0
    6.1560   -3.9400   27.7490 C   0  0  0  0  0  0  0  0  0  0  0  0
    5.7970   -5.2670   27.6460 C   0  0  0  0  0  0  0  0  0  0  0  0
    5.2840   -5.7310   26.4350 C   0  0  0  0  0  0  0  0  0  0  0  0
    4.2330   -6.6190   26.4000 C   0  0  0  0  0  0  0  0  0  0  0  0
    3.8620   -7.2420   25.0900 C   0  0  0  0  0  0  0  0  0  0  0  0
    2.7070   -8.2350   24.9570 C   0  0  0  0  0  0  0  0  0  0  0  0
    2.0470   -8.4640   26.3020 C   0  0  0  0  0  0  0  0  0  0  0  0
    2.4950   -7.8220   27.4260 C   0  0  0  0  0  0  0  0  0  0  0  0
    3.5160   -6.9470   27.5160 N   0  0  0  0  0  0  0  0  0  0  0  0
    6.9270   -2.5970   23.2750 C   0  0  0  0  0  0  0  0  0  0  0  0
    7.6980   -3.1490   22.0940 C   0  0  0  0  0  0  0  0  0  0  0  0
  1  2  1  0
  2  3  2  0
  2  4  1  0
  4  5  1  0
  5  6  1  0
  6  7  1  0
  7  8  1  0
  8  9  2  0
  8 10  1  0
 10 11  1  0
 11 12  1  0
 12 13  1  0
 13 14  1  0
 14 15  2  0
 15 16  1  0
 16 17  2  0
 17 18  1  0
 14 19  1  0
 18 19  2  0
  7 20  1  0
  4 21  1  0
 20 21  1  0
M  END
