piperidine-amides-24076-covalent
     RDKit          3D

 24 26  0  0  0  0  0  0  0  0999 V2000
    7.1280   -3.3060   19.2830 C   0  0  0  0  0  0  0  0  0  0  0  0
    6.3620   -4.0470   20.2950 C   0  0  0  0  0  0  0  0  0  0  0  0
    5.2880   -4.5680   19.9030 O   0  0  0  0  0  0  0  0  0  0  0  0
    6.8360   -4.2270   21.6250 N   0  0  0  0  0  0  0  0  0  0  0  0
    7.6260   -3.1970   22.2300 C   0  0  0  0  0  0  0  0  0  0  0  0
    7.2530   -2.9370   23.6120 C   0  0  0  0  0  0  0  0  0  0  0  0
    6.0360   -3.6720   23.9920 C   0  0  0  0  0  0  0  0  0  0  0  0
    5.4970   -3.3130   25.3500 C   0  0  0  0  0  0  0  0  0  0  0  0
    4.2630   -3.2650   25.4750 O   0  0  0  0  0  0  0  0  0  0  0  0
    6.2900   -3.0180   26.4790 N   0  0  0  0  0  0  0  0  0  0  0  0
    6.7160   -1.7250   26.8670 C   0  0  0  0  0  0  0  0  0  0  0  0
    6.2290   -3.9800   27.5810 C   0  0  0  0  0  0  0  0  0  0  0  0
    4.8980   -4.2230   28.3090 C   0  0  0  0  0  0  0  0  0  0  0  0
    4.1460   -3.0080   28.3560 N   0  0  0  0  0  0  0  0  0  0  0  0
    3.0180   -3.2940   28.9940 N   0  0  0  0  0  0  0  0  0  0  0  0
    3.1950   -4.6540   29.2710 C   0  0  0  0  0  0  0  0  0  0  0  0
    4.3220   -5.2620   28.8740 N   0  0  0  0  0  0  0  0  0  0  0  0
    4.6480   -6.6630   29.0890 C   0  0  0  0  0  0  0  0  0  0  0  0
    3.3170   -7.3480   29.3510 C   0  0  0  0  0  0  0  0  0  0  0  0
    2.4400   -6.8170   30.2920 N   0  0  0  0  0  0  0  0  0  0  0  0
    2.1800   -5.4180   29.9830 C   0  0  0  0  0  0  0  0  0  0  0  0
    1.0260   -4.6980   30.3060 O   0  0  0  0  0  0  0  0  0  0  0  0
    6.1460   -5.1630   23.7700 C   0  0  0  0  0  0  0  0  0  0  0  0
    6.6020   -5.4660   22.3450 C   0  0  0  0  0  0  0  0  0  0  0  0
  1  2  1  0
  2  3  2  0
  2  4  1  0
  4  5  1  0
  5  6  1  0
  6  7  1  0
  7  8  1  0
  8  9  2  0
  8 10  1  0
 10 11  1  0
 10 12  1  0
 12 13  1  0
 13 14  2  0
 14 15  1  0
 15 16  2  0
 13 17  1  0
 16 17  1  0
 17 18  1  0
 18 19  1  0
 19 20  1  0
 16 21  1  0
 20 21  1  0
 21 22  2  0
  7 23  1  0
  4 24  1  0
 23 24  1  0
M  END
