piperidine-amides-33714-covalent
     RDKit          3D

 27 28  0  0  0  0  0  0  0  0999 V2000
    7.1180   -3.2830   19.2190 C   0  0  0  0  0  0  0  0  0  0  0  0
    6.3840   -4.0420   20.2440 C   0  0  0  0  0  0  0  0  0  0  0  0
    5.2940   -4.5490   19.8890 O   0  0  0  0  0  0  0  0  0  0  0  0
    6.9080   -4.2500   21.5470 N   0  0  0  0  0  0  0  0  0  0  0  0
    6.4370   -5.3580   22.2960 C   0  0  0  0  0  0  0  0  0  0  0  0
    6.0320   -5.0280   23.6610 C   0  0  0  0  0  0  0  0  0  0  0  0
    6.6320   -3.7990   24.2320 C   0  0  0  0  0  0  0  0  0  0  0  0
    5.7580   -3.2480   25.3220 C   0  0  0  0  0  0  0  0  0  0  0  0
    4.5390   -3.0970   25.1040 O   0  0  0  0  0  0  0  0  0  0  0  0
    6.2730   -2.9080   26.5890 N   0  0  0  0  0  0  0  0  0  0  0  0
    6.4030   -3.7610   27.7110 C   0  0  0  0  0  0  0  0  0  0  0  0
    6.7050   -5.1750   27.5370 C   0  0  0  0  0  0  0  0  0  0  0  0
    5.8350   -6.1410   27.8350 N   0  0  0  0  0  0  0  0  0  0  0  0
    5.7050   -6.6450   29.1710 C   0  0  0  0  0  0  0  0  0  0  0  0
    5.3820   -7.9280   29.5000 C   0  0  0  0  0  0  0  0  0  0  0  0
    5.9100   -5.8170   30.2470 O   0  0  0  0  0  0  0  0  0  0  0  0
    6.7980   -1.5510   26.7880 C   0  0  0  0  0  0  0  0  0  0  0  0
    5.7740   -0.5860   26.2880 C   0  0  0  0  0  0  0  0  0  0  0  0
    6.4090   -0.2140   24.9700 C   0  0  0  0  0  0  0  0  0  0  0  0
    5.7850    0.7600   24.0350 C   0  0  0  0  0  0  0  0  0  0  0  0
    4.4580    1.3640   24.4890 C   0  0  0  0  0  0  0  0  0  0  0  0
    3.6170    2.5370   23.4770 Cl  0  0  0  0  0  0  0  0  0  0  0  0
    3.8440    0.9410   25.8620 C   0  0  0  0  0  0  0  0  0  0  0  0
    4.5780   -0.0540   26.7130 C   0  0  0  0  0  0  0  0  0  0  0  0
    3.9490   -0.5660   28.2570 Cl  0  0  0  0  0  0  0  0  0  0  0  0
    6.9160   -2.7320   23.2220 C   0  0  0  0  0  0  0  0  0  0  0  0
    7.6890   -3.2390   22.2020 C   0  0  0  0  0  0  0  0  0  0  0  0
  1  2  1  0
  2  3  2  0
  2  4  1  0
  4  5  1  0
  5  6  1  0
  6  7  1  0
  7  8  1  0
  8  9  2  0
  8 10  1  0
 10 11  1  0
 11 12  1  0
 12 13  1  0
 13 14  1  0
 14 15  1  0
 14 16  2  0
 10 17  1  0
 17 18  1  0
 18 19  2  0
 19 20  1  0
 20 21  2  0
 21 22  1  0
 21 23  1  0
 18 24  1  0
 23 24  2  0
 24 25  1  0
  7 26  1  0
  4 27  1  0
 26 27  1  0
M  END
