piperidine-amides-27587-covalent
     RDKit          3D

 26 28  0  0  0  0  0  0  0  0999 V2000
    7.0810   -3.2930   19.2490 C   0  0  0  0  0  0  0  0  0  0  0  0
    6.3510   -4.0900   20.2410 C   0  0  0  0  0  0  0  0  0  0  0  0
    5.2510   -4.5680   19.8810 O   0  0  0  0  0  0  0  0  0  0  0  0
    6.9010   -4.3490   21.4930 N   0  0  0  0  0  0  0  0  0  0  0  0
    7.5940   -3.3310   22.2480 C   0  0  0  0  0  0  0  0  0  0  0  0
    6.8540   -3.1280   23.5390 C   0  0  0  0  0  0  0  0  0  0  0  0
    6.7080   -4.4360   24.2770 C   0  0  0  0  0  0  0  0  0  0  0  0
    5.9760   -4.2290   25.5270 C   0  0  0  0  0  0  0  0  0  0  0  0
    4.7500   -4.4810   25.5480 O   0  0  0  0  0  0  0  0  0  0  0  0
    6.5680   -3.6960   26.6700 N   0  0  0  0  0  0  0  0  0  0  0  0
    6.6770   -4.4620   27.8920 C   0  0  0  0  0  0  0  0  0  0  0  0
    7.5860   -5.6760   27.7400 C   0  0  0  0  0  0  0  0  0  0  0  0
    6.3790   -2.3390   26.8170 C   0  0  0  0  0  0  0  0  0  0  0  0
    5.8700   -1.5240   25.9470 N   0  0  0  0  0  0  0  0  0  0  0  0
    5.7630   -0.2390   26.3050 C   0  0  0  0  0  0  0  0  0  0  0  0
    6.1610    0.2770   27.5430 N   0  0  0  0  0  0  0  0  0  0  0  0
    6.7580   -0.4050   28.6870 C   0  0  0  0  0  0  0  0  0  0  0  0
    6.6090    0.9200   28.9630 C   0  0  0  0  0  0  0  0  0  0  0  0
    6.0660    1.6050   27.9490 C   0  0  0  0  0  0  0  0  0  0  0  0
    5.7560    0.7590   26.7630 C   0  0  0  0  0  0  0  0  0  0  0  0
    5.1920    1.2740   25.6070 O   0  0  0  0  0  0  0  0  0  0  0  0
    5.4950    1.0740   24.2770 C   0  0  0  0  0  0  0  0  0  0  0  0
    6.0830   -0.5960   26.9180 C   0  0  0  0  0  0  0  0  0  0  0  0
    6.7010   -1.5520   27.9920 C   0  0  0  0  0  0  0  0  0  0  0  0
    5.9720   -5.4120   23.4510 C   0  0  0  0  0  0  0  0  0  0  0  0
    6.6020   -5.6150   22.1010 C   0  0  0  0  0  0  0  0  0  0  0  0
  1  2  1  0
  2  3  2  0
  2  4  1  0
  4  5  1  0
  5  6  1  0
  6  7  1  0
  7  8  1  0
  8  9  2  0
  8 10  1  0
 10 11  1  0
 11 12  1  0
 10 13  1  0
 13 14  2  0
 14 15  1  0
 15 16  2  0
 16 17  1  0
 17 18  1  0
 18 19  2  0
 19 20  1  0
 20 21  1  0
 21 22  1  0
 20 23  2  0
 13 24  1  0
 17 24  2  0
 23 24  1  0
  7 25  1  0
  4 26  1  0
 25 26  1  0
M  END
