piperidine-amides-10930-covalent
     RDKit          3D

 21 23  0  0  0  0  0  0  0  0999 V2000
    7.0470   -3.3360   19.3100 C   0  0  0  0  0  0  0  0  0  0  0  0
    6.3510   -4.1630   20.3000 C   0  0  0  0  0  0  0  0  0  0  0  0
    5.3370   -4.7920   19.9600 O   0  0  0  0  0  0  0  0  0  0  0  0
    6.8270   -4.3030   21.6170 N   0  0  0  0  0  0  0  0  0  0  0  0
    6.6010   -5.4830   22.4160 C   0  0  0  0  0  0  0  0  0  0  0  0
    5.9670   -4.9970   23.6980 C   0  0  0  0  0  0  0  0  0  0  0  0
    6.7830   -3.9270   24.3820 C   0  0  0  0  0  0  0  0  0  0  0  0
    6.1010   -3.3660   25.5790 C   0  0  0  0  0  0  0  0  0  0  0  0
    4.8320   -3.4370   25.6810 O   0  0  0  0  0  0  0  0  0  0  0  0
    6.8210   -2.7100   26.6450 N   0  0  0  0  0  0  0  0  0  0  0  0
    6.5580   -1.2560   26.9020 C   0  0  0  0  0  0  0  0  0  0  0  0
    6.2740   -0.7980   25.7390 C   0  0  0  0  0  0  0  0  0  0  0  0
    6.5820   -2.0740   25.9240 N   0  0  0  0  0  0  0  0  0  0  0  0
    6.8400   -2.1380   27.4310 N   0  0  0  0  0  0  0  0  0  0  0  0
    7.2400   -3.3830   28.1590 C   0  0  0  0  0  0  0  0  0  0  0  0
    6.6600   -0.8170   28.1240 C   0  0  0  0  0  0  0  0  0  0  0  0
    6.9860   -1.3350   29.4980 C   0  0  0  0  0  0  0  0  0  0  0  0
    6.2020   -0.5980   30.2940 C   0  0  0  0  0  0  0  0  0  0  0  0
    7.5470   -0.3560   30.6590 C   0  0  0  0  0  0  0  0  0  0  0  0
    7.0760   -2.7690   23.4570 C   0  0  0  0  0  0  0  0  0  0  0  0
    7.6940   -3.2840   22.1870 C   0  0  0  0  0  0  0  0  0  0  0  0
  1  2  1  0
  2  3  2  0
  2  4  1  0
  4  5  1  0
  5  6  1  0
  6  7  1  0
  7  8  1  0
  8  9  2  0
  8 10  1  0
 10 11  1  0
 11 12  1  0
 12 13  2  0
 13 14  1  0
 14 15  1  0
 11 16  2  0
 14 16  1  0
 16 17  1  0
 17 18  1  0
 17 19  1  0
 18 19  1  0
  7 20  1  0
  4 21  1  0
 20 21  1  0
M  END
