piperidine-amides-5119-covalent
     RDKit          3D

 22 23  0  0  0  0  0  0  0  0999 V2000
    7.1010   -3.2730   19.2220 C   0  0  0  0  0  0  0  0  0  0  0  0
    6.3430   -4.0480   20.2340 C   0  0  0  0  0  0  0  0  0  0  0  0
    5.2610   -4.5420   19.8690 O   0  0  0  0  0  0  0  0  0  0  0  0
    6.8560   -4.2510   21.5220 N   0  0  0  0  0  0  0  0  0  0  0  0
    7.5960   -3.2260   22.1440 C   0  0  0  0  0  0  0  0  0  0  0  0
    7.2380   -3.1190   23.5410 C   0  0  0  0  0  0  0  0  0  0  0  0
    5.8730   -3.5500   23.8490 C   0  0  0  0  0  0  0  0  0  0  0  0
    5.6130   -3.3920   25.3020 C   0  0  0  0  0  0  0  0  0  0  0  0
    4.4610   -3.0980   25.6640 O   0  0  0  0  0  0  0  0  0  0  0  0
    6.6390   -3.5630   26.2500 N   0  0  0  0  0  0  0  0  0  0  0  0
    6.3960   -4.1380   27.5940 C   0  0  0  0  0  0  0  0  0  0  0  0
    6.4890   -5.6260   27.6090 C   0  0  0  0  0  0  0  0  0  0  0  0
    5.4000   -6.3070   28.3000 C   0  0  0  0  0  0  0  0  0  0  0  0
    5.5450   -6.8680   29.5340 C   0  0  0  0  0  0  0  0  0  0  0  0
    4.5540   -7.5100   30.2330 C   0  0  0  0  0  0  0  0  0  0  0  0
    3.3200   -7.6020   29.6600 C   0  0  0  0  0  0  0  0  0  0  0  0
    2.3940   -8.2740   30.4810 O   0  0  0  0  0  0  0  0  0  0  0  0
    1.3100   -8.9720   29.9390 C   0  0  0  0  0  0  0  0  0  0  0  0
    2.9550   -7.0920   28.3820 N   0  0  0  0  0  0  0  0  0  0  0  0
    4.1470   -6.4250   27.7520 C   0  0  0  0  0  0  0  0  0  0  0  0
    5.5830   -4.9610   23.3640 C   0  0  0  0  0  0  0  0  0  0  0  0
    6.5770   -5.4120   22.3390 C   0  0  0  0  0  0  0  0  0  0  0  0
  1  2  1  0
  2  3  2  0
  2  4  1  0
  4  5  1  0
  5  6  1  0
  6  7  1  0
  7  8  1  0
  8  9  2  0
  8 10  1  0
 10 11  1  0
 11 12  1  0
 12 13  1  0
 13 14  2  0
 14 15  1  0
 15 16  2  0
 16 17  1  0
 17 18  1  0
 16 19  1  0
 13 20  1  0
 19 20  2  0
  7 21  1  0
  4 22  1  0
 21 22  1  0
M  END
