piperidine-amides-15044-covalent
     RDKit          3D

 21 22  0  0  0  0  0  0  0  0999 V2000
    7.1200   -3.2870   19.1840 C   0  0  0  0  0  0  0  0  0  0  0  0
    6.4080   -4.0460   20.2080 C   0  0  0  0  0  0  0  0  0  0  0  0
    5.3320   -4.5930   19.9030 O   0  0  0  0  0  0  0  0  0  0  0  0
    6.9860   -4.1810   21.4900 N   0  0  0  0  0  0  0  0  0  0  0  0
    6.5130   -5.2320   22.3390 C   0  0  0  0  0  0  0  0  0  0  0  0
    5.6940   -4.6340   23.4530 C   0  0  0  0  0  0  0  0  0  0  0  0
    6.5810   -3.6670   24.2230 C   0  0  0  0  0  0  0  0  0  0  0  0
    5.8830   -3.1700   25.4500 C   0  0  0  0  0  0  0  0  0  0  0  0
    4.8540   -2.5170   25.2730 O   0  0  0  0  0  0  0  0  0  0  0  0
    6.4430   -3.4870   26.6840 N   0  0  0  0  0  0  0  0  0  0  0  0
    6.4010   -4.8270   27.1420 C   0  0  1  0  0  0  0  0  0  0  0  0
    7.4490   -5.6950   26.8540 C   0  0  0  0  0  0  0  0  0  0  0  0
    8.2680   -5.9900   27.9280 C   0  0  0  0  0  0  0  0  0  0  0  0
    6.1990   -4.9130   28.6000 C   0  0  0  0  0  0  0  0  0  0  0  0
    6.1440   -6.1600   29.2680 N   0  0  0  0  0  0  0  0  0  0  0  0
    6.0960   -3.6530   29.1810 O   0  0  0  0  0  0  0  0  0  0  0  0
    5.0470   -5.3910   26.8070 C   0  0  0  0  0  0  0  0  0  0  0  0
    4.7160   -6.1510   25.7250 C   0  0  0  0  0  0  0  0  0  0  0  0
    4.9030   -6.7990   27.1500 C   0  0  0  0  0  0  0  0  0  0  0  0
    7.0070   -2.5690   23.3230 C   0  0  0  0  0  0  0  0  0  0  0  0
    7.6580   -3.0240   22.0150 C   0  0  0  0  0  0  0  0  0  0  0  0
  1  2  1  0
  2  3  2  0
  2  4  1  0
  4  5  1  0
  5  6  1  0
  6  7  1  0
  7  8  1  0
  8  9  2  0
  8 10  1  0
 10 11  1  0
 11 12  1  6
 12 13  1  0
 11 14  1  0
 14 15  1  0
 14 16  2  0
 11 17  1  0
 17 18  1  0
 17 19  1  0
 18 19  1  0
  7 20  1  0
  4 21  1  0
 20 21  1  0
M  END
