piperidine-amides-3951-covalent
     RDKit          3D

 30 32  0  0  0  0  0  0  0  0999 V2000
    7.1270   -3.2940   19.2780 C   0  0  0  0  0  0  0  0  0  0  0  0
    6.3870   -4.0580   20.2930 C   0  0  0  0  0  0  0  0  0  0  0  0
    5.3220   -4.6080   19.9170 O   0  0  0  0  0  0  0  0  0  0  0  0
    6.8870   -4.2060   21.6080 N   0  0  0  0  0  0  0  0  0  0  0  0
    6.5560   -5.3730   22.3480 C   0  0  0  0  0  0  0  0  0  0  0  0
    6.0500   -5.0590   23.6740 C   0  0  0  0  0  0  0  0  0  0  0  0
    6.0440   -3.6070   23.9650 C   0  0  0  0  0  0  0  0  0  0  0  0
    5.5830   -3.2870   25.3590 C   0  0  0  0  0  0  0  0  0  0  0  0
    4.3630   -3.1780   25.5650 O   0  0  0  0  0  0  0  0  0  0  0  0
    6.4710   -3.1010   26.4390 N   0  0  0  0  0  0  0  0  0  0  0  0
    6.2540   -3.3600   27.8170 C   0  0  0  0  0  0  0  0  0  0  0  0
    6.3080   -2.3010   28.8310 C   0  0  0  0  0  0  0  0  0  0  0  0
    5.0230   -2.1980   29.6560 C   0  0  0  0  0  0  0  0  0  0  0  0
    4.8060   -1.2780   30.6880 C   0  0  0  0  0  0  0  0  0  0  0  0
    6.0730   -0.3860   30.8600 C   0  0  0  0  0  0  0  0  0  0  0  0
    5.9460    0.5620   31.8720 O   0  0  0  0  0  0  0  0  0  0  0  0
    7.2190    1.0180   32.2280 C   0  0  0  0  0  0  0  0  0  0  0  0
    7.0800    2.2340   33.1510 C   0  0  0  0  0  0  0  0  0  0  0  0
    7.1250    2.1090   34.3910 O   0  0  0  0  0  0  0  0  0  0  0  0
    6.0290    2.5200   35.2300 C   0  0  0  0  0  0  0  0  0  0  0  0
    4.7560    1.7080   35.1470 C   0  0  0  0  0  0  0  0  0  0  0  0
    3.5420    2.0700   36.0020 C   0  0  0  0  0  0  0  0  0  0  0  0
    3.6990    3.2440   36.8960 C   0  0  0  0  0  0  0  0  0  0  0  0
    2.3430    3.7410   37.9240 Cl  0  0  0  0  0  0  0  0  0  0  0  0
    4.9210    3.9260   36.8970 C   0  0  0  0  0  0  0  0  0  0  0  0
    6.0260    3.5970   36.1190 C   0  0  0  0  0  0  0  0  0  0  0  0
    7.2110   -0.5170   30.0890 C   0  0  0  0  0  0  0  0  0  0  0  0
    7.2970   -1.4600   29.1060 C   0  0  0  0  0  0  0  0  0  0  0  0
    7.4200   -3.0650   23.6720 C   0  0  0  0  0  0  0  0  0  0  0  0
    7.7120   -3.1580   22.1830 C   0  0  0  0  0  0  0  0  0  0  0  0
  1  2  1  0
  2  3  2  0
  2  4  1  0
  4  5  1  0
  5  6  1  0
  6  7  1  0
  7  8  1  0
  8  9  2  0
  8 10  1  0
 10 11  1  0
 11 12  1  0
 12 13  2  0
 13 14  1  0
 14 15  2  0
 15 16  1  0
 16 17  1  0
 17 18  1  0
 18 19  1  0
 19 20  1  0
 20 21  2  0
 21 22  1  0
 22 23  2  0
 23 24  1  0
 23 25  1  0
 20 26  1  0
 25 26  2  0
 15 27  1  0
 12 28  1  0
 27 28  2  0
  7 29  1  0
  4 30  1  0
 29 30  1  0
M  END
