piperidine-amides-24900-covalent
     RDKit          3D

 24 24  0  0  0  0  0  0  0  0999 V2000
    7.0860   -3.2870   19.2290 C   0  0  0  0  0  0  0  0  0  0  0  0
    6.3790   -4.0880   20.2370 C   0  0  0  0  0  0  0  0  0  0  0  0
    5.3250   -4.6850   19.9360 O   0  0  0  0  0  0  0  0  0  0  0  0
    6.9050   -4.2470   21.5290 N   0  0  0  0  0  0  0  0  0  0  0  0
    7.6240   -3.1580   22.1480 C   0  0  0  0  0  0  0  0  0  0  0  0
    6.7250   -2.6480   23.2780 C   0  0  0  0  0  0  0  0  0  0  0  0
    6.5080   -3.8290   24.1970 C   0  0  0  0  0  0  0  0  0  0  0  0
    5.7870   -3.3970   25.4140 C   0  0  0  0  0  0  0  0  0  0  0  0
    4.5360   -3.4330   25.4040 O   0  0  0  0  0  0  0  0  0  0  0  0
    6.5060   -2.9410   26.5490 N   0  0  0  0  0  0  0  0  0  0  0  0
    6.8880   -1.5590   26.5790 C   0  0  0  0  0  0  0  0  0  0  0  0
    6.3380   -3.5970   27.8350 C   0  0  0  0  0  0  0  0  0  0  0  0
    6.0200   -4.9130   27.6390 C   0  0  0  0  0  0  0  0  0  0  0  0
    6.3970   -5.8280   28.5910 C   0  0  0  0  0  0  0  0  0  0  0  0
    5.4850   -6.7800   29.0480 C   0  0  0  0  0  0  0  0  0  0  0  0
    4.8350   -6.5730   30.2430 C   0  0  0  0  0  0  0  0  0  0  0  0
    3.7590   -5.5070   30.3580 C   0  0  0  0  0  0  0  0  0  0  0  0
    3.4630   -6.7850   31.1220 C   0  0  0  0  0  0  0  0  0  0  0  0
    4.1020   -6.9170   32.4760 C   0  0  0  0  0  0  0  0  0  0  0  0
    2.7050   -6.4730   32.5760 C   0  0  0  0  0  0  0  0  0  0  0  0
    2.3080   -6.3550   33.9150 C   0  0  0  0  0  0  0  0  0  0  0  0
    3.1940   -6.8060   34.8540 C   0  0  0  0  0  0  0  0  0  0  0  0
    5.7140   -4.9230   23.5050 C   0  0  0  0  0  0  0  0  0  0  0  0
    6.5030   -5.3870   22.3020 C   0  0  0  0  0  0  0  0  0  0  0  0
  1  2  1  0
  2  3  2  0
  2  4  1  0
  4  5  1  0
  5  6  1  0
  6  7  1  0
  7  8  1  0
  8  9  2  0
  8 10  1  0
 10 11  1  0
 10 12  1  0
 12 13  1  0
 13 14  1  0
 14 15  1  0
 15 16  1  0
 16 17  1  0
 17 18  1  0
 18 19  1  0
 19 20  1  0
 20 21  1  0
 21 22  1  0
  7 23  1  0
  4 24  1  0
 23 24  1  0
M  END
