piperidine-amides-24211-covalent
     RDKit          3D

 24 25  0  0  0  0  0  0  0  0999 V2000
    7.0980   -3.3140   19.3160 C   0  0  0  0  0  0  0  0  0  0  0  0
    6.3580   -4.1150   20.3000 C   0  0  0  0  0  0  0  0  0  0  0  0
    5.3160   -4.7080   19.9450 O   0  0  0  0  0  0  0  0  0  0  0  0
    6.8230   -4.2750   21.6190 N   0  0  0  0  0  0  0  0  0  0  0  0
    6.5610   -5.5430   22.2650 C   0  0  0  0  0  0  0  0  0  0  0  0
    6.2750   -5.2760   23.7530 C   0  0  0  0  0  0  0  0  0  0  0  0
    5.9840   -3.7990   23.8800 C   0  0  0  0  0  0  0  0  0  0  0  0
    5.3890   -3.4600   25.1980 C   0  0  0  0  0  0  0  0  0  0  0  0
    4.1970   -3.1020   25.1780 O   0  0  0  0  0  0  0  0  0  0  0  0
    6.0700   -3.5380   26.4420 N   0  0  0  0  0  0  0  0  0  0  0  0
    6.2830   -4.8510   26.9960 C   0  0  0  0  0  0  0  0  0  0  0  0
    5.0920   -5.3200   27.7620 C   0  0  0  0  0  0  0  0  0  0  0  0
    5.5370   -2.6380   27.4380 C   0  0  0  0  0  0  0  0  0  0  0  0
    5.8630   -1.3170   27.4690 C   0  0  0  0  0  0  0  0  0  0  0  0
    6.7740   -0.7510   28.3410 C   0  0  0  0  0  0  0  0  0  0  0  0
    7.4810   -1.4530   29.2830 C   0  0  0  0  0  0  0  0  0  0  0  0
    6.8090    0.5730   28.0800 N   0  0  0  0  0  0  0  0  0  0  0  0
    5.9570    0.7720   27.0870 N   0  0  0  0  0  0  0  0  0  0  0  0
    5.7170    1.9750   26.5390 C   0  0  0  0  0  0  0  0  0  0  0  0
    5.6670    2.8570   27.7640 C   0  0  0  0  0  0  0  0  0  0  0  0
    5.2850   -0.4180   26.6180 C   0  0  0  0  0  0  0  0  0  0  0  0
    4.2860   -0.6920   25.5810 C   0  0  0  0  0  0  0  0  0  0  0  0
    7.2250   -3.0280   23.5630 C   0  0  0  0  0  0  0  0  0  0  0  0
    7.5710   -3.2270   22.2560 C   0  0  0  0  0  0  0  0  0  0  0  0
  1  2  1  0
  2  3  2  0
  2  4  1  0
  4  5  1  0
  5  6  1  0
  6  7  1  0
  7  8  1  0
  8  9  2  0
  8 10  1  0
 10 11  1  0
 11 12  1  0
 10 13  1  0
 13 14  1  0
 14 15  1  0
 15 16  1  0
 15 17  2  0
 17 18  1  0
 18 19  1  0
 19 20  1  0
 14 21  2  0
 18 21  1  0
 21 22  1  0
  7 23  1  0
  4 24  1  0
 23 24  1  0
M  END
