piperidine-amides-21750-covalent
     RDKit          3D

 23 25  0  0  0  0  0  0  0  0999 V2000
    7.0470   -3.3490   19.3410 C   0  0  0  0  0  0  0  0  0  0  0  0
    6.4040   -4.2030   20.3450 C   0  0  0  0  0  0  0  0  0  0  0  0
    5.3840   -4.8360   19.9780 O   0  0  0  0  0  0  0  0  0  0  0  0
    6.9390   -4.3340   21.6290 N   0  0  0  0  0  0  0  0  0  0  0  0
    6.8100   -5.5710   22.3720 C   0  0  0  0  0  0  0  0  0  0  0  0
    6.1770   -5.2340   23.6860 C   0  0  0  0  0  0  0  0  0  0  0  0
    6.1790   -3.7460   23.8520 C   0  0  0  0  0  0  0  0  0  0  0  0
    5.5220   -3.3200   25.0990 C   0  0  0  0  0  0  0  0  0  0  0  0
    4.6570   -2.4290   25.0180 O   0  0  0  0  0  0  0  0  0  0  0  0
    5.7730   -3.8370   26.3670 N   0  0  0  0  0  0  0  0  0  0  0  0
    4.7310   -4.6250   26.9760 C   0  0  0  0  0  0  0  0  0  0  0  0
    4.9510   -4.8990   28.4620 C   0  0  0  0  0  0  0  0  0  0  0  0
    5.6770   -4.0960   29.2790 C   0  0  0  0  0  0  0  0  0  0  0  0
    5.0980   -3.0050   29.8970 C   0  0  0  0  0  0  0  0  0  0  0  0
    3.8110   -2.8520   30.2980 N   0  0  0  0  0  0  0  0  0  0  0  0
    3.7700   -1.6450   30.8290 C   0  0  0  0  0  0  0  0  0  0  0  0
    5.0180   -1.0900   30.7470 C   0  0  0  0  0  0  0  0  0  0  0  0
    5.4420    0.1450   31.1760 C   0  0  0  0  0  0  0  0  0  0  0  0
    5.9080   -1.9770   30.1300 O   0  0  0  0  0  0  0  0  0  0  0  0
    6.7500   -3.7840   28.5490 C   0  0  0  0  0  0  0  0  0  0  0  0
    6.3640   -3.0140   27.3180 C   0  0  0  0  0  0  0  0  0  0  0  0
    7.5950   -3.2000   23.6860 C   0  0  0  0  0  0  0  0  0  0  0  0
    7.7760   -3.2540   22.1800 C   0  0  0  0  0  0  0  0  0  0  0  0
  1  2  1  0
  2  3  2  0
  2  4  1  0
  4  5  1  0
  5  6  1  0
  6  7  1  0
  7  8  1  0
  8  9  2  0
  8 10  1  0
 10 11  1  0
 11 12  1  0
 12 13  1  0
 13 14  1  0
 14 15  2  0
 15 16  1  0
 16 17  2  0
 17 18  1  0
 14 19  1  0
 17 19  1  0
 13 20  1  0
 10 21  1  0
 20 21  1  0
  7 22  1  0
  4 23  1  0
 22 23  1  0
M  END
