piperidine-amides-9980-covalent
     RDKit          3D

 26 27  0  0  0  0  0  0  0  0999 V2000
    7.0630   -3.3160   19.2780 C   0  0  0  0  0  0  0  0  0  0  0  0
    6.3750   -4.1250   20.2860 C   0  0  0  0  0  0  0  0  0  0  0  0
    5.3120   -4.6950   19.9310 O   0  0  0  0  0  0  0  0  0  0  0  0
    6.9190   -4.2850   21.5600 N   0  0  0  0  0  0  0  0  0  0  0  0
    7.7040   -3.2340   22.1710 C   0  0  0  0  0  0  0  0  0  0  0  0
    6.9090   -2.6850   23.3100 C   0  0  0  0  0  0  0  0  0  0  0  0
    6.5500   -3.7710   24.2720 C   0  0  0  0  0  0  0  0  0  0  0  0
    5.7690   -3.2200   25.3980 C   0  0  0  0  0  0  0  0  0  0  0  0
    4.5800   -2.8850   25.1920 O   0  0  0  0  0  0  0  0  0  0  0  0
    6.3040   -3.0640   26.6870 N   0  0  0  0  0  0  0  0  0  0  0  0
    6.3990   -1.7870   27.3580 C   0  0  0  0  0  0  0  0  0  0  0  0
    5.7100   -0.5780   26.7610 C   0  0  0  0  0  0  0  0  0  0  0  0
    5.7890    0.6400   27.4000 C   0  0  0  0  0  0  0  0  0  0  0  0
    6.4980    0.7890   28.5940 C   0  0  0  0  0  0  0  0  0  0  0  0
    6.5730    2.0180   29.2370 C   0  0  0  0  0  0  0  0  0  0  0  0
    5.7940    1.9930   30.3360 N   0  0  0  0  0  0  0  0  0  0  0  0
    4.4590    2.1300   30.3020 C   0  0  0  0  0  0  0  0  0  0  0  0
    3.6700    1.7950   29.2250 C   0  0  0  0  0  0  0  0  0  0  0  0
    3.7450    2.6430   31.3960 O   0  0  0  0  0  0  0  0  0  0  0  0
    6.2240    1.1420   31.2780 C   0  0  0  0  0  0  0  0  0  0  0  0
    5.5410   -0.2250   31.2520 C   0  0  0  0  0  0  0  0  0  0  0  0
    6.2330    1.8120   32.4830 C   0  0  0  0  0  0  0  0  0  0  0  0
    7.1360   -0.3260   29.1390 C   0  0  0  0  0  0  0  0  0  0  0  0
    7.0740   -1.5510   28.5310 C   0  0  0  0  0  0  0  0  0  0  0  0
    5.7440   -4.8410   23.5460 C   0  0  0  0  0  0  0  0  0  0  0  0
    6.5790   -5.4050   22.4050 C   0  0  0  0  0  0  0  0  0  0  0  0
  1  2  1  0
  2  3  2  0
  2  4  1  0
  4  5  1  0
  5  6  1  0
  6  7  1  0
  7  8  1  0
  8  9  2  0
  8 10  1  0
 10 11  1  0
 11 12  2  0
 12 13  1  0
 13 14  2  0
 14 15  1  0
 15 16  1  0
 16 17  1  0
 17 18  1  0
 17 19  2  0
 16 20  1  0
 20 21  1  0
 20 22  1  0
 14 23  1  0
 11 24  1  0
 23 24  2  0
  7 25  1  0
  4 26  1  0
 25 26  1  0
M  END
