piperidine-amides-19053-covalent
     RDKit          3D

 22 24  0  0  0  0  0  0  0  0999 V2000
    7.0600   -3.4090   19.3340 C   0  0  0  0  0  0  0  0  0  0  0  0
    6.3450   -4.1820   20.3230 C   0  0  0  0  0  0  0  0  0  0  0  0
    5.2770   -4.7440   19.9470 O   0  0  0  0  0  0  0  0  0  0  0  0
    6.8060   -4.3960   21.6390 N   0  0  0  0  0  0  0  0  0  0  0  0
    6.7210   -5.7930   22.1510 C   0  0  0  0  0  0  0  0  0  0  0  0
    6.1910   -5.5580   23.6100 C   0  0  0  0  0  0  0  0  0  0  0  0
    5.7240   -4.1450   23.5610 C   0  0  0  0  0  0  0  0  0  0  0  0
    4.5470   -3.8490   24.5830 C   0  0  0  0  0  0  0  0  0  0  0  0
    3.6760   -3.1910   24.0670 O   0  0  0  0  0  0  0  0  0  0  0  0
    4.8380   -4.3600   25.6830 N   0  0  0  0  0  0  0  0  0  0  0  0
    4.7780   -5.0750   26.8160 C   0  0  0  0  0  0  0  0  0  0  0  0
    5.0050   -4.7220   28.0100 C   0  0  0  0  0  0  0  0  0  0  0  0
    5.9510   -3.9330   27.5010 C   0  0  0  0  0  0  0  0  0  0  0  0
    6.9320   -3.4070   28.4100 C   0  0  0  0  0  0  0  0  0  0  0  0
    7.9280   -2.5450   27.5820 C   0  0  0  0  0  0  0  0  0  0  0  0
    8.6020   -2.3140   28.6000 C   0  0  0  0  0  0  0  0  0  0  0  0
    8.9310   -3.6870   28.6730 C   0  0  0  0  0  0  0  0  0  0  0  0
    7.9840   -2.2260   26.1990 C   0  0  0  0  0  0  0  0  0  0  0  0
    6.9270   -3.1050   26.7780 C   0  0  0  0  0  0  0  0  0  0  0  0
    6.0280   -3.6070   26.1000 C   0  0  0  0  0  0  0  0  0  0  0  0
    6.8600   -3.1340   23.4840 C   0  0  0  0  0  0  0  0  0  0  0  0
    7.5610   -3.3770   22.3460 C   0  0  0  0  0  0  0  0  0  0  0  0
  1  2  1  0
  2  3  2  0
  2  4  1  0
  4  5  1  0
  5  6  1  0
  6  7  1  0
  7  8  1  0
  8  9  2  0
  8 10  1  0
 10 11  1  0
 11 12  1  0
 12 13  1  0
 13 14  1  0
 14 15  2  0
 15 16  1  0
 16 17  1  0
 15 18  1  0
 18 19  2  0
 10 20  1  0
 13 20  2  0
 19 20  1  0
  7 21  1  0
  4 22  1  0
 21 22  1  0
M  END
