piperidine-amides-12173-covalent
     RDKit          3D

 25 26  0  0  0  0  0  0  0  0999 V2000
    7.1440   -3.2880   19.2440 C   0  0  0  0  0  0  0  0  0  0  0  0
    6.3360   -4.0170   20.2110 C   0  0  0  0  0  0  0  0  0  0  0  0
    5.2710   -4.5280   19.8770 O   0  0  0  0  0  0  0  0  0  0  0  0
    6.8250   -4.1850   21.5460 N   0  0  0  0  0  0  0  0  0  0  0  0
    7.6600   -3.1700   22.1330 C   0  0  0  0  0  0  0  0  0  0  0  0
    7.0260   -2.6490   23.3860 C   0  0  0  0  0  0  0  0  0  0  0  0
    6.5350   -3.8400   24.1920 C   0  0  0  0  0  0  0  0  0  0  0  0
    5.7740   -3.3300   25.3660 C   0  0  0  0  0  0  0  0  0  0  0  0
    4.5290   -3.2620   25.3680 O   0  0  0  0  0  0  0  0  0  0  0  0
    6.4830   -2.9130   26.5180 N   0  0  0  0  0  0  0  0  0  0  0  0
    6.5660   -1.5040   26.8230 C   0  0  0  0  0  0  0  0  0  0  0  0
    5.2960   -1.1260   27.5510 C   0  0  0  0  0  0  0  0  0  0  0  0
    4.4010   -2.1260   27.9880 C   0  0  0  0  0  0  0  0  0  0  0  0
    3.1990   -1.8250   28.6730 C   0  0  0  0  0  0  0  0  0  0  0  0
    2.9030   -0.5180   28.9110 C   0  0  0  0  0  0  0  0  0  0  0  0
    3.8380    0.4540   28.4510 C   0  0  0  0  0  0  0  0  0  0  0  0
    5.0050    0.2150   27.7910 C   0  0  0  0  0  0  0  0  0  0  0  0
    5.8680    1.2110   27.3740 C   0  0  0  0  0  0  0  0  0  0  0  0
    5.5170    2.8280   27.9530 S   0  0  0  0  0  0  0  0  0  0  0  0
    4.8430    2.8270   29.2840 O   0  0  0  0  0  0  0  0  0  0  0  0
    4.6540    3.5390   26.9710 O   0  0  0  0  0  0  0  0  0  0  0  0
    7.0180    3.6940   28.0650 N   0  0  0  0  0  0  0  0  0  0  0  0
    7.6200    3.6240   26.8550 C   0  0  0  0  0  0  0  0  0  0  0  0
    5.7700   -4.8530   23.4750 C   0  0  0  0  0  0  0  0  0  0  0  0
    6.4540   -5.3030   22.3620 C   0  0  0  0  0  0  0  0  0  0  0  0
  1  2  1  0
  2  3  2  0
  2  4  1  0
  4  5  1  0
  5  6  1  0
  6  7  1  0
  7  8  1  0
  8  9  2  0
  8 10  1  0
 10 11  1  0
 11 12  1  0
 12 13  2  0
 13 14  1  0
 14 15  2  0
 15 16  1  0
 12 17  1  0
 16 17  2  0
 17 18  1  0
 18 19  1  0
 19 20  2  0
 19 21  2  0
 19 22  1  0
 22 23  1  0
  7 24  1  0
  4 25  1  0
 24 25  1  0
M  END
