piperidine-amides-5135-covalent
     RDKit          3D

 22 23  0  0  0  0  0  0  0  0999 V2000
    7.1310   -3.2790   19.1580 C   0  0  0  0  0  0  0  0  0  0  0  0
    6.3980   -4.0240   20.2070 C   0  0  0  0  0  0  0  0  0  0  0  0
    5.3020   -4.5170   19.8760 O   0  0  0  0  0  0  0  0  0  0  0  0
    6.9510   -4.2140   21.4790 N   0  0  0  0  0  0  0  0  0  0  0  0
    7.6900   -3.1690   22.0910 C   0  0  0  0  0  0  0  0  0  0  0  0
    7.3120   -2.9650   23.4780 C   0  0  0  0  0  0  0  0  0  0  0  0
    5.9410   -3.4240   23.8090 C   0  0  0  0  0  0  0  0  0  0  0  0
    5.6900   -3.2700   25.2540 C   0  0  0  0  0  0  0  0  0  0  0  0
    4.6210   -2.7350   25.6100 O   0  0  0  0  0  0  0  0  0  0  0  0
    6.6240   -3.7310   26.1880 N   0  0  0  0  0  0  0  0  0  0  0  0
    6.8850   -5.1760   26.3380 C   0  0  0  0  0  0  0  0  0  0  0  0
    6.0540   -5.7710   27.4270 C   0  0  0  0  0  0  0  0  0  0  0  0
    5.8640   -4.9350   28.5970 C   0  0  0  0  0  0  0  0  0  0  0  0
    6.7030   -3.8640   28.6720 C   0  0  0  0  0  0  0  0  0  0  0  0
    6.4180   -2.5820   28.9960 C   0  0  0  0  0  0  0  0  0  0  0  0
    5.1730   -2.1530   29.3220 C   0  0  0  0  0  0  0  0  0  0  0  0
    7.6550   -1.8930   28.9070 N   0  0  0  0  0  0  0  0  0  0  0  0
    8.6000   -2.7380   28.5530 O   0  0  0  0  0  0  0  0  0  0  0  0
    8.0280   -4.0420   28.3870 C   0  0  0  0  0  0  0  0  0  0  0  0
    8.6970   -5.1910   28.0230 C   0  0  0  0  0  0  0  0  0  0  0  0
    5.6480   -4.8440   23.3530 C   0  0  0  0  0  0  0  0  0  0  0  0
    6.6030   -5.3240   22.3260 C   0  0  0  0  0  0  0  0  0  0  0  0
  1  2  1  0
  2  3  2  0
  2  4  1  0
  4  5  1  0
  5  6  1  0
  6  7  1  0
  7  8  1  0
  8  9  2  0
  8 10  1  0
 10 11  1  0
 11 12  1  0
 12 13  1  0
 13 14  1  0
 14 15  1  0
 15 16  1  0
 15 17  2  0
 17 18  1  0
 14 19  2  0
 18 19  1  0
 19 20  1  0
  7 21  1  0
  4 22  1  0
 21 22  1  0
M  END
