piperidine-amides-4868-covalent
     RDKit          3D

 23 25  0  0  0  0  0  0  0  0999 V2000
    7.1140   -3.3310   19.2290 C   0  0  0  0  0  0  0  0  0  0  0  0
    6.3490   -4.0780   20.2470 C   0  0  0  0  0  0  0  0  0  0  0  0
    5.2630   -4.5640   19.8860 O   0  0  0  0  0  0  0  0  0  0  0  0
    6.8680   -4.2760   21.5280 N   0  0  0  0  0  0  0  0  0  0  0  0
    7.6110   -3.2340   22.1620 C   0  0  0  0  0  0  0  0  0  0  0  0
    7.1040   -2.8180   23.4670 C   0  0  0  0  0  0  0  0  0  0  0  0
    6.4980   -3.9030   24.2570 C   0  0  0  0  0  0  0  0  0  0  0  0
    5.7850   -3.3500   25.4350 C   0  0  0  0  0  0  0  0  0  0  0  0
    4.5520   -3.1910   25.3520 O   0  0  0  0  0  0  0  0  0  0  0  0
    6.4660   -3.0090   26.6190 N   0  0  0  0  0  0  0  0  0  0  0  0
    6.3910   -1.6430   27.1820 C   0  0  0  0  0  0  0  0  0  0  0  0
    5.6890   -0.5490   26.4610 C   0  0  0  0  0  0  0  0  0  0  0  0
    5.6090    0.7940   27.0270 C   0  0  0  0  0  0  0  0  0  0  0  0
    6.2130    0.9910   28.2490 C   0  0  0  0  0  0  0  0  0  0  0  0
    6.3030    2.1260   29.0240 C   0  0  0  0  0  0  0  0  0  0  0  0
    5.7610    3.3140   28.6560 C   0  0  0  0  0  0  0  0  0  0  0  0
    7.0520    1.7430   30.1990 N   0  0  0  0  0  0  0  0  0  0  0  0
    7.3610    0.4810   30.0890 N   0  0  0  0  0  0  0  0  0  0  0  0
    8.1230   -0.2470   31.0820 C   0  0  0  0  0  0  0  0  0  0  0  0
    6.8750   -0.0000   28.9430 C   0  0  0  0  0  0  0  0  0  0  0  0
    7.0030   -1.3090   28.4820 C   0  0  0  0  0  0  0  0  0  0  0  0
    5.6700   -4.8700   23.5100 C   0  0  0  0  0  0  0  0  0  0  0  0
    6.4680   -5.4060   22.3520 C   0  0  0  0  0  0  0  0  0  0  0  0
  1  2  1  0
  2  3  2  0
  2  4  1  0
  4  5  1  0
  5  6  1  0
  6  7  1  0
  7  8  1  0
  8  9  2  0
  8 10  1  0
 10 11  1  0
 11 12  2  0
 12 13  1  0
 13 14  2  0
 14 15  1  0
 15 16  1  0
 15 17  2  0
 17 18  1  0
 18 19  1  0
 14 20  1  0
 18 20  1  0
 11 21  1  0
 20 21  2  0
  7 22  1  0
  4 23  1  0
 22 23  1  0
M  END
