piperidine-amides-32509-covalent
     RDKit          3D

 29 32  0  0  0  0  0  0  0  0999 V2000
    7.0210   -3.3370   19.4370 C   0  0  0  0  0  0  0  0  0  0  0  0
    6.3500   -4.2360   20.4140 C   0  0  0  0  0  0  0  0  0  0  0  0
    5.4000   -4.9250   20.0030 O   0  0  0  0  0  0  0  0  0  0  0  0
    6.8110   -4.3310   21.7600 N   0  0  0  0  0  0  0  0  0  0  0  0
    6.6440   -5.5620   22.5010 C   0  0  0  0  0  0  0  0  0  0  0  0
    6.2590   -5.2270   23.9600 C   0  0  0  0  0  0  0  0  0  0  0  0
    5.8940   -3.7810   24.0210 C   0  0  0  0  0  0  0  0  0  0  0  0
    4.9980   -3.3750   25.1790 C   0  0  0  0  0  0  0  0  0  0  0  0
    3.8140   -3.6190   24.9550 O   0  0  0  0  0  0  0  0  0  0  0  0
    5.3400   -2.7750   26.4210 N   0  0  0  0  0  0  0  0  0  0  0  0
    4.4620   -2.4470   27.4700 C   0  0  0  0  0  0  0  0  0  0  0  0
    4.7320   -2.8010   28.7740 C   0  0  0  0  0  0  0  0  0  0  0  0
    5.1250   -4.1750   28.7080 N   0  0  0  0  0  0  0  0  0  0  0  0
    4.2530   -5.2500   28.7650 C   0  0  0  0  0  0  0  0  0  0  0  0
    4.4400   -5.8840   29.9650 C   0  0  0  0  0  0  0  0  0  0  0  0
    5.5040   -6.8980   30.1130 C   0  0  0  0  0  0  0  0  0  0  0  0
    5.7640   -7.6300   31.4190 C   0  0  0  0  0  0  0  0  0  0  0  0
    6.5730   -8.7450   31.4460 O   0  0  0  0  0  0  0  0  0  0  0  0
    5.1810   -7.1630   32.5180 N   0  0  0  0  0  0  0  0  0  0  0  0
    5.1550   -8.0550   33.5080 C   0  0  0  0  0  0  0  0  0  0  0  0
    4.3270   -7.9570   34.5840 C   0  0  0  0  0  0  0  0  0  0  0  0
    3.3550   -6.8740   34.8170 C   0  0  0  0  0  0  0  0  0  0  0  0
    3.3290   -6.0530   33.5220 C   0  0  0  0  0  0  0  0  0  0  0  0
    4.0530   -6.2670   32.3530 C   0  0  0  0  0  0  0  0  0  0  0  0
    3.7130   -5.6660   31.1210 N   0  0  0  0  0  0  0  0  0  0  0  0
    6.2750   -4.4180   27.9180 C   0  0  0  0  0  0  0  0  0  0  0  0
    6.5470   -3.1780   27.0370 C   0  0  0  0  0  0  0  0  0  0  0  0
    7.1270   -2.9420   23.7910 C   0  0  0  0  0  0  0  0  0  0  0  0
    7.5590   -3.2160   22.3790 C   0  0  0  0  0  0  0  0  0  0  0  0
  1  2  1  0
  2  3  2  0
  2  4  1  0
  4  5  1  0
  5  6  1  0
  6  7  1  0
  7  8  1  0
  8  9  2  0
  8 10  1  0
 10 11  1  0
 11 12  1  0
 12 13  1  0
 13 14  1  0
 14 15  1  0
 15 16  2  0
 16 17  1  0
 17 18  2  0
 17 19  1  0
 19 20  1  0
 20 21  2  0
 21 22  1  0
 22 23  2  0
 19 24  1  0
 23 24  1  0
 15 25  1  0
 24 25  2  0
 13 26  1  0
 10 27  1  0
 26 27  1  0
  7 28  1  0
  4 29  1  0
 28 29  1  0
M  END
