piperidine-amides-3384-covalent
     RDKit          3D

 21 22  0  0  0  0  0  0  0  0999 V2000
    7.1630   -3.3260   19.2240 C   0  0  0  0  0  0  0  0  0  0  0  0
    6.3810   -4.0630   20.2000 C   0  0  0  0  0  0  0  0  0  0  0  0
    5.2840   -4.5160   19.8880 O   0  0  0  0  0  0  0  0  0  0  0  0
    6.9340   -4.3330   21.4940 N   0  0  0  0  0  0  0  0  0  0  0  0
    6.4480   -5.4540   22.2320 C   0  0  0  0  0  0  0  0  0  0  0  0
    5.7210   -4.9380   23.4380 C   0  0  0  0  0  0  0  0  0  0  0  0
    6.5410   -3.8220   24.0900 C   0  0  0  0  0  0  0  0  0  0  0  0
    5.7570   -3.2370   25.1970 C   0  0  0  0  0  0  0  0  0  0  0  0
    4.9250   -2.3380   25.0010 O   0  0  0  0  0  0  0  0  0  0  0  0
    5.9570   -3.7320   26.4960 N   0  0  0  0  0  0  0  0  0  0  0  0
    5.7720   -2.8600   27.6210 C   0  0  0  0  0  0  0  0  0  0  0  0
    5.7940   -3.7070   28.8500 C   0  0  0  0  0  0  0  0  0  0  0  0
    4.8040   -4.6630   28.9750 C   0  0  0  0  0  0  0  0  0  0  0  0
    3.8460   -4.4780   29.7670 O   0  0  0  0  0  0  0  0  0  0  0  0
    4.7690   -5.8470   28.2740 O   0  0  0  0  0  0  0  0  0  0  0  0
    5.3640   -7.0500   28.6510 C   0  0  0  0  0  0  0  0  0  0  0  0
    4.5030   -2.0560   27.4380 C   0  0  0  0  0  0  0  0  0  0  0  0
    5.1990   -0.8400   27.4550 C   0  0  0  0  0  0  0  0  0  0  0  0
    6.3420   -1.5350   27.6380 C   0  0  0  0  0  0  0  0  0  0  0  0
    6.8090   -2.7100   23.0900 C   0  0  0  0  0  0  0  0  0  0  0  0
    7.6540   -3.2570   22.1440 C   0  0  0  0  0  0  0  0  0  0  0  0
  1  2  1  0
  2  3  2  0
  2  4  1  0
  4  5  1  0
  5  6  1  0
  6  7  1  0
  7  8  1  0
  8  9  2  0
  8 10  1  0
 11 10  1  0
 11 12  1  0
 12 13  1  0
 13 14  2  0
 13 15  1  0
 15 16  1  0
 11 17  1  0
 17 18  1  0
 11 19  1  0
 18 19  1  0
  7 20  1  0
  4 21  1  0
 20 21  1  0
M  END
