piperidine-amides-8515-covalent
     RDKit          3D

 24 25  0  0  0  0  0  0  0  0999 V2000
    7.0860   -3.2670   19.2220 C   0  0  0  0  0  0  0  0  0  0  0  0
    6.3470   -4.0250   20.2370 C   0  0  0  0  0  0  0  0  0  0  0  0
    5.2850   -4.5670   19.8920 O   0  0  0  0  0  0  0  0  0  0  0  0
    6.8680   -4.1720   21.5520 N   0  0  0  0  0  0  0  0  0  0  0  0
    7.6470   -3.0980   22.1170 C   0  0  0  0  0  0  0  0  0  0  0  0
    7.5660   -3.1480   23.6130 C   0  0  0  0  0  0  0  0  0  0  0  0
    6.1710   -3.6250   23.9340 C   0  0  0  0  0  0  0  0  0  0  0  0
    5.8050   -3.3290   25.3530 C   0  0  0  0  0  0  0  0  0  0  0  0
    4.9660   -2.4420   25.5180 O   0  0  0  0  0  0  0  0  0  0  0  0
    6.4020   -4.0690   26.3760 N   0  0  0  0  0  0  0  0  0  0  0  0
    7.7480   -3.9000   26.8050 C   0  0  0  0  0  0  0  0  0  0  0  0
    8.1760   -4.8850   27.7120 C   0  0  0  0  0  0  0  0  0  0  0  0
    7.2770   -5.8120   28.1790 C   0  0  0  0  0  0  0  0  0  0  0  0
    6.2710   -5.4220   29.0490 C   0  0  0  0  0  0  0  0  0  0  0  0
    6.3080   -6.2040   30.1990 O   0  0  0  0  0  0  0  0  0  0  0  0
    5.1120   -6.8160   30.4820 C   0  0  0  0  0  0  0  0  0  0  0  0
    4.1340   -7.4510   29.4690 C   0  0  0  0  0  0  0  0  0  0  0  0
    2.8610   -8.0890   29.8230 C   0  0  0  0  0  0  0  0  0  0  0  0
    2.4210   -8.1640   31.2480 C   0  0  0  0  0  0  0  0  0  0  0  0
    0.9250   -8.9040   31.7930 Cl  0  0  0  0  0  0  0  0  0  0  0  0
    3.4370   -7.5170   32.2270 C   0  0  0  0  0  0  0  0  0  0  0  0
    4.6480   -6.9050   31.9300 C   0  0  0  0  0  0  0  0  0  0  0  0
    6.1540   -5.1050   23.6990 C   0  0  0  0  0  0  0  0  0  0  0  0
    6.5150   -5.3790   22.2630 C   0  0  0  0  0  0  0  0  0  0  0  0
  1  2  1  0
  2  3  2  0
  2  4  1  0
  4  5  1  0
  5  6  1  0
  6  7  1  0
  7  8  1  0
  8  9  2  0
  8 10  1  0
 10 11  1  0
 11 12  1  0
 12 13  1  0
 13 14  1  0
 14 15  1  0
 15 16  1  0
 16 17  2  0
 17 18  1  0
 18 19  2  0
 19 20  1  0
 19 21  1  0
 16 22  1  0
 21 22  2  0
  7 23  1  0
  4 24  1  0
 23 24  1  0
M  END
