piperidine-amides-13026-covalent
     RDKit          3D

 23 24  0  0  0  0  0  0  0  0999 V2000
    7.0850   -3.1480   19.1020 C   0  0  0  0  0  0  0  0  0  0  0  0
    6.2210   -3.7630   20.1440 C   0  0  0  0  0  0  0  0  0  0  0  0
    5.1840   -4.3270   19.7540 O   0  0  0  0  0  0  0  0  0  0  0  0
    6.5120   -3.7620   21.5100 N   0  0  0  0  0  0  0  0  0  0  0  0
    5.6660   -4.5740   22.3190 C   0  0  0  0  0  0  0  0  0  0  0  0
    5.2170   -3.9660   23.5590 C   0  0  0  0  0  0  0  0  0  0  0  0
    6.3100   -3.3030   24.2680 C   0  0  0  0  0  0  0  0  0  0  0  0
    5.8620   -2.9150   25.6360 C   0  0  0  0  0  0  0  0  0  0  0  0
    4.9960   -2.0280   25.7360 O   0  0  0  0  0  0  0  0  0  0  0  0
    6.3720   -3.5610   26.8000 N   0  0  0  0  0  0  0  0  0  0  0  0
    6.3810   -5.0460   26.8900 C   0  0  2  0  0  0  0  0  0  0  0  0
    5.1610   -5.5590   27.5400 C   0  0  0  0  0  0  0  0  0  0  0  0
    7.5140   -5.5680   27.6860 C   0  0  0  0  0  0  0  0  0  0  0  0
    7.7970   -4.9280   28.7480 O   0  0  0  0  0  0  0  0  0  0  0  0
    6.4490   -5.4000   25.5020 C   0  0  0  0  0  0  0  0  0  0  0  0
    5.4640   -6.1140   24.8150 C   0  0  0  0  0  0  0  0  0  0  0  0
    5.6200   -6.4070   23.4760 C   0  0  0  0  0  0  0  0  0  0  0  0
    6.7480   -5.9750   22.8340 C   0  0  0  0  0  0  0  0  0  0  0  0
    7.0690   -6.1830   21.4570 O   0  0  0  0  0  0  0  0  0  0  0  0
    7.6880   -5.2790   23.4800 C   0  0  0  0  0  0  0  0  0  0  0  0
    7.5380   -5.0030   24.8060 C   0  0  0  0  0  0  0  0  0  0  0  0
    6.9070   -2.2350   23.4370 C   0  0  0  0  0  0  0  0  0  0  0  0
    7.4850   -2.8440   22.1610 C   0  0  0  0  0  0  0  0  0  0  0  0
  1  2  1  0
  2  3  2  0
  2  4  1  0
  4  5  1  0
  5  6  1  0
  6  7  1  0
  7  8  1  0
  8  9  2  0
  8 10  1  0
 11 10  1  0
 11 12  1  1
 11 13  1  0
 13 14  1  0
 11 15  1  0
 15 16  2  0
 16 17  1  0
 17 18  2  0
 18 19  1  0
 18 20  1  0
 15 21  1  0
 20 21  2  0
  7 22  1  0
  4 23  1  0
 22 23  1  0
M  END
