piperidine-amides-33764-covalent
     RDKit          3D

 27 29  0  0  0  0  0  0  0  0999 V2000
    7.0270   -3.3710   19.3590 C   0  0  0  0  0  0  0  0  0  0  0  0
    6.4000   -4.2380   20.3760 C   0  0  0  0  0  0  0  0  0  0  0  0
    5.3920   -4.8810   19.9950 O   0  0  0  0  0  0  0  0  0  0  0  0
    6.9320   -4.3790   21.6960 N   0  0  0  0  0  0  0  0  0  0  0  0
    7.6680   -3.2960   22.2640 C   0  0  0  0  0  0  0  0  0  0  0  0
    7.3510   -3.0310   23.6600 C   0  0  0  0  0  0  0  0  0  0  0  0
    6.1190   -3.7070   24.1040 C   0  0  0  0  0  0  0  0  0  0  0  0
    5.5970   -3.1660   25.4200 C   0  0  0  0  0  0  0  0  0  0  0  0
    5.0510   -2.0550   25.3990 O   0  0  0  0  0  0  0  0  0  0  0  0
    5.6320   -3.8240   26.6740 N   0  0  0  0  0  0  0  0  0  0  0  0
    6.4220   -3.5780   27.7680 C   0  0  0  0  0  0  0  0  0  0  0  0
    6.8210   -4.7760   28.4740 C   0  0  0  0  0  0  0  0  0  0  0  0
    5.5810   -5.3330   29.1390 C   0  0  0  0  0  0  0  0  0  0  0  0
    4.9560   -4.4230   29.9570 F   0  0  0  0  0  0  0  0  0  0  0  0
    5.9000   -6.5690   29.6760 C   0  0  0  0  0  0  0  0  0  0  0  0
    4.4990   -6.8320   30.2310 C   0  0  0  0  0  0  0  0  0  0  0  0
    3.8650   -7.6970   29.2050 C   0  0  0  0  0  0  0  0  0  0  0  0
    2.4450   -7.9960   29.7450 C   0  0  0  0  0  0  0  0  0  0  0  0
    1.7310   -7.5650   31.0220 C   0  0  0  0  0  0  0  0  0  0  0  0
    0.0940   -8.0750   31.3670 Cl  0  0  0  0  0  0  0  0  0  0  0  0
    2.5350   -6.6720   31.9640 C   0  0  0  0  0  0  0  0  0  0  0  0
    1.8200   -6.1140   33.4630 Cl  0  0  0  0  0  0  0  0  0  0  0  0
    3.9480   -6.3230   31.5190 C   0  0  0  0  0  0  0  0  0  0  0  0
    4.6660   -5.4410   28.1030 C   0  0  0  0  0  0  0  0  0  0  0  0
    4.4820   -4.2290   27.4170 C   0  0  0  0  0  0  0  0  0  0  0  0
    6.1360   -5.1850   23.9010 C   0  0  0  0  0  0  0  0  0  0  0  0
    6.5910   -5.5440   22.4910 C   0  0  0  0  0  0  0  0  0  0  0  0
  1  2  1  0
  2  3  2  0
  2  4  1  0
  4  5  1  0
  5  6  1  0
  6  7  1  0
  7  8  1  0
  8  9  2  0
  8 10  1  0
 10 11  1  0
 11 12  1  0
 12 13  1  0
 13 14  1  0
 13 15  1  0
 15 16  1  0
 16 17  2  0
 17 18  1  0
 18 19  2  0
 19 20  1  0
 19 21  1  0
 21 22  1  0
 16 23  1  0
 21 23  2  0
 13 24  1  0
 10 25  1  0
 24 25  1  0
  7 26  1  0
  4 27  1  0
 26 27  1  0
M  END
