piperidine-amides-34188-covalent
     RDKit          3D

 31 34  0  0  0  0  0  0  0  0999 V2000
    7.0560   -3.3530   19.3190 C   0  0  0  0  0  0  0  0  0  0  0  0
    6.4000   -4.2100   20.3220 C   0  0  0  0  0  0  0  0  0  0  0  0
    5.4040   -4.8960   19.9950 O   0  0  0  0  0  0  0  0  0  0  0  0
    6.9120   -4.2970   21.6280 N   0  0  0  0  0  0  0  0  0  0  0  0
    7.7610   -3.2240   22.1380 C   0  0  0  0  0  0  0  0  0  0  0  0
    7.5350   -3.1010   23.6490 C   0  0  0  0  0  0  0  0  0  0  0  0
    6.1760   -3.6970   23.8740 C   0  0  0  0  0  0  0  0  0  0  0  0
    5.5870   -3.3050   25.1710 C   0  0  0  0  0  0  0  0  0  0  0  0
    4.6230   -2.5170   25.1400 O   0  0  0  0  0  0  0  0  0  0  0  0
    6.0480   -3.7860   26.4070 N   0  0  0  0  0  0  0  0  0  0  0  0
    6.4100   -2.7910   27.3480 C   0  0  0  0  0  0  0  0  0  0  0  0
    6.6950   -3.4060   28.7120 C   0  0  0  0  0  0  0  0  0  0  0  0
    6.4440   -4.7090   29.0400 C   0  0  0  0  0  0  0  0  0  0  0  0
    5.5860   -5.4150   28.2800 C   0  0  0  0  0  0  0  0  0  0  0  0
    4.8920   -6.5680   28.7400 C   0  0  0  0  0  0  0  0  0  0  0  0
    5.2170   -6.8170   30.0190 N   0  0  0  0  0  0  0  0  0  0  0  0
    4.2450   -6.5090   31.0240 C   0  0  0  0  0  0  0  0  0  0  0  0
    3.8350   -5.2560   31.3290 O   0  0  0  0  0  0  0  0  0  0  0  0
    3.5480   -7.5710   31.8490 C   0  0  0  0  0  0  0  0  0  0  0  0
    2.6620   -7.5440   30.6740 C   0  0  0  0  0  0  0  0  0  0  0  0
    1.4300   -8.4040   30.5040 C   0  0  0  0  0  0  0  0  0  0  0  0
    1.4270   -9.2030   31.8030 C   0  0  0  0  0  0  0  0  0  0  0  0
    0.3920  -10.0880   31.9320 F   0  0  0  0  0  0  0  0  0  0  0  0
    2.3590   -9.1460   32.8930 C   0  0  0  0  0  0  0  0  0  0  0  0
    3.4230   -8.3260   32.9100 C   0  0  0  0  0  0  0  0  0  0  0  0
    4.0230   -7.2590   27.9080 C   0  0  0  0  0  0  0  0  0  0  0  0
    3.7910   -6.8100   26.5020 C   0  0  0  0  0  0  0  0  0  0  0  0
    4.5130   -5.5890   25.9980 C   0  0  0  0  0  0  0  0  0  0  0  0
    5.3550   -4.9500   26.8630 C   0  0  0  0  0  0  0  0  0  0  0  0
    6.1830   -5.1720   23.6620 C   0  0  0  0  0  0  0  0  0  0  0  0
    6.6990   -5.4730   22.4220 C   0  0  0  0  0  0  0  0  0  0  0  0
  1  2  1  0
  2  3  2  0
  2  4  1  0
  4  5  1  0
  5  6  1  0
  6  7  1  0
  7  8  1  0
  8  9  2  0
  8 10  1  0
 10 11  1  0
 11 12  1  0
 12 13  1  0
 13 14  1  0
 14 15  2  0
 15 16  1  0
 16 17  1  0
 17 18  2  0
 17 19  1  0
 19 20  2  0
 20 21  1  0
 21 22  2  0
 22 23  1  0
 22 24  1  0
 19 25  1  0
 24 25  2  0
 15 26  1  0
 26 27  2  0
 27 28  1  0
 10 29  1  0
 14 29  1  0
 28 29  2  0
  7 30  1  0
  4 31  1  0
 30 31  1  0
M  END
