piperidine-amides-18880-covalent
     RDKit          3D

 21 21  0  0  0  0  0  0  0  0999 V2000
    7.2050   -3.3040   19.3470 C   0  0  0  0  0  0  0  0  0  0  0  0
    6.4120   -4.0580   20.2810 C   0  0  0  0  0  0  0  0  0  0  0  0
    5.3070   -4.5450   19.8900 O   0  0  0  0  0  0  0  0  0  0  0  0
    6.8560   -4.3160   21.5870 N   0  0  0  0  0  0  0  0  0  0  0  0
    7.7350   -3.3120   22.2310 C   0  0  0  0  0  0  0  0  0  0  0  0
    6.7550   -2.7260   23.3130 C   0  0  0  0  0  0  0  0  0  0  0  0
    6.3210   -3.9120   24.1500 C   0  0  0  0  0  0  0  0  0  0  0  0
    5.7090   -3.3690   25.5180 C   0  0  0  0  0  0  0  0  0  0  0  0
    4.4830   -3.3880   25.4700 O   0  0  0  0  0  0  0  0  0  0  0  0
    6.6540   -3.0400   26.3180 N   0  0  0  0  0  0  0  0  0  0  0  0
    7.5010   -2.2030   26.9800 C   0  0  0  0  0  0  0  0  0  0  0  0
    7.6640   -1.7480   28.2660 C   0  0  0  0  0  0  0  0  0  0  0  0
    7.0010   -4.3710   26.8430 C   0  0  2  0  0  0  0  0  0  0  0  0
    6.0680   -5.1940   27.6580 C   0  0  0  0  0  0  0  0  0  0  0  0
    5.5040   -5.8500   26.3920 C   0  0  0  0  0  0  0  0  0  0  0  0
    8.0020   -4.3210   27.9280 C   0  0  0  0  0  0  0  0  0  0  0  0
    6.9890   -3.9210   28.5290 O   0  0  0  0  0  0  0  0  0  0  0  0
    8.6640   -4.7890   26.7900 O   0  0  0  0  0  0  0  0  0  0  0  0
    9.3980   -5.9370   26.7940 C   0  0  0  0  0  0  0  0  0  0  0  0
    5.6090   -4.9630   23.4610 C   0  0  0  0  0  0  0  0  0  0  0  0
    6.5380   -5.4650   22.3220 C   0  0  0  0  0  0  0  0  0  0  0  0
  1  2  1  0
  2  3  2  0
  2  4  1  0
  4  5  1  0
  5  6  1  0
  6  7  1  0
  7  8  1  0
  8  9  2  0
  8 10  1  0
 10 11  1  0
 11 12  1  0
 10 13  1  0
 13 14  1  1
 14 15  1  0
 13 16  1  0
 16 17  2  0
 16 18  1  0
 18 19  1  0
  7 20  1  0
  4 21  1  0
 20 21  1  0
M  END
