piperidine-amides-25912-covalent
     RDKit          3D

 25 27  0  0  0  0  0  0  0  0999 V2000
    7.1630   -3.3360   19.2740 C   0  0  0  0  0  0  0  0  0  0  0  0
    6.4180   -4.1490   20.2570 C   0  0  0  0  0  0  0  0  0  0  0  0
    5.3320   -4.6100   19.9130 O   0  0  0  0  0  0  0  0  0  0  0  0
    7.0130   -4.4090   21.4890 N   0  0  0  0  0  0  0  0  0  0  0  0
    6.6290   -5.5290   22.2840 C   0  0  0  0  0  0  0  0  0  0  0  0
    5.8190   -5.0120   23.4350 C   0  0  0  0  0  0  0  0  0  0  0  0
    6.5540   -3.8590   24.1400 C   0  0  0  0  0  0  0  0  0  0  0  0
    5.6380   -3.3530   25.1590 C   0  0  0  0  0  0  0  0  0  0  0  0
    4.7920   -2.5030   24.8740 O   0  0  0  0  0  0  0  0  0  0  0  0
    5.7030   -3.8390   26.4520 N   0  0  0  0  0  0  0  0  0  0  0  0
    6.4200   -3.0950   27.4020 C   0  0  0  0  0  0  0  0  0  0  0  0
    6.6980   -4.1250   28.4580 C   0  0  0  0  0  0  0  0  0  0  0  0
    5.7980   -4.2630   29.4260 C   0  0  0  0  0  0  0  0  0  0  0  0
    5.4280   -3.2230   30.0450 O   0  0  0  0  0  0  0  0  0  0  0  0
    4.0640   -3.1200   30.3040 C   0  0  0  0  0  0  0  0  0  0  0  0
    3.5290   -1.8350   29.9910 N   0  0  0  0  0  0  0  0  0  0  0  0
    2.1520   -1.5330   30.1910 C   0  0  0  0  0  0  0  0  0  0  0  0
    1.1330   -2.5080   30.7420 C   0  0  0  0  0  0  0  0  0  0  0  0
    1.6830   -3.8720   31.0800 C   0  0  0  0  0  0  0  0  0  0  0  0
    3.1500   -4.2160   30.8730 C   0  0  0  0  0  0  0  0  0  0  0  0
    3.4690   -5.6150   31.2770 C   0  0  0  0  0  0  0  0  0  0  0  0
    4.9790   -4.8780   28.5230 C   0  0  0  0  0  0  0  0  0  0  0  0
    4.5360   -4.1840   27.2530 C   0  0  0  0  0  0  0  0  0  0  0  0
    6.9220   -2.7410   23.1990 C   0  0  0  0  0  0  0  0  0  0  0  0
    7.7720   -3.3800   22.1590 C   0  0  0  0  0  0  0  0  0  0  0  0
  1  2  1  0
  2  3  2  0
  2  4  1  0
  4  5  1  0
  5  6  1  0
  6  7  1  0
  7  8  1  0
  8  9  2  0
  8 10  1  0
 10 11  1  0
 11 12  1  0
 12 13  1  0
 13 14  1  0
 14 15  1  0
 15 16  2  0
 16 17  1  0
 17 18  2  0
 18 19  1  0
 15 20  1  0
 19 20  2  0
 20 21  1  0
 13 22  1  0
 10 23  1  0
 22 23  1  0
  7 24  1  0
  4 25  1  0
 24 25  1  0
M  END
