piperidine-amides-13300-covalent
     RDKit          3D

 25 27  0  0  0  0  0  0  0  0999 V2000
    7.0300   -3.3530   19.3190 C   0  0  0  0  0  0  0  0  0  0  0  0
    6.3840   -4.1880   20.3560 C   0  0  0  0  0  0  0  0  0  0  0  0
    5.3850   -4.8390   19.9850 O   0  0  0  0  0  0  0  0  0  0  0  0
    6.9020   -4.2720   21.6630 N   0  0  0  0  0  0  0  0  0  0  0  0
    6.6340   -5.4200   22.4740 C   0  0  0  0  0  0  0  0  0  0  0  0
    6.0530   -5.0850   23.7760 C   0  0  0  0  0  0  0  0  0  0  0  0
    6.0650   -3.6310   24.0450 C   0  0  0  0  0  0  0  0  0  0  0  0
    5.5430   -3.2950   25.4020 C   0  0  0  0  0  0  0  0  0  0  0  0
    4.3090   -3.3270   25.5470 O   0  0  0  0  0  0  0  0  0  0  0  0
    6.3600   -2.9480   26.5020 N   0  0  0  0  0  0  0  0  0  0  0  0
    6.6890   -1.5450   26.8800 C   0  0  2  0  0  0  0  0  0  0  0  0
    7.0530   -1.3560   28.2790 C   0  0  0  0  0  0  0  0  0  0  0  0
    6.3770   -0.1670   28.7480 C   0  0  2  0  0  0  0  0  0  0  0  0
    5.5760   -0.3660   29.8570 C   0  0  0  0  0  0  0  0  0  0  0  0
    6.1820    0.4490   30.8250 N   0  0  0  0  0  0  0  0  0  0  0  0
    5.8800    1.7930   31.1250 C   0  0  0  0  0  0  0  0  0  0  0  0
    6.7400    2.0510   32.1030 C   0  0  0  0  0  0  0  0  0  0  0  0
    6.8570    3.6180   32.9240 Cl  0  0  0  0  0  0  0  0  0  0  0  0
    7.5190    0.9390   32.3840 C   0  0  0  0  0  0  0  0  0  0  0  0
    7.1340   -0.0930   31.5340 N   0  0  0  0  0  0  0  0  0  0  0  0
    5.6920    0.4690   27.6910 C   0  0  0  0  0  0  0  0  0  0  0  0
    5.6640   -0.5070   26.6430 C   0  0  1  0  0  0  0  0  0  0  0  0
    5.7260   -0.0540   25.4950 O   0  0  0  0  0  0  0  0  0  0  0  0
    7.3460   -2.9670   23.7140 C   0  0  0  0  0  0  0  0  0  0  0  0
    7.7120   -3.1980   22.2650 C   0  0  0  0  0  0  0  0  0  0  0  0
  1  2  1  0
  2  3  2  0
  2  4  1  0
  4  5  1  0
  5  6  1  0
  6  7  1  0
  7  8  1  0
  8  9  2  0
  8 10  1  0
 11 10  1  1
 11 12  1  0
 12 13  1  0
 13 14  1  1
 14 15  1  0
 15 16  1  0
 16 17  2  0
 17 18  1  0
 17 19  1  0
 15 20  1  0
 19 20  2  0
 13 21  1  0
 11 22  1  0
 21 22  1  0
 22 23  1  6
  7 24  1  0
  4 25  1  0
 24 25  1  0
M  END
