piperidine-amides-17012-covalent
     RDKit          3D

 20 21  0  0  0  0  0  0  0  0999 V2000
    7.0490   -3.4010   19.3990 C   0  0  0  0  0  0  0  0  0  0  0  0
    6.3890   -4.2470   20.4060 C   0  0  0  0  0  0  0  0  0  0  0  0
    5.3980   -4.9030   20.0030 O   0  0  0  0  0  0  0  0  0  0  0  0
    6.8800   -4.3520   21.7430 N   0  0  0  0  0  0  0  0  0  0  0  0
    6.6150   -5.5420   22.4840 C   0  0  0  0  0  0  0  0  0  0  0  0
    6.2380   -5.2880   23.8760 C   0  0  0  0  0  0  0  0  0  0  0  0
    6.1560   -3.8490   24.1860 C   0  0  0  0  0  0  0  0  0  0  0  0
    5.4860   -3.5170   25.5120 C   0  0  0  0  0  0  0  0  0  0  0  0
    4.3660   -2.9850   25.4320 O   0  0  0  0  0  0  0  0  0  0  0  0
    5.9820   -3.7280   26.8360 N   0  0  0  0  0  0  0  0  0  0  0  0
    5.7690   -2.8880   27.9270 C   0  0  0  0  0  0  0  0  0  0  0  0
    5.4310   -3.5780   29.1540 C   0  0  0  0  0  0  0  0  0  0  0  0
    4.6630   -4.6770   29.1670 N   0  0  0  0  0  0  0  0  0  0  0  0
    3.8210   -5.1480   30.2390 C   0  0  0  0  0  0  0  0  0  0  0  0
    2.9150   -6.0490   29.7220 C   0  0  0  0  0  0  0  0  0  0  0  0
    5.2380   -5.6540   28.3180 C   0  0  2  0  0  0  0  0  0  0  0  0
    6.0490   -6.6510   29.0870 C   0  0  0  0  0  0  0  0  0  0  0  0
    6.2360   -5.0470   27.3410 C   0  0  0  0  0  0  0  0  0  0  0  0
    7.4310   -3.1110   23.8600 C   0  0  0  0  0  0  0  0  0  0  0  0
    7.6530   -3.2730   22.3510 C   0  0  0  0  0  0  0  0  0  0  0  0
  1  2  1  0
  2  3  2  0
  2  4  1  0
  4  5  1  0
  5  6  1  0
  6  7  1  0
  7  8  1  0
  8  9  2  0
  8 10  1  0
 10 11  1  0
 11 12  1  0
 12 13  1  0
 13 14  1  0
 14 15  1  0
 13 16  1  0
 16 17  1  1
 10 18  1  0
 16 18  1  0
  7 19  1  0
  4 20  1  0
 19 20  1  0
M  END
