piperidine-amides-1141-covalent
     RDKit          3D

 23 25  0  0  0  0  0  0  0  0999 V2000
    7.0150   -3.2960   19.2960 C   0  0  0  0  0  0  0  0  0  0  0  0
    6.2690   -4.1470   20.2650 C   0  0  0  0  0  0  0  0  0  0  0  0
    5.2260   -4.6980   19.9100 O   0  0  0  0  0  0  0  0  0  0  0  0
    6.7820   -4.3580   21.5490 N   0  0  0  0  0  0  0  0  0  0  0  0
    7.5430   -3.3300   22.2030 C   0  0  0  0  0  0  0  0  0  0  0  0
    7.2110   -3.3930   23.6860 C   0  0  0  0  0  0  0  0  0  0  0  0
    5.8700   -4.0050   23.8570 C   0  0  0  0  0  0  0  0  0  0  0  0
    5.2310   -3.6140   25.1300 C   0  0  0  0  0  0  0  0  0  0  0  0
    4.0000   -3.6220   25.1690 O   0  0  0  0  0  0  0  0  0  0  0  0
    6.0130   -3.2390   26.2100 N   0  0  0  0  0  0  0  0  0  0  0  0
    6.7550   -2.0570   26.2310 C   0  0  0  0  0  0  0  0  0  0  0  0
    7.7800   -1.9650   25.2960 C   0  0  0  0  0  0  0  0  0  0  0  0
    8.8390   -2.9030   25.3510 C   0  0  0  0  0  0  0  0  0  0  0  0
    9.9150   -2.9040   24.4850 C   0  0  0  0  0  0  0  0  0  0  0  0
    9.9810   -1.8870   23.4460 C   0  0  0  0  0  0  0  0  0  0  0  0
   11.4750   -1.8260   22.2380 Br  0  0  0  0  0  0  0  0  0  0  0  0
    8.8350   -0.9010   23.3810 C   0  0  0  0  0  0  0  0  0  0  0  0
    9.0370    0.0930   22.2340 C   0  0  0  0  0  0  0  0  0  0  0  0
    7.7660   -0.9690   24.3050 C   0  0  0  0  0  0  0  0  0  0  0  0
    7.0410   -1.4780   27.5540 C   0  0  0  0  0  0  0  0  0  0  0  0
    6.2180   -0.7110   26.5420 C   0  0  0  0  0  0  0  0  0  0  0  0
    6.0530   -5.4350   23.6330 C   0  0  0  0  0  0  0  0  0  0  0  0
    6.5790   -5.6290   22.1990 C   0  0  0  0  0  0  0  0  0  0  0  0
  1  2  1  0
  2  3  2  0
  2  4  1  0
  4  5  1  0
  5  6  1  0
  6  7  1  0
  7  8  1  0
  8  9  2  0
  8 10  1  0
 11 10  1  0
 11 12  1  0
 12 13  2  0
 13 14  1  0
 14 15  2  0
 15 16  1  0
 15 17  1  0
 17 18  1  0
 12 19  1  0
 17 19  2  0
 11 20  1  0
 11 21  1  0
 20 21  1  0
  7 22  1  0
  4 23  1  0
 22 23  1  0
M  END
