piperidine-amides-23407-covalent
     RDKit          3D

 24 26  0  0  0  0  0  0  0  0999 V2000
    7.0880   -3.3300   19.2870 C   0  0  0  0  0  0  0  0  0  0  0  0
    6.3990   -4.1600   20.2840 C   0  0  0  0  0  0  0  0  0  0  0  0
    5.3110   -4.6670   19.9280 O   0  0  0  0  0  0  0  0  0  0  0  0
    6.9630   -4.4420   21.5560 N   0  0  0  0  0  0  0  0  0  0  0  0
    6.5240   -5.6270   22.1950 C   0  0  0  0  0  0  0  0  0  0  0  0
    5.8000   -5.3640   23.4250 C   0  0  0  0  0  0  0  0  0  0  0  0
    6.2680   -4.1830   24.1600 C   0  0  0  0  0  0  0  0  0  0  0  0
    5.2430   -3.8170   25.2060 C   0  0  0  0  0  0  0  0  0  0  0  0
    4.3550   -2.9910   24.9360 O   0  0  0  0  0  0  0  0  0  0  0  0
    5.2900   -4.3950   26.4930 N   0  0  0  0  0  0  0  0  0  0  0  0
    4.4160   -4.1630   27.5510 C   0  0  0  0  0  0  0  0  0  0  0  0
    4.9270   -4.5500   28.8510 C   0  0  0  0  0  0  0  0  0  0  0  0
    5.7880   -5.4900   28.8220 O   0  0  0  0  0  0  0  0  0  0  0  0
    6.8810   -5.2760   27.9990 C   0  0  0  0  0  0  0  0  0  0  0  0
    6.5650   -4.3620   26.9970 C   0  0  1  0  0  0  0  0  0  0  0  0
    7.5260   -5.0420   26.0090 C   0  0  0  0  0  0  0  0  0  0  0  0
    6.6140   -2.8710   27.4060 C   0  0  0  0  0  0  0  0  0  0  0  0
    6.4430   -1.9440   26.2210 C   0  0  0  0  0  0  0  0  0  0  0  0
    6.4220   -0.4620   26.3590 C   0  0  0  0  0  0  0  0  0  0  0  0
    6.5890    0.0690   27.7750 C   0  0  0  0  0  0  0  0  0  0  0  0
    6.7670   -0.9000   28.9750 C   0  0  0  0  0  0  0  0  0  0  0  0
    6.7600   -2.3610   28.6650 C   0  0  0  0  0  0  0  0  0  0  0  0
    6.6630   -3.0290   23.2780 C   0  0  0  0  0  0  0  0  0  0  0  0
    7.6040   -3.4150   22.3340 C   0  0  0  0  0  0  0  0  0  0  0  0
  1  2  1  0
  2  3  2  0
  2  4  1  0
  4  5  1  0
  5  6  1  0
  6  7  1  0
  7  8  1  0
  8  9  2  0
  8 10  1  0
 10 11  1  0
 11 12  1  0
 12 13  1  0
 13 14  1  0
 10 15  1  0
 14 15  1  0
 15 16  1  6
 15 17  1  0
 17 18  2  0
 18 19  1  0
 19 20  2  0
 20 21  1  0
 17 22  1  0
 21 22  2  0
  7 23  1  0
  4 24  1  0
 23 24  1  0
M  END
