piperidine-amides-4528-covalent
     RDKit          3D

 25 28  0  0  0  0  0  0  0  0999 V2000
    7.0710   -3.3150   19.2080 C   0  0  0  0  0  0  0  0  0  0  0  0
    6.3640   -4.0930   20.2510 C   0  0  0  0  0  0  0  0  0  0  0  0
    5.2990   -4.6420   19.9120 O   0  0  0  0  0  0  0  0  0  0  0  0
    6.9070   -4.2400   21.5250 N   0  0  0  0  0  0  0  0  0  0  0  0
    6.5280   -5.3530   22.3280 C   0  0  0  0  0  0  0  0  0  0  0  0
    5.9970   -4.9820   23.6440 C   0  0  0  0  0  0  0  0  0  0  0  0
    6.5830   -3.7480   24.2180 C   0  0  0  0  0  0  0  0  0  0  0  0
    5.7830   -3.2700   25.3660 C   0  0  0  0  0  0  0  0  0  0  0  0
    4.5630   -3.0850   25.2050 O   0  0  0  0  0  0  0  0  0  0  0  0
    6.3860   -3.0350   26.6090 N   0  0  0  0  0  0  0  0  0  0  0  0
    6.3990   -1.7080   27.2600 C   0  0  0  0  0  0  0  0  0  0  0  0
    7.0040   -1.5390   28.6100 C   0  0  0  0  0  0  0  0  0  0  0  0
    7.0410   -0.2660   29.3160 C   0  0  0  0  0  0  0  0  0  0  0  0
    6.4850    0.8270   28.6850 C   0  0  0  0  0  0  0  0  0  0  0  0
    6.3810    2.0450   29.0660 O   0  0  0  0  0  0  0  0  0  0  0  0
    5.7680    2.8050   28.1480 C   0  0  0  0  0  0  0  0  0  0  0  0
    5.4180    4.1170   28.0550 C   0  0  0  0  0  0  0  0  0  0  0  0
    4.7740    4.5680   26.9160 C   0  0  0  0  0  0  0  0  0  0  0  0
    4.4440    3.7690   25.8290 C   0  0  0  0  0  0  0  0  0  0  0  0
    4.7880    2.4160   25.8880 C   0  0  0  0  0  0  0  0  0  0  0  0
    5.4630    2.0170   27.1150 C   0  0  0  0  0  0  0  0  0  0  0  0
    5.9360    0.6710   27.4500 C   0  0  0  0  0  0  0  0  0  0  0  0
    5.7910   -0.5200   26.5570 C   0  0  0  0  0  0  0  0  0  0  0  0
    6.8770   -2.6730   23.2770 C   0  0  0  0  0  0  0  0  0  0  0  0
    7.6990   -3.1890   22.1340 C   0  0  0  0  0  0  0  0  0  0  0  0
  1  2  1  0
  2  3  2  0
  2  4  1  0
  4  5  1  0
  5  6  1  0
  6  7  1  0
  7  8  1  0
  8  9  2  0
  8 10  1  0
 10 11  1  0
 11 12  2  0
 12 13  1  0
 13 14  2  0
 14 15  1  0
 15 16  1  0
 16 17  1  0
 17 18  2  0
 18 19  1  0
 19 20  2  0
 16 21  2  0
 20 21  1  0
 14 22  1  0
 21 22  1  0
 11 23  1  0
 22 23  2  0
  7 24  1  0
  4 25  1  0
 24 25  1  0
M  END
