piperidine-amides-4363-covalent
     RDKit          3D

 26 28  0  0  0  0  0  0  0  0999 V2000
    7.1610   -3.2650   19.1750 C   0  0  0  0  0  0  0  0  0  0  0  0
    6.4140   -4.0260   20.1850 C   0  0  0  0  0  0  0  0  0  0  0  0
    5.2930   -4.4820   19.8570 O   0  0  0  0  0  0  0  0  0  0  0  0
    6.9760   -4.2890   21.4530 N   0  0  0  0  0  0  0  0  0  0  0  0
    6.3960   -5.3380   22.2110 C   0  0  0  0  0  0  0  0  0  0  0  0
    5.8330   -4.9100   23.4870 C   0  0  0  0  0  0  0  0  0  0  0  0
    6.5700   -3.8180   24.1530 C   0  0  0  0  0  0  0  0  0  0  0  0
    5.8340   -3.3080   25.3350 C   0  0  0  0  0  0  0  0  0  0  0  0
    4.6020   -3.4890   25.4360 O   0  0  0  0  0  0  0  0  0  0  0  0
    6.5240   -2.6140   26.3310 N   0  0  0  0  0  0  0  0  0  0  0  0
    6.3020   -2.6170   27.7110 C   0  0  0  0  0  0  0  0  0  0  0  0
    6.5710   -1.4320   28.5140 C   0  0  1  0  0  0  0  0  0  0  0  0
    5.6760   -0.2590   28.0670 C   0  0  0  0  0  0  0  0  0  0  0  0
    4.7940    0.0170   29.0780 C   0  0  0  0  0  0  0  0  0  0  0  0
    4.9110   -0.9820   30.0460 N   0  0  0  0  0  0  0  0  0  0  0  0
    4.6360   -0.8210   31.4270 C   0  0  0  0  0  0  0  0  0  0  0  0
    3.3620   -1.5340   31.8270 C   0  0  0  0  0  0  0  0  0  0  0  0
    3.1200   -1.3290   33.3380 C   0  0  0  0  0  0  0  0  0  0  0  0
    3.9140   -0.5790   34.3690 C   0  0  0  0  0  0  0  0  0  0  0  0
    5.1610    0.0980   33.8850 C   0  0  0  0  0  0  0  0  0  0  0  0
    5.4950   -0.0430   32.4080 C   0  0  0  0  0  0  0  0  0  0  0  0
    6.5700    0.5480   32.0520 O   0  0  0  0  0  0  0  0  0  0  0  0
    7.7220    0.3910   32.8400 C   0  0  0  0  0  0  0  0  0  0  0  0
    6.1730   -1.6170   29.9560 C   0  0  0  0  0  0  0  0  0  0  0  0
    7.0150   -2.7120   23.2790 C   0  0  0  0  0  0  0  0  0  0  0  0
    7.7340   -3.2420   22.0820 C   0  0  0  0  0  0  0  0  0  0  0  0
  1  2  1  0
  2  3  2  0
  2  4  1  0
  4  5  1  0
  5  6  1  0
  6  7  1  0
  7  8  1  0
  8  9  2  0
  8 10  1  0
 10 11  1  0
 12 11  1  6
 12 13  1  0
 13 14  1  0
 14 15  1  0
 15 16  1  0
 16 17  2  0
 17 18  1  0
 18 19  2  0
 19 20  1  0
 16 21  1  0
 20 21  2  0
 21 22  1  0
 22 23  1  0
 12 24  1  0
 15 24  1  0
  7 25  1  0
  4 26  1  0
 25 26  1  0
M  END
