piperidine-amides-28872-covalent
     RDKit          3D

 25 27  0  0  0  0  0  0  0  0999 V2000
    7.0130   -3.3830   19.4400 C   0  0  0  0  0  0  0  0  0  0  0  0
    6.3640   -4.2440   20.4230 C   0  0  0  0  0  0  0  0  0  0  0  0
    5.4230   -4.9480   20.0100 O   0  0  0  0  0  0  0  0  0  0  0  0
    6.8200   -4.3080   21.7770 N   0  0  0  0  0  0  0  0  0  0  0  0
    6.6570   -5.5660   22.4690 C   0  0  0  0  0  0  0  0  0  0  0  0
    6.3390   -5.3680   23.9380 C   0  0  0  0  0  0  0  0  0  0  0  0
    6.1160   -3.8940   24.1480 C   0  0  0  0  0  0  0  0  0  0  0  0
    5.3950   -3.5190   25.4460 C   0  0  0  0  0  0  0  0  0  0  0  0
    4.2440   -3.1700   25.2230 O   0  0  0  0  0  0  0  0  0  0  0  0
    5.9050   -3.5270   26.7750 N   0  0  0  0  0  0  0  0  0  0  0  0
    6.2880   -4.6930   27.4660 C   0  0  0  0  0  0  0  0  0  0  0  0
    5.5800   -4.8180   28.5840 C   0  0  0  0  0  0  0  0  0  0  0  0
    4.7920   -3.7160   28.6790 C   0  0  2  0  0  0  0  0  0  0  0  0
    3.4370   -4.0070   28.8160 C   0  0  0  0  0  0  0  0  0  0  0  0
    3.1580   -5.4110   28.3850 C   0  0  0  0  0  0  0  0  0  0  0  0
    1.6970   -5.8960   28.4800 C   0  0  0  0  0  0  0  0  0  0  0  0
    1.3620   -7.2850   28.0680 C   0  0  0  0  0  0  0  0  0  0  0  0
    0.6040   -4.9790   28.9890 C   0  0  0  0  0  0  0  0  0  0  0  0
   -1.0760   -5.4760   29.1230 Cl  0  0  0  0  0  0  0  0  0  0  0  0
    1.1310   -3.5640   29.3770 C   0  0  0  0  0  0  0  0  0  0  0  0
    2.4430   -3.1430   29.2870 C   0  0  0  0  0  0  0  0  0  0  0  0
    2.6370   -1.9510   29.6610 O   0  0  0  0  0  0  0  0  0  0  0  0
    5.1070   -2.7570   27.7140 C   0  0  0  0  0  0  0  0  0  0  0  0
    7.3320   -3.1030   23.8310 C   0  0  0  0  0  0  0  0  0  0  0  0
    7.6390   -3.2560   22.3620 C   0  0  0  0  0  0  0  0  0  0  0  0
  1  2  1  0
  2  3  2  0
  2  4  1  0
  4  5  1  0
  5  6  1  0
  6  7  1  0
  7  8  1  0
  8  9  2  0
  8 10  1  0
 10 11  1  0
 11 12  1  0
 12 13  1  0
 13 14  1  6
 14 15  2  0
 15 16  1  0
 16 17  1  0
 16 18  2  0
 18 19  1  0
 18 20  1  0
 14 21  1  0
 20 21  2  0
 21 22  1  0
 10 23  1  0
 13 23  1  0
  7 24  1  0
  4 25  1  0
 24 25  1  0
M  END
