piperidine-amides-34956-covalent
     RDKit          3D

 30 33  0  0  0  0  0  0  0  0999 V2000
    7.0470   -3.3650   19.4010 C   0  0  0  0  0  0  0  0  0  0  0  0
    6.3650   -4.2250   20.4000 C   0  0  0  0  0  0  0  0  0  0  0  0
    5.4010   -4.8780   19.9920 O   0  0  0  0  0  0  0  0  0  0  0  0
    6.8400   -4.3070   21.7190 N   0  0  0  0  0  0  0  0  0  0  0  0
    6.6850   -5.5290   22.4720 C   0  0  0  0  0  0  0  0  0  0  0  0
    6.1530   -5.2100   23.8440 C   0  0  0  0  0  0  0  0  0  0  0  0
    6.1350   -3.6930   24.0150 C   0  0  0  0  0  0  0  0  0  0  0  0
    5.6550   -3.2780   25.3710 C   0  0  0  0  0  0  0  0  0  0  0  0
    4.8460   -2.3480   25.4350 O   0  0  0  0  0  0  0  0  0  0  0  0
    6.0440   -3.9020   26.5810 N   0  0  0  0  0  0  0  0  0  0  0  0
    5.8780   -3.1750   27.8380 C   0  0  0  0  0  0  0  0  0  0  0  0
    4.8050   -3.8610   28.7050 C   0  0  0  0  0  0  0  0  0  0  0  0
    5.2270   -5.2310   29.0750 N   0  0  0  0  0  0  0  0  0  0  0  0
    3.9890   -6.0320   29.1600 C   0  0  0  0  0  0  0  0  0  0  0  0
    3.7310   -6.6170   27.9510 C   0  0  0  0  0  0  0  0  0  0  0  0
    4.4580   -6.7350   26.7950 C   0  0  0  0  0  0  0  0  0  0  0  0
    3.8540   -7.4510   25.6120 C   0  0  0  0  0  0  0  0  0  0  0  0
    2.5290   -7.8420   26.1530 C   0  0  0  0  0  0  0  0  0  0  0  0
    1.5720   -8.6000   25.2810 C   0  0  0  0  0  0  0  0  0  0  0  0
    1.1760   -9.9130   25.8370 C   0  0  0  0  0  0  0  0  0  0  0  0
    0.2290  -10.6860   25.0010 C   0  0  0  0  0  0  0  0  0  0  0  0
   -0.2570  -10.1060   23.6810 C   0  0  0  0  0  0  0  0  0  0  0  0
    0.2220   -8.7560   23.2210 C   0  0  0  0  0  0  0  0  0  0  0  0
   -0.2930   -8.0220   21.7100 Cl  0  0  0  0  0  0  0  0  0  0  0  0
    1.1910   -8.0040   24.1110 C   0  0  0  0  0  0  0  0  0  0  0  0
    2.2020   -7.3750   27.7630 S   0  0  0  0  0  0  0  0  0  0  0  0
    6.0670   -5.7060   28.0840 C   0  0  0  0  0  0  0  0  0  0  0  0
    5.8570   -5.3020   26.6550 C   0  0  0  0  0  0  0  0  0  0  0  0
    7.4930   -3.0600   23.7230 C   0  0  0  0  0  0  0  0  0  0  0  0
    7.6890   -3.2230   22.2140 C   0  0  0  0  0  0  0  0  0  0  0  0
  1  2  1  0
  2  3  2  0
  2  4  1  0
  4  5  1  0
  5  6  1  0
  6  7  1  0
  7  8  1  0
  8  9  2  0
  8 10  1  0
 10 11  1  0
 11 12  1  0
 12 13  1  0
 13 14  1  0
 14 15  1  0
 15 16  2  0
 16 17  1  0
 17 18  2  0
 18 19  1  0
 19 20  2  0
 20 21  1  0
 21 22  2  0
 22 23  1  0
 23 24  1  0
 19 25  1  0
 23 25  2  0
 15 26  1  0
 18 26  1  0
 13 27  1  0
 10 28  1  0
 27 28  1  0
  7 29  1  0
  4 30  1  0
 29 30  1  0
M  END
