piperidine-amides-6890-covalent
     RDKit          3D

 22 23  0  0  0  0  0  0  0  0999 V2000
    6.9970   -3.2600   19.2260 C   0  0  0  0  0  0  0  0  0  0  0  0
    6.2020   -4.0500   20.1880 C   0  0  0  0  0  0  0  0  0  0  0  0
    5.1300   -4.5590   19.8420 O   0  0  0  0  0  0  0  0  0  0  0  0
    6.6330   -4.3000   21.4870 N   0  0  0  0  0  0  0  0  0  0  0  0
    7.2360   -3.2380   22.2350 C   0  0  0  0  0  0  0  0  0  0  0  0
    6.1780   -2.7470   23.2250 C   0  0  0  0  0  0  0  0  0  0  0  0
    5.4030   -3.9730   23.6740 C   0  0  0  0  0  0  0  0  0  0  0  0
    4.9100   -3.7990   25.0720 C   0  0  0  0  0  0  0  0  0  0  0  0
    4.5520   -2.6520   25.4160 O   0  0  0  0  0  0  0  0  0  0  0  0
    4.8450   -4.8930   25.9950 N   0  0  0  0  0  0  0  0  0  0  0  0
    5.6690   -4.7930   27.1530 C   0  0  1  0  0  0  0  0  0  0  0  0
    6.0930   -6.1590   27.6240 C   0  0  0  0  0  0  0  0  0  0  0  0
    5.4170   -6.8130   28.6180 C   0  0  0  0  0  0  0  0  0  0  0  0
    6.7060   -3.9400   26.7500 C   0  0  0  0  0  0  0  0  0  0  0  0
    7.2350   -3.0180   27.5580 C   0  0  0  0  0  0  0  0  0  0  0  0
    8.2120   -2.1930   27.1720 C   0  0  0  0  0  0  0  0  0  0  0  0
    8.9570   -2.0520   25.8380 C   0  0  0  0  0  0  0  0  0  0  0  0
    8.2790   -3.1010   25.0530 C   0  0  0  0  0  0  0  0  0  0  0  0
    8.9080   -3.2250   23.2790 Br  0  0  0  0  0  0  0  0  0  0  0  0
    7.2150   -3.9860   25.5240 C   0  0  0  0  0  0  0  0  0  0  0  0
    6.2350   -5.2280   23.5110 C   0  0  0  0  0  0  0  0  0  0  0  0
    6.2810   -5.5420   22.1420 C   0  0  0  0  0  0  0  0  0  0  0  0
  1  2  1  0
  2  3  2  0
  2  4  1  0
  4  5  1  0
  5  6  1  0
  6  7  1  0
  7  8  1  0
  8  9  2  0
  8 10  1  0
 10 11  1  0
 11 12  1  6
 12 13  3  0
 11 14  1  0
 14 15  2  0
 15 16  1  0
 16 17  2  0
 17 18  1  0
 18 19  1  0
 14 20  1  0
 18 20  2  0
  7 21  1  0
  4 22  1  0
 21 22  1  0
M  END
