piperidine-amides-4571-covalent
     RDKit          3D

 24 27  0  0  0  0  0  0  0  0999 V2000
    7.0670   -3.2920   19.2250 C   0  0  0  0  0  0  0  0  0  0  0  0
    6.3500   -4.0540   20.2740 C   0  0  0  0  0  0  0  0  0  0  0  0
    5.3040   -4.6270   19.9120 O   0  0  0  0  0  0  0  0  0  0  0  0
    6.8460   -4.1680   21.5820 N   0  0  0  0  0  0  0  0  0  0  0  0
    7.6770   -3.1450   22.1380 C   0  0  0  0  0  0  0  0  0  0  0  0
    7.3610   -2.8300   23.5270 C   0  0  0  0  0  0  0  0  0  0  0  0
    6.1000   -3.4450   23.9810 C   0  0  0  0  0  0  0  0  0  0  0  0
    5.7950   -3.1060   25.4000 C   0  0  0  0  0  0  0  0  0  0  0  0
    4.5910   -2.9830   25.7000 O   0  0  0  0  0  0  0  0  0  0  0  0
    6.7920   -2.9320   26.3950 N   0  0  0  0  0  0  0  0  0  0  0  0
    7.5520   -1.6740   26.6380 C   0  0  2  0  0  0  0  0  0  0  0  0
    8.2580   -1.7010   27.8410 C   0  0  0  0  0  0  0  0  0  0  0  0
    7.5110   -0.6710   28.5110 C   0  0  1  0  0  0  0  0  0  0  0  0
    8.2440    0.4250   28.9190 C   0  0  0  0  0  0  0  0  0  0  0  0
    9.2420    0.2730   29.8770 C   0  0  0  0  0  0  0  0  0  0  0  0
    9.9730    1.3540   30.2730 C   0  0  0  0  0  0  0  0  0  0  0  0
    9.7270    2.5710   29.7370 C   0  0  0  0  0  0  0  0  0  0  0  0
    8.7620    2.7720   28.8010 C   0  0  0  0  0  0  0  0  0  0  0  0
    8.0040    1.6740   28.3830 C   0  0  0  0  0  0  0  0  0  0  0  0
    6.9450    1.8830   27.3590 C   0  0  0  0  0  0  0  0  0  0  0  0
    6.9560    0.7060   26.4070 C   0  0  0  0  0  0  0  0  0  0  0  0
    6.7590   -0.5260   27.2420 C   0  0  1  0  0  0  0  0  0  0  0  0
    5.9420   -4.8850   23.6830 C   0  0  0  0  0  0  0  0  0  0  0  0
    6.5930   -5.3450   22.3900 C   0  0  0  0  0  0  0  0  0  0  0  0
  1  2  1  0
  2  3  2  0
  2  4  1  0
  4  5  1  0
  5  6  1  0
  6  7  1  0
  7  8  1  0
  8  9  2  0
  8 10  1  0
 11 10  1  1
 11 12  1  0
 13 12  1  6
 13 14  1  0
 14 15  2  0
 15 16  1  0
 16 17  2  0
 17 18  1  0
 14 19  1  0
 18 19  2  0
 19 20  1  0
 20 21  1  0
 11 22  1  0
 13 22  1  0
 22 21  1  6
  7 23  1  0
  4 24  1  0
 23 24  1  0
M  END
