piperidine-amides-11573-covalent
     RDKit          3D

 22 23  0  0  0  0  0  0  0  0999 V2000
    7.0980   -3.3290   19.2850 C   0  0  0  0  0  0  0  0  0  0  0  0
    6.3930   -4.1330   20.2820 C   0  0  0  0  0  0  0  0  0  0  0  0
    5.3620   -4.7450   19.9560 O   0  0  0  0  0  0  0  0  0  0  0  0
    6.9010   -4.2600   21.5810 N   0  0  0  0  0  0  0  0  0  0  0  0
    7.7710   -3.2680   22.1670 C   0  0  0  0  0  0  0  0  0  0  0  0
    7.0090   -2.7090   23.3240 C   0  0  0  0  0  0  0  0  0  0  0  0
    6.5320   -3.8070   24.2190 C   0  0  0  0  0  0  0  0  0  0  0  0
    5.8150   -3.2910   25.4050 C   0  0  0  0  0  0  0  0  0  0  0  0
    4.5460   -3.2610   25.4240 O   0  0  0  0  0  0  0  0  0  0  0  0
    6.4940   -2.8150   26.5460 N   0  0  0  0  0  0  0  0  0  0  0  0
    6.0120   -1.6300   27.2920 C   0  0  2  0  0  0  0  0  0  0  0  0
    5.9900   -0.4860   26.3550 C   0  0  0  0  0  0  0  0  0  0  0  0
    6.0100    0.7420   27.1100 C   0  0  0  0  0  0  0  0  0  0  0  0
    6.3980    0.2970   28.4730 C   0  0  0  0  0  0  0  0  0  0  0  0
    6.6290   -1.2110   28.5310 C   0  0  1  0  0  0  0  0  0  0  0  0
    5.9200   -1.6210   29.7600 C   0  0  0  0  0  0  0  0  0  0  0  0
    5.0970   -2.7050   29.6450 O   0  0  0  0  0  0  0  0  0  0  0  0
    5.9590   -1.0860   30.8910 O   0  0  0  0  0  0  0  0  0  0  0  0
    4.8660   -0.5320   31.5560 C   0  0  0  0  0  0  0  0  0  0  0  0
    5.2030   -0.1010   32.8430 C   0  0  0  0  0  0  0  0  0  0  0  0
    5.6490   -4.8400   23.5100 C   0  0  0  0  0  0  0  0  0  0  0  0
    6.4990   -5.4040   22.3680 C   0  0  0  0  0  0  0  0  0  0  0  0
  1  2  1  0
  2  3  2  0
  2  4  1  0
  4  5  1  0
  5  6  1  0
  6  7  1  0
  7  8  1  0
  8  9  2  0
  8 10  1  0
 11 10  1  6
 11 12  1  0
 12 13  1  0
 13 14  1  0
 11 15  1  0
 14 15  1  0
 15 16  1  1
 16 17  2  0
 16 18  1  0
 18 19  1  0
 19 20  1  0
  7 21  1  0
  4 22  1  0
 21 22  1  0
M  END
