piperidine-amides-34287-covalent
     RDKit          3D

 30 31  0  0  0  0  0  0  0  0999 V2000
    7.0060   -3.3940   19.4150 C   0  0  0  0  0  0  0  0  0  0  0  0
    6.3740   -4.3390   20.3510 C   0  0  0  0  0  0  0  0  0  0  0  0
    5.3530   -4.9560   19.9920 O   0  0  0  0  0  0  0  0  0  0  0  0
    6.9270   -4.6110   21.6130 N   0  0  0  0  0  0  0  0  0  0  0  0
    6.4570   -5.7720   22.3340 C   0  0  0  0  0  0  0  0  0  0  0  0
    6.1780   -5.3160   23.7800 C   0  0  0  0  0  0  0  0  0  0  0  0
    5.5300   -3.9460   23.6710 C   0  0  0  0  0  0  0  0  0  0  0  0
    4.8900   -3.4190   24.9240 C   0  0  0  0  0  0  0  0  0  0  0  0
    4.0150   -2.5530   24.7530 O   0  0  0  0  0  0  0  0  0  0  0  0
    5.1940   -3.8090   26.2600 N   0  0  0  0  0  0  0  0  0  0  0  0
    4.1440   -3.6770   27.2300 C   0  0  0  0  0  0  0  0  0  0  0  0
    4.4290   -4.5600   28.4240 C   0  0  2  0  0  0  0  0  0  0  0  0
    3.4230   -4.6400   29.3530 C   0  0  0  0  0  0  0  0  0  0  0  0
    2.5760   -3.5230   29.2190 N   0  0  0  0  0  0  0  0  0  0  0  0
    1.1860   -3.7210   29.1950 C   0  0  0  0  0  0  0  0  0  0  0  0
    0.5940   -4.8350   29.7710 O   0  0  0  0  0  0  0  0  0  0  0  0
    0.3660   -2.8080   28.5990 O   0  0  0  0  0  0  0  0  0  0  0  0
   -0.2050   -3.1280   27.3870 C   0  0  0  0  0  0  0  0  0  0  0  0
   -0.7710   -4.3640   27.5920 C   0  0  0  0  0  0  0  0  0  0  0  0
   -1.3070   -2.2630   26.7570 C   0  0  0  0  0  0  0  0  0  0  0  0
    0.9270   -3.1990   26.4060 C   0  0  0  0  0  0  0  0  0  0  0  0
    5.6250   -4.2510   28.9370 C   0  0  0  0  0  0  0  0  0  0  0  0
    6.6810   -4.0000   28.0260 C   0  0  0  0  0  0  0  0  0  0  0  0
    6.2620   -3.1660   26.9370 C   0  0  1  0  0  0  0  0  0  0  0  0
    6.9910   -2.8540   25.8170 C   0  0  0  0  0  0  0  0  0  0  0  0
    7.1530   -3.6480   24.8800 O   0  0  0  0  0  0  0  0  0  0  0  0
    7.6100   -1.6030   25.5880 O   0  0  0  0  0  0  0  0  0  0  0  0
    8.4530   -1.5110   24.4620 C   0  0  0  0  0  0  0  0  0  0  0  0
    6.4290   -2.8590   23.0840 C   0  0  0  0  0  0  0  0  0  0  0  0
    7.5730   -3.5620   22.3500 C   0  0  0  0  0  0  0  0  0  0  0  0
  1  2  1  0
  2  3  2  0
  2  4  1  0
  4  5  1  0
  5  6  1  0
  6  7  1  0
  7  8  1  0
  8  9  2  0
  8 10  1  0
 10 11  1  0
 11 12  1  0
 12 13  1  1
 13 14  1  0
 14 15  1  0
 15 16  2  0
 15 17  1  0
 18 17  1  0
 18 19  1  0
 18 20  1  0
 18 21  1  0
 12 22  1  0
 22 23  1  0
 10 24  1  0
 23 24  1  0
 24 25  1  6
 25 26  2  0
 25 27  1  0
 27 28  1  0
  7 29  1  0
  4 30  1  0
 29 30  1  0
M  END
