piperidine-amides-31281-covalent
     RDKit          3D

 27 29  0  0  0  0  0  0  0  0999 V2000
    7.0150   -3.4220   19.3770 C   0  0  0  0  0  0  0  0  0  0  0  0
    6.3820   -4.2350   20.3980 C   0  0  0  0  0  0  0  0  0  0  0  0
    5.4160   -4.9630   20.0120 O   0  0  0  0  0  0  0  0  0  0  0  0
    6.8080   -4.2860   21.7540 N   0  0  0  0  0  0  0  0  0  0  0  0
    7.7380   -3.2040   22.2000 C   0  0  0  0  0  0  0  0  0  0  0  0
    7.6450   -3.2680   23.7750 C   0  0  0  0  0  0  0  0  0  0  0  0
    6.2610   -3.7840   24.0400 C   0  0  0  0  0  0  0  0  0  0  0  0
    5.5110   -3.1090   25.2870 C   0  0  0  0  0  0  0  0  0  0  0  0
    4.9840   -2.0790   24.9100 O   0  0  0  0  0  0  0  0  0  0  0  0
    5.6100   -3.7810   26.3670 N   0  0  0  0  0  0  0  0  0  0  0  0
    5.3850   -4.7360   27.3050 C   0  0  0  0  0  0  0  0  0  0  0  0
    5.7690   -4.8750   28.5690 C   0  0  1  0  0  0  0  0  0  0  0  0
    6.5800   -5.9940   28.7810 O   0  0  0  0  0  0  0  0  0  0  0  0
    6.5950   -3.7910   28.6370 C   0  0  0  0  0  0  0  0  0  0  0  0
    6.3820   -2.9790   27.3930 C   0  0  2  0  0  0  0  0  0  0  0  0
    5.4460   -2.0680   28.1970 C   0  0  0  0  0  0  0  0  0  0  0  0
    6.3940   -1.3900   28.9700 C   0  0  0  0  0  0  0  0  0  0  0  0
    6.2560   -0.3640   29.9710 C   0  0  0  0  0  0  0  0  0  0  0  0
    4.6860   -0.2360   29.9280 C   0  0  0  0  0  0  0  0  0  0  0  0
    4.0320    0.8110   30.8910 C   0  0  0  0  0  0  0  0  0  0  0  0
    4.9710    1.7690   31.2860 F   0  0  0  0  0  0  0  0  0  0  0  0
    3.0090    1.5190   30.3700 F   0  0  0  0  0  0  0  0  0  0  0  0
    3.6290    0.2070   32.0980 F   0  0  0  0  0  0  0  0  0  0  0  0
    3.6960   -0.9800   29.0870 C   0  0  0  0  0  0  0  0  0  0  0  0
    4.1320   -1.8930   28.2310 C   0  0  0  0  0  0  0  0  0  0  0  0
    6.1390   -5.2620   23.7770 C   0  0  0  0  0  0  0  0  0  0  0  0
    6.6670   -5.5170   22.5240 C   0  0  0  0  0  0  0  0  0  0  0  0
  1  2  1  0
  2  3  2  0
  2  4  1  0
  4  5  1  0
  5  6  1  0
  6  7  1  0
  7  8  1  0
  8  9  2  0
  8 10  1  0
 10 11  1  0
 11 12  1  0
 12 13  1  6
 12 14  1  0
 10 15  1  0
 14 15  1  0
 15 16  1  1
 16 17  2  0
 17 18  1  0
 18 19  2  0
 19 20  1  0
 20 21  1  0
 20 22  1  0
 20 23  1  0
 19 24  1  0
 16 25  1  0
 24 25  2  0
  7 26  1  0
  4 27  1  0
 26 27  1  0
M  END
