piperidine-amides-11640-covalent
     RDKit          3D

 30 33  0  0  0  0  0  0  0  0999 V2000
    7.0280   -3.3550   19.3490 C   0  0  0  0  0  0  0  0  0  0  0  0
    6.3600   -4.1770   20.3520 C   0  0  0  0  0  0  0  0  0  0  0  0
    5.4100   -4.8830   20.0010 O   0  0  0  0  0  0  0  0  0  0  0  0
    6.8310   -4.2040   21.7210 N   0  0  0  0  0  0  0  0  0  0  0  0
    7.6820   -3.1450   22.2400 C   0  0  0  0  0  0  0  0  0  0  0  0
    7.4480   -2.9130   23.7170 C   0  0  0  0  0  0  0  0  0  0  0  0
    6.1120   -3.5420   24.0600 C   0  0  0  0  0  0  0  0  0  0  0  0
    5.6420   -3.1930   25.4460 C   0  0  0  0  0  0  0  0  0  0  0  0
    4.4380   -3.2900   25.7470 O   0  0  0  0  0  0  0  0  0  0  0  0
    6.5440   -2.7330   26.4510 N   0  0  0  0  0  0  0  0  0  0  0  0
    6.3550   -1.3940   27.0090 C   0  0  0  0  0  0  0  0  0  0  0  0
    5.6290   -0.4590   26.1020 C   0  0  0  0  0  0  0  0  0  0  0  0
    5.3810    0.8350   26.4920 C   0  0  0  0  0  0  0  0  0  0  0  0
    5.8070    1.2810   27.7370 C   0  0  0  0  0  0  0  0  0  0  0  0
    5.5410    2.6130   28.1160 N   0  0  0  0  0  0  0  0  0  0  0  0
    4.2480    3.0910   28.3390 C   0  0  0  0  0  0  0  0  0  0  0  0
    4.0840    4.4940   28.6720 C   0  0  0  0  0  0  0  0  0  0  0  0
    2.8630    5.0670   28.9090 C   0  0  0  0  0  0  0  0  0  0  0  0
    1.7190    4.3040   28.8340 C   0  0  0  0  0  0  0  0  0  0  0  0
    0.5650    4.9760   29.0860 F   0  0  0  0  0  0  0  0  0  0  0  0
    1.7900    2.9450   28.5200 C   0  0  0  0  0  0  0  0  0  0  0  0
    3.0990    2.3190   28.2650 C   0  0  0  0  0  0  0  0  0  0  0  0
    6.4790    0.4230   28.5800 C   0  0  0  0  0  0  0  0  0  0  0  0
    6.8760    0.9280   29.7960 C   0  0  0  0  0  0  0  0  0  0  0  0
    7.5980    0.1070   30.7650 C   0  0  0  0  0  0  0  0  0  0  0  0
    7.8610   -1.1330   30.4540 N   0  0  0  0  0  0  0  0  0  0  0  0
    7.5020   -1.7130   29.2730 C   0  0  0  0  0  0  0  0  0  0  0  0
    6.7690   -0.9010   28.2640 C   0  0  0  0  0  0  0  0  0  0  0  0
    6.0690   -5.0150   23.8190 C   0  0  0  0  0  0  0  0  0  0  0  0
    6.5360   -5.3390   22.5420 C   0  0  0  0  0  0  0  0  0  0  0  0
  1  2  1  0
  2  3  2  0
  2  4  1  0
  4  5  1  0
  5  6  1  0
  6  7  1  0
  7  8  1  0
  8  9  2  0
  8 10  1  0
 10 11  1  0
 11 12  2  0
 12 13  1  0
 13 14  2  0
 14 15  1  0
 15 16  1  0
 16 17  2  0
 17 18  1  0
 18 19  2  0
 19 20  1  0
 19 21  1  0
 16 22  1  0
 21 22  2  0
 14 23  1  0
 23 24  1  0
 24 25  2  0
 25 26  1  0
 26 27  2  0
 11 28  1  0
 23 28  2  0
 27 28  1  0
  7 29  1  0
  4 30  1  0
 29 30  1  0
M  END
