piperidine-amides-33455-covalent
     RDKit          3D

 30 34  0  0  0  0  0  0  0  0999 V2000
    7.0740   -3.3790   19.3380 C   0  0  0  0  0  0  0  0  0  0  0  0
    6.4390   -4.2390   20.3440 C   0  0  0  0  0  0  0  0  0  0  0  0
    5.3970   -4.8440   19.9890 O   0  0  0  0  0  0  0  0  0  0  0  0
    7.0240   -4.4180   21.6290 N   0  0  0  0  0  0  0  0  0  0  0  0
    6.6570   -5.5760   22.3760 C   0  0  0  0  0  0  0  0  0  0  0  0
    6.0940   -5.2320   23.6730 C   0  0  0  0  0  0  0  0  0  0  0  0
    5.9850   -3.7760   23.8270 C   0  0  0  0  0  0  0  0  0  0  0  0
    5.3500   -3.3030   25.0970 C   0  0  0  0  0  0  0  0  0  0  0  0
    4.9030   -2.1480   25.1340 O   0  0  0  0  0  0  0  0  0  0  0  0
    5.2170   -4.0930   26.2410 N   0  0  0  0  0  0  0  0  0  0  0  0
    6.1860   -4.2430   27.1810 C   0  0  0  0  0  0  0  0  0  0  0  0
    5.7220   -3.9260   28.4330 C   0  0  1  0  0  0  0  0  0  0  0  0
    6.4810   -2.7220   28.9420 C   0  0  0  0  0  0  0  0  0  0  0  0
    5.7760   -2.1500   30.0010 C   0  0  0  0  0  0  0  0  0  0  0  0
    4.6830   -1.4270   29.2000 C   0  0  0  0  0  0  0  0  0  0  0  0
    5.0610   -2.0710   27.9320 C   0  0  0  0  0  0  0  0  0  0  0  0
    4.4130   -3.4400   28.2930 C   0  0  2  0  0  0  0  0  0  0  0  0
    3.6160   -3.9490   29.4410 C   0  0  0  0  0  0  0  0  0  0  0  0
    4.1720   -5.2200   29.7450 N   0  0  0  0  0  0  0  0  0  0  0  0
    4.0760   -5.7350   30.9740 C   0  0  0  0  0  0  0  0  0  0  0  0
    3.1330   -6.9380   31.1410 C   0  0  0  0  0  0  0  0  0  0  0  0
    3.1220   -7.4960   32.5350 C   0  0  0  0  0  0  0  0  0  0  0  0
    2.3100   -8.5920   32.8370 C   0  0  0  0  0  0  0  0  0  0  0  0
    1.5180   -9.1750   31.8880 C   0  0  0  0  0  0  0  0  0  0  0  0
    1.5260   -8.6240   30.4970 C   0  0  0  0  0  0  0  0  0  0  0  0
    2.3300   -7.5340   30.1860 C   0  0  0  0  0  0  0  0  0  0  0  0
    5.5310   -5.2240   29.2390 C   0  0  0  0  0  0  0  0  0  0  0  0
    3.9630   -4.0380   26.9470 C   0  0  0  0  0  0  0  0  0  0  0  0
    7.3720   -3.1610   23.6940 C   0  0  0  0  0  0  0  0  0  0  0  0
    7.7200   -3.2670   22.2050 C   0  0  0  0  0  0  0  0  0  0  0  0
  1  2  1  0
  2  3  2  0
  2  4  1  0
  4  5  1  0
  5  6  1  0
  6  7  1  0
  7  8  1  0
  8  9  2  0
  8 10  1  0
 10 11  1  0
 12 11  1  6
 12 13  1  0
 13 14  1  0
 14 15  1  0
 15 16  1  0
 12 17  1  0
 17 16  1  6
 17 18  1  0
 18 19  1  0
 19 20  1  0
 20 21  1  0
 21 22  2  0
 22 23  1  0
 23 24  2  0
 24 25  1  0
 21 26  1  0
 25 26  2  0
 12 27  1  0
 19 27  1  0
 10 28  1  0
 17 28  1  0
  7 29  1  0
  4 30  1  0
 29 30  1  0
M  END
