piperidine-amides-9068-covalent
     RDKit          3D

 21 22  0  0  0  0  0  0  0  0999 V2000
    7.1150   -3.2690   19.2070 C   0  0  0  0  0  0  0  0  0  0  0  0
    6.3480   -4.0210   20.2070 C   0  0  0  0  0  0  0  0  0  0  0  0
    5.2730   -4.5450   19.8780 O   0  0  0  0  0  0  0  0  0  0  0  0
    6.8270   -4.2200   21.5100 N   0  0  0  0  0  0  0  0  0  0  0  0
    6.5440   -5.4080   22.2750 C   0  0  0  0  0  0  0  0  0  0  0  0
    5.7910   -4.9260   23.4850 C   0  0  0  0  0  0  0  0  0  0  0  0
    6.5470   -3.8520   24.2130 C   0  0  0  0  0  0  0  0  0  0  0  0
    5.8290   -3.3790   25.4210 C   0  0  0  0  0  0  0  0  0  0  0  0
    4.5650   -3.2980   25.4200 O   0  0  0  0  0  0  0  0  0  0  0  0
    6.4930   -2.9880   26.6060 N   0  0  0  0  0  0  0  0  0  0  0  0
    6.3080   -3.7190   27.8840 C   0  0  2  0  0  0  0  0  0  0  0  0
    5.8560   -5.1130   27.6270 C   0  0  0  0  0  0  0  0  0  0  0  0
    5.2880   -2.9660   28.7490 C   0  0  0  0  0  0  0  0  0  0  0  0
    6.0120   -1.8210   29.3500 C   0  0  0  0  0  0  0  0  0  0  0  0
    5.1880   -0.9270   30.2580 C   0  0  0  0  0  0  0  0  0  0  0  0
    3.7500   -1.2610   30.4700 N   0  0  0  0  0  0  0  0  0  0  0  0
    3.1760   -2.4370   29.7990 C   0  0  0  0  0  0  0  0  0  0  0  0
    1.8790   -2.8700   29.8950 O   0  0  0  0  0  0  0  0  0  0  0  0
    3.9620   -3.2140   28.9880 C   0  0  0  0  0  0  0  0  0  0  0  0
    6.8310   -2.6760   23.3220 C   0  0  0  0  0  0  0  0  0  0  0  0
    7.6300   -3.1920   22.1530 C   0  0  0  0  0  0  0  0  0  0  0  0
  1  2  1  0
  2  3  2  0
  2  4  1  0
  4  5  1  0
  5  6  1  0
  6  7  1  0
  7  8  1  0
  8  9  2  0
  8 10  1  0
 10 11  1  0
 11 12  1  6
 11 13  1  0
 13 14  2  0
 14 15  1  0
 15 16  2  0
 16 17  1  0
 17 18  1  0
 13 19  1  0
 17 19  2  0
  7 20  1  0
  4 21  1  0
 20 21  1  0
M  END
