piperidine-amides-24752-covalent
     RDKit          3D

 23 24  0  0  0  0  0  0  0  0999 V2000
    7.0730   -3.2910   19.2560 C   0  0  0  0  0  0  0  0  0  0  0  0
    6.3620   -4.1020   20.2560 C   0  0  0  0  0  0  0  0  0  0  0  0
    5.3190   -4.7090   19.9370 O   0  0  0  0  0  0  0  0  0  0  0  0
    6.8570   -4.2530   21.5590 N   0  0  0  0  0  0  0  0  0  0  0  0
    6.5860   -5.4720   22.2790 C   0  0  0  0  0  0  0  0  0  0  0  0
    5.8960   -5.0450   23.5760 C   0  0  0  0  0  0  0  0  0  0  0  0
    6.8050   -4.0130   24.2150 C   0  0  0  0  0  0  0  0  0  0  0  0
    6.2550   -3.5550   25.5100 C   0  0  0  0  0  0  0  0  0  0  0  0
    5.0220   -3.3330   25.5930 O   0  0  0  0  0  0  0  0  0  0  0  0
    7.1390   -3.3940   26.6150 N   0  0  0  0  0  0  0  0  0  0  0  0
    7.4890   -4.5320   27.4310 C   0  0  0  0  0  0  0  0  0  0  0  0
    8.6470   -5.2940   26.8060 C   0  0  0  0  0  0  0  0  0  0  0  0
    7.2610   -2.0730   27.2000 C   0  0  2  0  0  0  0  0  0  0  0  0
    7.7670   -2.0920   28.4770 C   0  0  0  0  0  0  0  0  0  0  0  0
    6.1280   -1.3600   26.9170 C   0  0  0  0  0  0  0  0  0  0  0  0
    6.1420   -0.7050   25.7020 C   0  0  0  0  0  0  0  0  0  0  0  0
    5.1860    0.2030   24.8980 C   0  0  0  0  0  0  0  0  0  0  0  0
    5.2730    1.0030   23.3530 Cl  0  0  0  0  0  0  0  0  0  0  0  0
    4.0750    0.1760   25.9630 C   0  0  0  0  0  0  0  0  0  0  0  0
    4.0780   -0.5360   27.2750 C   0  0  0  0  0  0  0  0  0  0  0  0
    5.0660   -1.2500   27.6880 N   0  0  0  0  0  0  0  0  0  0  0  0
    6.9730   -2.8180   23.3090 C   0  0  0  0  0  0  0  0  0  0  0  0
    7.6830   -3.2490   22.1890 C   0  0  0  0  0  0  0  0  0  0  0  0
  1  2  1  0
  2  3  2  0
  2  4  1  0
  4  5  1  0
  5  6  1  0
  6  7  1  0
  7  8  1  0
  8  9  2  0
  8 10  1  0
 10 11  1  0
 11 12  1  0
 10 13  1  0
 13 14  1  1
 13 15  1  0
 15 16  2  0
 16 17  1  0
 17 18  1  0
 17 19  2  0
 19 20  1  0
 15 21  1  0
 20 21  2  0
  7 22  1  0
  4 23  1  0
 22 23  1  0
M  END
