piperidine-amides-14279-covalent
     RDKit          3D

 24 24  0  0  0  0  0  0  0  0999 V2000
    7.1450   -3.2850   19.2200 C   0  0  0  0  0  0  0  0  0  0  0  0
    6.3250   -4.0190   20.2190 C   0  0  0  0  0  0  0  0  0  0  0  0
    5.2510   -4.5350   19.8760 O   0  0  0  0  0  0  0  0  0  0  0  0
    6.8300   -4.1580   21.5240 N   0  0  0  0  0  0  0  0  0  0  0  0
    7.7000   -3.1410   22.0770 C   0  0  0  0  0  0  0  0  0  0  0  0
    7.5960   -3.2250   23.5960 C   0  0  0  0  0  0  0  0  0  0  0  0
    6.2050   -3.6580   23.8860 C   0  0  0  0  0  0  0  0  0  0  0  0
    5.7220   -3.1260   25.1650 C   0  0  0  0  0  0  0  0  0  0  0  0
    4.5110   -3.2370   25.3900 O   0  0  0  0  0  0  0  0  0  0  0  0
    6.6210   -2.5280   26.0450 N   0  0  0  0  0  0  0  0  0  0  0  0
    6.4330   -2.4250   27.4320 C   0  0  0  0  0  0  0  0  0  0  0  0
    6.3060   -3.5000   28.2570 C   0  0  0  0  0  0  0  0  0  0  0  0
    5.5310   -3.3800   29.4030 C   0  0  0  0  0  0  0  0  0  0  0  0
    4.2710   -2.8510   29.3660 C   0  0  0  0  0  0  0  0  0  0  0  0
    3.2720   -3.4750   30.2650 C   0  0  0  0  0  0  0  0  0  0  0  0
    3.3550   -4.9840   30.5160 C   0  0  0  0  0  0  0  0  0  0  0  0
    2.9050   -5.5140   31.7150 O   0  0  0  0  0  0  0  0  0  0  0  0
    3.8660   -5.8490   29.5680 O   0  0  0  0  0  0  0  0  0  0  0  0
    5.0140   -6.7020   29.7610 C   0  0  0  0  0  0  0  0  0  0  0  0
    5.3040   -7.0620   31.0570 C   0  0  0  0  0  0  0  0  0  0  0  0
    6.2400   -6.1350   29.1460 C   0  0  0  0  0  0  0  0  0  0  0  0
    4.7060   -7.9580   28.9860 C   0  0  0  0  0  0  0  0  0  0  0  0
    6.1770   -5.1120   23.7110 C   0  0  0  0  0  0  0  0  0  0  0  0
    6.6010   -5.3790   22.2550 C   0  0  0  0  0  0  0  0  0  0  0  0
  1  2  1  0
  2  3  2  0
  2  4  1  0
  4  5  1  0
  5  6  1  0
  6  7  1  0
  7  8  1  0
  8  9  2  0
  8 10  1  0
 10 11  1  0
 11 12  1  0
 12 13  1  0
 13 14  1  0
 14 15  1  0
 15 16  1  0
 16 17  2  0
 16 18  1  0
 19 18  1  0
 19 20  1  0
 19 21  1  0
 19 22  1  0
  7 23  1  0
  4 24  1  0
 23 24  1  0
M  END
