piperidine-amides-7065-covalent
     RDKit          3D

 21 23  0  0  0  0  0  0  0  0999 V2000
    7.0570   -3.3510   19.3240 C   0  0  0  0  0  0  0  0  0  0  0  0
    6.3470   -4.1630   20.3230 C   0  0  0  0  0  0  0  0  0  0  0  0
    5.3660   -4.8550   19.9810 O   0  0  0  0  0  0  0  0  0  0  0  0
    6.7890   -4.1980   21.6500 N   0  0  0  0  0  0  0  0  0  0  0  0
    6.6640   -5.4360   22.3910 C   0  0  0  0  0  0  0  0  0  0  0  0
    5.9600   -5.1070   23.7150 C   0  0  0  0  0  0  0  0  0  0  0  0
    6.0850   -3.6120   23.9040 C   0  0  0  0  0  0  0  0  0  0  0  0
    5.6220   -3.2290   25.2490 C   0  0  0  0  0  0  0  0  0  0  0  0
    4.3970   -3.2070   25.4800 O   0  0  0  0  0  0  0  0  0  0  0  0
    6.5820   -2.9040   26.2240 N   0  0  0  0  0  0  0  0  0  0  0  0
    6.4280   -1.7570   27.0710 C   0  0  0  0  0  0  0  0  0  0  0  0
    6.6690   -1.8850   28.5170 C   0  0  0  0  0  0  0  0  0  0  0  0
    6.5240   -0.7840   29.2700 C   0  0  0  0  0  0  0  0  0  0  0  0
    6.1590    0.4310   28.6890 C   0  0  0  0  0  0  0  0  0  0  0  0
    5.8850    0.7030   27.2610 N   0  0  0  0  0  0  0  0  0  0  0  0
    5.6230    1.9330   27.4140 N   0  0  0  0  0  0  0  0  0  0  0  0
    5.9710    1.3310   28.7840 C   0  0  0  0  0  0  0  0  0  0  0  0
    5.9660    0.6100   27.6450 C   0  0  0  0  0  0  0  0  0  0  0  0
    6.0470   -0.4430   26.5720 C   0  0  0  0  0  0  0  0  0  0  0  0
    7.4530   -3.1080   23.6170 C   0  0  0  0  0  0  0  0  0  0  0  0
    7.7020   -3.1790   22.1540 C   0  0  0  0  0  0  0  0  0  0  0  0
  1  2  1  0
  2  3  2  0
  2  4  1  0
  4  5  1  0
  5  6  1  0
  6  7  1  0
  7  8  1  0
  8  9  2  0
  8 10  1  0
 10 11  1  0
 11 12  2  0
 12 13  1  0
 13 14  2  0
 14 15  1  0
 15 16  1  0
 16 17  2  0
 17 18  1  0
 11 19  1  0
 15 19  1  0
 18 19  2  0
  7 20  1  0
  4 21  1  0
 20 21  1  0
M  END
