piperidine-amides-4793-covalent
     RDKit          3D

 24 25  0  0  0  0  0  0  0  0999 V2000
    7.0460   -3.3460   19.3060 C   0  0  0  0  0  0  0  0  0  0  0  0
    6.3800   -4.1700   20.3400 C   0  0  0  0  0  0  0  0  0  0  0  0
    5.3610   -4.7870   19.9690 O   0  0  0  0  0  0  0  0  0  0  0  0
    6.9000   -4.2920   21.6430 N   0  0  0  0  0  0  0  0  0  0  0  0
    7.6810   -3.2490   22.2270 C   0  0  0  0  0  0  0  0  0  0  0  0
    7.2710   -2.9290   23.5860 C   0  0  0  0  0  0  0  0  0  0  0  0
    6.0070   -3.5870   23.9690 C   0  0  0  0  0  0  0  0  0  0  0  0
    5.6250   -3.2020   25.3490 C   0  0  0  0  0  0  0  0  0  0  0  0
    4.4180   -3.2250   25.6530 O   0  0  0  0  0  0  0  0  0  0  0  0
    6.5960   -2.8210   26.2840 N   0  0  0  0  0  0  0  0  0  0  0  0
    6.5040   -1.5880   27.0970 C   0  0  0  0  0  0  0  0  0  0  0  0
    7.0590   -1.5590   28.4590 C   0  0  0  0  0  0  0  0  0  0  0  0
    6.9720   -0.3590   29.2540 C   0  0  0  0  0  0  0  0  0  0  0  0
    6.3530    0.7510   28.6960 C   0  0  0  0  0  0  0  0  0  0  0  0
    5.8070    0.7710   27.4030 C   0  0  0  0  0  0  0  0  0  0  0  0
    5.2540    1.8910   27.0240 O   0  0  0  0  0  0  0  0  0  0  0  0
    4.0610    2.4300   27.4760 C   0  0  0  0  0  0  0  0  0  0  0  0
    4.1780    3.6450   28.0830 C   0  0  0  0  0  0  0  0  0  0  0  0
    4.8400    4.7820   27.5310 O   0  0  0  0  0  0  0  0  0  0  0  0
    3.5990    3.6980   29.2880 N   0  0  0  0  0  0  0  0  0  0  0  0
    4.4160    4.1510   30.4560 C   0  0  0  0  0  0  0  0  0  0  0  0
    5.8680   -0.3560   26.5970 C   0  0  0  0  0  0  0  0  0  0  0  0
    5.9570   -5.0590   23.7620 C   0  0  0  0  0  0  0  0  0  0  0  0
    6.6660   -5.4660   22.4810 C   0  0  0  0  0  0  0  0  0  0  0  0
  1  2  1  0
  2  3  2  0
  2  4  1  0
  4  5  1  0
  5  6  1  0
  6  7  1  0
  7  8  1  0
  8  9  2  0
  8 10  1  0
 10 11  1  0
 11 12  2  0
 12 13  1  0
 13 14  2  0
 14 15  1  0
 15 16  1  0
 16 17  1  0
 17 18  1  0
 18 19  2  0
 18 20  1  0
 20 21  1  0
 11 22  1  0
 15 22  2  0
  7 23  1  0
  4 24  1  0
 23 24  1  0
M  END
