piperidine-amides-6981-covalent
     RDKit          3D

 22 23  0  0  0  0  0  0  0  0999 V2000
    7.1010   -3.2570   19.2410 C   0  0  0  0  0  0  0  0  0  0  0  0
    6.3600   -4.0570   20.2310 C   0  0  0  0  0  0  0  0  0  0  0  0
    5.3040   -4.6410   19.9140 O   0  0  0  0  0  0  0  0  0  0  0  0
    6.8500   -4.2150   21.5310 N   0  0  0  0  0  0  0  0  0  0  0  0
    7.6370   -3.1630   22.1440 C   0  0  0  0  0  0  0  0  0  0  0  0
    6.8070   -2.6300   23.3100 C   0  0  0  0  0  0  0  0  0  0  0  0
    6.5410   -3.8380   24.1740 C   0  0  0  0  0  0  0  0  0  0  0  0
    5.7770   -3.4210   25.3700 C   0  0  0  0  0  0  0  0  0  0  0  0
    4.5480   -3.2360   25.2580 O   0  0  0  0  0  0  0  0  0  0  0  0
    6.4480   -3.2340   26.6050 N   0  0  0  0  0  0  0  0  0  0  0  0
    6.2080   -4.1080   27.7280 C   0  0  0  0  0  0  0  0  0  0  0  0
    5.8330   -5.4960   27.2260 C   0  0  0  0  0  0  0  0  0  0  0  0
    6.0070   -6.4720   28.2910 N   0  0  0  0  0  0  0  0  0  0  0  0
    5.1480   -6.5100   29.4600 C   0  0  0  0  0  0  0  0  0  0  0  0
    3.9860   -5.8820   29.3490 C   0  0  0  0  0  0  0  0  0  0  0  0
    3.1320   -5.8680   30.3870 C   0  0  0  0  0  0  0  0  0  0  0  0
    3.5160   -6.5190   31.5400 C   0  0  0  0  0  0  0  0  0  0  0  0
    4.7790   -7.3220   31.9720 C   0  0  0  0  0  0  0  0  0  0  0  0
    5.2790   -8.2120   33.5950 Br  0  0  0  0  0  0  0  0  0  0  0  0
    5.5070   -7.1480   30.6120 C   0  0  0  0  0  0  0  0  0  0  0  0
    5.8030   -4.9250   23.5000 C   0  0  0  0  0  0  0  0  0  0  0  0
    6.5010   -5.3640   22.2920 C   0  0  0  0  0  0  0  0  0  0  0  0
  1  2  1  0
  2  3  2  0
  2  4  1  0
  4  5  1  0
  5  6  1  0
  6  7  1  0
  7  8  1  0
  8  9  2  0
  8 10  1  0
 10 11  1  0
 11 12  1  0
 12 13  1  0
 13 14  1  0
 14 15  2  0
 15 16  1  0
 16 17  2  0
 17 18  1  0
 18 19  1  0
 14 20  1  0
 18 20  2  0
  7 21  1  0
  4 22  1  0
 21 22  1  0
M  END
