piperidine-amides-6954-covalent
     RDKit          3D

 22 23  0  0  0  0  0  0  0  0999 V2000
    7.1500   -3.2600   19.2160 C   0  0  0  0  0  0  0  0  0  0  0  0
    6.4040   -4.0450   20.2090 C   0  0  0  0  0  0  0  0  0  0  0  0
    5.3240   -4.6000   19.9070 O   0  0  0  0  0  0  0  0  0  0  0  0
    6.9330   -4.2270   21.4900 N   0  0  0  0  0  0  0  0  0  0  0  0
    6.5450   -5.3720   22.2640 C   0  0  0  0  0  0  0  0  0  0  0  0
    5.7120   -4.8150   23.4190 C   0  0  0  0  0  0  0  0  0  0  0  0
    6.5510   -3.7320   24.0780 C   0  0  0  0  0  0  0  0  0  0  0  0
    5.7950   -3.1280   25.1790 C   0  0  0  0  0  0  0  0  0  0  0  0
    4.9290   -2.2650   24.9300 O   0  0  0  0  0  0  0  0  0  0  0  0
    6.0650   -3.5620   26.4760 N   0  0  0  0  0  0  0  0  0  0  0  0
    5.7020   -4.9080   26.7730 C   0  0  0  0  0  0  0  0  0  0  0  0
    6.1010   -5.1750   28.1840 C   0  0  0  0  0  0  0  0  0  0  0  0
    7.3640   -4.7530   28.3720 C   0  0  0  0  0  0  0  0  0  0  0  0
    8.3040   -5.5520   28.5880 O   0  0  0  0  0  0  0  0  0  0  0  0
    9.3900   -5.3920   27.7860 C   0  0  0  0  0  0  0  0  0  0  0  0
    6.0440   -6.5860   28.4370 C   0  0  0  0  0  0  0  0  0  0  0  0
    5.0270   -7.0930   29.2070 C   0  0  0  0  0  0  0  0  0  0  0  0
    4.9230   -6.7220   30.6750 C   0  0  0  0  0  0  0  0  0  0  0  0
    4.2910   -5.6780   29.7670 C   0  0  0  0  0  0  0  0  0  0  0  0
    5.2240   -4.6970   29.1130 C   0  0  0  0  0  0  0  0  0  0  0  0
    6.9300   -2.6530   23.1050 C   0  0  0  0  0  0  0  0  0  0  0  0
    7.7410   -3.2070   22.1190 C   0  0  0  0  0  0  0  0  0  0  0  0
  1  2  1  0
  2  3  2  0
  2  4  1  0
  4  5  1  0
  5  6  1  0
  6  7  1  0
  7  8  1  0
  8  9  2  0
  8 10  1  0
 10 11  1  0
 12 11  1  0
 12 13  1  0
 13 14  1  0
 14 15  1  0
 12 16  1  0
 16 17  1  0
 17 18  1  0
 18 19  1  0
 12 20  1  0
 19 20  1  0
  7 21  1  0
  4 22  1  0
 21 22  1  0
M  END
