piperidine-amides-32364-covalent
     RDKit          3D

 28 29  0  0  0  0  0  0  0  0999 V2000
    7.0190   -3.3410   19.3670 C   0  0  0  0  0  0  0  0  0  0  0  0
    6.3190   -4.2350   20.3320 C   0  0  0  0  0  0  0  0  0  0  0  0
    5.3050   -4.8430   19.9610 O   0  0  0  0  0  0  0  0  0  0  0  0
    6.8330   -4.4220   21.6270 N   0  0  0  0  0  0  0  0  0  0  0  0
    6.6370   -5.6690   22.3400 C   0  0  0  0  0  0  0  0  0  0  0  0
    6.0320   -5.4050   23.7360 C   0  0  0  0  0  0  0  0  0  0  0  0
    5.8970   -3.9360   23.9530 C   0  0  0  0  0  0  0  0  0  0  0  0
    5.3800   -3.5320   25.2930 C   0  0  0  0  0  0  0  0  0  0  0  0
    4.6620   -2.5310   25.3040 O   0  0  0  0  0  0  0  0  0  0  0  0
    5.6990   -4.2540   26.4580 N   0  0  0  0  0  0  0  0  0  0  0  0
    6.9690   -4.6010   26.8160 C   0  0  0  0  0  0  0  0  0  0  0  0
    7.2090   -5.4740   27.8240 C   0  0  0  0  0  0  0  0  0  0  0  0
    6.4520   -5.1850   28.9430 C   0  0  0  0  0  0  0  0  0  0  0  0
    5.1160   -4.9540   28.6850 C   0  0  0  0  0  0  0  0  0  0  0  0
    4.3270   -4.7570   29.9240 C   0  0  0  0  0  0  0  0  0  0  0  0
    4.5110   -6.0750   28.1170 C   0  0  0  0  0  0  0  0  0  0  0  0
    4.9310   -3.9850   27.6860 C   0  0  1  0  0  0  0  0  0  0  0  0
    5.0070   -2.6610   28.0890 C   0  0  0  0  0  0  0  0  0  0  0  0
    3.9140   -1.9160   28.3700 N   0  0  0  0  0  0  0  0  0  0  0  0
    3.9340   -1.5440   29.7390 C   0  0  0  0  0  0  0  0  0  0  0  0
    4.8520   -1.0150   30.3980 O   0  0  0  0  0  0  0  0  0  0  0  0
    2.8060   -1.7530   30.5510 O   0  0  0  0  0  0  0  0  0  0  0  0
    2.9120   -2.3020   31.8690 C   0  0  0  0  0  0  0  0  0  0  0  0
    2.3010   -1.8150   32.9940 C   0  0  0  0  0  0  0  0  0  0  0  0
    3.8410   -1.7920   32.8960 C   0  0  0  0  0  0  0  0  0  0  0  0
    2.7270   -3.6710   31.8810 C   0  0  0  0  0  0  0  0  0  0  0  0
    7.2200   -3.2770   23.7150 C   0  0  0  0  0  0  0  0  0  0  0  0
    7.5400   -3.3210   22.2790 C   0  0  0  0  0  0  0  0  0  0  0  0
  1  2  1  0
  2  3  2  0
  2  4  1  0
  4  5  1  0
  5  6  1  0
  6  7  1  0
  7  8  1  0
  8  9  2  0
  8 10  1  0
 10 11  1  0
 11 12  1  0
 12 13  1  0
 13 14  1  0
 14 15  1  0
 14 16  1  0
 10 17  1  0
 14 17  1  0
 17 18  1  1
 18 19  1  0
 19 20  1  0
 20 21  2  0
 20 22  1  0
 23 22  1  0
 23 24  1  0
 23 25  1  0
 23 26  1  0
  7 27  1  0
  4 28  1  0
 27 28  1  0
M  END
