piperidine-amides-9219-covalent
     RDKit          3D

 20 21  0  0  0  0  0  0  0  0999 V2000
    7.0940   -3.3540   19.3280 C   0  0  0  0  0  0  0  0  0  0  0  0
    6.3640   -4.1280   20.3300 C   0  0  0  0  0  0  0  0  0  0  0  0
    5.3680   -4.7840   19.9710 O   0  0  0  0  0  0  0  0  0  0  0  0
    6.8030   -4.1800   21.6660 N   0  0  0  0  0  0  0  0  0  0  0  0
    7.7560   -3.2060   22.1740 C   0  0  0  0  0  0  0  0  0  0  0  0
    7.4090   -2.9940   23.6150 C   0  0  0  0  0  0  0  0  0  0  0  0
    6.0650   -3.5750   23.9150 C   0  0  0  0  0  0  0  0  0  0  0  0
    5.5780   -3.2430   25.2700 C   0  0  0  0  0  0  0  0  0  0  0  0
    4.3380   -3.2470   25.5240 O   0  0  0  0  0  0  0  0  0  0  0  0
    6.4490   -2.9180   26.3240 N   0  0  0  0  0  0  0  0  0  0  0  0
    6.3970   -1.6150   27.0250 C   0  0  0  0  0  0  0  0  0  0  0  0
    5.9600   -0.3650   26.3800 C   0  0  0  0  0  0  0  0  0  0  0  0
    5.9390    0.8910   27.1600 C   0  0  0  0  0  0  0  0  0  0  0  0
    5.5430    1.8540   26.4740 O   0  0  0  0  0  0  0  0  0  0  0  0
    6.3740    0.8660   28.6120 C   0  0  0  0  0  0  0  0  0  0  0  0
    6.8300   -0.4080   29.3030 C   0  0  0  0  0  0  0  0  0  0  0  0
    6.8010   -1.5910   28.4260 C   0  0  0  0  0  0  0  0  0  0  0  0
    7.1790   -2.8120   28.9440 F   0  0  0  0  0  0  0  0  0  0  0  0
    6.1090   -5.0660   23.6690 C   0  0  0  0  0  0  0  0  0  0  0  0
    6.6080   -5.4140   22.4010 C   0  0  0  0  0  0  0  0  0  0  0  0
  1  2  1  0
  2  3  2  0
  2  4  1  0
  4  5  1  0
  5  6  1  0
  6  7  1  0
  7  8  1  0
  8  9  2  0
  8 10  1  0
 10 11  1  0
 11 12  2  0
 12 13  1  0
 13 14  1  0
 13 15  2  0
 15 16  1  0
 11 17  1  0
 16 17  2  0
 17 18  1  0
  7 19  1  0
  4 20  1  0
 19 20  1  0
M  END
