piperidine-amides-12776-covalent
     RDKit          3D

 22 24  0  0  0  0  0  0  0  0999 V2000
    7.1980   -3.2630   19.1520 C   0  0  0  0  0  0  0  0  0  0  0  0
    6.4410   -4.0220   20.1690 C   0  0  0  0  0  0  0  0  0  0  0  0
    5.3120   -4.4400   19.8450 O   0  0  0  0  0  0  0  0  0  0  0  0
    7.0220   -4.3070   21.4050 N   0  0  0  0  0  0  0  0  0  0  0  0
    6.5350   -5.4050   22.1560 C   0  0  0  0  0  0  0  0  0  0  0  0
    5.9690   -5.0050   23.4400 C   0  0  0  0  0  0  0  0  0  0  0  0
    6.5250   -3.7560   24.0200 C   0  0  0  0  0  0  0  0  0  0  0  0
    5.5920   -3.1720   24.9790 C   0  0  0  0  0  0  0  0  0  0  0  0
    4.3870   -3.4600   24.9000 O   0  0  0  0  0  0  0  0  0  0  0  0
    6.0580   -2.3030   25.9470 N   0  0  0  0  0  0  0  0  0  0  0  0
    5.5170   -2.3520   27.2940 C   0  0  1  0  0  0  0  0  0  0  0  0
    4.3840   -3.3320   27.4000 C   0  0  0  0  0  0  0  0  0  0  0  0
    3.1230   -2.9040   27.9490 N   0  0  0  0  0  0  0  0  0  0  0  0
    1.9220   -3.7170   28.1330 C   0  0  0  0  0  0  0  0  0  0  0  0
    2.0820   -5.0200   27.7170 C   0  0  0  0  0  0  0  0  0  0  0  0
    3.2470   -5.4970   27.1860 C   0  0  0  0  0  0  0  0  0  0  0  0
    4.3430   -4.6270   27.0520 N   0  0  0  0  0  0  0  0  0  0  0  0
    6.5700   -2.5200   28.2140 C   0  0  0  0  0  0  0  0  0  0  0  0
    6.5520   -3.5310   28.8280 C   0  0  0  0  0  0  0  0  0  0  0  0
    6.1040   -2.3900   29.5730 C   0  0  0  0  0  0  0  0  0  0  0  0
    6.8700   -2.7140   23.0010 C   0  0  0  0  0  0  0  0  0  0  0  0
    7.8400   -3.3470   22.1120 C   0  0  0  0  0  0  0  0  0  0  0  0
  1  2  1  0
  2  3  2  0
  2  4  1  0
  4  5  1  0
  5  6  1  0
  6  7  1  0
  7  8  1  0
  8  9  2  0
  8 10  1  0
 11 10  1  6
 11 12  1  0
 12 13  2  0
 13 14  1  0
 14 15  2  0
 15 16  1  0
 12 17  1  0
 16 17  2  0
 11 18  1  0
 18 19  1  0
 18 20  1  0
 19 20  1  0
  7 21  1  0
  4 22  1  0
 21 22  1  0
M  END
