piperidine-amides-31129-covalent
     RDKit          3D

 23 24  0  0  0  0  0  0  0  0999 V2000
    7.0590   -3.2990   19.3230 C   0  0  0  0  0  0  0  0  0  0  0  0
    6.3430   -4.0970   20.3240 C   0  0  0  0  0  0  0  0  0  0  0  0
    5.3450   -4.7430   19.9560 O   0  0  0  0  0  0  0  0  0  0  0  0
    6.7650   -4.2030   21.6720 N   0  0  0  0  0  0  0  0  0  0  0  0
    6.6990   -5.4740   22.3660 C   0  0  0  0  0  0  0  0  0  0  0  0
    6.1790   -5.1900   23.7530 C   0  0  0  0  0  0  0  0  0  0  0  0
    6.0330   -3.7230   23.9900 C   0  0  0  0  0  0  0  0  0  0  0  0
    5.5190   -3.3880   25.3550 C   0  0  0  0  0  0  0  0  0  0  0  0
    4.2820   -3.1660   25.4980 O   0  0  0  0  0  0  0  0  0  0  0  0
    6.2960   -3.2710   26.5410 N   0  0  0  0  0  0  0  0  0  0  0  0
    6.6540   -1.8890   26.9550 C   0  0  0  0  0  0  0  0  0  0  0  0
    6.0880   -4.2280   27.6750 C   0  0  0  0  0  0  0  0  0  0  0  0
    5.5520   -5.5660   27.2760 C   0  0  1  0  0  0  0  0  0  0  0  0
    6.4210   -6.1370   26.6160 O   0  0  0  0  0  0  0  0  0  0  0  0
    4.9070   -6.2890   28.4270 C   0  0  0  0  0  0  0  0  0  0  0  0
    3.5550   -6.8860   28.0970 C   0  0  0  0  0  0  0  0  0  0  0  0
    2.8240   -7.6310   29.1560 C   0  0  0  0  0  0  0  0  0  0  0  0
    3.4080   -7.7440   30.3910 C   0  0  0  0  0  0  0  0  0  0  0  0
    4.6490   -7.2140   30.7490 C   0  0  0  0  0  0  0  0  0  0  0  0
    5.2700   -7.4960   32.5460 Br  0  0  0  0  0  0  0  0  0  0  0  0
    5.4090   -6.4520   29.6810 C   0  0  0  0  0  0  0  0  0  0  0  0
    7.2660   -2.9250   23.6730 C   0  0  0  0  0  0  0  0  0  0  0  0
    7.6610   -3.1910   22.2300 C   0  0  0  0  0  0  0  0  0  0  0  0
  1  2  1  0
  2  3  2  0
  2  4  1  0
  4  5  1  0
  5  6  1  0
  6  7  1  0
  7  8  1  0
  8  9  2  0
  8 10  1  0
 10 11  1  0
 10 12  1  0
 12 13  1  0
 13 14  1  1
 13 15  1  0
 15 16  2  0
 16 17  1  0
 17 18  2  0
 18 19  1  0
 19 20  1  0
 15 21  1  0
 19 21  2  0
  7 22  1  0
  4 23  1  0
 22 23  1  0
M  END
