piperidine-amides-10230-covalent
     RDKit          3D

 25 27  0  0  0  0  0  0  0  0999 V2000
    7.0000   -3.2860   19.2540 C   0  0  0  0  0  0  0  0  0  0  0  0
    6.2390   -4.0870   20.2310 C   0  0  0  0  0  0  0  0  0  0  0  0
    5.1620   -4.5730   19.8460 O   0  0  0  0  0  0  0  0  0  0  0  0
    6.7190   -4.3200   21.5140 N   0  0  0  0  0  0  0  0  0  0  0  0
    7.5480   -3.3750   22.1810 C   0  0  0  0  0  0  0  0  0  0  0  0
    6.8750   -3.0720   23.4770 C   0  0  0  0  0  0  0  0  0  0  0  0
    5.5880   -3.8190   23.5930 C   0  0  0  0  0  0  0  0  0  0  0  0
    4.8310   -3.4030   24.8040 C   0  0  0  0  0  0  0  0  0  0  0  0
    3.7570   -2.8010   24.6350 O   0  0  0  0  0  0  0  0  0  0  0  0
    5.2250   -3.6210   26.1310 N   0  0  0  0  0  0  0  0  0  0  0  0
    5.5500   -2.4830   26.9330 C   0  0  0  0  0  0  0  0  0  0  0  0
    7.0010   -2.2510   26.7370 C   0  0  0  0  0  0  0  0  0  0  0  0
    7.4770   -2.2610   25.3700 N   0  0  0  0  0  0  0  0  0  0  0  0
    8.7330   -2.0700   25.4940 C   0  0  0  0  0  0  0  0  0  0  0  0
    9.7010   -2.0030   24.4690 C   0  0  0  0  0  0  0  0  0  0  0  0
   10.9840   -1.5610   24.6020 C   0  0  0  0  0  0  0  0  0  0  0  0
   11.9670   -1.4930   23.6700 C   0  0  0  0  0  0  0  0  0  0  0  0
   11.6820   -1.9110   22.4140 C   0  0  0  0  0  0  0  0  0  0  0  0
   12.9250   -1.8670   21.2020 Cl  0  0  0  0  0  0  0  0  0  0  0  0
   10.2950   -2.4230   22.0580 C   0  0  0  0  0  0  0  0  0  0  0  0
    9.3120   -2.4300   23.2370 C   0  0  0  0  0  0  0  0  0  0  0  0
    9.0180   -1.9480   26.8170 N   0  0  0  0  0  0  0  0  0  0  0  0
    7.9260   -2.0580   27.5330 O   0  0  0  0  0  0  0  0  0  0  0  0
    5.8380   -5.3330   23.5230 C   0  0  0  0  0  0  0  0  0  0  0  0
    6.4880   -5.6060   22.1640 C   0  0  0  0  0  0  0  0  0  0  0  0
  1  2  1  0
  2  3  2  0
  2  4  1  0
  4  5  1  0
  5  6  1  0
  6  7  1  0
  7  8  1  0
  8  9  2  0
  8 10  1  0
 10 11  1  0
 11 12  1  0
 12 13  2  0
 13 14  1  0
 14 15  1  0
 15 16  2  0
 16 17  1  0
 17 18  2  0
 18 19  1  0
 18 20  1  0
 15 21  1  0
 20 21  2  0
 14 22  2  0
 12 23  1  0
 22 23  1  0
  7 24  1  0
  4 25  1  0
 24 25  1  0
M  END
