piperidine-amides-33980-covalent
     RDKit          3D

 30 32  0  0  0  0  0  0  0  0999 V2000
    7.0440   -3.3540   19.3640 C   0  0  0  0  0  0  0  0  0  0  0  0
    6.4120   -4.2390   20.3570 C   0  0  0  0  0  0  0  0  0  0  0  0
    5.4320   -4.9360   20.0100 O   0  0  0  0  0  0  0  0  0  0  0  0
    6.9270   -4.3480   21.6660 N   0  0  0  0  0  0  0  0  0  0  0  0
    6.6450   -5.5130   22.4650 C   0  0  0  0  0  0  0  0  0  0  0  0
    5.7220   -5.0640   23.6160 C   0  0  0  0  0  0  0  0  0  0  0  0
    6.2600   -3.8000   24.2860 C   0  0  0  0  0  0  0  0  0  0  0  0
    5.2150   -3.2070   25.1900 C   0  0  0  0  0  0  0  0  0  0  0  0
    4.3950   -2.4100   24.7110 O   0  0  0  0  0  0  0  0  0  0  0  0
    5.1780   -3.5560   26.5650 N   0  0  0  0  0  0  0  0  0  0  0  0
    6.3450   -3.8870   27.1500 C   0  0  0  0  0  0  0  0  0  0  0  0
    6.2790   -3.6270   28.6200 C   0  0  1  0  0  0  0  0  0  0  0  0
    7.0250   -2.3830   28.8630 N   0  0  0  0  0  0  0  0  0  0  0  0
    6.4930   -1.0870   29.2800 C   0  0  0  0  0  0  0  0  0  0  0  0
    5.2350   -0.9890   29.1770 O   0  0  0  0  0  0  0  0  0  0  0  0
    7.2440   -0.0660   29.7380 O   0  0  0  0  0  0  0  0  0  0  0  0
    7.6560    0.6260   30.7910 C   0  0  0  0  0  0  0  0  0  0  0  0
    7.2990    1.9630   30.5820 C   0  0  0  0  0  0  0  0  0  0  0  0
    7.0080    0.0780   31.8600 C   0  0  0  0  0  0  0  0  0  0  0  0
    8.9700    0.4690   31.1990 C   0  0  0  0  0  0  0  0  0  0  0  0
    4.7210   -3.6320   28.8480 C   0  0  2  0  0  0  0  0  0  0  0  0
    4.2820   -4.9580   29.4400 C   0  0  0  0  0  0  0  0  0  0  0  0
    4.9560   -5.6600   28.3790 C   0  0  0  0  0  0  0  0  0  0  0  0
    4.6590   -6.9510   28.7580 C   0  0  0  0  0  0  0  0  0  0  0  0
    3.9170   -7.0810   29.8740 N   0  0  0  0  0  0  0  0  0  0  0  0
    3.6640   -5.8020   30.3320 N   0  0  0  0  0  0  0  0  0  0  0  0
    2.9200   -5.4270   31.4850 C   0  0  0  0  0  0  0  0  0  0  0  0
    4.2790   -3.2350   27.5820 C   0  0  0  0  0  0  0  0  0  0  0  0
    6.6950   -2.7070   23.3220 C   0  0  0  0  0  0  0  0  0  0  0  0
    7.6540   -3.2710   22.2710 C   0  0  0  0  0  0  0  0  0  0  0  0
  1  2  1  0
  2  3  2  0
  2  4  1  0
  4  5  1  0
  5  6  1  0
  6  7  1  0
  7  8  1  0
  8  9  2  0
  8 10  1  0
 10 11  1  0
 11 12  1  0
 12 13  1  6
 13 14  1  0
 14 15  2  0
 14 16  1  0
 17 16  1  0
 17 18  1  0
 17 19  1  0
 17 20  1  0
 12 21  1  0
 21 22  1  6
 22 23  2  0
 23 24  1  0
 24 25  2  0
 22 26  1  0
 25 26  1  0
 26 27  1  0
 10 28  1  0
 21 28  1  0
  7 29  1  0
  4 30  1  0
 29 30  1  0
M  END
