piperidine-amides-35029-covalent
     RDKit          3D

 30 32  0  0  0  0  0  0  0  0999 V2000
    7.0480   -3.3070   19.3580 C   0  0  0  0  0  0  0  0  0  0  0  0
    6.3620   -4.1520   20.3770 C   0  0  0  0  0  0  0  0  0  0  0  0
    5.4040   -4.8190   19.9830 O   0  0  0  0  0  0  0  0  0  0  0  0
    6.8230   -4.1910   21.7130 N   0  0  0  0  0  0  0  0  0  0  0  0
    7.7300   -3.1750   22.2110 C   0  0  0  0  0  0  0  0  0  0  0  0
    7.4680   -2.9420   23.6680 C   0  0  0  0  0  0  0  0  0  0  0  0
    6.1090   -3.5570   23.9720 C   0  0  0  0  0  0  0  0  0  0  0  0
    5.6350   -3.1580   25.3290 C   0  0  0  0  0  0  0  0  0  0  0  0
    4.7320   -2.3120   25.3830 O   0  0  0  0  0  0  0  0  0  0  0  0
    6.1300   -3.6800   26.5540 N   0  0  0  0  0  0  0  0  0  0  0  0
    6.4550   -2.6870   27.5560 C   0  0  0  0  0  0  0  0  0  0  0  0
    5.6250   -4.9870   26.9060 C   0  0  1  0  0  0  0  0  0  0  0  0
    6.3850   -5.7800   27.7110 C   0  0  0  0  0  0  0  0  0  0  0  0
    5.3280   -5.3570   28.2700 C   0  0  0  0  0  0  0  0  0  0  0  0
    5.8480   -6.3580   29.0380 C   0  0  0  0  0  0  0  0  0  0  0  0
    5.5400   -6.7750   30.4640 C   0  0  0  0  0  0  0  0  0  0  0  0
    4.4720   -5.8780   31.0400 C   0  0  0  0  0  0  0  0  0  0  0  0
    3.8710   -4.7490   30.2220 C   0  0  0  0  0  0  0  0  0  0  0  0
    4.3670   -4.5600   28.8290 C   0  0  0  0  0  0  0  0  0  0  0  0
    3.7430   -3.4920   28.1880 O   0  0  0  0  0  0  0  0  0  0  0  0
    3.4810   -2.4600   29.0490 C   0  0  0  0  0  0  0  0  0  0  0  0
    4.6740   -2.0580   29.8900 C   0  0  0  0  0  0  0  0  0  0  0  0
    4.5210   -0.9590   30.8580 C   0  0  0  0  0  0  0  0  0  0  0  0
    3.2190   -0.2240   31.0400 C   0  0  0  0  0  0  0  0  0  0  0  0
    3.0010    1.0860   32.1840 Cl  0  0  0  0  0  0  0  0  0  0  0  0
    2.1450   -0.6210   30.2520 C   0  0  0  0  0  0  0  0  0  0  0  0
    0.6030    0.2170   30.4450 Cl  0  0  0  0  0  0  0  0  0  0  0  0
    2.3020   -1.7600   29.2470 C   0  0  0  0  0  0  0  0  0  0  0  0
    6.0790   -5.0790   23.8160 C   0  0  0  0  0  0  0  0  0  0  0  0
    6.6580   -5.4410   22.4380 C   0  0  0  0  0  0  0  0  0  0  0  0
  1  2  1  0
  2  3  2  0
  2  4  1  0
  4  5  1  0
  5  6  1  0
  6  7  1  0
  7  8  1  0
  8  9  2  0
  8 10  1  0
 10 11  1  0
 10 12  1  0
 12 13  1  1
 12 14  1  0
 14 15  2  0
 15 16  1  0
 16 17  2  0
 17 18  1  0
 14 19  1  0
 18 19  2  0
 19 20  1  0
 20 21  1  0
 21 22  2  0
 22 23  1  0
 23 24  2  0
 24 25  1  0
 24 26  1  0
 26 27  1  0
 21 28  1  0
 26 28  2  0
  7 29  1  0
  4 30  1  0
 29 30  1  0
M  END
