piperidine-amides-28604-covalent
     RDKit          3D

 25 26  0  0  0  0  0  0  0  0999 V2000
    7.0360   -3.3740   19.4060 C   0  0  0  0  0  0  0  0  0  0  0  0
    6.3590   -4.2320   20.3750 C   0  0  0  0  0  0  0  0  0  0  0  0
    5.3540   -4.8520   19.9810 O   0  0  0  0  0  0  0  0  0  0  0  0
    6.8580   -4.3910   21.7010 N   0  0  0  0  0  0  0  0  0  0  0  0
    6.4910   -5.5540   22.4460 C   0  0  0  0  0  0  0  0  0  0  0  0
    5.5300   -5.1500   23.5280 C   0  0  0  0  0  0  0  0  0  0  0  0
    6.1750   -4.0010   24.2710 C   0  0  0  0  0  0  0  0  0  0  0  0
    5.1860   -3.3830   25.2560 C   0  0  0  0  0  0  0  0  0  0  0  0
    4.4360   -2.5360   24.7950 O   0  0  0  0  0  0  0  0  0  0  0  0
    5.1760   -3.8000   26.6050 N   0  0  0  0  0  0  0  0  0  0  0  0
    4.2850   -3.2390   27.5860 C   0  0  0  0  0  0  0  0  0  0  0  0
    4.8710   -2.6410   28.7110 C   0  0  0  0  0  0  0  0  0  0  0  0
    6.2020   -2.4970   28.5930 C   0  0  1  0  0  0  0  0  0  0  0  0
    7.0290   -1.7900   29.4380 C   0  0  0  0  0  0  0  0  0  0  0  0
    6.6740   -3.9350   28.4350 C   0  0  1  0  0  0  0  0  0  0  0  0
    5.9600   -4.7810   29.1890 N   0  0  0  0  0  0  0  0  0  0  0  0
    5.8980   -6.0440   28.7770 C   0  0  0  0  0  0  0  0  0  0  0  0
    6.9570   -6.5210   28.3080 O   0  0  0  0  0  0  0  0  0  0  0  0
    4.6710   -6.8750   28.8550 C   0  0  0  0  0  0  0  0  0  0  0  0
    3.6540   -6.0620   29.3420 F   0  0  0  0  0  0  0  0  0  0  0  0
    4.8900   -7.9350   29.6800 F   0  0  0  0  0  0  0  0  0  0  0  0
    4.3950   -7.2930   27.5550 F   0  0  0  0  0  0  0  0  0  0  0  0
    6.4280   -4.2500   27.0350 C   0  0  0  0  0  0  0  0  0  0  0  0
    6.7380   -2.9190   23.4250 C   0  0  0  0  0  0  0  0  0  0  0  0
    7.5840   -3.3600   22.4210 C   0  0  0  0  0  0  0  0  0  0  0  0
  1  2  1  0
  2  3  2  0
  2  4  1  0
  4  5  1  0
  5  6  1  0
  6  7  1  0
  7  8  1  0
  8  9  2  0
  8 10  1  0
 10 11  1  0
 11 12  1  0
 12 13  1  0
 13 14  1  1
 13 15  1  0
 15 16  1  1
 16 17  1  0
 17 18  2  0
 17 19  1  0
 19 20  1  0
 19 21  1  0
 19 22  1  0
 10 23  1  0
 15 23  1  0
  7 24  1  0
  4 25  1  0
 24 25  1  0
M  END
