piperidine-amides-1549-covalent
     RDKit          3D

 21 22  0  0  0  0  0  0  0  0999 V2000
    7.1330   -3.2940   19.2490 C   0  0  0  0  0  0  0  0  0  0  0  0
    6.3230   -4.0520   20.2370 C   0  0  0  0  0  0  0  0  0  0  0  0
    5.2420   -4.5380   19.8770 O   0  0  0  0  0  0  0  0  0  0  0  0
    6.8390   -4.2460   21.5350 N   0  0  0  0  0  0  0  0  0  0  0  0
    6.5400   -5.4180   22.3180 C   0  0  0  0  0  0  0  0  0  0  0  0
    5.6840   -4.9330   23.4890 C   0  0  0  0  0  0  0  0  0  0  0  0
    6.4540   -3.8710   24.1990 C   0  0  0  0  0  0  0  0  0  0  0  0
    5.7380   -3.3640   25.3900 C   0  0  0  0  0  0  0  0  0  0  0  0
    4.5350   -3.1220   25.2360 O   0  0  0  0  0  0  0  0  0  0  0  0
    6.4000   -3.1830   26.6090 N   0  0  0  0  0  0  0  0  0  0  0  0
    6.2180   -3.9140   27.8190 C   0  0  2  0  0  0  0  0  0  0  0  0
    5.9250   -5.2650   27.8240 C   0  0  0  0  0  0  0  0  0  0  0  0
    6.4320   -6.0550   28.8630 C   0  0  0  0  0  0  0  0  0  0  0  0
    5.3590   -3.4190   28.8200 C   0  0  0  0  0  0  0  0  0  0  0  0
    5.8970   -2.1200   29.3340 C   0  0  0  0  0  0  0  0  0  0  0  0
    5.1940   -1.3220   30.4330 C   0  0  0  0  0  0  0  0  0  0  0  0
    3.9340   -2.0280   30.8890 C   0  0  0  0  0  0  0  0  0  0  0  0
    3.5610   -3.2190   30.3270 C   0  0  0  0  0  0  0  0  0  0  0  0
    4.1970   -3.8980   29.3600 N   0  0  0  0  0  0  0  0  0  0  0  0
    6.8420   -2.7080   23.3510 C   0  0  0  0  0  0  0  0  0  0  0  0
    7.6230   -3.1970   22.1490 C   0  0  0  0  0  0  0  0  0  0  0  0
  1  2  1  0
  2  3  2  0
  2  4  1  0
  4  5  1  0
  5  6  1  0
  6  7  1  0
  7  8  1  0
  8  9  2  0
  8 10  1  0
 10 11  1  0
 11 12  1  6
 12 13  1  0
 11 14  1  0
 14 15  2  0
 15 16  1  0
 16 17  2  0
 17 18  1  0
 14 19  1  0
 18 19  2  0
  7 20  1  0
  4 21  1  0
 20 21  1  0
M  END
