piperidine-amides-3360-covalent
     RDKit          3D

 21 22  0  0  0  0  0  0  0  0999 V2000
    7.0620   -3.2970   19.3110 C   0  0  0  0  0  0  0  0  0  0  0  0
    6.3390   -4.1140   20.2840 C   0  0  0  0  0  0  0  0  0  0  0  0
    5.3200   -4.7100   19.9420 O   0  0  0  0  0  0  0  0  0  0  0  0
    6.8290   -4.2700   21.6290 N   0  0  0  0  0  0  0  0  0  0  0  0
    6.5520   -5.4980   22.3310 C   0  0  0  0  0  0  0  0  0  0  0  0
    6.1960   -5.2060   23.7640 C   0  0  0  0  0  0  0  0  0  0  0  0
    6.0680   -3.7010   23.9170 C   0  0  0  0  0  0  0  0  0  0  0  0
    5.5720   -3.2850   25.2700 C   0  0  0  0  0  0  0  0  0  0  0  0
    4.6440   -2.4630   25.3860 O   0  0  0  0  0  0  0  0  0  0  0  0
    6.1420   -3.8090   26.4610 N   0  0  0  0  0  0  0  0  0  0  0  0
    5.9280   -5.2040   26.8080 C   0  0  1  0  0  0  0  0  0  0  0  0
    6.4720   -5.4670   28.1900 C   0  0  0  0  0  0  0  0  0  0  0  0
    4.4940   -5.5680   26.8170 C   0  0  0  0  0  0  0  0  0  0  0  0
    4.0470   -6.6250   25.9990 C   0  0  0  0  0  0  0  0  0  0  0  0
    2.7160   -6.9710   26.0090 C   0  0  0  0  0  0  0  0  0  0  0  0
    1.8370   -6.2200   26.8700 C   0  0  0  0  0  0  0  0  0  0  0  0
    0.1240   -6.6690   26.8790 Cl  0  0  0  0  0  0  0  0  0  0  0  0
    2.2510   -5.1920   27.6720 C   0  0  0  0  0  0  0  0  0  0  0  0
    3.5570   -4.8610   27.6550 N   0  0  0  0  0  0  0  0  0  0  0  0
    7.4240   -3.0990   23.5930 C   0  0  0  0  0  0  0  0  0  0  0  0
    7.5800   -3.1560   22.2060 C   0  0  0  0  0  0  0  0  0  0  0  0
  1  2  1  0
  2  3  2  0
  2  4  1  0
  4  5  1  0
  5  6  1  0
  6  7  1  0
  7  8  1  0
  8  9  2  0
  8 10  1  0
 10 11  1  0
 11 12  1  1
 11 13  1  0
 13 14  2  0
 14 15  1  0
 15 16  2  0
 16 17  1  0
 16 18  1  0
 13 19  1  0
 18 19  2  0
  7 20  1  0
  4 21  1  0
 20 21  1  0
M  END
