piperidine-amides-9833-covalent
     RDKit          3D

 27 29  0  0  0  0  0  0  0  0999 V2000
    7.0750   -3.3190   19.2590 C   0  0  0  0  0  0  0  0  0  0  0  0
    6.3760   -4.1170   20.2730 C   0  0  0  0  0  0  0  0  0  0  0  0
    5.3030   -4.6700   19.9210 O   0  0  0  0  0  0  0  0  0  0  0  0
    6.9240   -4.2770   21.5420 N   0  0  0  0  0  0  0  0  0  0  0  0
    7.7220   -3.2320   22.1400 C   0  0  0  0  0  0  0  0  0  0  0  0
    6.9740   -2.7010   23.3160 C   0  0  0  0  0  0  0  0  0  0  0  0
    6.6820   -3.8070   24.2790 C   0  0  0  0  0  0  0  0  0  0  0  0
    5.9610   -3.2820   25.4590 C   0  0  0  0  0  0  0  0  0  0  0  0
    4.7130   -3.4020   25.4670 O   0  0  0  0  0  0  0  0  0  0  0  0
    6.5930   -2.6320   26.5470 N   0  0  0  0  0  0  0  0  0  0  0  0
    6.5560   -1.1890   26.5740 C   0  0  0  0  0  0  0  0  0  0  0  0
    5.4530   -0.4940   27.3690 C   0  0  0  0  0  0  0  0  0  0  0  0
    4.7380   -1.6730   28.0750 N   0  0  0  0  0  0  0  0  0  0  0  0
    5.5290   -2.7510   27.9880 N   0  0  0  0  0  0  0  0  0  0  0  0
    5.1680   -4.0280   28.2250 C   0  0  0  0  0  0  0  0  0  0  0  0
    6.2830   -4.7430   28.5900 C   0  0  0  0  0  0  0  0  0  0  0  0
    6.2470   -6.0900   28.8910 C   0  0  0  0  0  0  0  0  0  0  0  0
    5.1120   -6.8740   28.8670 C   0  0  0  0  0  0  0  0  0  0  0  0
    3.9350   -6.2440   28.5170 C   0  0  0  0  0  0  0  0  0  0  0  0
    2.3970   -7.0800   28.4390 Cl  0  0  0  0  0  0  0  0  0  0  0  0
    3.9950   -4.7620   28.1870 C   0  0  0  0  0  0  0  0  0  0  0  0
    6.5370   -2.0150   27.7740 C   0  0  0  0  0  0  0  0  0  0  0  0
    6.6360   -0.8380   28.7520 C   0  0  0  0  0  0  0  0  0  0  0  0
    7.7200   -0.9630   29.8040 C   0  0  0  0  0  0  0  0  0  0  0  0
    6.4720    0.5670   28.3250 C   0  0  0  0  0  0  0  0  0  0  0  0
    5.8410   -4.8680   23.5820 C   0  0  0  0  0  0  0  0  0  0  0  0
    6.6010   -5.4140   22.3820 C   0  0  0  0  0  0  0  0  0  0  0  0
  1  2  1  0
  2  3  2  0
  2  4  1  0
  4  5  1  0
  5  6  1  0
  6  7  1  0
  7  8  1  0
  8  9  2  0
  8 10  1  0
 10 11  1  0
 11 12  1  0
 12 13  2  0
 13 14  1  0
 14 15  1  0
 15 16  2  0
 16 17  1  0
 17 18  2  0
 18 19  1  0
 19 20  1  0
 15 21  1  0
 19 21  2  0
 11 22  2  0
 14 22  1  0
 22 23  1  0
 23 24  1  0
 23 25  1  0
  7 26  1  0
  4 27  1  0
 26 27  1  0
M  END
