piperidine-amides-18941-covalent
     RDKit          3D

 21 21  0  0  0  0  0  0  0  0999 V2000
    7.0550   -3.3430   19.2290 C   0  0  0  0  0  0  0  0  0  0  0  0
    6.2660   -4.0100   20.2460 C   0  0  0  0  0  0  0  0  0  0  0  0
    5.1950   -4.5700   19.8760 O   0  0  0  0  0  0  0  0  0  0  0  0
    6.6460   -4.1230   21.5940 N   0  0  0  0  0  0  0  0  0  0  0  0
    6.6290   -5.5090   22.1200 C   0  0  0  0  0  0  0  0  0  0  0  0
    6.1790   -5.3200   23.6210 C   0  0  0  0  0  0  0  0  0  0  0  0
    6.1440   -3.8420   23.8940 C   0  0  0  0  0  0  0  0  0  0  0  0
    5.4350   -3.5250   25.2840 C   0  0  0  0  0  0  0  0  0  0  0  0
    4.4100   -2.8800   25.1000 O   0  0  0  0  0  0  0  0  0  0  0  0
    6.1120   -4.0230   26.2490 N   0  0  0  0  0  0  0  0  0  0  0  0
    6.7690   -4.8680   27.1060 C   0  0  0  0  0  0  0  0  0  0  0  0
    8.0610   -5.1940   27.4360 C   0  0  0  0  0  0  0  0  0  0  0  0
    8.7200   -5.8430   26.3670 C   0  0  0  0  0  0  0  0  0  0  0  0
    9.6690   -4.9950   25.7990 O   0  0  0  0  0  0  0  0  0  0  0  0
    6.3550   -2.9640   27.2340 C   0  0  0  0  0  0  0  0  0  0  0  0
    7.0470   -1.9310   26.3780 C   0  0  0  0  0  0  0  0  0  0  0  0
    8.1290   -1.9990   27.2440 C   0  0  0  0  0  0  0  0  0  0  0  0
    8.3790   -2.1880   25.6910 C   0  0  0  0  0  0  0  0  0  0  0  0
    6.3920   -0.6460   26.0120 C   0  0  0  0  0  0  0  0  0  0  0  0
    7.4140   -3.1600   23.5160 C   0  0  0  0  0  0  0  0  0  0  0  0
    7.5340   -3.1450   22.1600 C   0  0  0  0  0  0  0  0  0  0  0  0
  1  2  1  0
  2  3  2  0
  2  4  1  0
  4  5  1  0
  5  6  1  0
  6  7  1  0
  7  8  1  0
  8  9  2  0
  8 10  1  0
 10 11  1  0
 11 12  1  0
 12 13  1  0
 13 14  1  0
 10 15  1  0
 16 15  1  0
 16 17  1  0
 16 18  1  0
 16 19  1  0
  7 20  1  0
  4 21  1  0
 20 21  1  0
M  END
