piperidine-amides-27074-covalent
     RDKit          3D

 26 29  0  0  0  0  0  0  0  0999 V2000
    6.9410   -3.3460   19.4420 C   0  0  0  0  0  0  0  0  0  0  0  0
    6.3440   -4.2520   20.4370 C   0  0  0  0  0  0  0  0  0  0  0  0
    5.4060   -4.9710   20.0050 O   0  0  0  0  0  0  0  0  0  0  0  0
    6.8090   -4.3370   21.7680 N   0  0  0  0  0  0  0  0  0  0  0  0
    6.7020   -5.5910   22.4880 C   0  0  0  0  0  0  0  0  0  0  0  0
    6.1840   -5.3250   23.8850 C   0  0  0  0  0  0  0  0  0  0  0  0
    6.0330   -3.8560   24.1500 C   0  0  0  0  0  0  0  0  0  0  0  0
    5.4460   -3.5600   25.5160 C   0  0  0  0  0  0  0  0  0  0  0  0
    4.2430   -3.2320   25.5030 O   0  0  0  0  0  0  0  0  0  0  0  0
    6.0590   -3.5920   26.8160 N   0  0  0  0  0  0  0  0  0  0  0  0
    6.1650   -4.7770   27.6410 C   0  0  0  0  0  0  0  0  0  0  0  0
    7.6570   -5.0780   27.9180 C   0  0  0  0  0  0  0  0  0  0  0  0
    8.6200   -4.5050   27.0940 C   0  0  0  0  0  0  0  0  0  0  0  0
    9.9000   -4.7750   26.4490 O   0  0  0  0  0  0  0  0  0  0  0  0
   10.1290   -3.5940   25.7300 C   0  0  0  0  0  0  0  0  0  0  0  0
   11.1400   -3.1600   24.8600 C   0  0  0  0  0  0  0  0  0  0  0  0
   12.5180   -3.2080   25.0500 C   0  0  0  0  0  0  0  0  0  0  0  0
   13.4050   -2.7160   24.1080 C   0  0  0  0  0  0  0  0  0  0  0  0
   13.0200   -2.0870   22.7850 C   0  0  0  0  0  0  0  0  0  0  0  0
   11.5250   -2.0510   22.5910 C   0  0  0  0  0  0  0  0  0  0  0  0
   10.6610   -2.6080   23.6830 C   0  0  0  0  0  0  0  0  0  0  0  0
    9.1060   -2.7130   25.9470 C   0  0  0  0  0  0  0  0  0  0  0  0
    8.2230   -3.3010   26.7660 C   0  0  0  0  0  0  0  0  0  0  0  0
    6.9990   -2.5890   27.1440 C   0  0  0  0  0  0  0  0  0  0  0  0
    7.3330   -3.1750   23.8440 C   0  0  0  0  0  0  0  0  0  0  0  0
    7.6230   -3.2550   22.3260 C   0  0  0  0  0  0  0  0  0  0  0  0
  1  2  1  0
  2  3  2  0
  2  4  1  0
  4  5  1  0
  5  6  1  0
  6  7  1  0
  7  8  1  0
  8  9  2  0
  8 10  1  0
 10 11  1  0
 11 12  1  0
 12 13  1  0
 13 14  1  0
 14 15  1  0
 15 16  1  0
 16 17  2  0
 17 18  1  0
 18 19  2  0
 19 20  1  0
 16 21  1  0
 20 21  2  0
 15 22  2  0
 13 23  2  0
 22 23  1  0
 10 24  1  0
 23 24  1  0
  7 25  1  0
  4 26  1  0
 25 26  1  0
M  END
