piperidine-amides-33743-covalent
     RDKit          3D

 30 32  0  0  0  0  0  0  0  0999 V2000
    7.1670   -3.2780   19.2190 C   0  0  0  0  0  0  0  0  0  0  0  0
    6.3580   -4.0020   20.2050 C   0  0  0  0  0  0  0  0  0  0  0  0
    5.2480   -4.4390   19.8350 O   0  0  0  0  0  0  0  0  0  0  0  0
    6.8490   -4.2600   21.4990 N   0  0  0  0  0  0  0  0  0  0  0  0
    7.5670   -3.2190   22.1590 C   0  0  0  0  0  0  0  0  0  0  0  0
    7.1390   -2.9070   23.5210 C   0  0  0  0  0  0  0  0  0  0  0  0
    6.4140   -3.9690   24.2460 C   0  0  0  0  0  0  0  0  0  0  0  0
    5.7000   -3.4140   25.4450 C   0  0  0  0  0  0  0  0  0  0  0  0
    4.4580   -3.3260   25.4280 O   0  0  0  0  0  0  0  0  0  0  0  0
    6.3960   -2.9530   26.5820 N   0  0  0  0  0  0  0  0  0  0  0  0
    6.7820   -1.6120   26.7920 C   0  0  0  0  0  0  0  0  0  0  0  0
    6.2500   -3.7170   27.8220 C   0  0  0  0  0  0  0  0  0  0  0  0
    5.9620   -5.2340   27.7730 C   0  0  0  0  0  0  0  0  0  0  0  0
    6.9710   -6.0100   28.2870 O   0  0  0  0  0  0  0  0  0  0  0  0
    4.6440   -5.4970   27.1930 N   0  0  0  0  0  0  0  0  0  0  0  0
    4.4610   -6.9100   27.1510 C   0  0  0  0  0  0  0  0  0  0  0  0
    3.0540   -7.0610   27.7310 C   0  0  0  0  0  0  0  0  0  0  0  0
    2.0590   -6.3730   26.9650 N   0  0  0  0  0  0  0  0  0  0  0  0
    1.4140   -6.9240   25.9120 C   0  0  0  0  0  0  0  0  0  0  0  0
    0.4970   -7.8900   26.6690 C   0  0  0  0  0  0  0  0  0  0  0  0
    0.2790   -9.3190   26.2370 C   0  0  0  0  0  0  0  0  0  0  0  0
   -0.6540  -10.1420   27.0850 C   0  0  0  0  0  0  0  0  0  0  0  0
   -1.3160   -9.5080   28.3100 C   0  0  0  0  0  0  0  0  0  0  0  0
   -1.0130   -8.0840   28.6260 C   0  0  0  0  0  0  0  0  0  0  0  0
   -1.5920   -7.4670   29.7370 C   0  0  0  0  0  0  0  0  0  0  0  0
   -0.1420   -7.3880   27.7960 C   0  0  0  0  0  0  0  0  0  0  0  0
    2.4660   -5.0180   26.7650 C   0  0  0  0  0  0  0  0  0  0  0  0
    3.5670   -4.6670   27.5400 C   0  0  0  0  0  0  0  0  0  0  0  0
    5.4480   -4.6500   23.3120 C   0  0  0  0  0  0  0  0  0  0  0  0
    6.2700   -5.3320   22.2420 C   0  0  0  0  0  0  0  0  0  0  0  0
  1  2  1  0
  2  3  2  0
  2  4  1  0
  4  5  1  0
  5  6  1  0
  6  7  1  0
  7  8  1  0
  8  9  2  0
  8 10  1  0
 10 11  1  0
 10 12  1  0
 12 13  1  0
 13 14  2  0
 13 15  1  0
 15 16  1  0
 16 17  1  0
 17 18  1  0
 18 19  1  0
 19 20  1  0
 20 21  2  0
 21 22  1  0
 22 23  2  0
 23 24  1  0
 24 25  1  0
 20 26  1  0
 24 26  2  0
 18 27  1  0
 15 28  1  0
 27 28  1  0
  7 29  1  0
  4 30  1  0
 29 30  1  0
M  END
