piperidine-amides-24103-covalent
     RDKit          3D

 24 26  0  0  0  0  0  0  0  0999 V2000
    7.0420   -3.4070   19.4310 C   0  0  0  0  0  0  0  0  0  0  0  0
    6.3980   -4.2650   20.4390 C   0  0  0  0  0  0  0  0  0  0  0  0
    5.4310   -4.9550   20.0170 O   0  0  0  0  0  0  0  0  0  0  0  0
    6.8750   -4.3420   21.7880 N   0  0  0  0  0  0  0  0  0  0  0  0
    6.5380   -5.4830   22.5750 C   0  0  0  0  0  0  0  0  0  0  0  0
    5.9610   -5.1070   23.8590 C   0  0  0  0  0  0  0  0  0  0  0  0
    5.9300   -3.6420   24.0130 C   0  0  0  0  0  0  0  0  0  0  0  0
    5.1010   -3.0990   25.1850 C   0  0  0  0  0  0  0  0  0  0  0  0
    4.0310   -2.5570   24.8890 O   0  0  0  0  0  0  0  0  0  0  0  0
    5.3970   -3.1530   26.5740 N   0  0  0  0  0  0  0  0  0  0  0  0
    4.8500   -2.4030   27.6370 C   0  0  0  0  0  0  0  0  0  0  0  0
    4.4550   -3.0010   28.9380 C   0  0  0  0  0  0  0  0  0  0  0  0
    4.9680   -4.4320   29.1970 C   0  0  0  0  0  0  0  0  0  0  0  0
    4.4920   -4.9870   30.3930 C   0  0  0  0  0  0  0  0  0  0  0  0
    5.0150   -6.3930   30.6440 C   0  0  0  0  0  0  0  0  0  0  0  0
    4.6360   -7.0680   31.7970 O   0  0  0  0  0  0  0  0  0  0  0  0
    3.6020   -7.9450   31.4760 C   0  0  0  0  0  0  0  0  0  0  0  0
    5.9440   -7.0340   29.6430 C   0  0  0  0  0  0  0  0  0  0  0  0
    6.4010   -8.2840   29.8870 F   0  0  0  0  0  0  0  0  0  0  0  0
    6.3390   -6.2960   28.4160 C   0  0  0  0  0  0  0  0  0  0  0  0
    5.8000   -4.9160   28.2040 C   0  0  0  0  0  0  0  0  0  0  0  0
    6.1830   -4.1910   26.9580 C   0  0  0  0  0  0  0  0  0  0  0  0
    7.3080   -3.1010   23.7890 C   0  0  0  0  0  0  0  0  0  0  0  0
    7.6120   -3.2320   22.4090 C   0  0  0  0  0  0  0  0  0  0  0  0
  1  2  1  0
  2  3  2  0
  2  4  1  0
  4  5  1  0
  5  6  1  0
  6  7  1  0
  7  8  1  0
  8  9  2  0
  8 10  1  0
 10 11  1  0
 11 12  1  0
 12 13  1  0
 13 14  2  0
 14 15  1  0
 15 16  1  0
 16 17  1  0
 15 18  2  0
 18 19  1  0
 18 20  1  0
 13 21  1  0
 20 21  2  0
 10 22  1  0
 21 22  1  0
  7 23  1  0
  4 24  1  0
 23 24  1  0
M  END
