piperidine-amides-23920-covalent
     RDKit          3D

 23 26  0  0  0  0  0  0  0  0999 V2000
    7.1120   -3.3120   19.2830 C   0  0  0  0  0  0  0  0  0  0  0  0
    6.3620   -4.0740   20.2930 C   0  0  0  0  0  0  0  0  0  0  0  0
    5.2990   -4.6180   19.9120 O   0  0  0  0  0  0  0  0  0  0  0  0
    6.8480   -4.2270   21.6170 N   0  0  0  0  0  0  0  0  0  0  0  0
    6.5590   -5.4360   22.3070 C   0  0  0  0  0  0  0  0  0  0  0  0
    6.0640   -5.1950   23.6510 C   0  0  0  0  0  0  0  0  0  0  0  0
    6.1310   -3.7770   24.0090 C   0  0  0  0  0  0  0  0  0  0  0  0
    5.6690   -3.5020   25.4180 C   0  0  0  0  0  0  0  0  0  0  0  0
    5.2510   -2.3610   25.6880 O   0  0  0  0  0  0  0  0  0  0  0  0
    5.6570   -4.4800   26.4470 N   0  0  0  0  0  0  0  0  0  0  0  0
    5.8060   -4.2270   27.8140 C   0  0  0  0  0  0  0  0  0  0  0  0
    4.7140   -5.0500   28.0540 C   0  0  0  0  0  0  0  0  0  0  0  0
    4.7760   -6.0280   29.2340 C   0  0  0  0  0  0  0  0  0  0  0  0
    5.0740   -7.2430   28.6670 C   0  0  0  0  0  0  0  0  0  0  0  0
    5.2600   -6.3850   27.4090 C   0  0  0  0  0  0  0  0  0  0  0  0
    4.5560   -5.5070   26.6260 C   0  0  1  0  0  0  0  0  0  0  0  0
    3.2460   -5.1070   25.9220 C   0  0  0  0  0  0  0  0  0  0  0  0
    2.1260   -4.0880   26.0410 C   0  0  0  0  0  0  0  0  0  0  0  0
    1.1860   -4.4100   24.9000 C   0  0  0  0  0  0  0  0  0  0  0  0
    1.6740   -5.7450   23.8990 S   0  0  0  0  0  0  0  0  0  0  0  0
    3.1520   -6.0790   24.8130 C   0  0  0  0  0  0  0  0  0  0  0  0
    7.4910   -3.2420   23.6780 C   0  0  0  0  0  0  0  0  0  0  0  0
    7.5890   -3.1590   22.2760 C   0  0  0  0  0  0  0  0  0  0  0  0
  1  2  1  0
  2  3  2  0
  2  4  1  0
  4  5  1  0
  5  6  1  0
  6  7  1  0
  7  8  1  0
  8  9  2  0
  8 10  1  0
 10 11  1  0
 12 11  1  0
 12 13  1  0
 13 14  1  0
 12 15  1  0
 14 15  1  0
 10 16  1  0
 12 16  1  0
 16 17  1  6
 17 18  1  0
 18 19  2  0
 19 20  1  0
 17 21  2  0
 20 21  1  0
  7 22  1  0
  4 23  1  0
 22 23  1  0
M  END
