piperidine-amides-31733-covalent
     RDKit          3D

 27 29  0  0  0  0  0  0  0  0999 V2000
    7.0430   -3.3480   19.4220 C   0  0  0  0  0  0  0  0  0  0  0  0
    6.3320   -4.1840   20.3720 C   0  0  0  0  0  0  0  0  0  0  0  0
    5.3660   -4.8950   19.9700 O   0  0  0  0  0  0  0  0  0  0  0  0
    6.6980   -4.2450   21.7250 N   0  0  0  0  0  0  0  0  0  0  0  0
    7.6050   -3.1580   22.1670 C   0  0  0  0  0  0  0  0  0  0  0  0
    7.3300   -3.0830   23.7030 C   0  0  0  0  0  0  0  0  0  0  0  0
    6.0090   -3.6920   23.9400 C   0  0  0  0  0  0  0  0  0  0  0  0
    5.2940   -3.0830   25.2400 C   0  0  0  0  0  0  0  0  0  0  0  0
    4.2590   -2.5470   24.8780 O   0  0  0  0  0  0  0  0  0  0  0  0
    5.9240   -3.2780   26.3510 N   0  0  0  0  0  0  0  0  0  0  0  0
    6.3740   -3.9400   27.4690 C   0  0  0  0  0  0  0  0  0  0  0  0
    7.0440   -5.1100   27.7730 C   0  0  0  0  0  0  0  0  0  0  0  0
    6.0340   -6.0310   28.3150 N   0  0  0  0  0  0  0  0  0  0  0  0
    5.8330   -6.6820   29.4620 C   0  0  0  0  0  0  0  0  0  0  0  0
    4.5740   -7.4640   29.3240 C   0  0  0  0  0  0  0  0  0  0  0  0
    4.1380   -7.1980   28.0840 N   0  0  0  0  0  0  0  0  0  0  0  0
    4.9270   -6.3910   27.4580 C   0  0  0  0  0  0  0  0  0  0  0  0
    4.8940   -5.8450   26.1770 C   0  0  0  0  0  0  0  0  0  0  0  0
    6.1470   -1.9860   27.0260 C   0  0  0  0  0  0  0  0  0  0  0  0
    6.8140   -2.0850   28.4010 C   0  0  0  0  0  0  0  0  0  0  0  0
    7.0000   -0.6940   29.0540 C   0  0  0  0  0  0  0  0  0  0  0  0
    6.5990    0.4550   28.4380 C   0  0  0  0  0  0  0  0  0  0  0  0
    6.0060    0.4650   27.1950 C   0  0  0  0  0  0  0  0  0  0  0  0
    5.5100    1.9830   26.4450 Cl  0  0  0  0  0  0  0  0  0  0  0  0
    5.8090   -0.7370   26.5480 C   0  0  0  0  0  0  0  0  0  0  0  0
    5.9590   -5.1620   23.7070 C   0  0  0  0  0  0  0  0  0  0  0  0
    6.5780   -5.4630   22.4900 C   0  0  0  0  0  0  0  0  0  0  0  0
  1  2  1  0
  2  3  2  0
  2  4  1  0
  4  5  1  0
  5  6  1  0
  6  7  1  0
  7  8  1  0
  8  9  2  0
  8 10  1  0
 10 11  1  0
 11 12  1  0
 12 13  1  0
 13 14  1  0
 14 15  2  0
 15 16  1  0
 13 17  1  0
 16 17  2  0
 17 18  1  0
 10 19  1  0
 19 20  2  0
 20 21  1  0
 21 22  2  0
 22 23  1  0
 23 24  1  0
 19 25  1  0
 23 25  2  0
  7 26  1  0
  4 27  1  0
 26 27  1  0
M  END
