piperidine-amides-1900-covalent
     RDKit          3D

 16 16  0  0  0  0  0  0  0  0999 V2000
    7.0960   -3.2670   19.2510 C   0  0  0  0  0  0  0  0  0  0  0  0
    6.3750   -4.0630   20.2780 C   0  0  0  0  0  0  0  0  0  0  0  0
    5.3430   -4.6290   19.9190 O   0  0  0  0  0  0  0  0  0  0  0  0
    6.8960   -4.1820   21.5710 N   0  0  0  0  0  0  0  0  0  0  0  0
    7.7370   -3.1470   22.1280 C   0  0  0  0  0  0  0  0  0  0  0  0
    7.3670   -2.9480   23.5620 C   0  0  0  0  0  0  0  0  0  0  0  0
    5.9910   -3.5730   23.7820 C   0  0  0  0  0  0  0  0  0  0  0  0
    5.5320   -3.2350   25.1370 C   0  0  0  0  0  0  0  0  0  0  0  0
    4.4250   -2.7120   25.2890 O   0  0  0  0  0  0  0  0  0  0  0  0
    6.3240   -3.5030   26.2530 N   0  0  0  0  0  0  0  0  0  0  0  0
    5.8720   -4.5270   27.1570 C   0  0  0  0  0  0  0  0  0  0  0  0
    6.1780   -4.0390   28.5400 C   0  0  2  0  0  0  0  0  0  0  0  0
    6.5600   -2.7520   28.8120 C   0  0  0  0  0  0  0  0  0  0  0  0
    7.2220   -4.8550   28.9510 F   0  0  0  0  0  0  0  0  0  0  0  0
    6.1560   -5.0810   23.6150 C   0  0  0  0  0  0  0  0  0  0  0  0
    6.5840   -5.3540   22.3440 C   0  0  0  0  0  0  0  0  0  0  0  0
  1  2  1  0
  2  3  2  0
  2  4  1  0
  4  5  1  0
  5  6  1  0
  6  7  1  0
  7  8  1  0
  8  9  2  0
  8 10  1  0
 10 11  1  0
 11 12  1  0
 12 13  1  6
 12 14  1  0
  7 15  1  0
  4 16  1  0
 15 16  1  0
M  END
