piperidine-amides-157-covalent
     RDKit          3D

 27 29  0  0  0  0  0  0  0  0999 V2000
    7.2250   -3.0690   18.9890 C   0  0  0  0  0  0  0  0  0  0  0  0
    6.2820   -3.5310   19.9840 C   0  0  0  0  0  0  0  0  0  0  0  0
    5.2450   -4.1760   19.6520 O   0  0  0  0  0  0  0  0  0  0  0  0
    6.4500   -3.3300   21.3440 N   0  0  0  0  0  0  0  0  0  0  0  0
    5.9080   -4.4280   22.1540 C   0  0  0  0  0  0  0  0  0  0  0  0
    4.9240   -3.6510   23.1100 C   0  0  0  0  0  0  0  0  0  0  0  0
    5.6950   -2.5280   23.8040 C   0  0  0  0  0  0  0  0  0  0  0  0
    5.1180   -2.2500   25.2930 C   0  0  0  0  0  0  0  0  0  0  0  0
    4.0000   -1.7930   25.1460 O   0  0  0  0  0  0  0  0  0  0  0  0
    5.8750   -2.5630   26.2960 N   0  0  0  0  0  0  0  0  0  0  0  0
    6.5380   -2.9390   27.4500 C   0  0  0  0  0  0  0  0  0  0  0  0
    6.4760   -3.6340   28.6460 C   0  0  2  0  0  0  0  0  0  0  0  0
    6.9480   -4.9630   28.6800 C   0  0  0  0  0  0  0  0  0  0  0  0
    6.4090   -5.6620   27.5100 C   0  0  0  0  0  0  0  0  0  0  0  0
    5.5580   -4.8590   26.7320 N   0  0  0  0  0  0  0  0  0  0  0  0
    6.0080   -3.9070   25.7070 C   0  0  0  0  0  0  0  0  0  0  0  0
    6.3060   -4.5990   24.5320 C   0  0  0  0  0  0  0  0  0  0  0  0
    5.5080   -5.7840   24.3350 C   0  0  0  0  0  0  0  0  0  0  0  0
    6.1160   -6.2380   22.9840 C   0  0  0  0  0  0  0  0  0  0  0  0
    7.2190   -5.5730   22.1670 C   0  0  0  0  0  0  0  0  0  0  0  0
    7.7680   -4.4540   22.6290 C   0  0  0  0  0  0  0  0  0  0  0  0
    7.3210   -3.9720   23.7980 C   0  0  0  0  0  0  0  0  0  0  0  0
    4.4950   -4.3020   27.5070 C   0  0  0  0  0  0  0  0  0  0  0  0
    4.9740   -3.8490   28.7210 C   0  0  2  0  0  0  0  0  0  0  0  0
    4.4160   -2.6780   29.2260 C   0  0  0  0  0  0  0  0  0  0  0  0
    7.1180   -2.2400   23.4320 C   0  0  0  0  0  0  0  0  0  0  0  0
    7.4000   -2.4300   21.9580 C   0  0  0  0  0  0  0  0  0  0  0  0
  1  2  1  0
  2  3  2  0
  2  4  1  0
  4  5  1  0
  5  6  1  0
  6  7  1  0
  7  8  1  0
  8  9  2  0
  8 10  1  0
 10 11  1  0
 12 11  1  6
 12 13  1  0
 13 14  1  0
 14 15  1  0
 15 16  1  0
 16 17  1  0
 17 18  2  0
 18 19  1  0
 19 20  2  0
 20 21  1  0
 17 22  1  0
 21 22  2  0
 15 23  1  0
 12 24  1  0
 23 24  1  0
 24 25  1  6
  7 26  1  0
  4 27  1  0
 26 27  1  0
M  END
