piperidine-amides-34260-covalent
     RDKit          3D

 26 27  0  0  0  0  0  0  0  0999 V2000
    7.0870   -3.2610   19.2190 C   0  0  0  0  0  0  0  0  0  0  0  0
    6.3370   -4.0270   20.2300 C   0  0  0  0  0  0  0  0  0  0  0  0
    5.2900   -4.6270   19.9090 O   0  0  0  0  0  0  0  0  0  0  0  0
    6.8000   -4.1440   21.5450 N   0  0  0  0  0  0  0  0  0  0  0  0
    6.6080   -5.4080   22.2210 C   0  0  0  0  0  0  0  0  0  0  0  0
    6.0290   -5.1300   23.6210 C   0  0  0  0  0  0  0  0  0  0  0  0
    6.0960   -3.6400   23.8990 C   0  0  0  0  0  0  0  0  0  0  0  0
    5.7020   -3.3700   25.2970 C   0  0  0  0  0  0  0  0  0  0  0  0
    4.4830   -3.4360   25.5690 O   0  0  0  0  0  0  0  0  0  0  0  0
    6.6650   -3.0460   26.2880 N   0  0  0  0  0  0  0  0  0  0  0  0
    6.8990   -1.6550   26.5390 C   0  0  0  0  0  0  0  0  0  0  0  0
    5.5520   -1.0140   26.8200 C   0  0  0  0  0  0  0  0  0  0  0  0
    4.5230   -0.8310   25.8960 C   0  0  0  0  0  0  0  0  0  0  0  0
    3.3080   -0.2420   26.2040 C   0  0  0  0  0  0  0  0  0  0  0  0
    3.0340    0.2130   27.4750 C   0  0  0  0  0  0  0  0  0  0  0  0
    3.9540    0.0890   28.4460 C   0  0  0  0  0  0  0  0  0  0  0  0
    5.3090   -0.5280   28.2560 C   0  0  0  0  0  0  0  0  0  0  0  0
    6.6070   -0.6980   29.6520 Br  0  0  0  0  0  0  0  0  0  0  0  0
    6.7230   -3.7090   27.5760 C   0  0  1  0  0  0  0  0  0  0  0  0
    6.4510   -5.1910   27.5740 C   0  0  0  0  0  0  0  0  0  0  0  0
    7.8780   -4.6490   27.7970 C   0  0  0  0  0  0  0  0  0  0  0  0
    8.4490   -4.9360   26.5560 C   0  0  0  0  0  0  0  0  0  0  0  0
    9.2570   -5.9930   26.7020 C   0  0  0  0  0  0  0  0  0  0  0  0
    8.4460   -6.9010   27.1270 O   0  0  0  0  0  0  0  0  0  0  0  0
    7.4640   -3.0700   23.5980 C   0  0  0  0  0  0  0  0  0  0  0  0
    7.6440   -3.1190   22.1090 C   0  0  0  0  0  0  0  0  0  0  0  0
  1  2  1  0
  2  3  2  0
  2  4  1  0
  4  5  1  0
  5  6  1  0
  6  7  1  0
  7  8  1  0
  8  9  2  0
  8 10  1  0
 10 11  1  0
 11 12  1  0
 12 13  2  0
 13 14  1  0
 14 15  2  0
 15 16  1  0
 12 17  1  0
 16 17  2  0
 17 18  1  0
 10 19  1  0
 19 20  1  6
 19 21  1  0
 21 22  1  0
 22 23  1  0
 23 24  1  0
  7 25  1  0
  4 26  1  0
 25 26  1  0
M  END
