piperidine-amides-27686-covalent
     RDKit          3D

 26 29  0  0  0  0  0  0  0  0999 V2000
    7.1050   -3.3120   19.2990 C   0  0  0  0  0  0  0  0  0  0  0  0
    6.3440   -4.0750   20.2920 C   0  0  0  0  0  0  0  0  0  0  0  0
    5.2620   -4.5740   19.8950 O   0  0  0  0  0  0  0  0  0  0  0  0
    6.8480   -4.2800   21.5820 N   0  0  0  0  0  0  0  0  0  0  0  0
    6.6640   -5.5420   22.2690 C   0  0  0  0  0  0  0  0  0  0  0  0
    6.1580   -5.2800   23.6660 C   0  0  0  0  0  0  0  0  0  0  0  0
    6.0190   -3.8130   23.9670 C   0  0  0  0  0  0  0  0  0  0  0  0
    5.6430   -3.5980   25.3830 C   0  0  0  0  0  0  0  0  0  0  0  0
    5.6750   -2.4270   25.8100 O   0  0  0  0  0  0  0  0  0  0  0  0
    5.2130   -4.6220   26.2690 N   0  0  0  0  0  0  0  0  0  0  0  0
    6.0070   -5.0060   27.3830 C   0  0  0  0  0  0  0  0  0  0  0  0
    4.7090   -4.9370   28.0600 C   0  0  0  0  0  0  0  0  0  0  0  0
    3.9140   -4.6550   26.9460 C   0  0  0  0  0  0  0  0  0  0  0  0
    4.2880   -6.0110   28.5870 O   0  0  0  0  0  0  0  0  0  0  0  0
    3.1250   -5.8520   29.2720 C   0  0  0  0  0  0  0  0  0  0  0  0
    2.0900   -6.7380   29.0510 O   0  0  0  0  0  0  0  0  0  0  0  0
    2.9790   -4.8460   30.1530 N   0  0  0  0  0  0  0  0  0  0  0  0
    3.8200   -3.8370   30.0550 C   0  0  0  0  0  0  0  0  0  0  0  0
    3.8610   -2.7650   30.9280 C   0  0  0  0  0  0  0  0  0  0  0  0
    3.3350   -2.1740   32.0550 C   0  0  0  0  0  0  0  0  0  0  0  0
    4.7810   -1.5530   30.9180 C   0  0  0  0  0  0  0  0  0  0  0  0
    5.7770   -1.5350   29.7880 C   0  0  0  0  0  0  0  0  0  0  0  0
    5.7210   -2.7090   28.8370 C   0  0  0  0  0  0  0  0  0  0  0  0
    4.7100   -3.8690   28.9930 C   0  0  0  0  0  0  0  0  0  0  0  0
    7.2480   -3.0420   23.6270 C   0  0  0  0  0  0  0  0  0  0  0  0
    7.6630   -3.2650   22.1930 C   0  0  0  0  0  0  0  0  0  0  0  0
  1  2  1  0
  2  3  2  0
  2  4  1  0
  4  5  1  0
  5  6  1  0
  6  7  1  0
  7  8  1  0
  8  9  2  0
  8 10  1  0
 10 11  1  0
 11 12  1  0
 10 13  1  0
 12 13  1  0
 12 14  1  0
 14 15  1  0
 15 16  2  0
 15 17  1  0
 17 18  1  0
 18 19  2  0
 19 20  1  0
 19 21  1  0
 21 22  2  0
 22 23  1  0
 12 24  1  0
 18 24  1  0
 23 24  2  0
  7 25  1  0
  4 26  1  0
 25 26  1  0
M  END
