piperidine-amides-9277-covalent
     RDKit          3D

 20 20  0  0  0  0  0  0  0  0999 V2000
    7.1030   -3.2710   19.2190 C   0  0  0  0  0  0  0  0  0  0  0  0
    6.3400   -4.0170   20.2270 C   0  0  0  0  0  0  0  0  0  0  0  0
    5.2790   -4.5650   19.8880 O   0  0  0  0  0  0  0  0  0  0  0  0
    6.8020   -4.1690   21.5430 N   0  0  0  0  0  0  0  0  0  0  0  0
    7.7120   -3.2040   22.1240 C   0  0  0  0  0  0  0  0  0  0  0  0
    7.2160   -2.8960   23.5060 C   0  0  0  0  0  0  0  0  0  0  0  0
    5.9470   -3.6120   23.8340 C   0  0  0  0  0  0  0  0  0  0  0  0
    5.5280   -3.3510   25.2200 C   0  0  0  0  0  0  0  0  0  0  0  0
    4.3110   -3.2120   25.5230 O   0  0  0  0  0  0  0  0  0  0  0  0
    6.4760   -3.2500   26.2400 N   0  0  0  0  0  0  0  0  0  0  0  0
    6.4250   -2.1170   27.1610 C   0  0  0  0  0  0  0  0  0  0  0  0
    6.3900   -2.6280   28.5410 C   0  0  0  0  0  0  0  0  0  0  0  0
    6.0690   -1.6430   29.6000 C   0  0  0  0  0  0  0  0  0  0  0  0
    5.7960   -0.2730   29.1650 N   0  0  0  0  0  0  0  0  0  0  0  0
    5.5300    0.5250   30.4980 S   0  0  0  0  0  0  0  0  0  0  0  0
    6.6270    1.8310   30.6880 N   0  0  0  0  0  0  0  0  0  0  0  0
    4.1180    0.9590   30.5020 O   0  0  0  0  0  0  0  0  0  0  0  0
    5.7840   -0.4070   31.6660 O   0  0  0  0  0  0  0  0  0  0  0  0
    6.1130   -5.0990   23.6490 C   0  0  0  0  0  0  0  0  0  0  0  0
    6.6640   -5.4030   22.2730 C   0  0  0  0  0  0  0  0  0  0  0  0
  1  2  1  0
  2  3  2  0
  2  4  1  0
  4  5  1  0
  5  6  1  0
  6  7  1  0
  7  8  1  0
  8  9  2  0
  8 10  1  0
 10 11  1  0
 11 12  1  0
 12 13  1  0
 13 14  1  0
 15 14  1  0
 15 16  1  0
 15 17  2  0
 15 18  2  0
  7 19  1  0
  4 20  1  0
 19 20  1  0
M  END
