piperidine-amides-28117-covalent
     RDKit          3D

 25 27  0  0  0  0  0  0  0  0999 V2000
    7.0420   -3.3800   19.3490 C   0  0  0  0  0  0  0  0  0  0  0  0
    6.3660   -4.1960   20.3800 C   0  0  0  0  0  0  0  0  0  0  0  0
    5.3780   -4.8500   19.9860 O   0  0  0  0  0  0  0  0  0  0  0  0
    6.8440   -4.2650   21.7080 N   0  0  0  0  0  0  0  0  0  0  0  0
    6.6390   -5.4540   22.4690 C   0  0  0  0  0  0  0  0  0  0  0  0
    6.1660   -5.1660   23.8210 C   0  0  0  0  0  0  0  0  0  0  0  0
    6.1010   -3.7170   24.0900 C   0  0  0  0  0  0  0  0  0  0  0  0
    5.5700   -3.3840   25.4550 C   0  0  0  0  0  0  0  0  0  0  0  0
    4.3410   -3.2020   25.5150 O   0  0  0  0  0  0  0  0  0  0  0  0
    6.3250   -3.2410   26.6520 N   0  0  0  0  0  0  0  0  0  0  0  0
    6.2510   -4.2720   27.7330 C   0  0  0  0  0  0  0  0  0  0  0  0
    6.0800   -5.6800   27.2640 C   0  0  0  0  0  0  0  0  0  0  0  0
    4.9100   -6.4540   27.6640 C   0  0  0  0  0  0  0  0  0  0  0  0
    4.0820   -6.9280   26.6760 C   0  0  0  0  0  0  0  0  0  0  0  0
    6.3470   -1.9040   27.2570 C   0  0  0  0  0  0  0  0  0  0  0  0
    5.8990   -0.6130   26.7640 N   0  0  0  0  0  0  0  0  0  0  0  0
    6.0520    0.4270   27.5810 C   0  0  0  0  0  0  0  0  0  0  0  0
    5.6610    1.6640   27.1930 C   0  0  0  0  0  0  0  0  0  0  0  0
    5.8420    2.7140   28.0710 C   0  0  0  0  0  0  0  0  0  0  0  0
    6.4230    2.5080   29.3510 C   0  0  0  0  0  0  0  0  0  0  0  0
    6.8740    1.1680   29.8360 C   0  0  0  0  0  0  0  0  0  0  0  0
    6.5930    0.1870   28.7500 C   0  0  0  0  0  0  0  0  0  0  0  0
    6.9470   -1.4760   28.8610 S   0  0  0  0  0  0  0  0  0  0  0  0
    7.4250   -3.0540   23.6800 C   0  0  0  0  0  0  0  0  0  0  0  0
    7.6760   -3.2100   22.2840 C   0  0  0  0  0  0  0  0  0  0  0  0
  1  2  1  0
  2  3  2  0
  2  4  1  0
  4  5  1  0
  5  6  1  0
  6  7  1  0
  7  8  1  0
  8  9  2  0
  8 10  1  0
 10 11  1  0
 11 12  1  0
 12 13  1  0
 13 14  1  0
 10 15  1  0
 15 16  2  0
 16 17  1  0
 17 18  2  0
 18 19  1  0
 19 20  2  0
 20 21  1  0
 17 22  1  0
 21 22  2  0
 15 23  1  0
 22 23  1  0
  7 24  1  0
  4 25  1  0
 24 25  1  0
M  END
