piperidine-amides-28691-covalent
     RDKit          3D

 26 28  0  0  0  0  0  0  0  0999 V2000
    7.1370   -3.3810   19.3100 C   0  0  0  0  0  0  0  0  0  0  0  0
    6.4610   -4.2120   20.2910 C   0  0  0  0  0  0  0  0  0  0  0  0
    5.3880   -4.7570   19.9690 O   0  0  0  0  0  0  0  0  0  0  0  0
    7.0820   -4.4260   21.5440 N   0  0  0  0  0  0  0  0  0  0  0  0
    6.6270   -5.5010   22.3590 C   0  0  0  0  0  0  0  0  0  0  0  0
    5.7660   -4.9250   23.4420 C   0  0  0  0  0  0  0  0  0  0  0  0
    6.5710   -3.8640   24.1830 C   0  0  0  0  0  0  0  0  0  0  0  0
    5.7440   -3.2890   25.2700 C   0  0  0  0  0  0  0  0  0  0  0  0
    4.6870   -2.7660   24.9360 O   0  0  0  0  0  0  0  0  0  0  0  0
    6.2060   -3.3930   26.5520 N   0  0  0  0  0  0  0  0  0  0  0  0
    5.7290   -2.5910   27.5300 C   0  0  0  0  0  0  0  0  0  0  0  0
    5.2170   -3.5120   28.4190 C   0  0  2  0  0  0  0  0  0  0  0  0
    6.0520   -4.1480   29.2550 C   0  0  0  0  0  0  0  0  0  0  0  0
    5.4270   -5.2910   29.5600 C   0  0  2  0  0  0  0  0  0  0  0  0
    6.5460   -6.2390   29.2880 C   0  0  0  0  0  0  0  0  0  0  0  0
    4.1780   -5.1770   28.9990 N   0  0  0  0  0  0  0  0  0  0  0  0
    3.6020   -6.3580   29.1150 C   0  0  0  0  0  0  0  0  0  0  0  0
    2.7190   -6.6520   28.2700 O   0  0  0  0  0  0  0  0  0  0  0  0
    3.9600   -7.3020   30.1880 C   0  0  0  0  0  0  0  0  0  0  0  0
    5.1960   -7.8840   29.5740 C   0  0  0  0  0  0  0  0  0  0  0  0
    2.9530   -8.1750   30.4900 C   0  0  0  0  0  0  0  0  0  0  0  0
    4.1920   -6.6580   31.3980 C   0  0  0  0  0  0  0  0  0  0  0  0
    4.5990   -4.7850   27.6950 C   0  0  2  0  0  0  0  0  0  0  0  0
    5.9860   -4.6650   27.1250 C   0  0  0  0  0  0  0  0  0  0  0  0
    7.0070   -2.7420   23.2430 C   0  0  0  0  0  0  0  0  0  0  0  0
    7.8280   -3.3840   22.1740 C   0  0  0  0  0  0  0  0  0  0  0  0
  1  2  1  0
  2  3  2  0
  2  4  1  0
  4  5  1  0
  5  6  1  0
  6  7  1  0
  7  8  1  0
  8  9  2  0
  8 10  1  0
 10 11  1  0
 12 11  1  6
 12 13  1  0
 13 14  1  0
 14 15  1  6
 14 16  1  0
 16 17  1  0
 17 18  2  0
 19 17  1  0
 19 20  1  0
 19 21  1  0
 19 22  1  0
 12 23  1  0
 16 23  1  0
 10 24  1  0
 23 24  1  1
  7 25  1  0
  4 26  1  0
 25 26  1  0
M  END
