piperidine-amides-18836-covalent
     RDKit          3D

 21 23  0  0  0  0  0  0  0  0999 V2000
    7.1690   -3.3690   19.4390 C   0  0  0  0  0  0  0  0  0  0  0  0
    6.4910   -4.2230   20.3790 C   0  0  0  0  0  0  0  0  0  0  0  0
    5.4410   -4.8420   19.9940 O   0  0  0  0  0  0  0  0  0  0  0  0
    7.0050   -4.4160   21.6800 N   0  0  0  0  0  0  0  0  0  0  0  0
    6.5020   -5.5550   22.4590 C   0  0  0  0  0  0  0  0  0  0  0  0
    5.4910   -4.7890   23.3960 C   0  0  0  0  0  0  0  0  0  0  0  0
    6.2710   -3.6820   24.0940 C   0  0  0  0  0  0  0  0  0  0  0  0
    5.3760   -3.1260   25.2820 C   0  0  0  0  0  0  0  0  0  0  0  0
    4.6200   -2.2560   24.8920 O   0  0  0  0  0  0  0  0  0  0  0  0
    5.6810   -3.7460   26.3330 N   0  0  0  0  0  0  0  0  0  0  0  0
    6.1910   -4.6760   27.1160 C   0  0  0  0  0  0  0  0  0  0  0  0
    5.7890   -5.4750   28.0500 C   0  0  2  0  0  0  0  0  0  0  0  0
    5.5720   -6.7640   27.7010 F   0  0  0  0  0  0  0  0  0  0  0  0
    4.6230   -4.8750   28.2570 C   0  0  0  0  0  0  0  0  0  0  0  0
    5.4870   -3.9960   28.9820 C   0  0  2  0  0  0  0  0  0  0  0  0
    4.0530   -3.6140   29.4490 C   0  0  0  0  0  0  0  0  0  0  0  0
    2.9750   -3.7550   28.5420 O   0  0  0  0  0  0  0  0  0  0  0  0
    5.2140   -3.1630   27.6720 C   0  0  0  0  0  0  0  0  0  0  0  0
    6.4060   -5.2330   29.1950 C   0  0  0  0  0  0  0  0  0  0  0  0
    6.9720   -2.7180   23.2900 C   0  0  0  0  0  0  0  0  0  0  0  0
    7.8830   -3.5350   22.3440 C   0  0  0  0  0  0  0  0  0  0  0  0
  1  2  1  0
  2  3  2  0
  2  4  1  0
  4  5  1  0
  5  6  1  0
  6  7  1  0
  7  8  1  0
  8  9  2  0
  8 10  1  0
 10 11  1  0
 11 12  1  0
 12 13  1  6
 12 14  1  0
 14 15  1  0
 15 16  1  1
 16 17  1  0
 10 18  1  0
 15 18  1  0
 12 19  1  0
 15 19  1  0
  7 20  1  0
  4 21  1  0
 20 21  1  0
M  END
