piperidine-amides-27119-covalent
     RDKit          3D

 25 27  0  0  0  0  0  0  0  0999 V2000
    7.0660   -3.3000   19.2840 C   0  0  0  0  0  0  0  0  0  0  0  0
    6.3740   -4.0970   20.3020 C   0  0  0  0  0  0  0  0  0  0  0  0
    5.3210   -4.6770   19.9300 O   0  0  0  0  0  0  0  0  0  0  0  0
    6.9010   -4.2290   21.5920 N   0  0  0  0  0  0  0  0  0  0  0  0
    6.6740   -5.4100   22.3820 C   0  0  0  0  0  0  0  0  0  0  0  0
    6.0610   -5.0020   23.6950 C   0  0  0  0  0  0  0  0  0  0  0  0
    6.5260   -3.6640   24.2450 C   0  0  0  0  0  0  0  0  0  0  0  0
    5.4210   -3.1180   25.0670 C   0  0  0  0  0  0  0  0  0  0  0  0
    4.2790   -3.1340   24.5620 O   0  0  0  0  0  0  0  0  0  0  0  0
    5.5170   -2.5930   26.3700 N   0  0  0  0  0  0  0  0  0  0  0  0
    4.3400   -1.9570   26.9320 C   0  0  0  0  0  0  0  0  0  0  0  0
    5.2070   -1.0780   27.6620 C   0  0  0  0  0  0  0  0  0  0  0  0
    5.2050    0.1520   27.4000 O   0  0  0  0  0  0  0  0  0  0  0  0
    5.3590   -1.1430   29.0260 C   0  0  0  0  0  0  0  0  0  0  0  0
    6.3960   -0.4160   29.5690 C   0  0  0  0  0  0  0  0  0  0  0  0
    7.1900    0.4670   28.8690 O   0  0  0  0  0  0  0  0  0  0  0  0
    6.6060   -0.6090   30.9110 O   0  0  0  0  0  0  0  0  0  0  0  0
    7.2220    0.3280   31.7700 C   0  0  0  0  0  0  0  0  0  0  0  0
    8.5370    0.4140   31.3530 C   0  0  0  0  0  0  0  0  0  0  0  0
    5.3150   -2.4540   29.5470 C   0  0  0  0  0  0  0  0  0  0  0  0
    4.0770   -2.4580   30.3720 C   0  0  0  0  0  0  0  0  0  0  0  0
    4.1800   -1.0940   29.7670 C   0  0  0  0  0  0  0  0  0  0  0  0
    6.3740   -1.6050   27.1580 C   0  0  0  0  0  0  0  0  0  0  0  0
    6.8380   -2.6410   23.1830 C   0  0  0  0  0  0  0  0  0  0  0  0
    7.6790   -3.1820   22.2440 C   0  0  0  0  0  0  0  0  0  0  0  0
  1  2  1  0
  2  3  2  0
  2  4  1  0
  4  5  1  0
  5  6  1  0
  6  7  1  0
  7  8  1  0
  8  9  2  0
  8 10  1  0
 10 11  1  0
 11 12  1  0
 12 13  1  0
 12 14  1  0
 14 15  1  0
 15 16  2  0
 15 17  1  0
 17 18  1  0
 18 19  1  0
 14 20  1  0
 20 21  1  0
 14 22  1  0
 21 22  1  0
 10 23  1  0
 12 23  1  0
  7 24  1  0
  4 25  1  0
 24 25  1  0
M  END
