piperidine-amides-1952-covalent
     RDKit          3D

 25 27  0  0  0  0  0  0  0  0999 V2000
    7.0720   -3.2880   19.3290 C   0  0  0  0  0  0  0  0  0  0  0  0
    6.3290   -4.0920   20.3330 C   0  0  0  0  0  0  0  0  0  0  0  0
    5.3150   -4.6640   19.9290 O   0  0  0  0  0  0  0  0  0  0  0  0
    6.8000   -4.2160   21.6490 N   0  0  0  0  0  0  0  0  0  0  0  0
    6.6710   -5.4530   22.3720 C   0  0  0  0  0  0  0  0  0  0  0  0
    6.0570   -5.1660   23.7130 C   0  0  0  0  0  0  0  0  0  0  0  0
    5.9710   -3.6520   23.8850 C   0  0  0  0  0  0  0  0  0  0  0  0
    5.5680   -3.3200   25.2760 C   0  0  0  0  0  0  0  0  0  0  0  0
    4.3940   -3.0050   25.5000 O   0  0  0  0  0  0  0  0  0  0  0  0
    6.4980   -3.3420   26.3270 N   0  0  0  0  0  0  0  0  0  0  0  0
    6.1200   -3.8010   27.6580 C   0  0  0  0  0  0  0  0  0  0  0  0
    5.9110   -5.3190   27.6890 C   0  0  1  0  0  0  0  0  0  0  0  0
    5.2510   -6.1480   26.8400 C   0  0  0  0  0  0  0  0  0  0  0  0
    6.9080   -6.0100   28.3480 O   0  0  0  0  0  0  0  0  0  0  0  0
    4.7350   -5.9480   28.2410 C   0  0  0  0  0  0  0  0  0  0  0  0
    4.4940   -7.0740   28.9550 C   0  0  0  0  0  0  0  0  0  0  0  0
    3.1110   -7.5160   29.4650 C   0  0  0  0  0  0  0  0  0  0  0  0
    2.3280   -6.4630   28.6760 C   0  0  1  0  0  0  0  0  0  0  0  0
    2.8020   -5.2040   29.2980 C   0  0  0  0  0  0  0  0  0  0  0  0
    3.5760   -5.2740   28.0440 C   0  0  2  0  0  0  0  0  0  0  0  0
    2.6890   -6.3070   27.3410 C   0  0  0  0  0  0  0  0  0  0  0  0
    3.1730   -7.5940   26.6830 C   0  0  0  0  0  0  0  0  0  0  0  0
    1.6930   -5.6120   26.4160 C   0  0  0  0  0  0  0  0  0  0  0  0
    7.3090   -3.0000   23.5650 C   0  0  0  0  0  0  0  0  0  0  0  0
    7.6700   -3.1940   22.2400 C   0  0  0  0  0  0  0  0  0  0  0  0
  1  2  1  0
  2  3  2  0
  2  4  1  0
  4  5  1  0
  5  6  1  0
  6  7  1  0
  7  8  1  0
  8  9  2  0
  8 10  1  0
 10 11  1  0
 11 12  1  0
 12 13  1  6
 12 14  1  0
 12 15  1  0
 15 16  2  0
 16 17  1  0
 18 17  1  1
 18 19  1  0
 15 20  1  0
 20 19  1  1
 18 21  1  0
 20 21  1  0
 21 22  1  0
 21 23  1  0
  7 24  1  0
  4 25  1  0
 24 25  1  0
M  END
