piperidine-amides-19527-covalent
     RDKit          3D

 22 23  0  0  0  0  0  0  0  0999 V2000
    7.0450   -3.4370   19.3880 C   0  0  0  0  0  0  0  0  0  0  0  0
    6.3850   -4.2100   20.4170 C   0  0  0  0  0  0  0  0  0  0  0  0
    5.4340   -4.9580   20.0220 O   0  0  0  0  0  0  0  0  0  0  0  0
    6.7770   -4.1950   21.7870 N   0  0  0  0  0  0  0  0  0  0  0  0
    7.7240   -3.0990   22.1950 C   0  0  0  0  0  0  0  0  0  0  0  0
    7.6870   -3.1030   23.7760 C   0  0  0  0  0  0  0  0  0  0  0  0
    6.3160   -3.6150   24.0850 C   0  0  0  0  0  0  0  0  0  0  0  0
    5.5080   -2.9390   25.2920 C   0  0  0  0  0  0  0  0  0  0  0  0
    4.5840   -2.3220   24.7850 O   0  0  0  0  0  0  0  0  0  0  0  0
    5.9440   -3.1740   26.4830 N   0  0  0  0  0  0  0  0  0  0  0  0
    6.2730   -3.8660   27.6250 C   0  0  0  0  0  0  0  0  0  0  0  0
    6.4780   -5.1770   27.9790 C   0  0  0  0  0  0  0  0  0  0  0  0
    5.4220   -6.0820   27.7380 C   0  0  0  0  0  0  0  0  0  0  0  0
    5.2390   -7.2040   28.6800 C   0  0  0  0  0  0  0  0  0  0  0  0
    5.7700   -1.9250   27.2560 C   0  0  0  0  0  0  0  0  0  0  0  0
    6.7710   -1.6660   28.2300 C   0  0  0  0  0  0  0  0  0  0  0  0
    6.2460   -1.0490   29.4060 C   0  0  0  0  0  0  0  0  0  0  0  0
    6.8040   -0.0080   28.4380 C   0  0  0  0  0  0  0  0  0  0  0  0
    5.8650    0.3970   27.2600 C   0  0  0  0  0  0  0  0  0  0  0  0
    5.5800   -0.7190   26.5490 C   0  0  0  0  0  0  0  0  0  0  0  0
    6.1510   -5.0930   23.8290 C   0  0  0  0  0  0  0  0  0  0  0  0
    6.6250   -5.4030   22.5900 C   0  0  0  0  0  0  0  0  0  0  0  0
  1  2  1  0
  2  3  2  0
  2  4  1  0
  4  5  1  0
  5  6  1  0
  6  7  1  0
  7  8  1  0
  8  9  2  0
  8 10  1  0
 10 11  1  0
 11 12  1  0
 12 13  3  0
 13 14  1  0
 10 15  1  0
 15 16  1  0
 16 17  1  0
 17 18  1  0
 18 19  1  0
 15 20  1  0
 19 20  1  0
  7 21  1  0
  4 22  1  0
 21 22  1  0
M  END
