piperidine-amides-5230-covalent
     RDKit          3D

 21 22  0  0  0  0  0  0  0  0999 V2000
    7.0900   -3.2830   19.1590 C   0  0  0  0  0  0  0  0  0  0  0  0
    6.3480   -4.0250   20.2080 C   0  0  0  0  0  0  0  0  0  0  0  0
    5.2590   -4.5180   19.8670 O   0  0  0  0  0  0  0  0  0  0  0  0
    6.8790   -4.2120   21.4930 N   0  0  0  0  0  0  0  0  0  0  0  0
    6.4600   -5.3280   22.2740 C   0  0  0  0  0  0  0  0  0  0  0  0
    5.9730   -4.9600   23.6070 C   0  0  0  0  0  0  0  0  0  0  0  0
    6.5750   -3.7320   24.1730 C   0  0  0  0  0  0  0  0  0  0  0  0
    5.8380   -3.3120   25.3960 C   0  0  0  0  0  0  0  0  0  0  0  0
    4.6010   -3.1640   25.3210 O   0  0  0  0  0  0  0  0  0  0  0  0
    6.5120   -3.0770   26.6130 N   0  0  0  0  0  0  0  0  0  0  0  0
    6.2360   -3.7820   27.8940 C   0  0  0  0  0  0  0  0  0  0  0  0
    5.9210   -5.2390   27.7750 C   0  0  2  0  0  0  0  0  0  0  0  0
    6.7650   -6.1930   28.4730 C   0  0  0  0  0  0  0  0  0  0  0  0
    5.3730   -5.7250   26.7450 O   0  0  0  0  0  0  0  0  0  0  0  0
    5.4220   -6.0310   28.9060 C   0  0  0  0  0  0  0  0  0  0  0  0
    4.5850   -7.1020   28.6450 C   0  0  0  0  0  0  0  0  0  0  0  0
    4.2400   -7.6890   29.8140 C   0  0  0  0  0  0  0  0  0  0  0  0
    4.8500   -7.0050   30.8120 C   0  0  0  0  0  0  0  0  0  0  0  0
    5.6170   -5.9340   30.2610 O   0  0  0  0  0  0  0  0  0  0  0  0
    6.8050   -2.6390   23.2010 C   0  0  0  0  0  0  0  0  0  0  0  0
    7.5790   -3.1350   22.1540 C   0  0  0  0  0  0  0  0  0  0  0  0
  1  2  1  0
  2  3  2  0
  2  4  1  0
  4  5  1  0
  5  6  1  0
  6  7  1  0
  7  8  1  0
  8  9  2  0
  8 10  1  0
 10 11  1  0
 11 12  1  0
 12 13  1  6
 12 14  1  0
 12 15  1  0
 15 16  2  0
 16 17  1  0
 17 18  2  0
 15 19  1  0
 18 19  1  0
  7 20  1  0
  4 21  1  0
 20 21  1  0
M  END
