piperidine-amides-5256-covalent
     RDKit          3D

 21 22  0  0  0  0  0  0  0  0999 V2000
    7.1230   -3.3440   19.2520 C   0  0  0  0  0  0  0  0  0  0  0  0
    6.3670   -4.1140   20.2580 C   0  0  0  0  0  0  0  0  0  0  0  0
    5.2740   -4.5830   19.8950 O   0  0  0  0  0  0  0  0  0  0  0  0
    6.9020   -4.3530   21.5260 N   0  0  0  0  0  0  0  0  0  0  0  0
    6.3920   -5.4290   22.2990 C   0  0  0  0  0  0  0  0  0  0  0  0
    5.8570   -5.0020   23.5960 C   0  0  0  0  0  0  0  0  0  0  0  0
    6.5870   -3.8660   24.2010 C   0  0  0  0  0  0  0  0  0  0  0  0
    5.8850   -3.2780   25.3450 C   0  0  0  0  0  0  0  0  0  0  0  0
    4.6400   -3.1960   25.3400 O   0  0  0  0  0  0  0  0  0  0  0  0
    6.6560   -2.8200   26.4060 N   0  0  0  0  0  0  0  0  0  0  0  0
    6.4280   -1.5600   27.1240 C   0  0  0  0  0  0  0  0  0  0  0  0
    5.3880   -0.6130   26.7180 C   0  0  0  0  0  0  0  0  0  0  0  0
    5.2120    0.5990   27.4810 C   0  0  0  0  0  0  0  0  0  0  0  0
    6.0330    0.8210   28.5750 C   0  0  0  0  0  0  0  0  0  0  0  0
    5.8580    1.8720   29.2180 O   0  0  0  0  0  0  0  0  0  0  0  0
    7.0210   -0.0990   28.9380 C   0  0  0  0  0  0  0  0  0  0  0  0
    7.2410   -1.2600   28.2460 C   0  0  0  0  0  0  0  0  0  0  0  0
    8.2300   -2.0810   28.6360 C   0  0  0  0  0  0  0  0  0  0  0  0
    7.9900   -3.4020   28.3630 C   0  0  0  0  0  0  0  0  0  0  0  0
    6.8740   -2.7970   23.1930 C   0  0  0  0  0  0  0  0  0  0  0  0
    7.7650   -3.4060   22.2010 C   0  0  0  0  0  0  0  0  0  0  0  0
  1  2  1  0
  2  3  2  0
  2  4  1  0
  4  5  1  0
  5  6  1  0
  6  7  1  0
  7  8  1  0
  8  9  2  0
  8 10  1  0
 10 11  1  0
 11 12  2  0
 12 13  1  0
 13 14  2  0
 14 15  1  0
 14 16  1  0
 11 17  1  0
 16 17  2  0
 17 18  1  0
 18 19  1  0
  7 20  1  0
  4 21  1  0
 20 21  1  0
M  END
