piperidine-amides-8069-covalent
     RDKit          3D

 26 28  0  0  0  0  0  0  0  0999 V2000
    7.0510   -3.3570   19.3480 C   0  0  0  0  0  0  0  0  0  0  0  0
    6.3600   -4.1770   20.3430 C   0  0  0  0  0  0  0  0  0  0  0  0
    5.3550   -4.8100   19.9720 O   0  0  0  0  0  0  0  0  0  0  0  0
    6.8600   -4.2790   21.6670 N   0  0  0  0  0  0  0  0  0  0  0  0
    7.6490   -3.1830   22.1820 C   0  0  0  0  0  0  0  0  0  0  0  0
    7.4640   -3.0570   23.6640 C   0  0  0  0  0  0  0  0  0  0  0  0
    6.0870   -3.5890   23.9580 C   0  0  0  0  0  0  0  0  0  0  0  0
    5.6450   -3.2020   25.3330 C   0  0  0  0  0  0  0  0  0  0  0  0
    4.4450   -3.3040   25.5710 O   0  0  0  0  0  0  0  0  0  0  0  0
    6.6110   -2.7570   26.2210 N   0  0  0  0  0  0  0  0  0  0  0  0
    6.4640   -1.5670   26.9960 C   0  0  0  0  0  0  0  0  0  0  0  0
    6.9950   -1.5590   28.2870 C   0  0  0  0  0  0  0  0  0  0  0  0
    6.9240   -0.4900   29.1360 C   0  0  0  0  0  0  0  0  0  0  0  0
    6.3100    0.7200   28.8220 C   0  0  0  0  0  0  0  0  0  0  0  0
    6.1840    2.1320   29.8840 Cl  0  0  0  0  0  0  0  0  0  0  0  0
    5.7450    0.6830   27.4260 C   0  0  0  0  0  0  0  0  0  0  0  0
    5.0160    1.9640   26.9280 C   0  0  0  0  0  0  0  0  0  0  0  0
    5.4630    2.5540   25.7260 N   0  0  0  0  0  0  0  0  0  0  0  0
    5.3160    1.6810   24.5880 C   0  0  0  0  0  0  0  0  0  0  0  0
    5.2450    2.5430   23.3580 C   0  0  0  0  0  0  0  0  0  0  0  0
    5.7280    3.6930   23.4810 O   0  0  0  0  0  0  0  0  0  0  0  0
    5.7610    4.4730   24.6140 C   0  0  0  0  0  0  0  0  0  0  0  0
    4.8860    3.8560   25.4750 C   0  0  0  0  0  0  0  0  0  0  0  0
    5.8440   -0.4170   26.6000 C   0  0  0  0  0  0  0  0  0  0  0  0
    6.0300   -5.0690   23.7910 C   0  0  0  0  0  0  0  0  0  0  0  0
    6.6220   -5.4550   22.4650 C   0  0  0  0  0  0  0  0  0  0  0  0
  1  2  1  0
  2  3  2  0
  2  4  1  0
  4  5  1  0
  5  6  1  0
  6  7  1  0
  7  8  1  0
  8  9  2  0
  8 10  1  0
 10 11  1  0
 11 12  2  0
 12 13  1  0
 13 14  2  0
 14 15  1  0
 14 16  1  0
 16 17  1  0
 17 18  1  0
 18 19  1  0
 19 20  1  0
 20 21  1  0
 21 22  1  0
 18 23  1  0
 22 23  1  0
 11 24  1  0
 16 24  2  0
  7 25  1  0
  4 26  1  0
 25 26  1  0
M  END
