piperidine-amides-1249-covalent
     RDKit          3D

 23 24  0  0  0  0  0  0  0  0999 V2000
    7.1120   -3.2940   19.2620 C   0  0  0  0  0  0  0  0  0  0  0  0
    6.3120   -4.0400   20.2730 C   0  0  0  0  0  0  0  0  0  0  0  0
    5.2740   -4.6170   19.9080 O   0  0  0  0  0  0  0  0  0  0  0  0
    6.7810   -4.1060   21.5990 N   0  0  0  0  0  0  0  0  0  0  0  0
    7.6970   -3.1140   22.1390 C   0  0  0  0  0  0  0  0  0  0  0  0
    7.4980   -3.0310   23.6530 C   0  0  0  0  0  0  0  0  0  0  0  0
    6.1500   -3.5830   23.9320 C   0  0  0  0  0  0  0  0  0  0  0  0
    5.6350   -3.2790   25.2830 C   0  0  0  0  0  0  0  0  0  0  0  0
    4.4100   -3.2990   25.4130 O   0  0  0  0  0  0  0  0  0  0  0  0
    6.5130   -2.9830   26.3250 N   0  0  0  0  0  0  0  0  0  0  0  0
    6.2540   -3.0720   27.7170 C   0  0  0  0  0  0  0  0  0  0  0  0
    5.2180   -3.7550   28.2970 C   0  0  0  0  0  0  0  0  0  0  0  0
    3.8670   -3.3170   28.2070 C   0  0  0  0  0  0  0  0  0  0  0  0
    2.8140   -3.9930   28.7950 C   0  0  0  0  0  0  0  0  0  0  0  0
    1.0360   -3.3770   28.6540 Br  0  0  0  0  0  0  0  0  0  0  0  0
    3.1380   -5.2150   29.5410 C   0  0  0  0  0  0  0  0  0  0  0  0
    2.2120   -5.9510   30.1540 O   0  0  0  0  0  0  0  0  0  0  0  0
    4.5750   -5.6680   29.6270 C   0  0  0  0  0  0  0  0  0  0  0  0
    5.1070   -6.7670   30.2690 O   0  0  0  0  0  0  0  0  0  0  0  0
    6.0300   -7.6080   29.5880 C   0  0  0  0  0  0  0  0  0  0  0  0
    5.5650   -4.9070   28.9900 C   0  0  0  0  0  0  0  0  0  0  0  0
    6.0430   -5.0420   23.6760 C   0  0  0  0  0  0  0  0  0  0  0  0
    6.6280   -5.3620   22.3150 C   0  0  0  0  0  0  0  0  0  0  0  0
  1  2  1  0
  2  3  2  0
  2  4  1  0
  4  5  1  0
  5  6  1  0
  6  7  1  0
  7  8  1  0
  8  9  2  0
  8 10  1  0
 10 11  1  0
 11 12  1  0
 12 13  2  0
 13 14  1  0
 14 15  1  0
 14 16  2  0
 16 17  1  0
 16 18  1  0
 18 19  1  0
 19 20  1  0
 12 21  1  0
 18 21  2  0
  7 22  1  0
  4 23  1  0
 22 23  1  0
M  END
