piperidine-amides-9106-covalent
     RDKit          3D

 21 23  0  0  0  0  0  0  0  0999 V2000
    7.1340   -3.3040   19.2770 C   0  0  0  0  0  0  0  0  0  0  0  0
    6.3470   -4.0400   20.2680 C   0  0  0  0  0  0  0  0  0  0  0  0
    5.2970   -4.5980   19.9070 O   0  0  0  0  0  0  0  0  0  0  0  0
    6.7840   -4.1740   21.5960 N   0  0  0  0  0  0  0  0  0  0  0  0
    6.6510   -5.4230   22.3110 C   0  0  0  0  0  0  0  0  0  0  0  0
    6.0480   -5.0690   23.6440 C   0  0  0  0  0  0  0  0  0  0  0  0
    6.0900   -3.5850   23.8720 C   0  0  0  0  0  0  0  0  0  0  0  0
    5.6420   -3.1520   25.2160 C   0  0  0  0  0  0  0  0  0  0  0  0
    4.4200   -2.9010   25.4240 O   0  0  0  0  0  0  0  0  0  0  0  0
    6.5160   -2.9840   26.3090 N   0  0  0  0  0  0  0  0  0  0  0  0
    6.1330   -3.5130   27.6380 C   0  0  0  0  0  0  0  0  0  0  0  0
    5.4940   -4.8320   27.4390 C   0  0  0  0  0  0  0  0  0  0  0  0
    5.4490   -5.4800   28.6070 N   0  0  0  0  0  0  0  0  0  0  0  0
    6.4520   -6.3630   29.0040 C   0  0  0  0  0  0  0  0  0  0  0  0
    5.6250   -7.4340   29.6920 C   0  0  1  0  0  0  0  0  0  0  0  0
    5.0080   -6.9080   30.9710 C   0  0  0  0  0  0  0  0  0  0  0  0
    4.0740   -5.9630   30.3040 C   0  0  0  0  0  0  0  0  0  0  0  0
    4.3080   -6.0780   28.9560 C   0  0  2  0  0  0  0  0  0  0  0  0
    4.4830   -7.4340   28.7010 C   0  0  0  0  0  0  0  0  0  0  0  0
    7.4740   -3.0050   23.6040 C   0  0  0  0  0  0  0  0  0  0  0  0
    7.6870   -3.1450   22.0970 C   0  0  0  0  0  0  0  0  0  0  0  0
  1  2  1  0
  2  3  2  0
  2  4  1  0
  4  5  1  0
  5  6  1  0
  6  7  1  0
  7  8  1  0
  8  9  2  0
  8 10  1  0
 10 11  1  0
 11 12  1  0
 12 13  1  0
 13 14  1  0
 15 14  1  6
 15 16  1  0
 16 17  1  0
 13 18  1  0
 18 17  1  1
 15 19  1  0
 18 19  1  0
  7 20  1  0
  4 21  1  0
 20 21  1  0
M  END
