piperidine-amides-5336-covalent
     RDKit          3D

 21 23  0  0  0  0  0  0  0  0999 V2000
    7.1120   -3.3230   19.2880 C   0  0  0  0  0  0  0  0  0  0  0  0
    6.3500   -4.1060   20.2820 C   0  0  0  0  0  0  0  0  0  0  0  0
    5.2740   -4.6010   19.9010 O   0  0  0  0  0  0  0  0  0  0  0  0
    6.8690   -4.3180   21.5660 N   0  0  0  0  0  0  0  0  0  0  0  0
    6.4270   -5.4250   22.3410 C   0  0  0  0  0  0  0  0  0  0  0  0
    5.9020   -5.0410   23.6540 C   0  0  0  0  0  0  0  0  0  0  0  0
    6.5170   -3.8280   24.2400 C   0  0  0  0  0  0  0  0  0  0  0  0
    5.7640   -3.3930   25.4480 C   0  0  0  0  0  0  0  0  0  0  0  0
    4.5140   -3.3370   25.4190 O   0  0  0  0  0  0  0  0  0  0  0  0
    6.4380   -3.0580   26.6310 N   0  0  0  0  0  0  0  0  0  0  0  0
    6.4200   -1.7020   27.2290 C   0  0  0  0  0  0  0  0  0  0  0  0
    7.0130   -1.5510   28.5860 C   0  0  0  0  0  0  0  0  0  0  0  0
    7.0560   -0.2890   29.2930 C   0  0  0  0  0  0  0  0  0  0  0  0
    6.5100    0.7730   28.6290 C   0  0  0  0  0  0  0  0  0  0  0  0
    6.2880    2.5410   29.0060 S   0  0  0  0  0  0  0  0  0  0  0  0
    5.4760    3.0270   27.4830 C   0  0  0  0  0  0  0  0  0  0  0  0
    5.3970    1.7960   26.7160 N   0  0  0  0  0  0  0  0  0  0  0  0
    5.9120    0.6860   27.2910 C   0  0  0  0  0  0  0  0  0  0  0  0
    5.8480   -0.4850   26.5800 C   0  0  0  0  0  0  0  0  0  0  0  0
    6.8130   -2.7410   23.2840 C   0  0  0  0  0  0  0  0  0  0  0  0
    7.5680   -3.2470   22.2310 C   0  0  0  0  0  0  0  0  0  0  0  0
  1  2  1  0
  2  3  2  0
  2  4  1  0
  4  5  1  0
  5  6  1  0
  6  7  1  0
  7  8  1  0
  8  9  2  0
  8 10  1  0
 10 11  1  0
 11 12  2  0
 12 13  1  0
 13 14  2  0
 14 15  1  0
 15 16  1  0
 16 17  2  0
 14 18  1  0
 17 18  1  0
 11 19  1  0
 18 19  2  0
  7 20  1  0
  4 21  1  0
 20 21  1  0
M  END
