piperidine-amides-1516-covalent
     RDKit          3D

 21 21  0  0  0  0  0  0  0  0999 V2000
    7.1380   -3.2810   19.2360 C   0  0  0  0  0  0  0  0  0  0  0  0
    6.3300   -4.0320   20.2350 C   0  0  0  0  0  0  0  0  0  0  0  0
    5.2550   -4.5400   19.8800 O   0  0  0  0  0  0  0  0  0  0  0  0
    6.8220   -4.2000   21.5460 N   0  0  0  0  0  0  0  0  0  0  0  0
    6.6060   -5.4340   22.2550 C   0  0  0  0  0  0  0  0  0  0  0  0
    5.9030   -5.0910   23.5730 C   0  0  0  0  0  0  0  0  0  0  0  0
    6.0900   -3.6270   23.8320 C   0  0  0  0  0  0  0  0  0  0  0  0
    5.6980   -3.2280   25.2010 C   0  0  0  0  0  0  0  0  0  0  0  0
    4.6630   -2.5590   25.3030 O   0  0  0  0  0  0  0  0  0  0  0  0
    6.4670   -3.6150   26.3030 N   0  0  0  0  0  0  0  0  0  0  0  0
    6.0520   -4.4860   27.3410 C   0  0  0  0  0  0  0  0  0  0  0  0
    4.7490   -4.4850   27.7690 C   0  0  0  0  0  0  0  0  0  0  0  0
    6.1800   -5.8760   26.7680 C   0  0  0  0  0  0  0  0  0  0  0  0
    6.7220   -4.5210   28.5580 C   0  0  0  0  0  0  0  0  0  0  0  0
    8.1120   -4.1390   28.3820 C   0  0  0  0  0  0  0  0  0  0  0  0
    8.4000   -2.8390   28.4550 O   0  0  0  0  0  0  0  0  0  0  0  0
    9.0600   -5.1170   28.1570 O   0  0  0  0  0  0  0  0  0  0  0  0
    9.0210   -5.9180   26.9910 C   0  0  0  0  0  0  0  0  0  0  0  0
    8.9850   -5.0720   25.7230 C   0  0  0  0  0  0  0  0  0  0  0  0
    7.5330   -3.2150   23.5480 C   0  0  0  0  0  0  0  0  0  0  0  0
    7.6140   -3.1110   22.0790 C   0  0  0  0  0  0  0  0  0  0  0  0
  1  2  1  0
  2  3  2  0
  2  4  1  0
  4  5  1  0
  5  6  1  0
  6  7  1  0
  7  8  1  0
  8  9  2  0
  8 10  1  0
 11 10  1  0
 11 12  1  0
 11 13  1  0
 11 14  1  0
 14 15  1  0
 15 16  2  0
 15 17  1  0
 17 18  1  0
 18 19  1  0
  7 20  1  0
  4 21  1  0
 20 21  1  0
M  END
