piperidine-amides-7295-covalent
     RDKit          3D

 20 21  0  0  0  0  0  0  0  0999 V2000
    7.1230   -3.2680   19.2050 C   0  0  0  0  0  0  0  0  0  0  0  0
    6.3870   -4.0120   20.2310 C   0  0  0  0  0  0  0  0  0  0  0  0
    5.2990   -4.5380   19.8810 O   0  0  0  0  0  0  0  0  0  0  0  0
    6.9190   -4.1500   21.5110 N   0  0  0  0  0  0  0  0  0  0  0  0
    7.7580   -3.1330   22.0970 C   0  0  0  0  0  0  0  0  0  0  0  0
    7.3110   -2.9540   23.5110 C   0  0  0  0  0  0  0  0  0  0  0  0
    5.8400   -3.2470   23.6450 C   0  0  0  0  0  0  0  0  0  0  0  0
    5.3270   -2.8960   24.9900 C   0  0  0  0  0  0  0  0  0  0  0  0
    4.1360   -3.1730   25.2460 O   0  0  0  0  0  0  0  0  0  0  0  0
    6.0900   -2.2820   25.9980 N   0  0  0  0  0  0  0  0  0  0  0  0
    6.4030   -3.0750   27.1410 C   0  0  0  0  0  0  0  0  0  0  0  0
    7.1750   -4.2720   26.6830 C   0  0  1  0  0  0  0  0  0  0  0  0
    6.5030   -5.3350   26.1430 C   0  0  0  0  0  0  0  0  0  0  0  0
    8.1610   -4.0490   25.9420 O   0  0  0  0  0  0  0  0  0  0  0  0
    7.7520   -4.8600   27.8920 C   0  0  0  0  0  0  0  0  0  0  0  0
    8.9650   -4.2920   27.8190 C   0  0  0  0  0  0  0  0  0  0  0  0
    9.5200   -5.4770   27.6760 C   0  0  0  0  0  0  0  0  0  0  0  0
    8.3570   -6.2410   27.7360 C   0  0  0  0  0  0  0  0  0  0  0  0
    5.5230   -4.7300   23.3580 C   0  0  0  0  0  0  0  0  0  0  0  0
    6.5130   -5.2640   22.3230 C   0  0  0  0  0  0  0  0  0  0  0  0
  1  2  1  0
  2  3  2  0
  2  4  1  0
  4  5  1  0
  5  6  1  0
  6  7  1  0
  7  8  1  0
  8  9  2  0
  8 10  1  0
 10 11  1  0
 11 12  1  0
 12 13  1  6
 12 14  1  0
 12 15  1  0
 15 16  1  0
 16 17  1  0
 15 18  1  0
 17 18  1  0
  7 19  1  0
  4 20  1  0
 19 20  1  0
M  END
