piperidine-amides-10657-covalent
     RDKit          3D

 23 24  0  0  0  0  0  0  0  0999 V2000
    7.0790   -3.2910   19.2530 C   0  0  0  0  0  0  0  0  0  0  0  0
    6.3330   -4.0210   20.2840 C   0  0  0  0  0  0  0  0  0  0  0  0
    5.2840   -4.6020   19.9020 O   0  0  0  0  0  0  0  0  0  0  0  0
    6.8030   -4.0940   21.6030 N   0  0  0  0  0  0  0  0  0  0  0  0
    7.7620   -3.1440   22.1270 C   0  0  0  0  0  0  0  0  0  0  0  0
    7.4520   -2.9380   23.5780 C   0  0  0  0  0  0  0  0  0  0  0  0
    6.1180   -3.5440   23.8970 C   0  0  0  0  0  0  0  0  0  0  0  0
    5.6330   -3.1270   25.2330 C   0  0  0  0  0  0  0  0  0  0  0  0
    4.4140   -2.8860   25.3540 O   0  0  0  0  0  0  0  0  0  0  0  0
    6.4490   -2.9850   26.3720 N   0  0  0  0  0  0  0  0  0  0  0  0
    6.1120   -3.6810   27.5880 C   0  0  0  0  0  0  0  0  0  0  0  0
    5.7820   -5.1470   27.3220 C   0  0  0  0  0  0  0  0  0  0  0  0
    5.7120   -5.6540   26.1770 O   0  0  0  0  0  0  0  0  0  0  0  0
    5.5700   -5.8380   28.5940 N   0  0  0  0  0  0  0  0  0  0  0  0
    6.6120   -6.1660   29.3040 C   0  0  0  0  0  0  0  0  0  0  0  0
    4.3240   -5.9700   29.0870 C   0  0  0  0  0  0  0  0  0  0  0  0
    4.1420   -5.3300   30.3040 C   0  0  0  0  0  0  0  0  0  0  0  0
    2.9230   -5.4400   30.9250 C   0  0  0  0  0  0  0  0  0  0  0  0
    2.2700   -6.6250   30.7370 C   0  0  0  0  0  0  0  0  0  0  0  0
    3.1170   -7.7950   30.3010 C   0  0  0  0  0  0  0  0  0  0  0  0
    3.7890   -7.2500   29.0310 C   0  0  0  0  0  0  0  0  0  0  0  0
    6.1530   -5.0730   23.7250 C   0  0  0  0  0  0  0  0  0  0  0  0
    6.6610   -5.3600   22.3160 C   0  0  0  0  0  0  0  0  0  0  0  0
  1  2  1  0
  2  3  2  0
  2  4  1  0
  4  5  1  0
  5  6  1  0
  6  7  1  0
  7  8  1  0
  8  9  2  0
  8 10  1  0
 10 11  1  0
 11 12  1  0
 12 13  2  0
 12 14  1  0
 14 15  1  0
 14 16  1  0
 16 17  1  0
 17 18  1  0
 18 19  1  0
 19 20  1  0
 16 21  1  0
 20 21  1  0
  7 22  1  0
  4 23  1  0
 22 23  1  0
M  END
