piperidine-amides-33272-covalent
     RDKit          3D

 29 31  0  0  0  0  0  0  0  0999 V2000
    7.1040   -3.3380   19.2880 C   0  0  0  0  0  0  0  0  0  0  0  0
    6.4400   -4.1730   20.3020 C   0  0  0  0  0  0  0  0  0  0  0  0
    5.3780   -4.7480   19.9600 O   0  0  0  0  0  0  0  0  0  0  0  0
    7.0210   -4.3590   21.5810 N   0  0  0  0  0  0  0  0  0  0  0  0
    6.5000   -5.3960   22.3890 C   0  0  0  0  0  0  0  0  0  0  0  0
    5.9320   -4.9350   23.6600 C   0  0  0  0  0  0  0  0  0  0  0  0
    6.5390   -3.7320   24.3000 C   0  0  0  0  0  0  0  0  0  0  0  0
    5.6550   -3.2490   25.4080 C   0  0  0  0  0  0  0  0  0  0  0  0
    4.4630   -3.0090   25.1350 O   0  0  0  0  0  0  0  0  0  0  0  0
    6.0980   -3.0460   26.7360 N   0  0  0  0  0  0  0  0  0  0  0  0
    6.3080   -4.0250   27.7220 C   0  0  0  0  0  0  0  0  0  0  0  0
    5.6510   -1.7930   27.3080 C   0  0  0  0  0  0  0  0  0  0  0  0
    4.1840   -1.5640   27.7770 C   0  0  2  0  0  0  0  0  0  0  0  0
    4.0520   -0.7110   28.8530 C   0  0  0  0  0  0  0  0  0  0  0  0
    2.5400   -0.6500   28.5470 C   0  0  0  0  0  0  0  0  0  0  0  0
    2.2370   -1.6560   29.6280 C   0  0  0  0  0  0  0  0  0  0  0  0
    2.3610   -2.7720   28.5700 C   0  0  0  0  0  0  0  0  0  0  0  0
    3.6540   -2.9150   28.0220 N   0  0  0  0  0  0  0  0  0  0  0  0
    4.2450   -3.8460   28.9020 C   0  0  0  0  0  0  0  0  0  0  0  0
    4.8560   -3.5050   30.1200 O   0  0  0  0  0  0  0  0  0  0  0  0
    4.2080   -5.1720   28.5490 O   0  0  0  0  0  0  0  0  0  0  0  0
    4.8530   -6.2150   29.2790 C   0  0  0  0  0  0  0  0  0  0  0  0
    4.2490   -7.5930   28.9840 C   0  0  0  0  0  0  0  0  0  0  0  0
    6.3400   -6.2070   29.0260 C   0  0  0  0  0  0  0  0  0  0  0  0
    4.6420   -6.3130   30.7240 C   0  0  0  0  0  0  0  0  0  0  0  0
    6.7600   -0.9950   27.9310 C   0  0  0  0  0  0  0  0  0  0  0  0
    6.2460   -0.5960   26.7440 C   0  0  0  0  0  0  0  0  0  0  0  0
    6.8630   -2.6540   23.3160 C   0  0  0  0  0  0  0  0  0  0  0  0
    7.6680   -3.2390   22.1830 C   0  0  0  0  0  0  0  0  0  0  0  0
  1  2  1  0
  2  3  2  0
  2  4  1  0
  4  5  1  0
  5  6  1  0
  6  7  1  0
  7  8  1  0
  8  9  2  0
  8 10  1  0
 10 11  1  0
 12 10  1  0
 13 12  1  1
 13 14  1  0
 14 15  1  0
 15 16  1  0
 16 17  1  0
 13 18  1  0
 17 18  1  0
 18 19  1  0
 19 20  2  0
 19 21  1  0
 22 21  1  0
 22 23  1  0
 22 24  1  0
 22 25  1  0
 12 26  1  0
 12 27  1  0
 26 27  1  0
  7 28  1  0
  4 29  1  0
 28 29  1  0
M  END
