piperidine-amides-32605-covalent
     RDKit          3D

 28 30  0  0  0  0  0  0  0  0999 V2000
    7.0560   -3.3600   19.4200 C   0  0  0  0  0  0  0  0  0  0  0  0
    6.3870   -4.2680   20.3890 C   0  0  0  0  0  0  0  0  0  0  0  0
    5.3940   -4.9100   20.0010 O   0  0  0  0  0  0  0  0  0  0  0  0
    6.9120   -4.4240   21.7020 N   0  0  0  0  0  0  0  0  0  0  0  0
    6.5950   -5.5650   22.5010 C   0  0  0  0  0  0  0  0  0  0  0  0
    5.6410   -5.0700   23.6010 C   0  0  0  0  0  0  0  0  0  0  0  0
    6.2220   -3.8830   24.3250 C   0  0  0  0  0  0  0  0  0  0  0  0
    5.2050   -3.3030   25.2680 C   0  0  0  0  0  0  0  0  0  0  0  0
    4.2820   -2.7060   24.7220 O   0  0  0  0  0  0  0  0  0  0  0  0
    5.2770   -3.4220   26.6730 N   0  0  0  0  0  0  0  0  0  0  0  0
    6.4590   -3.4540   27.3430 C   0  0  0  0  0  0  0  0  0  0  0  0
    6.7300   -2.8640   28.5170 C   0  0  1  0  0  0  0  0  0  0  0  0
    7.0680   -1.5140   28.6760 C   0  0  0  0  0  0  0  0  0  0  0  0
    5.4310   -2.9340   29.0730 O   0  0  0  0  0  0  0  0  0  0  0  0
    4.5100   -3.8870   28.7590 C   0  0  2  0  0  0  0  0  0  0  0  0
    4.6730   -5.0830   29.6210 C   0  0  0  0  0  0  0  0  0  0  0  0
    5.7240   -6.1860   29.3080 C   0  0  0  0  0  0  0  0  0  0  0  0
    5.8220   -7.3900   30.2750 C   0  0  0  0  0  0  0  0  0  0  0  0
    5.0010   -7.4740   31.3800 C   0  0  0  0  0  0  0  0  0  0  0  0
    4.0280   -6.4110   31.6260 C   0  0  0  0  0  0  0  0  0  0  0  0
    3.2940   -6.8080   32.8960 C   0  0  0  0  0  0  0  0  0  0  0  0
    1.9790   -6.4410   32.9460 F   0  0  0  0  0  0  0  0  0  0  0  0
    3.2580   -8.1550   33.1480 F   0  0  0  0  0  0  0  0  0  0  0  0
    3.9170   -6.2220   33.9730 F   0  0  0  0  0  0  0  0  0  0  0  0
    3.8850   -5.2320   30.7350 C   0  0  0  0  0  0  0  0  0  0  0  0
    4.2270   -4.1100   27.4360 C   0  0  0  0  0  0  0  0  0  0  0  0
    6.7920   -2.7860   23.4600 C   0  0  0  0  0  0  0  0  0  0  0  0
    7.6810   -3.3970   22.3680 C   0  0  0  0  0  0  0  0  0  0  0  0
  1  2  1  0
  2  3  2  0
  2  4  1  0
  4  5  1  0
  5  6  1  0
  6  7  1  0
  7  8  1  0
  8  9  2  0
  8 10  1  0
 10 11  1  0
 11 12  1  0
 12 13  1  6
 12 14  1  0
 14 15  1  0
 15 16  1  6
 16 17  2  0
 17 18  1  0
 18 19  2  0
 19 20  1  0
 20 21  1  0
 21 22  1  0
 21 23  1  0
 21 24  1  0
 16 25  1  0
 20 25  2  0
 10 26  1  0
 15 26  1  0
  7 27  1  0
  4 28  1  0
 27 28  1  0
M  END
