piperidine-amides-34113-covalent
     RDKit          3D

 25 27  0  0  0  0  0  0  0  0999 V2000
    7.1410   -3.3320   19.2820 C   0  0  0  0  0  0  0  0  0  0  0  0
    6.3940   -4.1080   20.2750 C   0  0  0  0  0  0  0  0  0  0  0  0
    5.3400   -4.7000   19.9480 O   0  0  0  0  0  0  0  0  0  0  0  0
    6.8890   -4.2470   21.5750 N   0  0  0  0  0  0  0  0  0  0  0  0
    6.5930   -5.4640   22.2980 C   0  0  0  0  0  0  0  0  0  0  0  0
    6.1610   -5.0470   23.7070 C   0  0  0  0  0  0  0  0  0  0  0  0
    6.0740   -3.5350   23.6850 C   0  0  0  0  0  0  0  0  0  0  0  0
    5.5630   -3.0070   24.9460 C   0  0  0  0  0  0  0  0  0  0  0  0
    4.7170   -2.0940   24.9230 O   0  0  0  0  0  0  0  0  0  0  0  0
    6.0180   -3.5470   26.1400 N   0  0  0  0  0  0  0  0  0  0  0  0
    5.6630   -4.9370   26.3330 C   0  0  0  0  0  0  0  0  0  0  0  0
    5.3670   -5.4160   27.7360 C   0  0  0  0  0  0  0  0  0  0  0  0
    6.1690   -6.2510   28.5190 C   0  0  0  0  0  0  0  0  0  0  0  0
    5.8190   -6.6720   29.7920 C   0  0  0  0  0  0  0  0  0  0  0  0
    4.6330   -6.2890   30.3910 C   0  0  0  0  0  0  0  0  0  0  0  0
    3.7790   -5.4780   29.7330 C   0  0  0  0  0  0  0  0  0  0  0  0
    4.0550   -4.9660   28.3600 C   0  0  0  0  0  0  0  0  0  0  0  0
    6.1120   -2.7480   27.3320 C   0  0  0  0  0  0  0  0  0  0  0  0
    5.8990   -1.2410   27.2490 N   0  0  0  0  0  0  0  0  0  0  0  0
    6.0390   -0.6270   28.5710 C   0  0  0  0  0  0  0  0  0  0  0  0
    5.8720    1.2190   29.0520 Br  0  0  0  0  0  0  0  0  0  0  0  0
    6.3270   -1.6770   29.4730 C   0  0  0  0  0  0  0  0  0  0  0  0
    6.4460   -3.2590   28.9420 S   0  0  0  0  0  0  0  0  0  0  0  0
    7.4330   -2.9920   23.4350 C   0  0  0  0  0  0  0  0  0  0  0  0
    7.7010   -3.1940   22.1240 C   0  0  0  0  0  0  0  0  0  0  0  0
  1  2  1  0
  2  3  2  0
  2  4  1  0
  4  5  1  0
  5  6  1  0
  6  7  1  0
  7  8  1  0
  8  9  2  0
  8 10  1  0
 10 11  1  0
 11 12  1  0
 12 13  2  0
 13 14  1  0
 14 15  2  0
 15 16  1  0
 12 17  1  0
 16 17  2  0
 10 18  1  0
 18 19  2  0
 19 20  1  0
 20 21  1  0
 20 22  2  0
 18 23  1  0
 22 23  1  0
  7 24  1  0
  4 25  1  0
 24 25  1  0
M  END
