piperidine-amides-11282-covalent
     RDKit          3D

 18 18  0  0  0  0  0  0  0  0999 V2000
    7.0960   -3.2900   19.2910 C   0  0  0  0  0  0  0  0  0  0  0  0
    6.3560   -4.0760   20.2840 C   0  0  0  0  0  0  0  0  0  0  0  0
    5.3090   -4.6390   19.9230 O   0  0  0  0  0  0  0  0  0  0  0  0
    6.8170   -4.2550   21.6020 N   0  0  0  0  0  0  0  0  0  0  0  0
    6.6060   -5.5050   22.3020 C   0  0  0  0  0  0  0  0  0  0  0  0
    6.1770   -5.1460   23.7080 C   0  0  0  0  0  0  0  0  0  0  0  0
    6.0030   -3.6680   23.9030 C   0  0  0  0  0  0  0  0  0  0  0  0
    5.6110   -3.2690   25.2840 C   0  0  0  0  0  0  0  0  0  0  0  0
    4.4090   -2.9710   25.5380 O   0  0  0  0  0  0  0  0  0  0  0  0
    6.5240   -3.1950   26.3520 N   0  0  0  0  0  0  0  0  0  0  0  0
    6.1260   -3.4980   27.7530 C   0  0  0  0  0  0  0  0  0  0  0  0
    5.7940   -4.9420   27.9260 C   0  0  0  0  0  0  0  0  0  0  0  0
    6.6510   -5.7070   28.8500 C   0  0  0  0  0  0  0  0  0  0  0  0
    4.4280   -5.0870   28.5440 C   0  0  0  0  0  0  0  0  0  0  0  0
    5.6210   -6.0910   26.6920 S   0  0  0  0  0  0  0  0  0  0  0  0
    4.0400   -5.6940   26.0090 C   0  0  0  0  0  0  0  0  0  0  0  0
    7.2540   -2.9680   23.4930 C   0  0  0  0  0  0  0  0  0  0  0  0
    7.5690   -3.1790   22.1810 C   0  0  0  0  0  0  0  0  0  0  0  0
  1  2  1  0
  2  3  2  0
  2  4  1  0
  4  5  1  0
  5  6  1  0
  6  7  1  0
  7  8  1  0
  8  9  2  0
  8 10  1  0
 10 11  1  0
 11 12  1  0
 12 13  1  0
 12 14  1  0
 12 15  1  0
 15 16  1  0
  7 17  1  0
  4 18  1  0
 17 18  1  0
M  END
