piperidine-amides-13481-covalent
     RDKit          3D

 21 22  0  0  0  0  0  0  0  0999 V2000
    7.0670   -3.2870   19.2830 C   0  0  0  0  0  0  0  0  0  0  0  0
    6.3370   -4.1040   20.2930 C   0  0  0  0  0  0  0  0  0  0  0  0
    5.3210   -4.7220   19.9390 O   0  0  0  0  0  0  0  0  0  0  0  0
    6.8240   -4.2070   21.6160 N   0  0  0  0  0  0  0  0  0  0  0  0
    6.7160   -5.4450   22.3560 C   0  0  0  0  0  0  0  0  0  0  0  0
    6.0970   -5.1590   23.7320 C   0  0  0  0  0  0  0  0  0  0  0  0
    6.0610   -3.6810   23.9180 C   0  0  0  0  0  0  0  0  0  0  0  0
    5.5280   -3.2640   25.2420 C   0  0  0  0  0  0  0  0  0  0  0  0
    4.2990   -3.2130   25.3270 O   0  0  0  0  0  0  0  0  0  0  0  0
    6.3640   -2.9520   26.3140 N   0  0  0  0  0  0  0  0  0  0  0  0
    5.9850   -2.2340   27.4860 C   0  0  2  0  0  0  0  0  0  0  0  0
    6.6500   -1.2150   27.8980 C   0  0  0  0  0  0  0  0  0  0  0  0
    6.7460   -1.8990   29.0140 C   0  0  1  0  0  0  0  0  0  0  0  0
    6.4510   -0.9760   30.1030 N   0  0  0  0  0  0  0  0  0  0  0  0
    5.2230   -0.6160   30.5490 C   0  0  0  0  0  0  0  0  0  0  0  0
    7.5330   -0.4140   30.6680 C   0  0  0  0  0  0  0  0  0  0  0  0
    5.9010   -3.0460   28.7270 C   0  0  0  0  0  0  0  0  0  0  0  0
    6.5330   -4.4330   28.8310 C   0  0  0  0  0  0  0  0  0  0  0  0
    4.5840   -2.9580   29.1940 C   0  0  0  0  0  0  0  0  0  0  0  0
    7.3520   -2.9990   23.6320 C   0  0  0  0  0  0  0  0  0  0  0  0
    7.6600   -3.1450   22.1540 C   0  0  0  0  0  0  0  0  0  0  0  0
  1  2  1  0
  2  3  2  0
  2  4  1  0
  4  5  1  0
  5  6  1  0
  6  7  1  0
  7  8  1  0
  8  9  2  0
  8 10  1  0
 11 10  1  6
 11 12  1  0
 12 13  1  0
 13 14  1  1
 14 15  1  0
 14 16  1  0
 11 17  1  0
 13 17  1  0
 17 18  1  0
 17 19  1  0
  7 20  1  0
  4 21  1  0
 20 21  1  0
M  END
