piperidine-amides-4043-covalent
     RDKit          3D

 28 30  0  0  0  0  0  0  0  0999 V2000
    7.1100   -3.3010   19.2520 C   0  0  0  0  0  0  0  0  0  0  0  0
    6.3960   -4.0970   20.2600 C   0  0  0  0  0  0  0  0  0  0  0  0
    5.3160   -4.6260   19.9100 O   0  0  0  0  0  0  0  0  0  0  0  0
    6.9360   -4.3060   21.5480 N   0  0  0  0  0  0  0  0  0  0  0  0
    7.6400   -3.2210   22.1500 C   0  0  0  0  0  0  0  0  0  0  0  0
    7.1920   -2.8820   23.4900 C   0  0  0  0  0  0  0  0  0  0  0  0
    6.5780   -4.0130   24.2020 C   0  0  0  0  0  0  0  0  0  0  0  0
    5.8240   -3.5800   25.4380 C   0  0  0  0  0  0  0  0  0  0  0  0
    4.5950   -3.7040   25.4660 O   0  0  0  0  0  0  0  0  0  0  0  0
    6.4780   -3.0720   26.5810 N   0  0  0  0  0  0  0  0  0  0  0  0
    6.4410   -1.8190   27.2600 C   0  0  0  0  0  0  0  0  0  0  0  0
    7.0780   -1.5540   28.5230 C   0  0  0  0  0  0  0  0  0  0  0  0
    6.9620   -0.1490   29.1500 C   0  0  0  0  0  0  0  0  0  0  0  0
    6.2780    0.9670   28.6230 C   0  0  0  0  0  0  0  0  0  0  0  0
    5.5440    0.8090   27.2600 C   0  0  0  0  0  0  0  0  0  0  0  0
    4.8570    1.8980   26.7220 F   0  0  0  0  0  0  0  0  0  0  0  0
    5.7640   -0.5820   26.8260 C   0  0  0  0  0  0  0  0  0  0  0  0
    5.1460   -1.0720   25.5050 C   0  0  0  0  0  0  0  0  0  0  0  0
    3.8280   -1.6160   25.6090 N   0  0  0  0  0  0  0  0  0  0  0  0
    2.9950   -0.7120   26.2690 C   0  0  0  0  0  0  0  0  0  0  0  0
    1.6130   -1.1290   26.6670 C   0  0  0  0  0  0  0  0  0  0  0  0
    1.1170   -2.5360   26.3550 C   0  0  0  0  0  0  0  0  0  0  0  0
    1.9820   -3.2870   25.3860 C   0  0  0  0  0  0  0  0  0  0  0  0
    1.6370   -4.5830   25.0200 C   0  0  0  0  0  0  0  0  0  0  0  0
    3.1280   -2.6920   24.8450 C   0  0  0  0  0  0  0  0  0  0  0  0
    3.6160   -3.1320   23.6320 O   0  0  0  0  0  0  0  0  0  0  0  0
    5.7000   -4.8420   23.3280 C   0  0  0  0  0  0  0  0  0  0  0  0
    6.5120   -5.4200   22.3610 C   0  0  0  0  0  0  0  0  0  0  0  0
  1  2  1  0
  2  3  2  0
  2  4  1  0
  4  5  1  0
  5  6  1  0
  6  7  1  0
  7  8  1  0
  8  9  2  0
  8 10  1  0
 10 11  1  0
 11 12  2  0
 12 13  1  0
 13 14  2  0
 14 15  1  0
 15 16  1  0
 11 17  1  0
 15 17  2  0
 17 18  1  0
 18 19  1  0
 19 20  1  0
 20 21  2  0
 21 22  1  0
 22 23  2  0
 23 24  1  0
 19 25  1  0
 23 25  1  0
 25 26  2  0
  7 27  1  0
  4 28  1  0
 27 28  1  0
M  END
