piperidine-amides-8267-covalent
     RDKit          3D

 25 26  0  0  0  0  0  0  0  0999 V2000
    7.0900   -3.3520   19.3550 C   0  0  0  0  0  0  0  0  0  0  0  0
    6.3680   -4.1660   20.3280 C   0  0  0  0  0  0  0  0  0  0  0  0
    5.3360   -4.7480   19.9520 O   0  0  0  0  0  0  0  0  0  0  0  0
    6.8740   -4.3190   21.6400 N   0  0  0  0  0  0  0  0  0  0  0  0
    6.5060   -5.4890   22.3880 C   0  0  0  0  0  0  0  0  0  0  0  0
    6.2180   -5.1280   23.8220 C   0  0  0  0  0  0  0  0  0  0  0  0
    6.0550   -3.6250   23.9120 C   0  0  0  0  0  0  0  0  0  0  0  0
    5.6140   -3.2050   25.2790 C   0  0  0  0  0  0  0  0  0  0  0  0
    4.4030   -3.1970   25.5040 O   0  0  0  0  0  0  0  0  0  0  0  0
    6.6060   -2.8600   26.1790 N   0  0  0  0  0  0  0  0  0  0  0  0
    6.5420   -1.7100   27.0150 C   0  0  0  0  0  0  0  0  0  0  0  0
    6.9600   -1.5540   28.3520 C   0  0  0  0  0  0  0  0  0  0  0  0
    6.8980   -0.4340   29.1550 C   0  0  0  0  0  0  0  0  0  0  0  0
    6.3930    0.8120   28.8010 C   0  0  0  0  0  0  0  0  0  0  0  0
    5.8910    0.8640   27.4010 C   0  0  0  0  0  0  0  0  0  0  0  0
    5.3840    2.0340   26.9500 N   0  0  0  0  0  0  0  0  0  0  0  0
    4.7500    2.7860   27.8470 C   0  0  0  0  0  0  0  0  0  0  0  0
    5.4610    3.4080   28.6730 O   0  0  0  0  0  0  0  0  0  0  0  0
    3.2750    2.9170   27.9120 C   0  0  1  0  0  0  0  0  0  0  0  0
    3.0690    4.3910   28.1190 C   0  0  0  0  0  0  0  0  0  0  0  0
    2.6300    2.6040   26.7380 O   0  0  0  0  0  0  0  0  0  0  0  0
    2.4260    1.1910   26.6770 C   0  0  0  0  0  0  0  0  0  0  0  0
    5.9840   -0.3850   26.5730 C   0  0  0  0  0  0  0  0  0  0  0  0
    7.3900   -3.0290   23.6250 C   0  0  0  0  0  0  0  0  0  0  0  0
    7.6650   -3.2300   22.1710 C   0  0  0  0  0  0  0  0  0  0  0  0
  1  2  1  0
  2  3  2  0
  2  4  1  0
  4  5  1  0
  5  6  1  0
  6  7  1  0
  7  8  1  0
  8  9  2  0
  8 10  1  0
 10 11  1  0
 11 12  2  0
 12 13  1  0
 13 14  2  0
 14 15  1  0
 15 16  1  0
 16 17  1  0
 17 18  2  0
 17 19  1  0
 19 20  1  6
 19 21  1  0
 21 22  1  0
 11 23  1  0
 15 23  2  0
  7 24  1  0
  4 25  1  0
 24 25  1  0
M  END
