piperidine-amides-23956-covalent
     RDKit          3D

 24 25  0  0  0  0  0  0  0  0999 V2000
    7.1180   -3.2730   19.2540 C   0  0  0  0  0  0  0  0  0  0  0  0
    6.3930   -4.0470   20.2770 C   0  0  0  0  0  0  0  0  0  0  0  0
    5.3220   -4.5890   19.9070 O   0  0  0  0  0  0  0  0  0  0  0  0
    6.9000   -4.2160   21.5980 N   0  0  0  0  0  0  0  0  0  0  0  0
    7.6660   -3.1740   22.2040 C   0  0  0  0  0  0  0  0  0  0  0  0
    7.2820   -2.9100   23.5830 C   0  0  0  0  0  0  0  0  0  0  0  0
    6.0980   -3.6790   23.9840 C   0  0  0  0  0  0  0  0  0  0  0  0
    5.5830   -3.3700   25.3640 C   0  0  0  0  0  0  0  0  0  0  0  0
    4.3860   -3.5960   25.6060 O   0  0  0  0  0  0  0  0  0  0  0  0
    6.3810   -2.8090   26.3870 N   0  0  0  0  0  0  0  0  0  0  0  0
    6.9670   -1.5280   26.3210 C   0  0  0  0  0  0  0  0  0  0  0  0
    5.9960   -3.1610   27.7490 C   0  0  0  0  0  0  0  0  0  0  0  0
    6.3010   -4.5630   28.3050 C   0  0  0  0  0  0  0  0  0  0  0  0
    5.4910   -5.0940   29.2770 C   0  0  0  0  0  0  0  0  0  0  0  0
    6.3450   -6.3770   29.3970 C   0  0  0  0  0  0  0  0  0  0  0  0
    5.8620   -7.3890   30.4210 C   0  0  0  0  0  0  0  0  0  0  0  0
    4.5890   -6.9090   31.1330 C   0  0  0  0  0  0  0  0  0  0  0  0
    3.8100   -5.6490   30.9620 C   0  0  0  0  0  0  0  0  0  0  0  0
    4.3560   -4.7110   29.9410 C   0  0  0  0  0  0  0  0  0  0  0  0
    3.6940   -3.5530   29.7480 N   0  0  0  0  0  0  0  0  0  0  0  0
    4.3820   -2.3500   29.5480 O   0  0  0  0  0  0  0  0  0  0  0  0
    2.3700   -3.4800   29.9900 O   0  0  0  0  0  0  0  0  0  0  0  0
    6.3510   -5.1790   23.7980 C   0  0  0  0  0  0  0  0  0  0  0  0
    6.4650   -5.4290   22.3240 C   0  0  0  0  0  0  0  0  0  0  0  0
  1  2  1  0
  2  3  2  0
  2  4  1  0
  4  5  1  0
  5  6  1  0
  6  7  1  0
  7  8  1  0
  8  9  2  0
  8 10  1  0
 10 11  1  0
 10 12  1  0
 12 13  1  0
 13 14  1  0
 14 15  2  0
 15 16  1  0
 16 17  2  0
 17 18  1  0
 14 19  1  0
 18 19  2  0
 19 20  1  0
 20 21  2  0
 20 22  1  0
  7 23  1  0
  4 24  1  0
 23 24  1  0
M  CHG  2  20   1  22  -1
M  END
