piperidine-amides-32576-covalent
     RDKit          3D

 27 29  0  0  0  0  0  0  0  0999 V2000
    7.0670   -3.3190   19.3070 C   0  0  0  0  0  0  0  0  0  0  0  0
    6.3600   -4.1540   20.3160 C   0  0  0  0  0  0  0  0  0  0  0  0
    5.3570   -4.7980   19.9640 O   0  0  0  0  0  0  0  0  0  0  0  0
    6.8680   -4.2320   21.6250 N   0  0  0  0  0  0  0  0  0  0  0  0
    7.7190   -3.1780   22.1590 C   0  0  0  0  0  0  0  0  0  0  0  0
    7.6060   -3.1600   23.6870 C   0  0  0  0  0  0  0  0  0  0  0  0
    6.2410   -3.6410   24.0270 C   0  0  0  0  0  0  0  0  0  0  0  0
    5.7710   -3.2630   25.3830 C   0  0  0  0  0  0  0  0  0  0  0  0
    4.5400   -3.2220   25.5160 O   0  0  0  0  0  0  0  0  0  0  0  0
    6.6610   -2.9570   26.4330 N   0  0  0  0  0  0  0  0  0  0  0  0
    7.4320   -3.9050   27.1650 C   0  0  0  0  0  0  0  0  0  0  0  0
    6.9460   -5.1420   27.4990 C   0  0  2  0  0  0  0  0  0  0  0  0
    7.8560   -6.0300   26.8030 O   0  0  0  0  0  0  0  0  0  0  0  0
    5.6430   -5.5030   27.0950 C   0  0  0  0  0  0  0  0  0  0  0  0
    5.0630   -6.4750   28.0120 N   0  0  0  0  0  0  0  0  0  0  0  0
    3.8790   -7.0660   27.6520 C   0  0  0  0  0  0  0  0  0  0  0  0
    2.6370   -6.9760   28.4800 C   0  0  0  0  0  0  0  0  0  0  0  0
    3.0770   -7.4260   30.1380 S   0  0  0  0  0  0  0  0  0  0  0  0
    4.6910   -6.8240   30.3840 C   0  0  0  0  0  0  0  0  0  0  0  0
    4.4530   -5.3180   30.3290 C   0  0  0  0  0  0  0  0  0  0  0  0
    5.3670   -7.3610   31.4950 C   0  0  0  0  0  0  0  0  0  0  0  0
    5.5860   -7.0350   29.2070 C   0  0  0  0  0  0  0  0  0  0  0  0
    6.4550   -1.5700   26.8540 C   0  0  0  0  0  0  0  0  0  0  0  0
    5.4760   -0.7920   26.2330 C   0  0  0  0  0  0  0  0  0  0  0  0
    6.9400   -0.4300   26.0680 C   0  0  0  0  0  0  0  0  0  0  0  0
    6.0480   -5.0950   23.7510 C   0  0  0  0  0  0  0  0  0  0  0  0
    6.6720   -5.4400   22.4020 C   0  0  0  0  0  0  0  0  0  0  0  0
  1  2  1  0
  2  3  2  0
  2  4  1  0
  4  5  1  0
  5  6  1  0
  6  7  1  0
  7  8  1  0
  8  9  2  0
  8 10  1  0
 10 11  1  0
 11 12  1  0
 12 13  1  6
 12 14  1  0
 14 15  1  0
 15 16  1  0
 16 17  1  0
 17 18  1  0
 18 19  1  0
 19 20  1  0
 19 21  1  0
 15 22  1  0
 19 22  1  0
 10 23  1  0
 23 24  1  0
 23 25  1  0
 24 25  1  0
  7 26  1  0
  4 27  1  0
 26 27  1  0
M  END
