piperidine-amides-28032-covalent
     RDKit          3D

 26 27  0  0  0  0  0  0  0  0999 V2000
    7.1110   -3.3060   19.2690 C   0  0  0  0  0  0  0  0  0  0  0  0
    6.3480   -4.0490   20.2960 C   0  0  0  0  0  0  0  0  0  0  0  0
    5.2870   -4.5730   19.9030 O   0  0  0  0  0  0  0  0  0  0  0  0
    6.8260   -4.1980   21.6170 N   0  0  0  0  0  0  0  0  0  0  0  0
    7.6460   -3.1910   22.2210 C   0  0  0  0  0  0  0  0  0  0  0  0
    7.2830   -2.9430   23.6130 C   0  0  0  0  0  0  0  0  0  0  0  0
    6.0280   -3.6290   23.9700 C   0  0  0  0  0  0  0  0  0  0  0  0
    5.5350   -3.3490   25.3470 C   0  0  0  0  0  0  0  0  0  0  0  0
    4.3120   -3.4590   25.5200 O   0  0  0  0  0  0  0  0  0  0  0  0
    6.3480   -2.9750   26.4400 N   0  0  0  0  0  0  0  0  0  0  0  0
    6.2440   -3.7280   27.7200 C   0  0  0  0  0  0  0  0  0  0  0  0
    6.1140   -5.2050   27.5160 C   0  0  0  0  0  0  0  0  0  0  0  0
    6.2790   -6.0470   28.6940 C   0  0  0  0  0  0  0  0  0  0  0  0
    6.7600   -1.6210   26.7870 C   0  0  0  0  0  0  0  0  0  0  0  0
    5.6060   -0.8660   26.8960 C   0  0  0  0  0  0  0  0  0  0  0  0
    5.1320   -0.2650   25.8400 O   0  0  0  0  0  0  0  0  0  0  0  0
    4.8980   -0.6970   28.1400 N   0  0  0  0  0  0  0  0  0  0  0  0
    3.5830   -0.4130   28.2310 C   0  0  0  0  0  0  0  0  0  0  0  0
    2.8460   -1.0270   27.2500 C   0  0  0  0  0  0  0  0  0  0  0  0
    1.4860   -0.8510   27.1850 C   0  0  0  0  0  0  0  0  0  0  0  0
    0.8590   -0.0350   28.1300 C   0  0  0  0  0  0  0  0  0  0  0  0
    1.5940    0.6520   29.2060 C   0  0  0  0  0  0  0  0  0  0  0  0
    3.0750    0.4040   29.2060 C   0  0  0  0  0  0  0  0  0  0  0  0
    3.9310    0.9340   30.1010 F   0  0  0  0  0  0  0  0  0  0  0  0
    6.1180   -5.1370   23.6570 C   0  0  0  0  0  0  0  0  0  0  0  0
    6.6320   -5.4290   22.3610 C   0  0  0  0  0  0  0  0  0  0  0  0
  1  2  1  0
  2  3  2  0
  2  4  1  0
  4  5  1  0
  5  6  1  0
  6  7  1  0
  7  8  1  0
  8  9  2  0
  8 10  1  0
 10 11  1  0
 11 12  1  0
 12 13  3  0
 10 14  1  0
 14 15  1  0
 15 16  2  0
 15 17  1  0
 17 18  1  0
 18 19  2  0
 19 20  1  0
 20 21  2  0
 21 22  1  0
 18 23  1  0
 22 23  2  0
 23 24  1  0
  7 25  1  0
  4 26  1  0
 25 26  1  0
M  END
