piperidine-amides-11621-covalent
     RDKit          3D

 20 21  0  0  0  0  0  0  0  0999 V2000
    7.1520   -3.2850   19.2500 C   0  0  0  0  0  0  0  0  0  0  0  0
    6.4050   -4.0830   20.2190 C   0  0  0  0  0  0  0  0  0  0  0  0
    5.3240   -4.5800   19.9010 O   0  0  0  0  0  0  0  0  0  0  0  0
    6.9560   -4.3480   21.5180 N   0  0  0  0  0  0  0  0  0  0  0  0
    6.4340   -5.4440   22.2720 C   0  0  0  0  0  0  0  0  0  0  0  0
    5.6740   -4.8930   23.4450 C   0  0  0  0  0  0  0  0  0  0  0  0
    6.5120   -3.8020   24.1090 C   0  0  0  0  0  0  0  0  0  0  0  0
    5.7490   -3.1990   25.2290 C   0  0  0  0  0  0  0  0  0  0  0  0
    4.5200   -3.3580   25.3740 O   0  0  0  0  0  0  0  0  0  0  0  0
    6.4520   -2.4060   26.1560 N   0  0  0  0  0  0  0  0  0  0  0  0
    6.2780   -2.6930   27.5500 C   0  0  0  0  0  0  0  0  0  0  0  0
    7.5430   -3.3340   27.9870 C   0  0  2  0  0  0  0  0  0  0  0  0
    8.4370   -3.6660   27.0280 C   0  0  0  0  0  0  0  0  0  0  0  0
    8.8770   -4.9220   27.2120 C   0  0  0  0  0  0  0  0  0  0  0  0
    9.9840   -4.8890   27.9640 C   0  0  0  0  0  0  0  0  0  0  0  0
    9.0270   -5.5990   26.0330 C   0  0  0  0  0  0  0  0  0  0  0  0
    7.8510   -5.5510   27.8220 C   0  0  0  0  0  0  0  0  0  0  0  0
    7.2150   -4.5980   28.5160 O   0  0  0  0  0  0  0  0  0  0  0  0
    6.7940   -2.6970   23.0990 C   0  0  0  0  0  0  0  0  0  0  0  0
    7.6560   -3.2540   22.1660 C   0  0  0  0  0  0  0  0  0  0  0  0
  1  2  1  0
  2  3  2  0
  2  4  1  0
  4  5  1  0
  5  6  1  0
  6  7  1  0
  7  8  1  0
  8  9  2  0
  8 10  1  0
 10 11  1  0
 12 11  1  6
 12 13  1  0
 13 14  1  0
 14 15  1  0
 14 16  1  0
 14 17  1  0
 12 18  1  0
 17 18  1  0
  7 19  1  0
  4 20  1  0
 19 20  1  0
M  END
