piperidine-amides-12300-covalent
     RDKit          3D

 24 26  0  0  0  0  0  0  0  0999 V2000
    7.0510   -3.3450   19.2730 C   0  0  0  0  0  0  0  0  0  0  0  0
    6.3450   -4.1550   20.2650 C   0  0  0  0  0  0  0  0  0  0  0  0
    5.3220   -4.7540   19.9480 O   0  0  0  0  0  0  0  0  0  0  0  0
    6.8640   -4.3050   21.5920 N   0  0  0  0  0  0  0  0  0  0  0  0
    7.7410   -3.2920   22.1260 C   0  0  0  0  0  0  0  0  0  0  0  0
    7.1620   -2.7180   23.3650 C   0  0  0  0  0  0  0  0  0  0  0  0
    6.6260   -3.8630   24.1860 C   0  0  0  0  0  0  0  0  0  0  0  0
    6.0570   -3.2310   25.3980 C   0  0  0  0  0  0  0  0  0  0  0  0
    4.9270   -3.4750   25.8660 O   0  0  0  0  0  0  0  0  0  0  0  0
    6.9200   -2.2830   25.9820 N   0  0  0  0  0  0  0  0  0  0  0  0
    6.4660   -1.4090   27.0300 C   0  0  0  0  0  0  0  0  0  0  0  0
    6.9890   -1.8120   28.4140 C   0  0  0  0  0  0  0  0  0  0  0  0
    6.3350   -0.7820   28.9070 N   0  0  0  0  0  0  0  0  0  0  0  0
    6.3760   -0.5260   30.2270 C   0  0  0  0  0  0  0  0  0  0  0  0
    5.6740   -0.0560   28.0770 N   0  0  0  0  0  0  0  0  0  0  0  0
    5.5780   -0.2550   26.6600 C   0  0  0  0  0  0  0  0  0  0  0  0
    4.7840    0.8730   26.7480 C   0  0  0  0  0  0  0  0  0  0  0  0
    3.6030    1.1070   25.9440 C   0  0  0  0  0  0  0  0  0  0  0  0
    2.7560    2.1910   25.9620 C   0  0  0  0  0  0  0  0  0  0  0  0
    3.0020    3.2880   26.8700 N   0  0  0  0  0  0  0  0  0  0  0  0
    4.1860    3.0880   27.6980 C   0  0  0  0  0  0  0  0  0  0  0  0
    5.0540    1.9930   27.6890 C   0  0  0  0  0  0  0  0  0  0  0  0
    5.7400   -4.7930   23.5110 C   0  0  0  0  0  0  0  0  0  0  0  0
    6.4330   -5.3760   22.4590 C   0  0  0  0  0  0  0  0  0  0  0  0
  1  2  1  0
  2  3  2  0
  2  4  1  0
  4  5  1  0
  5  6  1  0
  6  7  1  0
  7  8  1  0
  8  9  2  0
  8 10  1  0
 10 11  1  0
 11 12  2  0
 12 13  1  0
 13 14  1  0
 13 15  1  0
 11 16  1  0
 15 16  2  0
 16 17  1  0
 17 18  2  0
 18 19  1  0
 19 20  2  0
 20 21  1  0
 17 22  1  0
 21 22  2  0
  7 23  1  0
  4 24  1  0
 23 24  1  0
M  END
