piperidine-amides-26887-covalent
     RDKit          3D

 21 23  0  0  0  0  0  0  0  0999 V2000
    7.0660   -3.3950   19.3960 C   0  0  0  0  0  0  0  0  0  0  0  0
    6.3920   -4.2290   20.3910 C   0  0  0  0  0  0  0  0  0  0  0  0
    5.3770   -4.8580   19.9870 O   0  0  0  0  0  0  0  0  0  0  0  0
    6.9040   -4.3390   21.6930 N   0  0  0  0  0  0  0  0  0  0  0  0
    6.6300   -5.4670   22.5510 C   0  0  0  0  0  0  0  0  0  0  0  0
    5.9500   -4.9720   23.8090 C   0  0  0  0  0  0  0  0  0  0  0  0
    6.5750   -3.7390   24.4410 C   0  0  0  0  0  0  0  0  0  0  0  0
    5.6660   -3.2300   25.5240 C   0  0  0  0  0  0  0  0  0  0  0  0
    4.5760   -2.7740   25.1250 O   0  0  0  0  0  0  0  0  0  0  0  0
    5.8700   -3.2160   26.9530 N   0  0  0  0  0  0  0  0  0  0  0  0
    4.9480   -2.4250   27.6660 C   0  0  0  0  0  0  0  0  0  0  0  0
    4.3600   -3.5600   28.3620 C   0  0  0  0  0  0  0  0  0  0  0  0
    5.2420   -4.5520   28.4820 C   0  0  0  0  0  0  0  0  0  0  0  0
    5.0310   -5.6690   29.4730 C   0  0  0  0  0  0  0  0  0  0  0  0
    3.4250   -5.6570   30.5120 Br  0  0  0  0  0  0  0  0  0  0  0  0
    5.9650   -6.7590   29.6930 C   0  0  0  0  0  0  0  0  0  0  0  0
    6.9280   -6.4980   28.8660 C   0  0  0  0  0  0  0  0  0  0  0  0
    6.3410   -5.4640   28.4410 C   0  0  0  0  0  0  0  0  0  0  0  0
    6.4090   -4.4180   27.5620 C   0  0  0  0  0  0  0  0  0  0  0  0
    6.8070   -2.6650   23.4330 C   0  0  0  0  0  0  0  0  0  0  0  0
    7.5700   -3.1580   22.2310 C   0  0  0  0  0  0  0  0  0  0  0  0
  1  2  1  0
  2  3  2  0
  2  4  1  0
  4  5  1  0
  5  6  1  0
  6  7  1  0
  7  8  1  0
  8  9  2  0
  8 10  1  0
 10 11  1  0
 11 12  1  0
 12 13  1  0
 13 14  1  0
 14 15  1  0
 14 16  2  0
 16 17  1  0
 17 18  2  0
 10 19  1  0
 13 19  2  0
 18 19  1  0
  7 20  1  0
  4 21  1  0
 20 21  1  0
M  END
