piperidine-amides-32199-covalent
     RDKit          3D

 27 29  0  0  0  0  0  0  0  0999 V2000
    7.1010   -3.3450   19.2980 C   0  0  0  0  0  0  0  0  0  0  0  0
    6.3470   -4.1420   20.2970 C   0  0  0  0  0  0  0  0  0  0  0  0
    5.3090   -4.7250   19.9460 O   0  0  0  0  0  0  0  0  0  0  0  0
    6.8740   -4.2580   21.5950 N   0  0  0  0  0  0  0  0  0  0  0  0
    7.6950   -3.2340   22.1990 C   0  0  0  0  0  0  0  0  0  0  0  0
    6.8430   -2.5980   23.2900 C   0  0  0  0  0  0  0  0  0  0  0  0
    6.5920   -3.6790   24.2750 C   0  0  0  0  0  0  0  0  0  0  0  0
    5.7410   -3.2570   25.4140 C   0  0  0  0  0  0  0  0  0  0  0  0
    4.5460   -3.0810   25.1530 O   0  0  0  0  0  0  0  0  0  0  0  0
    6.2640   -3.0720   26.7100 N   0  0  0  0  0  0  0  0  0  0  0  0
    6.3150   -1.8050   27.3650 C   0  0  0  0  0  0  0  0  0  0  0  0
    6.8420   -1.6270   28.5740 C   0  0  0  0  0  0  0  0  0  0  0  0
    6.7860   -0.3710   29.0550 C   0  0  0  0  0  0  0  0  0  0  0  0
    7.2730   -0.0190   30.2860 C   0  0  0  0  0  0  0  0  0  0  0  0
    8.3910    0.6170   30.5480 O   0  0  0  0  0  0  0  0  0  0  0  0
    6.5410   -0.3180   31.4070 O   0  0  0  0  0  0  0  0  0  0  0  0
    6.8450    0.2250   32.6960 C   0  0  0  0  0  0  0  0  0  0  0  0
    7.0800    1.7400   32.6890 C   0  0  0  0  0  0  0  0  0  0  0  0
    6.2260    0.6570   28.3250 C   0  0  0  0  0  0  0  0  0  0  0  0
    6.2700    2.2010   29.1610 Cl  0  0  0  0  0  0  0  0  0  0  0  0
    5.6390    0.6430   27.0360 C   0  0  0  0  0  0  0  0  0  0  0  0
    5.7970   -0.7120   26.7520 N   0  0  0  0  0  0  0  0  0  0  0  0
    6.1400   -4.0780   27.7730 C   0  0  0  0  0  0  0  0  0  0  0  0
    5.7830   -5.3290   27.3720 C   0  0  0  0  0  0  0  0  0  0  0  0
    4.7920   -4.7560   28.2450 C   0  0  0  0  0  0  0  0  0  0  0  0
    5.9670   -4.9240   23.7030 C   0  0  0  0  0  0  0  0  0  0  0  0
    6.5840   -5.4200   22.4130 C   0  0  0  0  0  0  0  0  0  0  0  0
  1  2  1  0
  2  3  2  0
  2  4  1  0
  4  5  1  0
  5  6  1  0
  6  7  1  0
  7  8  1  0
  8  9  2  0
  8 10  1  0
 10 11  1  0
 11 12  2  0
 12 13  1  0
 13 14  1  0
 14 15  2  0
 14 16  1  0
 16 17  1  0
 17 18  1  0
 13 19  2  0
 19 20  1  0
 19 21  1  0
 11 22  1  0
 21 22  2  0
 10 23  1  0
 23 24  1  0
 23 25  1  0
 24 25  1  0
  7 26  1  0
  4 27  1  0
 26 27  1  0
M  END
