piperidine-amides-10587-covalent
     RDKit          3D

 23 24  0  0  0  0  0  0  0  0999 V2000
    7.0900   -3.2670   19.2090 C   0  0  0  0  0  0  0  0  0  0  0  0
    6.3480   -4.0040   20.2400 C   0  0  0  0  0  0  0  0  0  0  0  0
    5.2750   -4.5520   19.8810 O   0  0  0  0  0  0  0  0  0  0  0  0
    6.8480   -4.1170   21.5390 N   0  0  0  0  0  0  0  0  0  0  0  0
    7.7720   -3.1430   22.0750 C   0  0  0  0  0  0  0  0  0  0  0  0
    7.5720   -3.0960   23.5500 C   0  0  0  0  0  0  0  0  0  0  0  0
    6.1870   -3.5490   23.9070 C   0  0  0  0  0  0  0  0  0  0  0  0
    5.9450   -3.3600   25.3390 C   0  0  0  0  0  0  0  0  0  0  0  0
    4.7570   -3.2630   25.7220 O   0  0  0  0  0  0  0  0  0  0  0  0
    6.9980   -3.2890   26.2770 N   0  0  0  0  0  0  0  0  0  0  0  0
    6.8240   -3.7850   27.6130 C   0  0  0  0  0  0  0  0  0  0  0  0
    6.5310   -2.6500   28.5870 C   0  0  0  0  0  0  0  0  0  0  0  0
    7.5090   -1.8020   29.0460 C   0  0  0  0  0  0  0  0  0  0  0  0
    8.7820   -1.9890   28.6120 F   0  0  0  0  0  0  0  0  0  0  0  0
    7.2280   -0.7850   29.9300 C   0  0  0  0  0  0  0  0  0  0  0  0
    5.9650   -0.5400   30.4110 C   0  0  0  0  0  0  0  0  0  0  0  0
    5.8200    0.4970   31.2790 F   0  0  0  0  0  0  0  0  0  0  0  0
    4.9790   -1.3790   29.9580 C   0  0  0  0  0  0  0  0  0  0  0  0
    3.7150   -1.0840   30.4800 F   0  0  0  0  0  0  0  0  0  0  0  0
    5.2460   -2.4080   29.0720 C   0  0  0  0  0  0  0  0  0  0  0  0
    4.1160   -3.1430   28.7390 F   0  0  0  0  0  0  0  0  0  0  0  0
    5.9650   -5.0300   23.5690 C   0  0  0  0  0  0  0  0  0  0  0  0
    6.6610   -5.3580   22.2440 C   0  0  0  0  0  0  0  0  0  0  0  0
  1  2  1  0
  2  3  2  0
  2  4  1  0
  4  5  1  0
  5  6  1  0
  6  7  1  0
  7  8  1  0
  8  9  2  0
  8 10  1  0
 10 11  1  0
 11 12  1  0
 12 13  2  0
 13 14  1  0
 13 15  1  0
 15 16  2  0
 16 17  1  0
 16 18  1  0
 18 19  1  0
 12 20  1  0
 18 20  2  0
 20 21  1  0
  7 22  1  0
  4 23  1  0
 22 23  1  0
M  END
