piperidine-amides-11306-covalent
     RDKit          3D

 17 17  0  0  0  0  0  0  0  0999 V2000
    7.1360   -3.3100   19.3070 C   0  0  0  0  0  0  0  0  0  0  0  0
    6.3400   -4.0470   20.2870 C   0  0  0  0  0  0  0  0  0  0  0  0
    5.2830   -4.5820   19.9040 O   0  0  0  0  0  0  0  0  0  0  0  0
    6.7590   -4.2100   21.6210 N   0  0  0  0  0  0  0  0  0  0  0  0
    6.5730   -5.4760   22.2920 C   0  0  0  0  0  0  0  0  0  0  0  0
    6.1150   -5.1470   23.6900 C   0  0  0  0  0  0  0  0  0  0  0  0
    6.0230   -3.6660   23.9110 C   0  0  0  0  0  0  0  0  0  0  0  0
    5.6280   -3.2900   25.2940 C   0  0  0  0  0  0  0  0  0  0  0  0
    4.4190   -3.0160   25.5550 O   0  0  0  0  0  0  0  0  0  0  0  0
    6.5410   -3.2110   26.3630 N   0  0  0  0  0  0  0  0  0  0  0  0
    6.1710   -3.6130   27.7430 C   0  0  0  0  0  0  0  0  0  0  0  0
    5.8230   -5.0590   27.8010 C   0  0  2  0  0  0  0  0  0  0  0  0
    6.7340   -5.9340   28.5550 C   0  0  0  0  0  0  0  0  0  0  0  0
    5.6860   -5.6970   26.4480 C   0  0  0  0  0  0  0  0  0  0  0  0
    4.5110   -6.6480   26.4050 C   0  0  0  0  0  0  0  0  0  0  0  0
    7.3210   -3.0300   23.5440 C   0  0  0  0  0  0  0  0  0  0  0  0
    7.5350   -3.1370   22.1940 C   0  0  0  0  0  0  0  0  0  0  0  0
  1  2  1  0
  2  3  2  0
  2  4  1  0
  4  5  1  0
  5  6  1  0
  6  7  1  0
  7  8  1  0
  8  9  2  0
  8 10  1  0
 10 11  1  0
 11 12  1  0
 12 13  1  1
 12 14  1  0
 14 15  3  0
  7 16  1  0
  4 17  1  0
 16 17  1  0
M  END
