piperidine-amides-14167-covalent
     RDKit          3D

 24 25  0  0  0  0  0  0  0  0999 V2000
    7.1130   -3.2760   19.2780 C   0  0  0  0  0  0  0  0  0  0  0  0
    6.3170   -4.0340   20.2850 C   0  0  0  0  0  0  0  0  0  0  0  0
    5.2840   -4.6110   19.9050 O   0  0  0  0  0  0  0  0  0  0  0  0
    6.7670   -4.1210   21.6210 N   0  0  0  0  0  0  0  0  0  0  0  0
    7.7750   -3.2160   22.1390 C   0  0  0  0  0  0  0  0  0  0  0  0
    7.2760   -2.6690   23.4650 C   0  0  0  0  0  0  0  0  0  0  0  0
    6.1120   -3.5120   23.8360 C   0  0  0  0  0  0  0  0  0  0  0  0
    5.6190   -3.1890   25.1930 C   0  0  0  0  0  0  0  0  0  0  0  0
    4.6980   -2.3700   25.2620 O   0  0  0  0  0  0  0  0  0  0  0  0
    6.1760   -3.7980   26.3130 N   0  0  0  0  0  0  0  0  0  0  0  0
    5.9010   -5.1170   26.7520 C   0  0  0  0  0  0  0  0  0  0  0  0
    5.9600   -5.5530   28.0420 C   0  0  0  0  0  0  0  0  0  0  0  0
    4.7280   -5.6220   28.7050 C   0  0  0  0  0  0  0  0  0  0  0  0
    4.2210   -4.5600   29.4310 C   0  0  0  0  0  0  0  0  0  0  0  0
    2.9220   -4.6140   30.1250 C   0  0  0  0  0  0  0  0  0  0  0  0
    2.1240   -5.8930   30.0220 C   0  0  0  0  0  0  0  0  0  0  0  0
    0.7940   -5.8420   30.7710 C   0  0  0  0  0  0  0  0  0  0  0  0
    2.6910   -6.9240   29.2730 C   0  0  0  0  0  0  0  0  0  0  0  0
    1.9620   -8.0520   29.1830 N   0  0  0  0  0  0  0  0  0  0  0  0
    1.7040   -8.6230   30.2630 O   0  0  0  0  0  0  0  0  0  0  0  0
    1.1150   -8.3000   28.1440 O   0  0  0  0  0  0  0  0  0  0  0  0
    4.0220   -6.8300   28.5850 C   0  0  0  0  0  0  0  0  0  0  0  0
    6.3350   -4.9870   23.7020 C   0  0  0  0  0  0  0  0  0  0  0  0
    6.4910   -5.3200   22.3740 C   0  0  0  0  0  0  0  0  0  0  0  0
  1  2  1  0
  2  3  2  0
  2  4  1  0
  4  5  1  0
  5  6  1  0
  6  7  1  0
  7  8  1  0
  8  9  2  0
  8 10  1  0
 10 11  1  0
 11 12  1  0
 12 13  1  0
 13 14  2  0
 14 15  1  0
 15 16  2  0
 16 17  1  0
 16 18  1  0
 18 19  1  0
 19 20  2  0
 19 21  1  0
 13 22  1  0
 18 22  2  0
  7 23  1  0
  4 24  1  0
 23 24  1  0
M  CHG  2  19   1  21  -1
M  END
