piperidine-amides-12847-covalent
     RDKit          3D

 23 25  0  0  0  0  0  0  0  0999 V2000
    7.0800   -3.3120   19.2410 C   0  0  0  0  0  0  0  0  0  0  0  0
    6.3360   -4.0900   20.2570 C   0  0  0  0  0  0  0  0  0  0  0  0
    5.2580   -4.5890   19.8900 O   0  0  0  0  0  0  0  0  0  0  0  0
    6.8480   -4.3070   21.5420 N   0  0  0  0  0  0  0  0  0  0  0  0
    7.5980   -3.2720   22.1830 C   0  0  0  0  0  0  0  0  0  0  0  0
    7.3200   -3.0610   23.6050 C   0  0  0  0  0  0  0  0  0  0  0  0
    6.4670   -4.0650   24.2900 C   0  0  0  0  0  0  0  0  0  0  0  0
    5.7200   -3.4460   25.4120 C   0  0  0  0  0  0  0  0  0  0  0  0
    4.4740   -3.5210   25.3910 O   0  0  0  0  0  0  0  0  0  0  0  0
    6.3650   -2.7670   26.4690 N   0  0  0  0  0  0  0  0  0  0  0  0
    6.1220   -1.3230   26.7100 C   0  0  0  0  0  0  0  0  0  0  0  0
    5.8860   -0.4050   25.6030 C   0  0  0  0  0  0  0  0  0  0  0  0
    5.6530    0.9420   25.8580 N   0  0  0  0  0  0  0  0  0  0  0  0
    5.6530    1.4070   27.2250 C   0  0  0  0  0  0  0  0  0  0  0  0
    5.8780    0.5050   28.2360 N   0  0  0  0  0  0  0  0  0  0  0  0
    6.1170   -0.8490   28.0640 C   0  0  0  0  0  0  0  0  0  0  0  0
    6.2870   -1.3890   29.2590 N   0  0  0  0  0  0  0  0  0  0  0  0
    5.2560   -0.9380   30.1550 C   0  0  0  0  0  0  0  0  0  0  0  0
    6.0560   -0.1560   30.9750 C   0  0  0  0  0  0  0  0  0  0  0  0
    7.4040   -0.2950   30.6730 C   0  0  0  0  0  0  0  0  0  0  0  0
    7.6270   -1.0320   29.5510 C   0  0  0  0  0  0  0  0  0  0  0  0
    5.5560   -4.7740   23.3350 C   0  0  0  0  0  0  0  0  0  0  0  0
    6.4350   -5.4260   22.3490 C   0  0  0  0  0  0  0  0  0  0  0  0
  1  2  1  0
  2  3  2  0
  2  4  1  0
  4  5  1  0
  5  6  1  0
  6  7  1  0
  7  8  1  0
  8  9  2  0
  8 10  1  0
 10 11  1  0
 11 12  2  0
 12 13  1  0
 13 14  2  0
 14 15  1  0
 11 16  1  0
 15 16  2  0
 16 17  1  0
 17 18  1  0
 18 19  1  0
 19 20  1  0
 17 21  1  0
 20 21  1  0
  7 22  1  0
  4 23  1  0
 22 23  1  0
M  END
