piperidine-amides-25941-covalent
     RDKit          3D

 25 27  0  0  0  0  0  0  0  0999 V2000
    7.0530   -3.3990   19.4650 C   0  0  0  0  0  0  0  0  0  0  0  0
    6.3580   -4.2630   20.4200 C   0  0  0  0  0  0  0  0  0  0  0  0
    5.3930   -4.9280   20.0060 O   0  0  0  0  0  0  0  0  0  0  0  0
    6.7770   -4.4030   21.7660 N   0  0  0  0  0  0  0  0  0  0  0  0
    6.4920   -5.6060   22.5260 C   0  0  0  0  0  0  0  0  0  0  0  0
    6.0600   -5.1960   23.9320 C   0  0  0  0  0  0  0  0  0  0  0  0
    5.8900   -3.7080   24.1070 C   0  0  0  0  0  0  0  0  0  0  0  0
    5.2050   -3.2090   25.3650 C   0  0  0  0  0  0  0  0  0  0  0  0
    4.6170   -2.1010   25.3080 O   0  0  0  0  0  0  0  0  0  0  0  0
    5.1190   -3.8470   26.6480 N   0  0  0  0  0  0  0  0  0  0  0  0
    4.4040   -3.1720   27.7640 C   0  0  0  0  0  0  0  0  0  0  0  0
    4.9450   -3.5110   29.1240 C   0  0  0  0  0  0  0  0  0  0  0  0
    5.3310   -4.7930   29.1990 N   0  0  0  0  0  0  0  0  0  0  0  0
    4.5090   -5.8950   29.5370 C   0  0  0  0  0  0  0  0  0  0  0  0
    3.3820   -6.0860   28.5600 C   0  0  0  0  0  0  0  0  0  0  0  0
    2.4350   -7.2320   28.8230 C   0  0  0  0  0  0  0  0  0  0  0  0
    2.7410   -8.0360   30.0320 C   0  0  0  0  0  0  0  0  0  0  0  0
    3.7920   -7.8020   30.8790 C   0  0  0  0  0  0  0  0  0  0  0  0
    4.6690   -6.7410   30.6300 C   0  0  0  0  0  0  0  0  0  0  0  0
    5.7060   -6.6180   31.5860 O   0  0  0  0  0  0  0  0  0  0  0  0
    5.6140   -7.4210   32.7500 C   0  0  0  0  0  0  0  0  0  0  0  0
    6.2300   -5.2800   28.2290 C   0  0  0  0  0  0  0  0  0  0  0  0
    6.2730   -4.5520   26.9360 C   0  0  0  0  0  0  0  0  0  0  0  0
    7.1860   -3.0400   23.7580 C   0  0  0  0  0  0  0  0  0  0  0  0
    7.5190   -3.3170   22.3410 C   0  0  0  0  0  0  0  0  0  0  0  0
  1  2  1  0
  2  3  2  0
  2  4  1  0
  4  5  1  0
  5  6  1  0
  6  7  1  0
  7  8  1  0
  8  9  2  0
  8 10  1  0
 10 11  1  0
 11 12  1  0
 12 13  1  0
 13 14  1  0
 14 15  2  0
 15 16  1  0
 16 17  2  0
 17 18  1  0
 14 19  1  0
 18 19  2  0
 19 20  1  0
 20 21  1  0
 13 22  1  0
 10 23  1  0
 22 23  1  0
  7 24  1  0
  4 25  1  0
 24 25  1  0
M  END
