piperidine-amides-13654-covalent
     RDKit          3D

 28 30  0  0  0  0  0  0  0  0999 V2000
    7.0520   -3.2470   19.1980 C   0  0  0  0  0  0  0  0  0  0  0  0
    6.2560   -4.0400   20.1800 C   0  0  0  0  0  0  0  0  0  0  0  0
    5.1780   -4.5330   19.8460 O   0  0  0  0  0  0  0  0  0  0  0  0
    6.7720   -4.2470   21.4580 N   0  0  0  0  0  0  0  0  0  0  0  0
    6.4940   -5.4620   22.1840 C   0  0  0  0  0  0  0  0  0  0  0  0
    5.4970   -5.1090   23.3010 C   0  0  0  0  0  0  0  0  0  0  0  0
    6.0920   -3.9870   24.0870 C   0  0  0  0  0  0  0  0  0  0  0  0
    5.3290   -3.6660   25.3110 C   0  0  0  0  0  0  0  0  0  0  0  0
    4.1310   -3.4010   25.1780 O   0  0  0  0  0  0  0  0  0  0  0  0
    5.9900   -3.6690   26.5360 N   0  0  0  0  0  0  0  0  0  0  0  0
    7.1400   -2.9020   26.7730 C   0  0  0  0  0  0  0  0  0  0  0  0
    7.6330   -2.1020   25.7670 C   0  0  0  0  0  0  0  0  0  0  0  0
    7.2900   -0.7310   25.7930 C   0  0  0  0  0  0  0  0  0  0  0  0
    7.6970    0.1820   24.8560 C   0  0  0  0  0  0  0  0  0  0  0  0
    8.5420   -0.2500   23.7330 C   0  0  0  0  0  0  0  0  0  0  0  0
    8.9740   -1.7060   23.5940 C   0  0  0  0  0  0  0  0  0  0  0  0
    8.4230   -2.5750   24.7430 C   0  0  0  0  0  0  0  0  0  0  0  0
    8.7680   -3.9180   24.6950 C   0  0  0  0  0  0  0  0  0  0  0  0
   10.0460   -4.0390   25.7990 S   0  0  0  0  0  0  0  0  0  0  0  0
    9.5920   -4.0230   27.2430 O   0  0  0  0  0  0  0  0  0  0  0  0
   10.6940   -5.3520   25.5750 O   0  0  0  0  0  0  0  0  0  0  0  0
   11.0760   -2.6980   25.4910 N   0  0  0  0  0  0  0  0  0  0  0  0
   10.8230   -1.7640   24.5380 C   0  0  0  0  0  0  0  0  0  0  0  0
   12.1480   -1.5930   23.8850 C   0  0  0  0  0  0  0  0  0  0  0  0
   13.2250   -1.6770   24.7520 C   0  0  0  0  0  0  0  0  0  0  0  0
   12.3730   -2.9780   24.9830 C   0  0  0  0  0  0  0  0  0  0  0  0
    6.3530   -2.7680   23.2630 C   0  0  0  0  0  0  0  0  0  0  0  0
    7.3450   -3.1450   22.1710 C   0  0  0  0  0  0  0  0  0  0  0  0
  1  2  1  0
  2  3  2  0
  2  4  1  0
  4  5  1  0
  5  6  1  0
  6  7  1  0
  7  8  1  0
  8  9  2  0
  8 10  1  0
 10 11  1  0
 11 12  1  0
 12 13  2  0
 13 14  1  0
 14 15  2  0
 15 16  1  0
 12 17  1  0
 16 17  2  0
 17 18  1  0
 19 18  1  0
 19 20  2  0
 19 21  2  0
 19 22  1  0
 22 23  1  0
 23 24  1  0
 24 25  1  0
 22 26  1  0
 25 26  1  0
  7 27  1  0
  4 28  1  0
 27 28  1  0
M  END
