piperidine-amides-12115-covalent
     RDKit          3D

 25 26  0  0  0  0  0  0  0  0999 V2000
    7.0720   -3.2630   19.2640 C   0  0  0  0  0  0  0  0  0  0  0  0
    6.3120   -4.0290   20.2490 C   0  0  0  0  0  0  0  0  0  0  0  0
    5.2940   -4.6290   19.9090 O   0  0  0  0  0  0  0  0  0  0  0  0
    6.7580   -4.1310   21.6120 N   0  0  0  0  0  0  0  0  0  0  0  0
    6.5240   -5.3360   22.3530 C   0  0  0  0  0  0  0  0  0  0  0  0
    6.1520   -4.9430   23.7500 C   0  0  0  0  0  0  0  0  0  0  0  0
    5.7100   -3.4870   23.6870 C   0  0  0  0  0  0  0  0  0  0  0  0
    4.9690   -3.1040   24.9430 C   0  0  0  0  0  0  0  0  0  0  0  0
    3.9330   -3.7080   25.2620 O   0  0  0  0  0  0  0  0  0  0  0  0
    5.3890   -2.0580   25.8100 N   0  0  0  0  0  0  0  0  0  0  0  0
    5.9800   -2.4660   27.0510 C   0  0  1  0  0  0  0  0  0  0  0  0
    5.0710   -3.4670   27.7580 C   0  0  0  0  0  0  0  0  0  0  0  0
    3.8770   -2.8900   28.1520 O   0  0  0  0  0  0  0  0  0  0  0  0
    5.2550   -4.8020   28.0580 O   0  0  0  0  0  0  0  0  0  0  0  0
    5.5410   -5.8430   27.1620 C   0  0  0  0  0  0  0  0  0  0  0  0
    7.0860   -3.2040   26.6540 C   0  0  0  0  0  0  0  0  0  0  0  0
    7.4990   -4.2660   27.3700 C   0  0  0  0  0  0  0  0  0  0  0  0
    8.5640   -5.0220   26.9460 C   0  0  0  0  0  0  0  0  0  0  0  0
    9.3240   -4.8760   25.8670 C   0  0  0  0  0  0  0  0  0  0  0  0
   10.2510   -5.7410   25.7060 O   0  0  0  0  0  0  0  0  0  0  0  0
    9.6740   -6.6210   26.5970 C   0  0  0  0  0  0  0  0  0  0  0  0
    8.9570   -3.7150   25.0260 C   0  0  0  0  0  0  0  0  0  0  0  0
    7.8280   -2.9330   25.4940 C   0  0  0  0  0  0  0  0  0  0  0  0
    6.8060   -2.5170   23.2560 C   0  0  0  0  0  0  0  0  0  0  0  0
    7.5600   -3.0990   22.2250 C   0  0  0  0  0  0  0  0  0  0  0  0
  1  2  1  0
  2  3  2  0
  2  4  1  0
  4  5  1  0
  5  6  1  0
  6  7  1  0
  7  8  1  0
  8  9  2  0
  8 10  1  0
 11 10  1  6
 11 12  1  0
 12 13  2  0
 12 14  1  0
 14 15  1  0
 11 16  1  0
 16 17  2  0
 17 18  1  0
 18 19  2  0
 19 20  1  0
 20 21  1  0
 19 22  1  0
 16 23  1  0
 22 23  2  0
  7 24  1  0
  4 25  1  0
 24 25  1  0
M  END
