piperidine-amides-24757-covalent
     RDKit          3D

 23 23  0  0  0  0  0  0  0  0999 V2000
    7.1200   -3.2710   19.2460 C   0  0  0  0  0  0  0  0  0  0  0  0
    6.3960   -4.0900   20.2270 C   0  0  0  0  0  0  0  0  0  0  0  0
    5.3180   -4.6440   19.9180 O   0  0  0  0  0  0  0  0  0  0  0  0
    6.9370   -4.3100   21.4920 N   0  0  0  0  0  0  0  0  0  0  0  0
    7.6670   -3.2520   22.1610 C   0  0  0  0  0  0  0  0  0  0  0  0
    6.7310   -2.7030   23.2340 C   0  0  0  0  0  0  0  0  0  0  0  0
    6.4950   -3.8520   24.1880 C   0  0  0  0  0  0  0  0  0  0  0  0
    5.7410   -3.4170   25.3810 C   0  0  0  0  0  0  0  0  0  0  0  0
    4.4940   -3.4270   25.3240 O   0  0  0  0  0  0  0  0  0  0  0  0
    6.4330   -2.9880   26.5450 N   0  0  0  0  0  0  0  0  0  0  0  0
    6.2270   -3.5800   27.8550 C   0  0  0  0  0  0  0  0  0  0  0  0
    6.2090   -5.1050   27.7980 C   0  0  0  0  0  0  0  0  0  0  0  0
    5.1660   -5.8000   28.3580 C   0  0  0  0  0  0  0  0  0  0  0  0
    5.4220   -6.4730   29.5110 F   0  0  0  0  0  0  0  0  0  0  0  0
    4.0480   -4.9940   28.6150 F   0  0  0  0  0  0  0  0  0  0  0  0
    4.6930   -6.6830   27.3680 F   0  0  0  0  0  0  0  0  0  0  0  0
    6.6790   -1.7200   27.1780 C   0  0  0  0  0  0  0  0  0  0  0  0
    5.4130   -1.1300   27.1250 C   0  0  0  0  0  0  0  0  0  0  0  0
    4.3080   -1.9110   27.0250 O   0  0  0  0  0  0  0  0  0  0  0  0
    5.2630    0.2420   27.1740 O   0  0  0  0  0  0  0  0  0  0  0  0
    5.9750    1.1020   26.2990 C   0  0  0  0  0  0  0  0  0  0  0  0
    5.6710   -4.9140   23.4510 C   0  0  0  0  0  0  0  0  0  0  0  0
    6.5180   -5.4140   22.3160 C   0  0  0  0  0  0  0  0  0  0  0  0
  1  2  1  0
  2  3  2  0
  2  4  1  0
  4  5  1  0
  5  6  1  0
  6  7  1  0
  7  8  1  0
  8  9  2  0
  8 10  1  0
 10 11  1  0
 11 12  1  0
 12 13  1  0
 13 14  1  0
 13 15  1  0
 13 16  1  0
 10 17  1  0
 17 18  1  0
 18 19  2  0
 18 20  1  0
 20 21  1  0
  7 22  1  0
  4 23  1  0
 22 23  1  0
M  END
