piperidine-amides-6680-covalent
     RDKit          3D

 23 25  0  0  0  0  0  0  0  0999 V2000
    7.1200   -3.2790   19.2540 C   0  0  0  0  0  0  0  0  0  0  0  0
    6.3720   -4.0490   20.2560 C   0  0  0  0  0  0  0  0  0  0  0  0
    5.3370   -4.6740   19.9300 O   0  0  0  0  0  0  0  0  0  0  0  0
    6.8320   -4.1300   21.5750 N   0  0  0  0  0  0  0  0  0  0  0  0
    7.7330   -3.1160   22.0950 C   0  0  0  0  0  0  0  0  0  0  0  0
    7.2770   -2.7840   23.5200 C   0  0  0  0  0  0  0  0  0  0  0  0
    5.8290   -3.2080   23.5880 C   0  0  0  0  0  0  0  0  0  0  0  0
    5.1610   -2.7350   24.8170 C   0  0  0  0  0  0  0  0  0  0  0  0
    4.4950   -3.5580   25.4770 O   0  0  0  0  0  0  0  0  0  0  0  0
    5.2620   -1.3680   25.2210 N   0  0  0  0  0  0  0  0  0  0  0  0
    5.2700   -1.0940   26.6260 C   0  0  0  0  0  0  0  0  0  0  0  0
    5.9010   -2.3220   27.0750 C   0  0  0  0  0  0  0  0  0  0  0  0
    5.3830   -3.1610   28.0220 C   0  0  0  0  0  0  0  0  0  0  0  0
    6.0510   -4.3020   28.3360 C   0  0  0  0  0  0  0  0  0  0  0  0
    7.2390   -4.5960   27.6950 C   0  0  0  0  0  0  0  0  0  0  0  0
    8.0070   -5.6460   27.8620 C   0  0  0  0  0  0  0  0  0  0  0  0
    8.4210   -6.3990   26.5950 C   0  0  0  0  0  0  0  0  0  0  0  0
    9.2660   -5.2580   26.8490 C   0  0  0  0  0  0  0  0  0  0  0  0
    9.1490   -5.1790   28.2750 C   0  0  0  0  0  0  0  0  0  0  0  0
    7.6970   -3.7090   26.7710 C   0  0  0  0  0  0  0  0  0  0  0  0
    7.0650   -2.5710   26.4390 C   0  0  0  0  0  0  0  0  0  0  0  0
    5.7860   -4.7390   23.6030 C   0  0  0  0  0  0  0  0  0  0  0  0
    6.5110   -5.2740   22.3920 C   0  0  0  0  0  0  0  0  0  0  0  0
  1  2  1  0
  2  3  2  0
  2  4  1  0
  4  5  1  0
  5  6  1  0
  6  7  1  0
  7  8  1  0
  8  9  2  0
  8 10  1  0
 10 11  1  0
 11 12  1  0
 12 13  2  0
 13 14  1  0
 14 15  2  0
 15 16  1  0
 16 17  1  0
 17 18  1  0
 16 19  1  0
 18 19  1  0
 15 20  1  0
 12 21  1  0
 20 21  2  0
  7 22  1  0
  4 23  1  0
 22 23  1  0
M  END
