piperidine-amides-19886-covalent
     RDKit          3D

 22 24  0  0  0  0  0  0  0  0999 V2000
    7.0110   -3.3660   19.3840 C   0  0  0  0  0  0  0  0  0  0  0  0
    6.3780   -4.2530   20.3980 C   0  0  0  0  0  0  0  0  0  0  0  0
    5.4230   -4.9240   20.0030 O   0  0  0  0  0  0  0  0  0  0  0  0
    6.8810   -4.3380   21.7130 N   0  0  0  0  0  0  0  0  0  0  0  0
    6.6990   -5.5380   22.5150 C   0  0  0  0  0  0  0  0  0  0  0  0
    6.0820   -5.2040   23.8550 C   0  0  0  0  0  0  0  0  0  0  0  0
    6.0880   -3.6880   24.0170 C   0  0  0  0  0  0  0  0  0  0  0  0
    5.5260   -3.2390   25.3200 C   0  0  0  0  0  0  0  0  0  0  0  0
    4.8930   -2.1800   25.3230 O   0  0  0  0  0  0  0  0  0  0  0  0
    5.6200   -3.9200   26.5510 N   0  0  0  0  0  0  0  0  0  0  0  0
    6.4130   -3.3110   27.5560 C   0  0  0  0  0  0  0  0  0  0  0  0
    6.7840   -4.4520   28.4850 C   0  0  0  0  0  0  0  0  0  0  0  0
    5.6150   -4.5180   29.3400 N   0  0  0  0  0  0  0  0  0  0  0  0
    5.6000   -5.8700   29.8950 C   0  0  0  0  0  0  0  0  0  0  0  0
    6.5280   -6.6790   30.1470 O   0  0  0  0  0  0  0  0  0  0  0  0
    4.3440   -6.2970   30.1720 C   0  0  0  0  0  0  0  0  0  0  0  0
    4.2670   -7.3530   30.8820 C   0  0  0  0  0  0  0  0  0  0  0  0
    3.8930   -7.7620   29.6260 C   0  0  0  0  0  0  0  0  0  0  0  0
    4.5480   -4.1140   28.6530 C   0  0  0  0  0  0  0  0  0  0  0  0
    4.3690   -4.2740   27.1610 C   0  0  0  0  0  0  0  0  0  0  0  0
    7.3540   -3.0500   23.6430 C   0  0  0  0  0  0  0  0  0  0  0  0
    7.7170   -3.2630   22.2190 C   0  0  0  0  0  0  0  0  0  0  0  0
  1  2  1  0
  2  3  2  0
  2  4  1  0
  4  5  1  0
  5  6  1  0
  6  7  1  0
  7  8  1  0
  8  9  2  0
  8 10  1  0
 10 11  1  0
 11 12  1  0
 12 13  1  0
 13 14  1  0
 14 15  2  0
 14 16  1  0
 16 17  1  0
 16 18  1  0
 17 18  1  0
 13 19  1  0
 10 20  1  0
 19 20  1  0
  7 21  1  0
  4 22  1  0
 21 22  1  0
M  END
