piperidine-amides-29753-covalent
     RDKit          3D

 26 29  0  0  0  0  0  0  0  0999 V2000
    7.1070   -3.3650   19.3880 C   0  0  0  0  0  0  0  0  0  0  0  0
    6.3850   -4.1920   20.3420 C   0  0  0  0  0  0  0  0  0  0  0  0
    5.3820   -4.8150   19.9830 O   0  0  0  0  0  0  0  0  0  0  0  0
    6.8860   -4.3190   21.6870 N   0  0  0  0  0  0  0  0  0  0  0  0
    6.7330   -5.5690   22.4020 C   0  0  0  0  0  0  0  0  0  0  0  0
    6.2550   -5.3100   23.8070 C   0  0  0  0  0  0  0  0  0  0  0  0
    6.0880   -3.8120   23.9070 C   0  0  0  0  0  0  0  0  0  0  0  0
    5.4380   -3.3710   25.1680 C   0  0  0  0  0  0  0  0  0  0  0  0
    4.4010   -2.6900   25.1270 O   0  0  0  0  0  0  0  0  0  0  0  0
    5.9160   -3.6840   26.4540 N   0  0  0  0  0  0  0  0  0  0  0  0
    4.9370   -4.4450   27.1710 C   0  0  0  0  0  0  0  0  0  0  0  0
    5.6380   -5.1410   28.2760 C   0  0  0  0  0  0  0  0  0  0  0  0
    6.5340   -4.4110   28.9610 C   0  0  0  0  0  0  0  0  0  0  0  0
    6.7330   -3.0500   28.7110 C   0  0  2  0  0  0  0  0  0  0  0  0
    6.2800   -2.0910   29.5850 C   0  0  0  0  0  0  0  0  0  0  0  0
    4.9570   -2.0740   30.1700 N   0  0  0  0  0  0  0  0  0  0  0  0
    4.8140   -0.9700   31.0180 C   0  0  0  0  0  0  0  0  0  0  0  0
    3.6500   -0.7230   31.7010 C   0  0  0  0  0  0  0  0  0  0  0  0
    3.5140    0.3690   32.5390 C   0  0  0  0  0  0  0  0  0  0  0  0
    4.5780    1.2610   32.7110 C   0  0  0  0  0  0  0  0  0  0  0  0
    5.8290    1.0090   31.9870 C   0  0  0  0  0  0  0  0  0  0  0  0
    5.8150   -0.1150   31.1900 C   0  0  0  0  0  0  0  0  0  0  0  0
    7.0980   -0.6770   30.2310 S   0  0  0  0  0  0  0  0  0  0  0  0
    6.4140   -2.6270   27.2890 C   0  0  0  0  0  0  0  0  0  0  0  0
    7.4060   -3.1280   23.7050 C   0  0  0  0  0  0  0  0  0  0  0  0
    7.7690   -3.2960   22.2290 C   0  0  0  0  0  0  0  0  0  0  0  0
  1  2  1  0
  2  3  2  0
  2  4  1  0
  4  5  1  0
  5  6  1  0
  6  7  1  0
  7  8  1  0
  8  9  2  0
  8 10  1  0
 10 11  1  0
 11 12  1  0
 12 13  1  0
 13 14  1  0
 14 15  1  1
 15 16  2  0
 16 17  1  0
 17 18  2  0
 18 19  1  0
 19 20  2  0
 20 21  1  0
 17 22  1  0
 21 22  2  0
 15 23  1  0
 22 23  1  0
 10 24  1  0
 14 24  1  0
  7 25  1  0
  4 26  1  0
 25 26  1  0
M  END
