piperidine-amides-30643-covalent
     RDKit          3D

 26 28  0  0  0  0  0  0  0  0999 V2000
    7.0310   -3.3720   19.4230 C   0  0  0  0  0  0  0  0  0  0  0  0
    6.3840   -4.2570   20.3910 C   0  0  0  0  0  0  0  0  0  0  0  0
    5.3970   -4.9070   20.0030 O   0  0  0  0  0  0  0  0  0  0  0  0
    6.8630   -4.4480   21.7140 N   0  0  0  0  0  0  0  0  0  0  0  0
    6.5930   -5.6310   22.4750 C   0  0  0  0  0  0  0  0  0  0  0  0
    5.8040   -5.1640   23.6790 C   0  0  0  0  0  0  0  0  0  0  0  0
    6.2450   -3.8400   24.2750 C   0  0  0  0  0  0  0  0  0  0  0  0
    5.1910   -3.2720   25.1970 C   0  0  0  0  0  0  0  0  0  0  0  0
    4.0870   -2.9360   24.7060 O   0  0  0  0  0  0  0  0  0  0  0  0
    5.3270   -3.0610   26.6090 N   0  0  0  0  0  0  0  0  0  0  0  0
    6.6440   -3.0560   27.1030 C   0  0  0  0  0  0  0  0  0  0  0  0
    6.5600   -4.1650   28.0750 C   0  0  0  0  0  0  0  0  0  0  0  0
    5.1620   -4.2460   28.4940 C   0  0  0  0  0  0  0  0  0  0  0  0
    4.3300   -3.3230   27.6010 C   0  0  2  0  0  0  0  0  0  0  0  0
    3.0030   -3.9560   27.2140 C   0  0  0  0  0  0  0  0  0  0  0  0
    2.4200   -5.1400   27.8720 N   0  0  0  0  0  0  0  0  0  0  0  0
    1.1800   -5.3160   27.1510 C   0  0  0  0  0  0  0  0  0  0  0  0
    0.2910   -6.3180   27.4340 C   0  0  0  0  0  0  0  0  0  0  0  0
   -0.2720   -6.8150   26.4040 O   0  0  0  0  0  0  0  0  0  0  0  0
    0.0110   -6.7510   28.5640 O   0  0  0  0  0  0  0  0  0  0  0  0
   -1.3360   -6.8940   28.8420 C   0  0  0  0  0  0  0  0  0  0  0  0
   -2.1330   -7.9350   28.0880 C   0  0  0  0  0  0  0  0  0  0  0  0
    0.7600   -4.4020   26.0220 C   0  0  0  0  0  0  0  0  0  0  0  0
    2.0000   -3.2490   25.8580 S   0  0  0  0  0  0  0  0  0  0  0  0
    6.6300   -2.8570   23.1370 C   0  0  0  0  0  0  0  0  0  0  0  0
    7.4830   -3.3280   22.4170 C   0  0  0  0  0  0  0  0  0  0  0  0
  1  2  1  0
  2  3  2  0
  2  4  1  0
  4  5  1  0
  5  6  1  0
  6  7  1  0
  7  8  1  0
  8  9  2  0
  8 10  1  0
 10 11  1  0
 11 12  1  0
 12 13  1  0
 10 14  1  0
 13 14  1  0
 14 15  1  6
 15 16  2  0
 16 17  1  0
 17 18  1  0
 18 19  2  0
 18 20  1  0
 20 21  1  0
 21 22  1  0
 17 23  2  0
 15 24  1  0
 23 24  1  0
  7 25  1  0
  4 26  1  0
 25 26  1  0
M  END
