piperidine-amides-12271-covalent
     RDKit          3D

 24 25  0  0  0  0  0  0  0  0999 V2000
    7.0540   -3.2450   19.2630 C   0  0  0  0  0  0  0  0  0  0  0  0
    6.3000   -4.0500   20.2270 C   0  0  0  0  0  0  0  0  0  0  0  0
    5.2590   -4.5990   19.8900 O   0  0  0  0  0  0  0  0  0  0  0  0
    6.7860   -4.2500   21.5590 N   0  0  0  0  0  0  0  0  0  0  0  0
    7.5940   -3.2380   22.1670 C   0  0  0  0  0  0  0  0  0  0  0  0
    6.8020   -2.5540   23.2370 C   0  0  0  0  0  0  0  0  0  0  0  0
    5.9810   -3.6280   23.9280 C   0  0  0  0  0  0  0  0  0  0  0  0
    5.8350   -3.3160   25.3810 C   0  0  0  0  0  0  0  0  0  0  0  0
    4.7280   -3.3570   25.9540 O   0  0  0  0  0  0  0  0  0  0  0  0
    6.9890   -2.9380   26.1240 N   0  0  0  0  0  0  0  0  0  0  0  0
    7.4630   -3.7820   27.2020 C   0  0  0  0  0  0  0  0  0  0  0  0
    8.3620   -4.8490   26.6200 C   0  0  2  0  0  0  0  0  0  0  0  0
    9.1060   -5.6340   27.4740 C   0  0  0  0  0  0  0  0  0  0  0  0
    9.4130   -4.1120   25.7440 C   0  0  0  0  0  0  0  0  0  0  0  0
    8.9570   -3.3560   24.7050 C   0  0  0  0  0  0  0  0  0  0  0  0
    9.8900   -2.6500   23.8640 C   0  0  0  0  0  0  0  0  0  0  0  0
   11.2490   -2.6360   23.9760 C   0  0  0  0  0  0  0  0  0  0  0  0
   11.9440   -1.9120   23.0840 N   0  0  0  0  0  0  0  0  0  0  0  0
   11.3590   -1.9430   21.7800 C   0  0  0  0  0  0  0  0  0  0  0  0
   13.2590   -1.6100   23.1490 C   0  0  0  0  0  0  0  0  0  0  0  0
   11.7420   -3.3840   25.0060 N   0  0  0  0  0  0  0  0  0  0  0  0
   10.7880   -4.1190   25.8760 C   0  0  0  0  0  0  0  0  0  0  0  0
    6.5190   -5.0300   23.6900 C   0  0  0  0  0  0  0  0  0  0  0  0
    6.2750   -5.3450   22.3490 C   0  0  0  0  0  0  0  0  0  0  0  0
  1  2  1  0
  2  3  2  0
  2  4  1  0
  4  5  1  0
  5  6  1  0
  6  7  1  0
  7  8  1  0
  8  9  2  0
  8 10  1  0
 10 11  1  0
 11 12  1  0
 12 13  1  1
 12 14  1  0
 14 15  2  0
 15 16  1  0
 16 17  2  0
 17 18  1  0
 18 19  1  0
 18 20  1  0
 17 21  1  0
 14 22  1  0
 21 22  2  0
  7 23  1  0
  4 24  1  0
 23 24  1  0
M  END
