piperidine-amides-379-covalent
     RDKit          3D

 28 30  0  0  0  0  0  0  0  0999 V2000
    7.1110   -3.3280   19.3950 C   0  0  0  0  0  0  0  0  0  0  0  0
    6.4120   -4.1420   20.3690 C   0  0  0  0  0  0  0  0  0  0  0  0
    5.4220   -4.8420   19.9800 O   0  0  0  0  0  0  0  0  0  0  0  0
    6.8220   -4.1980   21.7170 N   0  0  0  0  0  0  0  0  0  0  0  0
    7.7830   -3.1220   22.1380 C   0  0  0  0  0  0  0  0  0  0  0  0
    7.5860   -3.0150   23.6950 C   0  0  0  0  0  0  0  0  0  0  0  0
    6.1510   -3.3800   23.8640 C   0  0  0  0  0  0  0  0  0  0  0  0
    5.3800   -2.4550   24.9120 C   0  0  0  0  0  0  0  0  0  0  0  0
    5.2800   -1.3410   24.4490 O   0  0  0  0  0  0  0  0  0  0  0  0
    5.0340   -3.0540   25.9670 N   0  0  0  0  0  0  0  0  0  0  0  0
    4.5630   -3.5770   27.1210 C   0  0  0  0  0  0  0  0  0  0  0  0
    4.6120   -4.6830   27.8790 C   0  0  1  0  0  0  0  0  0  0  0  0
    5.9140   -5.0050   27.8060 C   0  0  0  0  0  0  0  0  0  0  0  0
    6.4210   -6.1560   27.1250 C   0  0  0  0  0  0  0  0  0  0  0  0
    7.9250   -6.2450   27.1640 C   0  0  0  0  0  0  0  0  0  0  0  0
    8.6050   -5.2870   27.8120 C   0  0  0  0  0  0  0  0  0  0  0  0
    9.8580   -5.7550   27.6000 F   0  0  0  0  0  0  0  0  0  0  0  0
    8.4030   -4.1230   28.5300 C   0  0  0  0  0  0  0  0  0  0  0  0
    6.9140   -4.1220   28.4260 C   0  0  0  0  0  0  0  0  0  0  0  0
    4.3570   -4.3730   29.2960 N   0  0  0  0  0  0  0  0  0  0  0  0
    4.5080   -5.4950   30.0420 C   0  0  0  0  0  0  0  0  0  0  0  0
    3.6480   -5.6010   31.1190 C   0  0  0  0  0  0  0  0  0  0  0  0
    3.0780   -4.4250   31.6010 N   0  0  0  0  0  0  0  0  0  0  0  0
    3.2520   -4.2250   32.9290 C   0  0  0  0  0  0  0  0  0  0  0  0
    3.0630   -3.3390   30.8210 C   0  0  0  0  0  0  0  0  0  0  0  0
    3.1280   -3.6180   29.4770 C   0  0  0  0  0  0  0  0  0  0  0  0
    5.8360   -4.8230   23.7840 C   0  0  0  0  0  0  0  0  0  0  0  0
    6.4840   -5.3550   22.5360 C   0  0  0  0  0  0  0  0  0  0  0  0
  1  2  1  0
  2  3  2  0
  2  4  1  0
  4  5  1  0
  5  6  1  0
  6  7  1  0
  7  8  1  0
  8  9  2  0
  8 10  1  0
 10 11  1  0
 12 11  1  6
 12 13  1  0
 13 14  2  0
 14 15  1  0
 15 16  2  0
 16 17  1  0
 16 18  1  0
 13 19  1  0
 18 19  2  0
 12 20  1  0
 20 21  1  0
 21 22  1  0
 22 23  1  0
 23 24  1  0
 23 25  1  0
 20 26  1  0
 25 26  1  0
  7 27  1  0
  4 28  1  0
 27 28  1  0
M  END
