piperidine-amides-27331-covalent
     RDKit          3D

 25 27  0  0  0  0  0  0  0  0999 V2000
    7.0110   -3.3620   19.3760 C   0  0  0  0  0  0  0  0  0  0  0  0
    6.3630   -4.2290   20.3660 C   0  0  0  0  0  0  0  0  0  0  0  0
    5.3500   -4.8610   19.9790 O   0  0  0  0  0  0  0  0  0  0  0  0
    6.8900   -4.3650   21.6580 N   0  0  0  0  0  0  0  0  0  0  0  0
    6.6190   -5.5410   22.4450 C   0  0  0  0  0  0  0  0  0  0  0  0
    5.8170   -5.1150   23.6500 C   0  0  0  0  0  0  0  0  0  0  0  0
    6.3610   -3.8650   24.3040 C   0  0  0  0  0  0  0  0  0  0  0  0
    5.3850   -3.3270   25.3080 C   0  0  0  0  0  0  0  0  0  0  0  0
    4.5280   -2.5310   24.8910 O   0  0  0  0  0  0  0  0  0  0  0  0
    5.3460   -3.6550   26.6970 N   0  0  0  0  0  0  0  0  0  0  0  0
    6.4930   -3.4570   27.4950 C   0  0  0  0  0  0  0  0  0  0  0  0
    6.7800   -4.7370   28.2820 C   0  0  0  0  0  0  0  0  0  0  0  0
    5.7830   -5.2880   28.9490 C   0  0  0  0  0  0  0  0  0  0  0  0
    5.8970   -6.4530   29.7420 C   0  0  0  0  0  0  0  0  0  0  0  0
    4.8010   -6.9990   30.4290 C   0  0  0  0  0  0  0  0  0  0  0  0
    3.6140   -6.3520   30.2980 C   0  0  0  0  0  0  0  0  0  0  0  0
    2.2680   -6.2790   30.6170 C   0  0  0  0  0  0  0  0  0  0  0  0
    1.3830   -6.2970   29.6120 F   0  0  0  0  0  0  0  0  0  0  0  0
    1.7800   -7.2800   31.3760 F   0  0  0  0  0  0  0  0  0  0  0  0
    2.0320   -5.1300   31.3320 F   0  0  0  0  0  0  0  0  0  0  0  0
    3.3910   -5.1120   29.4780 C   0  0  0  0  0  0  0  0  0  0  0  0
    4.6190   -4.5800   28.7610 C   0  0  0  0  0  0  0  0  0  0  0  0
    4.5580   -3.3370   27.8800 C   0  0  0  0  0  0  0  0  0  0  0  0
    6.6740   -2.7940   23.2900 C   0  0  0  0  0  0  0  0  0  0  0  0
    7.5690   -3.2790   22.3570 C   0  0  0  0  0  0  0  0  0  0  0  0
  1  2  1  0
  2  3  2  0
  2  4  1  0
  4  5  1  0
  5  6  1  0
  6  7  1  0
  7  8  1  0
  8  9  2  0
  8 10  1  0
 10 11  1  0
 11 12  1  0
 12 13  1  0
 13 14  2  0
 14 15  1  0
 15 16  2  0
 16 17  1  0
 17 18  1  0
 17 19  1  0
 17 20  1  0
 16 21  1  0
 13 22  1  0
 21 22  2  0
 10 23  1  0
 22 23  1  0
  7 24  1  0
  4 25  1  0
 24 25  1  0
M  END
