piperidine-amides-3038-covalent
     RDKit          3D

 23 25  0  0  0  0  0  0  0  0999 V2000
    6.9920   -3.3590   19.3440 C   0  0  0  0  0  0  0  0  0  0  0  0
    6.3400   -4.1880   20.3570 C   0  0  0  0  0  0  0  0  0  0  0  0
    5.4230   -4.9340   20.0070 O   0  0  0  0  0  0  0  0  0  0  0  0
    6.7790   -4.1700   21.7350 N   0  0  0  0  0  0  0  0  0  0  0  0
    7.5420   -3.0520   22.2420 C   0  0  0  0  0  0  0  0  0  0  0  0
    6.9210   -2.5170   23.5100 C   0  0  0  0  0  0  0  0  0  0  0  0
    6.6420   -3.6960   24.4260 C   0  0  0  0  0  0  0  0  0  0  0  0
    5.9120   -3.2310   25.6780 C   0  0  0  0  0  0  0  0  0  0  0  0
    4.6620   -3.2210   25.6950 O   0  0  0  0  0  0  0  0  0  0  0  0
    6.5930   -2.7810   26.8820 N   0  0  0  0  0  0  0  0  0  0  0  0
    6.4600   -1.3680   27.2500 C   0  0  0  0  0  0  0  0  0  0  0  0
    5.9630   -0.6770   26.0150 C   0  0  0  0  0  0  0  0  0  0  0  0
    5.7100    0.6640   25.9700 C   0  0  0  0  0  0  0  0  0  0  0  0
    5.9110    1.4430   27.0830 C   0  0  0  0  0  0  0  0  0  0  0  0
    6.3540    0.9040   28.2340 C   0  0  0  0  0  0  0  0  0  0  0  0
    6.5390    1.7570   29.3520 C   0  0  0  0  0  0  0  0  0  0  0  0
    6.9550    1.3750   30.5240 C   0  0  0  0  0  0  0  0  0  0  0  0
    7.2490    0.0950   30.7590 C   0  0  0  0  0  0  0  0  0  0  0  0
    7.7690   -0.1020   32.4180 Cl  0  0  0  0  0  0  0  0  0  0  0  0
    7.1070   -0.8970   29.6890 N   0  0  0  0  0  0  0  0  0  0  0  0
    6.6610   -0.5650   28.3900 C   0  0  0  0  0  0  0  0  0  0  0  0
    5.9370   -4.8110   23.7890 C   0  0  0  0  0  0  0  0  0  0  0  0
    6.5640   -5.2760   22.6310 C   0  0  0  0  0  0  0  0  0  0  0  0
  1  2  1  0
  2  3  2  0
  2  4  1  0
  4  5  1  0
  5  6  1  0
  6  7  1  0
  7  8  1  0
  8  9  2  0
  8 10  1  0
 10 11  1  0
 11 12  2  0
 12 13  1  0
 13 14  2  0
 14 15  1  0
 15 16  1  0
 16 17  2  0
 17 18  1  0
 18 19  1  0
 18 20  2  0
 11 21  1  0
 15 21  2  0
 20 21  1  0
  7 22  1  0
  4 23  1  0
 22 23  1  0
M  END
