piperidine-amides-28646-covalent
     RDKit          3D

 26 29  0  0  0  0  0  0  0  0999 V2000
    7.0000   -3.3650   19.4070 C   0  0  0  0  0  0  0  0  0  0  0  0
    6.3740   -4.2480   20.3940 C   0  0  0  0  0  0  0  0  0  0  0  0
    5.4200   -4.9480   20.0040 O   0  0  0  0  0  0  0  0  0  0  0  0
    6.8620   -4.3230   21.7330 N   0  0  0  0  0  0  0  0  0  0  0  0
    6.5670   -5.5040   22.5100 C   0  0  0  0  0  0  0  0  0  0  0  0
    6.0300   -5.1470   23.8830 C   0  0  0  0  0  0  0  0  0  0  0  0
    5.9310   -3.6370   23.9450 C   0  0  0  0  0  0  0  0  0  0  0  0
    5.2780   -3.0570   25.1950 C   0  0  0  0  0  0  0  0  0  0  0  0
    4.9290   -1.8960   25.0910 O   0  0  0  0  0  0  0  0  0  0  0  0
    5.0740   -3.7950   26.3640 N   0  0  0  0  0  0  0  0  0  0  0  0
    6.0970   -4.4550   26.9270 C   0  0  0  0  0  0  0  0  0  0  0  0
    5.7000   -5.0360   28.0910 C   0  0  1  0  0  0  0  0  0  0  0  0
    6.6090   -5.4390   29.0240 C   0  0  0  0  0  0  0  0  0  0  0  0
    6.9780   -4.2280   29.2390 O   0  0  0  0  0  0  0  0  0  0  0  0
    6.1520   -3.3070   28.9460 C   0  0  0  0  0  0  0  0  0  0  0  0
    4.7730   -3.8350   28.5760 C   0  0  2  0  0  0  0  0  0  0  0  0
    3.8350   -4.2200   29.7510 C   0  0  0  0  0  0  0  0  0  0  0  0
    3.0600   -3.3270   30.3180 O   0  0  0  0  0  0  0  0  0  0  0  0
    3.7990   -5.5440   30.2430 N   0  0  0  0  0  0  0  0  0  0  0  0
    3.1920   -5.6770   31.5530 C   0  0  0  0  0  0  0  0  0  0  0  0
    2.3930   -6.9500   31.5120 C   0  0  0  0  0  0  0  0  0  0  0  0
    2.5050   -7.3940   30.0480 C   0  0  0  0  0  0  0  0  0  0  0  0
    3.2910   -6.5420   29.3150 C   0  0  0  0  0  0  0  0  0  0  0  0
    4.2050   -3.3090   27.4080 C   0  0  0  0  0  0  0  0  0  0  0  0
    7.2580   -3.0110   23.7020 C   0  0  0  0  0  0  0  0  0  0  0  0
    7.6970   -3.2790   22.2920 C   0  0  0  0  0  0  0  0  0  0  0  0
  1  2  1  0
  2  3  2  0
  2  4  1  0
  4  5  1  0
  5  6  1  0
  6  7  1  0
  7  8  1  0
  8  9  2  0
  8 10  1  0
 10 11  1  0
 12 11  1  6
 12 13  1  0
 13 14  1  0
 14 15  1  0
 12 16  1  0
 15 16  1  0
 16 17  1  1
 17 18  2  0
 17 19  1  0
 19 20  1  0
 20 21  1  0
 21 22  1  0
 19 23  1  0
 22 23  1  0
 10 24  1  0
 16 24  1  0
  7 25  1  0
  4 26  1  0
 25 26  1  0
M  END
