piperidine-amides-19544-covalent
     RDKit          3D

 22 24  0  0  0  0  0  0  0  0999 V2000
    7.0710   -3.4330   19.5530 C   0  0  0  0  0  0  0  0  0  0  0  0
    6.3560   -4.3350   20.4250 C   0  0  0  0  0  0  0  0  0  0  0  0
    5.3220   -4.9140   19.9820 O   0  0  0  0  0  0  0  0  0  0  0  0
    6.8000   -4.6190   21.7240 N   0  0  0  0  0  0  0  0  0  0  0  0
    6.1200   -5.7010   22.4750 C   0  0  0  0  0  0  0  0  0  0  0  0
    6.3610   -5.2460   23.9800 C   0  0  0  0  0  0  0  0  0  0  0  0
    5.9070   -3.8040   24.0510 C   0  0  0  0  0  0  0  0  0  0  0  0
    5.3860   -3.2140   25.4570 C   0  0  0  0  0  0  0  0  0  0  0  0
    4.6540   -2.2700   25.2140 O   0  0  0  0  0  0  0  0  0  0  0  0
    5.8070   -3.8290   26.5060 N   0  0  0  0  0  0  0  0  0  0  0  0
    5.8190   -4.6100   27.6140 C   0  0  0  0  0  0  0  0  0  0  0  0
    6.8460   -5.2160   28.2060 C   0  0  0  0  0  0  0  0  0  0  0  0
    7.8560   -4.5770   27.4980 C   0  0  0  0  0  0  0  0  0  0  0  0
    7.1740   -3.3650   26.9470 C   0  0  1  0  0  0  0  0  0  0  0  0
    7.9420   -3.1370   25.6460 C   0  0  0  0  0  0  0  0  0  0  0  0
    7.8490   -1.7420   25.2590 N   0  0  0  0  0  0  0  0  0  0  0  0
    8.5930   -1.9530   24.1260 C   0  0  0  0  0  0  0  0  0  0  0  0
    9.1690   -1.3890   22.9760 C   0  0  0  0  0  0  0  0  0  0  0  0
    9.0830   -3.3010   23.8340 C   0  0  0  0  0  0  0  0  0  0  0  0
    8.6790   -4.0400   24.7940 O   0  0  0  0  0  0  0  0  0  0  0  0
    6.6380   -2.8910   23.1090 C   0  0  0  0  0  0  0  0  0  0  0  0
    7.5490   -3.6430   22.4330 C   0  0  0  0  0  0  0  0  0  0  0  0
  1  2  1  0
  2  3  2  0
  2  4  1  0
  4  5  1  0
  5  6  1  0
  6  7  1  0
  7  8  1  0
  8  9  2  0
  8 10  1  0
 10 11  1  0
 11 12  1  0
 12 13  1  0
 10 14  1  0
 13 14  1  0
 14 15  1  6
 15 16  2  0
 16 17  1  0
 17 18  1  0
 17 19  2  0
 15 20  1  0
 19 20  1  0
  7 21  1  0
  4 22  1  0
 21 22  1  0
M  END
