piperidine-amides-10427-covalent
     RDKit          3D

 24 26  0  0  0  0  0  0  0  0999 V2000
    7.1110   -3.3330   19.2780 C   0  0  0  0  0  0  0  0  0  0  0  0
    6.3720   -4.0980   20.2800 C   0  0  0  0  0  0  0  0  0  0  0  0
    5.2910   -4.6260   19.9140 O   0  0  0  0  0  0  0  0  0  0  0  0
    6.9220   -4.2560   21.5500 N   0  0  0  0  0  0  0  0  0  0  0  0
    7.7180   -3.2210   22.1650 C   0  0  0  0  0  0  0  0  0  0  0  0
    6.9640   -2.7180   23.3510 C   0  0  0  0  0  0  0  0  0  0  0  0
    6.5400   -3.8580   24.2190 C   0  0  0  0  0  0  0  0  0  0  0  0
    5.8180   -3.3090   25.3840 C   0  0  0  0  0  0  0  0  0  0  0  0
    4.5790   -3.1490   25.2990 O   0  0  0  0  0  0  0  0  0  0  0  0
    6.4700   -2.9540   26.5750 N   0  0  0  0  0  0  0  0  0  0  0  0
    6.3710   -1.6350   27.1490 C   0  0  0  0  0  0  0  0  0  0  0  0
    7.0080   -1.5000   28.5320 C   0  0  0  0  0  0  0  0  0  0  0  0
    7.0070   -0.3210   29.2430 C   0  0  0  0  0  0  0  0  0  0  0  0
    6.4050    0.7970   28.6920 C   0  0  0  0  0  0  0  0  0  0  0  0
    6.2870    2.0120   29.2020 N   0  0  0  0  0  0  0  0  0  0  0  0
    5.6200    2.7170   28.2660 C   0  0  0  0  0  0  0  0  0  0  0  0
    5.2400    4.0480   28.3090 C   0  0  0  0  0  0  0  0  0  0  0  0
    6.3110    4.7920   28.8210 F   0  0  0  0  0  0  0  0  0  0  0  0
    4.1350    4.2200   29.1180 F   0  0  0  0  0  0  0  0  0  0  0  0
    5.2530    2.0330   27.0840 O   0  0  0  0  0  0  0  0  0  0  0  0
    5.7730    0.7350   27.3550 C   0  0  0  0  0  0  0  0  0  0  0  0
    5.7550   -0.5290   26.5450 C   0  0  0  0  0  0  0  0  0  0  0  0
    5.6660   -4.8250   23.4910 C   0  0  0  0  0  0  0  0  0  0  0  0
    6.4220   -5.3960   22.3160 C   0  0  0  0  0  0  0  0  0  0  0  0
  1  2  1  0
  2  3  2  0
  2  4  1  0
  4  5  1  0
  5  6  1  0
  6  7  1  0
  7  8  1  0
  8  9  2  0
  8 10  1  0
 10 11  1  0
 11 12  2  0
 12 13  1  0
 13 14  2  0
 14 15  1  0
 15 16  2  0
 16 17  1  0
 17 18  1  0
 17 19  1  0
 16 20  1  0
 14 21  1  0
 20 21  1  0
 11 22  1  0
 21 22  2  0
  7 23  1  0
  4 24  1  0
 23 24  1  0
M  END
