piperidine-amides-24545-covalent
     RDKit          3D

 24 26  0  0  0  0  0  0  0  0999 V2000
    7.0670   -3.3050   19.2880 C   0  0  0  0  0  0  0  0  0  0  0  0
    6.3690   -4.1230   20.2920 C   0  0  0  0  0  0  0  0  0  0  0  0
    5.3580   -4.7820   19.9660 O   0  0  0  0  0  0  0  0  0  0  0  0
    6.8430   -4.2130   21.6090 N   0  0  0  0  0  0  0  0  0  0  0  0
    6.6230   -5.4410   22.3500 C   0  0  0  0  0  0  0  0  0  0  0  0
    5.9950   -5.0480   23.6960 C   0  0  0  0  0  0  0  0  0  0  0  0
    6.0670   -3.5430   23.7470 C   0  0  0  0  0  0  0  0  0  0  0  0
    5.5440   -2.9760   25.0060 C   0  0  0  0  0  0  0  0  0  0  0  0
    5.2340   -3.7340   25.9470 O   0  0  0  0  0  0  0  0  0  0  0  0
    5.3950   -1.5720   25.0770 N   0  0  0  0  0  0  0  0  0  0  0  0
    6.5170   -0.7910   25.5430 C   0  0  0  0  0  0  0  0  0  0  0  0
    6.2370    0.1320   24.4800 C   0  0  0  0  0  0  0  0  0  0  0  0
    5.9900    1.4830   24.9680 N   0  0  0  0  0  0  0  0  0  0  0  0
    5.1990    1.7750   26.1430 C   0  0  0  0  0  0  0  0  0  0  0  0
    5.5820    3.0710   26.3710 C   0  0  0  0  0  0  0  0  0  0  0  0
    6.9190    3.1220   26.3950 N   0  0  0  0  0  0  0  0  0  0  0  0
    7.6840    3.5690   27.5480 C   0  0  0  0  0  0  0  0  0  0  0  0
    8.7810    4.3660   27.3070 C   0  0  0  0  0  0  0  0  0  0  0  0
    7.5100    3.3260   28.8700 O   0  0  0  0  0  0  0  0  0  0  0  0
    7.4340    3.3890   25.1760 C   0  0  0  0  0  0  0  0  0  0  0  0
    6.5830    2.5560   24.2430 C   0  0  0  0  0  0  0  0  0  0  0  0
    5.0870   -0.4490   24.0900 C   0  0  0  0  0  0  0  0  0  0  0  0
    7.4820   -3.0970   23.5220 C   0  0  0  0  0  0  0  0  0  0  0  0
    7.7320   -3.2050   22.1540 C   0  0  0  0  0  0  0  0  0  0  0  0
  1  2  1  0
  2  3  2  0
  2  4  1  0
  4  5  1  0
  5  6  1  0
  6  7  1  0
  7  8  1  0
  8  9  2  0
  8 10  1  0
 10 11  1  0
 11 12  1  0
 12 13  1  0
 13 14  1  0
 14 15  1  0
 15 16  1  0
 16 17  1  0
 17 18  1  0
 17 19  2  0
 16 20  1  0
 13 21  1  0
 20 21  1  0
 10 22  1  0
 12 22  1  0
  7 23  1  0
  4 24  1  0
 23 24  1  0
M  END
