piperidine-amides-27762-covalent
     RDKit          3D

 24 26  0  0  0  0  0  0  0  0999 V2000
    7.0530   -3.3840   19.3310 C   0  0  0  0  0  0  0  0  0  0  0  0
    6.4280   -4.2540   20.3520 C   0  0  0  0  0  0  0  0  0  0  0  0
    5.3860   -4.8440   19.9890 O   0  0  0  0  0  0  0  0  0  0  0  0
    7.0200   -4.4400   21.6180 N   0  0  0  0  0  0  0  0  0  0  0  0
    6.6640   -5.5540   22.4310 C   0  0  0  0  0  0  0  0  0  0  0  0
    6.4200   -5.1610   23.8200 C   0  0  0  0  0  0  0  0  0  0  0  0
    5.9760   -3.7560   23.9770 C   0  0  0  0  0  0  0  0  0  0  0  0
    5.6600   -3.3230   25.3660 C   0  0  0  0  0  0  0  0  0  0  0  0
    4.7950   -2.4410   25.4650 O   0  0  0  0  0  0  0  0  0  0  0  0
    6.2340   -3.8360   26.5480 N   0  0  0  0  0  0  0  0  0  0  0  0
    6.9530   -5.1380   26.5590 C   0  0  0  0  0  0  0  0  0  0  0  0
    7.1030   -5.4700   27.9660 C   0  0  0  0  0  0  0  0  0  0  0  0
    6.4870   -4.4040   28.6930 C   0  0  0  0  0  0  0  0  0  0  0  0
    5.7310   -3.5370   27.9250 C   0  0  2  0  0  0  0  0  0  0  0  0
    4.3470   -3.6080   27.9260 C   0  0  0  0  0  0  0  0  0  0  0  0
    3.7090   -3.5410   29.2200 N   0  0  0  0  0  0  0  0  0  0  0  0
    3.7040   -2.4400   30.0110 C   0  0  0  0  0  0  0  0  0  0  0  0
    2.4020   -2.1820   30.4370 C   0  0  0  0  0  0  0  0  0  0  0  0
    1.3560   -3.0420   30.1710 C   0  0  0  0  0  0  0  0  0  0  0  0
    2.1570   -4.1760   29.2210 S   0  0  0  0  0  0  0  0  0  0  0  0
    1.5850   -4.1130   27.8580 O   0  0  0  0  0  0  0  0  0  0  0  0
    2.1180   -5.5080   29.8660 O   0  0  0  0  0  0  0  0  0  0  0  0
    6.8770   -2.7670   23.2800 C   0  0  0  0  0  0  0  0  0  0  0  0
    7.7770   -3.4080   22.3040 C   0  0  0  0  0  0  0  0  0  0  0  0
  1  2  1  0
  2  3  2  0
  2  4  1  0
  4  5  1  0
  5  6  1  0
  6  7  1  0
  7  8  1  0
  8  9  2  0
  8 10  1  0
 10 11  1  0
 11 12  1  0
 12 13  1  0
 10 14  1  0
 13 14  1  0
 14 15  1  6
 15 16  1  0
 16 17  1  0
 17 18  1  0
 18 19  1  0
 20 16  1  0
 19 20  1  0
 20 21  2  0
 20 22  2  0
  7 23  1  0
  4 24  1  0
 23 24  1  0
M  END
