piperidine-amides-12135-covalent
     RDKit          3D

 25 27  0  0  0  0  0  0  0  0999 V2000
    7.0070   -3.3670   19.3120 C   0  0  0  0  0  0  0  0  0  0  0  0
    6.3170   -4.2240   20.2740 C   0  0  0  0  0  0  0  0  0  0  0  0
    5.2910   -4.8020   19.9530 O   0  0  0  0  0  0  0  0  0  0  0  0
    6.8640   -4.4480   21.5800 N   0  0  0  0  0  0  0  0  0  0  0  0
    6.4910   -5.6200   22.3370 C   0  0  0  0  0  0  0  0  0  0  0  0
    5.6920   -5.2450   23.5640 C   0  0  0  0  0  0  0  0  0  0  0  0
    6.4360   -4.1530   24.3190 C   0  0  0  0  0  0  0  0  0  0  0  0
    5.6410   -3.6380   25.4720 C   0  0  0  0  0  0  0  0  0  0  0  0
    4.3900   -3.5650   25.4840 O   0  0  0  0  0  0  0  0  0  0  0  0
    6.3370   -3.1870   26.6200 N   0  0  0  0  0  0  0  0  0  0  0  0
    6.7400   -1.8000   26.6760 C   0  0  0  0  0  0  0  0  0  0  0  0
    7.6640   -1.7990   25.4610 C   0  0  0  0  0  0  0  0  0  0  0  0
    8.7010   -2.7380   25.3520 C   0  0  0  0  0  0  0  0  0  0  0  0
    9.5760   -2.7550   24.2550 C   0  0  0  0  0  0  0  0  0  0  0  0
    9.4620   -1.8570   23.2350 C   0  0  0  0  0  0  0  0  0  0  0  0
    8.3880   -0.9120   23.3720 C   0  0  0  0  0  0  0  0  0  0  0  0
    8.3180   -0.0330   22.3240 F   0  0  0  0  0  0  0  0  0  0  0  0
    7.5050   -0.8620   24.4300 C   0  0  0  0  0  0  0  0  0  0  0  0
    5.7970   -0.7860   26.5830 C   0  0  0  0  0  0  0  0  0  0  0  0
    5.9240    0.4400   27.2360 C   0  0  0  0  0  0  0  0  0  0  0  0
    6.3220    0.3130   28.6270 C   0  0  0  0  0  0  0  0  0  0  0  0
    6.8950   -0.8950   28.9770 C   0  0  0  0  0  0  0  0  0  0  0  0
    7.4360   -1.6400   27.9110 C   0  0  0  0  0  0  0  0  0  0  0  0
    6.6750   -2.9940   23.3940 C   0  0  0  0  0  0  0  0  0  0  0  0
    7.5870   -3.4170   22.2570 C   0  0  0  0  0  0  0  0  0  0  0  0
  1  2  1  0
  2  3  2  0
  2  4  1  0
  4  5  1  0
  5  6  1  0
  6  7  1  0
  7  8  1  0
  8  9  2  0
  8 10  1  0
 11 10  1  0
 11 12  1  0
 12 13  2  0
 13 14  1  0
 14 15  2  0
 15 16  1  0
 16 17  1  0
 12 18  1  0
 16 18  2  0
 11 19  1  0
 19 20  1  0
 20 21  1  0
 21 22  1  0
 11 23  1  0
 22 23  1  0
  7 24  1  0
  4 25  1  0
 24 25  1  0
M  END
