piperidine-amides-499-covalent
     RDKit          3D

 27 30  0  0  0  0  0  0  0  0999 V2000
    7.0820   -3.3730   19.2760 C   0  0  0  0  0  0  0  0  0  0  0  0
    6.3500   -4.0720   20.3050 C   0  0  0  0  0  0  0  0  0  0  0  0
    5.3040   -4.6930   19.9400 O   0  0  0  0  0  0  0  0  0  0  0  0
    6.7610   -4.1510   21.6520 N   0  0  0  0  0  0  0  0  0  0  0  0
    7.5950   -3.0510   22.2080 C   0  0  0  0  0  0  0  0  0  0  0  0
    6.7140   -2.6020   23.4450 C   0  0  0  0  0  0  0  0  0  0  0  0
    6.6120   -3.8480   24.2820 C   0  0  0  0  0  0  0  0  0  0  0  0
    5.9510   -3.6570   25.7280 C   0  0  0  0  0  0  0  0  0  0  0  0
    5.2890   -4.6420   25.9860 O   0  0  0  0  0  0  0  0  0  0  0  0
    6.2180   -2.5370   26.2680 N   0  0  0  0  0  0  0  0  0  0  0  0
    6.2350   -1.3130   26.8680 C   0  0  0  0  0  0  0  0  0  0  0  0
    6.1200   -0.0110   26.4450 C   0  0  0  0  0  0  0  0  0  0  0  0
    6.1420    1.1450   27.2950 C   0  0  0  0  0  0  0  0  0  0  0  0
    6.2810    1.2030   28.7800 C   0  0  0  0  0  0  0  0  0  0  0  0
    6.3910   -0.2570   29.1660 C   0  0  0  0  0  0  0  0  0  0  0  0
    6.4590   -0.1740   30.5850 C   0  0  0  0  0  0  0  0  0  0  0  0
    5.3050   -0.4400   31.3840 N   0  0  0  0  0  0  0  0  0  0  0  0
    5.5820   -0.2820   32.6610 N   0  0  0  0  0  0  0  0  0  0  0  0
    6.9580    0.0920   32.5950 C   0  0  0  0  0  0  0  0  0  0  0  0
    7.7290    0.2220   31.3480 C   0  0  0  0  0  0  0  0  0  0  0  0
    9.1870    0.6170   31.1570 C   0  0  0  0  0  0  0  0  0  0  0  0
    9.7470    0.9460   32.3770 C   0  0  0  0  0  0  0  0  0  0  0  0
    8.9470    1.0030   33.5380 C   0  0  0  0  0  0  0  0  0  0  0  0
    7.7110    0.3700   33.6910 C   0  0  0  0  0  0  0  0  0  0  0  0
    6.3910   -1.4090   28.3770 C   0  0  0  0  0  0  0  0  0  0  0  0
    5.9990   -5.0580   23.6580 C   0  0  0  0  0  0  0  0  0  0  0  0
    6.6340   -5.3990   22.3510 C   0  0  0  0  0  0  0  0  0  0  0  0
  1  2  1  0
  2  3  2  0
  2  4  1  0
  4  5  1  0
  5  6  1  0
  6  7  1  0
  7  8  1  0
  8  9  2  0
  8 10  1  0
 10 11  1  0
 11 12  2  0
 12 13  1  0
 13 14  2  0
 14 15  1  0
 15 16  1  0
 16 17  1  0
 17 18  1  0
 18 19  2  0
 16 20  2  0
 19 20  1  0
 20 21  1  0
 21 22  1  0
 22 23  1  0
 19 24  1  0
 23 24  1  0
 11 25  1  0
 15 25  2  0
  7 26  1  0
  4 27  1  0
 26 27  1  0
M  END
