piperidine-amides-17264-covalent
     RDKit          3D

 20 20  0  0  0  0  0  0  0  0999 V2000
    7.1460   -3.3220   19.2190 C   0  0  0  0  0  0  0  0  0  0  0  0
    6.3970   -4.0610   20.2420 C   0  0  0  0  0  0  0  0  0  0  0  0
    5.2980   -4.5550   19.8960 O   0  0  0  0  0  0  0  0  0  0  0  0
    6.9420   -4.2580   21.5340 N   0  0  0  0  0  0  0  0  0  0  0  0
    7.4960   -3.1200   22.1630 C   0  0  0  0  0  0  0  0  0  0  0  0
    6.8170   -2.7850   23.4020 C   0  0  0  0  0  0  0  0  0  0  0  0
    6.4970   -3.9430   24.2690 C   0  0  0  0  0  0  0  0  0  0  0  0
    5.7830   -3.5010   25.5100 C   0  0  0  0  0  0  0  0  0  0  0  0
    4.5960   -3.1340   25.4120 O   0  0  0  0  0  0  0  0  0  0  0  0
    6.3970   -3.4780   26.7820 N   0  0  0  0  0  0  0  0  0  0  0  0
    6.2610   -2.4490   27.7410 C   0  0  0  0  0  0  0  0  0  0  0  0
    6.3310   -1.0530   27.3490 C   0  0  0  0  0  0  0  0  0  0  0  0
    6.5010   -0.2300   28.6400 C   0  0  0  0  0  0  0  0  0  0  0  0
    7.3080   -0.8270   29.5870 C   0  0  0  0  0  0  0  0  0  0  0  0
    6.8660   -4.7470   27.3750 C   0  0  2  0  0  0  0  0  0  0  0  0
    7.5670   -5.5300   26.3240 C   0  0  0  0  0  0  0  0  0  0  0  0
    5.7910   -5.7100   27.8970 C   0  0  0  0  0  0  0  0  0  0  0  0
    6.1330   -6.6270   29.0450 C   0  0  0  0  0  0  0  0  0  0  0  0
    5.7090   -4.9900   23.5020 C   0  0  0  0  0  0  0  0  0  0  0  0
    6.5520   -5.4120   22.2850 C   0  0  0  0  0  0  0  0  0  0  0  0
  1  2  1  0
  2  3  2  0
  2  4  1  0
  4  5  1  0
  5  6  1  0
  6  7  1  0
  7  8  1  0
  8  9  2  0
  8 10  1  0
 10 11  1  0
 11 12  1  0
 12 13  1  0
 13 14  1  0
 10 15  1  0
 15 16  1  6
 15 17  1  0
 17 18  1  0
  7 19  1  0
  4 20  1  0
 19 20  1  0
M  END
