piperidine-amides-5310-covalent
     RDKit          3D

 21 22  0  0  0  0  0  0  0  0999 V2000
    7.0810   -3.2850   19.2310 C   0  0  0  0  0  0  0  0  0  0  0  0
    6.3680   -4.0550   20.2800 C   0  0  0  0  0  0  0  0  0  0  0  0
    5.3100   -4.6070   19.9150 O   0  0  0  0  0  0  0  0  0  0  0  0
    6.8850   -4.1990   21.5870 N   0  0  0  0  0  0  0  0  0  0  0  0
    7.6650   -3.1500   22.1760 C   0  0  0  0  0  0  0  0  0  0  0  0
    7.2860   -2.8810   23.5570 C   0  0  0  0  0  0  0  0  0  0  0  0
    6.0430   -3.5800   23.9250 C   0  0  0  0  0  0  0  0  0  0  0  0
    5.6300   -3.3040   25.3250 C   0  0  0  0  0  0  0  0  0  0  0  0
    4.4370   -3.5060   25.6130 O   0  0  0  0  0  0  0  0  0  0  0  0
    6.5160   -2.8230   26.3070 N   0  0  0  0  0  0  0  0  0  0  0  0
    6.6190   -1.3860   26.6590 C   0  0  0  0  0  0  0  0  0  0  0  0
    5.4370   -0.9030   27.4360 C   0  0  0  0  0  0  0  0  0  0  0  0
    5.1230    0.4310   27.8410 C   0  0  0  0  0  0  0  0  0  0  0  0
    3.9850    0.5050   28.5290 C   0  0  0  0  0  0  0  0  0  0  0  0
    3.4320    1.6600   29.0510 C   0  0  0  0  0  0  0  0  0  0  0  0
    2.1290    1.6050   29.0120 O   0  0  0  0  0  0  0  0  0  0  0  0
    1.2490    1.6140   30.0820 C   0  0  0  0  0  0  0  0  0  0  0  0
    3.4660   -0.7460   28.6290 O   0  0  0  0  0  0  0  0  0  0  0  0
    4.2990   -1.6020   27.9960 N   0  0  0  0  0  0  0  0  0  0  0  0
    5.9830   -5.0460   23.5890 C   0  0  0  0  0  0  0  0  0  0  0  0
    6.6500   -5.3510   22.4240 C   0  0  0  0  0  0  0  0  0  0  0  0
  1  2  1  0
  2  3  2  0
  2  4  1  0
  4  5  1  0
  5  6  1  0
  6  7  1  0
  7  8  1  0
  8  9  2  0
  8 10  1  0
 10 11  1  0
 11 12  1  0
 12 13  1  0
 13 14  2  0
 14 15  1  0
 15 16  1  0
 16 17  1  0
 14 18  1  0
 12 19  2  0
 18 19  1  0
  7 20  1  0
  4 21  1  0
 20 21  1  0
M  END
