piperidine-amides-24511-covalent
     RDKit          3D

 24 26  0  0  0  0  0  0  0  0999 V2000
    6.9880   -3.3330   19.3640 C   0  0  0  0  0  0  0  0  0  0  0  0
    6.3180   -4.2270   20.3270 C   0  0  0  0  0  0  0  0  0  0  0  0
    5.3360   -4.9060   19.9750 O   0  0  0  0  0  0  0  0  0  0  0  0
    6.7870   -4.3610   21.6360 N   0  0  0  0  0  0  0  0  0  0  0  0
    6.6350   -5.6270   22.3240 C   0  0  0  0  0  0  0  0  0  0  0  0
    5.8810   -5.3650   23.6410 C   0  0  0  0  0  0  0  0  0  0  0  0
    5.8790   -3.8700   23.8400 C   0  0  0  0  0  0  0  0  0  0  0  0
    5.3550   -3.4620   25.1690 C   0  0  0  0  0  0  0  0  0  0  0  0
    4.5570   -2.5070   25.2100 O   0  0  0  0  0  0  0  0  0  0  0  0
    5.7340   -4.1270   26.3580 N   0  0  0  0  0  0  0  0  0  0  0  0
    5.5510   -3.4590   27.6240 C   0  0  0  0  0  0  0  0  0  0  0  0
    5.3920   -4.4910   28.7370 C   0  0  0  0  0  0  0  0  0  0  0  0
    6.3130   -5.5000   28.9170 C   0  0  0  0  0  0  0  0  0  0  0  0
    5.9030   -6.6330   29.5970 C   0  0  0  0  0  0  0  0  0  0  0  0
    4.7730   -6.3880   30.4220 N   0  0  0  0  0  0  0  0  0  0  0  0
    3.4890   -6.5140   29.9690 C   0  0  0  0  0  0  0  0  0  0  0  0
    3.0250   -7.4160   30.8870 C   0  0  0  0  0  0  0  0  0  0  0  0
    3.8760   -7.7250   31.8830 N   0  0  0  0  0  0  0  0  0  0  0  0
    4.9940   -7.0030   31.6070 C   0  0  0  0  0  0  0  0  0  0  0  0
    5.9850   -6.9630   32.3540 O   0  0  0  0  0  0  0  0  0  0  0  0
    6.8440   -5.7940   27.7010 C   0  0  0  0  0  0  0  0  0  0  0  0
    6.9480   -4.5580   26.9140 C   0  0  0  0  0  0  0  0  0  0  0  0
    7.2680   -3.3580   23.6360 C   0  0  0  0  0  0  0  0  0  0  0  0
    7.5320   -3.2970   22.2680 C   0  0  0  0  0  0  0  0  0  0  0  0
  1  2  1  0
  2  3  2  0
  2  4  1  0
  4  5  1  0
  5  6  1  0
  6  7  1  0
  7  8  1  0
  8  9  2  0
  8 10  1  0
 10 11  1  0
 11 12  1  0
 12 13  1  0
 13 14  1  0
 14 15  1  0
 15 16  1  0
 16 17  1  0
 17 18  1  0
 15 19  1  0
 18 19  1  0
 19 20  2  0
 13 21  1  0
 10 22  1  0
 21 22  1  0
  7 23  1  0
  4 24  1  0
 23 24  1  0
M  END
