piperidine-amides-35540-covalent
     RDKit          3D

 35 38  0  0  0  0  0  0  0  0999 V2000
    7.1820   -3.3620   19.2900 C   0  0  0  0  0  0  0  0  0  0  0  0
    6.4670   -4.1720   20.3010 C   0  0  0  0  0  0  0  0  0  0  0  0
    5.3940   -4.6740   19.9530 O   0  0  0  0  0  0  0  0  0  0  0  0
    7.0540   -4.3880   21.5570 N   0  0  0  0  0  0  0  0  0  0  0  0
    6.6810   -5.4940   22.3880 C   0  0  0  0  0  0  0  0  0  0  0  0
    6.0930   -4.9650   23.6690 C   0  0  0  0  0  0  0  0  0  0  0  0
    6.6730   -3.5840   24.0500 C   0  0  0  0  0  0  0  0  0  0  0  0
    5.6740   -2.9040   24.8660 C   0  0  0  0  0  0  0  0  0  0  0  0
    4.8620   -2.1510   24.3340 O   0  0  0  0  0  0  0  0  0  0  0  0
    5.6040   -3.1110   26.2180 N   0  0  0  0  0  0  0  0  0  0  0  0
    5.5540   -4.4440   26.5320 C   0  0  0  0  0  0  0  0  0  0  0  0
    5.6330   -5.7420   27.3080 C   0  0  0  0  0  0  0  0  0  0  0  0
    5.9410   -6.1190   28.5120 C   0  0  0  0  0  0  0  0  0  0  0  0
    5.8830   -7.3490   29.0390 C   0  0  0  0  0  0  0  0  0  0  0  0
    6.3710   -5.1640   29.4170 C   0  0  0  0  0  0  0  0  0  0  0  0
    6.4630   -3.7670   28.9970 C   0  0  0  0  0  0  0  0  0  0  0  0
    6.0770   -3.4320   27.6410 C   0  0  0  0  0  0  0  0  0  0  0  0
    6.3120   -1.7220   27.5370 S   0  0  0  0  0  0  0  0  0  0  0  0
    7.2760   -1.4440   26.4480 O   0  0  0  0  0  0  0  0  0  0  0  0
    6.7140   -1.2190   28.8970 O   0  0  0  0  0  0  0  0  0  0  0  0
    4.7700   -1.1880   27.2030 N   0  0  0  0  0  0  0  0  0  0  0  0
    4.4240   -2.5120   26.8920 C   0  0  1  0  0  0  0  0  0  0  0  0
    3.0340   -2.8020   26.4150 C   0  0  0  0  0  0  0  0  0  0  0  0
    2.3140   -1.6210   26.5650 O   0  0  0  0  0  0  0  0  0  0  0  0
    2.4970   -3.9700   25.9470 N   0  0  0  0  0  0  0  0  0  0  0  0
    1.1250   -3.9690   25.4930 C   0  0  0  0  0  0  0  0  0  0  0  0
    0.0960   -2.9260   25.8820 C   0  0  0  0  0  0  0  0  0  0  0  0
   -1.2910   -2.9930   25.3650 C   0  0  0  0  0  0  0  0  0  0  0  0
   -1.6500   -4.1300   24.4440 C   0  0  0  0  0  0  0  0  0  0  0  0
   -0.6980   -5.0760   24.1030 C   0  0  0  0  0  0  0  0  0  0  0  0
   -0.9760   -6.2420   23.1920 C   0  0  0  0  0  0  0  0  0  0  0  0
   -0.3210   -6.1650   21.8130 C   0  0  0  0  0  0  0  0  0  0  0  0
    0.7140   -4.9730   24.6500 C   0  0  0  0  0  0  0  0  0  0  0  0
    7.0560   -2.6080   22.9840 C   0  0  0  0  0  0  0  0  0  0  0  0
    7.9630   -3.3900   22.0780 C   0  0  0  0  0  0  0  0  0  0  0  0
  1  2  1  0
  2  3  2  0
  2  4  1  0
  4  5  1  0
  5  6  1  0
  6  7  1  0
  7  8  1  0
  8  9  2  0
  8 10  1  0
 10 11  1  0
 11 12  2  0
 12 13  1  0
 13 14  1  0
 13 15  2  0
 15 16  1  0
 11 17  1  0
 16 17  2  0
 17 18  1  0
 18 19  2  0
 18 20  2  0
 18 21  1  0
 10 22  1  0
 21 22  1  0
 22 23  1  6
 23 24  2  0
 23 25  1  0
 25 26  1  0
 26 27  2  0
 27 28  1  0
 28 29  2  0
 29 30  1  0
 30 31  1  0
 31 32  1  0
 26 33  1  0
 30 33  2  0
  7 34  1  0
  4 35  1  0
 34 35  1  0
M  END
