piperidine-amides-34358-covalent
     RDKit          3D

 29 31  0  0  0  0  0  0  0  0999 V2000
    7.0340   -3.3640   19.3960 C   0  0  0  0  0  0  0  0  0  0  0  0
    6.3290   -4.2340   20.3520 C   0  0  0  0  0  0  0  0  0  0  0  0
    5.3440   -4.9010   19.9800 O   0  0  0  0  0  0  0  0  0  0  0  0
    6.7760   -4.3620   21.6710 N   0  0  0  0  0  0  0  0  0  0  0  0
    6.6220   -5.6390   22.3500 C   0  0  0  0  0  0  0  0  0  0  0  0
    6.0060   -5.3930   23.7440 C   0  0  0  0  0  0  0  0  0  0  0  0
    5.8060   -3.9090   23.8720 C   0  0  0  0  0  0  0  0  0  0  0  0
    5.2150   -3.4740   25.1660 C   0  0  0  0  0  0  0  0  0  0  0  0
    4.4630   -2.4860   25.1320 O   0  0  0  0  0  0  0  0  0  0  0  0
    5.4680   -4.1300   26.3980 N   0  0  0  0  0  0  0  0  0  0  0  0
    6.8250   -4.2690   26.7500 C   0  0  0  0  0  0  0  0  0  0  0  0
    6.8720   -5.0750   28.0020 C   0  0  0  0  0  0  0  0  0  0  0  0
    5.7300   -4.7890   28.6010 C   0  0  0  0  0  0  0  0  0  0  0  0
    5.0840   -3.8630   27.8130 C   0  0  1  0  0  0  0  0  0  0  0  0
    5.3650   -2.4980   27.9480 C   0  0  0  0  0  0  0  0  0  0  0  0
    4.8630   -1.9060   29.0630 O   0  0  0  0  0  0  0  0  0  0  0  0
    3.5280   -1.8140   29.3670 C   0  0  0  0  0  0  0  0  0  0  0  0
    2.6220   -2.0930   28.1810 C   0  0  0  0  0  0  0  0  0  0  0  0
    1.2350   -1.9200   28.8280 C   0  0  0  0  0  0  0  0  0  0  0  0
    0.6110   -1.5850   30.1750 C   0  0  0  0  0  0  0  0  0  0  0  0
   -1.1910   -1.5700   30.1610 S   0  0  0  0  0  0  0  0  0  0  0  0
   -1.7470    0.0670   30.0620 N   0  0  0  0  0  0  0  0  0  0  0  0
   -1.7290   -2.2040   31.4130 O   0  0  0  0  0  0  0  0  0  0  0  0
   -1.6230   -2.3650   28.9700 O   0  0  0  0  0  0  0  0  0  0  0  0
    1.7870   -1.3940   31.0070 C   0  0  0  0  0  0  0  0  0  0  0  0
    3.1110   -1.4940   30.6600 C   0  0  0  0  0  0  0  0  0  0  0  0
    4.0600   -1.2700   31.6180 F   0  0  0  0  0  0  0  0  0  0  0  0
    7.1720   -3.2730   23.7220 C   0  0  0  0  0  0  0  0  0  0  0  0
    7.5800   -3.3250   22.2820 C   0  0  0  0  0  0  0  0  0  0  0  0
  1  2  1  0
  2  3  2  0
  2  4  1  0
  4  5  1  0
  5  6  1  0
  6  7  1  0
  7  8  1  0
  8  9  2  0
  8 10  1  0
 10 11  1  0
 11 12  1  0
 12 13  1  0
 10 14  1  0
 13 14  1  0
 14 15  1  1
 15 16  1  0
 16 17  1  0
 17 18  2  0
 18 19  1  0
 19 20  2  0
 20 21  1  0
 21 22  1  0
 21 23  2  0
 21 24  2  0
 20 25  1  0
 17 26  1  0
 25 26  2  0
 26 27  1  0
  7 28  1  0
  4 29  1  0
 28 29  1  0
M  END
