piperidine-amides-11787-covalent
     RDKit          3D

 27 29  0  0  0  0  0  0  0  0999 V2000
    7.1470   -3.2570   19.2280 C   0  0  0  0  0  0  0  0  0  0  0  0
    6.3710   -4.0080   20.2030 C   0  0  0  0  0  0  0  0  0  0  0  0
    5.3020   -4.5240   19.8820 O   0  0  0  0  0  0  0  0  0  0  0  0
    6.8880   -4.1930   21.5260 N   0  0  0  0  0  0  0  0  0  0  0  0
    6.5300   -5.3640   22.2710 C   0  0  0  0  0  0  0  0  0  0  0  0
    5.7920   -4.9590   23.5150 C   0  0  0  0  0  0  0  0  0  0  0  0
    6.5690   -3.8500   24.2100 C   0  0  0  0  0  0  0  0  0  0  0  0
    5.7780   -3.3020   25.3490 C   0  0  0  0  0  0  0  0  0  0  0  0
    4.6570   -2.7800   25.1900 O   0  0  0  0  0  0  0  0  0  0  0  0
    6.3090   -3.3770   26.6560 N   0  0  0  0  0  0  0  0  0  0  0  0
    5.7900   -4.3850   27.5570 C   0  0  2  0  0  0  0  0  0  0  0  0
    6.6490   -4.4160   28.7890 C   0  0  0  0  0  0  0  0  0  0  0  0
    5.8280   -5.7290   26.9320 C   0  0  0  0  0  0  0  0  0  0  0  0
    4.7060   -6.5270   26.6760 C   0  0  0  0  0  0  0  0  0  0  0  0
    4.1990   -6.9340   25.4900 C   0  0  0  0  0  0  0  0  0  0  0  0
    3.0440   -7.7510   25.6700 C   0  0  0  0  0  0  0  0  0  0  0  0
    2.2110   -8.3920   24.7870 C   0  0  0  0  0  0  0  0  0  0  0  0
    2.8730   -7.8120   27.0110 N   0  0  0  0  0  0  0  0  0  0  0  0
    3.8630   -7.0900   27.5840 N   0  0  0  0  0  0  0  0  0  0  0  0
    4.1410   -6.8490   28.9960 C   0  0  0  0  0  0  0  0  0  0  0  0
    3.4540   -5.9690   29.8430 C   0  0  0  0  0  0  0  0  0  0  0  0
    3.7810   -5.7850   31.2580 C   0  0  0  0  0  0  0  0  0  0  0  0
    4.8020   -6.4770   31.8540 C   0  0  0  0  0  0  0  0  0  0  0  0
    5.5050   -7.3520   31.0500 C   0  0  0  0  0  0  0  0  0  0  0  0
    5.1560   -7.5280   29.6040 C   0  0  0  0  0  0  0  0  0  0  0  0
    6.9140   -2.6730   23.3570 C   0  0  0  0  0  0  0  0  0  0  0  0
    7.6710   -3.1730   22.1520 C   0  0  0  0  0  0  0  0  0  0  0  0
  1  2  1  0
  2  3  2  0
  2  4  1  0
  4  5  1  0
  5  6  1  0
  6  7  1  0
  7  8  1  0
  8  9  2  0
  8 10  1  0
 10 11  1  0
 11 12  1  1
 11 13  1  0
 13 14  1  0
 14 15  2  0
 15 16  1  0
 16 17  1  0
 16 18  2  0
 14 19  1  0
 18 19  1  0
 19 20  1  0
 20 21  2  0
 21 22  1  0
 22 23  2  0
 23 24  1  0
 20 25  1  0
 24 25  2  0
  7 26  1  0
  4 27  1  0
 26 27  1  0
M  END
