piperidine-amides-10942-covalent
     RDKit          3D

 21 22  0  0  0  0  0  0  0  0999 V2000
    7.0670   -3.2880   19.2670 C   0  0  0  0  0  0  0  0  0  0  0  0
    6.3430   -4.0490   20.2900 C   0  0  0  0  0  0  0  0  0  0  0  0
    5.3480   -4.7100   19.9470 O   0  0  0  0  0  0  0  0  0  0  0  0
    6.7690   -4.0850   21.6320 N   0  0  0  0  0  0  0  0  0  0  0  0
    7.7060   -3.1110   22.1700 C   0  0  0  0  0  0  0  0  0  0  0  0
    7.4130   -2.9890   23.6380 C   0  0  0  0  0  0  0  0  0  0  0  0
    6.0610   -3.5420   23.9580 C   0  0  0  0  0  0  0  0  0  0  0  0
    5.6050   -3.2730   25.3450 C   0  0  0  0  0  0  0  0  0  0  0  0
    4.3790   -3.4110   25.6260 O   0  0  0  0  0  0  0  0  0  0  0  0
    6.4450   -2.8610   26.4060 N   0  0  0  0  0  0  0  0  0  0  0  0
    6.5850   -1.4250   26.7460 C   0  0  0  0  0  0  0  0  0  0  0  0
    5.5850   -1.0600   27.7900 C   0  0  0  0  0  0  0  0  0  0  0  0
    4.2300   -0.5630   27.5150 C   0  0  0  0  0  0  0  0  0  0  0  0
    3.2370   -0.1930   28.5600 N   0  0  0  0  0  0  0  0  0  0  0  0
    3.7010   -0.3550   30.0040 C   0  0  0  0  0  0  0  0  0  0  0  0
    2.4590    0.1100   31.1860 Cl  0  0  0  0  0  0  0  0  0  0  0  0
    5.0820   -0.8610   30.4020 C   0  0  0  0  0  0  0  0  0  0  0  0
    5.8900   -1.1650   29.2310 C   0  0  0  0  0  0  0  0  0  0  0  0
    7.1250   -1.6230   28.8730 C   0  0  0  0  0  0  0  0  0  0  0  0
    5.9870   -5.0260   23.6860 C   0  0  0  0  0  0  0  0  0  0  0  0
    6.6600   -5.3380   22.3620 C   0  0  0  0  0  0  0  0  0  0  0  0
  1  2  1  0
  2  3  2  0
  2  4  1  0
  4  5  1  0
  5  6  1  0
  6  7  1  0
  7  8  1  0
  8  9  2  0
  8 10  1  0
 10 11  1  0
 11 12  1  0
 12 13  2  0
 13 14  1  0
 14 15  2  0
 15 16  1  0
 15 17  1  0
 12 18  1  0
 17 18  2  0
 18 19  1  0
  7 20  1  0
  4 21  1  0
 20 21  1  0
M  END
