piperidine-amides-3048-covalent
     RDKit          3D

 23 25  0  0  0  0  0  0  0  0999 V2000
    7.0590   -3.3450   19.3480 C   0  0  0  0  0  0  0  0  0  0  0  0
    6.3780   -4.1980   20.3160 C   0  0  0  0  0  0  0  0  0  0  0  0
    5.3800   -4.8370   19.9790 O   0  0  0  0  0  0  0  0  0  0  0  0
    6.9080   -4.3280   21.6430 N   0  0  0  0  0  0  0  0  0  0  0  0
    7.6300   -3.2340   22.2230 C   0  0  0  0  0  0  0  0  0  0  0  0
    6.8240   -2.6950   23.3570 C   0  0  0  0  0  0  0  0  0  0  0  0
    6.5000   -3.8790   24.2440 C   0  0  0  0  0  0  0  0  0  0  0  0
    5.7650   -3.3970   25.4460 C   0  0  0  0  0  0  0  0  0  0  0  0
    4.5190   -3.3050   25.5240 O   0  0  0  0  0  0  0  0  0  0  0  0
    6.5450   -3.0260   26.5600 N   0  0  0  0  0  0  0  0  0  0  0  0
    6.4510   -1.6910   27.1260 C   0  0  0  0  0  0  0  0  0  0  0  0
    7.0310   -1.6540   28.5100 C   0  0  0  0  0  0  0  0  0  0  0  0
    7.0650   -0.5110   29.2650 C   0  0  0  0  0  0  0  0  0  0  0  0
    7.5560   -0.2620   30.5450 C   0  0  0  0  0  0  0  0  0  0  0  0
    6.4480    0.7300   28.5670 C   0  0  0  0  0  0  0  0  0  0  0  0
    5.8760    0.7400   27.2300 C   0  0  0  0  0  0  0  0  0  0  0  0
    5.3080    1.7270   26.4950 C   0  0  0  0  0  0  0  0  0  0  0  0
    4.8320    1.5150   25.2430 C   0  0  0  0  0  0  0  0  0  0  0  0
    4.8840    0.2770   24.6120 C   0  0  0  0  0  0  0  0  0  0  0  0
    5.4360   -0.7610   25.2860 N   0  0  0  0  0  0  0  0  0  0  0  0
    5.9120   -0.5200   26.5550 C   0  0  0  0  0  0  0  0  0  0  0  0
    5.7440   -4.9780   23.5070 C   0  0  0  0  0  0  0  0  0  0  0  0
    6.5650   -5.4480   22.4780 C   0  0  0  0  0  0  0  0  0  0  0  0
  1  2  1  0
  2  3  2  0
  2  4  1  0
  4  5  1  0
  5  6  1  0
  6  7  1  0
  7  8  1  0
  8  9  2  0
  8 10  1  0
 10 11  1  0
 11 12  2  0
 12 13  1  0
 13 14  1  0
 13 15  2  0
 15 16  1  0
 16 17  1  0
 17 18  2  0
 18 19  1  0
 19 20  2  0
 11 21  1  0
 16 21  2  0
 20 21  1  0
  7 22  1  0
  4 23  1  0
 22 23  1  0
M  END
