piperidine-amides-35419-covalent
     RDKit          3D

 30 32  0  0  0  0  0  0  0  0999 V2000
    6.9520   -3.3220   19.3410 C   0  0  0  0  0  0  0  0  0  0  0  0
    6.3540   -4.2420   20.3430 C   0  0  0  0  0  0  0  0  0  0  0  0
    5.3640   -4.8690   19.9800 O   0  0  0  0  0  0  0  0  0  0  0  0
    6.9210   -4.4230   21.6110 N   0  0  0  0  0  0  0  0  0  0  0  0
    6.6320   -5.5820   22.4040 C   0  0  0  0  0  0  0  0  0  0  0  0
    5.7600   -5.1650   23.5580 C   0  0  0  0  0  0  0  0  0  0  0  0
    6.4480   -4.0690   24.3800 C   0  0  0  0  0  0  0  0  0  0  0  0
    5.5200   -3.7080   25.5030 C   0  0  0  0  0  0  0  0  0  0  0  0
    4.3000   -3.6800   25.2840 O   0  0  0  0  0  0  0  0  0  0  0  0
    6.0070   -3.3710   26.8150 N   0  0  0  0  0  0  0  0  0  0  0  0
    7.4010   -2.9680   26.9710 C   0  0  0  0  0  0  0  0  0  0  0  0
    7.7550   -3.1310   28.4760 C   0  0  0  0  0  0  0  0  0  0  0  0
    7.8600   -4.5390   28.8860 N   0  0  0  0  0  0  0  0  0  0  0  0
    9.0580   -4.8160   28.1360 C   0  0  0  0  0  0  0  0  0  0  0  0
    9.6270   -5.9100   28.1410 O   0  0  0  0  0  0  0  0  0  0  0  0
    9.6320   -3.8660   27.3580 O   0  0  0  0  0  0  0  0  0  0  0  0
   10.3930   -4.3290   26.2880 C   0  0  0  0  0  0  0  0  0  0  0  0
    9.7270   -3.7970   25.2230 C   0  0  0  0  0  0  0  0  0  0  0  0
   10.9220   -3.4000   25.3170 C   0  0  0  0  0  0  0  0  0  0  0  0
    9.9660   -5.6070   25.7660 C   0  0  0  0  0  0  0  0  0  0  0  0
    6.7680   -5.3420   28.5980 C   0  0  0  0  0  0  0  0  0  0  0  0
    6.5390   -4.5220   27.4580 C   0  0  0  0  0  0  0  0  0  0  0  0
    7.5780   -5.2950   26.8920 C   0  0  0  0  0  0  0  0  0  0  0  0
    7.1270   -4.1560   25.8920 C   0  0  0  0  0  0  0  0  0  0  0  0
    6.1880   -3.8770   27.0780 C   0  0  0  0  0  0  0  0  0  0  0  0
    5.0270   -2.9140   27.5980 C   0  0  0  0  0  0  0  0  0  0  0  0
    3.8840   -2.6420   29.0950 Br  0  0  0  0  0  0  0  0  0  0  0  0
    5.6030   -3.8990   28.0840 C   0  0  0  0  0  0  0  0  0  0  0  0
    6.8290   -2.9200   23.4800 C   0  0  0  0  0  0  0  0  0  0  0  0
    7.6890   -3.3660   22.2830 C   0  0  0  0  0  0  0  0  0  0  0  0
  1  2  1  0
  2  3  2  0
  2  4  1  0
  4  5  1  0
  5  6  1  0
  6  7  1  0
  7  8  1  0
  8  9  2  0
  8 10  1  0
 10 11  1  0
 11 12  1  0
 12 13  1  0
 13 14  1  0
 14 15  2  0
 14 16  1  0
 17 16  1  0
 17 18  1  0
 17 19  1  0
 17 20  1  0
 13 21  1  0
 21 22  1  0
 22 23  1  0
 23 24  2  0
 24 25  1  0
 25 26  2  0
 26 27  1  0
 10 28  1  0
 22 28  2  0
 26 28  1  0
  7 29  1  0
  4 30  1  0
 29 30  1  0
M  END
