piperidine-amides-11662-covalent
     RDKit          3D

 28 30  0  0  0  0  0  0  0  0999 V2000
    7.0800   -3.3430   19.3300 C   0  0  0  0  0  0  0  0  0  0  0  0
    6.3970   -4.1960   20.2950 C   0  0  0  0  0  0  0  0  0  0  0  0
    5.3730   -4.8000   19.9710 O   0  0  0  0  0  0  0  0  0  0  0  0
    6.9510   -4.3770   21.6060 N   0  0  0  0  0  0  0  0  0  0  0  0
    7.7040   -3.3150   22.2180 C   0  0  0  0  0  0  0  0  0  0  0  0
    6.8940   -2.6990   23.3100 C   0  0  0  0  0  0  0  0  0  0  0  0
    6.5400   -3.8100   24.2740 C   0  0  0  0  0  0  0  0  0  0  0  0
    5.6570   -3.2820   25.3520 C   0  0  0  0  0  0  0  0  0  0  0  0
    4.4260   -3.1770   25.1960 O   0  0  0  0  0  0  0  0  0  0  0  0
    6.2110   -2.8970   26.5980 N   0  0  0  0  0  0  0  0  0  0  0  0
    6.7300   -1.5510   26.7680 C   0  0  2  0  0  0  0  0  0  0  0  0
    7.0260   -1.2860   28.2150 C   0  0  0  0  0  0  0  0  0  0  0  0
    6.3810   -0.2050   28.6160 N   0  0  0  0  0  0  0  0  0  0  0  0
    5.9340   -0.2930   29.8900 C   0  0  0  0  0  0  0  0  0  0  0  0
    4.6500   -0.6580   30.3280 C   0  0  0  0  0  0  0  0  0  0  0  0
    4.5830   -0.6590   31.7060 F   0  0  0  0  0  0  0  0  0  0  0  0
    4.2080   -1.8430   29.8490 F   0  0  0  0  0  0  0  0  0  0  0  0
    3.7240    0.3210   29.9340 F   0  0  0  0  0  0  0  0  0  0  0  0
    5.4840    0.3510   27.7110 C   0  0  0  0  0  0  0  0  0  0  0  0
    5.6110   -0.5080   26.5110 C   0  0  1  0  0  0  0  0  0  0  0  0
    5.8000    0.1270   25.2950 C   0  0  0  0  0  0  0  0  0  0  0  0
    6.3880    1.3720   25.1260 C   0  0  0  0  0  0  0  0  0  0  0  0
    6.5650    1.9820   23.9000 C   0  0  0  0  0  0  0  0  0  0  0  0
    6.1080    1.2840   22.7150 C   0  0  0  0  0  0  0  0  0  0  0  0
    5.5170    0.0450   22.8320 C   0  0  0  0  0  0  0  0  0  0  0  0
    5.3710   -0.5140   24.1130 C   0  0  0  0  0  0  0  0  0  0  0  0
    5.7830   -4.9280   23.5860 C   0  0  0  0  0  0  0  0  0  0  0  0
    6.5990   -5.5040   22.4200 C   0  0  0  0  0  0  0  0  0  0  0  0
  1  2  1  0
  2  3  2  0
  2  4  1  0
  4  5  1  0
  5  6  1  0
  6  7  1  0
  7  8  1  0
  8  9  2  0
  8 10  1  0
 11 10  1  1
 11 12  1  0
 12 13  1  0
 13 14  1  0
 14 15  1  0
 15 16  1  0
 15 17  1  0
 15 18  1  0
 13 19  1  0
 11 20  1  0
 19 20  1  0
 20 21  1  6
 21 22  2  0
 22 23  1  0
 23 24  2  0
 24 25  1  0
 21 26  1  0
 25 26  2  0
  7 27  1  0
  4 28  1  0
 27 28  1  0
M  END
