piperidine-amides-35543-covalent
     RDKit          3D

 36 40  0  0  0  0  0  0  0  0999 V2000
    7.1070   -3.3510   19.3120 C   0  0  0  0  0  0  0  0  0  0  0  0
    6.3790   -4.1740   20.3070 C   0  0  0  0  0  0  0  0  0  0  0  0
    5.3230   -4.6870   19.9390 O   0  0  0  0  0  0  0  0  0  0  0  0
    6.9310   -4.3850   21.5730 N   0  0  0  0  0  0  0  0  0  0  0  0
    6.5570   -5.5090   22.3730 C   0  0  0  0  0  0  0  0  0  0  0  0
    5.7690   -5.0060   23.5480 C   0  0  0  0  0  0  0  0  0  0  0  0
    6.5340   -3.9250   24.3310 C   0  0  0  0  0  0  0  0  0  0  0  0
    5.6300   -3.4790   25.4090 C   0  0  0  0  0  0  0  0  0  0  0  0
    4.4090   -3.6330   25.2780 O   0  0  0  0  0  0  0  0  0  0  0  0
    6.1150   -2.8590   26.5740 N   0  0  0  0  0  0  0  0  0  0  0  0
    7.3590   -3.3070   27.1400 C   0  0  0  0  0  0  0  0  0  0  0  0
    8.1020   -2.0340   27.4190 C   0  0  0  0  0  0  0  0  0  0  0  0
    8.1470   -1.6540   28.7340 C   0  0  0  0  0  0  0  0  0  0  0  0
    8.7480   -0.5790   29.1760 C   0  0  0  0  0  0  0  0  0  0  0  0
    9.3250    0.1530   28.2620 C   0  0  0  0  0  0  0  0  0  0  0  0
    9.3620   -0.1180   26.7950 C   0  0  0  0  0  0  0  0  0  0  0  0
    8.6940   -1.3480   26.2070 C   0  0  0  0  0  0  0  0  0  0  0  0
    5.7740   -1.4600   26.7830 C   0  0  0  0  0  0  0  0  0  0  0  0
    6.5360   -0.7140   27.5140 N   0  0  0  0  0  0  0  0  0  0  0  0
    6.0660    0.6640   27.6300 C   0  0  0  0  0  0  0  0  0  0  0  0
    6.8170    1.6840   28.4280 C   0  0  0  0  0  0  0  0  0  0  0  0
    7.3740    1.3410   29.8010 C   0  0  0  0  0  0  0  0  0  0  0  0
    8.1400    2.3430   30.5940 C   0  0  0  0  0  0  0  0  0  0  0  0
    8.3620    3.7220   30.0310 C   0  0  0  0  0  0  0  0  0  0  0  0
    9.0760    4.6600   30.7390 O   0  0  0  0  0  0  0  0  0  0  0  0
   10.4830    4.6300   30.7210 C   0  0  0  0  0  0  0  0  0  0  0  0
    7.7330    3.9080   28.6640 C   0  0  0  0  0  0  0  0  0  0  0  0
    7.9250    5.3120   28.0520 C   0  0  0  0  0  0  0  0  0  0  0  0
    7.3620    5.6610   26.6900 C   0  0  0  0  0  0  0  0  0  0  0  0
    6.6770    4.7540   25.9710 C   0  0  0  0  0  0  0  0  0  0  0  0
    6.4970    3.3700   26.5890 C   0  0  0  0  0  0  0  0  0  0  0  0
    7.0150    2.9440   27.9260 C   0  0  0  0  0  0  0  0  0  0  0  0
    4.8870    0.9950   26.9630 C   0  0  0  0  0  0  0  0  0  0  0  0
    4.4820   -0.4910   26.2380 S   0  0  0  0  0  0  0  0  0  0  0  0
    6.9180   -2.8040   23.3800 C   0  0  0  0  0  0  0  0  0  0  0  0
    7.7080   -3.3620   22.2130 C   0  0  0  0  0  0  0  0  0  0  0  0
  1  2  1  0
  2  3  2  0
  2  4  1  0
  4  5  1  0
  5  6  1  0
  6  7  1  0
  7  8  1  0
  8  9  2  0
  8 10  1  0
 10 11  1  0
 11 12  1  0
 12 13  2  0
 13 14  1  0
 14 15  2  0
 15 16  1  0
 12 17  1  0
 16 17  2  0
 10 18  1  0
 18 19  2  0
 19 20  1  0
 20 21  1  0
 21 22  2  0
 22 23  1  0
 23 24  2  0
 24 25  1  0
 25 26  1  0
 24 27  1  0
 27 28  1  0
 28 29  2  0
 29 30  1  0
 30 31  2  0
 21 32  1  0
 27 32  2  0
 31 32  1  0
 20 33  2  0
 18 34  1  0
 33 34  1  0
  7 35  1  0
  4 36  1  0
 35 36  1  0
M  END
