piperidine-amides-30739-covalent
     RDKit          3D

 26 27  0  0  0  0  0  0  0  0999 V2000
    7.1460   -3.2830   19.2050 C   0  0  0  0  0  0  0  0  0  0  0  0
    6.4020   -4.0460   20.2100 C   0  0  0  0  0  0  0  0  0  0  0  0
    5.3160   -4.5570   19.8940 O   0  0  0  0  0  0  0  0  0  0  0  0
    6.9210   -4.2710   21.4960 N   0  0  0  0  0  0  0  0  0  0  0  0
    6.5280   -5.4130   22.2680 C   0  0  0  0  0  0  0  0  0  0  0  0
    5.7670   -4.8270   23.4290 C   0  0  0  0  0  0  0  0  0  0  0  0
    6.5460   -3.7880   24.1920 C   0  0  0  0  0  0  0  0  0  0  0  0
    5.7710   -3.3110   25.3550 C   0  0  0  0  0  0  0  0  0  0  0  0
    4.5320   -3.0680   25.2340 O   0  0  0  0  0  0  0  0  0  0  0  0
    6.3240   -3.1040   26.6310 N   0  0  0  0  0  0  0  0  0  0  0  0
    6.7530   -1.7340   26.9730 C   0  0  0  0  0  0  0  0  0  0  0  0
    5.6220   -0.8140   26.7520 C   0  0  0  0  0  0  0  0  0  0  0  0
    5.7340   -3.9030   27.6960 C   0  0  0  0  0  0  0  0  0  0  0  0
    6.7220   -4.5550   28.6190 C   0  0  0  0  0  0  0  0  0  0  0  0
    6.8030   -5.4660   29.6300 O   0  0  0  0  0  0  0  0  0  0  0  0
    5.4540   -5.1160   28.9580 N   0  0  0  0  0  0  0  0  0  0  0  0
    5.6420   -6.5700   28.9210 C   0  0  0  0  0  0  0  0  0  0  0  0
    4.6580   -7.1490   29.8620 C   0  0  0  0  0  0  0  0  0  0  0  0
    4.9750   -7.2420   31.2050 C   0  0  0  0  0  0  0  0  0  0  0  0
    4.1320   -7.7610   32.1690 C   0  0  0  0  0  0  0  0  0  0  0  0
    2.7750   -8.2830   31.8590 C   0  0  0  0  0  0  0  0  0  0  0  0
    1.7150   -8.9420   33.0960 Cl  0  0  0  0  0  0  0  0  0  0  0  0
    2.4490   -8.1710   30.3760 C   0  0  0  0  0  0  0  0  0  0  0  0
    3.3370   -7.6100   29.2750 C   0  0  0  0  0  0  0  0  0  0  0  0
    6.9660   -2.6550   23.3080 C   0  0  0  0  0  0  0  0  0  0  0  0
    7.6240   -3.1880   22.0990 C   0  0  0  0  0  0  0  0  0  0  0  0
  1  2  1  0
  2  3  2  0
  2  4  1  0
  4  5  1  0
  5  6  1  0
  6  7  1  0
  7  8  1  0
  8  9  2  0
  8 10  1  0
 10 11  1  0
 11 12  1  0
 10 13  1  0
 13 14  1  0
 14 15  2  0
 14 16  1  0
 16 17  1  0
 17 18  1  0
 18 19  2  0
 19 20  1  0
 20 21  2  0
 21 22  1  0
 21 23  1  0
 18 24  1  0
 23 24  2  0
  7 25  1  0
  4 26  1  0
 25 26  1  0
M  END
