piperidine-amides-31548-covalent
     RDKit          3D

 27 30  0  0  0  0  0  0  0  0999 V2000
    7.0710   -3.3660   19.4800 C   0  0  0  0  0  0  0  0  0  0  0  0
    6.3950   -4.2280   20.4310 C   0  0  0  0  0  0  0  0  0  0  0  0
    5.4370   -4.9520   20.0040 O   0  0  0  0  0  0  0  0  0  0  0  0
    6.7850   -4.3060   21.7890 N   0  0  0  0  0  0  0  0  0  0  0  0
    7.7050   -3.2090   22.2430 C   0  0  0  0  0  0  0  0  0  0  0  0
    7.6160   -3.2470   23.8150 C   0  0  0  0  0  0  0  0  0  0  0  0
    6.2790   -3.8650   24.0860 C   0  0  0  0  0  0  0  0  0  0  0  0
    5.5190   -3.2550   25.3560 C   0  0  0  0  0  0  0  0  0  0  0  0
    4.9120   -2.2660   24.9810 O   0  0  0  0  0  0  0  0  0  0  0  0
    5.6710   -3.9000   26.4600 N   0  0  0  0  0  0  0  0  0  0  0  0
    5.4480   -4.8090   27.4570 C   0  0  0  0  0  0  0  0  0  0  0  0
    5.2020   -4.7610   28.8100 C   0  0  0  0  0  0  0  0  0  0  0  0
    5.5780   -3.4220   29.2140 N   0  0  0  0  0  0  0  0  0  0  0  0
    4.7530   -2.3630   29.1050 C   0  0  0  0  0  0  0  0  0  0  0  0
    4.2930   -2.2160   30.5000 C   0  0  0  0  0  0  0  0  0  0  0  0
    4.6910   -1.1440   31.2260 N   0  0  0  0  0  0  0  0  0  0  0  0
    4.2560   -1.0700   32.4600 C   0  0  0  0  0  0  0  0  0  0  0  0
    4.5560   -0.0370   33.3880 C   0  0  0  0  0  0  0  0  0  0  0  0
    4.1610    0.1890   34.7770 C   0  0  0  0  0  0  0  0  0  0  0  0
    3.2600   -1.0690   35.0230 C   0  0  0  0  0  0  0  0  0  0  0  0
    2.8970   -2.2220   34.0570 C   0  0  0  0  0  0  0  0  0  0  0  0
    3.4440   -2.0840   32.8810 C   0  0  0  0  0  0  0  0  0  0  0  0
    3.2500   -3.2360   31.4940 S   0  0  0  0  0  0  0  0  0  0  0  0
    6.7500   -3.1810   28.4690 C   0  0  0  0  0  0  0  0  0  0  0  0
    6.3790   -2.8570   27.1950 C   0  0  0  0  0  0  0  0  0  0  0  0
    6.1910   -5.3150   23.7970 C   0  0  0  0  0  0  0  0  0  0  0  0
    6.7030   -5.5570   22.5180 C   0  0  0  0  0  0  0  0  0  0  0  0
  1  2  1  0
  2  3  2  0
  2  4  1  0
  4  5  1  0
  5  6  1  0
  6  7  1  0
  7  8  1  0
  8  9  2  0
  8 10  1  0
 10 11  1  0
 11 12  1  0
 12 13  1  0
 13 14  1  0
 14 15  1  0
 15 16  2  0
 16 17  1  0
 17 18  2  0
 18 19  1  0
 19 20  2  0
 20 21  1  0
 17 22  1  0
 21 22  2  0
 15 23  1  0
 22 23  1  0
 13 24  1  0
 10 25  1  0
 24 25  1  0
  7 26  1  0
  4 27  1  0
 26 27  1  0
M  END
