piperidine-amides-14314-covalent
     RDKit          3D

 24 25  0  0  0  0  0  0  0  0999 V2000
    7.0790   -3.2820   19.2610 C   0  0  0  0  0  0  0  0  0  0  0  0
    6.2780   -4.0220   20.2330 C   0  0  0  0  0  0  0  0  0  0  0  0
    5.2180   -4.5430   19.8640 O   0  0  0  0  0  0  0  0  0  0  0  0
    6.7360   -4.1700   21.5550 N   0  0  0  0  0  0  0  0  0  0  0  0
    6.4410   -5.3810   22.2570 C   0  0  0  0  0  0  0  0  0  0  0  0
    5.6060   -5.0900   23.4770 C   0  0  0  0  0  0  0  0  0  0  0  0
    5.6650   -3.5950   23.7800 C   0  0  0  0  0  0  0  0  0  0  0  0
    5.0520   -3.2580   25.1250 C   0  0  0  0  0  0  0  0  0  0  0  0
    3.9020   -2.8450   25.0790 O   0  0  0  0  0  0  0  0  0  0  0  0
    5.7810   -3.4130   26.3100 N   0  0  0  0  0  0  0  0  0  0  0  0
    5.6510   -4.5720   27.1440 C   0  0  2  0  0  0  0  0  0  0  0  0
    4.8000   -5.6020   26.7670 C   0  0  0  0  0  0  0  0  0  0  0  0
    5.3350   -4.1530   28.5100 C   0  0  0  0  0  0  0  0  0  0  0  0
    4.7730   -5.0330   29.4320 C   0  0  0  0  0  0  0  0  0  0  0  0
    5.9380   -5.9430   29.6700 C   0  0  0  0  0  0  0  0  0  0  0  0
    3.5610   -5.5620   29.0680 C   0  0  0  0  0  0  0  0  0  0  0  0
    6.8490   -5.1740   27.2350 C   0  0  0  0  0  0  0  0  0  0  0  0
    7.9750   -5.8110   27.9400 C   0  0  0  0  0  0  0  0  0  0  0  0
    9.1410   -6.2480   27.1200 C   0  0  0  0  0  0  0  0  0  0  0  0
    9.2620   -6.1480   25.8440 C   0  0  0  0  0  0  0  0  0  0  0  0
    8.2730   -5.6070   25.1390 C   0  0  0  0  0  0  0  0  0  0  0  0
    7.0730   -5.1210   25.8560 C   0  0  0  0  0  0  0  0  0  0  0  0
    7.0980   -3.1010   23.6580 C   0  0  0  0  0  0  0  0  0  0  0  0
    7.4750   -3.1430   22.2000 C   0  0  0  0  0  0  0  0  0  0  0  0
  1  2  1  0
  2  3  2  0
  2  4  1  0
  4  5  1  0
  5  6  1  0
  6  7  1  0
  7  8  1  0
  8  9  2  0
  8 10  1  0
 11 10  1  0
 11 12  1  6
 11 13  1  0
 13 14  1  0
 14 15  1  0
 14 16  1  0
 11 17  1  0
 17 18  2  0
 18 19  1  0
 19 20  2  0
 20 21  1  0
 17 22  1  0
 21 22  2  0
  7 23  1  0
  4 24  1  0
 23 24  1  0
M  END
