piperidine-amides-33139-covalent
     RDKit          3D

 29 32  0  0  0  0  0  0  0  0999 V2000
    7.1070   -3.3600   19.3410 C   0  0  0  0  0  0  0  0  0  0  0  0
    6.4610   -4.2360   20.3270 C   0  0  0  0  0  0  0  0  0  0  0  0
    5.3900   -4.7910   19.9730 O   0  0  0  0  0  0  0  0  0  0  0  0
    7.0590   -4.4910   21.5860 N   0  0  0  0  0  0  0  0  0  0  0  0
    6.4940   -5.5250   22.3590 C   0  0  0  0  0  0  0  0  0  0  0  0
    5.7960   -5.0450   23.5510 C   0  0  0  0  0  0  0  0  0  0  0  0
    6.3250   -3.8310   24.2340 C   0  0  0  0  0  0  0  0  0  0  0  0
    5.2950   -3.2830   25.1700 C   0  0  0  0  0  0  0  0  0  0  0  0
    4.4250   -2.5270   24.7200 O   0  0  0  0  0  0  0  0  0  0  0  0
    5.2570   -3.5920   26.5410 N   0  0  0  0  0  0  0  0  0  0  0  0
    4.2800   -3.2910   27.4400 C   0  0  2  0  0  0  0  0  0  0  0  0
    4.7040   -2.2650   28.3620 C   0  0  0  0  0  0  0  0  0  0  0  0
    6.2180   -2.5640   28.3220 C   0  0  0  0  0  0  0  0  0  0  0  0
    6.4310   -3.4770   27.2860 C   0  0  1  0  0  0  0  0  0  0  0  0
    6.7490   -4.6880   28.2430 C   0  0  0  0  0  0  0  0  0  0  0  0
    5.4550   -4.6800   28.9880 C   0  0  2  0  0  0  0  0  0  0  0  0
    5.4940   -3.7530   30.0000 O   0  0  0  0  0  0  0  0  0  0  0  0
    5.7070   -6.1370   29.4360 C   0  0  0  0  0  0  0  0  0  0  0  0
    4.6530   -6.8960   30.2190 C   0  0  0  0  0  0  0  0  0  0  0  0
    3.4440   -7.2600   29.3680 C   0  0  0  0  0  0  0  0  0  0  0  0
    2.2730   -8.0240   30.0010 C   0  0  0  0  0  0  0  0  0  0  0  0
    2.4660   -8.3340   31.4380 C   0  0  0  0  0  0  0  0  0  0  0  0
    1.3950   -9.0160   31.9780 F   0  0  0  0  0  0  0  0  0  0  0  0
    3.6120   -7.9620   32.1300 C   0  0  0  0  0  0  0  0  0  0  0  0
    4.6730   -7.2740   31.5690 C   0  0  0  0  0  0  0  0  0  0  0  0
    5.7600   -6.9550   32.3360 F   0  0  0  0  0  0  0  0  0  0  0  0
    4.2340   -4.4190   28.3740 C   0  0  0  0  0  0  0  0  0  0  0  0
    6.8550   -2.7810   23.2950 C   0  0  0  0  0  0  0  0  0  0  0  0
    7.7290   -3.4150   22.2400 C   0  0  0  0  0  0  0  0  0  0  0  0
  1  2  1  0
  2  3  2  0
  2  4  1  0
  4  5  1  0
  5  6  1  0
  6  7  1  0
  7  8  1  0
  8  9  2  0
  8 10  1  0
 10 11  1  0
 11 12  1  1
 12 13  1  0
 10 14  1  0
 14 13  1  1
 14 15  1  0
 15 16  1  0
 16 17  1  1
 16 18  1  0
 18 19  1  0
 19 20  2  0
 20 21  1  0
 21 22  2  0
 22 23  1  0
 22 24  1  0
 19 25  1  0
 24 25  2  0
 25 26  1  0
 11 27  1  0
 16 27  1  0
  7 28  1  0
  4 29  1  0
 28 29  1  0
M  END
