piperidine-amides-6528-covalent
     RDKit          3D

 24 25  0  0  0  0  0  0  0  0999 V2000
    7.0960   -3.3050   19.2920 C   0  0  0  0  0  0  0  0  0  0  0  0
    6.3980   -4.1500   20.2710 C   0  0  0  0  0  0  0  0  0  0  0  0
    5.3560   -4.7630   19.9580 O   0  0  0  0  0  0  0  0  0  0  0  0
    6.9260   -4.3220   21.5520 N   0  0  0  0  0  0  0  0  0  0  0  0
    7.7020   -3.2570   22.1510 C   0  0  0  0  0  0  0  0  0  0  0  0
    6.8230   -2.6660   23.2420 C   0  0  0  0  0  0  0  0  0  0  0  0
    6.5890   -3.8120   24.1840 C   0  0  0  0  0  0  0  0  0  0  0  0
    5.7960   -3.3190   25.3170 C   0  0  0  0  0  0  0  0  0  0  0  0
    4.5640   -3.1620   25.1680 O   0  0  0  0  0  0  0  0  0  0  0  0
    6.4450   -3.0400   26.5310 N   0  0  0  0  0  0  0  0  0  0  0  0
    6.3480   -1.7270   27.0970 C   0  0  0  0  0  0  0  0  0  0  0  0
    5.7700   -0.5850   26.2570 C   0  0  0  0  0  0  0  0  0  0  0  0
    5.7360    0.6660   26.9940 N   0  0  0  0  0  0  0  0  0  0  0  0
    6.1960    0.7920   28.3510 C   0  0  0  0  0  0  0  0  0  0  0  0
    6.0950    1.9580   28.8370 O   0  0  0  0  0  0  0  0  0  0  0  0
    4.8320    2.4580   28.9540 C   0  0  0  0  0  0  0  0  0  0  0  0
    6.7040   -0.2100   29.0870 C   0  0  0  0  0  0  0  0  0  0  0  0
    7.1300   -0.0410   30.3690 C   0  0  0  0  0  0  0  0  0  0  0  0
    8.3460    0.5470   30.5620 O   0  0  0  0  0  0  0  0  0  0  0  0
    6.3410   -0.4540   31.4390 O   0  0  0  0  0  0  0  0  0  0  0  0
    6.1160    0.4470   32.5220 C   0  0  0  0  0  0  0  0  0  0  0  0
    6.8230   -1.5700   28.5020 C   0  0  0  0  0  0  0  0  0  0  0  0
    5.8960   -4.9690   23.5880 C   0  0  0  0  0  0  0  0  0  0  0  0
    6.5180   -5.4260   22.3440 C   0  0  0  0  0  0  0  0  0  0  0  0
  1  2  1  0
  2  3  2  0
  2  4  1  0
  4  5  1  0
  5  6  1  0
  6  7  1  0
  7  8  1  0
  8  9  2  0
  8 10  1  0
 10 11  1  0
 11 12  2  0
 12 13  1  0
 13 14  2  0
 14 15  1  0
 15 16  1  0
 14 17  1  0
 17 18  1  0
 18 19  2  0
 18 20  1  0
 20 21  1  0
 11 22  1  0
 17 22  2  0
  7 23  1  0
  4 24  1  0
 23 24  1  0
M  END
