piperidine-amides-8526-covalent
     RDKit          3D

 24 26  0  0  0  0  0  0  0  0999 V2000
    7.0750   -3.3530   19.3330 C   0  0  0  0  0  0  0  0  0  0  0  0
    6.3730   -4.1710   20.3190 C   0  0  0  0  0  0  0  0  0  0  0  0
    5.3470   -4.7730   19.9610 O   0  0  0  0  0  0  0  0  0  0  0  0
    6.8960   -4.2990   21.6310 N   0  0  0  0  0  0  0  0  0  0  0  0
    7.6950   -3.2190   22.1520 C   0  0  0  0  0  0  0  0  0  0  0  0
    7.4710   -3.0650   23.6210 C   0  0  0  0  0  0  0  0  0  0  0  0
    6.0960   -3.6210   23.8890 C   0  0  0  0  0  0  0  0  0  0  0  0
    5.6410   -3.2330   25.2480 C   0  0  0  0  0  0  0  0  0  0  0  0
    4.4580   -3.4280   25.5150 O   0  0  0  0  0  0  0  0  0  0  0  0
    6.5870   -2.6770   26.0860 N   0  0  0  0  0  0  0  0  0  0  0  0
    6.3080   -1.5330   26.8750 C   0  0  0  0  0  0  0  0  0  0  0  0
    6.5100   -0.2640   26.3580 C   0  0  0  0  0  0  0  0  0  0  0  0
    6.2690    0.8650   27.0900 C   0  0  0  0  0  0  0  0  0  0  0  0
    5.8070    0.7640   28.3710 C   0  0  0  0  0  0  0  0  0  0  0  0
    5.5810    1.9430   29.0640 O   0  0  0  0  0  0  0  0  0  0  0  0
    4.2490    2.1620   29.3090 C   0  0  0  0  0  0  0  0  0  0  0  0
    5.5700   -0.4570   28.9210 C   0  0  0  0  0  0  0  0  0  0  0  0
    5.0340   -0.5850   30.3010 C   0  0  0  0  0  0  0  0  0  0  0  0
    4.7570   -1.9440   30.8600 C   0  0  0  0  0  0  0  0  0  0  0  0
    5.0960   -3.0930   29.8870 C   0  0  0  0  0  0  0  0  0  0  0  0
    5.5920   -2.8180   28.6610 C   0  0  0  0  0  0  0  0  0  0  0  0
    5.8360   -1.5870   28.1330 C   0  0  0  0  0  0  0  0  0  0  0  0
    6.0620   -5.0960   23.7300 C   0  0  0  0  0  0  0  0  0  0  0  0
    6.6580   -5.4920   22.4120 C   0  0  0  0  0  0  0  0  0  0  0  0
  1  2  1  0
  2  3  2  0
  2  4  1  0
  4  5  1  0
  5  6  1  0
  6  7  1  0
  7  8  1  0
  8  9  2  0
  8 10  1  0
 10 11  1  0
 11 12  2  0
 12 13  1  0
 13 14  2  0
 14 15  1  0
 15 16  1  0
 14 17  1  0
 17 18  1  0
 18 19  2  0
 19 20  1  0
 20 21  2  0
 11 22  1  0
 17 22  2  0
 21 22  1  0
  7 23  1  0
  4 24  1  0
 23 24  1  0
M  END
