piperidine-amides-5245-covalent
     RDKit          3D

 22 23  0  0  0  0  0  0  0  0999 V2000
    7.1200   -3.2730   19.2260 C   0  0  0  0  0  0  0  0  0  0  0  0
    6.3790   -4.0630   20.2390 C   0  0  0  0  0  0  0  0  0  0  0  0
    5.2910   -4.5480   19.8800 O   0  0  0  0  0  0  0  0  0  0  0  0
    6.9050   -4.3010   21.5200 N   0  0  0  0  0  0  0  0  0  0  0  0
    6.3750   -5.3730   22.2780 C   0  0  0  0  0  0  0  0  0  0  0  0
    5.7060   -4.9410   23.5150 C   0  0  0  0  0  0  0  0  0  0  0  0
    6.2800   -3.7390   24.1800 C   0  0  0  0  0  0  0  0  0  0  0  0
    5.3130   -3.1430   25.1380 C   0  0  0  0  0  0  0  0  0  0  0  0
    4.1420   -2.9690   24.7650 O   0  0  0  0  0  0  0  0  0  0  0  0
    5.6860   -2.7880   26.4430 N   0  0  0  0  0  0  0  0  0  0  0  0
    6.2270   -3.8020   27.3430 C   0  0  0  0  0  0  0  0  0  0  0  0
    7.6170   -4.0740   26.9670 C   0  0  0  0  0  0  0  0  0  0  0  0
    8.3440   -3.4200   25.9100 C   0  0  0  0  0  0  0  0  0  0  0  0
    9.6380   -3.7160   25.6360 C   0  0  0  0  0  0  0  0  0  0  0  0
   10.5630   -2.7820   24.2390 Br  0  0  0  0  0  0  0  0  0  0  0  0
   10.2760   -4.6850   26.3840 C   0  0  0  0  0  0  0  0  0  0  0  0
    9.6340   -5.3490   27.4150 C   0  0  0  0  0  0  0  0  0  0  0  0
    8.3510   -5.1040   27.7590 C   0  0  0  0  0  0  0  0  0  0  0  0
    7.7570   -5.6750   28.6930 O   0  0  0  0  0  0  0  0  0  0  0  0
    6.5850   -6.2480   28.3400 C   0  0  0  0  0  0  0  0  0  0  0  0
    6.7220   -2.6940   23.1840 C   0  0  0  0  0  0  0  0  0  0  0  0
    7.6800   -3.3250   22.2520 C   0  0  0  0  0  0  0  0  0  0  0  0
  1  2  1  0
  2  3  2  0
  2  4  1  0
  4  5  1  0
  5  6  1  0
  6  7  1  0
  7  8  1  0
  8  9  2  0
  8 10  1  0
 10 11  1  0
 11 12  1  0
 12 13  2  0
 13 14  1  0
 14 15  1  0
 14 16  2  0
 16 17  1  0
 12 18  1  0
 17 18  2  0
 18 19  1  0
 19 20  1  0
  7 21  1  0
  4 22  1  0
 21 22  1  0
M  END
