piperidine-amides-2036-covalent
     RDKit          3D

 25 27  0  0  0  0  0  0  0  0999 V2000
    7.0600   -3.3030   19.3090 C   0  0  0  0  0  0  0  0  0  0  0  0
    6.3550   -4.1520   20.3070 C   0  0  0  0  0  0  0  0  0  0  0  0
    5.3250   -4.7080   19.9370 O   0  0  0  0  0  0  0  0  0  0  0  0
    6.8820   -4.3370   21.5890 N   0  0  0  0  0  0  0  0  0  0  0  0
    6.6430   -5.5470   22.3220 C   0  0  0  0  0  0  0  0  0  0  0  0
    6.0930   -5.1810   23.6660 C   0  0  0  0  0  0  0  0  0  0  0  0
    7.0850   -4.2630   24.3910 C   0  0  0  0  0  0  0  0  0  0  0  0
    6.5160   -3.9660   25.7170 C   0  0  0  0  0  0  0  0  0  0  0  0
    5.2810   -4.0290   25.8660 O   0  0  0  0  0  0  0  0  0  0  0  0
    7.3370   -3.5680   26.8060 N   0  0  0  0  0  0  0  0  0  0  0  0
    7.0090   -2.2360   27.2080 C   0  0  0  0  0  0  0  0  0  0  0  0
    7.4090   -1.6760   28.5260 C   0  0  0  0  0  0  0  0  0  0  0  0
    7.1240   -0.4190   29.0000 C   0  0  0  0  0  0  0  0  0  0  0  0
    6.3980    0.4240   28.1750 C   0  0  0  0  0  0  0  0  0  0  0  0
    6.0080   -0.0590   26.9310 C   0  0  0  0  0  0  0  0  0  0  0  0
    6.3250   -1.4210   26.4490 C   0  0  0  0  0  0  0  0  0  0  0  0
    5.8960   -1.7920   25.2560 O   0  0  0  0  0  0  0  0  0  0  0  0
    4.5880   -1.4660   25.0960 C   0  0  0  0  0  0  0  0  0  0  0  0
    3.7630   -2.0920   26.1880 C   0  0  0  0  0  0  0  0  0  0  0  0
    4.1690   -2.3260   23.9380 C   0  0  0  0  0  0  0  0  0  0  0  0
    4.5320   -0.1160   24.8310 C   0  0  0  0  0  0  0  0  0  0  0  0
    5.2230    0.7420   25.9220 C   0  0  1  0  0  0  0  0  0  0  0  0
    4.4040    1.5280   26.5550 O   0  0  0  0  0  0  0  0  0  0  0  0
    7.2690   -2.9830   23.5930 C   0  0  0  0  0  0  0  0  0  0  0  0
    7.7400   -3.3410   22.2100 C   0  0  0  0  0  0  0  0  0  0  0  0
  1  2  1  0
  2  3  2  0
  2  4  1  0
  4  5  1  0
  5  6  1  0
  6  7  1  0
  7  8  1  0
  8  9  2  0
  8 10  1  0
 10 11  1  0
 11 12  2  0
 12 13  1  0
 13 14  2  0
 14 15  1  0
 11 16  1  0
 15 16  2  0
 16 17  1  0
 17 18  1  0
 18 19  1  0
 18 20  1  0
 18 21  1  0
 15 22  1  0
 21 22  1  0
 22 23  1  1
  7 24  1  0
  4 25  1  0
 24 25  1  0
M  END
