piperidine-amides-89-covalent
     RDKit          3D

 21 24  0  0  0  0  0  0  0  0999 V2000
    7.1020   -3.2910   19.3860 C   0  0  0  0  0  0  0  0  0  0  0  0
    6.3720   -4.0810   20.3550 C   0  0  0  0  0  0  0  0  0  0  0  0
    5.3750   -4.7620   19.9540 O   0  0  0  0  0  0  0  0  0  0  0  0
    6.7420   -4.1560   21.7130 N   0  0  0  0  0  0  0  0  0  0  0  0
    6.5990   -5.5130   22.2970 C   0  0  0  0  0  0  0  0  0  0  0  0
    6.5310   -5.2140   23.8390 C   0  0  0  0  0  0  0  0  0  0  0  0
    6.2990   -3.7330   23.9710 C   0  0  0  0  0  0  0  0  0  0  0  0
    5.4630   -3.3740   25.2770 C   0  0  0  0  0  0  0  0  0  0  0  0
    4.3980   -3.9770   25.2580 O   0  0  0  0  0  0  0  0  0  0  0  0
    6.0670   -2.5450   26.0340 N   0  0  0  0  0  0  0  0  0  0  0  0
    6.5340   -1.6820   26.9730 C   0  0  2  0  0  0  0  0  0  0  0  0
    6.4860   -1.6180   28.3420 C   0  0  1  0  0  0  0  0  0  0  0  0
    6.9930   -0.4870   28.9890 C   0  0  0  0  0  0  0  0  0  0  0  0
    6.6750    0.4780   28.0030 C   0  0  2  0  0  0  0  0  0  0  0  0
    5.3560    0.3710   28.3230 C   0  0  2  0  0  0  0  0  0  0  0  0
    5.1010   -1.0130   28.6400 C   0  0  0  0  0  0  0  0  0  0  0  0
    5.7430   -0.3500   26.9890 C   0  0  2  0  0  0  0  0  0  0  0  0
    5.6690    0.1360   25.5410 C   0  0  0  0  0  0  0  0  0  0  0  0
    4.7830    1.0130   25.4750 O   0  0  0  0  0  0  0  0  0  0  0  0
    7.4920   -2.9570   23.5610 C   0  0  0  0  0  0  0  0  0  0  0  0
    7.7140   -3.2040   22.2290 C   0  0  0  0  0  0  0  0  0  0  0  0
  1  2  1  0
  2  3  2  0
  2  4  1  0
  4  5  1  0
  5  6  1  0
  6  7  1  0
  7  8  1  0
  8  9  2  0
  8 10  1  0
 11 10  1  6
 11 12  1  0
 12 13  1  6
 14 13  1  1
 14 15  1  0
 12 16  1  0
 15 16  1  1
 11 17  1  0
 14 17  1  0
 15 17  1  0
 17 18  1  6
 18 19  1  0
  7 20  1  0
  4 21  1  0
 20 21  1  0
M  END
