piperidine-amides-30407-covalent
     RDKit          3D

 27 30  0  0  0  0  0  0  0  0999 V2000
    7.1140   -3.3340   19.2630 C   0  0  0  0  0  0  0  0  0  0  0  0
    6.4370   -4.1390   20.2790 C   0  0  0  0  0  0  0  0  0  0  0  0
    5.4060   -4.7670   19.9700 O   0  0  0  0  0  0  0  0  0  0  0  0
    6.9700   -4.2510   21.5740 N   0  0  0  0  0  0  0  0  0  0  0  0
    7.8780   -3.2340   22.1060 C   0  0  0  0  0  0  0  0  0  0  0  0
    7.3820   -2.8360   23.4670 C   0  0  0  0  0  0  0  0  0  0  0  0
    6.1000   -3.5220   23.7690 C   0  0  0  0  0  0  0  0  0  0  0  0
    5.6000   -3.1810   25.1080 C   0  0  0  0  0  0  0  0  0  0  0  0
    4.7180   -2.2930   25.2650 O   0  0  0  0  0  0  0  0  0  0  0  0
    6.0490   -3.8290   26.2460 N   0  0  0  0  0  0  0  0  0  0  0  0
    6.2340   -3.1200   27.4760 C   0  0  0  0  0  0  0  0  0  0  0  0
    6.2690   -4.2970   28.3340 C   0  0  1  0  0  0  0  0  0  0  0  0
    5.7450   -4.2290   29.6470 C   0  0  0  0  0  0  0  0  0  0  0  0
    6.2010   -5.2930   30.1310 O   0  0  0  0  0  0  0  0  0  0  0  0
    5.4670   -6.4290   29.8040 C   0  0  0  0  0  0  0  0  0  0  0  0
    5.6720   -6.6520   28.3290 C   0  0  0  0  0  0  0  0  0  0  0  0
    5.4650   -5.3540   27.6710 C   0  0  1  0  0  0  0  0  0  0  0  0
    4.6030   -4.4480   28.2690 C   0  0  0  0  0  0  0  0  0  0  0  0
    4.7880   -3.3670   28.8630 O   0  0  0  0  0  0  0  0  0  0  0  0
    3.1730   -4.7930   28.1810 N   0  0  0  0  0  0  0  0  0  0  0  0
    2.2850   -3.9030   28.9640 C   0  0  0  0  0  0  0  0  0  0  0  0
    1.0680   -4.7600   29.2680 C   0  0  0  0  0  0  0  0  0  0  0  0
    1.3300   -6.1580   28.7740 C   0  0  0  0  0  0  0  0  0  0  0  0
    2.6770   -6.1440   28.1410 C   0  0  0  0  0  0  0  0  0  0  0  0
    5.6160   -5.1970   26.3170 C   0  0  0  0  0  0  0  0  0  0  0  0
    6.1290   -4.9860   23.5930 C   0  0  0  0  0  0  0  0  0  0  0  0
    6.6780   -5.3780   22.4010 C   0  0  0  0  0  0  0  0  0  0  0  0
  1  2  1  0
  2  3  2  0
  2  4  1  0
  4  5  1  0
  5  6  1  0
  6  7  1  0
  7  8  1  0
  8  9  2  0
  8 10  1  0
 10 11  1  0
 12 11  1  6
 12 13  1  0
 13 14  1  0
 14 15  1  0
 15 16  1  0
 12 17  1  0
 16 17  1  0
 17 18  1  6
 18 19  2  0
 18 20  1  0
 20 21  1  0
 21 22  1  0
 22 23  1  0
 20 24  1  0
 23 24  1  0
 10 25  1  0
 17 25  1  0
  7 26  1  0
  4 27  1  0
 26 27  1  0
M  END
