piperidine-amides-33866-covalent
     RDKit          3D

 30 32  0  0  0  0  0  0  0  0999 V2000
    7.0360   -3.3840   19.4110 C   0  0  0  0  0  0  0  0  0  0  0  0
    6.4120   -4.2760   20.4080 C   0  0  0  0  0  0  0  0  0  0  0  0
    5.4220   -4.9410   20.0070 O   0  0  0  0  0  0  0  0  0  0  0  0
    6.9320   -4.4100   21.7310 N   0  0  0  0  0  0  0  0  0  0  0  0
    6.5120   -5.5220   22.5280 C   0  0  0  0  0  0  0  0  0  0  0  0
    6.1640   -5.1760   23.9200 C   0  0  0  0  0  0  0  0  0  0  0  0
    6.1590   -3.7230   24.2000 C   0  0  0  0  0  0  0  0  0  0  0  0
    5.6050   -3.2750   25.5480 C   0  0  0  0  0  0  0  0  0  0  0  0
    5.0930   -2.1460   25.5820 O   0  0  0  0  0  0  0  0  0  0  0  0
    5.5700   -4.0070   26.7710 N   0  0  0  0  0  0  0  0  0  0  0  0
    6.3760   -3.7930   27.8700 C   0  0  0  0  0  0  0  0  0  0  0  0
    6.6890   -4.9940   28.6100 C   0  0  0  0  0  0  0  0  0  0  0  0
    5.6810   -5.5730   29.2070 N   0  0  0  0  0  0  0  0  0  0  0  0
    5.7700   -6.7860   30.0080 C   0  0  0  0  0  0  0  0  0  0  0  0
    5.7770   -7.9550   29.2890 O   0  0  0  0  0  0  0  0  0  0  0  0
    5.8290   -6.6740   31.2700 O   0  0  0  0  0  0  0  0  0  0  0  0
    4.9890   -7.2690   32.1290 C   0  0  0  0  0  0  0  0  0  0  0  0
    3.7760   -7.8770   31.4190 C   0  0  0  0  0  0  0  0  0  0  0  0
    5.6290   -8.2900   33.0840 C   0  0  0  0  0  0  0  0  0  0  0  0
    4.0960   -6.3490   32.8760 C   0  0  0  0  0  0  0  0  0  0  0  0
    4.4410   -5.1150   28.7150 C   0  0  0  0  0  0  0  0  0  0  0  0
    4.3190   -4.4460   27.3050 C   0  0  2  0  0  0  0  0  0  0  0  0
    3.4350   -5.2460   26.3250 C   0  0  0  0  0  0  0  0  0  0  0  0
    3.7720   -6.6690   26.1460 C   0  0  0  0  0  0  0  0  0  0  0  0
    3.0240   -7.4440   25.2880 C   0  0  0  0  0  0  0  0  0  0  0  0
    1.9710   -6.8690   24.6110 C   0  0  0  0  0  0  0  0  0  0  0  0
    1.4540   -5.5920   24.5970 N   0  0  0  0  0  0  0  0  0  0  0  0
    2.2430   -4.7810   25.4990 C   0  0  0  0  0  0  0  0  0  0  0  0
    7.4760   -3.1320   23.8020 C   0  0  0  0  0  0  0  0  0  0  0  0
    7.6610   -3.3070   22.3030 C   0  0  0  0  0  0  0  0  0  0  0  0
  1  2  1  0
  2  3  2  0
  2  4  1  0
  4  5  1  0
  5  6  1  0
  6  7  1  0
  7  8  1  0
  8  9  2  0
  8 10  1  0
 10 11  1  0
 11 12  1  0
 12 13  1  0
 13 14  1  0
 14 15  2  0
 14 16  1  0
 17 16  1  0
 17 18  1  0
 17 19  1  0
 17 20  1  0
 13 21  1  0
 10 22  1  0
 21 22  1  0
 22 23  1  6
 23 24  2  0
 24 25  1  0
 25 26  2  0
 26 27  1  0
 23 28  1  0
 27 28  2  0
  7 29  1  0
  4 30  1  0
 29 30  1  0
M  END
