piperidine-amides-10191-covalent
     RDKit          3D

 25 27  0  0  0  0  0  0  0  0999 V2000
    7.0980   -3.2660   19.2280 C   0  0  0  0  0  0  0  0  0  0  0  0
    6.3750   -4.0110   20.2590 C   0  0  0  0  0  0  0  0  0  0  0  0
    5.3000   -4.5630   19.8950 O   0  0  0  0  0  0  0  0  0  0  0  0
    6.8890   -4.1410   21.5610 N   0  0  0  0  0  0  0  0  0  0  0  0
    6.5830   -5.3050   22.3560 C   0  0  0  0  0  0  0  0  0  0  0  0
    5.7590   -4.8610   23.5420 C   0  0  0  0  0  0  0  0  0  0  0  0
    5.6360   -3.3550   23.6370 C   0  0  0  0  0  0  0  0  0  0  0  0
    4.8570   -3.0100   24.8700 C   0  0  0  0  0  0  0  0  0  0  0  0
    3.8430   -3.7010   25.0710 O   0  0  0  0  0  0  0  0  0  0  0  0
    5.1100   -2.0080   25.8410 N   0  0  0  0  0  0  0  0  0  0  0  0
    5.2340   -2.4910   27.1850 C   0  0  1  0  0  0  0  0  0  0  0  0
    4.0810   -3.3950   27.5510 C   0  0  0  0  0  0  0  0  0  0  0  0
    6.3050   -3.3490   27.0570 C   0  0  0  0  0  0  0  0  0  0  0  0
    7.2590   -3.1600   26.1360 N   0  0  0  0  0  0  0  0  0  0  0  0
    8.0730   -4.1670   26.2560 C   0  0  0  0  0  0  0  0  0  0  0  0
    9.1630   -4.3860   25.5150 C   0  0  0  0  0  0  0  0  0  0  0  0
    9.8770   -5.4900   25.8010 C   0  0  0  0  0  0  0  0  0  0  0  0
    9.5580   -6.3660   26.7420 C   0  0  0  0  0  0  0  0  0  0  0  0
    8.3930   -6.2470   27.6390 C   0  0  0  0  0  0  0  0  0  0  0  0
    7.7090   -5.0230   27.2400 C   0  0  0  0  0  0  0  0  0  0  0  0
    6.5850   -4.4570   27.7180 N   0  0  0  0  0  0  0  0  0  0  0  0
    6.0140   -5.2030   28.7620 C   0  0  0  0  0  0  0  0  0  0  0  0
    4.9340   -4.5670   29.6150 C   0  0  0  0  0  0  0  0  0  0  0  0
    6.9530   -2.6720   23.4940 C   0  0  0  0  0  0  0  0  0  0  0  0
    7.6030   -3.0450   22.1730 C   0  0  0  0  0  0  0  0  0  0  0  0
  1  2  1  0
  2  3  2  0
  2  4  1  0
  4  5  1  0
  5  6  1  0
  6  7  1  0
  7  8  1  0
  8  9  2  0
  8 10  1  0
 10 11  1  0
 11 12  1  6
 11 13  1  0
 13 14  2  0
 14 15  1  0
 15 16  2  0
 16 17  1  0
 17 18  2  0
 18 19  1  0
 15 20  1  0
 19 20  2  0
 13 21  1  0
 20 21  1  0
 21 22  1  0
 22 23  1  0
  7 24  1  0
  4 25  1  0
 24 25  1  0
M  END
