piperidine-amides-25789-covalent
     RDKit          3D

 25 27  0  0  0  0  0  0  0  0999 V2000
    6.9950   -3.3830   19.4140 C   0  0  0  0  0  0  0  0  0  0  0  0
    6.3630   -4.2870   20.4160 C   0  0  0  0  0  0  0  0  0  0  0  0
    5.4120   -4.9540   20.0070 O   0  0  0  0  0  0  0  0  0  0  0  0
    6.8640   -4.3830   21.7320 N   0  0  0  0  0  0  0  0  0  0  0  0
    6.7140   -5.6050   22.5100 C   0  0  0  0  0  0  0  0  0  0  0  0
    6.1420   -5.2790   23.8700 C   0  0  0  0  0  0  0  0  0  0  0  0
    6.0670   -3.7670   23.9530 C   0  0  0  0  0  0  0  0  0  0  0  0
    5.5050   -3.2210   25.2250 C   0  0  0  0  0  0  0  0  0  0  0  0
    4.9300   -2.1380   25.1390 O   0  0  0  0  0  0  0  0  0  0  0  0
    5.5290   -3.8070   26.5150 N   0  0  0  0  0  0  0  0  0  0  0  0
    6.4390   -3.1790   27.3970 C   0  0  0  0  0  0  0  0  0  0  0  0
    6.7660   -4.2400   28.4130 C   0  0  0  0  0  0  0  0  0  0  0  0
    5.8710   -4.4890   29.3240 C   0  0  0  0  0  0  0  0  0  0  0  0
    4.6700   -4.6250   28.7740 C   0  0  2  0  0  0  0  0  0  0  0  0
    3.6210   -4.4750   29.6500 C   0  0  0  0  0  0  0  0  0  0  0  0
    3.3970   -3.1420   29.8190 O   0  0  0  0  0  0  0  0  0  0  0  0
    3.8790   -5.7960   29.0870 C   0  0  0  0  0  0  0  0  0  0  0  0
    4.1740   -6.6160   30.3380 C   0  0  0  0  0  0  0  0  0  0  0  0
    3.3610   -7.8510   30.7000 C   0  0  0  0  0  0  0  0  0  0  0  0
    2.2570   -8.2370   29.7810 C   0  0  0  0  0  0  0  0  0  0  0  0
    1.9730   -7.4520   28.5770 C   0  0  0  0  0  0  0  0  0  0  0  0
    2.7420   -6.2320   28.1800 C   0  0  0  0  0  0  0  0  0  0  0  0
    4.4080   -4.0050   27.4120 C   0  0  0  0  0  0  0  0  0  0  0  0
    7.4220   -3.1570   23.6500 C   0  0  0  0  0  0  0  0  0  0  0  0
    7.6850   -3.3070   22.3020 C   0  0  0  0  0  0  0  0  0  0  0  0
  1  2  1  0
  2  3  2  0
  2  4  1  0
  4  5  1  0
  5  6  1  0
  6  7  1  0
  7  8  1  0
  8  9  2  0
  8 10  1  0
 10 11  1  0
 11 12  1  0
 12 13  1  0
 13 14  1  0
 14 15  1  1
 15 16  1  0
 14 17  1  0
 17 18  2  0
 18 19  1  0
 19 20  2  0
 20 21  1  0
 17 22  1  0
 21 22  2  0
 10 23  1  0
 14 23  1  0
  7 24  1  0
  4 25  1  0
 24 25  1  0
M  END
