piperidine-amides-10380-covalent
     RDKit          3D

 24 26  0  0  0  0  0  0  0  0999 V2000
    7.0600   -3.2880   19.2900 C   0  0  0  0  0  0  0  0  0  0  0  0
    6.3570   -4.0730   20.3100 C   0  0  0  0  0  0  0  0  0  0  0  0
    5.3070   -4.6570   19.9260 O   0  0  0  0  0  0  0  0  0  0  0  0
    6.8600   -4.1980   21.6140 N   0  0  0  0  0  0  0  0  0  0  0  0
    6.6830   -5.4330   22.3400 C   0  0  0  0  0  0  0  0  0  0  0  0
    5.9490   -5.0980   23.6040 C   0  0  0  0  0  0  0  0  0  0  0  0
    5.9460   -3.6110   23.8280 C   0  0  0  0  0  0  0  0  0  0  0  0
    5.4950   -3.3260   25.2160 C   0  0  0  0  0  0  0  0  0  0  0  0
    4.8320   -4.2010   25.7990 O   0  0  0  0  0  0  0  0  0  0  0  0
    5.7420   -2.1300   25.9060 N   0  0  0  0  0  0  0  0  0  0  0  0
    6.6720   -2.0970   26.9910 C   0  0  0  0  0  0  0  0  0  0  0  0
    6.2800   -1.1690   28.1310 C   0  0  0  0  0  0  0  0  0  0  0  0
    5.1150   -0.4660   28.3080 C   0  0  0  0  0  0  0  0  0  0  0  0
    5.1690    0.2440   29.4460 C   0  0  0  0  0  0  0  0  0  0  0  0
    4.2420    1.1020   30.0400 C   0  0  0  0  0  0  0  0  0  0  0  0
    4.5770    1.7220   31.2520 C   0  0  0  0  0  0  0  0  0  0  0  0
    3.3840    2.9240   32.1610 Br  0  0  0  0  0  0  0  0  0  0  0  0
    5.8060    1.4800   31.8430 C   0  0  0  0  0  0  0  0  0  0  0  0
    6.7720    0.5480   31.1690 C   0  0  0  0  0  0  0  0  0  0  0  0
    8.0540    0.4300   31.9880 C   0  0  0  0  0  0  0  0  0  0  0  0
    6.3700   -0.0100   29.9940 C   0  0  0  0  0  0  0  0  0  0  0  0
    7.0610   -0.9140   29.1350 O   0  0  0  0  0  0  0  0  0  0  0  0
    7.3130   -3.0300   23.5910 C   0  0  0  0  0  0  0  0  0  0  0  0
    7.6750   -3.1490   22.2560 C   0  0  0  0  0  0  0  0  0  0  0  0
  1  2  1  0
  2  3  2  0
  2  4  1  0
  4  5  1  0
  5  6  1  0
  6  7  1  0
  7  8  1  0
  8  9  2  0
  8 10  1  0
 10 11  1  0
 11 12  1  0
 12 13  2  0
 13 14  1  0
 14 15  2  0
 15 16  1  0
 16 17  1  0
 16 18  2  0
 18 19  1  0
 19 20  1  0
 14 21  1  0
 19 21  2  0
 12 22  1  0
 21 22  1  0
  7 23  1  0
  4 24  1  0
 23 24  1  0
M  END
