piperidine-amides-2507-covalent
     RDKit          3D

 26 27  0  0  0  0  0  0  0  0999 V2000
    7.1180   -3.2680   19.2220 C   0  0  0  0  0  0  0  0  0  0  0  0
    6.3010   -4.0040   20.2190 C   0  0  0  0  0  0  0  0  0  0  0  0
    5.2330   -4.4720   19.8430 O   0  0  0  0  0  0  0  0  0  0  0  0
    6.7800   -4.1800   21.5130 N   0  0  0  0  0  0  0  0  0  0  0  0
    7.6440   -3.2170   22.1510 C   0  0  0  0  0  0  0  0  0  0  0  0
    6.9900   -2.7050   23.3960 C   0  0  0  0  0  0  0  0  0  0  0  0
    6.5260   -3.9040   24.2170 C   0  0  0  0  0  0  0  0  0  0  0  0
    5.8300   -3.3810   25.4060 C   0  0  0  0  0  0  0  0  0  0  0  0
    4.5920   -3.2850   25.4110 O   0  0  0  0  0  0  0  0  0  0  0  0
    6.5810   -2.9850   26.5290 N   0  0  0  0  0  0  0  0  0  0  0  0
    6.0740   -3.1760   27.8680 C   0  0  0  0  0  0  0  0  0  0  0  0
    6.3680   -4.5790   28.3690 C   0  0  0  0  0  0  0  0  0  0  0  0
    5.6220   -5.1620   29.3570 C   0  0  0  0  0  0  0  0  0  0  0  0
    4.6750   -4.4940   29.8590 O   0  0  0  0  0  0  0  0  0  0  0  0
    5.7890   -6.4580   29.9020 N   0  0  0  0  0  0  0  0  0  0  0  0
    4.7220   -7.1170   30.6240 C   0  0  0  0  0  0  0  0  0  0  0  0
    3.6080   -7.4790   29.9580 C   0  0  0  0  0  0  0  0  0  0  0  0
    2.3770   -8.1710   30.5240 C   0  0  0  0  0  0  0  0  0  0  0  0
    0.9230   -8.6530   29.6900 Cl  0  0  0  0  0  0  0  0  0  0  0  0
    2.5930   -8.4070   32.0110 C   0  0  0  0  0  0  0  0  0  0  0  0
    3.8550   -7.9970   32.7590 C   0  0  0  0  0  0  0  0  0  0  0  0
    4.9170   -7.3290   31.9620 C   0  0  0  0  0  0  0  0  0  0  0  0
    5.9840   -6.9650   32.5370 O   0  0  0  0  0  0  0  0  0  0  0  0
    6.0500   -7.0490   33.9390 C   0  0  0  0  0  0  0  0  0  0  0  0
    5.7730   -4.9410   23.4800 C   0  0  0  0  0  0  0  0  0  0  0  0
    6.4610   -5.3880   22.2430 C   0  0  0  0  0  0  0  0  0  0  0  0
  1  2  1  0
  2  3  2  0
  2  4  1  0
  4  5  1  0
  5  6  1  0
  6  7  1  0
  7  8  1  0
  8  9  2  0
  8 10  1  0
 10 11  1  0
 11 12  1  0
 12 13  1  0
 13 14  2  0
 13 15  1  0
 15 16  1  0
 16 17  2  0
 17 18  1  0
 18 19  1  0
 18 20  2  0
 20 21  1  0
 16 22  1  0
 21 22  2  0
 22 23  1  0
 23 24  1  0
  7 25  1  0
  4 26  1  0
 25 26  1  0
M  END
