piperidine-amides-7389-covalent
     RDKit          3D

 20 21  0  0  0  0  0  0  0  0999 V2000
    7.0870   -3.3230   19.3100 C   0  0  0  0  0  0  0  0  0  0  0  0
    6.3910   -4.1350   20.3080 C   0  0  0  0  0  0  0  0  0  0  0  0
    5.3350   -4.7090   19.9430 O   0  0  0  0  0  0  0  0  0  0  0  0
    6.9340   -4.2810   21.5820 N   0  0  0  0  0  0  0  0  0  0  0  0
    7.7060   -3.2270   22.1970 C   0  0  0  0  0  0  0  0  0  0  0  0
    6.9270   -2.7290   23.3690 C   0  0  0  0  0  0  0  0  0  0  0  0
    6.5510   -3.8680   24.2730 C   0  0  0  0  0  0  0  0  0  0  0  0
    5.8040   -3.3770   25.4540 C   0  0  0  0  0  0  0  0  0  0  0  0
    4.5480   -3.3290   25.4360 O   0  0  0  0  0  0  0  0  0  0  0  0
    6.4610   -2.9660   26.6230 N   0  0  0  0  0  0  0  0  0  0  0  0
    6.3880   -1.6270   27.1680 C   0  0  0  0  0  0  0  0  0  0  0  0
    6.9650   -1.5130   28.5650 C   0  0  0  0  0  0  0  0  0  0  0  0
    6.9810   -0.3310   29.2540 C   0  0  0  0  0  0  0  0  0  0  0  0
    6.4560    0.8090   28.6730 C   0  0  0  0  0  0  0  0  0  0  0  0
    6.4220    2.3600   29.4680 Cl  0  0  0  0  0  0  0  0  0  0  0  0
    5.9320    0.6980   27.3890 C   0  0  0  0  0  0  0  0  0  0  0  0
    5.8700   -0.4480   26.6080 C   0  0  0  0  0  0  0  0  0  0  0  0
    5.3030   -0.3870   25.3290 O   0  0  0  0  0  0  0  0  0  0  0  0
    5.7050   -4.9380   23.5870 C   0  0  0  0  0  0  0  0  0  0  0  0
    6.4420   -5.4140   22.3640 C   0  0  0  0  0  0  0  0  0  0  0  0
  1  2  1  0
  2  3  2  0
  2  4  1  0
  4  5  1  0
  5  6  1  0
  6  7  1  0
  7  8  1  0
  8  9  2  0
  8 10  1  0
 10 11  1  0
 11 12  2  0
 12 13  1  0
 13 14  2  0
 14 15  1  0
 14 16  1  0
 11 17  1  0
 16 17  2  0
 17 18  1  0
  7 19  1  0
  4 20  1  0
 19 20  1  0
M  END
