piperidine-amides-27855-covalent
     RDKit          3D

 26 28  0  0  0  0  0  0  0  0999 V2000
    7.1360   -3.3190   19.1820 C   0  0  0  0  0  0  0  0  0  0  0  0
    6.4400   -4.1040   20.2200 C   0  0  0  0  0  0  0  0  0  0  0  0
    5.3400   -4.6110   19.9090 O   0  0  0  0  0  0  0  0  0  0  0  0
    7.0420   -4.3160   21.4600 N   0  0  0  0  0  0  0  0  0  0  0  0
    6.6810   -5.4490   22.2360 C   0  0  0  0  0  0  0  0  0  0  0  0
    6.1910   -5.1130   23.5710 C   0  0  0  0  0  0  0  0  0  0  0  0
    6.6590   -3.8220   24.1190 C   0  0  0  0  0  0  0  0  0  0  0  0
    5.6500   -3.3330   25.0600 C   0  0  0  0  0  0  0  0  0  0  0  0
    4.8460   -2.4700   24.6780 O   0  0  0  0  0  0  0  0  0  0  0  0
    5.5740   -3.8230   26.3480 N   0  0  0  0  0  0  0  0  0  0  0  0
    4.2750   -4.0760   26.8790 C   0  0  0  0  0  0  0  0  0  0  0  0
    3.0770   -4.2260   26.0260 C   0  0  0  0  0  0  0  0  0  0  0  0
    1.8520   -4.4690   26.7590 C   0  0  0  0  0  0  0  0  0  0  0  0
    1.8860   -4.5390   28.1400 C   0  0  0  0  0  0  0  0  0  0  0  0
    3.0550   -4.3890   28.8880 C   0  0  0  0  0  0  0  0  0  0  0  0
    4.2600   -4.1580   28.2780 C   0  0  0  0  0  0  0  0  0  0  0  0
    5.3930   -4.0170   28.9870 C   0  0  2  0  0  0  0  0  0  0  0  0
    5.9200   -2.7850   29.3530 C   0  0  0  0  0  0  0  0  0  0  0  0
    5.2430   -1.9670   30.2050 O   0  0  0  0  0  0  0  0  0  0  0  0
    7.1730   -2.3970   28.9320 O   0  0  0  0  0  0  0  0  0  0  0  0
    7.6930   -1.2820   29.5560 C   0  0  0  0  0  0  0  0  0  0  0  0
    6.7190   -4.3580   28.3980 C   0  0  0  0  0  0  0  0  0  0  0  0
    6.2480   -3.2750   27.3890 C   0  0  2  0  0  0  0  0  0  0  0  0
    5.5270   -2.1300   28.0520 C   0  0  0  0  0  0  0  0  0  0  0  0
    7.0450   -2.7640   23.1960 C   0  0  0  0  0  0  0  0  0  0  0  0
    7.8690   -3.2940   22.0750 C   0  0  0  0  0  0  0  0  0  0  0  0
  1  2  1  0
  2  3  2  0
  2  4  1  0
  4  5  1  0
  5  6  1  0
  6  7  1  0
  7  8  1  0
  8  9  2  0
  8 10  1  0
 10 11  1  0
 11 12  2  0
 12 13  1  0
 13 14  2  0
 14 15  1  0
 11 16  1  0
 15 16  2  0
 16 17  1  0
 17 18  1  6
 18 19  2  0
 18 20  1  0
 20 21  1  0
 17 22  1  0
 10 23  1  0
 22 23  1  0
 23 24  1  1
  7 25  1  0
  4 26  1  0
 25 26  1  0
M  END
