piperidine-amides-34865-covalent
     RDKit          3D

 29 31  0  0  0  0  0  0  0  0999 V2000
    7.0120   -3.3420   19.3220 C   0  0  0  0  0  0  0  0  0  0  0  0
    6.3630   -4.2180   20.3330 C   0  0  0  0  0  0  0  0  0  0  0  0
    5.3580   -4.8210   19.9720 O   0  0  0  0  0  0  0  0  0  0  0  0
    6.9180   -4.3820   21.6090 N   0  0  0  0  0  0  0  0  0  0  0  0
    6.6700   -5.5710   22.3750 C   0  0  0  0  0  0  0  0  0  0  0  0
    5.9770   -5.1990   23.6550 C   0  0  0  0  0  0  0  0  0  0  0  0
    6.7460   -4.0750   24.3540 C   0  0  0  0  0  0  0  0  0  0  0  0
    5.9350   -3.6010   25.5000 C   0  0  0  0  0  0  0  0  0  0  0  0
    4.9280   -2.9110   25.2860 O   0  0  0  0  0  0  0  0  0  0  0  0
    6.2710   -3.9360   26.8320 N   0  0  0  0  0  0  0  0  0  0  0  0
    5.3950   -3.5390   27.8990 C   0  0  0  0  0  0  0  0  0  0  0  0
    5.7280   -4.4110   29.1000 C   0  0  0  0  0  0  0  0  0  0  0  0
    5.3190   -5.8040   28.8190 N   0  0  0  0  0  0  0  0  0  0  0  0
    5.1670   -6.5190   30.1090 C   0  0  0  0  0  0  0  0  0  0  0  0
    5.8570   -6.5670   31.1880 O   0  0  0  0  0  0  0  0  0  0  0  0
    4.0420   -7.2840   30.0760 C   0  0  0  0  0  0  0  0  0  0  0  0
    3.4530   -7.4570   31.1670 O   0  0  0  0  0  0  0  0  0  0  0  0
    2.4040   -8.3920   31.2640 C   0  0  0  0  0  0  0  0  0  0  0  0
    1.5670   -8.7180   30.0490 C   0  0  0  0  0  0  0  0  0  0  0  0
    0.4890   -9.7350   30.2720 C   0  0  0  0  0  0  0  0  0  0  0  0
    0.2810  -10.3670   31.6260 C   0  0  0  0  0  0  0  0  0  0  0  0
   -0.9730  -11.5490   31.8720 Cl  0  0  0  0  0  0  0  0  0  0  0  0
    1.2060   -9.9170   32.7110 C   0  0  0  0  0  0  0  0  0  0  0  0
    2.3250   -8.9250   32.6640 C   0  0  0  0  0  0  0  0  0  0  0  0
    3.3660   -8.4600   33.9940 Cl  0  0  0  0  0  0  0  0  0  0  0  0
    6.5200   -6.1010   28.1150 C   0  0  0  0  0  0  0  0  0  0  0  0
    7.0880   -4.9390   27.4260 C   0  0  0  0  0  0  0  0  0  0  0  0
    6.9410   -2.9190   23.3810 C   0  0  0  0  0  0  0  0  0  0  0  0
    7.6550   -3.3170   22.2760 C   0  0  0  0  0  0  0  0  0  0  0  0
  1  2  1  0
  2  3  2  0
  2  4  1  0
  4  5  1  0
  5  6  1  0
  6  7  1  0
  7  8  1  0
  8  9  2  0
  8 10  1  0
 10 11  1  0
 11 12  1  0
 12 13  1  0
 13 14  1  0
 14 15  2  0
 14 16  1  0
 16 17  1  0
 17 18  1  0
 18 19  2  0
 19 20  1  0
 20 21  2  0
 21 22  1  0
 21 23  1  0
 18 24  1  0
 23 24  2  0
 24 25  1  0
 13 26  1  0
 10 27  1  0
 26 27  1  0
  7 28  1  0
  4 29  1  0
 28 29  1  0
M  END
