piperidine-amides-2596-covalent
     RDKit          3D

 25 27  0  0  0  0  0  0  0  0999 V2000
    7.0680   -3.3410   19.3500 C   0  0  0  0  0  0  0  0  0  0  0  0
    6.3590   -4.1740   20.3550 C   0  0  0  0  0  0  0  0  0  0  0  0
    5.3710   -4.8010   19.9690 O   0  0  0  0  0  0  0  0  0  0  0  0
    6.8460   -4.2520   21.6650 N   0  0  0  0  0  0  0  0  0  0  0  0
    6.6750   -5.4400   22.4650 C   0  0  0  0  0  0  0  0  0  0  0  0
    6.0690   -5.0820   23.7970 C   0  0  0  0  0  0  0  0  0  0  0  0
    6.1170   -3.5640   24.0050 C   0  0  0  0  0  0  0  0  0  0  0  0
    5.6800   -3.2390   25.3820 C   0  0  0  0  0  0  0  0  0  0  0  0
    4.5420   -3.5740   25.7390 O   0  0  0  0  0  0  0  0  0  0  0  0
    6.5170   -2.5440   26.2840 N   0  0  0  0  0  0  0  0  0  0  0  0
    5.9050   -1.5080   27.1040 C   0  0  1  0  0  0  0  0  0  0  0  0
    6.8480   -1.3940   28.2950 C   0  0  0  0  0  0  0  0  0  0  0  0
    6.8430   -0.3820   29.2140 C   0  0  0  0  0  0  0  0  0  0  0  0
    6.1450    0.7440   28.9180 C   0  0  2  0  0  0  0  0  0  0  0  0
    5.2770    1.3550   29.9060 N   0  0  0  0  0  0  0  0  0  0  0  0
    4.4510    0.4750   30.6990 C   0  0  0  0  0  0  0  0  0  0  0  0
    4.3200    0.8600   32.1550 C   0  0  0  0  0  0  0  0  0  0  0  0
    3.4820    2.0520   31.8350 C   0  0  0  0  0  0  0  0  0  0  0  0
    4.5350    3.1180   31.7160 C   0  0  0  0  0  0  0  0  0  0  0  0
    5.4320    2.6320   30.6140 C   0  0  0  0  0  0  0  0  0  0  0  0
    6.4470    3.5590   30.3380 O   0  0  0  0  0  0  0  0  0  0  0  0
    5.3410   -0.1220   27.9240 C   0  0  0  0  0  0  0  0  0  0  0  0
    5.6710   -0.1420   26.4420 C   0  0  0  0  0  0  0  0  0  0  0  0
    7.5050   -3.0710   23.7000 C   0  0  0  0  0  0  0  0  0  0  0  0
    7.6920   -3.1960   22.2140 C   0  0  0  0  0  0  0  0  0  0  0  0
  1  2  1  0
  2  3  2  0
  2  4  1  0
  4  5  1  0
  5  6  1  0
  6  7  1  0
  7  8  1  0
  8  9  2  0
  8 10  1  0
 11 10  1  6
 11 12  1  0
 12 13  1  0
 13 14  1  0
 14 15  1  1
 15 16  1  0
 16 17  1  0
 17 18  1  0
 18 19  1  0
 15 20  1  0
 19 20  1  0
 20 21  2  0
 14 22  1  0
 11 23  1  0
 22 23  1  0
  7 24  1  0
  4 25  1  0
 24 25  1  0
M  END
