piperidine-amides-14160-covalent
     RDKit          3D

 24 26  0  0  0  0  0  0  0  0999 V2000
    7.1350   -3.2530   19.2100 C   0  0  0  0  0  0  0  0  0  0  0  0
    6.3410   -4.0250   20.2050 C   0  0  0  0  0  0  0  0  0  0  0  0
    5.2570   -4.5220   19.8670 O   0  0  0  0  0  0  0  0  0  0  0  0
    6.8700   -4.2220   21.4920 N   0  0  0  0  0  0  0  0  0  0  0  0
    6.5530   -5.3820   22.2860 C   0  0  0  0  0  0  0  0  0  0  0  0
    5.6840   -4.8850   23.4420 C   0  0  0  0  0  0  0  0  0  0  0  0
    6.5060   -3.8980   24.2030 C   0  0  0  0  0  0  0  0  0  0  0  0
    5.7970   -3.3260   25.3670 C   0  0  0  0  0  0  0  0  0  0  0  0
    4.5650   -3.2670   25.2790 O   0  0  0  0  0  0  0  0  0  0  0  0
    6.5160   -2.8830   26.4810 N   0  0  0  0  0  0  0  0  0  0  0  0
    6.2000   -3.1060   27.8490 C   0  0  0  0  0  0  0  0  0  0  0  0
    5.1850   -2.4400   28.5050 C   0  0  2  0  0  0  0  0  0  0  0  0
    4.5640   -1.3010   27.9610 C   0  0  0  0  0  0  0  0  0  0  0  0
    4.8480   -0.1930   28.6850 C   0  0  0  0  0  0  0  0  0  0  0  0
    5.6830   -0.5450   29.8360 C   0  0  2  0  0  0  0  0  0  0  0  0
    5.0210   -0.3310   31.2070 C   0  0  0  0  0  0  0  0  0  0  0  0
    5.6750    0.9080   31.8240 C   0  0  0  0  0  0  0  0  0  0  0  0
    7.0400    0.8060   31.9990 C   0  0  1  0  0  0  0  0  0  0  0  0
    7.5130    0.3910   33.3440 C   0  0  0  0  0  0  0  0  0  0  0  0
    7.6370    0.0620   30.9790 C   0  0  0  0  0  0  0  0  0  0  0  0
    6.9570   -0.0310   29.7970 C   0  0  0  0  0  0  0  0  0  0  0  0
    5.8020   -1.8790   29.7330 O   0  0  0  0  0  0  0  0  0  0  0  0
    7.0090   -2.7430   23.4050 C   0  0  0  0  0  0  0  0  0  0  0  0
    7.6660   -3.1820   22.1280 C   0  0  0  0  0  0  0  0  0  0  0  0
  1  2  1  0
  2  3  2  0
  2  4  1  0
  4  5  1  0
  5  6  1  0
  6  7  1  0
  7  8  1  0
  8  9  2  0
  8 10  1  0
 10 11  1  0
 12 11  1  6
 12 13  1  0
 13 14  1  0
 15 14  1  6
 15 16  1  0
 16 17  1  0
 17 18  1  0
 18 19  1  1
 18 20  1  0
 15 21  1  0
 20 21  1  0
 12 22  1  0
 15 22  1  0
  7 23  1  0
  4 24  1  0
 23 24  1  0
M  END
