piperidine-amides-3934-covalent
     RDKit          3D

 31 32  0  0  0  0  0  0  0  0999 V2000
    7.0950   -3.3190   19.3180 C   0  0  0  0  0  0  0  0  0  0  0  0
    6.4030   -4.1450   20.3240 C   0  0  0  0  0  0  0  0  0  0  0  0
    5.3530   -4.7250   19.9510 O   0  0  0  0  0  0  0  0  0  0  0  0
    6.9270   -4.3260   21.6360 N   0  0  0  0  0  0  0  0  0  0  0  0
    7.6900   -3.2800   22.2300 C   0  0  0  0  0  0  0  0  0  0  0  0
    7.3150   -3.0210   23.6070 C   0  0  0  0  0  0  0  0  0  0  0  0
    6.0520   -3.6840   23.9730 C   0  0  0  0  0  0  0  0  0  0  0  0
    5.5930   -3.3520   25.3640 C   0  0  0  0  0  0  0  0  0  0  0  0
    4.3880   -3.4970   25.6590 O   0  0  0  0  0  0  0  0  0  0  0  0
    6.5030   -2.8770   26.3240 N   0  0  0  0  0  0  0  0  0  0  0  0
    6.4870   -1.7400   27.1880 C   0  0  0  0  0  0  0  0  0  0  0  0
    7.0620   -1.6560   28.4990 C   0  0  0  0  0  0  0  0  0  0  0  0
    6.9600   -0.3300   29.2850 C   0  0  0  0  0  0  0  0  0  0  0  0
    6.3400    0.8640   28.8610 C   0  0  0  0  0  0  0  0  0  0  0  0
    5.6690    0.9080   27.4630 C   0  0  0  0  0  0  0  0  0  0  0  0
    5.8780   -0.4300   26.8900 C   0  0  0  0  0  0  0  0  0  0  0  0
    5.3120   -0.7030   25.5000 C   0  0  0  0  0  0  0  0  0  0  0  0
    4.0750   -0.0520   25.2190 N   0  0  0  0  0  0  0  0  0  0  0  0
    4.3670    1.0310   24.3720 C   0  0  0  0  0  0  0  0  0  0  0  0
    3.9360    0.8960   22.9250 C   0  0  0  0  0  0  0  0  0  0  0  0
    4.2420    2.1040   22.1640 N   0  0  0  0  0  0  0  0  0  0  0  0
    3.3910   -0.0910   22.3830 O   0  0  0  0  0  0  0  0  0  0  0  0
    3.0740    0.1370   26.2060 C   0  0  0  0  0  0  0  0  0  0  0  0
    2.6110    1.1640   26.7710 O   0  0  0  0  0  0  0  0  0  0  0  0
    2.3500   -1.0380   26.7670 C   0  0  0  0  0  0  0  0  0  0  0  0
    0.9840   -1.1490   26.5080 C   0  0  0  0  0  0  0  0  0  0  0  0
    0.5560   -0.6150   25.3050 C   0  0  0  0  0  0  0  0  0  0  0  0
    0.4830   -2.4350   26.4700 C   0  0  0  0  0  0  0  0  0  0  0  0
    0.1840   -0.3960   27.5170 C   0  0  0  0  0  0  0  0  0  0  0  0
    6.2220   -5.1790   23.7950 C   0  0  0  0  0  0  0  0  0  0  0  0
    6.6190   -5.5360   22.3650 C   0  0  0  0  0  0  0  0  0  0  0  0
  1  2  1  0
  2  3  2  0
  2  4  1  0
  4  5  1  0
  5  6  1  0
  6  7  1  0
  7  8  1  0
  8  9  2  0
  8 10  1  0
 10 11  1  0
 11 12  2  0
 12 13  1  0
 13 14  2  0
 14 15  1  0
 11 16  1  0
 15 16  2  0
 16 17  1  0
 17 18  1  0
 18 19  1  0
 19 20  1  0
 20 21  1  0
 20 22  2  0
 18 23  1  0
 23 24  2  0
 23 25  1  0
 26 25  1  0
 26 27  1  0
 26 28  1  0
 26 29  1  0
  7 30  1  0
  4 31  1  0
 30 31  1  0
M  END
