piperidine-amides-19113-covalent
     RDKit          3D

 22 23  0  0  0  0  0  0  0  0999 V2000
    7.0790   -3.3780   19.3270 C   0  0  0  0  0  0  0  0  0  0  0  0
    6.3830   -4.1480   20.3360 C   0  0  0  0  0  0  0  0  0  0  0  0
    5.3440   -4.7700   19.9690 O   0  0  0  0  0  0  0  0  0  0  0  0
    6.8270   -4.2980   21.6690 N   0  0  0  0  0  0  0  0  0  0  0  0
    7.8090   -3.2890   22.1590 C   0  0  0  0  0  0  0  0  0  0  0  0
    7.6370   -3.3790   23.7270 C   0  0  0  0  0  0  0  0  0  0  0  0
    6.2280   -3.8710   23.9540 C   0  0  0  0  0  0  0  0  0  0  0  0
    5.5900   -3.2180   25.2580 C   0  0  0  0  0  0  0  0  0  0  0  0
    4.4110   -2.9510   25.0720 O   0  0  0  0  0  0  0  0  0  0  0  0
    6.4800   -3.1450   26.1620 N   0  0  0  0  0  0  0  0  0  0  0  0
    7.4080   -3.5990   27.0620 C   0  0  0  0  0  0  0  0  0  0  0  0
    7.6220   -4.8210   27.6720 C   0  0  0  0  0  0  0  0  0  0  0  0
    6.3480   -1.6750   26.3150 C   0  0  0  0  0  0  0  0  0  0  0  0
    6.1700   -1.1850   27.7640 C   0  0  0  0  0  0  0  0  0  0  0  0
    6.0550    0.2190   27.4700 N   0  0  0  0  0  0  0  0  0  0  0  0
    6.0950    0.9130   26.2210 C   0  0  0  0  0  0  0  0  0  0  0  0
    5.9960    2.2350   25.7630 C   0  0  0  0  0  0  0  0  0  0  0  0
    6.9710    2.7630   25.0110 N   0  0  0  0  0  0  0  0  0  0  0  0
    6.2780    0.2700   24.9380 C   0  0  0  0  0  0  0  0  0  0  0  0
    6.3990   -1.0540   25.0820 N   0  0  0  0  0  0  0  0  0  0  0  0
    5.9780   -5.2490   23.6720 C   0  0  0  0  0  0  0  0  0  0  0  0
    6.7700   -5.5240   22.3580 C   0  0  0  0  0  0  0  0  0  0  0  0
  1  2  1  0
  2  3  2  0
  2  4  1  0
  4  5  1  0
  5  6  1  0
  6  7  1  0
  7  8  1  0
  8  9  2  0
  8 10  1  0
 10 11  1  0
 11 12  1  0
 10 13  1  0
 13 14  2  0
 14 15  1  0
 15 16  2  0
 16 17  1  0
 17 18  3  0
 16 19  1  0
 13 20  1  0
 19 20  2  0
  7 21  1  0
  4 22  1  0
 21 22  1  0
M  END
