piperidine-amides-9946-covalent
     RDKit          3D

 27 29  0  0  0  0  0  0  0  0999 V2000
    7.0340   -3.3460   19.3470 C   0  0  0  0  0  0  0  0  0  0  0  0
    6.3860   -4.1870   20.3600 C   0  0  0  0  0  0  0  0  0  0  0  0
    5.3790   -4.8410   19.9790 O   0  0  0  0  0  0  0  0  0  0  0  0
    6.9020   -4.2810   21.6590 N   0  0  0  0  0  0  0  0  0  0  0  0
    7.7460   -3.2360   22.2060 C   0  0  0  0  0  0  0  0  0  0  0  0
    7.4340   -3.0830   23.6590 C   0  0  0  0  0  0  0  0  0  0  0  0
    6.0480   -3.5760   23.9610 C   0  0  0  0  0  0  0  0  0  0  0  0
    5.6450   -3.2220   25.3390 C   0  0  0  0  0  0  0  0  0  0  0  0
    4.4320   -3.3050   25.6390 O   0  0  0  0  0  0  0  0  0  0  0  0
    6.5600   -2.8030   26.3200 N   0  0  0  0  0  0  0  0  0  0  0  0
    6.4610   -1.5320   27.0020 C   0  0  0  0  0  0  0  0  0  0  0  0
    6.9980   -1.5470   28.4220 C   0  0  0  0  0  0  0  0  0  0  0  0
    6.9700   -0.4220   29.1860 C   0  0  0  0  0  0  0  0  0  0  0  0
    6.4430    0.7220   28.6340 C   0  0  0  0  0  0  0  0  0  0  0  0
    5.9310    0.8210   27.3420 C   0  0  0  0  0  0  0  0  0  0  0  0
    5.9440   -0.3100   26.5300 C   0  0  0  0  0  0  0  0  0  0  0  0
    5.4490   -0.2040   25.2790 N   0  0  0  0  0  0  0  0  0  0  0  0
    4.8020    0.9010   24.8280 C   0  0  0  0  0  0  0  0  0  0  0  0
    3.9210    1.6810   25.5910 O   0  0  0  0  0  0  0  0  0  0  0  0
    5.1600    1.1840   23.3830 C   0  0  0  0  0  0  0  0  0  0  0  0
    5.5830   -0.0340   22.6110 C   0  0  0  0  0  0  0  0  0  0  0  0
    5.9820   -0.0340   21.1800 C   0  0  0  0  0  0  0  0  0  0  0  0
    5.9660    1.1360   20.5180 N   0  0  0  0  0  0  0  0  0  0  0  0
    5.5720    2.2070   21.2770 C   0  0  0  0  0  0  0  0  0  0  0  0
    5.1720    2.3560   22.6210 C   0  0  0  0  0  0  0  0  0  0  0  0
    6.0280   -5.0840   23.7640 C   0  0  0  0  0  0  0  0  0  0  0  0
    6.7300   -5.4770   22.4650 C   0  0  0  0  0  0  0  0  0  0  0  0
  1  2  1  0
  2  3  2  0
  2  4  1  0
  4  5  1  0
  5  6  1  0
  6  7  1  0
  7  8  1  0
  8  9  2  0
  8 10  1  0
 10 11  1  0
 11 12  2  0
 12 13  1  0
 13 14  2  0
 14 15  1  0
 11 16  1  0
 15 16  2  0
 16 17  1  0
 17 18  1  0
 18 19  2  0
 18 20  1  0
 20 21  2  0
 21 22  1  0
 22 23  2  0
 23 24  1  0
 20 25  1  0
 24 25  2  0
  7 26  1  0
  4 27  1  0
 26 27  1  0
M  END
