piperidine-amides-27372-covalent
     RDKit          3D

 26 28  0  0  0  0  0  0  0  0999 V2000
    7.0540   -3.3550   19.3420 C   0  0  0  0  0  0  0  0  0  0  0  0
    6.4090   -4.2120   20.3440 C   0  0  0  0  0  0  0  0  0  0  0  0
    5.3620   -4.8080   19.9720 O   0  0  0  0  0  0  0  0  0  0  0  0
    6.9690   -4.3890   21.6160 N   0  0  0  0  0  0  0  0  0  0  0  0
    6.6370   -5.5370   22.4220 C   0  0  0  0  0  0  0  0  0  0  0  0
    5.9200   -5.0540   23.6580 C   0  0  0  0  0  0  0  0  0  0  0  0
    6.6260   -3.9120   24.3560 C   0  0  0  0  0  0  0  0  0  0  0  0
    5.7770   -3.4190   25.4640 C   0  0  0  0  0  0  0  0  0  0  0  0
    4.5940   -3.1150   25.1930 O   0  0  0  0  0  0  0  0  0  0  0  0
    6.2170   -3.2550   26.7950 N   0  0  0  0  0  0  0  0  0  0  0  0
    6.7300   -4.3790   27.5720 C   0  0  0  0  0  0  0  0  0  0  0  0
    5.6960   -5.3750   28.0750 C   0  0  0  0  0  0  0  0  0  0  0  0
    5.0260   -6.4000   27.4020 C   0  0  0  0  0  0  0  0  0  0  0  0
    4.2030   -7.0310   28.2830 C   0  0  0  0  0  0  0  0  0  0  0  0
    4.3390   -6.4320   29.4830 C   0  0  0  0  0  0  0  0  0  0  0  0
    5.2630   -5.4310   29.2900 O   0  0  0  0  0  0  0  0  0  0  0  0
    6.3090   -1.9080   27.3070 C   0  0  0  0  0  0  0  0  0  0  0  0
    6.8990   -1.7700   28.5640 C   0  0  0  0  0  0  0  0  0  0  0  0
    7.1030   -0.4680   29.3270 C   0  0  0  0  0  0  0  0  0  0  0  0
    6.5920    0.7690   28.5990 C   0  0  0  0  0  0  0  0  0  0  0  0
    6.6380    2.2060   29.0740 C   0  0  0  0  0  0  0  0  0  0  0  0
    5.9450    0.5910   27.2000 C   0  0  0  0  0  0  0  0  0  0  0  0
    5.4230    1.5530   26.3620 C   0  0  0  0  0  0  0  0  0  0  0  0
    5.8410   -0.8120   26.6120 C   0  0  0  0  0  0  0  0  0  0  0  0
    6.8480   -2.7710   23.4000 C   0  0  0  0  0  0  0  0  0  0  0  0
    7.6910   -3.2980   22.2420 C   0  0  0  0  0  0  0  0  0  0  0  0
  1  2  1  0
  2  3  2  0
  2  4  1  0
  4  5  1  0
  5  6  1  0
  6  7  1  0
  7  8  1  0
  8  9  2  0
  8 10  1  0
 10 11  1  0
 11 12  1  0
 12 13  2  0
 13 14  1  0
 14 15  2  0
 12 16  1  0
 15 16  1  0
 10 17  1  0
 17 18  2  0
 18 19  1  0
 19 20  2  0
 20 21  1  0
 20 22  1  0
 22 23  1  0
 17 24  1  0
 22 24  2  0
  7 25  1  0
  4 26  1  0
 25 26  1  0
M  END
