piperidine-amides-26884-covalent
     RDKit          3D

 24 25  0  0  0  0  0  0  0  0999 V2000
    7.1050   -3.2700   19.2260 C   0  0  0  0  0  0  0  0  0  0  0  0
    6.3680   -4.0210   20.2510 C   0  0  0  0  0  0  0  0  0  0  0  0
    5.2870   -4.5540   19.8840 O   0  0  0  0  0  0  0  0  0  0  0  0
    6.8770   -4.1650   21.5420 N   0  0  0  0  0  0  0  0  0  0  0  0
    6.6600   -5.3730   22.3090 C   0  0  0  0  0  0  0  0  0  0  0  0
    6.1330   -5.0100   23.6740 C   0  0  0  0  0  0  0  0  0  0  0  0
    6.2980   -3.5470   24.0010 C   0  0  0  0  0  0  0  0  0  0  0  0
    6.1500   -3.3300   25.4480 C   0  0  0  0  0  0  0  0  0  0  0  0
    5.0110   -2.9990   25.8580 O   0  0  0  0  0  0  0  0  0  0  0  0
    7.2160   -3.4760   26.3750 N   0  0  0  0  0  0  0  0  0  0  0  0
    7.9040   -2.2700   26.7820 C   0  0  0  0  0  0  0  0  0  0  0  0
    7.1390   -4.6580   27.2260 C   0  0  1  0  0  0  0  0  0  0  0  0
    8.1660   -4.7690   28.1410 C   0  0  0  0  0  0  0  0  0  0  0  0
    5.7840   -4.6470   27.8950 C   0  0  2  0  0  0  0  0  0  0  0  0
    5.9950   -3.3520   28.3680 C   0  0  0  0  0  0  0  0  0  0  0  0
    5.5110   -5.4930   29.1150 C   0  0  0  0  0  0  0  0  0  0  0  0
    6.2060   -6.6360   29.4900 C   0  0  0  0  0  0  0  0  0  0  0  0
    6.0260   -7.5650   30.6880 C   0  0  0  0  0  0  0  0  0  0  0  0
    4.8920   -7.1500   31.6110 C   0  0  0  0  0  0  0  0  0  0  0  0
    4.5640   -8.1130   33.0370 Cl  0  0  0  0  0  0  0  0  0  0  0  0
    4.1130   -5.9340   31.2530 C   0  0  0  0  0  0  0  0  0  0  0  0
    4.3780   -5.0900   30.0390 C   0  0  0  0  0  0  0  0  0  0  0  0
    7.5910   -2.9800   23.5470 C   0  0  0  0  0  0  0  0  0  0  0  0
    7.7620   -3.1520   22.0660 C   0  0  0  0  0  0  0  0  0  0  0  0
  1  2  1  0
  2  3  2  0
  2  4  1  0
  4  5  1  0
  5  6  1  0
  6  7  1  0
  7  8  1  0
  8  9  2  0
  8 10  1  0
 10 11  1  0
 10 12  1  0
 12 13  1  1
 12 14  1  0
 14 15  1  1
 14 16  1  0
 16 17  2  0
 17 18  1  0
 18 19  2  0
 19 20  1  0
 19 21  1  0
 16 22  1  0
 21 22  2  0
  7 23  1  0
  4 24  1  0
 23 24  1  0
M  END
