piperidine-amides-6872-covalent
     RDKit          3D

 22 22  0  0  0  0  0  0  0  0999 V2000
    7.1010   -3.2510   19.1740 C   0  0  0  0  0  0  0  0  0  0  0  0
    6.3320   -3.9960   20.1860 C   0  0  0  0  0  0  0  0  0  0  0  0
    5.2610   -4.5580   19.8800 O   0  0  0  0  0  0  0  0  0  0  0  0
    6.8070   -4.1320   21.4910 N   0  0  0  0  0  0  0  0  0  0  0  0
    7.6780   -3.1150   22.0430 C   0  0  0  0  0  0  0  0  0  0  0  0
    7.3850   -3.1020   23.5310 C   0  0  0  0  0  0  0  0  0  0  0  0
    5.9650   -3.6010   23.6340 C   0  0  0  0  0  0  0  0  0  0  0  0
    5.4600   -3.3610   24.9770 C   0  0  0  0  0  0  0  0  0  0  0  0
    4.3060   -2.9140   25.1410 O   0  0  0  0  0  0  0  0  0  0  0  0
    6.3300   -3.6510   26.0200 N   0  0  0  0  0  0  0  0  0  0  0  0
    6.1970   -4.8590   26.7700 C   0  0  0  0  0  0  0  0  0  0  0  0
    4.9900   -4.7380   27.6810 C   0  0  0  0  0  0  0  0  0  0  0  0
    3.7770   -4.4560   27.1160 C   0  0  0  0  0  0  0  0  0  0  0  0
    5.2590   -3.5710   28.6100 C   0  0  0  0  0  0  0  0  0  0  0  0
    4.8100   -5.8660   28.5790 C   0  0  0  0  0  0  0  0  0  0  0  0
    3.7780   -6.5770   28.0650 O   0  0  0  0  0  0  0  0  0  0  0  0
    4.5590   -5.7340   29.9240 C   0  0  0  0  0  0  0  0  0  0  0  0
    5.1140   -6.7570   30.8990 C   0  0  0  0  0  0  0  0  0  0  0  0
    5.9450   -6.7700   28.3360 C   0  0  0  0  0  0  0  0  0  0  0  0
    7.2940   -6.1470   28.4770 C   0  0  0  0  0  0  0  0  0  0  0  0
    5.8790   -5.0780   23.3390 C   0  0  0  0  0  0  0  0  0  0  0  0
    6.6400   -5.3780   22.2000 C   0  0  0  0  0  0  0  0  0  0  0  0
  1  2  1  0
  2  3  2  0
  2  4  1  0
  4  5  1  0
  5  6  1  0
  6  7  1  0
  7  8  1  0
  8  9  2  0
  8 10  1  0
 10 11  1  0
 12 11  1  0
 12 13  1  0
 12 14  1  0
 12 15  1  0
 15 16  1  0
 15 17  1  0
 17 18  1  0
 15 19  1  0
 19 20  1  0
  7 21  1  0
  4 22  1  0
 21 22  1  0
M  END
