piperidine-amides-23589-covalent
     RDKit          3D

 24 26  0  0  0  0  0  0  0  0999 V2000
    7.1210   -3.4060   19.3770 C   0  0  0  0  0  0  0  0  0  0  0  0
    6.4410   -4.2530   20.3580 C   0  0  0  0  0  0  0  0  0  0  0  0
    5.3730   -4.7960   19.9820 O   0  0  0  0  0  0  0  0  0  0  0  0
    7.0200   -4.5040   21.6320 N   0  0  0  0  0  0  0  0  0  0  0  0
    6.6000   -5.6120   22.3890 C   0  0  0  0  0  0  0  0  0  0  0  0
    6.4040   -5.2000   23.7680 C   0  0  0  0  0  0  0  0  0  0  0  0
    6.0190   -3.7800   23.8830 C   0  0  0  0  0  0  0  0  0  0  0  0
    5.6940   -3.3470   25.2800 C   0  0  0  0  0  0  0  0  0  0  0  0
    4.7980   -2.5040   25.4220 O   0  0  0  0  0  0  0  0  0  0  0  0
    6.3160   -3.8320   26.4390 N   0  0  0  0  0  0  0  0  0  0  0  0
    6.9760   -5.0560   26.6090 C   0  0  0  0  0  0  0  0  0  0  0  0
    7.0730   -5.4160   28.0050 C   0  0  0  0  0  0  0  0  0  0  0  0
    6.1820   -4.3190   28.6360 C   0  0  0  0  0  0  0  0  0  0  0  0
    5.7420   -3.4010   27.6860 C   0  0  2  0  0  0  0  0  0  0  0  0
    4.2990   -3.9010   27.9020 C   0  0  0  0  0  0  0  0  0  0  0  0
    4.1540   -5.2500   28.3990 N   0  0  0  0  0  0  0  0  0  0  0  0
    2.7940   -5.8190   28.6380 C   0  0  0  0  0  0  0  0  0  0  0  0
    1.7320   -4.7650   28.2750 C   0  0  0  0  0  0  0  0  0  0  0  0
    1.8380   -3.3640   27.7580 C   0  0  0  0  0  0  0  0  0  0  0  0
    3.2520   -2.9110   27.5590 C   0  0  0  0  0  0  0  0  0  0  0  0
    3.5380   -1.7660   27.1280 O   0  0  0  0  0  0  0  0  0  0  0  0
    2.8740   -1.2860   25.9730 C   0  0  0  0  0  0  0  0  0  0  0  0
    6.9290   -2.8070   23.1810 C   0  0  0  0  0  0  0  0  0  0  0  0
    7.8020   -3.5230   22.3550 C   0  0  0  0  0  0  0  0  0  0  0  0
  1  2  1  0
  2  3  2  0
  2  4  1  0
  4  5  1  0
  5  6  1  0
  6  7  1  0
  7  8  1  0
  8  9  2  0
  8 10  1  0
 10 11  1  0
 11 12  1  0
 12 13  1  0
 10 14  1  0
 13 14  1  0
 14 15  1  6
 15 16  2  0
 16 17  1  0
 17 18  2  0
 18 19  1  0
 15 20  1  0
 19 20  2  0
 20 21  1  0
 21 22  1  0
  7 23  1  0
  4 24  1  0
 23 24  1  0
M  END
