piperidine-amides-25279-covalent
     RDKit          3D

 24 25  0  0  0  0  0  0  0  0999 V2000
    7.0420   -3.3210   19.3050 C   0  0  0  0  0  0  0  0  0  0  0  0
    6.3660   -4.1710   20.3210 C   0  0  0  0  0  0  0  0  0  0  0  0
    5.3710   -4.7970   19.9640 O   0  0  0  0  0  0  0  0  0  0  0  0
    6.8890   -4.2670   21.6130 N   0  0  0  0  0  0  0  0  0  0  0  0
    7.7130   -3.2270   22.1730 C   0  0  0  0  0  0  0  0  0  0  0  0
    7.1420   -2.7730   23.4800 C   0  0  0  0  0  0  0  0  0  0  0  0
    6.7630   -3.9850   24.3370 C   0  0  0  0  0  0  0  0  0  0  0  0
    6.1700   -3.4360   25.5720 C   0  0  0  0  0  0  0  0  0  0  0  0
    4.9430   -3.2320   25.6120 O   0  0  0  0  0  0  0  0  0  0  0  0
    6.9780   -3.1360   26.6940 N   0  0  0  0  0  0  0  0  0  0  0  0
    7.5210   -4.2830   27.4110 C   0  0  0  0  0  0  0  0  0  0  0  0
    8.5170   -5.0280   26.5410 C   0  0  0  0  0  0  0  0  0  0  0  0
    6.7410   -1.8620   27.2250 C   0  0  0  0  0  0  0  0  0  0  0  0
    7.2810   -1.6840   28.4880 C   0  0  0  0  0  0  0  0  0  0  0  0
    7.1340   -0.5190   29.1540 C   0  0  0  0  0  0  0  0  0  0  0  0
    6.3800    0.5310   28.4590 C   0  0  0  0  0  0  0  0  0  0  0  0
    6.0770    1.9030   28.9830 C   0  0  0  0  0  0  0  0  0  0  0  0
    6.6910    2.0470   30.2300 F   0  0  0  0  0  0  0  0  0  0  0  0
    4.7080    2.0270   29.2030 F   0  0  0  0  0  0  0  0  0  0  0  0
    6.4640    2.9080   28.1270 F   0  0  0  0  0  0  0  0  0  0  0  0
    5.6920    0.7230   27.1800 C   0  0  0  0  0  0  0  0  0  0  0  0
    5.9520   -0.6520   26.5840 C   0  0  0  0  0  0  0  0  0  0  0  0
    5.8550   -4.9460   23.6200 C   0  0  0  0  0  0  0  0  0  0  0  0
    6.6110   -5.4460   22.4020 C   0  0  0  0  0  0  0  0  0  0  0  0
  1  2  1  0
  2  3  2  0
  2  4  1  0
  4  5  1  0
  5  6  1  0
  6  7  1  0
  7  8  1  0
  8  9  2  0
  8 10  1  0
 10 11  1  0
 11 12  1  0
 10 13  1  0
 13 14  2  0
 14 15  1  0
 15 16  2  0
 16 17  1  0
 17 18  1  0
 17 19  1  0
 17 20  1  0
 16 21  1  0
 13 22  1  0
 21 22  2  0
  7 23  1  0
  4 24  1  0
 23 24  1  0
M  END
