piperidine-amides-8684-covalent
     RDKit          3D

 23 24  0  0  0  0  0  0  0  0999 V2000
    7.0210   -3.3500   19.3550 C   0  0  0  0  0  0  0  0  0  0  0  0
    6.3740   -4.2100   20.3470 C   0  0  0  0  0  0  0  0  0  0  0  0
    5.3810   -4.8690   19.9830 O   0  0  0  0  0  0  0  0  0  0  0  0
    6.8970   -4.3160   21.6610 N   0  0  0  0  0  0  0  0  0  0  0  0
    7.6550   -3.2270   22.2180 C   0  0  0  0  0  0  0  0  0  0  0  0
    6.9200   -2.7100   23.4090 C   0  0  0  0  0  0  0  0  0  0  0  0
    6.7120   -3.9320   24.2720 C   0  0  0  0  0  0  0  0  0  0  0  0
    5.9610   -3.5810   25.5290 C   0  0  0  0  0  0  0  0  0  0  0  0
    4.7600   -3.8560   25.5550 O   0  0  0  0  0  0  0  0  0  0  0  0
    6.6790   -3.0220   26.5830 N   0  0  0  0  0  0  0  0  0  0  0  0
    6.5230   -1.7120   27.1740 C   0  0  0  0  0  0  0  0  0  0  0  0
    6.9740   -1.4610   28.4840 C   0  0  0  0  0  0  0  0  0  0  0  0
    6.8520   -0.2460   29.1090 C   0  0  0  0  0  0  0  0  0  0  0  0
    7.4750    0.0220   30.8910 Br  0  0  0  0  0  0  0  0  0  0  0  0
    6.2640    0.7770   28.4190 C   0  0  0  0  0  0  0  0  0  0  0  0
    5.7630    0.7170   27.1210 N   0  0  0  0  0  0  0  0  0  0  0  0
    5.8760   -0.5670   26.4300 C   0  0  0  0  0  0  0  0  0  0  0  0
    5.4010   -0.7130   25.1650 O   0  0  0  0  0  0  0  0  0  0  0  0
    4.3440   -1.6100   25.2760 C   0  0  0  0  0  0  0  0  0  0  0  0
    4.0540   -2.4270   24.0700 C   0  0  0  0  0  0  0  0  0  0  0  0
    3.1410   -0.7910   25.6520 C   0  0  0  0  0  0  0  0  0  0  0  0
    5.9990   -5.0460   23.6140 C   0  0  0  0  0  0  0  0  0  0  0  0
    6.6840   -5.4840   22.4960 C   0  0  0  0  0  0  0  0  0  0  0  0
  1  2  1  0
  2  3  2  0
  2  4  1  0
  4  5  1  0
  5  6  1  0
  6  7  1  0
  7  8  1  0
  8  9  2  0
  8 10  1  0
 10 11  1  0
 11 12  2  0
 12 13  1  0
 13 14  1  0
 13 15  2  0
 15 16  1  0
 11 17  1  0
 16 17  2  0
 17 18  1  0
 18 19  1  0
 19 20  1  0
 19 21  1  0
  7 22  1  0
  4 23  1  0
 22 23  1  0
M  END
