piperidine-amides-1512-covalent
     RDKit          3D

 21 22  0  0  0  0  0  0  0  0999 V2000
    7.0810   -3.3290   19.3410 C   0  0  0  0  0  0  0  0  0  0  0  0
    6.3800   -4.1940   20.3260 C   0  0  0  0  0  0  0  0  0  0  0  0
    5.3520   -4.7970   19.9690 O   0  0  0  0  0  0  0  0  0  0  0  0
    6.9180   -4.3650   21.6200 N   0  0  0  0  0  0  0  0  0  0  0  0
    6.5610   -5.5110   22.4030 C   0  0  0  0  0  0  0  0  0  0  0  0
    5.7100   -4.9720   23.5580 C   0  0  0  0  0  0  0  0  0  0  0  0
    6.4480   -3.8400   24.2080 C   0  0  0  0  0  0  0  0  0  0  0  0
    5.7530   -3.3130   25.4130 C   0  0  0  0  0  0  0  0  0  0  0  0
    4.5150   -3.4380   25.4590 O   0  0  0  0  0  0  0  0  0  0  0  0
    6.4940   -2.6960   26.4290 N   0  0  0  0  0  0  0  0  0  0  0  0
    6.0870   -1.6370   27.2960 C   0  0  0  0  0  0  0  0  0  0  0  0
    4.8220   -1.7370   27.8360 C   0  0  0  0  0  0  0  0  0  0  0  0
    4.6390   -2.7270   28.8150 C   0  0  0  0  0  0  0  0  0  0  0  0
    3.3510   -3.2120   29.0040 O   0  0  0  0  0  0  0  0  0  0  0  0
    5.9420   -0.3510   26.6950 C   0  0  0  0  0  0  0  0  0  0  0  0
    6.0450    0.8500   27.6040 C   0  0  0  0  0  0  0  0  0  0  0  0
    6.8290    0.7440   28.7540 O   0  0  0  0  0  0  0  0  0  0  0  0
    6.9310   -0.4980   29.3930 C   0  0  0  0  0  0  0  0  0  0  0  0
    7.0220   -1.5650   28.3270 C   0  0  0  0  0  0  0  0  0  0  0  0
    6.6830   -2.6970   23.2160 C   0  0  0  0  0  0  0  0  0  0  0  0
    7.6120   -3.2480   22.2090 C   0  0  0  0  0  0  0  0  0  0  0  0
  1  2  1  0
  2  3  2  0
  2  4  1  0
  4  5  1  0
  5  6  1  0
  6  7  1  0
  7  8  1  0
  8  9  2  0
  8 10  1  0
 11 10  1  0
 11 12  1  0
 12 13  1  0
 13 14  1  0
 11 15  1  0
 15 16  1  0
 16 17  1  0
 17 18  1  0
 11 19  1  0
 18 19  1  0
  7 20  1  0
  4 21  1  0
 20 21  1  0
M  END
