piperidine-amides-12405-covalent
     RDKit          3D

 24 25  0  0  0  0  0  0  0  0999 V2000
    7.0990   -3.2920   19.2920 C   0  0  0  0  0  0  0  0  0  0  0  0
    6.3830   -4.0940   20.2800 C   0  0  0  0  0  0  0  0  0  0  0  0
    5.3560   -4.6910   19.9460 O   0  0  0  0  0  0  0  0  0  0  0  0
    6.8920   -4.2380   21.6220 N   0  0  0  0  0  0  0  0  0  0  0  0
    6.5670   -5.4310   22.3770 C   0  0  0  0  0  0  0  0  0  0  0  0
    6.0860   -5.1170   23.7820 C   0  0  0  0  0  0  0  0  0  0  0  0
    6.0760   -3.6130   23.9960 C   0  0  0  0  0  0  0  0  0  0  0  0
    5.5580   -3.2640   25.3500 C   0  0  0  0  0  0  0  0  0  0  0  0
    4.3360   -3.1860   25.5630 O   0  0  0  0  0  0  0  0  0  0  0  0
    6.4420   -3.0160   26.4270 N   0  0  0  0  0  0  0  0  0  0  0  0
    6.2890   -3.7700   27.6580 C   0  0  0  0  0  0  0  0  0  0  0  0
    4.9460   -3.4520   28.2630 C   0  0  0  0  0  0  0  0  0  0  0  0
    4.5470   -2.1710   28.6330 C   0  0  0  0  0  0  0  0  0  0  0  0
    3.2920   -1.8920   29.1990 C   0  0  0  0  0  0  0  0  0  0  0  0
    2.3630   -2.8780   29.4280 C   0  0  0  0  0  0  0  0  0  0  0  0
    1.2580   -2.6140   29.9280 O   0  0  0  0  0  0  0  0  0  0  0  0
    0.9440   -2.1080   31.1710 C   0  0  0  0  0  0  0  0  0  0  0  0
    2.6680   -4.1570   29.0990 C   0  0  0  0  0  0  0  0  0  0  0  0
    1.8660   -5.2330   29.2590 N   0  0  0  0  0  0  0  0  0  0  0  0
    2.0300   -6.0090   30.3770 O   0  0  0  0  0  0  0  0  0  0  0  0
    0.9260   -5.5660   28.3190 O   0  0  0  0  0  0  0  0  0  0  0  0
    3.8920   -4.4430   28.5450 C   0  0  0  0  0  0  0  0  0  0  0  0
    7.3070   -2.9110   23.5860 C   0  0  0  0  0  0  0  0  0  0  0  0
    7.6630   -3.1830   22.2010 C   0  0  0  0  0  0  0  0  0  0  0  0
  1  2  1  0
  2  3  2  0
  2  4  1  0
  4  5  1  0
  5  6  1  0
  6  7  1  0
  7  8  1  0
  8  9  2  0
  8 10  1  0
 10 11  1  0
 11 12  1  0
 12 13  2  0
 13 14  1  0
 14 15  2  0
 15 16  1  0
 16 17  1  0
 15 18  1  0
 18 19  1  0
 19 20  2  0
 19 21  1  0
 12 22  1  0
 18 22  2  0
  7 23  1  0
  4 24  1  0
 23 24  1  0
M  CHG  2  19   1  21  -1
M  END
