piperidine-amides-674-covalent
     RDKit          3D

 26 29  0  0  0  0  0  0  0  0999 V2000
    7.1310   -3.3670   19.2570 C   0  0  0  0  0  0  0  0  0  0  0  0
    6.3850   -4.0660   20.2680 C   0  0  0  0  0  0  0  0  0  0  0  0
    5.2860   -4.5950   19.9160 O   0  0  0  0  0  0  0  0  0  0  0  0
    6.8640   -4.2490   21.5800 N   0  0  0  0  0  0  0  0  0  0  0  0
    7.6620   -3.1680   22.2060 C   0  0  0  0  0  0  0  0  0  0  0  0
    6.6780   -2.7380   23.3600 C   0  0  0  0  0  0  0  0  0  0  0  0
    6.4570   -3.9990   24.1570 C   0  0  0  0  0  0  0  0  0  0  0  0
    5.7570   -3.7630   25.5590 C   0  0  0  0  0  0  0  0  0  0  0  0
    5.1070   -4.7460   25.8520 O   0  0  0  0  0  0  0  0  0  0  0  0
    6.0030   -2.6170   26.0300 N   0  0  0  0  0  0  0  0  0  0  0  0
    6.1310   -1.3840   26.5740 C   0  0  0  0  0  0  0  0  0  0  0  0
    6.4220   -0.1100   26.2770 C   0  0  0  0  0  0  0  0  0  0  0  0
    6.4340    0.9490   27.2240 C   0  0  0  0  0  0  0  0  0  0  0  0
    6.1450    0.9210   28.6750 C   0  0  0  0  0  0  0  0  0  0  0  0
    5.7850   -0.5230   29.0410 C   0  0  0  0  0  0  0  0  0  0  0  0
    5.8190   -1.4230   28.0480 C   0  0  0  0  0  0  0  0  0  0  0  0
    5.4330   -2.5860   28.7120 C   0  0  0  0  0  0  0  0  0  0  0  0
    4.5380   -2.2190   29.6940 N   0  0  0  0  0  0  0  0  0  0  0  0
    3.9820   -3.0130   30.7630 C   0  0  0  0  0  0  0  0  0  0  0  0
    3.6120   -4.3950   30.9520 N   0  0  0  0  0  0  0  0  0  0  0  0
    3.1050   -4.5460   32.2690 C   0  0  0  0  0  0  0  0  0  0  0  0
    3.0210   -3.5170   33.1180 C   0  0  0  0  0  0  0  0  0  0  0  0
    3.6630   -2.0750   32.1940 S   0  0  0  0  0  0  0  0  0  0  0  0
    5.4030   -1.1450   30.1750 C   0  0  0  0  0  0  0  0  0  0  0  0
    5.8010   -5.1340   23.3880 C   0  0  0  0  0  0  0  0  0  0  0  0
    6.5880   -5.4470   22.3200 C   0  0  0  0  0  0  0  0  0  0  0  0
  1  2  1  0
  2  3  2  0
  2  4  1  0
  4  5  1  0
  5  6  1  0
  6  7  1  0
  7  8  1  0
  8  9  2  0
  8 10  1  0
 10 11  1  0
 11 12  2  0
 12 13  1  0
 13 14  2  0
 14 15  1  0
 11 16  1  0
 15 16  2  0
 16 17  1  0
 17 18  1  0
 18 19  1  0
 19 20  2  0
 20 21  1  0
 21 22  2  0
 19 23  1  0
 22 23  1  0
 15 24  1  0
 18 24  1  0
  7 25  1  0
  4 26  1  0
 25 26  1  0
M  END
