piperidine-amides-5008-covalent
     RDKit          3D

 23 24  0  0  0  0  0  0  0  0999 V2000
    7.0990   -3.2770   19.2560 C   0  0  0  0  0  0  0  0  0  0  0  0
    6.3830   -4.0640   20.2870 C   0  0  0  0  0  0  0  0  0  0  0  0
    5.3250   -4.6180   19.9140 O   0  0  0  0  0  0  0  0  0  0  0  0
    6.8910   -4.2150   21.5920 N   0  0  0  0  0  0  0  0  0  0  0  0
    7.6940   -3.1910   22.1970 C   0  0  0  0  0  0  0  0  0  0  0  0
    7.3080   -2.9050   23.5730 C   0  0  0  0  0  0  0  0  0  0  0  0
    6.0470   -3.5650   23.9520 C   0  0  0  0  0  0  0  0  0  0  0  0
    5.6220   -3.2150   25.3320 C   0  0  0  0  0  0  0  0  0  0  0  0
    4.4000   -3.0930   25.5370 O   0  0  0  0  0  0  0  0  0  0  0  0
    6.5280   -3.0160   26.3880 N   0  0  0  0  0  0  0  0  0  0  0  0
    6.2310   -3.4490   27.7760 C   0  0  0  0  0  0  0  0  0  0  0  0
    5.9720   -4.9140   27.8840 C   0  0  0  0  0  0  0  0  0  0  0  0
    4.8210   -5.3290   28.2080 O   0  0  0  0  0  0  0  0  0  0  0  0
    4.4140   -5.0720   29.4190 C   0  0  0  0  0  0  0  0  0  0  0  0
    4.6400   -5.9020   30.4850 C   0  0  0  0  0  0  0  0  0  0  0  0
    5.6340   -6.8560   30.4470 C   0  0  0  0  0  0  0  0  0  0  0  0
    5.8530   -7.6710   31.5090 C   0  0  0  0  0  0  0  0  0  0  0  0
    5.1010   -7.5680   32.6370 C   0  0  0  0  0  0  0  0  0  0  0  0
    4.1050   -6.6420   32.7250 C   0  0  0  0  0  0  0  0  0  0  0  0
    3.8820   -5.8070   31.6300 C   0  0  0  0  0  0  0  0  0  0  0  0
    2.5930   -4.6130   31.7590 Cl  0  0  0  0  0  0  0  0  0  0  0  0
    5.9870   -5.0320   23.7130 C   0  0  0  0  0  0  0  0  0  0  0  0
    6.6510   -5.4080   22.4000 C   0  0  0  0  0  0  0  0  0  0  0  0
  1  2  1  0
  2  3  2  0
  2  4  1  0
  4  5  1  0
  5  6  1  0
  6  7  1  0
  7  8  1  0
  8  9  2  0
  8 10  1  0
 10 11  1  0
 11 12  1  0
 12 13  1  0
 13 14  1  0
 14 15  1  0
 15 16  2  0
 16 17  1  0
 17 18  2  0
 18 19  1  0
 15 20  1  0
 19 20  2  0
 20 21  1  0
  7 22  1  0
  4 23  1  0
 22 23  1  0
M  END
