piperidine-amides-27453-covalent
     RDKit          3D

 23 25  0  0  0  0  0  0  0  0999 V2000
    7.1090   -3.2480   19.2380 C   0  0  0  0  0  0  0  0  0  0  0  0
    6.3510   -4.0040   20.2390 C   0  0  0  0  0  0  0  0  0  0  0  0
    5.2550   -4.4910   19.8610 O   0  0  0  0  0  0  0  0  0  0  0  0
    6.8590   -4.2210   21.5230 N   0  0  0  0  0  0  0  0  0  0  0  0
    6.6740   -5.4700   22.2010 C   0  0  0  0  0  0  0  0  0  0  0  0
    6.6000   -5.1580   23.6630 C   0  0  0  0  0  0  0  0  0  0  0  0
    5.9660   -3.8210   23.9250 C   0  0  0  0  0  0  0  0  0  0  0  0
    5.7300   -3.6920   25.3740 C   0  0  0  0  0  0  0  0  0  0  0  0
    5.6130   -2.5490   25.8660 O   0  0  0  0  0  0  0  0  0  0  0  0
    5.6050   -4.8320   26.2000 N   0  0  0  0  0  0  0  0  0  0  0  0
    6.1130   -4.8750   27.5350 C   0  0  0  0  0  0  0  0  0  0  0  0
    4.8760   -5.6550   27.6770 C   0  0  0  0  0  0  0  0  0  0  0  0
    4.3780   -5.6260   26.3800 C   0  0  1  0  0  0  0  0  0  0  0  0
    3.1690   -5.0880   25.9630 C   0  0  0  0  0  0  0  0  0  0  0  0
    2.8110   -3.7800   26.2090 C   0  0  0  0  0  0  0  0  0  0  0  0
    1.6100   -3.2910   25.7710 C   0  0  0  0  0  0  0  0  0  0  0  0
    0.7270   -4.0760   25.0790 C   0  0  0  0  0  0  0  0  0  0  0  0
    0.9690   -5.5300   24.7270 C   0  0  0  0  0  0  0  0  0  0  0  0
   -0.1570   -6.5700   23.8280 Cl  0  0  0  0  0  0  0  0  0  0  0  0
    2.3460   -5.9760   25.2680 C   0  0  0  0  0  0  0  0  0  0  0  0
    2.8850   -7.6200   25.0040 Cl  0  0  0  0  0  0  0  0  0  0  0  0
    6.7540   -2.6450   23.3240 C   0  0  0  0  0  0  0  0  0  0  0  0
    7.6390   -3.1970   22.2190 C   0  0  0  0  0  0  0  0  0  0  0  0
  1  2  1  0
  2  3  2  0
  2  4  1  0
  4  5  1  0
  5  6  1  0
  6  7  1  0
  7  8  1  0
  8  9  2  0
  8 10  1  0
 10 11  1  0
 11 12  1  0
 10 13  1  0
 12 13  1  0
 13 14  1  1
 14 15  2  0
 15 16  1  0
 16 17  2  0
 17 18  1  0
 18 19  1  0
 14 20  1  0
 18 20  2  0
 20 21  1  0
  7 22  1  0
  4 23  1  0
 22 23  1  0
M  END
