piperidine-amides-4259-covalent
     RDKit          3D

 26 27  0  0  0  0  0  0  0  0999 V2000
    7.1500   -3.2700   19.2410 C   0  0  0  0  0  0  0  0  0  0  0  0
    6.4200   -4.0370   20.2630 C   0  0  0  0  0  0  0  0  0  0  0  0
    5.3360   -4.5630   19.9030 O   0  0  0  0  0  0  0  0  0  0  0  0
    6.9450   -4.2240   21.5700 N   0  0  0  0  0  0  0  0  0  0  0  0
    7.6620   -3.1460   22.1710 C   0  0  0  0  0  0  0  0  0  0  0  0
    7.2650   -2.8540   23.5480 C   0  0  0  0  0  0  0  0  0  0  0  0
    5.8640   -3.2120   23.8720 C   0  0  0  0  0  0  0  0  0  0  0  0
    5.4550   -2.8840   25.2940 C   0  0  0  0  0  0  0  0  0  0  0  0
    4.2350   -2.9250   25.5560 O   0  0  0  0  0  0  0  0  0  0  0  0
    6.3390   -2.5290   26.3450 N   0  0  0  0  0  0  0  0  0  0  0  0
    6.4830   -3.1900   27.5950 C   0  0  0  0  0  0  0  0  0  0  0  0
    6.7950   -4.5920   27.5500 C   0  0  2  0  0  0  0  0  0  0  0  0
    8.1010   -4.7070   28.3420 C   0  0  0  0  0  0  0  0  0  0  0  0
    7.1740   -4.9260   26.2220 C   0  0  0  0  0  0  0  0  0  0  0  0
    6.3690   -5.7230   25.4540 O   0  0  0  0  0  0  0  0  0  0  0  0
    8.2060   -4.5010   25.7680 O   0  0  0  0  0  0  0  0  0  0  0  0
    9.1780   -5.4530   25.5960 C   0  0  0  0  0  0  0  0  0  0  0  0
    9.3040   -6.2420   26.8340 C   0  0  0  0  0  0  0  0  0  0  0  0
    5.8320   -5.5880   28.0630 C   0  0  0  0  0  0  0  0  0  0  0  0
    4.7190   -5.9820   27.1150 C   0  0  0  0  0  0  0  0  0  0  0  0
    3.7190   -7.0060   27.6060 C   0  0  0  0  0  0  0  0  0  0  0  0
    3.8680   -7.5860   29.0080 C   0  0  0  0  0  0  0  0  0  0  0  0
    5.0050   -7.1030   29.8180 C   0  0  0  0  0  0  0  0  0  0  0  0
    5.9230   -6.1560   29.3480 C   0  0  0  0  0  0  0  0  0  0  0  0
    5.4270   -4.5810   23.4270 C   0  0  0  0  0  0  0  0  0  0  0  0
    6.3540   -5.2180   22.4120 C   0  0  0  0  0  0  0  0  0  0  0  0
  1  2  1  0
  2  3  2  0
  2  4  1  0
  4  5  1  0
  5  6  1  0
  6  7  1  0
  7  8  1  0
  8  9  2  0
  8 10  1  0
 10 11  1  0
 11 12  1  0
 12 13  1  1
 12 14  1  0
 14 15  2  0
 14 16  1  0
 16 17  1  0
 17 18  1  0
 12 19  1  0
 19 20  2  0
 20 21  1  0
 21 22  2  0
 22 23  1  0
 19 24  1  0
 23 24  2  0
  7 25  1  0
  4 26  1  0
 25 26  1  0
M  END
