piperidine-amides-25820-covalent
     RDKit          3D

 25 26  0  0  0  0  0  0  0  0999 V2000
    7.1370   -3.2850   19.2470 C   0  0  0  0  0  0  0  0  0  0  0  0
    6.3340   -4.0540   20.2270 C   0  0  0  0  0  0  0  0  0  0  0  0
    5.2500   -4.4890   19.8560 O   0  0  0  0  0  0  0  0  0  0  0  0
    6.8520   -4.3130   21.4930 N   0  0  0  0  0  0  0  0  0  0  0  0
    6.4740   -5.4950   22.2030 C   0  0  0  0  0  0  0  0  0  0  0  0
    5.7410   -5.0840   23.4460 C   0  0  0  0  0  0  0  0  0  0  0  0
    6.5840   -4.0880   24.2530 C   0  0  0  0  0  0  0  0  0  0  0  0
    5.7850   -3.6980   25.4270 C   0  0  0  0  0  0  0  0  0  0  0  0
    4.5400   -3.6570   25.3900 O   0  0  0  0  0  0  0  0  0  0  0  0
    6.4330   -3.3480   26.6140 N   0  0  0  0  0  0  0  0  0  0  0  0
    6.7350   -4.4270   27.5700 C   0  0  0  0  0  0  0  0  0  0  0  0
    5.4460   -5.1270   27.8770 C   0  0  0  0  0  0  0  0  0  0  0  0
    7.5800   -5.5280   27.0210 C   0  0  0  0  0  0  0  0  0  0  0  0
    6.4760   -1.9600   26.9890 C   0  0  1  0  0  0  0  0  0  0  0  0
    5.9070   -1.1530   26.0400 C   0  0  0  0  0  0  0  0  0  0  0  0
    6.4600   -0.4290   24.8240 C   0  0  0  0  0  0  0  0  0  0  0  0
    5.3970    0.3500   24.1020 C   0  0  0  0  0  0  0  0  0  0  0  0
    3.9680    0.3640   24.5860 C   0  0  0  0  0  0  0  0  0  0  0  0
    3.6150   -0.4120   25.8020 C   0  0  0  0  0  0  0  0  0  0  0  0
    4.5290   -1.2330   26.6340 C   0  0  0  0  0  0  0  0  0  0  0  0
    6.1070   -1.5840   28.2480 C   0  0  0  0  0  0  0  0  0  0  0  0
    6.6710   -0.2820   28.6750 C   0  0  0  0  0  0  0  0  0  0  0  0
    6.3510   -2.5320   29.2090 C   0  0  0  0  0  0  0  0  0  0  0  0
    6.8630   -2.8720   23.4090 C   0  0  0  0  0  0  0  0  0  0  0  0
    7.5650   -3.2540   22.1400 C   0  0  0  0  0  0  0  0  0  0  0  0
  1  2  1  0
  2  3  2  0
  2  4  1  0
  4  5  1  0
  5  6  1  0
  6  7  1  0
  7  8  1  0
  8  9  2  0
  8 10  1  0
 10 11  1  0
 11 12  1  0
 11 13  1  0
 10 14  1  0
 14 15  1  0
 15 16  2  0
 16 17  1  0
 17 18  2  0
 18 19  1  0
 15 20  1  0
 19 20  2  0
 14 21  1  1
 21 22  1  0
 21 23  1  0
  7 24  1  0
  4 25  1  0
 24 25  1  0
M  END
