piperidine-amides-7314-covalent
     RDKit          3D

 20 21  0  0  0  0  0  0  0  0999 V2000
    7.0610   -3.2810   19.2700 C   0  0  0  0  0  0  0  0  0  0  0  0
    6.3440   -4.0580   20.2930 C   0  0  0  0  0  0  0  0  0  0  0  0
    5.2900   -4.6280   19.9100 O   0  0  0  0  0  0  0  0  0  0  0  0
    6.8440   -4.1890   21.6020 N   0  0  0  0  0  0  0  0  0  0  0  0
    6.6670   -5.4200   22.3380 C   0  0  0  0  0  0  0  0  0  0  0  0
    6.0710   -5.0660   23.6700 C   0  0  0  0  0  0  0  0  0  0  0  0
    6.1110   -3.5800   23.8870 C   0  0  0  0  0  0  0  0  0  0  0  0
    5.6570   -3.2580   25.2630 C   0  0  0  0  0  0  0  0  0  0  0  0
    4.4220   -3.1860   25.4550 O   0  0  0  0  0  0  0  0  0  0  0  0
    6.5130   -3.0330   26.3590 N   0  0  0  0  0  0  0  0  0  0  0  0
    6.1960   -3.5500   27.6720 C   0  0  0  0  0  0  0  0  0  0  0  0
    5.9020   -2.4470   28.6860 C   0  0  0  0  0  0  0  0  0  0  0  0
    6.8940   -1.5900   29.2930 N   0  0  0  0  0  0  0  0  0  0  0  0
    6.3320   -0.7340   30.1290 C   0  0  0  0  0  0  0  0  0  0  0  0
    7.1100    0.1780   30.8130 C   0  0  0  0  0  0  0  0  0  0  0  0
    7.0710    1.4970   30.5460 N   0  0  0  0  0  0  0  0  0  0  0  0
    4.9550   -0.7140   30.3540 C   0  0  0  0  0  0  0  0  0  0  0  0
    4.3370   -1.9760   29.3380 S   0  0  0  0  0  0  0  0  0  0  0  0
    7.4860   -3.0940   23.5620 C   0  0  0  0  0  0  0  0  0  0  0  0
    7.6280   -3.1330   22.1870 C   0  0  0  0  0  0  0  0  0  0  0  0
  1  2  1  0
  2  3  2  0
  2  4  1  0
  4  5  1  0
  5  6  1  0
  6  7  1  0
  7  8  1  0
  8  9  2  0
  8 10  1  0
 10 11  1  0
 11 12  1  0
 12 13  2  0
 13 14  1  0
 14 15  1  0
 15 16  3  0
 14 17  2  0
 12 18  1  0
 17 18  1  0
  7 19  1  0
  4 20  1  0
 19 20  1  0
M  END
