piperidine-amides-30053-covalent
     RDKit          3D

 21 22  0  0  0  0  0  0  0  0999 V2000
    7.0690   -3.3590   19.3310 C   0  0  0  0  0  0  0  0  0  0  0  0
    6.4100   -4.2130   20.3080 C   0  0  0  0  0  0  0  0  0  0  0  0
    5.3820   -4.8100   19.9840 O   0  0  0  0  0  0  0  0  0  0  0  0
    6.9840   -4.4190   21.6150 N   0  0  0  0  0  0  0  0  0  0  0  0
    6.5450   -5.5350   22.3910 C   0  0  0  0  0  0  0  0  0  0  0  0
    5.8170   -5.0190   23.6020 C   0  0  0  0  0  0  0  0  0  0  0  0
    6.6270   -3.8980   24.2620 C   0  0  0  0  0  0  0  0  0  0  0  0
    5.8420   -3.3410   25.3920 C   0  0  0  0  0  0  0  0  0  0  0  0
    4.6230   -3.0880   25.3020 O   0  0  0  0  0  0  0  0  0  0  0  0
    6.5000   -3.1100   26.6160 N   0  0  0  0  0  0  0  0  0  0  0  0
    6.6800   -4.2870   27.4410 C   0  0  0  0  0  0  0  0  0  0  0  0
    6.4680   -1.7780   27.2090 C   0  0  0  0  0  0  0  0  0  0  0  0
    7.0090   -1.6680   28.4930 C   0  0  0  0  0  0  0  0  0  0  0  0
    7.0390   -0.4590   29.1970 C   0  0  0  0  0  0  0  0  0  0  0  0
    6.5200    0.6490   28.6020 C   0  0  0  0  0  0  0  0  0  0  0  0
    5.9660    0.5500   27.2840 C   0  0  0  0  0  0  0  0  0  0  0  0
    5.3040    2.0170   26.5450 Cl  0  0  0  0  0  0  0  0  0  0  0  0
    5.9370   -0.6380   26.5890 C   0  0  0  0  0  0  0  0  0  0  0  0
    5.1820   -0.6840   24.8410 Br  0  0  0  0  0  0  0  0  0  0  0  0
    6.8590   -2.7690   23.2590 C   0  0  0  0  0  0  0  0  0  0  0  0
    7.6470   -3.2950   22.2450 C   0  0  0  0  0  0  0  0  0  0  0  0
  1  2  1  0
  2  3  2  0
  2  4  1  0
  4  5  1  0
  5  6  1  0
  6  7  1  0
  7  8  1  0
  8  9  2  0
  8 10  1  0
 10 11  1  0
 10 12  1  0
 12 13  2  0
 13 14  1  0
 14 15  2  0
 15 16  1  0
 16 17  1  0
 12 18  1  0
 16 18  2  0
 18 19  1  0
  7 20  1  0
  4 21  1  0
 20 21  1  0
M  END
