piperidine-amides-25813-covalent
     RDKit          3D

 23 24  0  0  0  0  0  0  0  0999 V2000
    6.9820   -3.3840   19.4150 C   0  0  0  0  0  0  0  0  0  0  0  0
    6.3610   -4.2890   20.4250 C   0  0  0  0  0  0  0  0  0  0  0  0
    5.4260   -4.9800   20.0110 O   0  0  0  0  0  0  0  0  0  0  0  0
    6.8430   -4.3630   21.7490 N   0  0  0  0  0  0  0  0  0  0  0  0
    6.6310   -5.5390   22.5740 C   0  0  0  0  0  0  0  0  0  0  0  0
    6.0200   -5.1660   23.9150 C   0  0  0  0  0  0  0  0  0  0  0  0
    6.0240   -3.6470   24.0500 C   0  0  0  0  0  0  0  0  0  0  0  0
    5.4470   -3.1510   25.3440 C   0  0  0  0  0  0  0  0  0  0  0  0
    4.9830   -2.0110   25.3330 O   0  0  0  0  0  0  0  0  0  0  0  0
    5.3630   -3.8470   26.5780 N   0  0  0  0  0  0  0  0  0  0  0  0
    6.4590   -3.6880   27.4300 C   0  0  0  0  0  0  0  0  0  0  0  0
    6.6190   -5.0520   28.0660 C   0  0  0  0  0  0  0  0  0  0  0  0
    5.2750   -5.7920   28.7220 S   0  0  0  0  0  0  0  0  0  0  0  0
    4.7570   -6.8930   27.8590 O   0  0  0  0  0  0  0  0  0  0  0  0
    5.6770   -6.2670   30.0890 O   0  0  0  0  0  0  0  0  0  0  0  0
    4.4050   -4.1760   28.6160 C   0  0  0  0  0  0  0  0  0  0  0  0
    4.1530   -3.7670   27.3170 C   0  0  2  0  0  0  0  0  0  0  0  0
    3.0590   -4.3290   26.7020 C   0  0  0  0  0  0  0  0  0  0  0  0
    2.8760   -4.7700   25.2570 C   0  0  0  0  0  0  0  0  0  0  0  0
    2.2720   -3.5160   25.7780 C   0  0  0  0  0  0  0  0  0  0  0  0
    1.9530   -4.7680   27.6010 C   0  0  0  0  0  0  0  0  0  0  0  0
    7.2890   -3.0060   23.6650 C   0  0  0  0  0  0  0  0  0  0  0  0
    7.6810   -3.2930   22.2550 C   0  0  0  0  0  0  0  0  0  0  0  0
  1  2  1  0
  2  3  2  0
  2  4  1  0
  4  5  1  0
  5  6  1  0
  6  7  1  0
  7  8  1  0
  8  9  2  0
  8 10  1  0
 10 11  1  0
 11 12  1  0
 13 12  1  0
 13 14  2  0
 13 15  2  0
 13 16  1  0
 10 17  1  0
 16 17  1  0
 17 18  1  6
 18 19  1  0
 18 20  1  0
 18 21  1  0
  7 22  1  0
  4 23  1  0
 22 23  1  0
M  END
