piperidine-amides-747-covalent
     RDKit          3D

 25 27  0  0  0  0  0  0  0  0999 V2000
    7.1400   -3.3270   19.3950 C   0  0  0  0  0  0  0  0  0  0  0  0
    6.4520   -4.1440   20.3650 C   0  0  0  0  0  0  0  0  0  0  0  0
    5.4360   -4.8170   19.9830 O   0  0  0  0  0  0  0  0  0  0  0  0
    6.9090   -4.2360   21.6960 N   0  0  0  0  0  0  0  0  0  0  0  0
    6.6490   -5.4840   22.4340 C   0  0  0  0  0  0  0  0  0  0  0  0
    5.5840   -4.9230   23.4410 C   0  0  0  0  0  0  0  0  0  0  0  0
    6.2840   -3.8420   24.2420 C   0  0  0  0  0  0  0  0  0  0  0  0
    5.2870   -3.3780   25.4010 C   0  0  0  0  0  0  0  0  0  0  0  0
    4.2180   -3.9380   25.2270 O   0  0  0  0  0  0  0  0  0  0  0  0
    5.7820   -2.5440   26.2360 N   0  0  0  0  0  0  0  0  0  0  0  0
    6.1300   -1.6450   27.2150 C   0  0  1  0  0  0  0  0  0  0  0  0
    7.1210   -1.5220   28.1560 C   0  0  0  0  0  0  0  0  0  0  0  0
    6.8430   -0.6070   29.1830 C   0  0  0  0  0  0  0  0  0  0  0  0
    6.3810    0.6610   28.6270 C   0  0  1  0  0  0  0  0  0  0  0  0
    6.3880    1.6470   29.8080 C   0  0  0  0  0  0  0  0  0  0  0  0
    5.5540    0.5390   29.9400 C   0  0  0  0  0  0  0  0  0  0  0  0
    4.1220    0.7200   29.7750 C   0  0  0  0  0  0  0  0  0  0  0  0
    3.7080    0.5210   31.2510 C   0  0  0  0  0  0  0  0  0  0  0  0
    4.5710    0.2240   32.4960 C   0  0  0  0  0  0  0  0  0  0  0  0
    5.8840    0.1150   32.3160 C   0  0  0  0  0  0  0  0  0  0  0  0
    6.3670    0.2680   31.0640 C   0  0  0  0  0  0  0  0  0  0  0  0
    5.3300    0.5720   27.5800 C   0  0  0  0  0  0  0  0  0  0  0  0
    5.8500   -0.2720   26.6090 C   0  0  0  0  0  0  0  0  0  0  0  0
    6.9550   -2.7180   23.5180 C   0  0  0  0  0  0  0  0  0  0  0  0
    7.6860   -3.1700   22.2870 C   0  0  0  0  0  0  0  0  0  0  0  0
  1  2  1  0
  2  3  2  0
  2  4  1  0
  4  5  1  0
  5  6  1  0
  6  7  1  0
  7  8  1  0
  8  9  2  0
  8 10  1  0
 11 10  1  6
 11 12  1  0
 12 13  1  0
 13 14  1  0
 14 15  1  1
 14 16  1  0
 16 17  2  0
 17 18  1  0
 18 19  2  0
 19 20  1  0
 16 21  1  0
 20 21  2  0
 14 22  1  0
 11 23  1  0
 22 23  1  0
  7 24  1  0
  4 25  1  0
 24 25  1  0
M  END
