piperidine-amides-30607-covalent
     RDKit          3D

 27 28  0  0  0  0  0  0  0  0999 V2000
    7.0850   -3.3230   19.3450 C   0  0  0  0  0  0  0  0  0  0  0  0
    6.3280   -4.1000   20.3270 C   0  0  0  0  0  0  0  0  0  0  0  0
    5.3020   -4.6840   19.9410 O   0  0  0  0  0  0  0  0  0  0  0  0
    6.7500   -4.2560   21.6650 N   0  0  0  0  0  0  0  0  0  0  0  0
    6.6380   -5.5240   22.3530 C   0  0  0  0  0  0  0  0  0  0  0  0
    6.1190   -5.1800   23.7170 C   0  0  0  0  0  0  0  0  0  0  0  0
    6.0740   -3.6950   23.8760 C   0  0  0  0  0  0  0  0  0  0  0  0
    5.5630   -3.2390   25.2000 C   0  0  0  0  0  0  0  0  0  0  0  0
    4.3950   -2.7610   25.2730 O   0  0  0  0  0  0  0  0  0  0  0  0
    6.2730   -3.2860   26.4240 N   0  0  0  0  0  0  0  0  0  0  0  0
    6.5920   -1.9990   27.0950 C   0  0  0  0  0  0  0  0  0  0  0  0
    6.1030   -4.4720   27.3110 C   0  0  0  0  0  0  0  0  0  0  0  0
    4.8320   -4.5120   28.0060 C   0  0  2  0  0  0  0  0  0  0  0  0
    5.0850   -4.1000   29.1520 O   0  0  0  0  0  0  0  0  0  0  0  0
    4.1620   -5.8420   27.7640 C   0  0  0  0  0  0  0  0  0  0  0  0
    2.8240   -5.7560   27.9980 O   0  0  0  0  0  0  0  0  0  0  0  0
    1.8970   -6.7040   27.4870 C   0  0  0  0  0  0  0  0  0  0  0  0
    2.3930   -7.9650   26.8220 C   0  0  0  0  0  0  0  0  0  0  0  0
    1.5930   -8.9550   26.2930 C   0  0  0  0  0  0  0  0  0  0  0  0
    0.2130   -8.8970   26.3150 C   0  0  0  0  0  0  0  0  0  0  0  0
   -0.6530   -9.7910   25.8340 N   0  0  0  0  0  0  0  0  0  0  0  0
   -1.1210   -9.6620   24.5670 O   0  0  0  0  0  0  0  0  0  0  0  0
   -1.2900  -10.6310   26.6950 O   0  0  0  0  0  0  0  0  0  0  0  0
   -0.4560   -7.7190   26.9330 C   0  0  0  0  0  0  0  0  0  0  0  0
    0.3700   -6.5860   27.5380 C   0  0  0  0  0  0  0  0  0  0  0  0
    7.4510   -3.1600   23.4620 C   0  0  0  0  0  0  0  0  0  0  0  0
    7.5390   -3.1440   22.2480 C   0  0  0  0  0  0  0  0  0  0  0  0
  1  2  1  0
  2  3  2  0
  2  4  1  0
  4  5  1  0
  5  6  1  0
  6  7  1  0
  7  8  1  0
  8  9  2  0
  8 10  1  0
 10 11  1  0
 10 12  1  0
 12 13  1  0
 13 14  1  1
 13 15  1  0
 15 16  1  0
 16 17  1  0
 17 18  2  0
 18 19  1  0
 19 20  2  0
 20 21  1  0
 21 22  2  0
 21 23  1  0
 20 24  1  0
 17 25  1  0
 24 25  2  0
  7 26  1  0
  4 27  1  0
 26 27  1  0
M  CHG  2  21   1  23  -1
M  END
