piperidine-amides-18856-covalent
     RDKit          3D

 21 22  0  0  0  0  0  0  0  0999 V2000
    7.1900   -3.3800   19.4410 C   0  0  0  0  0  0  0  0  0  0  0  0
    6.4700   -4.1970   20.3790 C   0  0  0  0  0  0  0  0  0  0  0  0
    5.4230   -4.8110   19.9860 O   0  0  0  0  0  0  0  0  0  0  0  0
    6.9510   -4.3630   21.6910 N   0  0  0  0  0  0  0  0  0  0  0  0
    6.5990   -5.5900   22.4110 C   0  0  0  0  0  0  0  0  0  0  0  0
    5.5710   -4.9480   23.4120 C   0  0  0  0  0  0  0  0  0  0  0  0
    6.2880   -3.8480   24.1840 C   0  0  0  0  0  0  0  0  0  0  0  0
    5.2310   -3.3300   25.2430 C   0  0  0  0  0  0  0  0  0  0  0  0
    4.2470   -2.9260   24.6560 O   0  0  0  0  0  0  0  0  0  0  0  0
    5.6380   -3.4480   26.4360 N   0  0  0  0  0  0  0  0  0  0  0  0
    6.3570   -3.5260   27.5550 C   0  0  0  0  0  0  0  0  0  0  0  0
    6.6350   -4.5090   28.4510 C   0  0  0  0  0  0  0  0  0  0  0  0
    5.4410   -4.6650   29.1240 C   0  0  0  0  0  0  0  0  0  0  0  0
    4.8110   -3.5390   29.8570 C   0  0  0  0  0  0  0  0  0  0  0  0
    4.0100   -4.1480   30.8240 O   0  0  0  0  0  0  0  0  0  0  0  0
    5.5220   -5.9800   29.8330 C   0  0  0  0  0  0  0  0  0  0  0  0
    4.7710   -6.7990   29.2480 O   0  0  0  0  0  0  0  0  0  0  0  0
    4.3710   -4.5860   28.1410 C   0  0  0  0  0  0  0  0  0  0  0  0
    4.5160   -3.4340   27.3340 C   0  0  0  0  0  0  0  0  0  0  0  0
    7.0440   -2.8290   23.5010 C   0  0  0  0  0  0  0  0  0  0  0  0
    7.8370   -3.4950   22.3480 C   0  0  0  0  0  0  0  0  0  0  0  0
  1  2  1  0
  2  3  2  0
  2  4  1  0
  4  5  1  0
  5  6  1  0
  6  7  1  0
  7  8  1  0
  8  9  2  0
  8 10  1  0
 10 11  1  0
 11 12  1  0
 12 13  1  0
 13 14  1  0
 14 15  1  0
 13 16  1  0
 16 17  1  0
 13 18  1  0
 10 19  1  0
 18 19  1  0
  7 20  1  0
  4 21  1  0
 20 21  1  0
M  END
