piperidine-amides-6655-covalent
     RDKit          3D

 24 25  0  0  0  0  0  0  0  0999 V2000
    7.0750   -3.3370   19.2940 C   0  0  0  0  0  0  0  0  0  0  0  0
    6.4080   -4.1880   20.2910 C   0  0  0  0  0  0  0  0  0  0  0  0
    5.3770   -4.8220   19.9770 O   0  0  0  0  0  0  0  0  0  0  0  0
    6.9480   -4.3430   21.5740 N   0  0  0  0  0  0  0  0  0  0  0  0
    7.7000   -3.2650   22.1740 C   0  0  0  0  0  0  0  0  0  0  0  0
    6.7850   -2.6600   23.2300 C   0  0  0  0  0  0  0  0  0  0  0  0
    6.5840   -3.7630   24.2410 C   0  0  0  0  0  0  0  0  0  0  0  0
    5.7990   -3.2650   25.3860 C   0  0  0  0  0  0  0  0  0  0  0  0
    4.5630   -3.1450   25.2530 O   0  0  0  0  0  0  0  0  0  0  0  0
    6.4530   -2.9410   26.5970 N   0  0  0  0  0  0  0  0  0  0  0  0
    6.3600   -1.6170   27.1500 C   0  0  0  0  0  0  0  0  0  0  0  0
    7.0640   -1.5030   28.4780 C   0  0  0  0  0  0  0  0  0  0  0  0
    7.0880   -0.3230   29.1660 C   0  0  0  0  0  0  0  0  0  0  0  0
    6.4540    0.7890   28.6370 C   0  0  0  0  0  0  0  0  0  0  0  0
    6.4520    2.0210   29.3010 C   0  0  0  0  0  0  0  0  0  0  0  0
    6.3980    3.0010   28.3730 N   0  0  0  0  0  0  0  0  0  0  0  0
    7.1870    3.0060   27.1820 C   0  0  0  0  0  0  0  0  0  0  0  0
    6.2450    4.2870   28.7100 C   0  0  0  0  0  0  0  0  0  0  0  0
    5.1900    4.8010   27.7600 C   0  0  0  0  0  0  0  0  0  0  0  0
    7.5320    4.9890   28.7260 C   0  0  0  0  0  0  0  0  0  0  0  0
    5.7950    0.7180   27.4180 C   0  0  0  0  0  0  0  0  0  0  0  0
    5.7550   -0.4790   26.6890 C   0  0  0  0  0  0  0  0  0  0  0  0
    5.7700   -4.8840   23.5920 C   0  0  0  0  0  0  0  0  0  0  0  0
    6.5330   -5.4410   22.4160 C   0  0  0  0  0  0  0  0  0  0  0  0
  1  2  1  0
  2  3  2  0
  2  4  1  0
  4  5  1  0
  5  6  1  0
  6  7  1  0
  7  8  1  0
  8  9  2  0
  8 10  1  0
 10 11  1  0
 11 12  2  0
 12 13  1  0
 13 14  2  0
 14 15  1  0
 15 16  1  0
 16 17  1  0
 16 18  1  0
 18 19  1  0
 18 20  1  0
 14 21  1  0
 11 22  1  0
 21 22  2  0
  7 23  1  0
  4 24  1  0
 23 24  1  0
M  END
