piperidine-amides-11872-covalent
     RDKit          3D

 26 27  0  0  0  0  0  0  0  0999 V2000
    7.0490   -3.2930   19.3220 C   0  0  0  0  0  0  0  0  0  0  0  0
    6.3350   -4.0980   20.3140 C   0  0  0  0  0  0  0  0  0  0  0  0
    5.3640   -4.7660   19.9620 O   0  0  0  0  0  0  0  0  0  0  0  0
    6.7760   -4.1510   21.6910 N   0  0  0  0  0  0  0  0  0  0  0  0
    7.6620   -3.1230   22.2010 C   0  0  0  0  0  0  0  0  0  0  0  0
    7.4370   -2.9350   23.6740 C   0  0  0  0  0  0  0  0  0  0  0  0
    6.1130   -3.6020   23.9770 C   0  0  0  0  0  0  0  0  0  0  0  0
    5.5910   -3.2890   25.3480 C   0  0  0  0  0  0  0  0  0  0  0  0
    4.3680   -3.1780   25.5560 O   0  0  0  0  0  0  0  0  0  0  0  0
    6.4820   -3.1050   26.4450 N   0  0  0  0  0  0  0  0  0  0  0  0
    6.2490   -3.7960   27.7110 C   0  0  1  0  0  0  0  0  0  0  0  0
    5.8720   -2.7390   28.7160 C   0  0  0  0  0  0  0  0  0  0  0  0
    4.7480   -2.8300   29.5290 C   0  0  0  0  0  0  0  0  0  0  0  0
    4.4400   -1.8170   30.4640 C   0  0  0  0  0  0  0  0  0  0  0  0
    5.2460   -0.7030   30.6030 C   0  0  0  0  0  0  0  0  0  0  0  0
    5.0260    0.2150   31.4060 O   0  0  0  0  0  0  0  0  0  0  0  0
    5.0540    1.5800   31.2230 C   0  0  0  0  0  0  0  0  0  0  0  0
    5.3190    2.1830   32.4310 C   0  0  0  0  0  0  0  0  0  0  0  0
    6.3380   -0.6540   29.7860 C   0  0  0  0  0  0  0  0  0  0  0  0
    6.6630   -1.6230   28.8660 C   0  0  0  0  0  0  0  0  0  0  0  0
    5.4760   -4.9760   27.7210 C   0  0  0  0  0  0  0  0  0  0  0  0
    5.8110   -5.8500   26.7300 F   0  0  0  0  0  0  0  0  0  0  0  0
    4.1610   -4.6290   27.4990 F   0  0  0  0  0  0  0  0  0  0  0  0
    5.6420   -5.6610   28.9130 F   0  0  0  0  0  0  0  0  0  0  0  0
    6.1370   -5.0940   23.7150 C   0  0  0  0  0  0  0  0  0  0  0  0
    6.6350   -5.3800   22.4340 C   0  0  0  0  0  0  0  0  0  0  0  0
  1  2  1  0
  2  3  2  0
  2  4  1  0
  4  5  1  0
  5  6  1  0
  6  7  1  0
  7  8  1  0
  8  9  2  0
  8 10  1  0
 11 10  1  6
 11 12  1  0
 12 13  2  0
 13 14  1  0
 14 15  2  0
 15 16  1  0
 16 17  1  0
 17 18  1  0
 15 19  1  0
 12 20  1  0
 19 20  2  0
 11 21  1  0
 21 22  1  0
 21 23  1  0
 21 24  1  0
  7 25  1  0
  4 26  1  0
 25 26  1  0
M  END
