piperidine-amides-34282-covalent
     RDKit          3D

 30 32  0  0  0  0  0  0  0  0999 V2000
    7.0740   -3.3060   19.3240 C   0  0  0  0  0  0  0  0  0  0  0  0
    6.3940   -4.1440   20.3230 C   0  0  0  0  0  0  0  0  0  0  0  0
    5.4120   -4.8450   19.9860 O   0  0  0  0  0  0  0  0  0  0  0  0
    6.8670   -4.1940   21.6440 N   0  0  0  0  0  0  0  0  0  0  0  0
    7.6630   -3.1090   22.1730 C   0  0  0  0  0  0  0  0  0  0  0  0
    6.8910   -2.5560   23.3750 C   0  0  0  0  0  0  0  0  0  0  0  0
    6.6400   -3.7310   24.2930 C   0  0  0  0  0  0  0  0  0  0  0  0
    5.7960   -3.2800   25.4470 C   0  0  0  0  0  0  0  0  0  0  0  0
    4.5770   -3.1240   25.2150 O   0  0  0  0  0  0  0  0  0  0  0  0
    6.3330   -3.0290   26.7640 N   0  0  0  0  0  0  0  0  0  0  0  0
    6.2300   -4.0100   27.8320 C   0  0  0  0  0  0  0  0  0  0  0  0
    5.8000   -5.3970   27.3930 C   0  0  0  0  0  0  0  0  0  0  0  0
    6.4900   -6.3750   28.0090 F   0  0  0  0  0  0  0  0  0  0  0  0
    4.4450   -5.4900   27.8060 F   0  0  0  0  0  0  0  0  0  0  0  0
    5.7890   -5.5100   26.0390 F   0  0  0  0  0  0  0  0  0  0  0  0
    6.1220   -1.7050   27.3500 C   0  0  0  0  0  0  0  0  0  0  0  0
    5.8760   -0.6610   26.4960 C   0  0  0  0  0  0  0  0  0  0  0  0
    5.7380    0.6230   27.1100 C   0  0  0  0  0  0  0  0  0  0  0  0
    5.5210    0.4030   28.4430 N   0  0  0  0  0  0  0  0  0  0  0  0
    4.3240   -0.0610   29.0770 C   0  0  0  0  0  0  0  0  0  0  0  0
    3.1170   -0.2960   28.1880 C   0  0  0  0  0  0  0  0  0  0  0  0
    2.4950    0.5840   29.2140 C   0  0  0  0  0  0  0  0  0  0  0  0
    1.0220    1.0150   29.1980 C   0  0  0  0  0  0  0  0  0  0  0  0
    0.5660    0.2960   27.9320 C   0  0  0  0  0  0  0  0  0  0  0  0
    1.2290   -0.5390   26.9930 C   0  0  0  0  0  0  0  0  0  0  0  0
    2.5090   -0.8110   27.1570 C   0  0  0  0  0  0  0  0  0  0  0  0
    6.5870   -0.2460   29.1060 C   0  0  0  0  0  0  0  0  0  0  0  0
    7.0420   -1.3950   28.2810 C   0  0  0  0  0  0  0  0  0  0  0  0
    5.9690   -4.9250   23.6580 C   0  0  0  0  0  0  0  0  0  0  0  0
    6.5120   -5.3280   22.4550 C   0  0  0  0  0  0  0  0  0  0  0  0
  1  2  1  0
  2  3  2  0
  2  4  1  0
  4  5  1  0
  5  6  1  0
  6  7  1  0
  7  8  1  0
  8  9  2  0
  8 10  1  0
 10 11  1  0
 11 12  1  0
 12 13  1  0
 12 14  1  0
 12 15  1  0
 10 16  1  0
 16 17  1  0
 17 18  1  0
 18 19  1  0
 19 20  1  0
 20 21  1  0
 21 22  2  0
 22 23  1  0
 23 24  2  0
 24 25  1  0
 21 26  1  0
 25 26  2  0
 19 27  1  0
 16 28  1  0
 27 28  1  0
  7 29  1  0
  4 30  1  0
 29 30  1  0
M  END
