piperidine-amides-32797-covalent
     RDKit          3D

 24 26  0  0  0  0  0  0  0  0999 V2000
    7.0530   -3.3200   19.3070 C   0  0  0  0  0  0  0  0  0  0  0  0
    6.3440   -4.1740   20.3000 C   0  0  0  0  0  0  0  0  0  0  0  0
    5.3280   -4.7940   19.9540 O   0  0  0  0  0  0  0  0  0  0  0  0
    6.8630   -4.3050   21.6020 N   0  0  0  0  0  0  0  0  0  0  0  0
    6.6160   -5.4800   22.3900 C   0  0  0  0  0  0  0  0  0  0  0  0
    5.7410   -5.0310   23.5630 C   0  0  0  0  0  0  0  0  0  0  0  0
    5.6620   -3.5300   23.5400 C   0  0  0  0  0  0  0  0  0  0  0  0
    4.9310   -2.9570   24.7160 C   0  0  0  0  0  0  0  0  0  0  0  0
    3.8540   -2.4270   24.4980 O   0  0  0  0  0  0  0  0  0  0  0  0
    5.4390   -3.0420   25.9920 N   0  0  0  0  0  0  0  0  0  0  0  0
    4.8490   -2.5630   27.2120 C   0  0  0  0  0  0  0  0  0  0  0  0
    4.7960   -3.2950   28.3880 C   0  0  0  0  0  0  0  0  0  0  0  0
    5.2420   -4.6040   28.3670 C   0  0  0  0  0  0  0  0  0  0  0  0
    6.1900   -4.8290   27.4410 C   0  0  0  0  0  0  0  0  0  0  0  0
    7.1240   -5.8370   27.6390 C   0  0  0  0  0  0  0  0  0  0  0  0
    6.6320   -6.6680   29.2770 Br  0  0  0  0  0  0  0  0  0  0  0  0
    8.2680   -6.0850   26.6240 C   0  0  0  0  0  0  0  0  0  0  0  0
    9.2140   -7.0120   26.8420 F   0  0  0  0  0  0  0  0  0  0  0  0
    8.1920   -5.1920   25.4150 C   0  0  0  0  0  0  0  0  0  0  0  0
    7.2500   -4.2680   25.3040 C   0  0  0  0  0  0  0  0  0  0  0  0
    7.4000   -3.5420   24.1010 F   0  0  0  0  0  0  0  0  0  0  0  0
    6.2670   -4.1010   26.3460 C   0  0  0  0  0  0  0  0  0  0  0  0
    6.9400   -2.7560   23.3120 C   0  0  0  0  0  0  0  0  0  0  0  0
    7.6210   -3.2550   22.2250 C   0  0  0  0  0  0  0  0  0  0  0  0
  1  2  1  0
  2  3  2  0
  2  4  1  0
  4  5  1  0
  5  6  1  0
  6  7  1  0
  7  8  1  0
  8  9  2  0
  8 10  1  0
 10 11  1  0
 11 12  1  0
 12 13  1  0
 13 14  1  0
 14 15  2  0
 15 16  1  0
 15 17  1  0
 17 18  1  0
 17 19  2  0
 19 20  1  0
 20 21  1  0
 10 22  1  0
 14 22  1  0
 20 22  2  0
  7 23  1  0
  4 24  1  0
 23 24  1  0
M  END
