piperidine-amides-29627-covalent
     RDKit          3D

 27 29  0  0  0  0  0  0  0  0999 V2000
    7.0450   -3.3290   19.3620 C   0  0  0  0  0  0  0  0  0  0  0  0
    6.3540   -4.1650   20.3410 C   0  0  0  0  0  0  0  0  0  0  0  0
    5.3930   -4.8480   19.9830 O   0  0  0  0  0  0  0  0  0  0  0  0
    6.8050   -4.2290   21.7050 N   0  0  0  0  0  0  0  0  0  0  0  0
    7.7020   -3.2220   22.2300 C   0  0  0  0  0  0  0  0  0  0  0  0
    7.1970   -2.6690   23.5320 C   0  0  0  0  0  0  0  0  0  0  0  0
    5.9140   -3.4120   23.8840 C   0  0  0  0  0  0  0  0  0  0  0  0
    5.3130   -2.9610   25.1930 C   0  0  0  0  0  0  0  0  0  0  0  0
    4.0930   -2.7370   25.2750 O   0  0  0  0  0  0  0  0  0  0  0  0
    6.0800   -2.7950   26.3820 N   0  0  0  0  0  0  0  0  0  0  0  0
    6.1540   -3.9420   27.2320 C   0  0  0  0  0  0  0  0  0  0  0  0
    7.4080   -4.5140   26.7650 C   0  0  0  0  0  0  0  0  0  0  0  0
    8.0390   -3.8700   25.7160 C   0  0  0  0  0  0  0  0  0  0  0  0
    9.2210   -4.3370   25.2050 C   0  0  0  0  0  0  0  0  0  0  0  0
    9.7490   -5.4380   25.7740 C   0  0  0  0  0  0  0  0  0  0  0  0
    9.0890   -6.0660   26.8290 C   0  0  0  0  0  0  0  0  0  0  0  0
    7.9320   -5.6310   27.3340 C   0  0  0  0  0  0  0  0  0  0  0  0
    7.2770   -6.1950   28.3120 O   0  0  0  0  0  0  0  0  0  0  0  0
    6.2060   -1.5440   27.0990 C   0  0  0  0  0  0  0  0  0  0  0  0
    5.7370   -0.3580   26.5860 C   0  0  0  0  0  0  0  0  0  0  0  0
    6.0080    0.4850   27.5080 N   0  0  0  0  0  0  0  0  0  0  0  0
    6.6020   -0.0990   28.5220 N   0  0  0  0  0  0  0  0  0  0  0  0
    7.0030    0.6750   29.7190 C   0  0  0  0  0  0  0  0  0  0  0  0
    6.8050   -1.4770   28.3630 C   0  0  0  0  0  0  0  0  0  0  0  0
    7.3060   -1.0350   29.5730 C   0  0  0  0  0  0  0  0  0  0  0  0
    6.1090   -4.9160   23.8820 C   0  0  0  0  0  0  0  0  0  0  0  0
    6.5830   -5.4090   22.5010 C   0  0  0  0  0  0  0  0  0  0  0  0
  1  2  1  0
  2  3  2  0
  2  4  1  0
  4  5  1  0
  5  6  1  0
  6  7  1  0
  7  8  1  0
  8  9  2  0
  8 10  1  0
 10 11  1  0
 11 12  1  0
 12 13  2  0
 13 14  1  0
 14 15  2  0
 15 16  1  0
 12 17  1  0
 16 17  2  0
 17 18  1  0
 10 19  1  0
 19 20  1  0
 20 21  2  0
 21 22  1  0
 22 23  1  0
 19 24  2  0
 22 24  1  0
 24 25  1  0
  7 26  1  0
  4 27  1  0
 26 27  1  0
M  END
