piperidine-amides-29998-covalent
     RDKit          3D

 26 28  0  0  0  0  0  0  0  0999 V2000
    7.0360   -3.3620   19.3830 C   0  0  0  0  0  0  0  0  0  0  0  0
    6.3670   -4.2130   20.3610 C   0  0  0  0  0  0  0  0  0  0  0  0
    5.3890   -4.8700   19.9980 O   0  0  0  0  0  0  0  0  0  0  0  0
    6.8570   -4.3430   21.7150 N   0  0  0  0  0  0  0  0  0  0  0  0
    6.6020   -5.5550   22.4600 C   0  0  0  0  0  0  0  0  0  0  0  0
    6.1360   -5.2520   23.8680 C   0  0  0  0  0  0  0  0  0  0  0  0
    5.9580   -3.7480   24.0040 C   0  0  0  0  0  0  0  0  0  0  0  0
    5.3000   -3.3280   25.2910 C   0  0  0  0  0  0  0  0  0  0  0  0
    4.1160   -2.9530   25.2870 O   0  0  0  0  0  0  0  0  0  0  0  0
    5.9650   -3.3300   26.5490 N   0  0  0  0  0  0  0  0  0  0  0  0
    6.0920   -4.5720   27.2900 C   0  0  0  0  0  0  0  0  0  0  0  0
    4.8460   -5.0800   27.9550 C   0  0  0  0  0  0  0  0  0  0  0  0
    4.6860   -6.4610   28.1550 C   0  0  0  0  0  0  0  0  0  0  0  0
    3.5700   -7.0530   28.7730 C   0  0  0  0  0  0  0  0  0  0  0  0
    2.5320   -6.2870   29.2330 C   0  0  0  0  0  0  0  0  0  0  0  0
    1.5490   -6.8100   29.7800 O   0  0  0  0  0  0  0  0  0  0  0  0
    1.3510   -8.1420   30.0940 C   0  0  0  0  0  0  0  0  0  0  0  0
    2.6360   -4.9510   29.0620 C   0  0  0  0  0  0  0  0  0  0  0  0
    3.6970   -4.3250   28.4700 C   0  0  0  0  0  0  0  0  0  0  0  0
    6.1710   -2.0940   27.2690 C   0  0  0  0  0  0  0  0  0  0  0  0
    6.0040   -0.7780   26.9620 N   0  0  0  0  0  0  0  0  0  0  0  0
    6.3390    0.0230   28.0100 C   0  0  0  0  0  0  0  0  0  0  0  0
    6.7890   -0.3380   29.2430 C   0  0  0  0  0  0  0  0  0  0  0  0
    6.7700   -1.9900   28.9800 S   0  0  0  0  0  0  0  0  0  0  0  0
    7.2560   -3.0500   23.7380 C   0  0  0  0  0  0  0  0  0  0  0  0
    7.5910   -3.2590   22.2970 C   0  0  0  0  0  0  0  0  0  0  0  0
  1  2  1  0
  2  3  2  0
  2  4  1  0
  4  5  1  0
  5  6  1  0
  6  7  1  0
  7  8  1  0
  8  9  2  0
  8 10  1  0
 10 11  1  0
 11 12  1  0
 12 13  2  0
 13 14  1  0
 14 15  2  0
 15 16  1  0
 16 17  1  0
 15 18  1  0
 12 19  1  0
 18 19  2  0
 10 20  1  0
 20 21  2  0
 21 22  1  0
 22 23  2  0
 20 24  1  0
 23 24  1  0
  7 25  1  0
  4 26  1  0
 25 26  1  0
M  END
