piperidine-amides-7088-covalent
     RDKit          3D

 22 23  0  0  0  0  0  0  0  0999 V2000
    7.0470   -3.3210   19.3390 C   0  0  0  0  0  0  0  0  0  0  0  0
    6.3690   -4.1760   20.3300 C   0  0  0  0  0  0  0  0  0  0  0  0
    5.3880   -4.8700   19.9870 O   0  0  0  0  0  0  0  0  0  0  0  0
    6.8460   -4.2480   21.6500 N   0  0  0  0  0  0  0  0  0  0  0  0
    7.6860   -3.1700   22.1620 C   0  0  0  0  0  0  0  0  0  0  0  0
    7.4200   -2.9780   23.6590 C   0  0  0  0  0  0  0  0  0  0  0  0
    6.0510   -3.5430   23.9190 C   0  0  0  0  0  0  0  0  0  0  0  0
    5.6270   -3.1920   25.2860 C   0  0  0  0  0  0  0  0  0  0  0  0
    4.4100   -3.2220   25.5580 O   0  0  0  0  0  0  0  0  0  0  0  0
    6.6010   -2.8310   26.2390 N   0  0  0  0  0  0  0  0  0  0  0  0
    6.4910   -1.6230   27.0080 C   0  0  0  0  0  0  0  0  0  0  0  0
    6.9910   -1.6060   28.4250 C   0  0  0  0  0  0  0  0  0  0  0  0
    6.9110   -0.4920   29.1980 C   0  0  0  0  0  0  0  0  0  0  0  0
    6.3560    0.6570   28.6800 C   0  0  0  0  0  0  0  0  0  0  0  0
    6.2510    2.0890   29.6850 Cl  0  0  0  0  0  0  0  0  0  0  0  0
    5.8490    0.7950   27.3780 C   0  0  0  0  0  0  0  0  0  0  0  0
    5.2970    1.9520   26.8720 C   0  0  0  0  0  0  0  0  0  0  0  0
    5.6650    2.1810   25.1450 S   0  0  0  0  0  0  0  0  0  0  0  0
    4.6310    1.2210   24.0570 C   0  0  0  0  0  0  0  0  0  0  0  0
    5.8950   -0.3850   26.4430 C   0  0  0  0  0  0  0  0  0  0  0  0
    5.9890   -5.0020   23.7290 C   0  0  0  0  0  0  0  0  0  0  0  0
    6.5750   -5.3980   22.4540 C   0  0  0  0  0  0  0  0  0  0  0  0
  1  2  1  0
  2  3  2  0
  2  4  1  0
  4  5  1  0
  5  6  1  0
  6  7  1  0
  7  8  1  0
  8  9  2  0
  8 10  1  0
 10 11  1  0
 11 12  2  0
 12 13  1  0
 13 14  2  0
 14 15  1  0
 14 16  1  0
 16 17  1  0
 17 18  1  0
 18 19  1  0
 11 20  1  0
 16 20  2  0
  7 21  1  0
  4 22  1  0
 21 22  1  0
M  END
