piperidine-amides-6530-covalent
     RDKit          3D

 24 25  0  0  0  0  0  0  0  0999 V2000
    7.1220   -3.3440   19.3260 C   0  0  0  0  0  0  0  0  0  0  0  0
    6.4060   -4.1790   20.2950 C   0  0  0  0  0  0  0  0  0  0  0  0
    5.3580   -4.7790   19.9660 O   0  0  0  0  0  0  0  0  0  0  0  0
    6.9310   -4.3570   21.5790 N   0  0  0  0  0  0  0  0  0  0  0  0
    7.7240   -3.3060   22.1810 C   0  0  0  0  0  0  0  0  0  0  0  0
    6.8280   -2.6750   23.2380 C   0  0  0  0  0  0  0  0  0  0  0  0
    6.5660   -3.7720   24.2320 C   0  0  0  0  0  0  0  0  0  0  0  0
    5.7520   -3.2550   25.3440 C   0  0  0  0  0  0  0  0  0  0  0  0
    4.5380   -3.0380   25.1450 O   0  0  0  0  0  0  0  0  0  0  0  0
    6.3570   -3.0250   26.5920 N   0  0  0  0  0  0  0  0  0  0  0  0
    6.3370   -1.7200   27.1930 C   0  0  0  0  0  0  0  0  0  0  0  0
    7.0170   -1.7470   28.5270 C   0  0  0  0  0  0  0  0  0  0  0  0
    7.1180   -0.6290   29.2850 C   0  0  0  0  0  0  0  0  0  0  0  0
    6.5850    0.5560   28.8290 C   0  0  0  0  0  0  0  0  0  0  0  0
    6.6790    1.7070   29.6010 C   0  0  0  0  0  0  0  0  0  0  0  0
    6.4760    2.9600   29.1150 O   0  0  0  0  0  0  0  0  0  0  0  0
    6.9840    1.7140   30.9460 C   0  0  0  0  0  0  0  0  0  0  0  0
    6.8250    0.5160   31.8680 C   0  0  0  0  0  0  0  0  0  0  0  0
    8.2000    1.0280   31.4720 C   0  0  0  0  0  0  0  0  0  0  0  0
    6.7630    2.8520   31.6610 C   0  0  0  0  0  0  0  0  0  0  0  0
    5.9440    0.6350   27.5990 C   0  0  0  0  0  0  0  0  0  0  0  0
    5.8300   -0.5110   26.7930 C   0  0  0  0  0  0  0  0  0  0  0  0
    5.7550   -4.8820   23.5580 C   0  0  0  0  0  0  0  0  0  0  0  0
    6.5200   -5.4680   22.3960 C   0  0  0  0  0  0  0  0  0  0  0  0
  1  2  1  0
  2  3  2  0
  2  4  1  0
  4  5  1  0
  5  6  1  0
  6  7  1  0
  7  8  1  0
  8  9  2  0
  8 10  1  0
 10 11  1  0
 11 12  2  0
 12 13  1  0
 13 14  2  0
 14 15  1  0
 15 16  2  0
 17 15  1  0
 17 18  1  0
 17 19  1  0
 17 20  1  0
 14 21  1  0
 11 22  1  0
 21 22  2  0
  7 23  1  0
  4 24  1  0
 23 24  1  0
M  END
