piperidine-amides-4466-covalent
     RDKit          3D

 25 27  0  0  0  0  0  0  0  0999 V2000
    7.1850   -3.2650   19.1180 C   0  0  0  0  0  0  0  0  0  0  0  0
    6.4400   -3.9720   20.1790 C   0  0  0  0  0  0  0  0  0  0  0  0
    5.3310   -4.4550   19.8600 O   0  0  0  0  0  0  0  0  0  0  0  0
    6.9990   -4.1360   21.4500 N   0  0  0  0  0  0  0  0  0  0  0  0
    6.5790   -5.1840   22.2930 C   0  0  0  0  0  0  0  0  0  0  0  0
    6.0000   -4.7150   23.5490 C   0  0  0  0  0  0  0  0  0  0  0  0
    6.5210   -3.4240   24.1180 C   0  0  0  0  0  0  0  0  0  0  0  0
    5.4560   -2.8000   24.9370 C   0  0  0  0  0  0  0  0  0  0  0  0
    4.6840   -2.0060   24.3830 O   0  0  0  0  0  0  0  0  0  0  0  0
    5.2750   -3.0800   26.2910 N   0  0  0  0  0  0  0  0  0  0  0  0
    4.3050   -4.1140   26.6930 C   0  0  1  0  0  0  0  0  0  0  0  0
    4.2110   -5.1800   25.6650 C   0  0  0  0  0  0  0  0  0  0  0  0
    4.3830   -6.5850   26.0470 C   0  0  0  0  0  0  0  0  0  0  0  0
    4.9430   -4.7360   27.7300 C   0  0  0  0  0  0  0  0  0  0  0  0
    4.4300   -4.9160   28.9900 C   0  0  0  0  0  0  0  0  0  0  0  0
    5.1630   -5.5630   29.9140 C   0  0  0  0  0  0  0  0  0  0  0  0
    6.3980   -6.0190   29.5910 C   0  0  0  0  0  0  0  0  0  0  0  0
    6.9190   -5.8340   28.3530 C   0  0  0  0  0  0  0  0  0  0  0  0
    8.1810   -6.2790   28.0280 C   0  0  0  0  0  0  0  0  0  0  0  0
    8.8680   -6.1940   26.7170 C   0  0  0  0  0  0  0  0  0  0  0  0
    8.0200   -5.5160   25.6990 C   0  0  0  0  0  0  0  0  0  0  0  0
    6.7040   -5.0680   26.1970 C   0  0  0  0  0  0  0  0  0  0  0  0
    6.1820   -5.2240   27.4790 C   0  0  0  0  0  0  0  0  0  0  0  0
    7.1370   -2.5120   23.1580 C   0  0  0  0  0  0  0  0  0  0  0  0
    7.8880   -3.1590   22.0660 C   0  0  0  0  0  0  0  0  0  0  0  0
  1  2  1  0
  2  3  2  0
  2  4  1  0
  4  5  1  0
  5  6  1  0
  6  7  1  0
  7  8  1  0
  8  9  2  0
  8 10  1  0
 10 11  1  0
 11 12  1  6
 12 13  1  0
 11 14  1  0
 14 15  2  0
 15 16  1  0
 16 17  2  0
 17 18  1  0
 18 19  1  0
 19 20  2  0
 20 21  1  0
 21 22  2  0
 14 23  1  0
 18 23  2  0
 22 23  1  0
  7 24  1  0
  4 25  1  0
 24 25  1  0
M  END
