piperidine-amides-32783-covalent
     RDKit          3D

 27 29  0  0  0  0  0  0  0  0999 V2000
    7.1110   -3.3360   19.3180 C   0  0  0  0  0  0  0  0  0  0  0  0
    6.4360   -4.2220   20.2970 C   0  0  0  0  0  0  0  0  0  0  0  0
    5.3790   -4.7910   19.9700 O   0  0  0  0  0  0  0  0  0  0  0  0
    7.0510   -4.4490   21.5460 N   0  0  0  0  0  0  0  0  0  0  0  0
    7.7470   -3.4000   22.2350 C   0  0  0  0  0  0  0  0  0  0  0  0
    6.7600   -2.8800   23.2720 C   0  0  0  0  0  0  0  0  0  0  0  0
    6.4320   -3.9910   24.2220 C   0  0  0  0  0  0  0  0  0  0  0  0
    5.6430   -3.4520   25.3500 C   0  0  0  0  0  0  0  0  0  0  0  0
    4.6630   -2.7750   25.0290 O   0  0  0  0  0  0  0  0  0  0  0  0
    5.9800   -3.6960   26.6780 N   0  0  0  0  0  0  0  0  0  0  0  0
    5.4120   -4.6750   27.5110 C   0  0  0  0  0  0  0  0  0  0  0  0
    5.6310   -4.7230   28.8770 C   0  0  0  0  0  0  0  0  0  0  0  0
    5.6420   -3.3730   29.4540 N   0  0  0  0  0  0  0  0  0  0  0  0
    4.1390   -2.5710   29.3090 S   0  0  0  0  0  0  0  0  0  0  0  0
    4.3480   -1.0700   29.2030 O   0  0  0  0  0  0  0  0  0  0  0  0
    3.4590   -3.0620   28.0730 O   0  0  0  0  0  0  0  0  0  0  0  0
    3.0830   -2.9280   30.6280 N   0  0  0  0  0  0  0  0  0  0  0  0
    1.9350   -2.0440   30.6090 C   0  0  0  0  0  0  0  0  0  0  0  0
    0.8200   -2.8480   30.6740 C   0  0  0  0  0  0  0  0  0  0  0  0
    0.3530   -3.4020   31.9740 C   0  0  0  0  0  0  0  0  0  0  0  0
    1.0540   -4.6640   32.4890 C   0  0  0  0  0  0  0  0  0  0  0  0
    2.5520   -4.4360   32.2780 C   0  0  0  0  0  0  0  0  0  0  0  0
    3.0230   -4.2100   31.0010 C   0  0  0  0  0  0  0  0  0  0  0  0
    6.7830   -3.0090   28.6960 C   0  0  0  0  0  0  0  0  0  0  0  0
    6.4580   -2.5220   27.3070 C   0  0  0  0  0  0  0  0  0  0  0  0
    5.7700   -5.1020   23.5060 C   0  0  0  0  0  0  0  0  0  0  0  0
    6.6530   -5.5660   22.3360 C   0  0  0  0  0  0  0  0  0  0  0  0
  1  2  1  0
  2  3  2  0
  2  4  1  0
  4  5  1  0
  5  6  1  0
  6  7  1  0
  7  8  1  0
  8  9  2  0
  8 10  1  0
 10 11  1  0
 11 12  1  0
 12 13  1  0
 14 13  1  0
 14 15  2  0
 14 16  2  0
 14 17  1  0
 17 18  1  0
 18 19  1  0
 19 20  1  0
 20 21  1  0
 21 22  1  0
 17 23  1  0
 22 23  1  0
 13 24  1  0
 10 25  1  0
 24 25  1  0
  7 26  1  0
  4 27  1  0
 26 27  1  0
M  END
