piperidine-amides-19281-covalent
     RDKit          3D

 22 23  0  0  0  0  0  0  0  0999 V2000
    7.1190   -3.3630   19.4800 C   0  0  0  0  0  0  0  0  0  0  0  0
    6.4440   -4.2200   20.4330 C   0  0  0  0  0  0  0  0  0  0  0  0
    5.4640   -4.9200   20.0100 O   0  0  0  0  0  0  0  0  0  0  0  0
    6.8610   -4.3200   21.7880 N   0  0  0  0  0  0  0  0  0  0  0  0
    6.4330   -5.5010   22.5720 C   0  0  0  0  0  0  0  0  0  0  0  0
    6.7140   -4.9750   24.0450 C   0  0  0  0  0  0  0  0  0  0  0  0
    6.2140   -3.5500   24.0350 C   0  0  0  0  0  0  0  0  0  0  0  0
    5.5160   -3.0100   25.3690 C   0  0  0  0  0  0  0  0  0  0  0  0
    4.5020   -2.4230   25.0610 O   0  0  0  0  0  0  0  0  0  0  0  0
    6.1280   -3.3120   26.4390 N   0  0  0  0  0  0  0  0  0  0  0  0
    6.5470   -4.1660   27.4230 C   0  0  0  0  0  0  0  0  0  0  0  0
    6.2930   -2.0420   27.1170 C   0  0  0  0  0  0  0  0  0  0  0  0
    6.8640   -1.9410   28.4730 C   0  0  0  0  0  0  0  0  0  0  0  0
    7.1210   -0.7750   29.3850 C   0  0  0  0  0  0  0  0  0  0  0  0
    6.6180    0.3270   28.5230 C   0  0  0  0  0  0  0  0  0  0  0  0
    6.6250    1.6670   28.9280 C   0  0  0  0  0  0  0  0  0  0  0  0
    7.0350    2.0200   30.2260 N   0  0  0  0  0  0  0  0  0  0  0  0
    6.0330    0.5670   27.2140 C   0  0  0  0  0  0  0  0  0  0  0  0
    5.8450   -0.7060   26.4130 C   0  0  0  0  0  0  0  0  0  0  0  0
    5.3180   -0.6670   25.1770 F   0  0  0  0  0  0  0  0  0  0  0  0
    7.0510   -2.6210   23.2230 C   0  0  0  0  0  0  0  0  0  0  0  0
    7.7920   -3.3820   22.3660 C   0  0  0  0  0  0  0  0  0  0  0  0
  1  2  1  0
  2  3  2  0
  2  4  1  0
  4  5  1  0
  5  6  1  0
  6  7  1  0
  7  8  1  0
  8  9  2  0
  8 10  1  0
 10 11  1  0
 10 12  1  0
 12 13  2  0
 13 14  1  0
 14 15  2  0
 15 16  1  0
 16 17  3  0
 15 18  1  0
 12 19  1  0
 18 19  2  0
 19 20  1  0
  7 21  1  0
  4 22  1  0
 21 22  1  0
M  END
