piperidine-amides-31117-covalent
     RDKit          3D

 23 25  0  0  0  0  0  0  0  0999 V2000
    7.0080   -3.3640   19.3900 C   0  0  0  0  0  0  0  0  0  0  0  0
    6.2990   -4.1740   20.3910 C   0  0  0  0  0  0  0  0  0  0  0  0
    5.3830   -4.9140   19.9950 O   0  0  0  0  0  0  0  0  0  0  0  0
    6.6380   -4.1790   21.7640 N   0  0  0  0  0  0  0  0  0  0  0  0
    6.4240   -5.3280   22.6120 C   0  0  0  0  0  0  0  0  0  0  0  0
    5.7720   -4.8280   23.8960 C   0  0  0  0  0  0  0  0  0  0  0  0
    5.5990   -3.3190   23.9390 C   0  0  0  0  0  0  0  0  0  0  0  0
    4.9470   -2.7600   25.2180 C   0  0  0  0  0  0  0  0  0  0  0  0
    3.7220   -2.4910   25.1820 O   0  0  0  0  0  0  0  0  0  0  0  0
    5.5780   -2.5570   26.4900 N   0  0  0  0  0  0  0  0  0  0  0  0
    4.7660   -2.3470   27.7260 C   0  0  0  0  0  0  0  0  0  0  0  0
    4.6370   -3.6040   28.5270 C   0  0  0  0  0  0  0  0  0  0  0  0
    5.8990   -4.2250   28.8970 C   0  0  0  0  0  0  0  0  0  0  0  0
    6.7290   -4.2340   27.7090 C   0  0  0  0  0  0  0  0  0  0  0  0
    7.7980   -5.1970   27.6830 C   0  0  0  0  0  0  0  0  0  0  0  0
    8.5260   -5.0840   26.4250 C   0  0  0  0  0  0  0  0  0  0  0  0
    9.7830   -6.2590   26.2900 Br  0  0  0  0  0  0  0  0  0  0  0  0
    8.3580   -4.2440   25.3960 C   0  0  0  0  0  0  0  0  0  0  0  0
    9.1120   -4.2070   24.2780 F   0  0  0  0  0  0  0  0  0  0  0  0
    7.3750   -3.4140   25.4920 C   0  0  0  0  0  0  0  0  0  0  0  0
    6.5510   -3.4390   26.6650 C   0  0  0  0  0  0  0  0  0  0  0  0
    6.8200   -2.5180   23.5130 C   0  0  0  0  0  0  0  0  0  0  0  0
    7.5100   -3.1540   22.3140 C   0  0  0  0  0  0  0  0  0  0  0  0
  1  2  1  0
  2  3  2  0
  2  4  1  0
  4  5  1  0
  5  6  1  0
  6  7  1  0
  7  8  1  0
  8  9  2  0
  8 10  1  0
 10 11  1  0
 11 12  1  0
 12 13  1  0
 13 14  1  0
 14 15  2  0
 15 16  1  0
 16 17  1  0
 16 18  2  0
 18 19  1  0
 18 20  1  0
 10 21  1  0
 14 21  1  0
 20 21  2  0
  7 22  1  0
  4 23  1  0
 22 23  1  0
M  END
