piperidine-amides-1890-covalent
     RDKit          3D

 17 17  0  0  0  0  0  0  0  0999 V2000
    7.0800   -3.2690   19.2070 C   0  0  0  0  0  0  0  0  0  0  0  0
    6.3680   -4.0670   20.2370 C   0  0  0  0  0  0  0  0  0  0  0  0
    5.3080   -4.5900   19.8960 O   0  0  0  0  0  0  0  0  0  0  0  0
    6.9250   -4.2470   21.5060 N   0  0  0  0  0  0  0  0  0  0  0  0
    7.6840   -3.2020   22.1430 C   0  0  0  0  0  0  0  0  0  0  0  0
    6.9360   -2.7480   23.3620 C   0  0  0  0  0  0  0  0  0  0  0  0
    6.4280   -3.9580   24.1520 C   0  0  0  0  0  0  0  0  0  0  0  0
    5.7580   -3.4500   25.3660 C   0  0  0  0  0  0  0  0  0  0  0  0
    4.5470   -3.1910   25.3250 O   0  0  0  0  0  0  0  0  0  0  0  0
    6.4720   -3.2490   26.5570 N   0  0  0  0  0  0  0  0  0  0  0  0
    6.3340   -4.1950   27.6500 C   0  0  1  0  0  0  0  0  0  0  0  0
    5.1290   -3.7690   28.4060 C   0  0  0  0  0  0  0  0  0  0  0  0
    6.0440   -5.5920   27.2230 C   0  0  0  0  0  0  0  0  0  0  0  0
    6.0150   -5.9660   28.5220 C   0  0  0  0  0  0  0  0  0  0  0  0
    7.1730   -6.6010   28.8710 O   0  0  0  0  0  0  0  0  0  0  0  0
    5.5190   -4.8290   23.2790 C   0  0  0  0  0  0  0  0  0  0  0  0
    6.4510   -5.3970   22.2340 C   0  0  0  0  0  0  0  0  0  0  0  0
  1  2  1  0
  2  3  2  0
  2  4  1  0
  4  5  1  0
  5  6  1  0
  6  7  1  0
  7  8  1  0
  8  9  2  0
  8 10  1  0
 10 11  1  0
 11 12  1  1
 11 13  1  0
 13 14  1  0
 14 15  1  0
  7 16  1  0
  4 17  1  0
 16 17  1  0
M  END
