piperidine-amides-308-covalent
     RDKit          3D

 29 31  0  0  0  0  0  0  0  0999 V2000
    7.1130   -3.3130   19.1210 C   0  0  0  0  0  0  0  0  0  0  0  0
    6.3680   -3.9530   20.1780 C   0  0  0  0  0  0  0  0  0  0  0  0
    5.2710   -4.5150   19.8750 O   0  0  0  0  0  0  0  0  0  0  0  0
    6.8350   -4.0280   21.4970 N   0  0  0  0  0  0  0  0  0  0  0  0
    6.6140   -5.2990   22.2250 C   0  0  0  0  0  0  0  0  0  0  0  0
    5.6100   -4.8490   23.3610 C   0  0  0  0  0  0  0  0  0  0  0  0
    5.8400   -3.3730   23.6190 C   0  0  0  0  0  0  0  0  0  0  0  0
    5.0190   -2.8680   24.8690 C   0  0  0  0  0  0  0  0  0  0  0  0
    4.4600   -1.8060   24.6670 O   0  0  0  0  0  0  0  0  0  0  0  0
    5.1690   -3.7300   25.7570 N   0  0  0  0  0  0  0  0  0  0  0  0
    5.4000   -4.6480   26.6940 C   0  0  1  0  0  0  0  0  0  0  0  0
    4.9550   -5.8380   27.2220 C   0  0  0  0  0  0  0  0  0  0  0  0
    4.0210   -6.5390   26.4180 C   0  0  0  0  0  0  0  0  0  0  0  0
    4.1550   -6.8080   24.9800 C   0  0  0  0  0  0  0  0  0  0  0  0
    3.0020   -7.5860   24.3380 C   0  0  0  0  0  0  0  0  0  0  0  0
    1.9200   -7.9890   25.1380 C   0  0  0  0  0  0  0  0  0  0  0  0
    0.7460   -8.8540   24.1390 Cl  0  0  0  0  0  0  0  0  0  0  0  0
    1.5490   -7.8760   26.4920 C   0  0  0  0  0  0  0  0  0  0  0  0
    2.7580   -7.0930   27.0070 C   0  0  0  0  0  0  0  0  0  0  0  0
    2.6080   -6.7700   28.7300 Cl  0  0  0  0  0  0  0  0  0  0  0  0
    6.8070   -4.9740   26.3490 C   0  0  0  0  0  0  0  0  0  0  0  0
    6.7920   -5.0510   27.6620 C   0  0  0  0  0  0  0  0  0  0  0  0
    7.8960   -5.3670   28.2600 C   0  0  0  0  0  0  0  0  0  0  0  0
    8.9420   -5.5820   27.4500 C   0  0  0  0  0  0  0  0  0  0  0  0
    9.9760   -5.8900   28.1340 F   0  0  0  0  0  0  0  0  0  0  0  0
    8.9660   -5.4980   26.0670 C   0  0  0  0  0  0  0  0  0  0  0  0
    7.7810   -5.1600   25.4430 C   0  0  0  0  0  0  0  0  0  0  0  0
    7.2160   -2.8260   23.4880 C   0  0  0  0  0  0  0  0  0  0  0  0
    7.7160   -3.0800   22.1200 C   0  0  0  0  0  0  0  0  0  0  0  0
  1  2  1  0
  2  3  2  0
  2  4  1  0
  4  5  1  0
  5  6  1  0
  6  7  1  0
  7  8  1  0
  8  9  2  0
  8 10  1  0
 10 11  1  0
 11 12  1  6
 12 13  1  0
 13 14  2  0
 14 15  1  0
 15 16  2  0
 16 17  1  0
 16 18  1  0
 13 19  1  0
 18 19  2  0
 19 20  1  0
 11 21  1  0
 21 22  2  0
 22 23  1  0
 23 24  2  0
 24 25  1  0
 24 26  1  0
 21 27  1  0
 26 27  2  0
  7 28  1  0
  4 29  1  0
 28 29  1  0
M  END
