piperidine-amides-27636-covalent
     RDKit          3D

 25 27  0  0  0  0  0  0  0  0999 V2000
    7.3850   -3.2990   19.2600 C   0  0  0  0  0  0  0  0  0  0  0  0
    6.5440   -3.9750   20.2740 C   0  0  0  0  0  0  0  0  0  0  0  0
    5.4400   -4.4570   19.8840 O   0  0  0  0  0  0  0  0  0  0  0  0
    6.9790   -4.0970   21.5990 N   0  0  0  0  0  0  0  0  0  0  0  0
    6.4740   -5.1270   22.4650 C   0  0  0  0  0  0  0  0  0  0  0  0
    5.5350   -4.4950   23.4730 C   0  0  0  0  0  0  0  0  0  0  0  0
    6.0800   -3.2550   24.1810 C   0  0  0  0  0  0  0  0  0  0  0  0
    4.9690   -2.5680   24.9460 C   0  0  0  0  0  0  0  0  0  0  0  0
    3.8270   -3.0680   24.8460 O   0  0  0  0  0  0  0  0  0  0  0  0
    5.1040   -1.3960   25.7820 N   0  0  0  0  0  0  0  0  0  0  0  0
    6.3200   -0.6440   25.5980 C   0  0  0  0  0  0  0  0  0  0  0  0
    4.6510   -1.4810   27.1770 C   0  0  0  0  0  0  0  0  0  0  0  0
    5.7570   -2.0360   27.5280 C   0  0  0  0  0  0  0  0  0  0  0  0
    6.7940   -1.7900   28.4150 C   0  0  0  0  0  0  0  0  0  0  0  0
    7.8530   -2.6780   28.3580 C   0  0  0  0  0  0  0  0  0  0  0  0
    7.7140   -3.6760   27.4280 C   0  0  0  0  0  0  0  0  0  0  0  0
    8.4290   -4.6430   27.0090 C   0  0  0  0  0  0  0  0  0  0  0  0
    8.8980   -4.4330   25.5790 C   0  0  0  0  0  0  0  0  0  0  0  0
    9.6870   -5.6130   25.2120 C   0  0  0  0  0  0  0  0  0  0  0  0
    9.6590   -6.5790   26.5530 S   0  0  0  0  0  0  0  0  0  0  0  0
    8.7050   -5.7200   27.7630 C   0  0  0  0  0  0  0  0  0  0  0  0
    6.5730   -3.8710   26.5720 C   0  0  0  0  0  0  0  0  0  0  0  0
    5.6220   -3.0290   26.6570 C   0  0  0  0  0  0  0  0  0  0  0  0
    6.6920   -2.3180   23.1450 C   0  0  0  0  0  0  0  0  0  0  0  0
    7.7080   -3.0500   22.2740 C   0  0  0  0  0  0  0  0  0  0  0  0
  1  2  1  0
  2  3  2  0
  2  4  1  0
  4  5  1  0
  5  6  1  0
  6  7  1  0
  7  8  1  0
  8  9  2  0
  8 10  1  0
 10 11  1  0
 10 12  1  0
 12 13  1  0
 13 14  2  0
 14 15  1  0
 15 16  2  0
 16 17  1  0
 17 18  1  0
 18 19  2  0
 19 20  1  0
 17 21  2  0
 20 21  1  0
 16 22  1  0
 13 23  1  0
 22 23  2  0
  7 24  1  0
  4 25  1  0
 24 25  1  0
M  END
