piperidine-amides-24481-covalent
     RDKit          3D

 24 26  0  0  0  0  0  0  0  0999 V2000
    7.0710   -3.3380   19.3750 C   0  0  0  0  0  0  0  0  0  0  0  0
    6.4050   -4.2140   20.3550 C   0  0  0  0  0  0  0  0  0  0  0  0
    5.4240   -4.9070   19.9990 O   0  0  0  0  0  0  0  0  0  0  0  0
    6.8860   -4.3030   21.6770 N   0  0  0  0  0  0  0  0  0  0  0  0
    6.6890   -5.5460   22.4170 C   0  0  0  0  0  0  0  0  0  0  0  0
    6.2100   -5.2110   23.8490 C   0  0  0  0  0  0  0  0  0  0  0  0
    6.2240   -3.7090   23.9440 C   0  0  0  0  0  0  0  0  0  0  0  0
    5.7530   -3.1850   25.2460 C   0  0  0  0  0  0  0  0  0  0  0  0
    5.1920   -2.0780   25.2250 O   0  0  0  0  0  0  0  0  0  0  0  0
    5.8640   -3.8760   26.4690 N   0  0  0  0  0  0  0  0  0  0  0  0
    4.6090   -4.0120   27.1560 C   0  0  0  0  0  0  0  0  0  0  0  0
    4.6650   -5.1840   28.1080 C   0  0  0  0  0  0  0  0  0  0  0  0
    5.4990   -5.0470   29.1360 C   0  0  0  0  0  0  0  0  0  0  0  0
    6.6400   -4.6220   28.5880 C   0  0  0  0  0  0  0  0  0  0  0  0
    6.3780   -3.5150   27.7750 C   0  0  0  0  0  0  0  0  0  0  0  0
    5.5120   -6.2240   29.9150 N   0  0  0  0  0  0  0  0  0  0  0  0
    4.3810   -6.1130   30.7920 C   0  0  0  0  0  0  0  0  0  0  0  0
    3.9010   -7.0490   31.6420 O   0  0  0  0  0  0  0  0  0  0  0  0
    3.8390   -4.9000   30.6550 N   0  0  0  0  0  0  0  0  0  0  0  0
    3.3690   -4.5230   31.8580 C   0  0  0  0  0  0  0  0  0  0  0  0
    4.8020   -4.1490   29.8830 C   0  0  0  0  0  0  0  0  0  0  0  0
    4.9630   -2.8830   29.9140 O   0  0  0  0  0  0  0  0  0  0  0  0
    7.5140   -3.1140   23.6100 C   0  0  0  0  0  0  0  0  0  0  0  0
    7.7560   -3.2860   22.1890 C   0  0  0  0  0  0  0  0  0  0  0  0
  1  2  1  0
  2  3  2  0
  2  4  1  0
  4  5  1  0
  5  6  1  0
  6  7  1  0
  7  8  1  0
  8  9  2  0
  8 10  1  0
 10 11  1  0
 11 12  1  0
 12 13  1  0
 13 14  1  0
 10 15  1  0
 14 15  1  0
 13 16  1  0
 16 17  1  0
 17 18  2  0
 17 19  1  0
 19 20  1  0
 13 21  1  0
 19 21  1  0
 21 22  2  0
  7 23  1  0
  4 24  1  0
 23 24  1  0
M  END
