piperidine-amides-13741-covalent
     RDKit          3D

 27 29  0  0  0  0  0  0  0  0999 V2000
    7.1360   -3.2890   19.2460 C   0  0  0  0  0  0  0  0  0  0  0  0
    6.3490   -4.0500   20.2530 C   0  0  0  0  0  0  0  0  0  0  0  0
    5.2920   -4.5990   19.9050 O   0  0  0  0  0  0  0  0  0  0  0  0
    6.8600   -4.1590   21.5590 N   0  0  0  0  0  0  0  0  0  0  0  0
    7.6760   -3.1220   22.1380 C   0  0  0  0  0  0  0  0  0  0  0  0
    6.8980   -2.5850   23.3350 C   0  0  0  0  0  0  0  0  0  0  0  0
    6.6220   -3.7540   24.2170 C   0  0  0  0  0  0  0  0  0  0  0  0
    5.7780   -3.4020   25.3880 C   0  0  0  0  0  0  0  0  0  0  0  0
    4.5570   -3.5240   25.2280 O   0  0  0  0  0  0  0  0  0  0  0  0
    6.3640   -2.9400   26.5830 N   0  0  0  0  0  0  0  0  0  0  0  0
    6.1670   -3.4350   27.9180 C   0  0  2  0  0  0  0  0  0  0  0  0
    5.4060   -4.5680   28.1160 C   0  0  0  0  0  0  0  0  0  0  0  0
    6.0090   -5.7690   28.5850 C   0  0  0  0  0  0  0  0  0  0  0  0
    5.3020   -6.9340   28.7980 C   0  0  0  0  0  0  0  0  0  0  0  0
    3.8610   -6.9090   28.5240 C   0  0  0  0  0  0  0  0  0  0  0  0
    3.2170   -5.6290   28.0270 C   0  0  0  0  0  0  0  0  0  0  0  0
    1.8570   -5.5500   27.7560 O   0  0  0  0  0  0  0  0  0  0  0  0
    1.2420   -4.3120   27.4720 C   0  0  0  0  0  0  0  0  0  0  0  0
    4.0430   -4.5050   27.8450 C   0  0  0  0  0  0  0  0  0  0  0  0
    5.9170   -2.4680   29.0220 C   0  0  0  0  0  0  0  0  0  0  0  0
    6.1200   -1.6970   27.7090 C   0  0  0  0  0  0  0  0  0  0  0  0
    5.0470   -1.5350   26.8240 C   0  0  0  0  0  0  0  0  0  0  0  0
    5.0270   -0.4760   27.9620 C   0  0  0  0  0  0  0  0  0  0  0  0
    4.2560   -0.9240   29.1770 C   0  0  0  0  0  0  0  0  0  0  0  0
    4.7260   -2.2670   29.6690 C   0  0  0  0  0  0  0  0  0  0  0  0
    5.8710   -4.8820   23.5290 C   0  0  0  0  0  0  0  0  0  0  0  0
    6.4370   -5.2800   22.3280 C   0  0  0  0  0  0  0  0  0  0  0  0
  1  2  1  0
  2  3  2  0
  2  4  1  0
  4  5  1  0
  5  6  1  0
  6  7  1  0
  7  8  1  0
  8  9  2  0
  8 10  1  0
 11 10  1  6
 11 12  1  0
 12 13  2  0
 13 14  1  0
 14 15  2  0
 15 16  1  0
 16 17  1  0
 17 18  1  0
 12 19  1  0
 16 19  2  0
 11 20  1  0
 20 21  1  0
 21 22  1  0
 22 23  1  0
 23 24  1  0
 20 25  1  0
 24 25  1  0
  7 26  1  0
  4 27  1  0
 26 27  1  0
M  END
