piperidine-amides-8705-covalent
     RDKit          3D

 23 24  0  0  0  0  0  0  0  0999 V2000
    7.2200   -4.0010   19.6940 C   0  0  0  0  0  0  0  0  0  0  0  0
    6.0390   -3.9660   20.4180 C   0  0  0  0  0  0  0  0  0  0  0  0
    5.0200   -4.1310   19.7260 O   0  0  0  0  0  0  0  0  0  0  0  0
    6.1580   -3.8710   21.8140 N   0  0  0  0  0  0  0  0  0  0  0  0
    7.2880   -3.0640   22.2180 C   0  0  0  0  0  0  0  0  0  0  0  0
    7.3150   -3.0000   23.7060 C   0  0  0  0  0  0  0  0  0  0  0  0
    5.9220   -3.4210   24.0820 C   0  0  0  0  0  0  0  0  0  0  0  0
    5.6190   -3.2060   25.5300 C   0  0  0  0  0  0  0  0  0  0  0  0
    4.4550   -3.4250   25.8570 O   0  0  0  0  0  0  0  0  0  0  0  0
    6.6230   -2.7570   26.3910 N   0  0  0  0  0  0  0  0  0  0  0  0
    7.7220   -3.5370   26.8520 C   0  0  0  0  0  0  0  0  0  0  0  0
    7.4390   -4.6610   27.6430 C   0  0  0  0  0  0  0  0  0  0  0  0
    6.6740   -5.6940   27.1580 C   0  0  0  0  0  0  0  0  0  0  0  0
    5.6700   -6.2130   27.9590 C   0  0  0  0  0  0  0  0  0  0  0  0
    6.1950   -6.5120   29.2910 C   0  0  0  0  0  0  0  0  0  0  0  0
    5.3250   -7.0930   30.4140 C   0  0  0  0  0  0  0  0  0  0  0  0
    3.8770   -7.3490   30.0960 C   0  0  0  0  0  0  0  0  0  0  0  0
    2.8110   -7.9980   31.3240 Cl  0  0  0  0  0  0  0  0  0  0  0  0
    3.3650   -7.0290   28.6900 C   0  0  0  0  0  0  0  0  0  0  0  0
    1.6870   -7.3180   28.2890 Cl  0  0  0  0  0  0  0  0  0  0  0  0
    4.3520   -6.4440   27.6390 C   0  0  0  0  0  0  0  0  0  0  0  0
    5.7400   -4.8970   23.8160 C   0  0  0  0  0  0  0  0  0  0  0  0
    6.0800   -5.1480   22.5050 C   0  0  0  0  0  0  0  0  0  0  0  0
  1  2  1  0
  2  3  2  0
  2  4  1  0
  4  5  1  0
  5  6  1  0
  6  7  1  0
  7  8  1  0
  8  9  2  0
  8 10  1  0
 10 11  1  0
 11 12  1  0
 12 13  1  0
 13 14  1  0
 14 15  2  0
 15 16  1  0
 16 17  2  0
 17 18  1  0
 17 19  1  0
 19 20  1  0
 14 21  1  0
 19 21  2  0
  7 22  1  0
  4 23  1  0
 22 23  1  0
M  END
