piperidine-amides-8947-covalent
     RDKit          3D

 22 23  0  0  0  0  0  0  0  0999 V2000
    7.1290   -3.3460   19.2930 C   0  0  0  0  0  0  0  0  0  0  0  0
    6.3780   -4.1170   20.2760 C   0  0  0  0  0  0  0  0  0  0  0  0
    5.3320   -4.6990   19.9410 O   0  0  0  0  0  0  0  0  0  0  0  0
    6.8690   -4.2490   21.5790 N   0  0  0  0  0  0  0  0  0  0  0  0
    7.7490   -3.2630   22.1560 C   0  0  0  0  0  0  0  0  0  0  0  0
    6.9890   -2.7020   23.3110 C   0  0  0  0  0  0  0  0  0  0  0  0
    6.5500   -3.8010   24.2170 C   0  0  0  0  0  0  0  0  0  0  0  0
    5.8050   -3.3070   25.3910 C   0  0  0  0  0  0  0  0  0  0  0  0
    4.5500   -3.1380   25.3270 O   0  0  0  0  0  0  0  0  0  0  0  0
    6.4400   -3.0220   26.6150 N   0  0  0  0  0  0  0  0  0  0  0  0
    6.3990   -1.6750   27.2390 C   0  0  0  0  0  0  0  0  0  0  0  0
    6.8950   -1.5630   28.6120 C   0  0  0  0  0  0  0  0  0  0  0  0
    6.8720   -0.2710   29.2890 C   0  0  0  0  0  0  0  0  0  0  0  0
    7.3270   -0.0250   30.6580 N   0  0  0  0  0  0  0  0  0  0  0  0
    8.5140    0.4490   30.8960 O   0  0  0  0  0  0  0  0  0  0  0  0
    6.3790    0.0730   31.6520 O   0  0  0  0  0  0  0  0  0  0  0  0
    6.3540    0.9670   28.6140 C   0  0  0  0  0  0  0  0  0  0  0  0
    5.8380    0.8680   27.1820 C   0  0  0  0  0  0  0  0  0  0  0  0
    5.8790   -0.4770   26.5340 C   0  0  0  0  0  0  0  0  0  0  0  0
    5.4040   -0.5320   25.2530 O   0  0  0  0  0  0  0  0  0  0  0  0
    5.7440   -4.8250   23.4420 C   0  0  0  0  0  0  0  0  0  0  0  0
    6.4550   -5.3810   22.3720 C   0  0  0  0  0  0  0  0  0  0  0  0
  1  2  1  0
  2  3  2  0
  2  4  1  0
  4  5  1  0
  5  6  1  0
  6  7  1  0
  7  8  1  0
  8  9  2  0
  8 10  1  0
 10 11  1  0
 11 12  2  0
 12 13  1  0
 13 14  1  0
 14 15  2  0
 14 16  1  0
 13 17  2  0
 17 18  1  0
 11 19  1  0
 18 19  2  0
 19 20  1  0
  7 21  1  0
  4 22  1  0
 21 22  1  0
M  CHG  2  14   1  16  -1
M  END
