piperidine-amides-25431-covalent
     RDKit          3D

 22 23  0  0  0  0  0  0  0  0999 V2000
    7.0830   -3.3030   19.2940 C   0  0  0  0  0  0  0  0  0  0  0  0
    6.3710   -4.1280   20.3020 C   0  0  0  0  0  0  0  0  0  0  0  0
    5.3240   -4.6580   19.9300 O   0  0  0  0  0  0  0  0  0  0  0  0
    6.9010   -4.3290   21.5850 N   0  0  0  0  0  0  0  0  0  0  0  0
    6.6160   -5.5250   22.3370 C   0  0  0  0  0  0  0  0  0  0  0  0
    6.2250   -5.1660   23.7480 C   0  0  0  0  0  0  0  0  0  0  0  0
    5.8550   -3.6860   23.8370 C   0  0  0  0  0  0  0  0  0  0  0  0
    5.4660   -3.3890   25.2300 C   0  0  0  0  0  0  0  0  0  0  0  0
    4.2720   -3.4590   25.5480 O   0  0  0  0  0  0  0  0  0  0  0  0
    6.4120   -3.0310   26.2050 N   0  0  0  0  0  0  0  0  0  0  0  0
    6.5120   -3.9140   27.3460 C   0  0  0  0  0  0  0  0  0  0  0  0
    6.8050   -1.6580   26.2910 C   0  0  0  0  0  0  0  0  0  0  0  0
    5.8260   -0.8070   25.8540 C   0  0  0  0  0  0  0  0  0  0  0  0
    4.7660   -0.8260   26.6650 C   0  0  0  0  0  0  0  0  0  0  0  0
    3.7260   -0.0780   26.4200 C   0  0  0  0  0  0  0  0  0  0  0  0
    3.6450    0.8270   25.2550 C   0  0  0  0  0  0  0  0  0  0  0  0
    4.8620    0.8310   24.3490 C   0  0  0  0  0  0  0  0  0  0  0  0
    4.9520    1.8530   22.9080 Cl  0  0  0  0  0  0  0  0  0  0  0  0
    6.1430   -0.0330   24.5650 C   0  0  0  0  0  0  0  0  0  0  0  0
    7.5640   -0.0540   23.5310 Cl  0  0  0  0  0  0  0  0  0  0  0  0
    6.8510   -2.7440   23.3060 C   0  0  0  0  0  0  0  0  0  0  0  0
    7.6850   -3.2970   22.2110 C   0  0  0  0  0  0  0  0  0  0  0  0
  1  2  1  0
  2  3  2  0
  2  4  1  0
  4  5  1  0
  5  6  1  0
  6  7  1  0
  7  8  1  0
  8  9  2  0
  8 10  1  0
 10 11  1  0
 10 12  1  0
 12 13  1  0
 13 14  2  0
 14 15  1  0
 15 16  2  0
 16 17  1  0
 17 18  1  0
 13 19  1  0
 17 19  2  0
 19 20  1  0
  7 21  1  0
  4 22  1  0
 21 22  1  0
M  END
