piperidine-amides-16115-covalent
     RDKit          3D

 19 20  0  0  0  0  0  0  0  0999 V2000
    7.1000   -3.3250   19.2600 C   0  0  0  0  0  0  0  0  0  0  0  0
    6.3550   -4.1150   20.2780 C   0  0  0  0  0  0  0  0  0  0  0  0
    5.3090   -4.6470   19.9180 O   0  0  0  0  0  0  0  0  0  0  0  0
    6.8730   -4.2710   21.5630 N   0  0  0  0  0  0  0  0  0  0  0  0
    6.5510   -5.4120   22.3740 C   0  0  0  0  0  0  0  0  0  0  0  0
    5.7860   -4.9500   23.5840 C   0  0  0  0  0  0  0  0  0  0  0  0
    6.5890   -3.8760   24.3260 C   0  0  0  0  0  0  0  0  0  0  0  0
    5.7760   -3.4210   25.4670 C   0  0  0  0  0  0  0  0  0  0  0  0
    4.5550   -3.2390   25.3450 O   0  0  0  0  0  0  0  0  0  0  0  0
    6.4260   -3.1970   26.6830 N   0  0  0  0  0  0  0  0  0  0  0  0
    5.7060   -2.9290   27.9230 C   0  0  0  0  0  0  0  0  0  0  0  0
    5.0790   -4.2040   28.4600 C   0  0  0  0  0  0  0  0  0  0  0  0
    5.9370   -5.2590   28.3340 O   0  0  0  0  0  0  0  0  0  0  0  0
    6.9300   -5.2600   27.4690 C   0  0  2  0  0  0  0  0  0  0  0  0
    7.9070   -6.0680   27.8510 C   0  0  0  0  0  0  0  0  0  0  0  0
    9.0690   -5.4290   27.8910 C   0  0  0  0  0  0  0  0  0  0  0  0
    7.4910   -3.8880   27.3230 C   0  0  0  0  0  0  0  0  0  0  0  0
    6.9930   -2.7300   23.4570 C   0  0  0  0  0  0  0  0  0  0  0  0
    7.5990   -3.1630   22.1630 C   0  0  0  0  0  0  0  0  0  0  0  0
  1  2  1  0
  2  3  2  0
  2  4  1  0
  4  5  1  0
  5  6  1  0
  6  7  1  0
  7  8  1  0
  8  9  2  0
  8 10  1  0
 10 11  1  0
 11 12  1  0
 12 13  1  0
 13 14  1  0
 14 15  1  1
 15 16  1  0
 10 17  1  0
 14 17  1  0
  7 18  1  0
  4 19  1  0
 18 19  1  0
M  END
