piperidine-amides-25828-covalent
     RDKit          3D

 25 26  0  0  0  0  0  0  0  0999 V2000
    7.1180   -3.3100   19.3340 C   0  0  0  0  0  0  0  0  0  0  0  0
    6.3590   -4.1170   20.3200 C   0  0  0  0  0  0  0  0  0  0  0  0
    5.3130   -4.6280   19.9210 O   0  0  0  0  0  0  0  0  0  0  0  0
    6.8600   -4.3120   21.6140 N   0  0  0  0  0  0  0  0  0  0  0  0
    6.5860   -5.5330   22.3280 C   0  0  0  0  0  0  0  0  0  0  0  0
    6.2290   -5.2130   23.7560 C   0  0  0  0  0  0  0  0  0  0  0  0
    5.9830   -3.7100   23.8990 C   0  0  0  0  0  0  0  0  0  0  0  0
    5.4090   -3.4190   25.2370 C   0  0  0  0  0  0  0  0  0  0  0  0
    4.1900   -3.2150   25.3040 O   0  0  0  0  0  0  0  0  0  0  0  0
    6.1510   -3.3410   26.4340 N   0  0  0  0  0  0  0  0  0  0  0  0
    6.4740   -1.9720   26.7990 C   0  0  0  0  0  0  0  0  0  0  0  0
    6.7970   -1.2230   25.5360 C   0  0  0  0  0  0  0  0  0  0  0  0
    5.8670   -4.3800   27.3290 C   0  0  1  0  0  0  0  0  0  0  0  0
    6.2250   -3.9040   28.5350 C   0  0  0  0  0  0  0  0  0  0  0  0
    5.3490   -2.9800   29.0150 C   0  0  0  0  0  0  0  0  0  0  0  0
    4.5950   -5.0890   27.5910 C   0  0  0  0  0  0  0  0  0  0  0  0
    4.4870   -5.7540   28.9260 C   0  0  0  0  0  0  0  0  0  0  0  0
    5.6550   -6.6910   28.9620 C   0  0  0  0  0  0  0  0  0  0  0  0
    5.7620   -7.4660   30.2150 C   0  0  0  0  0  0  0  0  0  0  0  0
    4.8020   -7.3310   31.3430 C   0  0  0  0  0  0  0  0  0  0  0  0
    4.8180   -8.0620   32.6750 C   0  0  0  0  0  0  0  0  0  0  0  0
    3.6340   -6.3440   31.2000 C   0  0  0  0  0  0  0  0  0  0  0  0
    3.5400   -5.5560   29.9020 C   0  0  0  0  0  0  0  0  0  0  0  0
    7.2820   -3.0050   23.6140 C   0  0  0  0  0  0  0  0  0  0  0  0
    7.6750   -3.2700   22.1880 C   0  0  0  0  0  0  0  0  0  0  0  0
  1  2  1  0
  2  3  2  0
  2  4  1  0
  4  5  1  0
  5  6  1  0
  6  7  1  0
  7  8  1  0
  8  9  2  0
  8 10  1  0
 10 11  1  0
 11 12  1  0
 10 13  1  0
 13 14  1  1
 14 15  1  0
 13 16  1  0
 16 17  1  0
 17 18  2  0
 18 19  1  0
 19 20  2  0
 20 21  1  0
 20 22  1  0
 17 23  1  0
 22 23  2  0
  7 24  1  0
  4 25  1  0
 24 25  1  0
M  END
