piperidine-amides-243-covalent
     RDKit          3D

 29 31  0  0  0  0  0  0  0  0999 V2000
    7.1610   -3.3180   19.3630 C   0  0  0  0  0  0  0  0  0  0  0  0
    6.4500   -4.1170   20.3270 C   0  0  0  0  0  0  0  0  0  0  0  0
    5.4050   -4.7480   19.9620 O   0  0  0  0  0  0  0  0  0  0  0  0
    6.9310   -4.2410   21.6400 N   0  0  0  0  0  0  0  0  0  0  0  0
    6.6110   -5.4670   22.3900 C   0  0  0  0  0  0  0  0  0  0  0  0
    5.5360   -4.8490   23.3500 C   0  0  0  0  0  0  0  0  0  0  0  0
    6.3180   -3.9390   24.2660 C   0  0  0  0  0  0  0  0  0  0  0  0
    5.3600   -3.4650   25.4370 C   0  0  0  0  0  0  0  0  0  0  0  0
    4.2660   -3.9830   25.2940 O   0  0  0  0  0  0  0  0  0  0  0  0
    5.9270   -2.6570   26.2430 N   0  0  0  0  0  0  0  0  0  0  0  0
    6.3240   -1.7510   27.1770 C   0  0  0  0  0  0  0  0  0  0  0  0
    7.0460   -1.6590   28.3540 C   0  0  0  0  0  0  0  0  0  0  0  0
    7.2580   -0.4640   29.1110 C   0  0  0  0  0  0  0  0  0  0  0  0
    6.7440    0.8870   28.7800 C   0  0  0  0  0  0  0  0  0  0  0  0
    5.9610    0.7070   27.4810 C   0  0  0  0  0  0  0  0  0  0  0  0
    5.6360    2.0680   27.4570 C   0  0  0  0  0  0  0  0  0  0  0  0
    6.1030    2.8890   28.4830 C   0  0  0  0  0  0  0  0  0  0  0  0
    6.8130    2.1750   29.3430 N   0  0  0  0  0  0  0  0  0  0  0  0
    7.4750    2.6330   30.5410 C   0  0  0  0  0  0  0  0  0  0  0  0
    6.5300    2.1770   31.7010 C   0  0  0  0  0  0  0  0  0  0  0  0
    6.8800    2.3160   32.8970 O   0  0  0  0  0  0  0  0  0  0  0  0
    5.4080    1.6720   31.4420 O   0  0  0  0  0  0  0  0  0  0  0  0
    4.9800    0.3800   31.8590 C   0  0  0  0  0  0  0  0  0  0  0  0
    5.4690    0.0200   33.0860 C   0  0  0  0  0  0  0  0  0  0  0  0
    5.3530   -0.6990   30.8940 C   0  0  0  0  0  0  0  0  0  0  0  0
    3.4760    0.4470   31.9240 C   0  0  0  0  0  0  0  0  0  0  0  0
    5.7650   -0.4360   26.7610 C   0  0  0  0  0  0  0  0  0  0  0  0
    7.1860   -2.8910   23.6560 C   0  0  0  0  0  0  0  0  0  0  0  0
    7.7300   -3.2470   22.3060 C   0  0  0  0  0  0  0  0  0  0  0  0
  1  2  1  0
  2  3  2  0
  2  4  1  0
  4  5  1  0
  5  6  1  0
  6  7  1  0
  7  8  1  0
  8  9  2  0
  8 10  1  0
 10 11  1  0
 11 12  2  0
 12 13  1  0
 13 14  2  0
 14 15  1  0
 15 16  1  0
 16 17  2  0
 14 18  1  0
 17 18  1  0
 18 19  1  0
 19 20  1  0
 20 21  2  0
 20 22  1  0
 23 22  1  0
 23 24  1  0
 23 25  1  0
 23 26  1  0
 11 27  1  0
 15 27  2  0
  7 28  1  0
  4 29  1  0
 28 29  1  0
M  END
