piperidine-amides-16992-covalent
     RDKit          3D

 19 20  0  0  0  0  0  0  0  0999 V2000
    7.0630   -3.3400   19.3410 C   0  0  0  0  0  0  0  0  0  0  0  0
    6.3770   -4.1940   20.3290 C   0  0  0  0  0  0  0  0  0  0  0  0
    5.3250   -4.7590   19.9510 O   0  0  0  0  0  0  0  0  0  0  0  0
    6.9070   -4.4100   21.6280 N   0  0  0  0  0  0  0  0  0  0  0  0
    7.6020   -3.3350   22.2310 C   0  0  0  0  0  0  0  0  0  0  0  0
    7.2560   -3.2070   23.6270 C   0  0  0  0  0  0  0  0  0  0  0  0
    5.9360   -3.7320   23.9410 C   0  0  0  0  0  0  0  0  0  0  0  0
    5.5110   -3.3810   25.3410 C   0  0  0  0  0  0  0  0  0  0  0  0
    4.3290   -3.0400   25.5240 O   0  0  0  0  0  0  0  0  0  0  0  0
    6.3740   -3.4140   26.4550 N   0  0  0  0  0  0  0  0  0  0  0  0
    6.7270   -4.5790   27.1930 C   0  0  0  0  0  0  0  0  0  0  0  0
    6.4040   -2.1750   27.2360 C   0  0  0  0  0  0  0  0  0  0  0  0
    6.0420   -0.9660   26.7140 N   0  0  0  0  0  0  0  0  0  0  0  0
    6.0740    0.2530   27.5020 C   0  0  0  0  0  0  0  0  0  0  0  0
    6.5010   -0.0160   28.7720 C   0  0  0  0  0  0  0  0  0  0  0  0
    6.4800    1.3490   29.4670 C   0  0  0  0  0  0  0  0  0  0  0  0
    6.8480   -1.7620   28.9420 S   0  0  0  0  0  0  0  0  0  0  0  0
    5.7770   -5.1880   23.6740 C   0  0  0  0  0  0  0  0  0  0  0  0
    6.4920   -5.5950   22.3600 C   0  0  0  0  0  0  0  0  0  0  0  0
  1  2  1  0
  2  3  2  0
  2  4  1  0
  4  5  1  0
  5  6  1  0
  6  7  1  0
  7  8  1  0
  8  9  2  0
  8 10  1  0
 10 11  1  0
 10 12  1  0
 12 13  2  0
 13 14  1  0
 14 15  2  0
 15 16  1  0
 12 17  1  0
 15 17  1  0
  7 18  1  0
  4 19  1  0
 18 19  1  0
M  END
