piperidine-amides-23634-covalent
     RDKit          3D

 24 26  0  0  0  0  0  0  0  0999 V2000
    7.1030   -3.3460   19.3180 C   0  0  0  0  0  0  0  0  0  0  0  0
    6.4350   -4.1910   20.3150 C   0  0  0  0  0  0  0  0  0  0  0  0
    5.3750   -4.7680   19.9650 O   0  0  0  0  0  0  0  0  0  0  0  0
    7.0120   -4.3830   21.5940 N   0  0  0  0  0  0  0  0  0  0  0  0
    6.6600   -5.5480   22.3310 C   0  0  0  0  0  0  0  0  0  0  0  0
    6.0750   -5.2040   23.6100 C   0  0  0  0  0  0  0  0  0  0  0  0
    6.2100   -3.7610   23.8470 C   0  0  0  0  0  0  0  0  0  0  0  0
    5.6360   -3.3240   25.1500 C   0  0  0  0  0  0  0  0  0  0  0  0
    4.7700   -2.4350   25.1480 O   0  0  0  0  0  0  0  0  0  0  0  0
    6.0000   -3.8800   26.3780 N   0  0  0  0  0  0  0  0  0  0  0  0
    5.0570   -4.1140   27.3850 C   0  0  0  0  0  0  0  0  0  0  0  0
    5.4230   -4.9970   28.4440 C   0  0  0  0  0  0  0  0  0  0  0  0
    6.8210   -4.5660   28.8420 C   0  0  0  0  0  0  0  0  0  0  0  0
    7.8300   -4.6670   27.9020 C   0  0  0  0  0  0  0  0  0  0  0  0
    7.3390   -3.5780   26.8900 C   0  0  2  0  0  0  0  0  0  0  0  0
    7.1040   -2.3940   27.7910 C   0  0  0  0  0  0  0  0  0  0  0  0
    8.1080   -2.1110   28.8620 C   0  0  0  0  0  0  0  0  0  0  0  0
    7.9580   -0.9540   29.8070 C   0  0  0  0  0  0  0  0  0  0  0  0
    6.7300   -0.0600   29.6290 C   0  0  0  0  0  0  0  0  0  0  0  0
    6.5390    0.9300   30.3820 O   0  0  0  0  0  0  0  0  0  0  0  0
    5.8410   -0.3470   28.6360 N   0  0  0  0  0  0  0  0  0  0  0  0
    5.9190   -1.4300   27.7070 C   0  0  0  0  0  0  0  0  0  0  0  0
    7.6160   -3.3460   23.6150 C   0  0  0  0  0  0  0  0  0  0  0  0
    7.7620   -3.2910   22.2250 C   0  0  0  0  0  0  0  0  0  0  0  0
  1  2  1  0
  2  3  2  0
  2  4  1  0
  4  5  1  0
  5  6  1  0
  6  7  1  0
  7  8  1  0
  8  9  2  0
  8 10  1  0
 10 11  1  0
 11 12  1  0
 12 13  1  0
 13 14  1  0
 10 15  1  0
 14 15  1  0
 15 16  1  1
 16 17  2  0
 17 18  1  0
 18 19  2  0
 19 20  1  0
 19 21  1  0
 16 22  1  0
 21 22  2  0
  7 23  1  0
  4 24  1  0
 23 24  1  0
M  END
