piperidine-amides-17193-covalent
     RDKit          3D

 20 21  0  0  0  0  0  0  0  0999 V2000
    7.1130   -3.3550   19.3060 C   0  0  0  0  0  0  0  0  0  0  0  0
    6.4410   -4.2000   20.2990 C   0  0  0  0  0  0  0  0  0  0  0  0
    5.3560   -4.7270   19.9550 O   0  0  0  0  0  0  0  0  0  0  0  0
    7.0430   -4.4640   21.5510 N   0  0  0  0  0  0  0  0  0  0  0  0
    6.5520   -5.5530   22.3030 C   0  0  0  0  0  0  0  0  0  0  0  0
    5.9200   -5.1620   23.5570 C   0  0  0  0  0  0  0  0  0  0  0  0
    6.4280   -3.9310   24.2060 C   0  0  0  0  0  0  0  0  0  0  0  0
    5.4110   -3.4340   25.1750 C   0  0  0  0  0  0  0  0  0  0  0  0
    4.4600   -2.7630   24.7490 O   0  0  0  0  0  0  0  0  0  0  0  0
    5.4810   -3.6960   26.5440 N   0  0  0  0  0  0  0  0  0  0  0  0
    4.4070   -4.0940   27.3530 C   0  0  0  0  0  0  0  0  0  0  0  0
    4.6070   -5.0250   28.4590 C   0  0  0  0  0  0  0  0  0  0  0  0
    5.6530   -4.4060   29.3780 C   0  0  2  0  0  0  0  0  0  0  0  0
    5.7110   -3.0160   29.4070 C   0  0  0  0  0  0  0  0  0  0  0  0
    5.0390   -2.4710   30.4810 O   0  0  0  0  0  0  0  0  0  0  0  0
    6.7320   -3.7460   28.5440 C   0  0  1  0  0  0  0  0  0  0  0  0
    6.3980   -5.2060   28.4250 C   0  0  0  0  0  0  0  0  0  0  0  0
    6.4490   -2.9650   27.2360 C   0  0  0  0  0  0  0  0  0  0  0  0
    6.8720   -2.8200   23.2870 C   0  0  0  0  0  0  0  0  0  0  0  0
    7.7740   -3.4240   22.2420 C   0  0  0  0  0  0  0  0  0  0  0  0
  1  2  1  0
  2  3  2  0
  2  4  1  0
  4  5  1  0
  5  6  1  0
  6  7  1  0
  7  8  1  0
  8  9  2  0
  8 10  1  0
 10 11  1  0
 11 12  1  0
 12 13  1  0
 13 14  1  1
 14 15  1  0
 13 16  1  0
 16 17  1  6
 10 18  1  0
 16 18  1  0
  7 19  1  0
  4 20  1  0
 19 20  1  0
M  END
