piperidine-amides-26085-covalent
     RDKit          3D

 25 27  0  0  0  0  0  0  0  0999 V2000
    7.0660   -3.3530   19.2950 C   0  0  0  0  0  0  0  0  0  0  0  0
    6.3020   -4.1510   20.2580 C   0  0  0  0  0  0  0  0  0  0  0  0
    5.2400   -4.6750   19.9070 O   0  0  0  0  0  0  0  0  0  0  0  0
    6.7710   -4.3810   21.5510 N   0  0  0  0  0  0  0  0  0  0  0  0
    6.4940   -5.6090   22.2660 C   0  0  0  0  0  0  0  0  0  0  0  0
    6.0140   -5.2410   23.6620 C   0  0  0  0  0  0  0  0  0  0  0  0
    6.0870   -3.7690   23.9570 C   0  0  0  0  0  0  0  0  0  0  0  0
    5.7060   -3.3580   25.3400 C   0  0  0  0  0  0  0  0  0  0  0  0
    4.8050   -2.4870   25.4800 O   0  0  0  0  0  0  0  0  0  0  0  0
    6.2810   -3.8700   26.5330 N   0  0  0  0  0  0  0  0  0  0  0  0
    7.0220   -5.1370   26.4780 C   0  0  0  0  0  0  0  0  0  0  0  0
    7.1210   -5.4850   27.8900 C   0  0  0  0  0  0  0  0  0  0  0  0
    6.1830   -4.6490   28.6410 C   0  0  2  0  0  0  0  0  0  0  0  0
    5.3240   -5.4290   29.0960 O   0  0  0  0  0  0  0  0  0  0  0  0
    5.8580   -3.3980   27.8330 C   0  0  2  0  0  0  0  0  0  0  0  0
    4.4080   -3.0120   28.0740 C   0  0  0  0  0  0  0  0  0  0  0  0
    3.4000   -3.3670   27.0140 C   0  0  0  0  0  0  0  0  0  0  0  0
    2.0840   -3.0380   27.1880 C   0  0  0  0  0  0  0  0  0  0  0  0
    1.5610   -2.3860   28.2850 C   0  0  0  0  0  0  0  0  0  0  0  0
    2.4590   -1.9830   29.4080 C   0  0  0  0  0  0  0  0  0  0  0  0
    3.9620   -2.2820   29.3610 C   0  0  0  0  0  0  0  0  0  0  0  0
    4.8920   -1.9640   30.3340 O   0  0  0  0  0  0  0  0  0  0  0  0
    5.2050   -0.6020   30.5570 C   0  0  0  0  0  0  0  0  0  0  0  0
    7.4290   -3.3050   23.5700 C   0  0  0  0  0  0  0  0  0  0  0  0
    7.5340   -3.3260   22.1170 C   0  0  0  0  0  0  0  0  0  0  0  0
  1  2  1  0
  2  3  2  0
  2  4  1  0
  4  5  1  0
  5  6  1  0
  6  7  1  0
  7  8  1  0
  8  9  2  0
  8 10  1  0
 10 11  1  0
 11 12  1  0
 12 13  1  0
 13 14  1  6
 10 15  1  0
 13 15  1  0
 15 16  1  6
 16 17  2  0
 17 18  1  0
 18 19  2  0
 19 20  1  0
 16 21  1  0
 20 21  2  0
 21 22  1  0
 22 23  1  0
  7 24  1  0
  4 25  1  0
 24 25  1  0
M  END
