piperidine-amides-5120-covalent
     RDKit          3D

 22 23  0  0  0  0  0  0  0  0999 V2000
    7.1430   -3.2630   19.1880 C   0  0  0  0  0  0  0  0  0  0  0  0
    6.3960   -4.0210   20.2180 C   0  0  0  0  0  0  0  0  0  0  0  0
    5.3050   -4.5200   19.8720 O   0  0  0  0  0  0  0  0  0  0  0  0
    6.9270   -4.2000   21.4980 N   0  0  0  0  0  0  0  0  0  0  0  0
    7.6980   -3.1520   22.0760 C   0  0  0  0  0  0  0  0  0  0  0  0
    7.4140   -2.8410   23.4770 C   0  0  0  0  0  0  0  0  0  0  0  0
    6.5050   -3.7490   24.2270 C   0  0  0  0  0  0  0  0  0  0  0  0
    5.6690   -2.9260   25.1410 C   0  0  0  0  0  0  0  0  0  0  0  0
    4.4300   -3.0680   25.0840 O   0  0  0  0  0  0  0  0  0  0  0  0
    6.2370   -2.0090   26.0510 N   0  0  0  0  0  0  0  0  0  0  0  0
    6.1440   -2.2360   27.5050 C   0  0  0  0  0  0  0  0  0  0  0  0
    5.8210   -3.6560   27.7330 C   0  0  2  0  0  0  0  0  0  0  0  0
    5.2120   -4.0760   28.7660 O   0  0  0  0  0  0  0  0  0  0  0  0
    6.9370   -4.4850   27.4510 C   0  0  0  0  0  0  0  0  0  0  0  0
    7.8380   -4.1940   26.4550 C   0  0  0  0  0  0  0  0  0  0  0  0
    8.9270   -4.9360   26.1260 C   0  0  0  0  0  0  0  0  0  0  0  0
    9.1170   -6.0330   26.8650 C   0  0  0  0  0  0  0  0  0  0  0  0
    8.2150   -6.3070   27.8580 C   0  0  0  0  0  0  0  0  0  0  0  0
    7.1440   -5.5890   28.1660 C   0  0  0  0  0  0  0  0  0  0  0  0
    6.0750   -6.1020   29.4490 Cl  0  0  0  0  0  0  0  0  0  0  0  0
    5.6460   -4.6200   23.3430 C   0  0  0  0  0  0  0  0  0  0  0  0
    6.5320   -5.2780   22.3620 C   0  0  0  0  0  0  0  0  0  0  0  0
  1  2  1  0
  2  3  2  0
  2  4  1  0
  4  5  1  0
  5  6  1  0
  6  7  1  0
  7  8  1  0
  8  9  2  0
  8 10  1  0
 10 11  1  0
 11 12  1  0
 12 13  1  1
 12 14  1  0
 14 15  2  0
 15 16  1  0
 16 17  2  0
 17 18  1  0
 14 19  1  0
 18 19  2  0
 19 20  1  0
  7 21  1  0
  4 22  1  0
 21 22  1  0
M  END
