piperidine-amides-13114-covalent
     RDKit          3D

 23 24  0  0  0  0  0  0  0  0999 V2000
    7.1510   -3.2840   19.1160 C   0  0  0  0  0  0  0  0  0  0  0  0
    6.3450   -3.9740   20.1430 C   0  0  0  0  0  0  0  0  0  0  0  0
    5.2220   -4.3870   19.8060 O   0  0  0  0  0  0  0  0  0  0  0  0
    6.8680   -4.2050   21.4100 N   0  0  0  0  0  0  0  0  0  0  0  0
    7.6200   -3.1760   22.0490 C   0  0  0  0  0  0  0  0  0  0  0  0
    7.1530   -2.8180   23.3790 C   0  0  0  0  0  0  0  0  0  0  0  0
    6.5470   -3.9170   24.1650 C   0  0  0  0  0  0  0  0  0  0  0  0
    5.7630   -3.3610   25.2770 C   0  0  0  0  0  0  0  0  0  0  0  0
    4.5280   -3.2540   25.1350 O   0  0  0  0  0  0  0  0  0  0  0  0
    6.3820   -2.9600   26.4640 N   0  0  0  0  0  0  0  0  0  0  0  0
    5.7430   -3.1790   27.7700 C   0  0  1  0  0  0  0  0  0  0  0  0
    6.2210   -4.4570   28.3650 C   0  0  0  0  0  0  0  0  0  0  0  0
    7.2450   -4.4760   29.0690 O   0  0  0  0  0  0  0  0  0  0  0  0
    5.5910   -5.6650   28.2210 O   0  0  0  0  0  0  0  0  0  0  0  0
    6.0280   -6.7710   28.9650 C   0  0  0  0  0  0  0  0  0  0  0  0
    6.1260   -2.0160   28.5410 C   0  0  0  0  0  0  0  0  0  0  0  0
    6.0650   -0.7770   27.9370 C   0  0  0  0  0  0  0  0  0  0  0  0
    4.8410   -0.2020   28.1100 C   0  0  0  0  0  0  0  0  0  0  0  0
    4.6240   -0.0930   29.4790 O   0  0  0  0  0  0  0  0  0  0  0  0
    4.3390   -1.3850   29.9630 C   0  0  0  0  0  0  0  0  0  0  0  0
    5.5080   -2.0600   29.7850 C   0  0  0  0  0  0  0  0  0  0  0  0
    5.7200   -4.8560   23.3330 C   0  0  0  0  0  0  0  0  0  0  0  0
    6.5000   -5.3550   22.1920 C   0  0  0  0  0  0  0  0  0  0  0  0
  1  2  1  0
  2  3  2  0
  2  4  1  0
  4  5  1  0
  5  6  1  0
  6  7  1  0
  7  8  1  0
  8  9  2  0
  8 10  1  0
 11 10  1  6
 11 12  1  0
 12 13  2  0
 12 14  1  0
 14 15  1  0
 11 16  1  0
 16 17  1  0
 17 18  1  0
 18 19  1  0
 19 20  1  0
 16 21  1  0
 20 21  1  0
  7 22  1  0
  4 23  1  0
 22 23  1  0
M  END
