piperidine-amides-23918-covalent
     RDKit          3D

 23 25  0  0  0  0  0  0  0  0999 V2000
    7.0990   -3.3420   19.3200 C   0  0  0  0  0  0  0  0  0  0  0  0
    6.4230   -4.1910   20.3090 C   0  0  0  0  0  0  0  0  0  0  0  0
    5.3520   -4.7390   19.9540 O   0  0  0  0  0  0  0  0  0  0  0  0
    7.0050   -4.4290   21.5790 N   0  0  0  0  0  0  0  0  0  0  0  0
    6.5610   -5.5480   22.3120 C   0  0  0  0  0  0  0  0  0  0  0  0
    6.0180   -5.2150   23.6250 C   0  0  0  0  0  0  0  0  0  0  0  0
    6.3530   -3.8840   24.1970 C   0  0  0  0  0  0  0  0  0  0  0  0
    5.3080   -3.4960   25.1960 C   0  0  0  0  0  0  0  0  0  0  0  0
    4.1110   -3.5620   24.8760 O   0  0  0  0  0  0  0  0  0  0  0  0
    5.6190   -3.0430   26.4840 N   0  0  0  0  0  0  0  0  0  0  0  0
    6.6780   -2.3440   26.9370 C   0  0  0  0  0  0  0  0  0  0  0  0
    7.0180   -2.8920   28.2740 C   0  0  0  0  0  0  0  0  0  0  0  0
    5.7100   -3.0270   29.0750 C   0  0  0  0  0  0  0  0  0  0  0  0
    5.0620   -4.6280   29.0380 S   0  0  0  0  0  0  0  0  0  0  0  0
    5.2920   -5.0830   27.3490 C   0  0  0  0  0  0  0  0  0  0  0  0
    5.0610   -6.3040   28.2210 C   0  0  0  0  0  0  0  0  0  0  0  0
    5.2050   -6.9690   27.0770 C   0  0  0  0  0  0  0  0  0  0  0  0
    4.9390   -7.2850   28.5620 C   0  0  0  0  0  0  0  0  0  0  0  0
    5.3550   -5.5040   26.7890 C   0  0  0  0  0  0  0  0  0  0  0  0
    5.0900   -5.1180   28.3850 C   0  0  0  0  0  0  0  0  0  0  0  0
    5.3240   -3.7430   27.6670 C   0  0  0  0  0  0  0  0  0  0  0  0
    6.6160   -2.8370   23.1580 C   0  0  0  0  0  0  0  0  0  0  0  0
    7.6080   -3.3580   22.3350 C   0  0  0  0  0  0  0  0  0  0  0  0
  1  2  1  0
  2  3  2  0
  2  4  1  0
  4  5  1  0
  5  6  1  0
  6  7  1  0
  7  8  1  0
  8  9  2  0
  8 10  1  0
 10 11  1  0
 11 12  1  0
 12 13  1  0
 13 14  1  0
 14 15  1  0
 15 16  1  0
 16 17  2  0
 17 18  1  0
 17 19  1  0
 19 20  2  0
 10 21  1  0
 15 21  2  0
 20 21  1  0
  7 22  1  0
  4 23  1  0
 22 23  1  0
M  END
