piperidine-amides-921-covalent
     RDKit          3D

 24 26  0  0  0  0  0  0  0  0999 V2000
    7.0360   -3.3340   19.3520 C   0  0  0  0  0  0  0  0  0  0  0  0
    6.3600   -4.1930   20.3670 C   0  0  0  0  0  0  0  0  0  0  0  0
    5.4150   -4.9150   19.9990 O   0  0  0  0  0  0  0  0  0  0  0  0
    6.8310   -4.1850   21.7040 N   0  0  0  0  0  0  0  0  0  0  0  0
    7.7170   -3.1360   22.1750 C   0  0  0  0  0  0  0  0  0  0  0  0
    7.5660   -3.0380   23.6910 C   0  0  0  0  0  0  0  0  0  0  0  0
    6.1930   -3.5140   23.9850 C   0  0  0  0  0  0  0  0  0  0  0  0
    5.7230   -3.1590   25.3510 C   0  0  0  0  0  0  0  0  0  0  0  0
    4.5500   -3.4410   25.6160 O   0  0  0  0  0  0  0  0  0  0  0  0
    6.5920   -2.5250   26.2540 N   0  0  0  0  0  0  0  0  0  0  0  0
    6.2780   -1.5830   27.2890 C   0  0  1  0  0  0  0  0  0  0  0  0
    7.1250   -1.6580   28.4420 C   0  0  0  0  0  0  0  0  0  0  0  0
    6.8230   -1.1370   29.7360 C   0  0  0  0  0  0  0  0  0  0  0  0
    6.1590   -0.0020   29.5610 O   0  0  0  0  0  0  0  0  0  0  0  0
    6.0920   -0.1060   28.2360 C   0  0  0  0  0  0  0  0  0  0  0  0
    5.8770    1.4010   28.7180 C   0  0  0  0  0  0  0  0  0  0  0  0
    5.9180    1.6800   30.0770 F   0  0  0  0  0  0  0  0  0  0  0  0
    5.6340    2.5050   27.7370 C   0  0  0  0  0  0  0  0  0  0  0  0
    5.8740    1.0580   27.7610 C   0  0  0  0  0  0  0  0  0  0  0  0
    5.7630    1.2210   26.5200 C   0  0  0  0  0  0  0  0  0  0  0  0
    5.5670    2.5690   26.9430 F   0  0  0  0  0  0  0  0  0  0  0  0
    6.0120   -0.1830   26.7670 C   0  0  0  0  0  0  0  0  0  0  0  0
    5.9790   -4.9750   23.7120 C   0  0  0  0  0  0  0  0  0  0  0  0
    6.6480   -5.3350   22.5570 C   0  0  0  0  0  0  0  0  0  0  0  0
  1  2  1  0
  2  3  2  0
  2  4  1  0
  4  5  1  0
  5  6  1  0
  6  7  1  0
  7  8  1  0
  8  9  2  0
  8 10  1  0
 11 10  1  6
 11 12  1  0
 12 13  1  0
 13 14  1  0
 14 15  1  0
 15 16  2  0
 16 17  1  0
 16 18  1  0
 18 19  2  0
 19 20  1  0
 20 21  1  0
 11 22  1  0
 15 22  1  0
 20 22  2  0
  7 23  1  0
  4 24  1  0
 23 24  1  0
M  END
