piperidine-amides-5513-covalent
     RDKit          3D

 19 20  0  0  0  0  0  0  0  0999 V2000
    7.0300   -3.3420   19.3320 C   0  0  0  0  0  0  0  0  0  0  0  0
    6.3680   -4.1650   20.3500 C   0  0  0  0  0  0  0  0  0  0  0  0
    5.4180   -4.8880   19.9970 O   0  0  0  0  0  0  0  0  0  0  0  0
    6.8070   -4.1810   21.6920 N   0  0  0  0  0  0  0  0  0  0  0  0
    7.7260   -3.1760   22.2000 C   0  0  0  0  0  0  0  0  0  0  0  0
    7.4430   -3.0300   23.6700 C   0  0  0  0  0  0  0  0  0  0  0  0
    6.0910   -3.5760   23.9930 C   0  0  0  0  0  0  0  0  0  0  0  0
    5.5640   -3.2430   25.3490 C   0  0  0  0  0  0  0  0  0  0  0  0
    4.3110   -3.2160   25.5250 O   0  0  0  0  0  0  0  0  0  0  0  0
    6.3530   -2.9420   26.4860 N   0  0  0  0  0  0  0  0  0  0  0  0
    6.7110   -1.5450   26.8500 C   0  0  1  0  0  0  0  0  0  0  0  0
    5.5620   -0.6200   26.6530 C   0  0  0  0  0  0  0  0  0  0  0  0
    5.7130    0.7320   27.2380 C   0  0  0  0  0  0  0  0  0  0  0  0
    6.0620    0.7120   28.7020 C   0  0  0  0  0  0  0  0  0  0  0  0
    6.3590   -0.6070   29.1500 N   0  0  0  0  0  0  0  0  0  0  0  0
    7.2490   -0.4150   30.2950 C   0  0  0  0  0  0  0  0  0  0  0  0
    7.0670   -1.5170   28.2900 C   0  0  0  0  0  0  0  0  0  0  0  0
    6.0980   -5.0680   23.7250 C   0  0  0  0  0  0  0  0  0  0  0  0
    6.6050   -5.3980   22.4530 C   0  0  0  0  0  0  0  0  0  0  0  0
  1  2  1  0
  2  3  2  0
  2  4  1  0
  4  5  1  0
  5  6  1  0
  6  7  1  0
  7  8  1  0
  8  9  2  0
  8 10  1  0
 11 10  1  1
 11 12  1  0
 12 13  1  0
 13 14  1  0
 14 15  1  0
 15 16  1  0
 11 17  1  0
 15 17  1  0
  7 18  1  0
  4 19  1  0
 18 19  1  0
M  END
