piperidine-amides-12901-covalent
     RDKit          3D

 21 21  0  0  0  0  0  0  0  0999 V2000
    7.1140   -3.2980   19.1780 C   0  0  0  0  0  0  0  0  0  0  0  0
    6.3370   -4.0110   20.2140 C   0  0  0  0  0  0  0  0  0  0  0  0
    5.2490   -4.4980   19.8590 O   0  0  0  0  0  0  0  0  0  0  0  0
    6.8450   -4.1760   21.5090 N   0  0  0  0  0  0  0  0  0  0  0  0
    7.5950   -3.1420   22.1330 C   0  0  0  0  0  0  0  0  0  0  0  0
    7.2640   -2.8840   23.5410 C   0  0  0  0  0  0  0  0  0  0  0  0
    6.5160   -3.9430   24.2780 C   0  0  0  0  0  0  0  0  0  0  0  0
    5.5670   -3.2880   25.2150 C   0  0  0  0  0  0  0  0  0  0  0  0
    4.3720   -3.1860   24.8760 O   0  0  0  0  0  0  0  0  0  0  0  0
    5.9840   -2.7850   26.4570 N   0  0  0  0  0  0  0  0  0  0  0  0
    6.3640   -3.6490   27.5900 C   0  0  2  0  0  0  0  0  0  0  0  0
    7.8200   -3.6750   27.6730 C   0  0  0  0  0  0  0  0  0  0  0  0
    8.3960   -4.8620   28.2220 C   0  0  0  0  0  0  0  0  0  0  0  0
    8.7730   -5.8330   27.3620 C   0  0  0  0  0  0  0  0  0  0  0  0
    9.3930   -5.7350   26.1500 C   0  0  0  0  0  0  0  0  0  0  0  0
    5.7100   -4.9460   27.6360 C   0  0  0  0  0  0  0  0  0  0  0  0
    5.4470   -5.5120   28.9010 O   0  0  0  0  0  0  0  0  0  0  0  0
    5.3190   -5.6560   26.4920 O   0  0  0  0  0  0  0  0  0  0  0  0
    4.6370   -6.7930   26.8970 C   0  0  0  0  0  0  0  0  0  0  0  0
    5.8570   -5.0020   23.4650 C   0  0  0  0  0  0  0  0  0  0  0  0
    6.4990   -5.3330   22.2760 C   0  0  0  0  0  0  0  0  0  0  0  0
  1  2  1  0
  2  3  2  0
  2  4  1  0
  4  5  1  0
  5  6  1  0
  6  7  1  0
  7  8  1  0
  8  9  2  0
  8 10  1  0
 10 11  1  0
 11 12  1  6
 12 13  1  0
 13 14  1  0
 14 15  2  3
 11 16  1  0
 16 17  2  0
 16 18  1  0
 18 19  1  0
  7 20  1  0
  4 21  1  0
 20 21  1  0
M  END
