piperidine-amides-26829-covalent
     RDKit          3D

 24 26  0  0  0  0  0  0  0  0999 V2000
    7.0010   -3.3940   19.4250 C   0  0  0  0  0  0  0  0  0  0  0  0
    6.2980   -4.2530   20.3890 C   0  0  0  0  0  0  0  0  0  0  0  0
    5.2740   -4.8310   19.9590 O   0  0  0  0  0  0  0  0  0  0  0  0
    6.7780   -4.4400   21.6890 N   0  0  0  0  0  0  0  0  0  0  0  0
    6.7290   -5.7270   22.3510 C   0  0  0  0  0  0  0  0  0  0  0  0
    6.4340   -5.4660   23.7970 C   0  0  0  0  0  0  0  0  0  0  0  0
    5.9730   -4.0560   23.9700 C   0  0  0  0  0  0  0  0  0  0  0  0
    5.3000   -3.8330   25.2830 C   0  0  0  0  0  0  0  0  0  0  0  0
    4.0560   -3.8020   25.2590 O   0  0  0  0  0  0  0  0  0  0  0  0
    5.8940   -3.6350   26.5460 N   0  0  0  0  0  0  0  0  0  0  0  0
    5.4120   -4.4900   27.6390 C   0  0  0  0  0  0  0  0  0  0  0  0
    4.4800   -3.8040   28.6410 C   0  0  0  0  0  0  0  0  0  0  0  0
    5.2470   -2.3260   29.2160 S   0  0  0  0  0  0  0  0  0  0  0  0
    6.6570   -2.4050   28.1700 C   0  0  0  0  0  0  0  0  0  0  0  0
    6.1100   -2.2750   26.9130 C   0  0  1  0  0  0  0  0  0  0  0  0
    6.6470   -1.4900   25.8770 C   0  0  0  0  0  0  0  0  0  0  0  0
    6.2980   -0.2590   25.3920 C   0  0  0  0  0  0  0  0  0  0  0  0
    7.1230    0.0920   24.3530 N   0  0  0  0  0  0  0  0  0  0  0  0
    8.0200   -0.9240   24.1640 N   0  0  0  0  0  0  0  0  0  0  0  0
    8.9920   -0.7580   23.1120 C   0  0  0  0  0  0  0  0  0  0  0  0
    8.5440   -0.4640   21.6960 C   0  0  0  0  0  0  0  0  0  0  0  0
    7.7800   -1.9140   25.0540 C   0  0  0  0  0  0  0  0  0  0  0  0
    7.0800   -3.0510   23.6470 C   0  0  0  0  0  0  0  0  0  0  0  0
    7.6390   -3.4210   22.2860 C   0  0  0  0  0  0  0  0  0  0  0  0
  1  2  1  0
  2  3  2  0
  2  4  1  0
  4  5  1  0
  5  6  1  0
  6  7  1  0
  7  8  1  0
  8  9  2  0
  8 10  1  0
 10 11  1  0
 11 12  1  0
 12 13  1  0
 13 14  1  0
 10 15  1  0
 14 15  1  0
 15 16  1  6
 16 17  1  0
 17 18  2  0
 18 19  1  0
 19 20  1  0
 20 21  1  0
 16 22  2  0
 19 22  1  0
  7 23  1  0
  4 24  1  0
 23 24  1  0
M  END
