piperidine-amides-29660-covalent
     RDKit          3D

 22 23  0  0  0  0  0  0  0  0999 V2000
    7.1260   -3.3110   19.2090 C   0  0  0  0  0  0  0  0  0  0  0  0
    6.3320   -4.0270   20.1940 C   0  0  0  0  0  0  0  0  0  0  0  0
    5.2540   -4.5150   19.8740 O   0  0  0  0  0  0  0  0  0  0  0  0
    6.8450   -4.2240   21.5160 N   0  0  0  0  0  0  0  0  0  0  0  0
    6.4250   -5.3670   22.2820 C   0  0  0  0  0  0  0  0  0  0  0  0
    5.6610   -4.9080   23.4920 C   0  0  0  0  0  0  0  0  0  0  0  0
    6.5150   -3.9120   24.2590 C   0  0  0  0  0  0  0  0  0  0  0  0
    5.7220   -3.4150   25.4190 C   0  0  0  0  0  0  0  0  0  0  0  0
    4.4770   -3.4090   25.3990 O   0  0  0  0  0  0  0  0  0  0  0  0
    6.3780   -2.9420   26.5810 N   0  0  0  0  0  0  0  0  0  0  0  0
    6.2540   -3.7610   27.7670 C   0  0  0  0  0  0  0  0  0  0  0  0
    6.5080   -1.5110   26.7160 C   0  0  0  0  0  0  0  0  0  0  0  0
    5.8990   -0.6770   25.7960 C   0  0  0  0  0  0  0  0  0  0  0  0
    6.6420   -0.2800   24.6330 C   0  0  0  0  0  0  0  0  0  0  0  0
    6.0840    0.5600   23.6810 C   0  0  0  0  0  0  0  0  0  0  0  0
    6.8990    0.8700   22.6170 F   0  0  0  0  0  0  0  0  0  0  0  0
    4.7480    0.9870   23.9230 C   0  0  0  0  0  0  0  0  0  0  0  0
    4.0500    0.6200   25.0030 C   0  0  0  0  0  0  0  0  0  0  0  0
    4.5830   -0.2040   25.9590 C   0  0  0  0  0  0  0  0  0  0  0  0
    3.5040   -0.6600   27.4590 Br  0  0  0  0  0  0  0  0  0  0  0  0
    7.1160   -2.8120   23.4650 C   0  0  0  0  0  0  0  0  0  0  0  0
    7.5650   -3.1630   22.1260 C   0  0  0  0  0  0  0  0  0  0  0  0
  1  2  1  0
  2  3  2  0
  2  4  1  0
  4  5  1  0
  5  6  1  0
  6  7  1  0
  7  8  1  0
  8  9  2  0
  8 10  1  0
 10 11  1  0
 10 12  1  0
 12 13  1  0
 13 14  2  0
 14 15  1  0
 15 16  1  0
 15 17  2  0
 17 18  1  0
 13 19  1  0
 18 19  2  0
 19 20  1  0
  7 21  1  0
  4 22  1  0
 21 22  1  0
M  END
