piperidine-amides-21685-covalent
     RDKit          3D

 21 21  0  0  0  0  0  0  0  0999 V2000
    7.0780   -3.3130   19.2930 C   0  0  0  0  0  0  0  0  0  0  0  0
    6.2990   -4.0730   20.2720 C   0  0  0  0  0  0  0  0  0  0  0  0
    5.2120   -4.5490   19.8700 O   0  0  0  0  0  0  0  0  0  0  0  0
    6.7800   -4.2970   21.5640 N   0  0  0  0  0  0  0  0  0  0  0  0
    6.5560   -5.5440   22.2610 C   0  0  0  0  0  0  0  0  0  0  0  0
    5.9910   -5.2460   23.6300 C   0  0  0  0  0  0  0  0  0  0  0  0
    5.9170   -3.7670   23.8860 C   0  0  0  0  0  0  0  0  0  0  0  0
    5.5100   -3.4520   25.2790 C   0  0  0  0  0  0  0  0  0  0  0  0
    4.3070   -3.1710   25.4560 O   0  0  0  0  0  0  0  0  0  0  0  0
    6.3640   -3.4220   26.4100 N   0  0  0  0  0  0  0  0  0  0  0  0
    6.5410   -2.1570   27.0930 C   0  0  0  0  0  0  0  0  0  0  0  0
    6.8610   -4.6690   26.9900 C   0  0  0  0  0  0  0  0  0  0  0  0
    5.8740   -5.5970   27.1690 C   0  0  0  0  0  0  0  0  0  0  0  0
    5.2100   -5.8380   28.8130 S   0  0  0  0  0  0  0  0  0  0  0  0
    6.3000   -5.7620   29.8260 O   0  0  0  0  0  0  0  0  0  0  0  0
    4.4680   -7.1240   28.8880 O   0  0  0  0  0  0  0  0  0  0  0  0
    3.9960   -4.5690   29.1520 C   0  0  0  0  0  0  0  0  0  0  0  0
    2.9760   -4.7640   30.0670 C   0  0  0  0  0  0  0  0  0  0  0  0
    3.2670   -4.2930   27.8570 C   0  0  0  0  0  0  0  0  0  0  0  0
    7.2480   -3.1010   23.6330 C   0  0  0  0  0  0  0  0  0  0  0  0
    7.5420   -3.2030   22.1660 C   0  0  0  0  0  0  0  0  0  0  0  0
  1  2  1  0
  2  3  2  0
  2  4  1  0
  4  5  1  0
  5  6  1  0
  6  7  1  0
  7  8  1  0
  8  9  2  0
  8 10  1  0
 10 11  1  0
 10 12  1  0
 12 13  1  0
 14 13  1  0
 14 15  2  0
 14 16  2  0
 14 17  1  0
 17 18  1  0
 17 19  1  0
  7 20  1  0
  4 21  1  0
 20 21  1  0
M  END
