piperidine-amides-28928-covalent
     RDKit          3D

 25 27  0  0  0  0  0  0  0  0999 V2000
    7.2520   -3.3450   19.1880 C   0  0  0  0  0  0  0  0  0  0  0  0
    6.5200   -4.1030   20.1810 C   0  0  0  0  0  0  0  0  0  0  0  0
    5.3840   -4.5440   19.9060 O   0  0  0  0  0  0  0  0  0  0  0  0
    7.1900   -4.3800   21.3900 N   0  0  0  0  0  0  0  0  0  0  0  0
    6.7860   -5.5060   22.1600 C   0  0  0  0  0  0  0  0  0  0  0  0
    6.0550   -4.9840   23.3440 C   0  0  0  0  0  0  0  0  0  0  0  0
    6.7460   -3.7100   23.7990 C   0  0  0  0  0  0  0  0  0  0  0  0
    5.7930   -3.0330   24.6510 C   0  0  0  0  0  0  0  0  0  0  0  0
    5.3540   -1.9300   24.3730 O   0  0  0  0  0  0  0  0  0  0  0  0
    5.4870   -3.7630   25.6900 N   0  0  0  0  0  0  0  0  0  0  0  0
    4.3100   -4.5260   25.8220 C   0  0  0  0  0  0  0  0  0  0  0  0
    4.5030   -5.5550   26.7370 C   0  0  0  0  0  0  0  0  0  0  0  0
    5.7340   -5.4820   27.2390 C   0  0  0  0  0  0  0  0  0  0  0  0
    5.9830   -4.3030   27.8340 C   0  0  0  0  0  0  0  0  0  0  0  0
    5.8830   -3.2020   26.9540 C   0  0  0  0  0  0  0  0  0  0  0  0
    6.0760   -1.7040   27.1610 C   0  0  0  0  0  0  0  0  0  0  0  0
    6.4000   -1.4360   28.5690 C   0  0  0  0  0  0  0  0  0  0  0  0
    6.4780   -2.6100   29.5100 C   0  0  0  0  0  0  0  0  0  0  0  0
    6.2490   -4.1160   29.0250 C   0  0  0  0  0  0  0  0  0  0  0  0
    6.2240   -5.8390   29.6490 S   0  0  0  0  0  0  0  0  0  0  0  0
    5.0420   -6.8310   28.8390 N   0  0  0  0  0  0  0  0  0  0  0  0
    7.5050   -6.4040   29.1600 O   0  0  0  0  0  0  0  0  0  0  0  0
    6.0930   -6.1010   31.1130 O   0  0  0  0  0  0  0  0  0  0  0  0
    7.0030   -2.7160   22.7200 C   0  0  0  0  0  0  0  0  0  0  0  0
    7.9620   -3.3460   22.0270 C   0  0  0  0  0  0  0  0  0  0  0  0
  1  2  1  0
  2  3  2  0
  2  4  1  0
  4  5  1  0
  5  6  1  0
  6  7  1  0
  7  8  1  0
  8  9  2  0
  8 10  1  0
 10 11  1  0
 11 12  1  0
 12 13  1  0
 13 14  1  0
 10 15  1  0
 14 15  2  0
 15 16  1  0
 16 17  2  0
 17 18  1  0
 14 19  1  0
 18 19  2  0
 19 20  1  0
 20 21  1  0
 20 22  2  0
 20 23  2  0
  7 24  1  0
  4 25  1  0
 24 25  1  0
M  END
