piperidine-amides-13129-covalent
     RDKit          3D

 20 21  0  0  0  0  0  0  0  0999 V2000
    7.1280   -3.2610   19.1800 C   0  0  0  0  0  0  0  0  0  0  0  0
    6.3600   -4.0080   20.2060 C   0  0  0  0  0  0  0  0  0  0  0  0
    5.2660   -4.4830   19.8480 O   0  0  0  0  0  0  0  0  0  0  0  0
    6.8730   -4.2030   21.4950 N   0  0  0  0  0  0  0  0  0  0  0  0
    7.6290   -3.1630   22.1060 C   0  0  0  0  0  0  0  0  0  0  0  0
    7.3330   -2.9020   23.5170 C   0  0  0  0  0  0  0  0  0  0  0  0
    6.6650   -3.9790   24.2920 C   0  0  0  0  0  0  0  0  0  0  0  0
    5.8260   -3.3590   25.3370 C   0  0  0  0  0  0  0  0  0  0  0  0
    4.6580   -3.0410   25.0490 O   0  0  0  0  0  0  0  0  0  0  0  0
    6.3300   -3.1430   26.6200 N   0  0  0  0  0  0  0  0  0  0  0  0
    6.6140   -4.2840   27.5060 C   0  0  1  0  0  0  0  0  0  0  0  0
    8.0790   -4.4920   27.5430 C   0  0  0  0  0  0  0  0  0  0  0  0
    8.6260   -5.8030   27.8280 C   0  0  0  0  0  0  0  0  0  0  0  0
    6.0750   -3.8650   28.7760 C   0  0  0  0  0  0  0  0  0  0  0  0
    5.9660   -2.5030   29.0470 C   0  0  0  0  0  0  0  0  0  0  0  0
    4.6910   -2.2390   29.4170 C   0  0  0  0  0  0  0  0  0  0  0  0
    3.9810   -3.3930   29.3530 C   0  0  0  0  0  0  0  0  0  0  0  0
    4.7950   -4.4160   28.9590 C   0  0  0  0  0  0  0  0  0  0  0  0
    5.8130   -4.8940   23.4490 C   0  0  0  0  0  0  0  0  0  0  0  0
    6.5850   -5.3720   22.2850 C   0  0  0  0  0  0  0  0  0  0  0  0
  1  2  1  0
  2  3  2  0
  2  4  1  0
  4  5  1  0
  5  6  1  0
  6  7  1  0
  7  8  1  0
  8  9  2  0
  8 10  1  0
 10 11  1  0
 11 12  1  1
 12 13  1  0
 11 14  1  0
 14 15  1  0
 15 16  1  0
 16 17  1  0
 14 18  1  0
 17 18  1  0
  7 19  1  0
  4 20  1  0
 19 20  1  0
M  END
