piperidine-amides-29250-covalent
     RDKit          3D

 26 27  0  0  0  0  0  0  0  0999 V2000
    7.0430   -3.3670   19.4100 C   0  0  0  0  0  0  0  0  0  0  0  0
    6.3590   -4.1970   20.3970 C   0  0  0  0  0  0  0  0  0  0  0  0
    5.4030   -4.8880   19.9980 O   0  0  0  0  0  0  0  0  0  0  0  0
    6.8100   -4.2330   21.7530 N   0  0  0  0  0  0  0  0  0  0  0  0
    6.6180   -5.4530   22.4920 C   0  0  0  0  0  0  0  0  0  0  0  0
    6.1600   -5.1680   23.9060 C   0  0  0  0  0  0  0  0  0  0  0  0
    6.0650   -3.6670   24.0620 C   0  0  0  0  0  0  0  0  0  0  0  0
    5.4570   -3.2470   25.3900 C   0  0  0  0  0  0  0  0  0  0  0  0
    4.2570   -3.0080   25.3080 O   0  0  0  0  0  0  0  0  0  0  0  0
    6.1660   -3.1390   26.6010 N   0  0  0  0  0  0  0  0  0  0  0  0
    6.2090   -4.2890   27.4520 C   0  0  0  0  0  0  0  0  0  0  0  0
    5.9700   -1.9150   27.3420 C   0  0  1  0  0  0  0  0  0  0  0  0
    6.9320   -1.6560   28.3000 C   0  0  0  0  0  0  0  0  0  0  0  0
    6.7750   -0.7710   29.3490 C   0  0  0  0  0  0  0  0  0  0  0  0
    6.3680    0.4940   28.6790 C   0  0  0  0  0  0  0  0  0  0  0  0
    5.6460    0.3770   27.5440 N   0  0  0  0  0  0  0  0  0  0  0  0
    4.6990    1.2700   27.2480 C   0  0  0  0  0  0  0  0  0  0  0  0
    4.4810    1.5710   26.0480 O   0  0  0  0  0  0  0  0  0  0  0  0
    4.1000    1.7260   28.3200 O   0  0  0  0  0  0  0  0  0  0  0  0
    4.3970    3.0710   28.5090 C   0  0  0  0  0  0  0  0  0  0  0  0
    3.5130    3.9580   27.6810 C   0  0  0  0  0  0  0  0  0  0  0  0
    5.7330    3.3030   28.2820 C   0  0  0  0  0  0  0  0  0  0  0  0
    4.2380    3.2820   29.8700 C   0  0  0  0  0  0  0  0  0  0  0  0
    5.8260   -0.6180   26.5350 C   0  0  0  0  0  0  0  0  0  0  0  0
    7.3460   -2.9860   23.7430 C   0  0  0  0  0  0  0  0  0  0  0  0
    7.6620   -3.1890   22.2860 C   0  0  0  0  0  0  0  0  0  0  0  0
  1  2  1  0
  2  3  2  0
  2  4  1  0
  4  5  1  0
  5  6  1  0
  6  7  1  0
  7  8  1  0
  8  9  2  0
  8 10  1  0
 10 11  1  0
 12 10  1  6
 12 13  1  0
 13 14  1  0
 14 15  1  0
 15 16  1  0
 16 17  1  0
 17 18  2  0
 17 19  1  0
 20 19  1  0
 20 21  1  0
 20 22  1  0
 20 23  1  0
 12 24  1  0
 16 24  1  0
  7 25  1  0
  4 26  1  0
 25 26  1  0
M  END
