piperidine-amides-10727-covalent
     RDKit          3D

 22 23  0  0  0  0  0  0  0  0999 V2000
    7.0660   -3.3320   19.2900 C   0  0  0  0  0  0  0  0  0  0  0  0
    6.3790   -4.1450   20.2970 C   0  0  0  0  0  0  0  0  0  0  0  0
    5.3620   -4.7790   19.9640 O   0  0  0  0  0  0  0  0  0  0  0  0
    6.8640   -4.2640   21.6110 N   0  0  0  0  0  0  0  0  0  0  0  0
    7.8180   -3.3350   22.1770 C   0  0  0  0  0  0  0  0  0  0  0  0
    7.1600   -2.7650   23.3860 C   0  0  0  0  0  0  0  0  0  0  0  0
    5.9530   -3.5510   23.7860 C   0  0  0  0  0  0  0  0  0  0  0  0
    5.5320   -3.1690   25.1410 C   0  0  0  0  0  0  0  0  0  0  0  0
    4.3140   -3.1610   25.4850 O   0  0  0  0  0  0  0  0  0  0  0  0
    6.4950   -2.8020   26.0820 N   0  0  0  0  0  0  0  0  0  0  0  0
    6.3910   -1.6110   26.9400 C   0  0  0  0  0  0  0  0  0  0  0  0
    6.2720   -0.2390   26.3700 C   0  0  0  0  0  0  0  0  0  0  0  0
    6.1910    0.9200   27.2870 C   0  0  0  0  0  0  0  0  0  0  0  0
    6.2420    0.6120   28.7450 C   0  0  0  0  0  0  0  0  0  0  0  0
    6.1950    1.5090   29.9670 C   0  0  0  0  0  0  0  0  0  0  0  0
    5.0050    0.9430   30.6550 C   0  0  0  0  0  0  0  0  0  0  0  0
    4.2780    1.9010   31.4150 N   0  0  0  0  0  0  0  0  0  0  0  0
    6.3570   -0.8040   29.2310 C   0  0  0  0  0  0  0  0  0  0  0  0
    6.4230   -1.9240   28.3940 C   0  0  0  0  0  0  0  0  0  0  0  0
    6.5220   -3.6040   28.9150 Cl  0  0  0  0  0  0  0  0  0  0  0  0
    6.1630   -5.0790   23.7520 C   0  0  0  0  0  0  0  0  0  0  0  0
    6.5740   -5.4830   22.3290 C   0  0  0  0  0  0  0  0  0  0  0  0
  1  2  1  0
  2  3  2  0
  2  4  1  0
  4  5  1  0
  5  6  1  0
  6  7  1  0
  7  8  1  0
  8  9  2  0
  8 10  1  0
 10 11  1  0
 11 12  2  0
 12 13  1  0
 13 14  2  0
 14 15  1  0
 15 16  1  0
 16 17  3  0
 14 18  1  0
 11 19  1  0
 18 19  2  0
 19 20  1  0
  7 21  1  0
  4 22  1  0
 21 22  1  0
M  END
