piperidine-amides-28853-covalent
     RDKit          3D

 25 27  0  0  0  0  0  0  0  0999 V2000
    7.0090   -3.3590   19.3880 C   0  0  0  0  0  0  0  0  0  0  0  0
    6.3730   -4.2290   20.3830 C   0  0  0  0  0  0  0  0  0  0  0  0
    5.4130   -4.9240   20.0000 O   0  0  0  0  0  0  0  0  0  0  0  0
    6.8600   -4.2990   21.7200 N   0  0  0  0  0  0  0  0  0  0  0  0
    6.6280   -5.5060   22.4780 C   0  0  0  0  0  0  0  0  0  0  0  0
    6.1800   -5.2100   23.8970 C   0  0  0  0  0  0  0  0  0  0  0  0
    6.1140   -3.7030   24.0540 C   0  0  0  0  0  0  0  0  0  0  0  0
    5.5860   -3.2100   25.3870 C   0  0  0  0  0  0  0  0  0  0  0  0
    4.9810   -2.1500   25.3260 O   0  0  0  0  0  0  0  0  0  0  0  0
    5.7470   -3.9190   26.5820 N   0  0  0  0  0  0  0  0  0  0  0  0
    6.4330   -3.4220   27.6710 C   0  0  0  0  0  0  0  0  0  0  0  0
    6.6960   -4.4820   28.5490 C   0  0  0  0  0  0  0  0  0  0  0  0
    5.6250   -4.8350   29.3060 C   0  0  0  0  0  0  0  0  0  0  0  0
    5.8230   -5.8610   30.2110 O   0  0  0  0  0  0  0  0  0  0  0  0
    5.1120   -6.4270   31.1980 C   0  0  0  0  0  0  0  0  0  0  0  0
    3.7670   -5.8420   31.4670 C   0  0  0  0  0  0  0  0  0  0  0  0
    2.8920   -6.4240   32.5940 C   0  0  0  0  0  0  0  0  0  0  0  0
    3.4440   -7.5610   33.3770 C   0  0  0  0  0  0  0  0  0  0  0  0
    4.8030   -8.1440   33.0990 C   0  0  0  0  0  0  0  0  0  0  0  0
    5.4680   -9.4820   34.0250 Cl  0  0  0  0  0  0  0  0  0  0  0  0
    5.6050   -7.4970   31.9400 C   0  0  0  0  0  0  0  0  0  0  0  0
    5.0320   -5.4900   28.0720 C   0  0  0  0  0  0  0  0  0  0  0  0
    4.6070   -4.5640   27.1230 C   0  0  0  0  0  0  0  0  0  0  0  0
    7.4090   -3.0630   23.7170 C   0  0  0  0  0  0  0  0  0  0  0  0
    7.7020   -3.2490   22.2640 C   0  0  0  0  0  0  0  0  0  0  0  0
  1  2  1  0
  2  3  2  0
  2  4  1  0
  4  5  1  0
  5  6  1  0
  6  7  1  0
  7  8  1  0
  8  9  2  0
  8 10  1  0
 10 11  1  0
 11 12  1  0
 12 13  1  0
 13 14  1  0
 14 15  1  0
 15 16  2  0
 16 17  1  0
 17 18  2  0
 18 19  1  0
 19 20  1  0
 15 21  1  0
 19 21  2  0
 13 22  1  0
 10 23  1  0
 22 23  1  0
  7 24  1  0
  4 25  1  0
 24 25  1  0
M  END
