piperidine-amides-13409-covalent
     RDKit          3D

 30 32  0  0  0  0  0  0  0  0999 V2000
    7.2150   -3.1210   18.9200 C   0  0  0  0  0  0  0  0  0  0  0  0
    6.2340   -3.5910   19.9250 C   0  0  0  0  0  0  0  0  0  0  0  0
    5.1540   -4.0970   19.6020 O   0  0  0  0  0  0  0  0  0  0  0  0
    6.5630   -3.4860   21.2610 N   0  0  0  0  0  0  0  0  0  0  0  0
    7.3360   -2.3820   21.7790 C   0  0  0  0  0  0  0  0  0  0  0  0
    7.2410   -2.3820   23.3100 C   0  0  0  0  0  0  0  0  0  0  0  0
    5.7950   -2.4670   23.7130 C   0  0  0  0  0  0  0  0  0  0  0  0
    5.5400   -2.4830   25.1800 C   0  0  0  0  0  0  0  0  0  0  0  0
    4.3420   -2.3710   25.4910 O   0  0  0  0  0  0  0  0  0  0  0  0
    6.5710   -2.6250   26.1440 N   0  0  0  0  0  0  0  0  0  0  0  0
    6.4560   -2.3560   27.5460 C   0  0  0  0  0  0  0  0  0  0  0  0
    5.9590   -3.1120   28.6090 C   0  0  0  0  0  0  0  0  0  0  0  0
    5.9740   -2.3690   29.7900 C   0  0  0  0  0  0  0  0  0  0  0  0
    7.0350   -1.5210   30.0570 O   0  0  0  0  0  0  0  0  0  0  0  0
    4.9450   -2.3970   30.7060 O   0  0  0  0  0  0  0  0  0  0  0  0
    4.3250   -1.2200   31.2140 C   0  0  0  0  0  0  0  0  0  0  0  0
    4.5460   -3.3860   28.4720 C   0  0  0  0  0  0  0  0  0  0  0  0
    4.1680   -4.3580   27.3830 C   0  0  0  0  0  0  0  0  0  0  0  0
    5.3380   -4.8620   26.7840 N   0  0  0  0  0  0  0  0  0  0  0  0
    5.9480   -3.9600   25.8960 C   0  0  0  0  0  0  0  0  0  0  0  0
    6.3100   -4.5410   24.7110 C   0  0  0  0  0  0  0  0  0  0  0  0
    5.6590   -5.7390   24.1790 C   0  0  0  0  0  0  0  0  0  0  0  0
    6.2370   -6.2040   22.8400 C   0  0  0  0  0  0  0  0  0  0  0  0
    7.2170   -5.8360   21.9350 C   0  0  0  0  0  0  0  0  0  0  0  0
    7.7350   -4.5840   22.6980 C   0  0  0  0  0  0  0  0  0  0  0  0
    7.3040   -3.9990   23.9850 C   0  0  0  0  0  0  0  0  0  0  0  0
    6.1610   -5.4760   27.8010 C   0  0  0  0  0  0  0  0  0  0  0  0
    6.6670   -4.4470   28.7680 C   0  0  0  0  0  0  0  0  0  0  0  0
    4.9840   -3.5350   22.9780 C   0  0  0  0  0  0  0  0  0  0  0  0
    5.7760   -4.2750   22.1640 C   0  0  0  0  0  0  0  0  0  0  0  0
  1  2  1  0
  2  3  2  0
  2  4  1  0
  4  5  1  0
  5  6  1  0
  6  7  1  0
  7  8  1  0
  8  9  2  0
  8 10  1  0
 10 11  1  0
 11 12  1  0
 12 13  1  0
 13 14  2  0
 13 15  1  0
 15 16  1  0
 12 17  1  0
 17 18  1  0
 18 19  1  0
 19 20  1  0
 20 21  1  0
 21 22  2  0
 22 23  1  0
 23 24  2  0
 24 25  1  0
 21 26  1  0
 25 26  2  0
 19 27  1  0
 12 28  1  0
 27 28  1  0
  7 29  1  0
  4 30  1  0
 29 30  1  0
M  END
