piperidine-amides-2525-covalent
     RDKit          3D

 26 28  0  0  0  0  0  0  0  0999 V2000
    6.9890   -3.3430   19.3910 C   0  0  0  0  0  0  0  0  0  0  0  0
    6.3500   -4.2070   20.4290 C   0  0  0  0  0  0  0  0  0  0  0  0
    5.4500   -4.9410   20.0130 O   0  0  0  0  0  0  0  0  0  0  0  0
    6.7790   -4.1970   21.7810 N   0  0  0  0  0  0  0  0  0  0  0  0
    7.6920   -3.1940   22.3080 C   0  0  0  0  0  0  0  0  0  0  0  0
    7.2280   -2.8020   23.6820 C   0  0  0  0  0  0  0  0  0  0  0  0
    5.8530   -3.4290   23.8360 C   0  0  0  0  0  0  0  0  0  0  0  0
    5.0920   -2.9140   25.0260 C   0  0  0  0  0  0  0  0  0  0  0  0
    3.9180   -2.5930   24.8420 O   0  0  0  0  0  0  0  0  0  0  0  0
    5.5910   -2.7800   26.3410 N   0  0  0  0  0  0  0  0  0  0  0  0
    5.7500   -1.4510   26.9730 C   0  0  0  0  0  0  0  0  0  0  0  0
    5.8840   -0.2480   26.1060 C   0  0  0  0  0  0  0  0  0  0  0  0
    6.0630    1.0580   26.5100 C   0  0  0  0  0  0  0  0  0  0  0  0
    6.1380    1.3380   27.8550 C   0  0  0  0  0  0  0  0  0  0  0  0
    6.0230    0.3110   28.7370 C   0  0  0  0  0  0  0  0  0  0  0  0
    5.8210   -1.1030   28.2970 C   0  0  0  0  0  0  0  0  0  0  0  0
    5.7190   -1.9910   29.2930 N   0  0  0  0  0  0  0  0  0  0  0  0
    5.5900   -1.2750   30.4360 C   0  0  0  0  0  0  0  0  0  0  0  0
    4.3730   -1.0230   31.3100 C   0  0  0  0  0  0  0  0  0  0  0  0
    4.5730   -0.1670   32.5300 C   0  0  0  0  0  0  0  0  0  0  0  0
    5.9110    0.3980   32.8460 C   0  0  0  0  0  0  0  0  0  0  0  0
    6.1610    1.3980   34.2670 Cl  0  0  0  0  0  0  0  0  0  0  0  0
    7.0450    0.0880   31.9150 C   0  0  0  0  0  0  0  0  0  0  0  0
    6.8520   -0.7550   30.7130 C   0  0  0  0  0  0  0  0  0  0  0  0
    5.9570   -4.9540   23.8220 C   0  0  0  0  0  0  0  0  0  0  0  0
    6.5610   -5.3750   22.6260 C   0  0  0  0  0  0  0  0  0  0  0  0
  1  2  1  0
  2  3  2  0
  2  4  1  0
  4  5  1  0
  5  6  1  0
  6  7  1  0
  7  8  1  0
  8  9  2  0
  8 10  1  0
 10 11  1  0
 11 12  2  0
 12 13  1  0
 13 14  2  0
 14 15  1  0
 11 16  1  0
 15 16  2  0
 16 17  1  0
 17 18  1  0
 18 19  2  0
 19 20  1  0
 20 21  2  0
 21 22  1  0
 21 23  1  0
 18 24  1  0
 23 24  2  0
  7 25  1  0
  4 26  1  0
 25 26  1  0
M  END
