piperidine-amides-30557-covalent
     RDKit          3D

 23 25  0  0  0  0  0  0  0  0999 V2000
    7.0270   -3.3720   19.4320 C   0  0  0  0  0  0  0  0  0  0  0  0
    6.3780   -4.2700   20.3900 C   0  0  0  0  0  0  0  0  0  0  0  0
    5.3810   -4.9040   20.0010 O   0  0  0  0  0  0  0  0  0  0  0  0
    6.8640   -4.4930   21.7050 N   0  0  0  0  0  0  0  0  0  0  0  0
    6.5430   -5.6720   22.4580 C   0  0  0  0  0  0  0  0  0  0  0  0
    5.8350   -5.1760   23.7020 C   0  0  0  0  0  0  0  0  0  0  0  0
    6.4770   -3.9600   24.3290 C   0  0  0  0  0  0  0  0  0  0  0  0
    5.6430   -3.3620   25.4390 C   0  0  0  0  0  0  0  0  0  0  0  0
    5.0310   -2.2850   25.2020 O   0  0  0  0  0  0  0  0  0  0  0  0
    5.4070   -3.8860   26.7660 N   0  0  0  0  0  0  0  0  0  0  0  0
    6.3580   -3.6990   27.8370 C   0  0  0  0  0  0  0  0  0  0  0  0
    6.6280   -5.0130   28.5070 C   0  0  0  0  0  0  0  0  0  0  0  0
    5.6190   -5.4320   29.4460 C   0  0  0  0  0  0  0  0  0  0  0  0
    5.8370   -6.7300   30.1690 C   0  0  0  0  0  0  0  0  0  0  0  0
    4.7930   -7.1780   31.1700 C   0  0  0  0  0  0  0  0  0  0  0  0
    3.6170   -6.2830   31.3530 C   0  0  0  0  0  0  0  0  0  0  0  0
    2.2350   -6.7390   32.5880 Br  0  0  0  0  0  0  0  0  0  0  0  0
    3.5810   -5.1400   30.6000 C   0  0  0  0  0  0  0  0  0  0  0  0
    4.5300   -4.7030   29.6720 C   0  0  0  0  0  0  0  0  0  0  0  0
    4.3630   -3.4260   28.8960 C   0  0  0  0  0  0  0  0  0  0  0  0
    4.1210   -3.6520   27.3860 C   0  0  0  0  0  0  0  0  0  0  0  0
    6.7630   -2.9200   23.2170 C   0  0  0  0  0  0  0  0  0  0  0  0
    7.5300   -3.3960   22.4090 C   0  0  0  0  0  0  0  0  0  0  0  0
  1  2  1  0
  2  3  2  0
  2  4  1  0
  4  5  1  0
  5  6  1  0
  6  7  1  0
  7  8  1  0
  8  9  2  0
  8 10  1  0
 10 11  1  0
 11 12  1  0
 12 13  1  0
 13 14  1  0
 14 15  2  0
 15 16  1  0
 16 17  1  0
 16 18  2  0
 13 19  2  0
 18 19  1  0
 19 20  1  0
 10 21  1  0
 20 21  1  0
  7 22  1  0
  4 23  1  0
 22 23  1  0
M  END
