piperidine-amides-25094-covalent
     RDKit          3D

 25 27  0  0  0  0  0  0  0  0999 V2000
    7.0350   -3.3210   19.3200 C   0  0  0  0  0  0  0  0  0  0  0  0
    6.3550   -4.1620   20.3380 C   0  0  0  0  0  0  0  0  0  0  0  0
    5.3550   -4.7820   19.9680 O   0  0  0  0  0  0  0  0  0  0  0  0
    6.8720   -4.2680   21.6370 N   0  0  0  0  0  0  0  0  0  0  0  0
    6.7210   -5.4820   22.4040 C   0  0  0  0  0  0  0  0  0  0  0  0
    6.1930   -5.1590   23.7770 C   0  0  0  0  0  0  0  0  0  0  0  0
    6.1350   -3.6450   23.9650 C   0  0  0  0  0  0  0  0  0  0  0  0
    5.5990   -3.3370   25.3040 C   0  0  0  0  0  0  0  0  0  0  0  0
    4.3810   -3.4490   25.4720 O   0  0  0  0  0  0  0  0  0  0  0  0
    6.3850   -2.9070   26.3880 N   0  0  0  0  0  0  0  0  0  0  0  0
    6.1430   -3.6100   27.6340 C   0  0  0  0  0  0  0  0  0  0  0  0
    4.8470   -3.0730   28.2290 C   0  0  0  0  0  0  0  0  0  0  0  0
    4.7240   -2.2270   29.3390 C   0  0  0  0  0  0  0  0  0  0  0  0
    3.4510   -1.9710   29.5640 C   0  0  0  0  0  0  0  0  0  0  0  0
    2.7450   -2.6580   28.5920 N   0  0  0  0  0  0  0  0  0  0  0  0
    1.3160   -2.6940   28.4180 C   0  0  0  0  0  0  0  0  0  0  0  0
    3.5330   -3.3270   27.7760 N   0  0  0  0  0  0  0  0  0  0  0  0
    6.4020   -1.6390   27.0900 C   0  0  0  0  0  0  0  0  0  0  0  0
    7.0560   -1.6520   28.4690 C   0  0  0  0  0  0  0  0  0  0  0  0
    7.1380   -0.4020   29.3350 C   0  0  0  0  0  0  0  0  0  0  0  0
    6.5370    0.8150   28.7300 C   0  0  0  0  0  0  0  0  0  0  0  0
    5.9170    0.8230   27.4060 C   0  0  0  0  0  0  0  0  0  0  0  0
    5.8100   -0.3710   26.5180 C   0  0  0  0  0  0  0  0  0  0  0  0
    7.4960   -3.0710   23.6970 C   0  0  0  0  0  0  0  0  0  0  0  0
    7.6960   -3.2040   22.2110 C   0  0  0  0  0  0  0  0  0  0  0  0
  1  2  1  0
  2  3  2  0
  2  4  1  0
  4  5  1  0
  5  6  1  0
  6  7  1  0
  7  8  1  0
  8  9  2  0
  8 10  1  0
 10 11  1  0
 11 12  1  0
 12 13  1  0
 13 14  2  0
 14 15  1  0
 15 16  1  0
 12 17  2  0
 15 17  1  0
 10 18  1  0
 18 19  2  0
 19 20  1  0
 20 21  2  0
 21 22  1  0
 18 23  1  0
 22 23  2  0
  7 24  1  0
  4 25  1  0
 24 25  1  0
M  END
