piperidine-amides-17028-covalent
     RDKit          3D

 20 21  0  0  0  0  0  0  0  0999 V2000
    7.0430   -3.3850   19.3710 C   0  0  0  0  0  0  0  0  0  0  0  0
    6.4200   -4.2490   20.3870 C   0  0  0  0  0  0  0  0  0  0  0  0
    5.4160   -4.9040   20.0060 O   0  0  0  0  0  0  0  0  0  0  0  0
    6.9610   -4.3770   21.7030 N   0  0  0  0  0  0  0  0  0  0  0  0
    6.4930   -5.4130   22.5460 C   0  0  0  0  0  0  0  0  0  0  0  0
    6.1290   -5.0200   23.9260 C   0  0  0  0  0  0  0  0  0  0  0  0
    6.4410   -3.6440   24.4280 C   0  0  0  0  0  0  0  0  0  0  0  0
    5.3220   -3.1590   25.3270 C   0  0  0  0  0  0  0  0  0  0  0  0
    4.3490   -2.6300   24.7670 O   0  0  0  0  0  0  0  0  0  0  0  0
    5.2560   -3.2600   26.7560 N   0  0  0  0  0  0  0  0  0  0  0  0
    4.1170   -3.4020   27.5150 C   0  0  0  0  0  0  0  0  0  0  0  0
    3.9440   -4.7050   28.1230 C   0  0  2  0  0  0  0  0  0  0  0  0
    3.4210   -4.4540   29.5510 C   0  0  0  0  0  0  0  0  0  0  0  0
    4.8970   -5.6310   28.3090 N   0  0  0  0  0  0  0  0  0  0  0  0
    4.1100   -6.5700   27.5600 C   0  0  0  0  0  0  0  0  0  0  0  0
    6.1910   -5.2550   27.8520 C   0  0  2  0  0  0  0  0  0  0  0  0
    7.1000   -5.5700   28.9610 C   0  0  0  0  0  0  0  0  0  0  0  0
    6.3290   -3.7200   27.5210 C   0  0  0  0  0  0  0  0  0  0  0  0
    6.7740   -2.6190   23.3650 C   0  0  0  0  0  0  0  0  0  0  0  0
    7.6600   -3.2880   22.3340 C   0  0  0  0  0  0  0  0  0  0  0  0
  1  2  1  0
  2  3  2  0
  2  4  1  0
  4  5  1  0
  5  6  1  0
  6  7  1  0
  7  8  1  0
  8  9  2  0
  8 10  1  0
 10 11  1  0
 11 12  1  0
 12 13  1  1
 12 14  1  0
 14 15  1  0
 14 16  1  0
 16 17  1  1
 10 18  1  0
 16 18  1  0
  7 19  1  0
  4 20  1  0
 19 20  1  0
M  END
