piperidine-amides-2505-covalent
     RDKit          3D

 26 28  0  0  0  0  0  0  0  0999 V2000
    7.2150   -4.0240   19.6770 C   0  0  0  0  0  0  0  0  0  0  0  0
    6.0280   -4.0210   20.4320 C   0  0  0  0  0  0  0  0  0  0  0  0
    5.0230   -4.1440   19.7380 O   0  0  0  0  0  0  0  0  0  0  0  0
    6.1830   -4.0050   21.8100 N   0  0  0  0  0  0  0  0  0  0  0  0
    7.2920   -3.2120   22.3150 C   0  0  0  0  0  0  0  0  0  0  0  0
    7.0510   -2.9370   23.7590 C   0  0  0  0  0  0  0  0  0  0  0  0
    5.7250   -3.6030   24.0760 C   0  0  0  0  0  0  0  0  0  0  0  0
    5.3100   -3.3770   25.4680 C   0  0  0  0  0  0  0  0  0  0  0  0
    4.3910   -2.5830   25.6700 O   0  0  0  0  0  0  0  0  0  0  0  0
    5.9040   -4.0320   26.5640 N   0  0  0  0  0  0  0  0  0  0  0  0
    6.3090   -3.2130   27.6770 C   0  0  1  0  0  0  0  0  0  0  0  0
    6.7110   -1.8970   27.0420 C   0  0  0  0  0  0  0  0  0  0  0  0
    5.8360   -0.9390   26.5790 C   0  0  0  0  0  0  0  0  0  0  0  0
    6.2510   -0.4070   25.4130 C   0  0  0  0  0  0  0  0  0  0  0  0
    5.5030    0.5230   24.8590 C   0  0  0  0  0  0  0  0  0  0  0  0
    4.2330    1.1050   25.3220 C   0  0  0  0  0  0  0  0  0  0  0  0
    3.8170    0.4790   26.6240 C   0  0  0  0  0  0  0  0  0  0  0  0
    4.5770   -0.6260   27.4080 C   0  0  0  0  0  0  0  0  0  0  0  0
    5.2370   -2.7950   28.6300 C   0  0  0  0  0  0  0  0  0  0  0  0
    3.8750   -3.0180   28.9780 N   0  0  0  0  0  0  0  0  0  0  0  0
    3.6070   -2.1780   30.0550 C   0  0  0  0  0  0  0  0  0  0  0  0
    4.8440   -1.4120   30.3820 C   0  0  0  0  0  0  0  0  0  0  0  0
    5.7580   -1.8300   29.5070 N   0  0  0  0  0  0  0  0  0  0  0  0
    6.9370   -1.2480   29.6550 C   0  0  0  0  0  0  0  0  0  0  0  0
    5.8010   -5.0880   23.7970 C   0  0  0  0  0  0  0  0  0  0  0  0
    6.0670   -5.3100   22.4670 C   0  0  0  0  0  0  0  0  0  0  0  0
  1  2  1  0
  2  3  2  0
  2  4  1  0
  4  5  1  0
  5  6  1  0
  6  7  1  0
  7  8  1  0
  8  9  2  0
  8 10  1  0
 10 11  1  0
 11 12  1  6
 12 13  1  0
 13 14  2  0
 14 15  1  0
 15 16  2  0
 16 17  1  0
 13 18  1  0
 17 18  2  0
 11 19  1  0
 19 20  2  0
 20 21  1  0
 21 22  2  0
 19 23  1  0
 22 23  1  0
 23 24  1  0
  7 25  1  0
  4 26  1  0
 25 26  1  0
M  END
