piperidine-amides-795-covalent
     RDKit          3D

 25 26  0  0  0  0  0  0  0  0999 V2000
    7.1090   -3.3520   19.2210 C   0  0  0  0  0  0  0  0  0  0  0  0
    6.4040   -4.0770   20.2520 C   0  0  0  0  0  0  0  0  0  0  0  0
    5.3100   -4.6280   19.9260 O   0  0  0  0  0  0  0  0  0  0  0  0
    6.9190   -4.2530   21.5570 N   0  0  0  0  0  0  0  0  0  0  0  0
    6.5510   -5.4910   22.2690 C   0  0  0  0  0  0  0  0  0  0  0  0
    5.5900   -4.8620   23.3450 C   0  0  0  0  0  0  0  0  0  0  0  0
    6.4050   -3.8090   24.0750 C   0  0  0  0  0  0  0  0  0  0  0  0
    5.6140   -3.3010   25.3450 C   0  0  0  0  0  0  0  0  0  0  0  0
    5.2000   -2.1620   25.1830 O   0  0  0  0  0  0  0  0  0  0  0  0
    5.6120   -4.2270   26.2050 N   0  0  0  0  0  0  0  0  0  0  0  0
    5.5630   -5.2050   27.1500 C   0  0  2  0  0  0  0  0  0  0  0  0
    4.7150   -6.1500   27.5900 C   0  0  0  0  0  0  0  0  0  0  0  0
    6.0070   -4.5480   28.4300 C   0  0  0  0  0  0  0  0  0  0  0  0
    4.7870   -3.9030   28.9700 C   0  0  0  0  0  0  0  0  0  0  0  0
    4.0250   -3.2360   28.0130 O   0  0  0  0  0  0  0  0  0  0  0  0
    4.4620   -3.9710   30.2930 O   0  0  0  0  0  0  0  0  0  0  0  0
    3.5460   -5.0290   30.4660 C   0  0  0  0  0  0  0  0  0  0  0  0
    4.1110   -5.9450   31.3550 C   0  0  0  0  0  0  0  0  0  0  0  0
    3.5060   -5.8680   32.6630 C   0  0  0  0  0  0  0  0  0  0  0  0
    4.3500   -6.9720   33.3400 C   0  0  0  0  0  0  0  0  0  0  0  0
    5.4730   -7.8520   32.7560 C   0  0  0  0  0  0  0  0  0  0  0  0
    5.7930   -7.6620   31.4840 C   0  0  0  0  0  0  0  0  0  0  0  0
    5.1240   -6.7240   30.7930 C   0  0  0  0  0  0  0  0  0  0  0  0
    6.9400   -2.6760   23.2110 C   0  0  0  0  0  0  0  0  0  0  0  0
    7.7070   -3.2610   22.2430 C   0  0  0  0  0  0  0  0  0  0  0  0
  1  2  1  0
  2  3  2  0
  2  4  1  0
  4  5  1  0
  5  6  1  0
  6  7  1  0
  7  8  1  0
  8  9  2  0
  8 10  1  0
 10 11  1  0
 11 12  1  1
 11 13  1  0
 13 14  1  0
 14 15  2  0
 14 16  1  0
 16 17  1  0
 17 18  1  0
 18 19  2  0
 19 20  1  0
 20 21  2  0
 21 22  1  0
 18 23  1  0
 22 23  2  0
  7 24  1  0
  4 25  1  0
 24 25  1  0
M  END
