piperidine-amides-33787-covalent
     RDKit          3D

 30 32  0  0  0  0  0  0  0  0999 V2000
    7.0210   -3.3930   19.3840 C   0  0  0  0  0  0  0  0  0  0  0  0
    6.4020   -4.2670   20.3990 C   0  0  0  0  0  0  0  0  0  0  0  0
    5.4130   -4.9380   20.0090 O   0  0  0  0  0  0  0  0  0  0  0  0
    6.9290   -4.3840   21.7230 N   0  0  0  0  0  0  0  0  0  0  0  0
    6.5840   -5.5190   22.5190 C   0  0  0  0  0  0  0  0  0  0  0  0
    6.0720   -5.1680   23.8500 C   0  0  0  0  0  0  0  0  0  0  0  0
    5.9700   -3.7090   24.0410 C   0  0  0  0  0  0  0  0  0  0  0  0
    5.3120   -3.1910   25.3140 C   0  0  0  0  0  0  0  0  0  0  0  0
    4.6080   -2.1820   25.1870 O   0  0  0  0  0  0  0  0  0  0  0  0
    5.3880   -3.7170   26.6310 N   0  0  0  0  0  0  0  0  0  0  0  0
    4.3280   -3.7950   27.5460 C   0  0  0  0  0  0  0  0  0  0  0  0
    4.6820   -3.9400   28.9500 C   0  0  0  0  0  0  0  0  0  0  0  0
    5.8060   -4.5520   29.2980 N   0  0  0  0  0  0  0  0  0  0  0  0
    5.8190   -5.9450   29.5850 C   0  0  0  0  0  0  0  0  0  0  0  0
    6.1830   -6.3550   30.8500 O   0  0  0  0  0  0  0  0  0  0  0  0
    5.4610   -6.7950   28.5860 C   0  0  1  0  0  0  0  0  0  0  0  0
    5.3380   -7.9020   29.6150 C   0  0  0  0  0  0  0  0  0  0  0  0
    4.3660   -6.4140   28.1560 O   0  0  0  0  0  0  0  0  0  0  0  0
    3.2790   -7.1000   28.0760 C   0  0  0  0  0  0  0  0  0  0  0  0
    3.1150   -7.7350   26.7020 C   0  0  0  0  0  0  0  0  0  0  0  0
    1.9480   -8.5750   26.3580 C   0  0  0  0  0  0  0  0  0  0  0  0
    1.8130   -9.2000   24.9910 C   0  0  0  0  0  0  0  0  0  0  0  0
    0.9190   -8.7800   27.4200 C   0  0  0  0  0  0  0  0  0  0  0  0
    1.1570   -8.1220   28.7360 C   0  0  0  0  0  0  0  0  0  0  0  0
    2.2770   -7.3230   29.0520 C   0  0  0  0  0  0  0  0  0  0  0  0
    2.3730   -6.7730   30.3110 C   0  0  0  0  0  0  0  0  0  0  0  0
    6.7960   -4.3080   28.3430 C   0  0  0  0  0  0  0  0  0  0  0  0
    6.4700   -3.2850   27.4310 C   0  0  0  0  0  0  0  0  0  0  0  0
    7.3300   -3.1080   23.7670 C   0  0  0  0  0  0  0  0  0  0  0  0
    7.6710   -3.2720   22.2900 C   0  0  0  0  0  0  0  0  0  0  0  0
  1  2  1  0
  2  3  2  0
  2  4  1  0
  4  5  1  0
  5  6  1  0
  6  7  1  0
  7  8  1  0
  8  9  2  0
  8 10  1  0
 10 11  1  0
 11 12  1  0
 12 13  1  0
 13 14  1  0
 14 15  2  0
 14 16  1  0
 16 17  1  1
 16 18  1  0
 18 19  1  0
 19 20  2  0
 20 21  1  0
 21 22  1  0
 21 23  2  0
 23 24  1  0
 19 25  1  0
 24 25  2  0
 25 26  1  0
 13 27  1  0
 10 28  1  0
 27 28  1  0
  7 29  1  0
  4 30  1  0
 29 30  1  0
M  END
