piperidine-amides-17217-covalent
     RDKit          3D

 20 21  0  0  0  0  0  0  0  0999 V2000
    7.1330   -3.3430   19.2820 C   0  0  0  0  0  0  0  0  0  0  0  0
    6.3920   -4.1170   20.2860 C   0  0  0  0  0  0  0  0  0  0  0  0
    5.3190   -4.6570   19.9260 O   0  0  0  0  0  0  0  0  0  0  0  0
    6.9280   -4.2770   21.5800 N   0  0  0  0  0  0  0  0  0  0  0  0
    6.5960   -5.4410   22.3370 C   0  0  0  0  0  0  0  0  0  0  0  0
    6.1220   -5.1250   23.6780 C   0  0  0  0  0  0  0  0  0  0  0  0
    6.3000   -3.6970   23.9950 C   0  0  0  0  0  0  0  0  0  0  0  0
    5.8110   -3.2900   25.3490 C   0  0  0  0  0  0  0  0  0  0  0  0
    4.8350   -2.5210   25.3920 O   0  0  0  0  0  0  0  0  0  0  0  0
    6.3610   -3.7130   26.5760 N   0  0  0  0  0  0  0  0  0  0  0  0
    7.6790   -4.1370   26.8800 C   0  0  2  0  0  0  0  0  0  0  0  0
    8.5680   -4.7950   25.9140 C   0  0  0  0  0  0  0  0  0  0  0  0
    7.5930   -5.1480   27.9880 C   0  0  0  0  0  0  0  0  0  0  0  0
    6.7120   -4.9160   29.0370 C   0  0  0  0  0  0  0  0  0  0  0  0
    5.4660   -5.1860   28.2180 C   0  0  0  0  0  0  0  0  0  0  0  0
    5.5530   -3.7750   27.7650 C   0  0  2  0  0  0  0  0  0  0  0  0
    4.0470   -3.8730   27.4660 C   0  0  0  0  0  0  0  0  0  0  0  0
    3.1640   -2.8900   27.9280 O   0  0  0  0  0  0  0  0  0  0  0  0
    7.6670   -3.1870   23.6510 C   0  0  0  0  0  0  0  0  0  0  0  0
    7.7520   -3.2100   22.1430 C   0  0  0  0  0  0  0  0  0  0  0  0
  1  2  1  0
  2  3  2  0
  2  4  1  0
  4  5  1  0
  5  6  1  0
  6  7  1  0
  7  8  1  0
  8  9  2  0
  8 10  1  0
 10 11  1  0
 11 12  1  6
 11 13  1  0
 13 14  1  0
 14 15  1  0
 10 16  1  0
 15 16  1  0
 16 17  1  6
 17 18  1  0
  7 19  1  0
  4 20  1  0
 19 20  1  0
M  END
