piperidine-amides-15073-covalent
     RDKit          3D

 20 21  0  0  0  0  0  0  0  0999 V2000
    7.0740   -3.2760   19.2470 C   0  0  0  0  0  0  0  0  0  0  0  0
    6.3490   -4.0680   20.2440 C   0  0  0  0  0  0  0  0  0  0  0  0
    5.2810   -4.5960   19.8990 O   0  0  0  0  0  0  0  0  0  0  0  0
    6.8790   -4.2720   21.5430 N   0  0  0  0  0  0  0  0  0  0  0  0
    6.4860   -5.4360   22.2770 C   0  0  0  0  0  0  0  0  0  0  0  0
    5.5780   -5.0230   23.3980 C   0  0  0  0  0  0  0  0  0  0  0  0
    6.2880   -3.9070   24.1350 C   0  0  0  0  0  0  0  0  0  0  0  0
    5.3190   -3.2460   25.0780 C   0  0  0  0  0  0  0  0  0  0  0  0
    4.3400   -2.7260   24.5560 O   0  0  0  0  0  0  0  0  0  0  0  0
    5.5650   -3.2470   26.4480 N   0  0  0  0  0  0  0  0  0  0  0  0
    6.1640   -4.3370   27.1240 C   0  0  0  0  0  0  0  0  0  0  0  0
    7.5080   -4.1250   27.2880 C   0  0  0  0  0  0  0  0  0  0  0  0
    7.8480   -3.2190   28.2490 C   0  0  0  0  0  0  0  0  0  0  0  0
    7.8600   -1.8970   27.8700 C   0  0  0  0  0  0  0  0  0  0  0  0
    8.0550   -5.4480   27.7900 C   0  0  0  0  0  0  0  0  0  0  0  0
    9.1200   -5.9250   26.8410 C   0  0  0  0  0  0  0  0  0  0  0  0
    8.9810   -5.1450   25.6120 C   0  0  0  0  0  0  0  0  0  0  0  0
    8.1540   -3.9520   26.0460 C   0  0  0  0  0  0  0  0  0  0  0  0
    6.8710   -2.8280   23.3120 C   0  0  0  0  0  0  0  0  0  0  0  0
    7.6360   -3.2620   22.2530 C   0  0  0  0  0  0  0  0  0  0  0  0
  1  2  1  0
  2  3  2  0
  2  4  1  0
  4  5  1  0
  5  6  1  0
  6  7  1  0
  7  8  1  0
  8  9  2  0
  8 10  1  0
 10 11  1  0
 12 11  1  0
 12 13  1  0
 13 14  1  0
 12 15  1  0
 15 16  1  0
 16 17  1  0
 12 18  1  0
 17 18  1  0
  7 19  1  0
  4 20  1  0
 19 20  1  0
M  END
