piperidine-amides-9278-covalent
     RDKit          3D

 19 21  0  0  0  0  0  0  0  0999 V2000
    7.1290   -3.2850   19.2150 C   0  0  0  0  0  0  0  0  0  0  0  0
    6.3220   -3.9730   20.2290 C   0  0  0  0  0  0  0  0  0  0  0  0
    5.2780   -4.5530   19.8870 O   0  0  0  0  0  0  0  0  0  0  0  0
    6.7410   -4.0280   21.5660 N   0  0  0  0  0  0  0  0  0  0  0  0
    7.7560   -3.1200   22.0650 C   0  0  0  0  0  0  0  0  0  0  0  0
    7.4190   -2.8010   23.4890 C   0  0  0  0  0  0  0  0  0  0  0  0
    6.1630   -3.4690   23.9400 C   0  0  0  0  0  0  0  0  0  0  0  0
    5.8900   -3.1480   25.3590 C   0  0  0  0  0  0  0  0  0  0  0  0
    4.6970   -3.1290   25.7920 O   0  0  0  0  0  0  0  0  0  0  0  0
    6.9340   -2.8270   26.2680 N   0  0  0  0  0  0  0  0  0  0  0  0
    7.0600   -3.5140   27.5710 C   0  0  0  0  0  0  0  0  0  0  0  0
    7.1390   -4.9580   27.3010 C   0  0  0  0  0  0  0  0  0  0  0  0
    5.9360   -5.8020   27.4700 C   0  0  0  0  0  0  0  0  0  0  0  0
    5.8730   -6.3510   28.7470 C   0  0  0  0  0  0  0  0  0  0  0  0
    4.7280   -5.3680   28.3610 C   0  0  0  0  0  0  0  0  0  0  0  0
    8.4410   -5.6200   28.0260 C   0  0  0  0  0  0  0  0  0  0  0  0
    8.2280   -5.4110   26.7920 C   0  0  0  0  0  0  0  0  0  0  0  0
    6.2040   -4.9640   23.7250 C   0  0  0  0  0  0  0  0  0  0  0  0
    6.5840   -5.2770   22.2890 C   0  0  0  0  0  0  0  0  0  0  0  0
  1  2  1  0
  2  3  2  0
  2  4  1  0
  4  5  1  0
  5  6  1  0
  6  7  1  0
  7  8  1  0
  8  9  2  0
  8 10  1  0
 10 11  1  0
 12 11  1  0
 12 13  1  0
 13 14  1  0
 13 15  1  0
 14 15  1  0
 12 16  1  0
 12 17  1  0
 16 17  1  0
  7 18  1  0
  4 19  1  0
 18 19  1  0
M  END
