piperidine-amides-30642-covalent
     RDKit          3D

 26 28  0  0  0  0  0  0  0  0999 V2000
    7.0650   -3.3870   19.4390 C   0  0  0  0  0  0  0  0  0  0  0  0
    6.3810   -4.2510   20.3960 C   0  0  0  0  0  0  0  0  0  0  0  0
    5.3820   -4.8760   19.9990 O   0  0  0  0  0  0  0  0  0  0  0  0
    6.8500   -4.4490   21.7180 N   0  0  0  0  0  0  0  0  0  0  0  0
    6.6000   -5.6440   22.4650 C   0  0  0  0  0  0  0  0  0  0  0  0
    5.8280   -5.1880   23.6800 C   0  0  0  0  0  0  0  0  0  0  0  0
    6.2770   -3.8740   24.2840 C   0  0  0  0  0  0  0  0  0  0  0  0
    5.2090   -3.3210   25.1950 C   0  0  0  0  0  0  0  0  0  0  0  0
    4.0840   -3.0390   24.7080 O   0  0  0  0  0  0  0  0  0  0  0  0
    5.3280   -3.0720   26.5940 N   0  0  0  0  0  0  0  0  0  0  0  0
    4.3070   -3.3670   27.5810 C   0  0  0  0  0  0  0  0  0  0  0  0
    4.9840   -3.1050   28.8770 C   0  0  0  0  0  0  0  0  0  0  0  0
    5.5990   -4.2150   29.2660 N   0  0  0  0  0  0  0  0  0  0  0  0
    4.9220   -5.4090   29.5650 C   0  0  0  0  0  0  0  0  0  0  0  0
    5.2450   -6.7820   29.1400 C   0  0  0  0  0  0  0  0  0  0  0  0
    4.2300   -7.7290   29.7060 C   0  0  0  0  0  0  0  0  0  0  0  0
    3.1620   -7.0830   30.5420 C   0  0  0  0  0  0  0  0  0  0  0  0
    2.1640   -7.8210   31.1260 C   0  0  0  0  0  0  0  0  0  0  0  0
    1.7770   -7.3560   32.2520 O   0  0  0  0  0  0  0  0  0  0  0  0
    1.6270   -8.8500   30.6750 O   0  0  0  0  0  0  0  0  0  0  0  0
    1.4800   -8.9180   29.3020 C   0  0  0  0  0  0  0  0  0  0  0  0
    3.4970   -5.3770   30.5620 S   0  0  0  0  0  0  0  0  0  0  0  0
    6.5150   -4.1980   28.2560 C   0  0  0  0  0  0  0  0  0  0  0  0
    6.5690   -3.0280   27.2180 C   0  0  0  0  0  0  0  0  0  0  0  0
    6.6650   -2.8750   23.1610 C   0  0  0  0  0  0  0  0  0  0  0  0
    7.4990   -3.3480   22.4220 C   0  0  0  0  0  0  0  0  0  0  0  0
  1  2  1  0
  2  3  2  0
  2  4  1  0
  4  5  1  0
  5  6  1  0
  6  7  1  0
  7  8  1  0
  8  9  2  0
  8 10  1  0
 10 11  1  0
 11 12  1  0
 12 13  1  0
 13 14  1  0
 14 15  2  0
 15 16  1  0
 16 17  2  0
 17 18  1  0
 18 19  2  0
 18 20  1  0
 20 21  1  0
 14 22  1  0
 17 22  1  0
 13 23  1  0
 10 24  1  0
 23 24  1  0
  7 25  1  0
  4 26  1  0
 25 26  1  0
M  END
