piperidine-amides-3974-covalent
     RDKit          3D

 29 31  0  0  0  0  0  0  0  0999 V2000
    7.1230   -3.3220   19.3030 C   0  0  0  0  0  0  0  0  0  0  0  0
    6.3540   -4.1110   20.2780 C   0  0  0  0  0  0  0  0  0  0  0  0
    5.2610   -4.5810   19.8940 O   0  0  0  0  0  0  0  0  0  0  0  0
    6.8700   -4.3780   21.5680 N   0  0  0  0  0  0  0  0  0  0  0  0
    7.6520   -3.3500   22.1430 C   0  0  0  0  0  0  0  0  0  0  0  0
    7.4790   -3.2640   23.5720 C   0  0  0  0  0  0  0  0  0  0  0  0
    6.1050   -3.5530   23.9810 C   0  0  0  0  0  0  0  0  0  0  0  0
    5.8350   -3.0000   25.3450 C   0  0  0  0  0  0  0  0  0  0  0  0
    4.7270   -3.2070   25.8780 O   0  0  0  0  0  0  0  0  0  0  0  0
    6.8120   -2.2430   26.0300 N   0  0  0  0  0  0  0  0  0  0  0  0
    7.1700   -0.8610   25.9040 C   0  0  0  0  0  0  0  0  0  0  0  0
    7.3940   -0.1480   24.6240 C   0  0  0  0  0  0  0  0  0  0  0  0
    7.9090   -1.0070   23.4550 C   0  0  0  0  0  0  0  0  0  0  0  0
    8.1930   -0.5860   22.1450 C   0  0  0  0  0  0  0  0  0  0  0  0
    7.9200    0.9300   21.9870 C   0  0  0  0  0  0  0  0  0  0  0  0
    8.1410    1.5050   20.7270 O   0  0  0  0  0  0  0  0  0  0  0  0
    7.1750    0.9730   19.8590 C   0  0  0  0  0  0  0  0  0  0  0  0
    7.4110    1.7790   23.1870 C   0  0  0  0  0  0  0  0  0  0  0  0
    7.1720    3.2580   23.0110 C   0  0  0  0  0  0  0  0  0  0  0  0
    5.9440    3.7800   22.7570 O   0  0  0  0  0  0  0  0  0  0  0  0
    5.8230    5.0600   22.1520 C   0  0  0  0  0  0  0  0  0  0  0  0
    4.7610    5.9050   22.8640 C   0  0  0  0  0  0  0  0  0  0  0  0
    5.4620    6.9010   23.7220 C   0  0  0  0  0  0  0  0  0  0  0  0
    6.3100    7.7500   22.9870 O   0  0  0  0  0  0  0  0  0  0  0  0
    6.7730    7.1410   21.8190 C   0  0  0  0  0  0  0  0  0  0  0  0
    7.0940    5.8180   22.0410 C   0  0  0  0  0  0  0  0  0  0  0  0
    7.1750    1.2170   24.4180 C   0  0  0  0  0  0  0  0  0  0  0  0
    5.8340   -5.0120   23.7660 C   0  0  0  0  0  0  0  0  0  0  0  0
    6.3010   -5.4330   22.3660 C   0  0  0  0  0  0  0  0  0  0  0  0
  1  2  1  0
  2  3  2  0
  2  4  1  0
  4  5  1  0
  5  6  1  0
  6  7  1  0
  7  8  1  0
  8  9  2  0
  8 10  1  0
 10 11  1  0
 11 12  1  0
 12 13  2  0
 13 14  1  0
 14 15  2  0
 15 16  1  0
 16 17  1  0
 15 18  1  0
 18 19  1  0
 19 20  1  0
 20 21  1  0
 21 22  1  0
 22 23  1  0
 23 24  1  0
 24 25  1  0
 21 26  1  0
 25 26  1  0
 12 27  1  0
 18 27  2  0
  7 28  1  0
  4 29  1  0
 28 29  1  0
M  END
