piperidine-amides-21688-covalent
     RDKit          3D

 21 21  0  0  0  0  0  0  0  0999 V2000
    7.1140   -3.3070   19.2790 C   0  0  0  0  0  0  0  0  0  0  0  0
    6.3360   -4.0620   20.2610 C   0  0  0  0  0  0  0  0  0  0  0  0
    5.2380   -4.5290   19.8700 O   0  0  0  0  0  0  0  0  0  0  0  0
    6.8410   -4.2920   21.5430 N   0  0  0  0  0  0  0  0  0  0  0  0
    6.4820   -5.4660   22.2960 C   0  0  0  0  0  0  0  0  0  0  0  0
    5.7640   -5.0020   23.5300 C   0  0  0  0  0  0  0  0  0  0  0  0
    6.5410   -3.9400   24.2690 C   0  0  0  0  0  0  0  0  0  0  0  0
    5.7670   -3.4550   25.4410 C   0  0  0  0  0  0  0  0  0  0  0  0
    4.5330   -3.3120   25.2960 O   0  0  0  0  0  0  0  0  0  0  0  0
    6.3370   -3.1180   26.6930 N   0  0  0  0  0  0  0  0  0  0  0  0
    6.7210   -1.7370   26.8880 C   0  0  0  0  0  0  0  0  0  0  0  0
    6.1600   -3.9780   27.8680 C   0  0  0  0  0  0  0  0  0  0  0  0
    5.3720   -5.1060   27.6680 C   0  0  0  0  0  0  0  0  0  0  0  0
    4.0770   -4.8970   27.2490 C   0  0  0  0  0  0  0  0  0  0  0  0
    5.9640   -6.1120   26.9610 C   0  0  0  0  0  0  0  0  0  0  0  0
    4.9660   -5.9320   29.2040 S   0  0  0  0  0  0  0  0  0  0  0  0
    4.7060   -7.5420   28.7010 C   0  0  0  0  0  0  0  0  0  0  0  0
    3.7020   -5.4000   29.7750 O   0  0  0  0  0  0  0  0  0  0  0  0
    6.1110   -5.8850   30.1460 O   0  0  0  0  0  0  0  0  0  0  0  0
    6.8260   -2.7160   23.4110 C   0  0  0  0  0  0  0  0  0  0  0  0
    7.5560   -3.1860   22.1800 C   0  0  0  0  0  0  0  0  0  0  0  0
  1  2  1  0
  2  3  2  0
  2  4  1  0
  4  5  1  0
  5  6  1  0
  6  7  1  0
  7  8  1  0
  8  9  2  0
  8 10  1  0
 10 11  1  0
 10 12  1  0
 13 12  1  0
 13 14  1  0
 13 15  1  0
 13 16  1  0
 16 17  1  0
 16 18  2  0
 16 19  2  0
  7 20  1  0
  4 21  1  0
 20 21  1  0
M  END
