piperidine-amides-24351-covalent
     RDKit          3D

 24 25  0  0  0  0  0  0  0  0999 V2000
    7.1280   -3.2810   19.2520 C   0  0  0  0  0  0  0  0  0  0  0  0
    6.3930   -4.0800   20.2430 C   0  0  0  0  0  0  0  0  0  0  0  0
    5.3350   -4.6700   19.9300 O   0  0  0  0  0  0  0  0  0  0  0  0
    6.9070   -4.2350   21.5350 N   0  0  0  0  0  0  0  0  0  0  0  0
    7.6510   -3.1420   22.1150 C   0  0  0  0  0  0  0  0  0  0  0  0
    6.7670   -2.6020   23.2330 C   0  0  0  0  0  0  0  0  0  0  0  0
    6.5850   -3.7520   24.1960 C   0  0  0  0  0  0  0  0  0  0  0  0
    5.7950   -3.2860   25.3530 C   0  0  0  0  0  0  0  0  0  0  0  0
    4.5480   -3.3190   25.2590 O   0  0  0  0  0  0  0  0  0  0  0  0
    6.4530   -2.7900   26.5110 N   0  0  0  0  0  0  0  0  0  0  0  0
    6.8940   -1.4380   26.4870 C   0  0  0  0  0  0  0  0  0  0  0  0
    6.3470   -3.4260   27.8110 C   0  0  0  0  0  0  0  0  0  0  0  0
    5.1290   -4.0170   27.9010 C   0  0  0  0  0  0  0  0  0  0  0  0
    4.1220   -3.3980   28.6170 C   0  0  0  0  0  0  0  0  0  0  0  0
    3.0290   -4.2680   28.9780 N   0  0  0  0  0  0  0  0  0  0  0  0
    1.8450   -3.7930   29.5030 C   0  0  0  0  0  0  0  0  0  0  0  0
    3.2140   -5.6690   28.7400 C   0  0  0  0  0  0  0  0  0  0  0  0
    4.4160   -6.0570   27.9230 C   0  0  0  0  0  0  0  0  0  0  0  0
    5.1940   -5.9020   29.1250 C   0  0  0  0  0  0  0  0  0  0  0  0
    6.6060   -6.1860   28.8060 C   0  0  0  0  0  0  0  0  0  0  0  0
    6.1660   -6.4480   27.3650 C   0  0  0  0  0  0  0  0  0  0  0  0
    4.9420   -6.3730   26.9190 O   0  0  0  0  0  0  0  0  0  0  0  0
    5.8410   -4.8730   23.5170 C   0  0  0  0  0  0  0  0  0  0  0  0
    6.4110   -5.2890   22.3480 C   0  0  0  0  0  0  0  0  0  0  0  0
  1  2  1  0
  2  3  2  0
  2  4  1  0
  4  5  1  0
  5  6  1  0
  6  7  1  0
  7  8  1  0
  8  9  2  0
  8 10  1  0
 10 11  1  0
 10 12  1  0
 12 13  1  0
 13 14  1  0
 14 15  1  0
 15 16  1  0
 15 17  1  0
 17 18  1  0
 18 19  2  0
 19 20  1  0
 20 21  2  0
 18 22  1  0
 21 22  1  0
  7 23  1  0
  4 24  1  0
 23 24  1  0
M  END
