piperidine-amides-30334-covalent
     RDKit          3D

 27 29  0  0  0  0  0  0  0  0999 V2000
    7.0470   -3.3570   19.2860 C   0  0  0  0  0  0  0  0  0  0  0  0
    6.3760   -4.1910   20.2760 C   0  0  0  0  0  0  0  0  0  0  0  0
    5.3560   -4.8050   19.9680 O   0  0  0  0  0  0  0  0  0  0  0  0
    6.9330   -4.3510   21.5890 N   0  0  0  0  0  0  0  0  0  0  0  0
    7.6840   -3.2820   22.2000 C   0  0  0  0  0  0  0  0  0  0  0  0
    6.9220   -2.7290   23.3670 C   0  0  0  0  0  0  0  0  0  0  0  0
    6.6380   -3.8770   24.3100 C   0  0  0  0  0  0  0  0  0  0  0  0
    5.8310   -3.3850   25.4750 C   0  0  0  0  0  0  0  0  0  0  0  0
    4.9390   -2.5290   25.3390 O   0  0  0  0  0  0  0  0  0  0  0  0
    6.0630   -3.9170   26.7720 N   0  0  0  0  0  0  0  0  0  0  0  0
    5.8370   -5.3380   26.8750 C   0  0  0  0  0  0  0  0  0  0  0  0
    6.2080   -5.8300   28.2450 C   0  0  0  0  0  0  0  0  0  0  0  0
    5.7270   -5.1030   29.2710 C   0  0  0  0  0  0  0  0  0  0  0  0
    4.6000   -5.6560   29.9040 C   0  0  0  0  0  0  0  0  0  0  0  0
    4.7600   -6.4060   31.0630 C   0  0  0  0  0  0  0  0  0  0  0  0
    3.6870   -7.0410   31.6880 N   0  0  0  0  0  0  0  0  0  0  0  0
    4.2920   -7.6560   32.7870 C   0  0  0  0  0  0  0  0  0  0  0  0
    3.5290   -8.3910   33.6550 C   0  0  0  0  0  0  0  0  0  0  0  0
    4.0960   -9.4150   34.3880 C   0  0  0  0  0  0  0  0  0  0  0  0
    2.3680   -8.9410   32.8410 C   0  0  0  0  0  0  0  0  0  0  0  0
    2.8750   -7.4900   34.6520 C   0  0  0  0  0  0  0  0  0  0  0  0
    5.6200   -7.3720   32.7630 N   0  0  0  0  0  0  0  0  0  0  0  0
    5.8590   -6.5960   31.6750 O   0  0  0  0  0  0  0  0  0  0  0  0
    5.3020   -3.8340   28.9660 C   0  0  0  0  0  0  0  0  0  0  0  0
    6.1050   -3.1730   28.0350 C   0  0  0  0  0  0  0  0  0  0  0  0
    5.8530   -4.9840   23.6260 C   0  0  0  0  0  0  0  0  0  0  0  0
    6.6140   -5.4930   22.3940 C   0  0  0  0  0  0  0  0  0  0  0  0
  1  2  1  0
  2  3  2  0
  2  4  1  0
  4  5  1  0
  5  6  1  0
  6  7  1  0
  7  8  1  0
  8  9  2  0
  8 10  1  0
 10 11  1  0
 11 12  1  0
 12 13  1  0
 13 14  1  0
 14 15  1  0
 15 16  2  0
 16 17  1  0
 17 18  1  0
 18 19  1  0
 18 20  1  0
 18 21  1  0
 17 22  2  0
 15 23  1  0
 22 23  1  0
 13 24  1  0
 10 25  1  0
 24 25  1  0
  7 26  1  0
  4 27  1  0
 26 27  1  0
M  END
