piperidine-amides-6352-covalent
     RDKit          3D

 25 27  0  0  0  0  0  0  0  0999 V2000
    7.0480   -3.2470   19.2570 C   0  0  0  0  0  0  0  0  0  0  0  0
    6.2790   -4.0310   20.2470 C   0  0  0  0  0  0  0  0  0  0  0  0
    5.2480   -4.6360   19.8980 O   0  0  0  0  0  0  0  0  0  0  0  0
    6.6960   -4.1470   21.5750 N   0  0  0  0  0  0  0  0  0  0  0  0
    6.5410   -5.4270   22.2410 C   0  0  0  0  0  0  0  0  0  0  0  0
    6.2930   -5.1790   23.7390 C   0  0  0  0  0  0  0  0  0  0  0  0
    5.9010   -3.7300   23.9110 C   0  0  0  0  0  0  0  0  0  0  0  0
    5.4430   -3.4400   25.2930 C   0  0  0  0  0  0  0  0  0  0  0  0
    4.2130   -3.4520   25.4990 O   0  0  0  0  0  0  0  0  0  0  0  0
    6.3460   -3.1470   26.3490 N   0  0  0  0  0  0  0  0  0  0  0  0
    7.0810   -4.1690   27.0430 C   0  0  1  0  0  0  0  0  0  0  0  0
    6.4150   -5.5180   26.9270 C   0  0  0  0  0  0  0  0  0  0  0  0
    8.4040   -4.1420   26.4250 C   0  0  0  0  0  0  0  0  0  0  0  0
    9.2930   -5.2140   26.6150 N   0  0  0  0  0  0  0  0  0  0  0  0
   10.4480   -4.9000   25.9290 C   0  0  0  0  0  0  0  0  0  0  0  0
   10.1620   -3.6810   25.3870 C   0  0  0  0  0  0  0  0  0  0  0  0
   10.9190   -2.8540   24.6000 C   0  0  0  0  0  0  0  0  0  0  0  0
   10.3270   -2.0550   23.4540 C   0  0  0  0  0  0  0  0  0  0  0  0
   11.5080   -1.2910   22.8710 C   0  0  0  0  0  0  0  0  0  0  0  0
   12.9880   -1.1380   23.1160 C   0  0  0  0  0  0  0  0  0  0  0  0
   13.1660   -2.0320   24.2530 C   0  0  0  0  0  0  0  0  0  0  0  0
   12.2750   -2.8150   24.9460 C   0  0  0  0  0  0  0  0  0  0  0  0
    8.9370   -3.2410   25.6900 O   0  0  0  0  0  0  0  0  0  0  0  0
    7.1070   -2.8610   23.5820 C   0  0  0  0  0  0  0  0  0  0  0  0
    7.5480   -3.1410   22.1730 C   0  0  0  0  0  0  0  0  0  0  0  0
  1  2  1  0
  2  3  2  0
  2  4  1  0
  4  5  1  0
  5  6  1  0
  6  7  1  0
  7  8  1  0
  8  9  2  0
  8 10  1  0
 10 11  1  0
 11 12  1  6
 11 13  1  0
 13 14  2  0
 14 15  1  0
 15 16  2  0
 16 17  1  0
 17 18  2  0
 18 19  1  0
 19 20  2  0
 20 21  1  0
 17 22  1  0
 21 22  2  0
 13 23  1  0
 16 23  1  0
  7 24  1  0
  4 25  1  0
 24 25  1  0
M  END
