piperidine-amides-17226-covalent
     RDKit          3D

 20 21  0  0  0  0  0  0  0  0999 V2000
    7.0630   -3.4070   19.4320 C   0  0  0  0  0  0  0  0  0  0  0  0
    6.3940   -4.2620   20.4240 C   0  0  0  0  0  0  0  0  0  0  0  0
    5.4110   -4.9290   20.0070 O   0  0  0  0  0  0  0  0  0  0  0  0
    6.8790   -4.3590   21.7630 N   0  0  0  0  0  0  0  0  0  0  0  0
    6.4840   -5.4660   22.5760 C   0  0  0  0  0  0  0  0  0  0  0  0
    5.9710   -5.0660   23.8940 C   0  0  0  0  0  0  0  0  0  0  0  0
    6.0010   -3.6000   24.0720 C   0  0  0  0  0  0  0  0  0  0  0  0
    5.2810   -3.0230   25.2910 C   0  0  0  0  0  0  0  0  0  0  0  0
    4.6410   -1.9850   25.1040 O   0  0  0  0  0  0  0  0  0  0  0  0
    5.2370   -3.5320   26.6150 N   0  0  0  0  0  0  0  0  0  0  0  0
    4.9580   -2.8670   27.7960 C   0  0  0  0  0  0  0  0  0  0  0  0
    5.4580   -3.6530   28.9000 C   0  0  0  0  0  0  0  0  0  0  0  0
    5.6490   -5.0560   28.2620 C   0  0  2  0  0  0  0  0  0  0  0  0
    6.5350   -5.8660   28.9020 C   0  0  0  0  0  0  0  0  0  0  0  0
    5.3670   -6.2800   29.8040 C   0  0  0  0  0  0  0  0  0  0  0  0
    5.1160   -7.4780   28.9460 C   0  0  0  0  0  0  0  0  0  0  0  0
    3.7880   -7.8830   29.1000 O   0  0  0  0  0  0  0  0  0  0  0  0
    6.1700   -4.4600   27.0200 C   0  0  0  0  0  0  0  0  0  0  0  0
    7.3630   -3.0220   23.7970 C   0  0  0  0  0  0  0  0  0  0  0  0
    7.7000   -3.2910   22.3310 C   0  0  0  0  0  0  0  0  0  0  0  0
  1  2  1  0
  2  3  2  0
  2  4  1  0
  4  5  1  0
  5  6  1  0
  6  7  1  0
  7  8  1  0
  8  9  2  0
  8 10  1  0
 10 11  1  0
 11 12  1  0
 12 13  1  0
 13 14  1  1
 14 15  1  0
 15 16  1  0
 16 17  1  0
 10 18  1  0
 13 18  1  0
  7 19  1  0
  4 20  1  0
 19 20  1  0
M  END
