piperidine-amides-17078-covalent
     RDKit          3D

 20 22  0  0  0  0  0  0  0  0999 V2000
    7.1020   -3.3410   19.2480 C   0  0  0  0  0  0  0  0  0  0  0  0
    6.4350   -4.1480   20.2790 C   0  0  0  0  0  0  0  0  0  0  0  0
    5.3700   -4.7290   19.9550 O   0  0  0  0  0  0  0  0  0  0  0  0
    7.0190   -4.3010   21.5570 N   0  0  0  0  0  0  0  0  0  0  0  0
    6.6970   -5.4580   22.3250 C   0  0  0  0  0  0  0  0  0  0  0  0
    6.2400   -5.1280   23.6650 C   0  0  0  0  0  0  0  0  0  0  0  0
    6.1820   -3.6700   23.8810 C   0  0  0  0  0  0  0  0  0  0  0  0
    5.5790   -3.2900   25.1910 C   0  0  0  0  0  0  0  0  0  0  0  0
    4.3840   -2.9340   25.2090 O   0  0  0  0  0  0  0  0  0  0  0  0
    6.2710   -3.3100   26.4050 N   0  0  0  0  0  0  0  0  0  0  0  0
    7.5690   -3.7880   26.6210 C   0  0  0  0  0  0  0  0  0  0  0  0
    7.6120   -4.9160   27.4960 C   0  0  2  0  0  0  0  0  0  0  0  0
    6.4840   -5.7960   27.0200 C   0  0  0  0  0  0  0  0  0  0  0  0
    5.4370   -5.8660   27.9100 C   0  0  2  0  0  0  0  0  0  0  0  0
    4.2780   -6.0810   27.1990 F   0  0  0  0  0  0  0  0  0  0  0  0
    5.5920   -4.4570   28.5490 C   0  0  1  0  0  0  0  0  0  0  0  0
    7.0540   -4.5860   28.7850 C   0  0  0  0  0  0  0  0  0  0  0  0
    5.4390   -3.2540   27.5720 C   0  0  0  0  0  0  0  0  0  0  0  0
    7.4770   -2.9760   23.5870 C   0  0  0  0  0  0  0  0  0  0  0  0
    7.8010   -3.2080   22.1270 C   0  0  0  0  0  0  0  0  0  0  0  0
  1  2  1  0
  2  3  2  0
  2  4  1  0
  4  5  1  0
  5  6  1  0
  6  7  1  0
  7  8  1  0
  8  9  2  0
  8 10  1  0
 10 11  1  0
 12 11  1  6
 12 13  1  0
 13 14  1  0
 14 15  1  6
 14 16  1  0
 12 17  1  0
 16 17  1  0
 10 18  1  0
 16 18  1  6
  7 19  1  0
  4 20  1  0
 19 20  1  0
M  END
