piperidine-amides-24692-covalent
     RDKit          3D

 24 26  0  0  0  0  0  0  0  0999 V2000
    7.0530   -3.3490   19.4050 C   0  0  0  0  0  0  0  0  0  0  0  0
    6.4020   -4.2520   20.3660 C   0  0  0  0  0  0  0  0  0  0  0  0
    5.4040   -4.9150   20.0000 O   0  0  0  0  0  0  0  0  0  0  0  0
    6.9100   -4.4240   21.6690 N   0  0  0  0  0  0  0  0  0  0  0  0
    6.6430   -5.6790   22.3500 C   0  0  0  0  0  0  0  0  0  0  0  0
    6.2770   -5.3610   23.8120 C   0  0  0  0  0  0  0  0  0  0  0  0
    6.0100   -3.8810   23.8350 C   0  0  0  0  0  0  0  0  0  0  0  0
    5.3100   -3.4060   25.0510 C   0  0  0  0  0  0  0  0  0  0  0  0
    4.3670   -2.6200   24.8570 O   0  0  0  0  0  0  0  0  0  0  0  0
    5.6180   -3.7730   26.3760 N   0  0  0  0  0  0  0  0  0  0  0  0
    4.4490   -4.0660   27.1770 C   0  0  0  0  0  0  0  0  0  0  0  0
    4.7880   -4.5730   28.5680 C   0  0  0  0  0  0  0  0  0  0  0  0
    5.8020   -3.9740   29.2020 C   0  0  0  0  0  0  0  0  0  0  0  0
    5.4010   -2.7390   29.7900 N   0  0  0  0  0  0  0  0  0  0  0  0
    4.0630   -2.6640   30.2200 C   0  0  0  0  0  0  0  0  0  0  0  0
    3.9680   -1.6210   31.1540 C   0  0  0  0  0  0  0  0  0  0  0  0
    3.7830   -0.3670   30.6300 C   0  0  0  0  0  0  0  0  0  0  0  0
    4.6360    0.1520   29.7250 O   0  0  0  0  0  0  0  0  0  0  0  0
    5.5830   -0.4640   28.9730 C   0  0  0  0  0  0  0  0  0  0  0  0
    6.2730   -1.6030   29.6870 C   0  0  0  0  0  0  0  0  0  0  0  0
    6.7710   -3.9220   28.3430 C   0  0  0  0  0  0  0  0  0  0  0  0
    6.4620   -3.0260   27.2320 C   0  0  0  0  0  0  0  0  0  0  0  0
    7.2940   -3.1620   23.5910 C   0  0  0  0  0  0  0  0  0  0  0  0
    7.6490   -3.3530   22.2900 C   0  0  0  0  0  0  0  0  0  0  0  0
  1  2  1  0
  2  3  2  0
  2  4  1  0
  4  5  1  0
  5  6  1  0
  6  7  1  0
  7  8  1  0
  8  9  2  0
  8 10  1  0
 10 11  1  0
 11 12  1  0
 12 13  1  0
 13 14  1  0
 14 15  1  0
 15 16  1  0
 16 17  1  0
 17 18  1  0
 18 19  1  0
 14 20  1  0
 19 20  1  0
 13 21  1  0
 10 22  1  0
 21 22  1  0
  7 23  1  0
  4 24  1  0
 23 24  1  0
M  END
