piperidine-amides-4998-covalent
     RDKit          3D

 23 25  0  0  0  0  0  0  0  0999 V2000
    7.0840   -3.2730   19.2420 C   0  0  0  0  0  0  0  0  0  0  0  0
    6.3420   -4.0640   20.2510 C   0  0  0  0  0  0  0  0  0  0  0  0
    5.2700   -4.5750   19.8840 O   0  0  0  0  0  0  0  0  0  0  0  0
    6.8590   -4.2590   21.5390 N   0  0  0  0  0  0  0  0  0  0  0  0
    7.4750   -3.1730   22.2120 C   0  0  0  0  0  0  0  0  0  0  0  0
    6.8180   -2.8140   23.4690 C   0  0  0  0  0  0  0  0  0  0  0  0
    6.4160   -3.9770   24.3020 C   0  0  0  0  0  0  0  0  0  0  0  0
    5.5250   -3.5450   25.4210 C   0  0  0  0  0  0  0  0  0  0  0  0
    4.6540   -2.6890   25.1770 O   0  0  0  0  0  0  0  0  0  0  0  0
    5.6380   -4.1050   26.7200 N   0  0  0  0  0  0  0  0  0  0  0  0
    5.6320   -3.3030   27.9730 C   0  0  0  0  0  0  0  0  0  0  0  0
    6.7410   -2.3340   27.9370 C   0  0  0  0  0  0  0  0  0  0  0  0
    7.6910   -2.7320   26.9430 C   0  0  0  0  0  0  0  0  0  0  0  0
    8.0370   -1.9440   25.8970 C   0  0  0  0  0  0  0  0  0  0  0  0
    8.9430   -2.3370   24.9400 C   0  0  0  0  0  0  0  0  0  0  0  0
    9.4970   -3.5680   25.0480 C   0  0  0  0  0  0  0  0  0  0  0  0
    9.1240   -4.3450   26.1030 C   0  0  0  0  0  0  0  0  0  0  0  0
    9.7670   -5.9210   26.2810 Cl  0  0  0  0  0  0  0  0  0  0  0  0
    8.2510   -3.9530   27.0400 C   0  0  0  0  0  0  0  0  0  0  0  0
    7.1770   -1.5630   29.1700 C   0  0  0  0  0  0  0  0  0  0  0  0
    6.5520   -0.9700   28.1770 C   0  0  0  0  0  0  0  0  0  0  0  0
    5.7320   -5.0400   23.5120 C   0  0  0  0  0  0  0  0  0  0  0  0
    6.5430   -5.4450   22.3090 C   0  0  0  0  0  0  0  0  0  0  0  0
  1  2  1  0
  2  3  2  0
  2  4  1  0
  4  5  1  0
  5  6  1  0
  6  7  1  0
  7  8  1  0
  8  9  2  0
  8 10  1  0
 10 11  1  0
 12 11  1  0
 12 13  1  0
 13 14  2  0
 14 15  1  0
 15 16  2  0
 16 17  1  0
 17 18  1  0
 13 19  1  0
 17 19  2  0
 12 20  1  0
 12 21  1  0
 20 21  1  0
  7 22  1  0
  4 23  1  0
 22 23  1  0
M  END
