piperidine-amides-4562-covalent
     RDKit          3D

 25 27  0  0  0  0  0  0  0  0999 V2000
    7.0710   -3.3360   19.2470 C   0  0  0  0  0  0  0  0  0  0  0  0
    6.3870   -4.1430   20.2830 C   0  0  0  0  0  0  0  0  0  0  0  0
    5.3310   -4.7090   19.9380 O   0  0  0  0  0  0  0  0  0  0  0  0
    6.9420   -4.2990   21.5580 N   0  0  0  0  0  0  0  0  0  0  0  0
    6.5350   -5.3930   22.3760 C   0  0  0  0  0  0  0  0  0  0  0  0
    5.9870   -4.9910   23.6770 C   0  0  0  0  0  0  0  0  0  0  0  0
    6.5720   -3.7590   24.2620 C   0  0  0  0  0  0  0  0  0  0  0  0
    5.7400   -3.2480   25.3790 C   0  0  0  0  0  0  0  0  0  0  0  0
    4.5530   -2.9560   25.1370 O   0  0  0  0  0  0  0  0  0  0  0  0
    6.2570   -3.0960   26.6800 N   0  0  0  0  0  0  0  0  0  0  0  0
    6.4250   -1.7800   27.3360 C   0  0  0  0  0  0  0  0  0  0  0  0
    5.7010   -0.6360   26.8510 C   0  0  0  0  0  0  0  0  0  0  0  0
    5.8150    0.6930   27.4550 C   0  0  0  0  0  0  0  0  0  0  0  0
    6.5880    1.1830   28.5520 C   0  0  0  0  0  0  0  0  0  0  0  0
    7.3500    1.3400   29.5190 O   0  0  0  0  0  0  0  0  0  0  0  0
    6.8180    1.0400   30.6710 C   0  0  0  0  0  0  0  0  0  0  0  0
    7.3950    0.4590   31.7650 C   0  0  0  0  0  0  0  0  0  0  0  0
    6.6640    0.2250   32.8970 C   0  0  0  0  0  0  0  0  0  0  0  0
    5.3390    0.5400   33.0210 C   0  0  0  0  0  0  0  0  0  0  0  0
    4.7040    1.1330   31.9320 C   0  0  0  0  0  0  0  0  0  0  0  0
    5.4950    1.3860   30.7160 C   0  0  0  0  0  0  0  0  0  0  0  0
    7.1770   -0.0940   28.8320 N   0  0  0  0  0  0  0  0  0  0  0  0
    7.1610   -1.4260   28.3600 C   0  0  0  0  0  0  0  0  0  0  0  0
    6.8400   -2.7050   23.1930 C   0  0  0  0  0  0  0  0  0  0  0  0
    7.6750   -3.2280   22.1970 C   0  0  0  0  0  0  0  0  0  0  0  0
  1  2  1  0
  2  3  2  0
  2  4  1  0
  4  5  1  0
  5  6  1  0
  6  7  1  0
  7  8  1  0
  8  9  2  0
  8 10  1  0
 10 11  1  0
 11 12  2  0
 12 13  1  0
 13 14  2  0
 14 15  1  0
 15 16  1  0
 16 17  2  0
 17 18  1  0
 18 19  2  0
 19 20  1  0
 16 21  1  0
 20 21  2  0
 14 22  1  0
 11 23  1  0
 22 23  2  0
  7 24  1  0
  4 25  1  0
 24 25  1  0
M  END
