piperidine-amides-30433-covalent
     RDKit          3D

 26 28  0  0  0  0  0  0  0  0999 V2000
    7.0170   -3.3790   19.4330 C   0  0  0  0  0  0  0  0  0  0  0  0
    6.3710   -4.2630   20.4110 C   0  0  0  0  0  0  0  0  0  0  0  0
    5.4210   -4.9580   20.0130 O   0  0  0  0  0  0  0  0  0  0  0  0
    6.8180   -4.3730   21.7520 N   0  0  0  0  0  0  0  0  0  0  0  0
    6.6260   -5.6010   22.5210 C   0  0  0  0  0  0  0  0  0  0  0  0
    6.0790   -5.2350   23.8970 C   0  0  0  0  0  0  0  0  0  0  0  0
    6.0070   -3.7500   24.0840 C   0  0  0  0  0  0  0  0  0  0  0  0
    5.5340   -3.2220   25.4160 C   0  0  0  0  0  0  0  0  0  0  0  0
    5.1790   -2.0160   25.4670 O   0  0  0  0  0  0  0  0  0  0  0  0
    5.3820   -3.9100   26.6660 N   0  0  0  0  0  0  0  0  0  0  0  0
    4.0640   -3.9710   27.2870 C   0  0  0  0  0  0  0  0  0  0  0  0
    4.3050   -4.0660   28.7570 C   0  0  0  0  0  0  0  0  0  0  0  0
    5.2790   -4.9590   28.9320 N   0  0  0  0  0  0  0  0  0  0  0  0
    5.0490   -6.3510   28.8170 C   0  0  0  0  0  0  0  0  0  0  0  0
    5.7130   -7.0290   29.9770 C   0  0  0  0  0  0  0  0  0  0  0  0
    4.7290   -7.4140   31.0600 C   0  0  0  0  0  0  0  0  0  0  0  0
    3.3680   -7.8550   30.6250 C   0  0  0  0  0  0  0  0  0  0  0  0
    2.4480   -8.2200   31.5710 C   0  0  0  0  0  0  0  0  0  0  0  0
    2.6660   -8.2200   32.9440 C   0  0  0  0  0  0  0  0  0  0  0  0
    3.9880   -7.7990   33.5340 C   0  0  0  0  0  0  0  0  0  0  0  0
    4.2160   -7.8150   35.2760 Cl  0  0  0  0  0  0  0  0  0  0  0  0
    5.0760   -7.3740   32.5410 C   0  0  0  0  0  0  0  0  0  0  0  0
    6.4850   -4.6470   28.2660 C   0  0  0  0  0  0  0  0  0  0  0  0
    6.3450   -3.6070   27.6490 C   0  0  0  0  0  0  0  0  0  0  0  0
    7.2210   -3.0270   23.6540 C   0  0  0  0  0  0  0  0  0  0  0  0
    7.6100   -3.3440   22.3720 C   0  0  0  0  0  0  0  0  0  0  0  0
  1  2  1  0
  2  3  2  0
  2  4  1  0
  4  5  1  0
  5  6  1  0
  6  7  1  0
  7  8  1  0
  8  9  2  0
  8 10  1  0
 10 11  1  0
 11 12  1  0
 12 13  1  0
 13 14  1  0
 14 15  1  0
 15 16  1  0
 16 17  2  0
 17 18  1  0
 18 19  2  0
 19 20  1  0
 20 21  1  0
 16 22  1  0
 20 22  2  0
 13 23  1  0
 10 24  1  0
 23 24  1  0
  7 25  1  0
  4 26  1  0
 25 26  1  0
M  END
