piperidine-amides-27481-covalent
     RDKit          3D

 26 29  0  0  0  0  0  0  0  0999 V2000
    7.1480   -3.3080   19.2260 C   0  0  0  0  0  0  0  0  0  0  0  0
    6.4030   -4.0480   20.2450 C   0  0  0  0  0  0  0  0  0  0  0  0
    5.3010   -4.5370   19.8890 O   0  0  0  0  0  0  0  0  0  0  0  0
    6.9540   -4.2310   21.5160 N   0  0  0  0  0  0  0  0  0  0  0  0
    6.5850   -5.3460   22.3410 C   0  0  0  0  0  0  0  0  0  0  0  0
    5.8000   -4.8030   23.5040 C   0  0  0  0  0  0  0  0  0  0  0  0
    6.4730   -3.6410   24.2100 C   0  0  0  0  0  0  0  0  0  0  0  0
    5.5180   -3.0030   25.1400 C   0  0  0  0  0  0  0  0  0  0  0  0
    4.3850   -3.5140   25.2480 O   0  0  0  0  0  0  0  0  0  0  0  0
    5.8040   -1.8580   25.9090 N   0  0  0  0  0  0  0  0  0  0  0  0
    4.7820   -1.2530   26.6380 C   0  0  0  0  0  0  0  0  0  0  0  0
    5.7230   -1.6370   27.7270 C   0  0  0  0  0  0  0  0  0  0  0  0
    5.4070   -2.4370   28.8120 C   0  0  0  0  0  0  0  0  0  0  0  0
    5.5880   -1.3490   29.6050 C   0  0  0  0  0  0  0  0  0  0  0  0
    5.4450   -1.3890   30.9000 O   0  0  0  0  0  0  0  0  0  0  0  0
    5.9030   -0.4830   28.6500 N   0  0  0  0  0  0  0  0  0  0  0  0
    5.3270    0.7090   28.5160 C   0  0  0  0  0  0  0  0  0  0  0  0
    4.0090    0.7000   28.9360 C   0  0  0  0  0  0  0  0  0  0  0  0
    3.6630    0.7710   30.2970 C   0  0  0  0  0  0  0  0  0  0  0  0
    2.2980    0.7760   30.9690 C   0  0  0  0  0  0  0  0  0  0  0  0
    1.1780    0.6860   29.9630 C   0  0  0  0  0  0  0  0  0  0  0  0
    1.4510    0.6090   28.5060 C   0  0  0  0  0  0  0  0  0  0  0  0
    2.8490    0.6100   27.9380 C   0  0  0  0  0  0  0  0  0  0  0  0
    6.7100   -2.0380   27.0180 C   0  0  0  0  0  0  0  0  0  0  0  0
    6.9370   -2.5950   23.2160 C   0  0  0  0  0  0  0  0  0  0  0  0
    7.7910   -3.2370   22.1500 C   0  0  0  0  0  0  0  0  0  0  0  0
  1  2  1  0
  2  3  2  0
  2  4  1  0
  4  5  1  0
  5  6  1  0
  6  7  1  0
  7  8  1  0
  8  9  2  0
  8 10  1  0
 10 11  1  0
 11 12  1  0
 12 13  1  0
 13 14  1  0
 14 15  2  0
 12 16  1  0
 14 16  1  0
 16 17  1  0
 17 18  1  0
 18 19  2  0
 19 20  1  0
 20 21  2  0
 21 22  1  0
 18 23  1  0
 22 23  2  0
 10 24  1  0
 12 24  1  0
  7 25  1  0
  4 26  1  0
 25 26  1  0
M  END
