piperidine-amides-25191-covalent
     RDKit          3D

 25 28  0  0  0  0  0  0  0  0999 V2000
    7.0290   -3.3480   19.3190 C   0  0  0  0  0  0  0  0  0  0  0  0
    6.3820   -4.2000   20.3580 C   0  0  0  0  0  0  0  0  0  0  0  0
    5.4090   -4.8620   19.9910 O   0  0  0  0  0  0  0  0  0  0  0  0
    6.8990   -4.2570   21.6630 N   0  0  0  0  0  0  0  0  0  0  0  0
    6.7090   -5.4180   22.5140 C   0  0  0  0  0  0  0  0  0  0  0  0
    6.1730   -5.0080   23.8680 C   0  0  0  0  0  0  0  0  0  0  0  0
    6.3220   -3.4960   24.0650 C   0  0  0  0  0  0  0  0  0  0  0  0
    5.9840   -3.0730   25.4480 C   0  0  0  0  0  0  0  0  0  0  0  0
    5.4630   -1.9720   25.6160 O   0  0  0  0  0  0  0  0  0  0  0  0
    6.1790   -3.9080   26.5580 N   0  0  0  0  0  0  0  0  0  0  0  0
    5.2130   -4.9480   26.5760 C   0  0  0  0  0  0  0  0  0  0  0  0
    4.6390   -4.6600   27.8820 C   0  0  0  0  0  0  0  0  0  0  0  0
    5.4730   -3.9560   28.6250 C   0  0  1  0  0  0  0  0  0  0  0  0
    6.4760   -3.4240   27.9020 C   0  0  0  0  0  0  0  0  0  0  0  0
    4.5900   -3.1000   29.5140 C   0  0  0  0  0  0  0  0  0  0  0  0
    4.5050   -1.7460   29.4280 O   0  0  0  0  0  0  0  0  0  0  0  0
    3.9020   -3.7880   30.4150 N   0  0  0  0  0  0  0  0  0  0  0  0
    4.6040   -5.1090   30.3860 C   0  0  0  0  0  0  0  0  0  0  0  0
    4.3220   -6.2010   31.3880 C   0  0  0  0  0  0  0  0  0  0  0  0
    5.1010   -7.5140   31.2920 C   0  0  0  0  0  0  0  0  0  0  0  0
    6.1070   -7.6010   30.1750 C   0  0  0  0  0  0  0  0  0  0  0  0
    6.3620   -6.5170   29.2130 C   0  0  0  0  0  0  0  0  0  0  0  0
    5.6160   -5.2500   29.2960 C   0  0  0  0  0  0  0  0  0  0  0  0
    7.7120   -3.0930   23.6610 C   0  0  0  0  0  0  0  0  0  0  0  0
    7.7650   -3.1970   22.1690 C   0  0  0  0  0  0  0  0  0  0  0  0
  1  2  1  0
  2  3  2  0
  2  4  1  0
  4  5  1  0
  5  6  1  0
  6  7  1  0
  7  8  1  0
  8  9  2  0
  8 10  1  0
 10 11  1  0
 11 12  1  0
 13 12  1  6
 10 14  1  0
 13 14  1  0
 13 15  1  0
 15 16  2  0
 15 17  1  0
 17 18  1  0
 18 19  1  0
 19 20  2  0
 20 21  1  0
 21 22  2  0
 13 23  1  0
 18 23  2  0
 22 23  1  0
  7 24  1  0
  4 25  1  0
 24 25  1  0
M  END
