piperidine-amides-32966-covalent
     RDKit          3D

 28 29  0  0  0  0  0  0  0  0999 V2000
    7.0790   -3.3020   19.2580 C   0  0  0  0  0  0  0  0  0  0  0  0
    6.3550   -4.1200   20.2680 C   0  0  0  0  0  0  0  0  0  0  0  0
    5.3150   -4.7140   19.9390 O   0  0  0  0  0  0  0  0  0  0  0  0
    6.8940   -4.2460   21.5600 N   0  0  0  0  0  0  0  0  0  0  0  0
    7.7580   -3.2530   22.1620 C   0  0  0  0  0  0  0  0  0  0  0  0
    7.0270   -2.6790   23.3700 C   0  0  0  0  0  0  0  0  0  0  0  0
    6.7600   -3.8110   24.3010 C   0  0  0  0  0  0  0  0  0  0  0  0
    6.0010   -3.3740   25.4870 C   0  0  0  0  0  0  0  0  0  0  0  0
    4.7660   -3.3980   25.3810 O   0  0  0  0  0  0  0  0  0  0  0  0
    6.6550   -2.9330   26.6590 N   0  0  0  0  0  0  0  0  0  0  0  0
    7.4050   -3.7950   27.5230 C   0  0  0  0  0  0  0  0  0  0  0  0
    7.9600   -5.0040   27.1750 C   0  0  0  0  0  0  0  0  0  0  0  0
    8.7860   -4.9550   26.0960 F   0  0  0  0  0  0  0  0  0  0  0  0
    7.0510   -5.9860   26.9510 F   0  0  0  0  0  0  0  0  0  0  0  0
    6.1600   -1.8630   27.4660 C   0  0  1  0  0  0  0  0  0  0  0  0
    6.9770   -1.6440   28.5610 C   0  0  0  0  0  0  0  0  0  0  0  0
    6.7440   -0.2620   29.0290 C   0  0  0  0  0  0  0  0  0  0  0  0
    6.2740    0.3350   27.8440 N   0  0  0  0  0  0  0  0  0  0  0  0
    5.2580    1.3550   27.9190 C   0  0  0  0  0  0  0  0  0  0  0  0
    4.5710    1.9530   26.8700 O   0  0  0  0  0  0  0  0  0  0  0  0
    4.8910    1.8290   29.1680 O   0  0  0  0  0  0  0  0  0  0  0  0
    3.5830    1.6090   29.7150 C   0  0  0  0  0  0  0  0  0  0  0  0
    2.6470    2.5640   29.3740 C   0  0  0  0  0  0  0  0  0  0  0  0
    3.0630    0.2930   29.2720 C   0  0  0  0  0  0  0  0  0  0  0  0
    3.7270    1.5780   31.2360 C   0  0  0  0  0  0  0  0  0  0  0  0
    6.0120   -0.5810   26.8990 C   0  0  0  0  0  0  0  0  0  0  0  0
    5.9890   -4.9510   23.6870 C   0  0  0  0  0  0  0  0  0  0  0  0
    6.5670   -5.4060   22.3680 C   0  0  0  0  0  0  0  0  0  0  0  0
  1  2  1  0
  2  3  2  0
  2  4  1  0
  4  5  1  0
  5  6  1  0
  6  7  1  0
  7  8  1  0
  8  9  2  0
  8 10  1  0
 10 11  1  0
 11 12  1  0
 12 13  1  0
 12 14  1  0
 15 10  1  6
 15 16  1  0
 16 17  1  0
 17 18  1  0
 18 19  1  0
 19 20  2  0
 19 21  1  0
 22 21  1  0
 22 23  1  0
 22 24  1  0
 22 25  1  0
 15 26  1  0
 18 26  1  0
  7 27  1  0
  4 28  1  0
 27 28  1  0
M  END
