piperidine-amides-6590-covalent
     RDKit          3D

 24 25  0  0  0  0  0  0  0  0999 V2000
    7.1050   -3.2910   19.2400 C   0  0  0  0  0  0  0  0  0  0  0  0
    6.3990   -4.1010   20.2450 C   0  0  0  0  0  0  0  0  0  0  0  0
    5.3450   -4.7030   19.9410 O   0  0  0  0  0  0  0  0  0  0  0  0
    6.9240   -4.2590   21.5330 N   0  0  0  0  0  0  0  0  0  0  0  0
    7.7500   -3.2360   22.1290 C   0  0  0  0  0  0  0  0  0  0  0  0
    6.9260   -2.6230   23.2520 C   0  0  0  0  0  0  0  0  0  0  0  0
    6.6120   -3.7400   24.2250 C   0  0  0  0  0  0  0  0  0  0  0  0
    5.7250   -3.2060   25.2730 C   0  0  0  0  0  0  0  0  0  0  0  0
    4.4880   -3.2360   25.0630 O   0  0  0  0  0  0  0  0  0  0  0  0
    6.2460   -2.6640   26.4730 N   0  0  0  0  0  0  0  0  0  0  0  0
    7.6500   -2.4640   26.6860 C   0  0  0  0  0  0  0  0  0  0  0  0
    7.8050   -1.8860   28.0910 C   0  0  1  0  0  0  0  0  0  0  0  0
    8.1520   -0.5700   28.1930 C   0  0  0  0  0  0  0  0  0  0  0  0
    8.7980   -0.1790   29.3400 C   0  0  0  0  0  0  0  0  0  0  0  0
    6.6000   -2.0610   28.8850 C   0  0  0  0  0  0  0  0  0  0  0  0
    6.2000   -3.3540   28.9710 C   0  0  0  0  0  0  0  0  0  0  0  0
    4.9680   -3.9290   29.6240 C   0  0  0  0  0  0  0  0  0  0  0  0
    5.2140   -5.4180   29.3130 C   0  0  0  0  0  0  0  0  0  0  0  0
    6.1760   -6.3790   28.6380 C   0  0  0  0  0  0  0  0  0  0  0  0
    7.1790   -5.4410   28.1490 C   0  0  0  0  0  0  0  0  0  0  0  0
    8.7080   -6.0240   27.1550 Br  0  0  0  0  0  0  0  0  0  0  0  0
    7.1420   -4.1150   28.3300 C   0  0  0  0  0  0  0  0  0  0  0  0
    5.7990   -4.8280   23.5040 C   0  0  0  0  0  0  0  0  0  0  0  0
    6.5580   -5.3970   22.3300 C   0  0  0  0  0  0  0  0  0  0  0  0
  1  2  1  0
  2  3  2  0
  2  4  1  0
  4  5  1  0
  5  6  1  0
  6  7  1  0
  7  8  1  0
  8  9  2  0
  8 10  1  0
 10 11  1  0
 12 11  1  6
 12 13  1  0
 13 14  1  0
 12 15  1  0
 15 16  1  0
 16 17  2  0
 17 18  1  0
 18 19  2  0
 19 20  1  0
 20 21  1  0
 16 22  1  0
 20 22  2  0
  7 23  1  0
  4 24  1  0
 23 24  1  0
M  END
