piperidine-amides-11458-covalent
     RDKit          3D

 25 27  0  0  0  0  0  0  0  0999 V2000
    7.1220   -3.3110   19.2880 C   0  0  0  0  0  0  0  0  0  0  0  0
    6.3360   -4.0630   20.2660 C   0  0  0  0  0  0  0  0  0  0  0  0
    5.2730   -4.5860   19.9000 O   0  0  0  0  0  0  0  0  0  0  0  0
    6.7830   -4.2520   21.5840 N   0  0  0  0  0  0  0  0  0  0  0  0
    6.6030   -5.4980   22.2910 C   0  0  0  0  0  0  0  0  0  0  0  0
    6.0370   -5.0860   23.6190 C   0  0  0  0  0  0  0  0  0  0  0  0
    6.1130   -3.5970   23.7710 C   0  0  0  0  0  0  0  0  0  0  0  0
    5.6860   -3.1050   25.1000 C   0  0  0  0  0  0  0  0  0  0  0  0
    4.7980   -2.2130   25.1930 O   0  0  0  0  0  0  0  0  0  0  0  0
    6.2050   -3.6000   26.3050 N   0  0  0  0  0  0  0  0  0  0  0  0
    5.7640   -4.9330   26.7610 C   0  0  0  0  0  0  0  0  0  0  0  0
    6.0860   -5.0730   28.1860 C   0  0  0  0  0  0  0  0  0  0  0  0
    4.9210   -5.1170   28.8540 N   0  0  0  0  0  0  0  0  0  0  0  0
    4.1980   -6.2530   29.2590 C   0  0  0  0  0  0  0  0  0  0  0  0
    4.6570   -7.6570   28.9840 C   0  0  0  0  0  0  0  0  0  0  0  0
    3.0760   -5.9560   29.9020 N   0  0  0  0  0  0  0  0  0  0  0  0
    2.8830   -4.6470   30.0230 C   0  0  0  0  0  0  0  0  0  0  0  0
    1.8410   -3.7340   30.6270 C   0  0  0  0  0  0  0  0  0  0  0  0
    1.9280   -2.3530   30.5860 C   0  0  0  0  0  0  0  0  0  0  0  0
    0.6310   -1.4400   31.3310 Cl  0  0  0  0  0  0  0  0  0  0  0  0
    3.0050   -1.7290   29.9730 C   0  0  0  0  0  0  0  0  0  0  0  0
    4.1110   -2.4910   29.3350 C   0  0  0  0  0  0  0  0  0  0  0  0
    4.0960   -4.0120   29.3330 C   0  0  0  0  0  0  0  0  0  0  0  0
    7.5350   -3.1810   23.3750 C   0  0  0  0  0  0  0  0  0  0  0  0
    7.5860   -3.1620   22.1670 C   0  0  0  0  0  0  0  0  0  0  0  0
  1  2  1  0
  2  3  2  0
  2  4  1  0
  4  5  1  0
  5  6  1  0
  6  7  1  0
  7  8  1  0
  8  9  2  0
  8 10  1  0
 10 11  1  0
 11 12  1  0
 12 13  1  0
 13 14  1  0
 14 15  1  0
 14 16  2  0
 16 17  1  0
 17 18  1  0
 18 19  2  0
 19 20  1  0
 19 21  1  0
 21 22  2  0
 13 23  1  0
 17 23  2  0
 22 23  1  0
  7 24  1  0
  4 25  1  0
 24 25  1  0
M  END
