piperidine-amides-9334-covalent
     RDKit          3D

 19 19  0  0  0  0  0  0  0  0999 V2000
    7.1250   -3.2800   19.2210 C   0  0  0  0  0  0  0  0  0  0  0  0
    6.3160   -3.9750   20.2240 C   0  0  0  0  0  0  0  0  0  0  0  0
    5.2680   -4.5400   19.8810 O   0  0  0  0  0  0  0  0  0  0  0  0
    6.7430   -4.0530   21.5580 N   0  0  0  0  0  0  0  0  0  0  0  0
    7.6680   -3.0890   22.1070 C   0  0  0  0  0  0  0  0  0  0  0  0
    7.2840   -2.9240   23.5480 C   0  0  0  0  0  0  0  0  0  0  0  0
    5.9600   -3.5690   23.8350 C   0  0  0  0  0  0  0  0  0  0  0  0
    5.4620   -3.3370   25.2120 C   0  0  0  0  0  0  0  0  0  0  0  0
    4.3050   -2.8570   25.3910 O   0  0  0  0  0  0  0  0  0  0  0  0
    6.2060   -3.6160   26.3740 N   0  0  0  0  0  0  0  0  0  0  0  0
    6.7590   -4.9640   26.6080 C   0  0  2  0  0  0  0  0  0  0  0  0
    6.0280   -5.6090   27.7170 C   0  0  0  0  0  0  0  0  0  0  0  0
    5.5550   -6.7610   27.5310 O   0  0  0  0  0  0  0  0  0  0  0  0
    8.1750   -4.7800   27.0770 C   0  0  0  0  0  0  0  0  0  0  0  0
    8.8670   -4.5100   25.7620 C   0  0  0  0  0  0  0  0  0  0  0  0
    8.7430   -5.9660   27.7520 C   0  0  0  0  0  0  0  0  0  0  0  0
    8.1880   -3.5980   28.0810 C   0  0  0  0  0  0  0  0  0  0  0  0
    6.0230   -5.0520   23.5130 C   0  0  0  0  0  0  0  0  0  0  0  0
    6.5630   -5.3110   22.2470 C   0  0  0  0  0  0  0  0  0  0  0  0
  1  2  1  0
  2  3  2  0
  2  4  1  0
  4  5  1  0
  5  6  1  0
  6  7  1  0
  7  8  1  0
  8  9  2  0
  8 10  1  0
 10 11  1  0
 11 12  1  1
 12 13  1  0
 11 14  1  0
 14 15  1  0
 14 16  1  0
 14 17  1  0
  7 18  1  0
  4 19  1  0
 18 19  1  0
M  END
