piperidine-amides-33364-covalent
     RDKit          3D

 28 29  0  0  0  0  0  0  0  0999 V2000
    7.1410   -3.2810   19.1690 C   0  0  0  0  0  0  0  0  0  0  0  0
    6.3230   -3.9700   20.1770 C   0  0  0  0  0  0  0  0  0  0  0  0
    5.2120   -4.4100   19.8190 O   0  0  0  0  0  0  0  0  0  0  0  0
    6.8120   -4.1840   21.4820 N   0  0  0  0  0  0  0  0  0  0  0  0
    7.5770   -3.1560   22.0850 C   0  0  0  0  0  0  0  0  0  0  0  0
    7.3640   -3.0050   23.5110 C   0  0  0  0  0  0  0  0  0  0  0  0
    6.6800   -4.1230   24.1990 C   0  0  0  0  0  0  0  0  0  0  0  0
    5.6840   -3.5730   25.1510 C   0  0  0  0  0  0  0  0  0  0  0  0
    4.7150   -2.9250   24.7120 O   0  0  0  0  0  0  0  0  0  0  0  0
    5.7790   -3.7440   26.5300 N   0  0  0  0  0  0  0  0  0  0  0  0
    5.1160   -2.8520   27.4020 C   0  0  0  0  0  0  0  0  0  0  0  0
    5.0300   -3.1570   28.8110 C   0  0  1  0  0  0  0  0  0  0  0  0
    5.9740   -3.8680   29.2520 O   0  0  0  0  0  0  0  0  0  0  0  0
    5.0580   -1.8100   29.5580 C   0  0  0  0  0  0  0  0  0  0  0  0
    5.0350   -1.7370   30.8060 O   0  0  0  0  0  0  0  0  0  0  0  0
    5.0030   -0.6320   31.5470 C   0  0  0  0  0  0  0  0  0  0  0  0
    6.1020    0.3790   31.1270 C   0  0  0  0  0  0  0  0  0  0  0  0
    6.1000    1.6630   31.9550 C   0  0  0  0  0  0  0  0  0  0  0  0
    5.0130    1.7020   33.0420 C   0  0  0  0  0  0  0  0  0  0  0  0
    3.9710    0.7050   33.4190 C   0  0  0  0  0  0  0  0  0  0  0  0
    4.0890   -0.4830   32.5360 C   0  0  0  0  0  0  0  0  0  0  0  0
    3.1210   -1.9340   32.5480 S   0  0  0  0  0  0  0  0  0  0  0  0
    2.7710   -2.3770   34.2220 C   0  0  0  0  0  0  0  0  0  0  0  0
    6.4380   -4.9550   27.0360 C   0  0  0  0  0  0  0  0  0  0  0  0
    5.4220   -5.8780   27.1450 C   0  0  0  0  0  0  0  0  0  0  0  0
    7.4650   -5.3130   26.2020 C   0  0  0  0  0  0  0  0  0  0  0  0
    5.9070   -5.0620   23.3190 C   0  0  0  0  0  0  0  0  0  0  0  0
    6.6100   -5.4120   22.1830 C   0  0  0  0  0  0  0  0  0  0  0  0
  1  2  1  0
  2  3  2  0
  2  4  1  0
  4  5  1  0
  5  6  1  0
  6  7  1  0
  7  8  1  0
  8  9  2  0
  8 10  1  0
 10 11  1  0
 11 12  1  0
 12 13  1  1
 12 14  1  0
 14 15  1  0
 15 16  1  0
 16 17  2  0
 17 18  1  0
 18 19  2  0
 19 20  1  0
 16 21  1  0
 20 21  2  0
 21 22  1  0
 22 23  1  0
 10 24  1  0
 24 25  1  0
 24 26  1  0
  7 27  1  0
  4 28  1  0
 27 28  1  0
M  END
