piperidine-amides-26990-covalent
     RDKit          3D

 25 26  0  0  0  0  0  0  0  0999 V2000
    7.0020   -3.3940   19.4410 C   0  0  0  0  0  0  0  0  0  0  0  0
    6.3910   -4.2880   20.4320 C   0  0  0  0  0  0  0  0  0  0  0  0
    5.4120   -4.9640   20.0100 O   0  0  0  0  0  0  0  0  0  0  0  0
    6.8990   -4.4010   21.7450 N   0  0  0  0  0  0  0  0  0  0  0  0
    6.6360   -5.5740   22.5650 C   0  0  0  0  0  0  0  0  0  0  0  0
    6.0620   -5.1640   23.9190 C   0  0  0  0  0  0  0  0  0  0  0  0
    5.9620   -3.6690   24.0440 C   0  0  0  0  0  0  0  0  0  0  0  0
    5.3450   -3.1460   25.3140 C   0  0  0  0  0  0  0  0  0  0  0  0
    4.7360   -2.0730   25.1850 O   0  0  0  0  0  0  0  0  0  0  0  0
    5.3380   -3.6910   26.6310 N   0  0  0  0  0  0  0  0  0  0  0  0
    6.4590   -3.4980   27.4410 C   0  0  0  0  0  0  0  0  0  0  0  0
    6.6430   -4.7330   28.3380 C   0  0  0  0  0  0  0  0  0  0  0  0
    5.3790   -4.8820   29.0430 N   0  0  0  0  0  0  0  0  0  0  0  0
    4.7280   -6.0130   28.8720 C   0  0  0  0  0  0  0  0  0  0  0  0
    4.0430   -6.3620   27.6800 O   0  0  0  0  0  0  0  0  0  0  0  0
    4.6970   -6.9280   29.8800 C   0  0  0  0  0  0  0  0  0  0  0  0
    3.6000   -7.7680   29.8650 C   0  0  0  0  0  0  0  0  0  0  0  0
    5.9310   -7.7790   29.9050 C   0  0  0  0  0  0  0  0  0  0  0  0
    4.6460   -6.3360   31.2720 C   0  0  0  0  0  0  0  0  0  0  0  0
    4.5700   -3.8480   28.9410 C   0  0  0  0  0  0  0  0  0  0  0  0
    4.2210   -3.5080   27.4850 C   0  0  0  0  0  0  0  0  0  0  0  0
    3.1040   -4.3530   26.9080 C   0  0  0  0  0  0  0  0  0  0  0  0
    3.5910   -2.0660   27.3310 C   0  0  0  0  0  0  0  0  0  0  0  0
    7.2460   -3.0040   23.7260 C   0  0  0  0  0  0  0  0  0  0  0  0
    7.6700   -3.3130   22.3070 C   0  0  0  0  0  0  0  0  0  0  0  0
  1  2  1  0
  2  3  2  0
  2  4  1  0
  4  5  1  0
  5  6  1  0
  6  7  1  0
  7  8  1  0
  8  9  2  0
  8 10  1  0
 10 11  1  0
 11 12  1  0
 12 13  1  0
 13 14  1  0
 14 15  2  0
 16 14  1  0
 16 17  1  0
 16 18  1  0
 16 19  1  0
 13 20  1  0
 10 21  1  0
 20 21  1  0
 21 22  1  0
 21 23  1  0
  7 24  1  0
  4 25  1  0
 24 25  1  0
M  END
