piperidine-amides-31383-covalent
     RDKit          3D

 27 29  0  0  0  0  0  0  0  0999 V2000
    6.9870   -3.4080   19.4080 C   0  0  0  0  0  0  0  0  0  0  0  0
    6.3520   -4.2150   20.4330 C   0  0  0  0  0  0  0  0  0  0  0  0
    5.4240   -4.9830   20.0220 O   0  0  0  0  0  0  0  0  0  0  0  0
    6.7150   -4.2320   21.8160 N   0  0  0  0  0  0  0  0  0  0  0  0
    7.6450   -3.1560   22.3080 C   0  0  0  0  0  0  0  0  0  0  0  0
    7.3110   -3.0160   23.8600 C   0  0  0  0  0  0  0  0  0  0  0  0
    5.9890   -3.7050   24.0140 C   0  0  0  0  0  0  0  0  0  0  0  0
    4.9350   -3.2440   25.1660 C   0  0  0  0  0  0  0  0  0  0  0  0
    3.8700   -3.0920   24.6050 O   0  0  0  0  0  0  0  0  0  0  0  0
    5.3660   -3.1280   26.3760 N   0  0  0  0  0  0  0  0  0  0  0  0
    5.5520   -2.6670   27.6560 C   0  0  0  0  0  0  0  0  0  0  0  0
    5.5800   -3.2040   28.9290 C   0  0  0  0  0  0  0  0  0  0  0  0
    5.0580   -4.5580   28.8320 N   0  0  0  0  0  0  0  0  0  0  0  0
    4.8400   -5.3760   29.8790 C   0  0  0  0  0  0  0  0  0  0  0  0
    3.7090   -4.9470   30.6960 C   0  0  0  0  0  0  0  0  0  0  0  0
    3.6440   -6.0080   31.8250 C   0  0  0  0  0  0  0  0  0  0  0  0
    2.5400   -5.4750   32.5070 C   0  0  0  0  0  0  0  0  0  0  0  0
    2.4780   -6.1290   33.7280 F   0  0  0  0  0  0  0  0  0  0  0  0
    2.6960   -4.1150   32.8170 F   0  0  0  0  0  0  0  0  0  0  0  0
    1.3740   -5.6800   31.8330 F   0  0  0  0  0  0  0  0  0  0  0  0
    4.4750   -7.0740   31.9680 N   0  0  0  0  0  0  0  0  0  0  0  0
    5.5560   -7.2880   30.9900 C   0  0  0  0  0  0  0  0  0  0  0  0
    5.6720   -6.3920   29.9740 N   0  0  0  0  0  0  0  0  0  0  0  0
    5.9320   -5.2630   27.9490 C   0  0  0  0  0  0  0  0  0  0  0  0
    6.1160   -4.1950   26.8270 C   0  0  0  0  0  0  0  0  0  0  0  0
    6.1530   -5.2180   23.8160 C   0  0  0  0  0  0  0  0  0  0  0  0
    6.6540   -5.4880   22.5590 C   0  0  0  0  0  0  0  0  0  0  0  0
  1  2  1  0
  2  3  2  0
  2  4  1  0
  4  5  1  0
  5  6  1  0
  6  7  1  0
  7  8  1  0
  8  9  2  0
  8 10  1  0
 10 11  1  0
 11 12  1  0
 12 13  1  0
 13 14  1  0
 14 15  2  0
 15 16  1  0
 16 17  1  0
 17 18  1  0
 17 19  1  0
 17 20  1  0
 16 21  2  0
 21 22  1  0
 14 23  1  0
 22 23  2  0
 13 24  1  0
 10 25  1  0
 24 25  1  0
  7 26  1  0
  4 27  1  0
 26 27  1  0
M  END
