piperidine-amides-14380-covalent
     RDKit          3D

 23 25  0  0  0  0  0  0  0  0999 V2000
    7.0350   -3.3340   19.3430 C   0  0  0  0  0  0  0  0  0  0  0  0
    6.3670   -4.1860   20.3280 C   0  0  0  0  0  0  0  0  0  0  0  0
    5.3510   -4.8040   19.9670 O   0  0  0  0  0  0  0  0  0  0  0  0
    6.8980   -4.3300   21.6400 N   0  0  0  0  0  0  0  0  0  0  0  0
    7.5830   -3.2290   22.2410 C   0  0  0  0  0  0  0  0  0  0  0  0
    6.7570   -2.7190   23.3790 C   0  0  0  0  0  0  0  0  0  0  0  0
    6.4140   -3.9140   24.2490 C   0  0  0  0  0  0  0  0  0  0  0  0
    5.4810   -3.5020   25.3660 C   0  0  0  0  0  0  0  0  0  0  0  0
    4.5000   -2.8520   25.0090 O   0  0  0  0  0  0  0  0  0  0  0  0
    5.7600   -3.8650   26.6980 N   0  0  0  0  0  0  0  0  0  0  0  0
    5.4480   -3.0290   27.8320 C   0  0  0  0  0  0  0  0  0  0  0  0
    6.2930   -1.9260   27.9070 C   0  0  0  0  0  0  0  0  0  0  0  0
    7.2580   -2.2260   27.0420 C   0  0  0  0  0  0  0  0  0  0  0  0
    7.5810   -1.7560   25.7780 C   0  0  0  0  0  0  0  0  0  0  0  0
    8.7360   -2.5180   25.2670 C   0  0  0  0  0  0  0  0  0  0  0  0
    9.1900   -3.5520   26.2840 C   0  0  0  0  0  0  0  0  0  0  0  0
   10.6240   -4.7170   25.9520 Br  0  0  0  0  0  0  0  0  0  0  0  0
    8.2240   -3.4840   27.6900 S   0  0  0  0  0  0  0  0  0  0  0  0
    6.7020   -1.5530   29.1890 C   0  0  0  0  0  0  0  0  0  0  0  0
    6.0680   -0.2030   29.1200 C   0  0  0  0  0  0  0  0  0  0  0  0
    5.6610   -0.6950   27.7320 C   0  0  0  0  0  0  0  0  0  0  0  0
    5.6320   -4.9010   23.3920 C   0  0  0  0  0  0  0  0  0  0  0  0
    6.5290   -5.4420   22.4840 C   0  0  0  0  0  0  0  0  0  0  0  0
  1  2  1  0
  2  3  2  0
  2  4  1  0
  4  5  1  0
  5  6  1  0
  6  7  1  0
  7  8  1  0
  8  9  2  0
  8 10  1  0
 10 11  1  0
 12 11  1  0
 12 13  1  0
 13 14  2  0
 14 15  1  0
 15 16  2  0
 16 17  1  0
 13 18  1  0
 16 18  1  0
 12 19  1  0
 19 20  1  0
 12 21  1  0
 20 21  1  0
  7 22  1  0
  4 23  1  0
 22 23  1  0
M  END
