piperidine-amides-23424-covalent
     RDKit          3D

 24 25  0  0  0  0  0  0  0  0999 V2000
    7.1020   -3.2550   19.2220 C   0  0  0  0  0  0  0  0  0  0  0  0
    6.3550   -4.0220   20.2300 C   0  0  0  0  0  0  0  0  0  0  0  0
    5.2690   -4.5310   19.8690 O   0  0  0  0  0  0  0  0  0  0  0  0
    6.8550   -4.2310   21.5350 N   0  0  0  0  0  0  0  0  0  0  0  0
    7.5950   -3.1800   22.1530 C   0  0  0  0  0  0  0  0  0  0  0  0
    7.3050   -2.9550   23.5630 C   0  0  0  0  0  0  0  0  0  0  0  0
    6.5080   -4.0080   24.2180 C   0  0  0  0  0  0  0  0  0  0  0  0
    5.7480   -3.4550   25.3920 C   0  0  0  0  0  0  0  0  0  0  0  0
    4.5070   -3.5680   25.4330 O   0  0  0  0  0  0  0  0  0  0  0  0
    6.4070   -2.7840   26.4450 N   0  0  0  0  0  0  0  0  0  0  0  0
    6.8750   -1.4580   26.4010 C   0  0  0  0  0  0  0  0  0  0  0  0
    6.1630   -3.2640   27.7950 C   0  0  0  0  0  0  0  0  0  0  0  0
    5.9160   -2.1960   28.8800 C   0  0  0  0  0  0  0  0  0  0  0  0
    4.6200   -1.8980   29.2850 C   0  0  0  0  0  0  0  0  0  0  0  0
    4.4600   -0.7980   30.3940 C   0  0  0  0  0  0  0  0  0  0  0  0
    5.7260   -0.1530   30.9310 C   0  0  0  0  0  0  0  0  0  0  0  0
    5.5180    0.8140   31.9180 O   0  0  0  0  0  0  0  0  0  0  0  0
    5.5400    2.1430   31.6100 C   0  0  0  0  0  0  0  0  0  0  0  0
    4.6360    3.1960   32.2070 C   0  0  0  0  0  0  0  0  0  0  0  0
    3.4400    2.6310   32.9520 C   0  0  0  0  0  0  0  0  0  0  0  0
    7.0500   -0.6280   30.3460 C   0  0  0  0  0  0  0  0  0  0  0  0
    7.0660   -1.6510   29.3250 C   0  0  0  0  0  0  0  0  0  0  0  0
    5.6170   -4.7580   23.2900 C   0  0  0  0  0  0  0  0  0  0  0  0
    6.3810   -5.3410   22.2990 C   0  0  0  0  0  0  0  0  0  0  0  0
  1  2  1  0
  2  3  2  0
  2  4  1  0
  4  5  1  0
  5  6  1  0
  6  7  1  0
  7  8  1  0
  8  9  2  0
  8 10  1  0
 10 11  1  0
 10 12  1  0
 12 13  1  0
 13 14  2  0
 14 15  1  0
 15 16  2  0
 16 17  1  0
 17 18  1  0
 18 19  1  0
 19 20  2  3
 16 21  1  0
 13 22  1  0
 21 22  2  0
  7 23  1  0
  4 24  1  0
 23 24  1  0
M  END
