piperidine-amides-24659-covalent
     RDKit          3D

 23 25  0  0  0  0  0  0  0  0999 V2000
    7.0560   -3.3400   19.3890 C   0  0  0  0  0  0  0  0  0  0  0  0
    6.4010   -4.2370   20.3530 C   0  0  0  0  0  0  0  0  0  0  0  0
    5.4030   -4.9020   19.9960 O   0  0  0  0  0  0  0  0  0  0  0  0
    6.9100   -4.3860   21.6560 N   0  0  0  0  0  0  0  0  0  0  0  0
    6.5400   -5.5380   22.4340 C   0  0  0  0  0  0  0  0  0  0  0  0
    5.5750   -5.0190   23.5080 C   0  0  0  0  0  0  0  0  0  0  0  0
    6.3100   -3.9620   24.3190 C   0  0  0  0  0  0  0  0  0  0  0  0
    5.3730   -3.3860   25.3280 C   0  0  0  0  0  0  0  0  0  0  0  0
    4.5800   -2.5180   24.9180 O   0  0  0  0  0  0  0  0  0  0  0  0
    5.3330   -3.7790   26.7030 N   0  0  0  0  0  0  0  0  0  0  0  0
    6.3920   -3.4500   27.5370 C   0  0  0  0  0  0  0  0  0  0  0  0
    6.6170   -4.6640   28.4360 C   0  0  0  0  0  0  0  0  0  0  0  0
    5.4010   -4.6990   29.2000 N   0  0  0  0  0  0  0  0  0  0  0  0
    4.7040   -5.8860   29.6690 C   0  0  0  0  0  0  0  0  0  0  0  0
    4.3160   -6.9560   28.9520 N   0  0  0  0  0  0  0  0  0  0  0  0
    3.6490   -7.9870   29.5650 N   0  0  0  0  0  0  0  0  0  0  0  0
    3.4900   -7.7020   30.9250 C   0  0  0  0  0  0  0  0  0  0  0  0
    2.9060   -8.3620   32.0040 C   0  0  0  0  0  0  0  0  0  0  0  0
    4.2150   -6.1410   31.2930 S   0  0  0  0  0  0  0  0  0  0  0  0
    4.3880   -3.7690   28.8960 C   0  0  0  0  0  0  0  0  0  0  0  0
    4.0650   -3.6340   27.4120 C   0  0  0  0  0  0  0  0  0  0  0  0
    6.9190   -2.8730   23.4850 C   0  0  0  0  0  0  0  0  0  0  0  0
    7.7060   -3.3720   22.3180 C   0  0  0  0  0  0  0  0  0  0  0  0
  1  2  1  0
  2  3  2  0
  2  4  1  0
  4  5  1  0
  5  6  1  0
  6  7  1  0
  7  8  1  0
  8  9  2  0
  8 10  1  0
 10 11  1  0
 11 12  1  0
 12 13  1  0
 13 14  1  0
 14 15  2  0
 15 16  1  0
 16 17  2  0
 17 18  1  0
 14 19  1  0
 17 19  1  0
 13 20  1  0
 10 21  1  0
 20 21  1  0
  7 22  1  0
  4 23  1  0
 22 23  1  0
M  END
