piperidine-amides-2831-covalent
     RDKit          3D

 24 26  0  0  0  0  0  0  0  0999 V2000
    7.0610   -3.2790   19.1730 C   0  0  0  0  0  0  0  0  0  0  0  0
    6.2830   -4.0280   20.1600 C   0  0  0  0  0  0  0  0  0  0  0  0
    5.2050   -4.5190   19.8540 O   0  0  0  0  0  0  0  0  0  0  0  0
    6.7890   -4.2510   21.4740 N   0  0  0  0  0  0  0  0  0  0  0  0
    6.4920   -5.4870   22.1600 C   0  0  0  0  0  0  0  0  0  0  0  0
    5.8750   -5.2650   23.5260 C   0  0  0  0  0  0  0  0  0  0  0  0
    5.9300   -3.7900   23.9110 C   0  0  0  0  0  0  0  0  0  0  0  0
    5.5840   -3.6170   25.3520 C   0  0  0  0  0  0  0  0  0  0  0  0
    4.9530   -2.6210   25.7640 O   0  0  0  0  0  0  0  0  0  0  0  0
    5.9580   -4.6220   26.2840 N   0  0  0  0  0  0  0  0  0  0  0  0
    7.2190   -4.5300   26.9760 C   0  0  0  0  0  0  0  0  0  0  0  0
    8.0360   -3.5610   26.1900 C   0  0  0  0  0  0  0  0  0  0  0  0
    7.6020   -2.3420   25.7330 N   0  0  0  0  0  0  0  0  0  0  0  0
    8.6180   -1.8310   25.1090 N   0  0  0  0  0  0  0  0  0  0  0  0
    9.7250   -2.7010   25.1480 C   0  0  0  0  0  0  0  0  0  0  0  0
   10.8830   -2.2930   24.5180 C   0  0  0  0  0  0  0  0  0  0  0  0
   10.7470   -1.2690   23.6020 C   0  0  0  0  0  0  0  0  0  0  0  0
   11.8630   -0.7670   22.8850 C   0  0  0  0  0  0  0  0  0  0  0  0
   13.0740   -1.2690   23.0710 C   0  0  0  0  0  0  0  0  0  0  0  0
   13.2900   -2.2860   23.9640 C   0  0  0  0  0  0  0  0  0  0  0  0
   12.1390   -2.8090   24.7180 N   0  0  0  0  0  0  0  0  0  0  0  0
    9.3380   -3.7770   25.8320 N   0  0  0  0  0  0  0  0  0  0  0  0
    7.1510   -3.0600   23.4970 C   0  0  0  0  0  0  0  0  0  0  0  0
    7.5000   -3.2080   22.1040 C   0  0  0  0  0  0  0  0  0  0  0  0
  1  2  1  0
  2  3  2  0
  2  4  1  0
  4  5  1  0
  5  6  1  0
  6  7  1  0
  7  8  1  0
  8  9  2  0
  8 10  1  0
 10 11  1  0
 11 12  1  0
 12 13  2  0
 13 14  1  0
 14 15  2  0
 15 16  1  0
 16 17  2  0
 17 18  1  0
 18 19  2  0
 19 20  1  0
 16 21  1  0
 20 21  2  0
 12 22  1  0
 15 22  1  0
  7 23  1  0
  4 24  1  0
 23 24  1  0
M  END
