piperidine-amides-28671-covalent
     RDKit          3D

 26 28  0  0  0  0  0  0  0  0999 V2000
    7.0010   -3.3420   19.4340 C   0  0  0  0  0  0  0  0  0  0  0  0
    6.3690   -4.2130   20.4240 C   0  0  0  0  0  0  0  0  0  0  0  0
    5.4380   -4.9370   20.0110 O   0  0  0  0  0  0  0  0  0  0  0  0
    6.8140   -4.2590   21.7850 N   0  0  0  0  0  0  0  0  0  0  0  0
    6.6120   -5.4820   22.5210 C   0  0  0  0  0  0  0  0  0  0  0  0
    6.1970   -5.2040   23.9500 C   0  0  0  0  0  0  0  0  0  0  0  0
    5.9070   -3.7220   24.0870 C   0  0  0  0  0  0  0  0  0  0  0  0
    4.9870   -3.3840   25.2740 C   0  0  0  0  0  0  0  0  0  0  0  0
    3.8190   -3.5890   25.0020 O   0  0  0  0  0  0  0  0  0  0  0  0
    5.3450   -2.8850   26.5540 N   0  0  0  0  0  0  0  0  0  0  0  0
    4.3730   -2.7340   27.5860 C   0  0  0  0  0  0  0  0  0  0  0  0
    4.7270   -3.2210   28.8660 C   0  0  0  0  0  0  0  0  0  0  0  0
    5.2060   -4.5750   28.6170 N   0  0  0  0  0  0  0  0  0  0  0  0
    4.5080   -5.7950   28.4770 C   0  0  0  0  0  0  0  0  0  0  0  0
    3.3580   -5.5860   27.7540 O   0  0  0  0  0  0  0  0  0  0  0  0
    5.0050   -6.9610   29.0310 C   0  0  0  0  0  0  0  0  0  0  0  0
    4.3880   -6.9530   30.3970 C   0  0  0  0  0  0  0  0  0  0  0  0
    3.0630   -7.7750   30.4060 C   0  0  0  0  0  0  0  0  0  0  0  0
    2.6320   -8.0720   31.8010 C   0  0  0  0  0  0  0  0  0  0  0  0
    3.2550   -7.0490   32.6940 C   0  0  0  0  0  0  0  0  0  0  0  0
    4.7530   -7.3720   32.6920 C   0  0  0  0  0  0  0  0  0  0  0  0
    5.3820   -7.3370   31.4800 C   0  0  0  0  0  0  0  0  0  0  0  0
    6.4260   -4.4870   27.9330 C   0  0  0  0  0  0  0  0  0  0  0  0
    6.5750   -3.2310   27.0690 C   0  0  0  0  0  0  0  0  0  0  0  0
    7.2180   -2.9620   23.8680 C   0  0  0  0  0  0  0  0  0  0  0  0
    7.5820   -3.1940   22.3990 C   0  0  0  0  0  0  0  0  0  0  0  0
  1  2  1  0
  2  3  2  0
  2  4  1  0
  4  5  1  0
  5  6  1  0
  6  7  1  0
  7  8  1  0
  8  9  2  0
  8 10  1  0
 10 11  1  0
 11 12  1  0
 12 13  1  0
 13 14  1  0
 14 15  2  0
 14 16  1  0
 16 17  1  0
 17 18  1  0
 18 19  1  0
 19 20  1  0
 20 21  1  0
 17 22  1  0
 21 22  1  0
 13 23  1  0
 10 24  1  0
 23 24  1  0
  7 25  1  0
  4 26  1  0
 25 26  1  0
M  END
