piperidine-amides-14735-covalent
     RDKit          3D

 22 23  0  0  0  0  0  0  0  0999 V2000
    7.0060   -3.3320   19.3510 C   0  0  0  0  0  0  0  0  0  0  0  0
    6.3420   -4.1640   20.3570 C   0  0  0  0  0  0  0  0  0  0  0  0
    5.3940   -4.8770   19.9860 O   0  0  0  0  0  0  0  0  0  0  0  0
    6.7820   -4.1760   21.7100 N   0  0  0  0  0  0  0  0  0  0  0  0
    7.6850   -3.1540   22.1700 C   0  0  0  0  0  0  0  0  0  0  0  0
    7.4910   -3.0110   23.6350 C   0  0  0  0  0  0  0  0  0  0  0  0
    6.1050   -3.5490   23.8670 C   0  0  0  0  0  0  0  0  0  0  0  0
    5.6350   -3.1950   25.2480 C   0  0  0  0  0  0  0  0  0  0  0  0
    4.4230   -3.2470   25.4500 O   0  0  0  0  0  0  0  0  0  0  0  0
    6.6000   -2.8390   26.1770 N   0  0  0  0  0  0  0  0  0  0  0  0
    6.5170   -1.6860   27.0180 C   0  0  0  0  0  0  0  0  0  0  0  0
    7.0270   -1.5970   28.3460 C   0  0  0  0  0  0  0  0  0  0  0  0
    6.9680   -0.4910   29.1760 C   0  0  0  0  0  0  0  0  0  0  0  0
    7.4380   -0.3130   30.4640 C   0  0  0  0  0  0  0  0  0  0  0  0
    6.2790    0.7970   28.6430 C   0  0  0  0  0  0  0  0  0  0  0  0
    5.6960    0.8080   27.2410 C   0  0  0  0  0  0  0  0  0  0  0  0
    5.1330    1.8390   26.7960 O   0  0  0  0  0  0  0  0  0  0  0  0
    3.8360    1.9560   27.2150 C   0  0  0  0  0  0  0  0  0  0  0  0
    5.8290   -0.4480   26.4460 C   0  0  0  0  0  0  0  0  0  0  0  0
    5.2260   -0.4060   25.0160 C   0  0  0  0  0  0  0  0  0  0  0  0
    6.1130   -5.0640   23.7510 C   0  0  0  0  0  0  0  0  0  0  0  0
    6.6550   -5.3790   22.5050 C   0  0  0  0  0  0  0  0  0  0  0  0
  1  2  1  0
  2  3  2  0
  2  4  1  0
  4  5  1  0
  5  6  1  0
  6  7  1  0
  7  8  1  0
  8  9  2  0
  8 10  1  0
 10 11  1  0
 11 12  2  0
 12 13  1  0
 13 14  1  0
 13 15  2  0
 15 16  1  0
 16 17  1  0
 17 18  1  0
 11 19  1  0
 16 19  2  0
 19 20  1  0
  7 21  1  0
  4 22  1  0
 21 22  1  0
M  END
