piperidine-amides-4177-covalent
     RDKit          3D

 27 29  0  0  0  0  0  0  0  0999 V2000
    7.1180   -3.2820   19.2800 C   0  0  0  0  0  0  0  0  0  0  0  0
    6.4010   -4.0730   20.2950 C   0  0  0  0  0  0  0  0  0  0  0  0
    5.3370   -4.6210   19.9230 O   0  0  0  0  0  0  0  0  0  0  0  0
    6.9150   -4.2560   21.6110 N   0  0  0  0  0  0  0  0  0  0  0  0
    7.6480   -3.1900   22.2190 C   0  0  0  0  0  0  0  0  0  0  0  0
    7.2690   -2.9180   23.5990 C   0  0  0  0  0  0  0  0  0  0  0  0
    6.0440   -3.6260   24.0110 C   0  0  0  0  0  0  0  0  0  0  0  0
    5.5860   -3.2470   25.3880 C   0  0  0  0  0  0  0  0  0  0  0  0
    4.3730   -3.0290   25.5660 O   0  0  0  0  0  0  0  0  0  0  0  0
    6.4580   -3.1210   26.4890 N   0  0  0  0  0  0  0  0  0  0  0  0
    6.2210   -3.4690   27.8460 C   0  0  0  0  0  0  0  0  0  0  0  0
    6.0650   -2.4670   28.9000 C   0  0  0  0  0  0  0  0  0  0  0  0
    7.1470   -1.4100   29.1120 C   0  0  0  0  0  0  0  0  0  0  0  0
    7.1680   -0.3910   30.0600 C   0  0  0  0  0  0  0  0  0  0  0  0
    5.9060   -0.3880   30.9770 C   0  0  0  0  0  0  0  0  0  0  0  0
    5.9220    0.6560   31.9560 N   0  0  0  0  0  0  0  0  0  0  0  0
    4.5420    1.0030   32.3470 C   0  0  0  0  0  0  0  0  0  0  0  0
    4.5490    0.0070   33.5140 C   0  0  0  0  0  0  0  0  0  0  0  0
    5.1380    0.6640   34.5500 N   0  0  0  0  0  0  0  0  0  0  0  0
    6.1910    1.3310   34.0630 C   0  0  0  0  0  0  0  0  0  0  0  0
    6.7100    2.4970   34.6590 O   0  0  0  0  0  0  0  0  0  0  0  0
    6.9290    0.8810   32.8110 C   0  0  0  0  0  0  0  0  0  0  0  0
    4.7820   -1.4050   30.8300 C   0  0  0  0  0  0  0  0  0  0  0  0
    4.8470   -2.4480   29.8010 C   0  0  0  0  0  0  0  0  0  0  0  0
    3.7940   -3.3560   29.7130 C   0  0  0  0  0  0  0  0  0  0  0  0
    6.0960   -5.0990   23.7670 C   0  0  0  0  0  0  0  0  0  0  0  0
    6.5460   -5.4300   22.3580 C   0  0  0  0  0  0  0  0  0  0  0  0
  1  2  1  0
  2  3  2  0
  2  4  1  0
  4  5  1  0
  5  6  1  0
  6  7  1  0
  7  8  1  0
  8  9  2  0
  8 10  1  0
 10 11  1  0
 11 12  1  0
 12 13  2  0
 13 14  1  0
 14 15  2  0
 15 16  1  0
 16 17  1  0
 17 18  1  0
 18 19  1  0
 19 20  1  0
 20 21  2  0
 16 22  1  0
 20 22  1  0
 15 23  1  0
 12 24  1  0
 23 24  2  0
 24 25  1  0
  7 26  1  0
  4 27  1  0
 26 27  1  0
M  END
