piperidine-amides-32194-covalent
     RDKit          3D

 28 30  0  0  0  0  0  0  0  0999 V2000
    7.0980   -3.3310   19.3330 C   0  0  0  0  0  0  0  0  0  0  0  0
    6.4120   -4.1930   20.3290 C   0  0  0  0  0  0  0  0  0  0  0  0
    5.3910   -4.8160   19.9800 O   0  0  0  0  0  0  0  0  0  0  0  0
    6.9690   -4.3180   21.6210 N   0  0  0  0  0  0  0  0  0  0  0  0
    7.7670   -3.2780   22.2200 C   0  0  0  0  0  0  0  0  0  0  0  0
    6.9070   -2.6700   23.3210 C   0  0  0  0  0  0  0  0  0  0  0  0
    6.6360   -3.7330   24.3360 C   0  0  0  0  0  0  0  0  0  0  0  0
    5.7950   -3.2200   25.4430 C   0  0  0  0  0  0  0  0  0  0  0  0
    4.6210   -2.9640   25.1500 O   0  0  0  0  0  0  0  0  0  0  0  0
    6.3030   -3.0410   26.7420 N   0  0  0  0  0  0  0  0  0  0  0  0
    6.4490   -4.1360   27.6520 C   0  0  0  0  0  0  0  0  0  0  0  0
    5.7960   -5.1990   27.6990 C   0  0  0  0  0  0  0  0  0  0  0  0
    6.9810   -5.4740   26.9530 C   0  0  0  0  0  0  0  0  0  0  0  0
    6.1710   -1.8390   27.4770 C   0  0  0  0  0  0  0  0  0  0  0  0
    7.1890   -1.3710   28.4230 C   0  0  0  0  0  0  0  0  0  0  0  0
    6.6780   -0.2720   29.3310 C   0  0  0  0  0  0  0  0  0  0  0  0
    5.5520    0.4170   28.7540 N   0  0  0  0  0  0  0  0  0  0  0  0
    4.8290    1.3310   29.5610 C   0  0  0  0  0  0  0  0  0  0  0  0
    3.7170    1.9650   29.0360 O   0  0  0  0  0  0  0  0  0  0  0  0
    5.1790    1.6360   30.8660 O   0  0  0  0  0  0  0  0  0  0  0  0
    4.7400    0.8230   31.9330 C   0  0  0  0  0  0  0  0  0  0  0  0
    4.5200   -0.5620   31.4420 C   0  0  0  0  0  0  0  0  0  0  0  0
    3.8440    1.3370   32.8740 C   0  0  0  0  0  0  0  0  0  0  0  0
    5.9760    0.2830   32.6640 C   0  0  0  0  0  0  0  0  0  0  0  0
    5.7210    0.5710   27.3270 C   0  0  0  0  0  0  0  0  0  0  0  0
    5.7960   -0.8060   26.6720 C   0  0  0  0  0  0  0  0  0  0  0  0
    5.9030   -4.9200   23.7200 C   0  0  0  0  0  0  0  0  0  0  0  0
    6.5480   -5.4230   22.4730 C   0  0  0  0  0  0  0  0  0  0  0  0
  1  2  1  0
  2  3  2  0
  2  4  1  0
  4  5  1  0
  5  6  1  0
  6  7  1  0
  7  8  1  0
  8  9  2  0
  8 10  1  0
 10 11  1  0
 11 12  1  0
 11 13  1  0
 12 13  1  0
 10 14  1  0
 14 15  1  0
 15 16  1  0
 16 17  1  0
 17 18  1  0
 18 19  2  0
 18 20  1  0
 21 20  1  0
 21 22  1  0
 21 23  1  0
 21 24  1  0
 17 25  1  0
 14 26  1  0
 25 26  1  0
  7 27  1  0
  4 28  1  0
 27 28  1  0
M  END
