piperidine-amides-34392-covalent
     RDKit          3D

 31 34  0  0  0  0  0  0  0  0999 V2000
    7.0670   -3.3460   19.3820 C   0  0  0  0  0  0  0  0  0  0  0  0
    6.4220   -4.2420   20.3540 C   0  0  0  0  0  0  0  0  0  0  0  0
    5.4260   -4.9130   20.0030 O   0  0  0  0  0  0  0  0  0  0  0  0
    6.9440   -4.3880   21.6590 N   0  0  0  0  0  0  0  0  0  0  0  0
    7.7470   -3.3590   22.2630 C   0  0  0  0  0  0  0  0  0  0  0  0
    6.8780   -2.7060   23.3390 C   0  0  0  0  0  0  0  0  0  0  0  0
    6.3770   -3.7910   24.2820 C   0  0  0  0  0  0  0  0  0  0  0  0
    5.3030   -3.1930   25.1210 C   0  0  0  0  0  0  0  0  0  0  0  0
    4.4000   -2.5980   24.5110 O   0  0  0  0  0  0  0  0  0  0  0  0
    5.2290   -3.2620   26.5450 N   0  0  0  0  0  0  0  0  0  0  0  0
    3.9890   -3.3780   27.1630 C   0  0  0  0  0  0  0  0  0  0  0  0
    4.4260   -4.0340   28.4360 C   0  0  1  0  0  0  0  0  0  0  0  0
    3.9390   -5.2860   28.7080 C   0  0  0  0  0  0  0  0  0  0  0  0
    2.6370   -5.5230   28.9690 C   0  0  0  0  0  0  0  0  0  0  0  0
    2.2940   -6.8040   29.2340 C   0  0  0  0  0  0  0  0  0  0  0  0
    3.2250   -7.7910   29.2330 C   0  0  0  0  0  0  0  0  0  0  0  0
    4.7310   -7.7860   28.9700 C   0  0  0  0  0  0  0  0  0  0  0  0
    4.8910   -6.2830   28.7000 C   0  0  0  0  0  0  0  0  0  0  0  0
    6.1080   -6.1410   28.4700 O   0  0  0  0  0  0  0  0  0  0  0  0
    6.4830   -5.0340   29.2090 C   0  0  0  0  0  0  0  0  0  0  0  0
    5.7840   -3.9030   28.6340 C   0  0  2  0  0  0  0  0  0  0  0  0
    5.9370   -2.7770   29.4470 C   0  0  0  0  0  0  0  0  0  0  0  0
    5.1340   -2.5490   30.3590 O   0  0  0  0  0  0  0  0  0  0  0  0
    6.9190   -1.8540   29.3140 O   0  0  0  0  0  0  0  0  0  0  0  0
    6.8470   -0.5480   29.7720 C   0  0  0  0  0  0  0  0  0  0  0  0
    6.6240    0.3360   28.5720 C   0  0  0  0  0  0  0  0  0  0  0  0
    5.6760   -0.3150   30.7030 C   0  0  0  0  0  0  0  0  0  0  0  0
    8.0030   -0.3090   30.4810 C   0  0  0  0  0  0  0  0  0  0  0  0
    6.2630   -3.8310   27.3140 C   0  0  0  0  0  0  0  0  0  0  0  0
    5.8060   -5.0140   23.6000 C   0  0  0  0  0  0  0  0  0  0  0  0
    6.5350   -5.4510   22.5070 C   0  0  0  0  0  0  0  0  0  0  0  0
  1  2  1  0
  2  3  2  0
  2  4  1  0
  4  5  1  0
  5  6  1  0
  6  7  1  0
  7  8  1  0
  8  9  2  0
  8 10  1  0
 10 11  1  0
 12 11  1  6
 12 13  1  0
 13 14  2  0
 14 15  1  0
 15 16  2  0
 16 17  1  0
 13 18  1  0
 17 18  2  0
 18 19  1  0
 19 20  1  0
 12 21  1  0
 20 21  1  0
 21 22  1  1
 22 23  2  0
 22 24  1  0
 25 24  1  0
 25 26  1  0
 25 27  1  0
 25 28  1  0
 10 29  1  0
 21 29  1  0
  7 30  1  0
  4 31  1  0
 30 31  1  0
M  END
