piperidine-amides-10831-covalent
     RDKit          3D

 22 23  0  0  0  0  0  0  0  0999 V2000
    7.1090   -3.2640   19.2250 C   0  0  0  0  0  0  0  0  0  0  0  0
    6.3340   -4.0130   20.2180 C   0  0  0  0  0  0  0  0  0  0  0  0
    5.2630   -4.5360   19.8760 O   0  0  0  0  0  0  0  0  0  0  0  0
    6.7910   -4.2080   21.5260 N   0  0  0  0  0  0  0  0  0  0  0  0
    6.5780   -5.4450   22.2270 C   0  0  0  0  0  0  0  0  0  0  0  0
    5.9060   -5.0540   23.5150 C   0  0  0  0  0  0  0  0  0  0  0  0
    6.6800   -4.0020   24.2610 C   0  0  0  0  0  0  0  0  0  0  0  0
    5.9940   -3.5680   25.4980 C   0  0  0  0  0  0  0  0  0  0  0  0
    4.9890   -2.7930   25.4390 O   0  0  0  0  0  0  0  0  0  0  0  0
    6.4100   -4.0030   26.7770 N   0  0  0  0  0  0  0  0  0  0  0  0
    7.4920   -3.3250   27.5160 C   0  0  0  0  0  0  0  0  0  0  0  0
    6.8380   -2.4130   28.4830 C   0  0  0  0  0  0  0  0  0  0  0  0
    5.3780   -2.4240   28.7590 C   0  0  0  0  0  0  0  0  0  0  0  0
    4.8090   -1.4520   29.7630 C   0  0  0  0  0  0  0  0  0  0  0  0
    5.7330   -0.4880   30.4690 C   0  0  0  0  0  0  0  0  0  0  0  0
    5.1040    0.3810   31.3870 O   0  0  0  0  0  0  0  0  0  0  0  0
    4.8700   -0.3030   32.5590 C   0  0  0  0  0  0  0  0  0  0  0  0
    7.2250   -0.5310   30.1400 C   0  0  0  0  0  0  0  0  0  0  0  0
    8.1030    0.3170   30.7460 F   0  0  0  0  0  0  0  0  0  0  0  0
    7.7210   -1.4430   29.2050 C   0  0  0  0  0  0  0  0  0  0  0  0
    6.9400   -2.7480   23.4160 C   0  0  0  0  0  0  0  0  0  0  0  0
    7.6310   -3.1900   22.1260 C   0  0  0  0  0  0  0  0  0  0  0  0
  1  2  1  0
  2  3  2  0
  2  4  1  0
  4  5  1  0
  5  6  1  0
  6  7  1  0
  7  8  1  0
  8  9  2  0
  8 10  1  0
 10 11  1  0
 11 12  1  0
 12 13  2  0
 13 14  1  0
 14 15  2  0
 15 16  1  0
 16 17  1  0
 15 18  1  0
 18 19  1  0
 12 20  1  0
 18 20  2  0
  7 21  1  0
  4 22  1  0
 21 22  1  0
M  END
