piperidine-amides-6967-covalent
     RDKit          3D

 22 23  0  0  0  0  0  0  0  0999 V2000
    7.0830   -3.2980   19.2760 C   0  0  0  0  0  0  0  0  0  0  0  0
    6.3400   -4.0740   20.2870 C   0  0  0  0  0  0  0  0  0  0  0  0
    5.3400   -4.7390   19.9510 O   0  0  0  0  0  0  0  0  0  0  0  0
    6.7660   -4.1060   21.6260 N   0  0  0  0  0  0  0  0  0  0  0  0
    6.6310   -5.3510   22.3670 C   0  0  0  0  0  0  0  0  0  0  0  0
    5.9010   -5.0470   23.6830 C   0  0  0  0  0  0  0  0  0  0  0  0
    6.0810   -3.5750   23.9490 C   0  0  0  0  0  0  0  0  0  0  0  0
    5.6090   -3.2590   25.3140 C   0  0  0  0  0  0  0  0  0  0  0  0
    4.3780   -3.2380   25.5050 O   0  0  0  0  0  0  0  0  0  0  0  0
    6.5290   -2.9780   26.3540 N   0  0  0  0  0  0  0  0  0  0  0  0
    6.3580   -3.4950   27.6950 C   0  0  0  0  0  0  0  0  0  0  0  0
    4.9460   -4.0140   27.9050 C   0  0  0  0  0  0  0  0  0  0  0  0
    4.5560   -5.3480   27.9460 C   0  0  0  0  0  0  0  0  0  0  0  0
    3.2500   -5.7510   28.1470 C   0  0  0  0  0  0  0  0  0  0  0  0
    3.0980   -7.1260   28.1480 F   0  0  0  0  0  0  0  0  0  0  0  0
    2.2260   -4.8480   28.3230 C   0  0  0  0  0  0  0  0  0  0  0  0
    0.9840   -5.3990   28.5110 F   0  0  0  0  0  0  0  0  0  0  0  0
    2.4690   -3.5180   28.3060 C   0  0  0  0  0  0  0  0  0  0  0  0
    1.3040   -2.7760   28.5040 F   0  0  0  0  0  0  0  0  0  0  0  0
    3.8540   -2.9540   28.0970 C   0  0  0  0  0  0  0  0  0  0  0  0
    7.4580   -3.1060   23.6420 C   0  0  0  0  0  0  0  0  0  0  0  0
    7.6300   -3.0580   22.1590 C   0  0  0  0  0  0  0  0  0  0  0  0
  1  2  1  0
  2  3  2  0
  2  4  1  0
  4  5  1  0
  5  6  1  0
  6  7  1  0
  7  8  1  0
  8  9  2  0
  8 10  1  0
 10 11  1  0
 11 12  1  0
 12 13  2  0
 13 14  1  0
 14 15  1  0
 14 16  2  0
 16 17  1  0
 16 18  1  0
 18 19  1  0
 12 20  1  0
 18 20  2  0
  7 21  1  0
  4 22  1  0
 21 22  1  0
M  END
