piperidine-amides-14161-covalent
     RDKit          3D

 24 25  0  0  0  0  0  0  0  0999 V2000
    7.1350   -3.3000   19.2550 C   0  0  0  0  0  0  0  0  0  0  0  0
    6.3310   -4.0590   20.2460 C   0  0  0  0  0  0  0  0  0  0  0  0
    5.2510   -4.5520   19.8840 O   0  0  0  0  0  0  0  0  0  0  0  0
    6.8440   -4.2600   21.5440 N   0  0  0  0  0  0  0  0  0  0  0  0
    6.5590   -5.4300   22.3240 C   0  0  0  0  0  0  0  0  0  0  0  0
    5.6950   -4.9480   23.4870 C   0  0  0  0  0  0  0  0  0  0  0  0
    6.4740   -3.9060   24.2300 C   0  0  0  0  0  0  0  0  0  0  0  0
    5.7160   -3.3620   25.3820 C   0  0  0  0  0  0  0  0  0  0  0  0
    4.8120   -2.5690   25.0950 O   0  0  0  0  0  0  0  0  0  0  0  0
    6.0230   -3.7310   26.7020 N   0  0  0  0  0  0  0  0  0  0  0  0
    5.6240   -4.9100   27.4110 C   0  0  0  0  0  0  0  0  0  0  0  0
    6.1270   -5.1960   28.6500 C   0  0  0  0  0  0  0  0  0  0  0  0
    6.1560   -6.0940   26.6570 C   0  0  0  0  0  0  0  0  0  0  0  0
    4.2780   -5.3280   27.4750 C   0  0  0  0  0  0  0  0  0  0  0  0
    4.0230   -6.3970   26.5460 C   0  0  0  0  0  0  0  0  0  0  0  0
    2.6080   -6.7640   26.6830 C   0  0  0  0  0  0  0  0  0  0  0  0
    2.1760   -7.9000   25.7500 C   0  0  0  0  0  0  0  0  0  0  0  0
    0.9670   -8.4640   26.1210 O   0  0  0  0  0  0  0  0  0  0  0  0
    2.9210   -8.3030   24.6370 O   0  0  0  0  0  0  0  0  0  0  0  0
    3.4970   -7.3320   23.7950 C   0  0  0  0  0  0  0  0  0  0  0  0
    2.1110   -5.9110   27.6660 O   0  0  0  0  0  0  0  0  0  0  0  0
    3.0960   -5.0620   28.1340 N   0  0  0  0  0  0  0  0  0  0  0  0
    6.9140   -2.7500   23.3960 C   0  0  0  0  0  0  0  0  0  0  0  0
    7.6530   -3.2300   22.1630 C   0  0  0  0  0  0  0  0  0  0  0  0
  1  2  1  0
  2  3  2  0
  2  4  1  0
  4  5  1  0
  5  6  1  0
  6  7  1  0
  7  8  1  0
  8  9  2  0
  8 10  1  0
 11 10  1  0
 11 12  1  0
 11 13  1  0
 11 14  1  0
 14 15  1  0
 15 16  2  0
 16 17  1  0
 17 18  2  0
 17 19  1  0
 19 20  1  0
 16 21  1  0
 14 22  2  0
 21 22  1  0
  7 23  1  0
  4 24  1  0
 23 24  1  0
M  END
