piperidine-amides-13498-covalent
     RDKit          3D

 27 29  0  0  0  0  0  0  0  0999 V2000
    7.1700   -3.2790   19.2050 C   0  0  0  0  0  0  0  0  0  0  0  0
    6.3420   -4.0210   20.1870 C   0  0  0  0  0  0  0  0  0  0  0  0
    5.2470   -4.4880   19.8520 O   0  0  0  0  0  0  0  0  0  0  0  0
    6.8780   -4.2210   21.4650 N   0  0  0  0  0  0  0  0  0  0  0  0
    7.6390   -3.1880   22.1210 C   0  0  0  0  0  0  0  0  0  0  0  0
    7.1140   -3.1010   23.5480 C   0  0  0  0  0  0  0  0  0  0  0  0
    5.7080   -3.5770   23.5280 C   0  0  0  0  0  0  0  0  0  0  0  0
    4.8990   -3.2160   24.7140 C   0  0  0  0  0  0  0  0  0  0  0  0
    3.7520   -3.6660   24.7600 O   0  0  0  0  0  0  0  0  0  0  0  0
    5.4150   -2.4160   25.7190 N   0  0  0  0  0  0  0  0  0  0  0  0
    5.5930   -2.8230   27.0450 C   0  0  1  0  0  0  0  0  0  0  0  0
    6.3700   -3.9220   27.1860 C   0  0  0  0  0  0  0  0  0  0  0  0
    6.9650   -4.3790   25.9790 C   0  0  0  0  0  0  0  0  0  0  0  0
    7.8030   -5.4600   25.8750 C   0  0  0  0  0  0  0  0  0  0  0  0
    8.1090   -6.2040   27.0890 C   0  0  0  0  0  0  0  0  0  0  0  0
    7.5060   -5.8060   28.4110 C   0  0  0  0  0  0  0  0  0  0  0  0
    6.6130   -4.5920   28.3370 C   0  0  0  0  0  0  0  0  0  0  0  0
    5.8490   -1.7260   27.8740 C   0  0  0  0  0  0  0  0  0  0  0  0
    6.5250   -0.6000   27.1970 C   0  0  0  0  0  0  0  0  0  0  0  0
    5.6570    0.2450   26.8900 O   0  0  0  0  0  0  0  0  0  0  0  0
    6.4690   -2.0650   29.0760 C   0  0  0  0  0  0  0  0  0  0  0  0
    6.7350   -1.0020   29.9080 C   0  0  0  0  0  0  0  0  0  0  0  0
    5.7700   -0.1600   29.9180 O   0  0  0  0  0  0  0  0  0  0  0  0
    4.5340   -0.7360   29.6790 C   0  0  0  0  0  0  0  0  0  0  0  0
    4.5890   -1.4010   28.3230 C   0  0  0  0  0  0  0  0  0  0  0  0
    5.6760   -5.0790   23.3620 C   0  0  0  0  0  0  0  0  0  0  0  0
    6.5190   -5.4330   22.1990 C   0  0  0  0  0  0  0  0  0  0  0  0
  1  2  1  0
  2  3  2  0
  2  4  1  0
  4  5  1  0
  5  6  1  0
  6  7  1  0
  7  8  1  0
  8  9  2  0
  8 10  1  0
 11 10  1  6
 11 12  1  0
 12 13  2  0
 13 14  1  0
 14 15  2  0
 15 16  1  0
 12 17  1  0
 16 17  2  0
 11 18  1  0
 18 19  1  0
 19 20  1  0
 18 21  1  0
 21 22  1  0
 22 23  1  0
 23 24  1  0
 18 25  1  0
 24 25  1  0
  7 26  1  0
  4 27  1  0
 26 27  1  0
M  END
