piperidine-amides-34958-covalent
     RDKit          3D

 30 33  0  0  0  0  0  0  0  0999 V2000
    7.0480   -3.3360   19.3040 C   0  0  0  0  0  0  0  0  0  0  0  0
    6.3720   -4.1890   20.3170 C   0  0  0  0  0  0  0  0  0  0  0  0
    5.3480   -4.7670   19.9570 O   0  0  0  0  0  0  0  0  0  0  0  0
    6.9160   -4.3610   21.5930 N   0  0  0  0  0  0  0  0  0  0  0  0
    6.6340   -5.5430   22.3550 C   0  0  0  0  0  0  0  0  0  0  0  0
    5.9610   -5.1350   23.6290 C   0  0  0  0  0  0  0  0  0  0  0  0
    6.7570   -4.0010   24.2870 C   0  0  0  0  0  0  0  0  0  0  0  0
    6.0090   -3.5520   25.4770 C   0  0  0  0  0  0  0  0  0  0  0  0
    4.9870   -2.8600   25.3480 O   0  0  0  0  0  0  0  0  0  0  0  0
    6.4620   -3.9310   26.7550 N   0  0  0  0  0  0  0  0  0  0  0  0
    5.9750   -3.2420   27.9380 C   0  0  0  0  0  0  0  0  0  0  0  0
    5.0930   -4.1940   28.7570 C   0  0  0  0  0  0  0  0  0  0  0  0
    5.8520   -5.4050   29.1490 N   0  0  0  0  0  0  0  0  0  0  0  0
    4.8900   -6.5290   28.9980 C   0  0  0  0  0  0  0  0  0  0  0  0
    4.6130   -7.0360   30.2340 C   0  0  0  0  0  0  0  0  0  0  0  0
    3.4520   -7.3470   30.9040 C   0  0  0  0  0  0  0  0  0  0  0  0
    3.5550   -7.9090   32.3180 C   0  0  0  0  0  0  0  0  0  0  0  0
    5.0360   -7.9340   32.5240 C   0  0  0  0  0  0  0  0  0  0  0  0
    5.6850   -8.4110   33.8030 C   0  0  0  0  0  0  0  0  0  0  0  0
    6.1060   -7.2810   34.6550 C   0  0  0  0  0  0  0  0  0  0  0  0
    6.7650   -7.6510   35.9280 C   0  0  0  0  0  0  0  0  0  0  0  0
    6.9670   -9.1160   36.2860 C   0  0  0  0  0  0  0  0  0  0  0  0
    7.7390   -9.6030   37.7760 Cl  0  0  0  0  0  0  0  0  0  0  0  0
    6.4920  -10.1770   35.3350 C   0  0  0  0  0  0  0  0  0  0  0  0
    5.8230   -9.7530   34.0410 C   0  0  0  0  0  0  0  0  0  0  0  0
    5.9550   -7.3840   31.2120 S   0  0  0  0  0  0  0  0  0  0  0  0
    6.9930   -5.5880   28.3320 C   0  0  0  0  0  0  0  0  0  0  0  0
    7.0460   -5.2220   26.8860 C   0  0  0  0  0  0  0  0  0  0  0  0
    6.9340   -2.7750   23.3810 C   0  0  0  0  0  0  0  0  0  0  0  0
    7.7040   -3.2900   22.1810 C   0  0  0  0  0  0  0  0  0  0  0  0
  1  2  1  0
  2  3  2  0
  2  4  1  0
  4  5  1  0
  5  6  1  0
  6  7  1  0
  7  8  1  0
  8  9  2  0
  8 10  1  0
 10 11  1  0
 11 12  1  0
 12 13  1  0
 13 14  1  0
 14 15  1  0
 15 16  2  0
 16 17  1  0
 17 18  2  0
 18 19  1  0
 19 20  2  0
 20 21  1  0
 21 22  2  0
 22 23  1  0
 22 24  1  0
 19 25  1  0
 24 25  2  0
 15 26  1  0
 18 26  1  0
 13 27  1  0
 10 28  1  0
 27 28  1  0
  7 29  1  0
  4 30  1  0
 29 30  1  0
M  END
