piperidine-amides-10953-covalent
     RDKit          3D

 21 22  0  0  0  0  0  0  0  0999 V2000
    7.1300   -3.2840   19.2230 C   0  0  0  0  0  0  0  0  0  0  0  0
    6.3210   -3.9970   20.2070 C   0  0  0  0  0  0  0  0  0  0  0  0
    5.2420   -4.4930   19.8590 O   0  0  0  0  0  0  0  0  0  0  0  0
    6.7640   -4.1890   21.5190 N   0  0  0  0  0  0  0  0  0  0  0  0
    6.5070   -5.3950   22.2650 C   0  0  0  0  0  0  0  0  0  0  0  0
    5.7840   -4.9390   23.5050 C   0  0  0  0  0  0  0  0  0  0  0  0
    6.5300   -3.8440   24.2160 C   0  0  0  0  0  0  0  0  0  0  0  0
    5.8090   -3.3520   25.4190 C   0  0  0  0  0  0  0  0  0  0  0  0
    4.5770   -3.0560   25.3470 O   0  0  0  0  0  0  0  0  0  0  0  0
    6.4330   -3.1790   26.6740 N   0  0  0  0  0  0  0  0  0  0  0  0
    6.0950   -4.0330   27.8470 C   0  0  0  0  0  0  0  0  0  0  0  0
    5.9370   -5.4510   27.4270 C   0  0  0  0  0  0  0  0  0  0  0  0
    4.6310   -6.1160   27.5960 C   0  0  0  0  0  0  0  0  0  0  0  0
    3.9710   -5.9980   28.9370 C   0  0  0  0  0  0  0  0  0  0  0  0
    2.6970   -6.6190   29.1750 N   0  0  0  0  0  0  0  0  0  0  0  0
    2.1330   -7.3500   28.0190 C   0  0  0  0  0  0  0  0  0  0  0  0
    2.8640   -7.4140   26.7140 C   0  0  0  0  0  0  0  0  0  0  0  0
    2.0720   -8.3710   25.2640 Br  0  0  0  0  0  0  0  0  0  0  0  0
    4.0680   -6.8020   26.5580 C   0  0  0  0  0  0  0  0  0  0  0  0
    6.7980   -2.6780   23.3050 C   0  0  0  0  0  0  0  0  0  0  0  0
    7.6140   -3.1980   22.1520 C   0  0  0  0  0  0  0  0  0  0  0  0
  1  2  1  0
  2  3  2  0
  2  4  1  0
  4  5  1  0
  5  6  1  0
  6  7  1  0
  7  8  1  0
  8  9  2  0
  8 10  1  0
 10 11  1  0
 11 12  1  0
 12 13  1  0
 13 14  2  0
 14 15  1  0
 15 16  2  0
 16 17  1  0
 17 18  1  0
 13 19  1  0
 17 19  2  0
  7 20  1  0
  4 21  1  0
 20 21  1  0
M  END
