piperidine-amides-24737-covalent
     RDKit          3D

 23 24  0  0  0  0  0  0  0  0999 V2000
    7.0960   -3.2350   19.2120 C   0  0  0  0  0  0  0  0  0  0  0  0
    6.3230   -3.9970   20.2080 C   0  0  0  0  0  0  0  0  0  0  0  0
    5.2670   -4.5790   19.8870 O   0  0  0  0  0  0  0  0  0  0  0  0
    6.7830   -4.1180   21.5200 N   0  0  0  0  0  0  0  0  0  0  0  0
    6.5860   -5.3670   22.2140 C   0  0  0  0  0  0  0  0  0  0  0  0
    5.8240   -5.0340   23.5010 C   0  0  0  0  0  0  0  0  0  0  0  0
    6.0400   -3.5560   23.7680 C   0  0  0  0  0  0  0  0  0  0  0  0
    5.6780   -3.2040   25.1520 C   0  0  0  0  0  0  0  0  0  0  0  0
    4.4680   -3.1900   25.4700 O   0  0  0  0  0  0  0  0  0  0  0  0
    6.7070   -2.8960   26.0670 N   0  0  0  0  0  0  0  0  0  0  0  0
    6.9030   -3.6470   27.2610 C   0  0  0  0  0  0  0  0  0  0  0  0
    6.9070   -5.0840   26.8250 C   0  0  0  0  0  0  0  0  0  0  0  0
    8.2690   -5.4940   26.8740 N   0  0  0  0  0  0  0  0  0  0  0  0
    8.9370   -5.6110   28.1100 C   0  0  0  0  0  0  0  0  0  0  0  0
    9.0490   -5.4030   25.7250 C   0  0  0  0  0  0  0  0  0  0  0  0
    7.3050   -1.7040   26.6220 C   0  0  0  0  0  0  0  0  0  0  0  0
    6.5500   -1.4760   27.7480 C   0  0  0  0  0  0  0  0  0  0  0  0
    5.0130   -1.3140   27.7310 C   0  0  0  0  0  0  0  0  0  0  0  0
    4.7940   -1.0860   29.2140 C   0  0  0  0  0  0  0  0  0  0  0  0
    6.1630   -1.0950   30.1980 S   0  0  0  0  0  0  0  0  0  0  0  0
    7.2320   -1.3880   28.9320 C   0  0  0  0  0  0  0  0  0  0  0  0
    7.4690   -3.1610   23.4930 C   0  0  0  0  0  0  0  0  0  0  0  0
    7.6440   -3.1150   22.1100 C   0  0  0  0  0  0  0  0  0  0  0  0
  1  2  1  0
  2  3  2  0
  2  4  1  0
  4  5  1  0
  5  6  1  0
  6  7  1  0
  7  8  1  0
  8  9  2  0
  8 10  1  0
 10 11  1  0
 11 12  1  0
 12 13  1  0
 13 14  1  0
 13 15  1  0
 10 16  1  0
 16 17  1  0
 17 18  1  0
 18 19  2  0
 19 20  1  0
 17 21  2  0
 20 21  1  0
  7 22  1  0
  4 23  1  0
 22 23  1  0
M  END
