piperidine-amides-102-covalent
     RDKit          3D

 21 23  0  0  0  0  0  0  0  0999 V2000
    7.0670   -3.3860   19.2930 C   0  0  0  0  0  0  0  0  0  0  0  0
    6.4000   -4.1410   20.3200 C   0  0  0  0  0  0  0  0  0  0  0  0
    5.3660   -4.7960   19.9810 O   0  0  0  0  0  0  0  0  0  0  0  0
    6.8960   -4.2250   21.6360 N   0  0  0  0  0  0  0  0  0  0  0  0
    6.5300   -5.4020   22.4380 C   0  0  0  0  0  0  0  0  0  0  0  0
    5.4310   -4.7200   23.3320 C   0  0  0  0  0  0  0  0  0  0  0  0
    6.1240   -3.6120   24.1140 C   0  0  0  0  0  0  0  0  0  0  0  0
    5.8260   -3.8200   25.6600 C   0  0  0  0  0  0  0  0  0  0  0  0
    5.8220   -5.0020   25.9100 O   0  0  0  0  0  0  0  0  0  0  0  0
    5.6370   -2.7150   26.2680 N   0  0  0  0  0  0  0  0  0  0  0  0
    5.3530   -1.5990   27.0050 C   0  0  2  0  0  0  0  0  0  0  0  0
    5.0720   -0.2700   26.8260 C   0  0  1  0  0  0  0  0  0  0  0  0
    4.8570    0.4420   28.0280 C   0  0  0  0  0  0  0  0  0  0  0  0
    6.0110    0.5170   28.9560 C   0  0  0  0  0  0  0  0  0  0  0  0
    5.8350   -0.9530   29.3910 C   0  0  0  0  0  0  0  0  0  0  0  0
    6.3060   -1.5110   28.1960 C   0  0  2  0  0  0  0  0  0  0  0  0
    7.4380   -0.9050   27.7860 C   0  0  0  0  0  0  0  0  0  0  0  0
    7.1550    0.3800   27.4530 O   0  0  0  0  0  0  0  0  0  0  0  0
    6.2710    0.5060   26.4140 C   0  0  0  0  0  0  0  0  0  0  0  0
    7.5170   -3.3360   23.6260 C   0  0  0  0  0  0  0  0  0  0  0  0
    7.5190   -3.1020   22.2740 C   0  0  0  0  0  0  0  0  0  0  0  0
  1  2  1  0
  2  3  2  0
  2  4  1  0
  4  5  1  0
  5  6  1  0
  6  7  1  0
  7  8  1  0
  8  9  2  0
  8 10  1  0
 11 10  1  6
 11 12  1  0
 12 13  1  1
 13 14  1  0
 14 15  1  0
 11 16  1  0
 16 15  1  1
 16 17  1  0
 17 18  1  0
 12 19  1  0
 18 19  1  0
  7 20  1  0
  4 21  1  0
 20 21  1  0
M  END
