piperidine-amides-18797-covalent
     RDKit          3D

 21 21  0  0  0  0  0  0  0  0999 V2000
    7.1320   -3.3580   19.1950 C   0  0  0  0  0  0  0  0  0  0  0  0
    6.3880   -4.0170   20.2360 C   0  0  0  0  0  0  0  0  0  0  0  0
    5.2940   -4.5720   19.9070 O   0  0  0  0  0  0  0  0  0  0  0  0
    6.8640   -4.1290   21.5560 N   0  0  0  0  0  0  0  0  0  0  0  0
    6.5370   -5.3570   22.2840 C   0  0  0  0  0  0  0  0  0  0  0  0
    5.5130   -4.7330   23.2930 C   0  0  0  0  0  0  0  0  0  0  0  0
    6.2950   -3.7040   24.0930 C   0  0  0  0  0  0  0  0  0  0  0  0
    5.4070   -3.3920   25.3720 C   0  0  0  0  0  0  0  0  0  0  0  0
    4.2760   -3.8270   25.2210 O   0  0  0  0  0  0  0  0  0  0  0  0
    6.0870   -2.7540   26.2270 N   0  0  0  0  0  0  0  0  0  0  0  0
    6.7120   -1.6720   26.7710 C   0  0  0  0  0  0  0  0  0  0  0  0
    6.1270   -3.5920   27.3680 C   0  0  0  0  0  0  0  0  0  0  0  0
    6.0020   -5.0180   27.2460 C   0  0  0  0  0  0  0  0  0  0  0  0
    5.6170   -5.4240   25.9620 O   0  0  0  0  0  0  0  0  0  0  0  0
    6.2240   -5.8760   28.2260 N   0  0  0  0  0  0  0  0  0  0  0  0
    5.1330   -6.7130   28.3970 C   0  0  0  0  0  0  0  0  0  0  0  0
    5.5530   -7.7160   29.4760 C   0  0  0  0  0  0  0  0  0  0  0  0
    5.9890   -5.2960   29.4950 C   0  0  0  0  0  0  0  0  0  0  0  0
    4.7480   -4.6510   29.5870 C   0  0  0  0  0  0  0  0  0  0  0  0
    6.9230   -2.6140   23.3940 C   0  0  0  0  0  0  0  0  0  0  0  0
    7.7280   -3.2210   22.2070 C   0  0  0  0  0  0  0  0  0  0  0  0
  1  2  1  0
  2  3  2  0
  2  4  1  0
  4  5  1  0
  5  6  1  0
  6  7  1  0
  7  8  1  0
  8  9  2  0
  8 10  1  0
 10 11  1  0
 10 12  1  0
 12 13  1  0
 13 14  2  0
 13 15  1  0
 15 16  1  0
 16 17  1  0
 15 18  1  0
 18 19  1  0
  7 20  1  0
  4 21  1  0
 20 21  1  0
M  END
