piperidine-amides-3966-covalent
     RDKit          3D

 30 32  0  0  0  0  0  0  0  0999 V2000
    7.1160   -3.2790   19.2350 C   0  0  0  0  0  0  0  0  0  0  0  0
    6.3960   -4.0510   20.2670 C   0  0  0  0  0  0  0  0  0  0  0  0
    5.3310   -4.6090   19.9130 O   0  0  0  0  0  0  0  0  0  0  0  0
    6.9210   -4.1890   21.5800 N   0  0  0  0  0  0  0  0  0  0  0  0
    6.5020   -5.2910   22.3700 C   0  0  0  0  0  0  0  0  0  0  0  0
    5.9000   -4.8490   23.6200 C   0  0  0  0  0  0  0  0  0  0  0  0
    5.8700   -3.3780   23.7330 C   0  0  0  0  0  0  0  0  0  0  0  0
    5.4310   -2.9220   25.0980 C   0  0  0  0  0  0  0  0  0  0  0  0
    4.3190   -3.2900   25.5230 O   0  0  0  0  0  0  0  0  0  0  0  0
    6.2220   -2.0820   25.9110 N   0  0  0  0  0  0  0  0  0  0  0  0
    6.8610   -2.4340   27.1100 C   0  0  0  0  0  0  0  0  0  0  0  0
    7.4780   -3.7150   27.1960 C   0  0  0  0  0  0  0  0  0  0  0  0
    8.4560   -4.0330   26.0900 C   0  0  0  0  0  0  0  0  0  0  0  0
    9.1790   -5.1730   25.9390 C   0  0  0  0  0  0  0  0  0  0  0  0
    8.8720   -6.1600   27.0590 C   0  0  0  0  0  0  0  0  0  0  0  0
    7.9610   -5.9820   28.1600 N   0  0  0  0  0  0  0  0  0  0  0  0
    7.2480   -4.7170   28.2310 C   0  0  0  0  0  0  0  0  0  0  0  0
    6.3520   -4.4570   29.2670 O   0  0  0  0  0  0  0  0  0  0  0  0
    5.3530   -5.3440   29.5240 C   0  0  0  0  0  0  0  0  0  0  0  0
    5.4040   -6.8270   29.3170 C   0  0  0  0  0  0  0  0  0  0  0  0
    4.1930   -7.6300   29.6610 C   0  0  0  0  0  0  0  0  0  0  0  0
    2.9290   -6.9870   30.2110 C   0  0  0  0  0  0  0  0  0  0  0  0
    3.0090   -5.5050   30.3720 C   0  0  0  0  0  0  0  0  0  0  0  0
    1.8980   -4.8180   30.8710 C   0  0  0  0  0  0  0  0  0  0  0  0
    1.5350   -5.3450   32.1200 F   0  0  0  0  0  0  0  0  0  0  0  0
    0.8500   -4.9200   29.9680 F   0  0  0  0  0  0  0  0  0  0  0  0
    2.2340   -3.4940   31.1200 F   0  0  0  0  0  0  0  0  0  0  0  0
    4.1710   -4.8000   30.0320 C   0  0  0  0  0  0  0  0  0  0  0  0
    7.1840   -2.7470   23.3850 C   0  0  0  0  0  0  0  0  0  0  0  0
    7.7510   -3.1670   22.1790 C   0  0  0  0  0  0  0  0  0  0  0  0
  1  2  1  0
  2  3  2  0
  2  4  1  0
  4  5  1  0
  5  6  1  0
  6  7  1  0
  7  8  1  0
  8  9  2  0
  8 10  1  0
 10 11  1  0
 11 12  1  0
 12 13  2  0
 13 14  1  0
 14 15  2  0
 15 16  1  0
 12 17  1  0
 16 17  2  0
 17 18  1  0
 18 19  1  0
 19 20  2  0
 20 21  1  0
 21 22  2  0
 22 23  1  0
 23 24  1  0
 24 25  1  0
 24 26  1  0
 24 27  1  0
 19 28  1  0
 23 28  2  0
  7 29  1  0
  4 30  1  0
 29 30  1  0
M  END
