piperidine-amides-2319-covalent
     RDKit          3D

 27 29  0  0  0  0  0  0  0  0999 V2000
    7.1130   -3.2660   19.1430 C   0  0  0  0  0  0  0  0  0  0  0  0
    6.3550   -4.0040   20.1900 C   0  0  0  0  0  0  0  0  0  0  0  0
    5.2870   -4.5150   19.8670 O   0  0  0  0  0  0  0  0  0  0  0  0
    6.8900   -4.1350   21.4680 N   0  0  0  0  0  0  0  0  0  0  0  0
    7.7460   -3.1260   22.0350 C   0  0  0  0  0  0  0  0  0  0  0  0
    7.1360   -2.6350   23.3010 C   0  0  0  0  0  0  0  0  0  0  0  0
    6.6920   -3.8390   24.1170 C   0  0  0  0  0  0  0  0  0  0  0  0
    5.9530   -3.3110   25.2690 C   0  0  0  0  0  0  0  0  0  0  0  0
    4.7160   -3.2720   25.2350 O   0  0  0  0  0  0  0  0  0  0  0  0
    6.6490   -2.8350   26.3910 N   0  0  0  0  0  0  0  0  0  0  0  0
    6.0750   -3.0570   27.6890 C   0  0  0  0  0  0  0  0  0  0  0  0
    4.6760   -2.4950   27.5200 C   0  0  0  0  0  0  0  0  0  0  0  0
    4.1550   -1.3760   26.9590 C   0  0  0  0  0  0  0  0  0  0  0  0
    2.7390   -1.1920   26.9900 N   0  0  0  0  0  0  0  0  0  0  0  0
    2.0610   -0.0530   26.4300 C   0  0  0  0  0  0  0  0  0  0  0  0
    2.1900   -2.2420   27.6150 N   0  0  0  0  0  0  0  0  0  0  0  0
    3.3520   -3.0400   27.9430 C   0  0  0  0  0  0  0  0  0  0  0  0
    4.0050   -4.2560   28.5510 C   0  0  0  0  0  0  0  0  0  0  0  0
    4.7120   -5.0650   27.5240 C   0  0  0  0  0  0  0  0  0  0  0  0
    5.3970   -6.3080   28.0590 C   0  0  0  0  0  0  0  0  0  0  0  0
    5.2710   -6.5650   29.5480 C   0  0  0  0  0  0  0  0  0  0  0  0
    5.9040   -7.7530   30.1550 C   0  0  0  0  0  0  0  0  0  0  0  0
    5.9930   -8.1100   31.4480 N   0  0  0  0  0  0  0  0  0  0  0  0
    4.5250   -5.6850   30.5100 C   0  0  0  0  0  0  0  0  0  0  0  0
    3.8520   -4.4710   30.0390 C   0  0  0  0  0  0  0  0  0  0  0  0
    5.7740   -4.7730   23.3320 C   0  0  0  0  0  0  0  0  0  0  0  0
    6.5440   -5.2680   22.3020 C   0  0  0  0  0  0  0  0  0  0  0  0
  1  2  1  0
  2  3  2  0
  2  4  1  0
  4  5  1  0
  5  6  1  0
  6  7  1  0
  7  8  1  0
  8  9  2  0
  8 10  1  0
 10 11  1  0
 11 12  1  0
 12 13  2  0
 13 14  1  0
 14 15  1  0
 14 16  1  0
 12 17  1  0
 16 17  2  0
 17 18  1  0
 18 19  2  0
 19 20  1  0
 20 21  2  0
 21 22  1  0
 22 23  3  0
 21 24  1  0
 18 25  1  0
 24 25  2  0
  7 26  1  0
  4 27  1  0
 26 27  1  0
M  END
