piperidine-amides-33964-covalent
     RDKit          3D

 31 35  0  0  0  0  0  0  0  0999 V2000
    7.0190   -3.3400   19.4090 C   0  0  0  0  0  0  0  0  0  0  0  0
    6.3670   -4.2400   20.3780 C   0  0  0  0  0  0  0  0  0  0  0  0
    5.4000   -4.9370   20.0020 O   0  0  0  0  0  0  0  0  0  0  0  0
    6.8290   -4.3580   21.7070 N   0  0  0  0  0  0  0  0  0  0  0  0
    7.6130   -3.3030   22.3130 C   0  0  0  0  0  0  0  0  0  0  0  0
    6.7560   -2.6880   23.4290 C   0  0  0  0  0  0  0  0  0  0  0  0
    6.3370   -3.8180   24.3530 C   0  0  0  0  0  0  0  0  0  0  0  0
    5.2800   -3.3320   25.3020 C   0  0  0  0  0  0  0  0  0  0  0  0
    4.3350   -2.7070   24.7940 O   0  0  0  0  0  0  0  0  0  0  0  0
    5.3130   -3.5550   26.7230 N   0  0  0  0  0  0  0  0  0  0  0  0
    6.4670   -3.3820   27.4460 C   0  0  0  0  0  0  0  0  0  0  0  0
    6.5890   -4.6410   28.3030 C   0  0  0  0  0  0  0  0  0  0  0  0
    5.5080   -5.0870   28.9710 C   0  0  0  0  0  0  0  0  0  0  0  0
    4.2820   -4.5210   28.6080 C   0  0  0  0  0  0  0  0  0  0  0  0
    3.1380   -5.0080   29.3030 N   0  0  0  0  0  0  0  0  0  0  0  0
    3.3440   -5.9590   30.2450 C   0  0  0  0  0  0  0  0  0  0  0  0
    2.3740   -6.5460   30.9690 C   0  0  0  0  0  0  0  0  0  0  0  0
    3.0150   -7.6170   31.7170 C   0  0  0  0  0  0  0  0  0  0  0  0
    1.6800   -7.9840   32.3210 C   0  0  0  0  0  0  0  0  0  0  0  0
    1.4580   -7.3730   33.7170 C   0  0  0  0  0  0  0  0  0  0  0  0
    0.0830   -7.9210   34.0170 C   0  0  0  0  0  0  0  0  0  0  0  0
   -0.7730   -8.7470   33.2700 C   0  0  0  0  0  0  0  0  0  0  0  0
   -0.4200   -9.1860   32.0770 C   0  0  0  0  0  0  0  0  0  0  0  0
    0.8760   -8.8030   31.5380 C   0  0  0  0  0  0  0  0  0  0  0  0
    4.3170   -7.6690   31.4540 N   0  0  0  0  0  0  0  0  0  0  0  0
    4.5290   -6.5320   30.6490 N   0  0  0  0  0  0  0  0  0  0  0  0
    5.5870   -6.0730   29.9340 C   0  0  0  0  0  0  0  0  0  0  0  0
    6.6800   -6.5740   30.1370 O   0  0  0  0  0  0  0  0  0  0  0  0
    4.1420   -3.4860   27.5370 C   0  0  0  0  0  0  0  0  0  0  0  0
    5.8150   -5.0480   23.6610 C   0  0  0  0  0  0  0  0  0  0  0  0
    6.4810   -5.4750   22.5450 C   0  0  0  0  0  0  0  0  0  0  0  0
  1  2  1  0
  2  3  2  0
  2  4  1  0
  4  5  1  0
  5  6  1  0
  6  7  1  0
  7  8  1  0
  8  9  2  0
  8 10  1  0
 10 11  1  0
 11 12  1  0
 12 13  1  0
 13 14  2  0
 14 15  1  0
 15 16  2  0
 16 17  1  0
 17 18  2  0
 18 19  1  0
 19 20  2  0
 20 21  1  0
 21 22  2  0
 22 23  1  0
 19 24  1  0
 23 24  2  0
 18 25  1  0
 16 26  1  0
 25 26  1  0
 13 27  1  0
 26 27  1  0
 27 28  2  0
 10 29  1  0
 14 29  1  0
  7 30  1  0
  4 31  1  0
 30 31  1  0
M  END
