piperidine-amides-31143-covalent
     RDKit          3D

 27 29  0  0  0  0  0  0  0  0999 V2000
    7.0500   -3.3360   19.3370 C   0  0  0  0  0  0  0  0  0  0  0  0
    6.3890   -4.1540   20.3570 C   0  0  0  0  0  0  0  0  0  0  0  0
    5.4340   -4.8740   20.0020 O   0  0  0  0  0  0  0  0  0  0  0  0
    6.8370   -4.1740   21.7010 N   0  0  0  0  0  0  0  0  0  0  0  0
    7.7150   -3.1370   22.2290 C   0  0  0  0  0  0  0  0  0  0  0  0
    7.5000   -3.0440   23.7270 C   0  0  0  0  0  0  0  0  0  0  0  0
    6.1780   -3.6190   24.1400 C   0  0  0  0  0  0  0  0  0  0  0  0
    5.6440   -3.2330   25.4930 C   0  0  0  0  0  0  0  0  0  0  0  0
    4.3860   -3.2290   25.6390 O   0  0  0  0  0  0  0  0  0  0  0  0
    6.3860   -2.8380   26.6650 N   0  0  0  0  0  0  0  0  0  0  0  0
    6.2640   -3.6270   27.9290 C   0  0  0  0  0  0  0  0  0  0  0  0
    5.8580   -5.0400   27.7140 C   0  0  0  0  0  0  0  0  0  0  0  0
    4.5230   -5.1290   28.0950 F   0  0  0  0  0  0  0  0  0  0  0  0
    5.8310   -5.3930   26.3570 F   0  0  0  0  0  0  0  0  0  0  0  0
    6.6380   -5.9560   28.3410 F   0  0  0  0  0  0  0  0  0  0  0  0
    6.5440   -1.3750   26.8840 C   0  0  1  0  0  0  0  0  0  0  0  0
    5.3790   -0.6010   26.3010 C   0  0  0  0  0  0  0  0  0  0  0  0
    5.4370    0.8740   26.7130 C   0  0  0  0  0  0  0  0  0  0  0  0
    5.1300    0.9100   28.1650 C   0  0  0  0  0  0  0  0  0  0  0  0
    6.1560    0.2880   28.7470 C   0  0  0  0  0  0  0  0  0  0  0  0
    6.6360    0.6850   30.0050 C   0  0  0  0  0  0  0  0  0  0  0  0
    7.7830    0.0580   30.7010 C   0  0  0  0  0  0  0  0  0  0  0  0
    8.4590   -1.0730   29.9980 C   0  0  0  0  0  0  0  0  0  0  0  0
    7.9410   -1.4550   28.7520 N   0  0  0  0  0  0  0  0  0  0  0  0
    6.8580   -0.7720   28.2140 C   0  0  0  0  0  0  0  0  0  0  0  0
    6.2040   -5.0930   23.8560 C   0  0  0  0  0  0  0  0  0  0  0  0
    6.5500   -5.3710   22.4360 C   0  0  0  0  0  0  0  0  0  0  0  0
  1  2  1  0
  2  3  2  0
  2  4  1  0
  4  5  1  0
  5  6  1  0
  6  7  1  0
  7  8  1  0
  8  9  2  0
  8 10  1  0
 10 11  1  0
 11 12  1  0
 12 13  1  0
 12 14  1  0
 12 15  1  0
 16 10  1  1
 16 17  1  0
 17 18  1  0
 18 19  1  0
 19 20  1  0
 20 21  2  0
 21 22  1  0
 22 23  2  0
 23 24  1  0
 16 25  1  0
 20 25  1  0
 24 25  2  0
  7 26  1  0
  4 27  1  0
 26 27  1  0
M  END
