piperidine-amides-35325-covalent
     RDKit          3D

 26 28  0  0  0  0  0  0  0  0999 V2000
    7.0650   -3.3390   19.2790 C   0  0  0  0  0  0  0  0  0  0  0  0
    6.3880   -4.1910   20.2870 C   0  0  0  0  0  0  0  0  0  0  0  0
    5.3480   -4.7470   19.9490 O   0  0  0  0  0  0  0  0  0  0  0  0
    6.9680   -4.3790   21.5380 N   0  0  0  0  0  0  0  0  0  0  0  0
    6.6770   -5.5350   22.3360 C   0  0  0  0  0  0  0  0  0  0  0  0
    5.9300   -5.1000   23.5620 C   0  0  0  0  0  0  0  0  0  0  0  0
    6.6850   -3.9750   24.2820 C   0  0  0  0  0  0  0  0  0  0  0  0
    5.8680   -3.5710   25.4260 C   0  0  0  0  0  0  0  0  0  0  0  0
    4.8070   -2.9590   25.2330 O   0  0  0  0  0  0  0  0  0  0  0  0
    6.2790   -3.8880   26.7200 N   0  0  0  0  0  0  0  0  0  0  0  0
    7.0210   -5.1170   26.8750 C   0  0  0  0  0  0  0  0  0  0  0  0
    6.9480   -5.2050   28.3510 C   0  0  0  0  0  0  0  0  0  0  0  0
    6.0430   -4.3210   28.8550 C   0  0  0  0  0  0  0  0  0  0  0  0
    5.4390   -3.6180   27.8550 C   0  0  1  0  0  0  0  0  0  0  0  0
    5.1450   -2.3160   28.1480 C   0  0  0  0  0  0  0  0  0  0  0  0
    3.9140   -1.7790   28.3510 O   0  0  0  0  0  0  0  0  0  0  0  0
    6.1670   -1.4960   28.2500 N   0  0  0  0  0  0  0  0  0  0  0  0
    6.0590   -0.5640   29.3900 C   0  0  0  0  0  0  0  0  0  0  0  0
    5.3720   -1.1060   30.6120 C   0  0  0  0  0  0  0  0  0  0  0  0
    5.1930   -0.2580   31.8630 C   0  0  0  0  0  0  0  0  0  0  0  0
    5.7100    1.1470   31.8870 C   0  0  0  0  0  0  0  0  0  0  0  0
    5.5540    2.4730   33.5360 I   0  0  0  0  0  0  0  0  0  0  0  0
    6.3720    1.6120   30.6480 C   0  0  0  0  0  0  0  0  0  0  0  0
    6.5870    0.8410   29.3750 C   0  0  0  0  0  0  0  0  0  0  0  0
    6.8670   -2.8040   23.3490 C   0  0  0  0  0  0  0  0  0  0  0  0
    7.6750   -3.3040   22.2000 C   0  0  0  0  0  0  0  0  0  0  0  0
  1  2  1  0
  2  3  2  0
  2  4  1  0
  4  5  1  0
  5  6  1  0
  6  7  1  0
  7  8  1  0
  8  9  2  0
  8 10  1  0
 10 11  1  0
 11 12  1  0
 12 13  1  0
 10 14  1  0
 13 14  1  0
 14 15  1  1
 15 16  2  0
 15 17  1  0
 17 18  1  0
 18 19  2  0
 19 20  1  0
 20 21  2  0
 21 22  1  0
 21 23  1  0
 18 24  1  0
 23 24  2  0
  7 25  1  0
  4 26  1  0
 25 26  1  0
M  END
