piperidine-amides-32691-covalent
     RDKit          3D

 29 32  0  0  0  0  0  0  0  0999 V2000
    7.1260   -3.3720   19.3800 C   0  0  0  0  0  0  0  0  0  0  0  0
    6.4060   -4.2330   20.3470 C   0  0  0  0  0  0  0  0  0  0  0  0
    5.3630   -4.8040   19.9790 O   0  0  0  0  0  0  0  0  0  0  0  0
    6.9670   -4.4280   21.6300 N   0  0  0  0  0  0  0  0  0  0  0  0
    6.6000   -5.5220   22.4710 C   0  0  0  0  0  0  0  0  0  0  0  0
    5.7470   -4.9150   23.5910 C   0  0  0  0  0  0  0  0  0  0  0  0
    6.4940   -3.7840   24.2540 C   0  0  0  0  0  0  0  0  0  0  0  0
    5.6790   -3.1380   25.3160 C   0  0  0  0  0  0  0  0  0  0  0  0
    4.7900   -2.3850   24.9180 O   0  0  0  0  0  0  0  0  0  0  0  0
    5.8840   -3.3890   26.6760 N   0  0  0  0  0  0  0  0  0  0  0  0
    6.4680   -2.6710   27.6630 C   0  0  0  0  0  0  0  0  0  0  0  0
    6.5480   -3.5580   28.6940 C   0  0  0  0  0  0  0  0  0  0  0  0
    5.6120   -4.6110   28.4890 C   0  0  2  0  0  0  0  0  0  0  0  0
    4.6430   -4.6690   29.4610 C   0  0  0  0  0  0  0  0  0  0  0  0
    4.3140   -5.9010   29.9590 N   0  0  0  0  0  0  0  0  0  0  0  0
    5.1720   -6.6330   30.6820 C   0  0  0  0  0  0  0  0  0  0  0  0
    4.8230   -6.8560   32.1570 C   0  0  0  0  0  0  0  0  0  0  0  0
    5.6150   -7.9740   32.7640 C   0  0  0  0  0  0  0  0  0  0  0  0
    5.3920   -8.2700   34.0930 C   0  0  0  0  0  0  0  0  0  0  0  0
    4.4140   -7.5640   35.0020 C   0  0  0  0  0  0  0  0  0  0  0  0
    3.6800   -6.4450   34.2320 C   0  0  0  0  0  0  0  0  0  0  0  0
    3.8530   -6.1000   32.9190 C   0  0  0  0  0  0  0  0  0  0  0  0
    3.8340   -6.7260   28.9150 C   0  0  0  0  0  0  0  0  0  0  0  0
    5.0140   -6.8070   28.0070 C   0  0  1  0  0  0  0  0  0  0  0  0
    4.6880   -6.6910   26.5130 C   0  0  0  0  0  0  0  0  0  0  0  0
    6.0520   -5.9140   28.3550 O   0  0  0  0  0  0  0  0  0  0  0  0
    5.0810   -4.4380   27.1870 C   0  0  0  0  0  0  0  0  0  0  0  0
    7.0100   -2.7470   23.2680 C   0  0  0  0  0  0  0  0  0  0  0  0
    7.7080   -3.3630   22.2780 C   0  0  0  0  0  0  0  0  0  0  0  0
  1  2  1  0
  2  3  2  0
  2  4  1  0
  4  5  1  0
  5  6  1  0
  6  7  1  0
  7  8  1  0
  8  9  2  0
  8 10  1  0
 10 11  1  0
 11 12  1  0
 13 12  1  1
 13 14  1  0
 14 15  1  0
 15 16  1  0
 16 17  1  0
 17 18  2  0
 18 19  1  0
 19 20  2  0
 20 21  1  0
 17 22  1  0
 21 22  2  0
 15 23  1  0
 23 24  1  0
 24 25  1  6
 13 26  1  0
 24 26  1  0
 10 27  1  0
 13 27  1  0
  7 28  1  0
  4 29  1  0
 28 29  1  0
M  END
