piperidine-amides-9198-covalent
     RDKit          3D

 20 21  0  0  0  0  0  0  0  0999 V2000
    7.1000   -3.2950   19.2180 C   0  0  0  0  0  0  0  0  0  0  0  0
    6.3830   -4.0610   20.2380 C   0  0  0  0  0  0  0  0  0  0  0  0
    5.3400   -4.6640   19.9310 O   0  0  0  0  0  0  0  0  0  0  0  0
    6.8840   -4.1670   21.5470 N   0  0  0  0  0  0  0  0  0  0  0  0
    7.6660   -3.1080   22.1260 C   0  0  0  0  0  0  0  0  0  0  0  0
    6.8790   -2.7130   23.3330 C   0  0  0  0  0  0  0  0  0  0  0  0
    6.6310   -3.8990   24.2140 C   0  0  0  0  0  0  0  0  0  0  0  0
    5.8930   -3.5160   25.4380 C   0  0  0  0  0  0  0  0  0  0  0  0
    4.6600   -3.2190   25.3740 O   0  0  0  0  0  0  0  0  0  0  0  0
    6.5120   -3.4360   26.7020 N   0  0  0  0  0  0  0  0  0  0  0  0
    6.6090   -4.6140   27.6060 C   0  0  2  0  0  0  0  0  0  0  0  0
    7.5210   -5.6320   27.0410 C   0  0  0  0  0  0  0  0  0  0  0  0
    5.2460   -5.3030   27.7600 C   0  0  0  0  0  0  0  0  0  0  0  0
    3.8920   -5.4650   27.2170 N   0  0  0  0  0  0  0  0  0  0  0  0
    3.1130   -6.3210   27.9320 N   0  0  0  0  0  0  0  0  0  0  0  0
    3.7520   -6.8770   29.0410 C   0  0  0  0  0  0  0  0  0  0  0  0
    3.3620   -7.8420   30.1350 C   0  0  0  0  0  0  0  0  0  0  0  0
    5.4160   -6.2730   29.1520 S   0  0  0  0  0  0  0  0  0  0  0  0
    5.8420   -4.9280   23.4560 C   0  0  0  0  0  0  0  0  0  0  0  0
    6.4920   -5.3150   22.3020 C   0  0  0  0  0  0  0  0  0  0  0  0
  1  2  1  0
  2  3  2  0
  2  4  1  0
  4  5  1  0
  5  6  1  0
  6  7  1  0
  7  8  1  0
  8  9  2  0
  8 10  1  0
 10 11  1  0
 11 12  1  6
 11 13  1  0
 13 14  2  0
 14 15  1  0
 15 16  2  0
 16 17  1  0
 13 18  1  0
 16 18  1  0
  7 19  1  0
  4 20  1  0
 19 20  1  0
M  END
