piperidine-amides-35456-covalent
     RDKit          3D

 34 38  0  0  0  0  0  0  0  0999 V2000
    7.1290   -3.3410   19.3100 C   0  0  0  0  0  0  0  0  0  0  0  0
    6.4090   -4.1590   20.3170 C   0  0  0  0  0  0  0  0  0  0  0  0
    5.3720   -4.7160   19.9500 O   0  0  0  0  0  0  0  0  0  0  0  0
    6.9450   -4.3090   21.6000 N   0  0  0  0  0  0  0  0  0  0  0  0
    6.6520   -5.4670   22.4020 C   0  0  0  0  0  0  0  0  0  0  0  0
    5.9740   -5.0250   23.6700 C   0  0  0  0  0  0  0  0  0  0  0  0
    6.6650   -3.7760   24.2350 C   0  0  0  0  0  0  0  0  0  0  0  0
    5.8220   -3.2130   25.3120 C   0  0  0  0  0  0  0  0  0  0  0  0
    5.0500   -2.2860   25.0500 O   0  0  0  0  0  0  0  0  0  0  0  0
    5.8430   -3.7240   26.6190 N   0  0  0  0  0  0  0  0  0  0  0  0
    4.7500   -4.5470   26.9860 C   0  0  0  0  0  0  0  0  0  0  0  0
    5.3480   -5.7820   27.6060 C   0  0  0  0  0  0  0  0  0  0  0  0
    6.1520   -5.3910   28.7580 N   0  0  0  0  0  0  0  0  0  0  0  0
    5.3950   -5.8920   29.9120 C   0  0  0  0  0  0  0  0  0  0  0  0
    5.8940   -7.0680   30.3500 C   0  0  0  0  0  0  0  0  0  0  0  0
    5.5590   -7.6300   31.5420 N   0  0  0  0  0  0  0  0  0  0  0  0
    4.6740   -6.9500   32.2840 N   0  0  0  0  0  0  0  0  0  0  0  0
    4.0180   -7.9020   32.9810 C   0  0  0  0  0  0  0  0  0  0  0  0
    2.7770   -8.3380   32.6830 N   0  0  0  0  0  0  0  0  0  0  0  0
    2.3190   -9.3500   33.5580 C   0  0  0  0  0  0  0  0  0  0  0  0
    1.0520  -10.1830   33.6980 C   0  0  0  0  0  0  0  0  0  0  0  0
    0.9900  -11.2010   34.8300 C   0  0  0  0  0  0  0  0  0  0  0  0
    2.1460  -11.3450   35.7490 C   0  0  0  0  0  0  0  0  0  0  0  0
    3.3410  -10.5170   35.5720 C   0  0  0  0  0  0  0  0  0  0  0  0
    3.4930   -9.4930   34.4880 C   0  0  0  0  0  0  0  0  0  0  0  0
    4.4330   -8.6070   34.0720 N   0  0  0  0  0  0  0  0  0  0  0  0
    3.8150   -6.1600   31.7120 C   0  0  0  0  0  0  0  0  0  0  0  0
    2.4690   -5.9770   32.0710 O   0  0  0  0  0  0  0  0  0  0  0  0
    4.3100   -5.3580   30.5490 C   0  0  0  0  0  0  0  0  0  0  0  0
    3.5850   -3.8440   30.0360 Cl  0  0  0  0  0  0  0  0  0  0  0  0
    6.5760   -4.0350   28.7740 C   0  0  0  0  0  0  0  0  0  0  0  0
    6.3650   -2.9900   27.7040 C   0  0  0  0  0  0  0  0  0  0  0  0
    6.8600   -2.6580   23.2190 C   0  0  0  0  0  0  0  0  0  0  0  0
    7.7530   -3.2350   22.1470 C   0  0  0  0  0  0  0  0  0  0  0  0
  1  2  1  0
  2  3  2  0
  2  4  1  0
  4  5  1  0
  5  6  1  0
  6  7  1  0
  7  8  1  0
  8  9  2  0
  8 10  1  0
 10 11  1  0
 11 12  1  0
 12 13  1  0
 13 14  1  0
 14 15  1  0
 15 16  2  0
 16 17  1  0
 17 18  1  0
 18 19  2  0
 19 20  1  0
 20 21  2  0
 21 22  1  0
 22 23  2  0
 23 24  1  0
 20 25  1  0
 24 25  2  0
 18 26  1  0
 25 26  1  0
 17 27  1  0
 27 28  2  0
 14 29  2  0
 27 29  1  0
 29 30  1  0
 13 31  1  0
 10 32  1  0
 31 32  1  0
  7 33  1  0
  4 34  1  0
 33 34  1  0
M  END
