piperidine-amides-28748-covalent
     RDKit          3D

 26 28  0  0  0  0  0  0  0  0999 V2000
    7.0640   -3.3550   19.3650 C   0  0  0  0  0  0  0  0  0  0  0  0
    6.4230   -4.2190   20.3510 C   0  0  0  0  0  0  0  0  0  0  0  0
    5.4080   -4.8510   19.9930 O   0  0  0  0  0  0  0  0  0  0  0  0
    6.9900   -4.3580   21.6510 N   0  0  0  0  0  0  0  0  0  0  0  0
    6.5300   -5.3960   22.5120 C   0  0  0  0  0  0  0  0  0  0  0  0
    5.6880   -4.7880   23.6030 C   0  0  0  0  0  0  0  0  0  0  0  0
    6.4900   -3.7040   24.3260 C   0  0  0  0  0  0  0  0  0  0  0  0
    5.6580   -3.0930   25.4230 C   0  0  0  0  0  0  0  0  0  0  0  0
    4.5790   -2.6420   25.0520 O   0  0  0  0  0  0  0  0  0  0  0  0
    6.1130   -3.0720   26.7460 N   0  0  0  0  0  0  0  0  0  0  0  0
    6.0850   -4.3030   27.4870 C   0  0  0  0  0  0  0  0  0  0  0  0
    5.0260   -4.6400   28.3360 C   0  0  0  0  0  0  0  0  0  0  0  0
    5.2270   -5.6490   29.2830 C   0  0  0  0  0  0  0  0  0  0  0  0
    4.3030   -6.1500   30.2320 C   0  0  0  0  0  0  0  0  0  0  0  0
    4.5360   -7.1450   31.1500 F   0  0  0  0  0  0  0  0  0  0  0  0
    2.9660   -5.4670   30.1530 C   0  0  0  0  0  0  0  0  0  0  0  0
    2.7110   -4.3660   29.1340 C   0  0  0  0  0  0  0  0  0  0  0  0
    3.8110   -4.0120   28.2520 C   0  0  0  0  0  0  0  0  0  0  0  0
    3.6340   -3.0350   27.3190 F   0  0  0  0  0  0  0  0  0  0  0  0
    5.9900   -1.8240   27.5070 C   0  0  0  0  0  0  0  0  0  0  0  0
    5.7960   -0.5750   26.6290 C   0  0  0  0  0  0  0  0  0  0  0  0
    5.9610    0.4570   27.4760 C   0  0  0  0  0  0  0  0  0  0  0  0
    6.3960   -0.0300   28.6850 C   0  0  0  0  0  0  0  0  0  0  0  0
    6.8850   -1.4770   28.5550 C   0  0  0  0  0  0  0  0  0  0  0  0
    6.9150   -2.6250   23.3250 C   0  0  0  0  0  0  0  0  0  0  0  0
    7.7310   -3.2950   22.2490 C   0  0  0  0  0  0  0  0  0  0  0  0
  1  2  1  0
  2  3  2  0
  2  4  1  0
  4  5  1  0
  5  6  1  0
  6  7  1  0
  7  8  1  0
  8  9  2  0
  8 10  1  0
 10 11  1  0
 11 12  1  0
 12 13  2  0
 13 14  1  0
 14 15  1  0
 14 16  2  0
 16 17  1  0
 12 18  1  0
 17 18  2  0
 18 19  1  0
 10 20  1  0
 20 21  1  0
 21 22  1  0
 22 23  1  0
 20 24  1  0
 23 24  1  0
  7 25  1  0
  4 26  1  0
 25 26  1  0
M  END
