piperidine-amides-32475-covalent
     RDKit          3D

 24 26  0  0  0  0  0  0  0  0999 V2000
    7.0460   -3.3700   19.4110 C   0  0  0  0  0  0  0  0  0  0  0  0
    6.3230   -4.2310   20.3890 C   0  0  0  0  0  0  0  0  0  0  0  0
    5.3420   -4.8770   19.9870 O   0  0  0  0  0  0  0  0  0  0  0  0
    6.7870   -4.3280   21.7250 N   0  0  0  0  0  0  0  0  0  0  0  0
    6.5450   -5.5250   22.5070 C   0  0  0  0  0  0  0  0  0  0  0  0
    6.1190   -5.1510   23.9530 C   0  0  0  0  0  0  0  0  0  0  0  0
    5.9400   -3.6650   24.0810 C   0  0  0  0  0  0  0  0  0  0  0  0
    5.1630   -3.1900   25.2850 C   0  0  0  0  0  0  0  0  0  0  0  0
    4.3380   -2.3190   25.0320 O   0  0  0  0  0  0  0  0  0  0  0  0
    5.3300   -3.6740   26.6040 N   0  0  0  0  0  0  0  0  0  0  0  0
    6.4530   -4.2950   26.9980 C   0  0  0  0  0  0  0  0  0  0  0  0
    6.5130   -4.5860   28.2830 C   0  0  0  0  0  0  0  0  0  0  0  0
    5.4010   -3.9550   28.7850 C   0  0  0  0  0  0  0  0  0  0  0  0
    4.6830   -3.2380   27.8050 C   0  0  1  0  0  0  0  0  0  0  0  0
    4.3970   -1.8190   28.1450 C   0  0  0  0  0  0  0  0  0  0  0  0
    5.3520   -0.8790   28.8670 C   0  0  0  0  0  0  0  0  0  0  0  0
    4.8400    0.5200   29.1080 C   0  0  0  0  0  0  0  0  0  0  0  0
    3.5870    0.9260   28.7060 C   0  0  0  0  0  0  0  0  0  0  0  0
    3.1340    2.7380   29.1090 Br  0  0  0  0  0  0  0  0  0  0  0  0
    2.5390    0.1260   27.9910 C   0  0  0  0  0  0  0  0  0  0  0  0
    1.3230    0.5890   27.6240 F   0  0  0  0  0  0  0  0  0  0  0  0
    3.0570   -1.3000   27.7410 C   0  0  0  0  0  0  0  0  0  0  0  0
    7.2400   -3.0430   23.7880 C   0  0  0  0  0  0  0  0  0  0  0  0
    7.5750   -3.2740   22.3080 C   0  0  0  0  0  0  0  0  0  0  0  0
  1  2  1  0
  2  3  2  0
  2  4  1  0
  4  5  1  0
  5  6  1  0
  6  7  1  0
  7  8  1  0
  8  9  2  0
  8 10  1  0
 10 11  1  0
 11 12  1  0
 12 13  1  0
 10 14  1  0
 13 14  1  0
 14 15  1  1
 15 16  2  0
 16 17  1  0
 17 18  2  0
 18 19  1  0
 18 20  1  0
 20 21  1  0
 15 22  1  0
 20 22  2  0
  7 23  1  0
  4 24  1  0
 23 24  1  0
M  END
