piperidine-amides-29882-covalent
     RDKit          3D

 27 29  0  0  0  0  0  0  0  0999 V2000
    7.0630   -3.3360   19.3890 C   0  0  0  0  0  0  0  0  0  0  0  0
    6.3820   -4.1850   20.3610 C   0  0  0  0  0  0  0  0  0  0  0  0
    5.4200   -4.8650   19.9980 O   0  0  0  0  0  0  0  0  0  0  0  0
    6.8570   -4.2650   21.7260 N   0  0  0  0  0  0  0  0  0  0  0  0
    7.7370   -3.2330   22.2500 C   0  0  0  0  0  0  0  0  0  0  0  0
    7.4700   -2.9850   23.7130 C   0  0  0  0  0  0  0  0  0  0  0  0
    6.1200   -3.6000   23.9870 C   0  0  0  0  0  0  0  0  0  0  0  0
    5.5100   -3.2070   25.3030 C   0  0  0  0  0  0  0  0  0  0  0  0
    4.2900   -2.9830   25.3790 O   0  0  0  0  0  0  0  0  0  0  0  0
    6.2690   -3.0650   26.4970 N   0  0  0  0  0  0  0  0  0  0  0  0
    6.1280   -4.1530   27.4430 C   0  0  0  0  0  0  0  0  0  0  0  0
    4.7810   -4.0320   28.1060 C   0  0  0  0  0  0  0  0  0  0  0  0
    3.9350   -4.9380   28.3680 C   0  0  0  0  0  0  0  0  0  0  0  0
    4.8460   -4.8750   29.4720 C   0  0  0  0  0  0  0  0  0  0  0  0
    6.3190   -1.7750   27.1440 C   0  0  0  0  0  0  0  0  0  0  0  0
    5.7640   -0.4880   26.7000 C   0  0  0  0  0  0  0  0  0  0  0  0
    5.8240    0.7270   27.3640 C   0  0  0  0  0  0  0  0  0  0  0  0
    6.4500    0.8680   28.5900 C   0  0  0  0  0  0  0  0  0  0  0  0
    6.5520    2.0520   29.3210 C   0  0  0  0  0  0  0  0  0  0  0  0
    7.3000    3.0650   28.7940 O   0  0  0  0  0  0  0  0  0  0  0  0
    5.8810    2.1250   30.5310 O   0  0  0  0  0  0  0  0  0  0  0  0
    4.5220    2.3980   30.6650 C   0  0  0  0  0  0  0  0  0  0  0  0
    4.1660    3.5260   29.9440 C   0  0  0  0  0  0  0  0  0  0  0  0
    7.0610   -0.3420   29.1620 C   0  0  0  0  0  0  0  0  0  0  0  0
    6.9790   -1.6290   28.4270 C   0  0  0  0  0  0  0  0  0  0  0  0
    6.0920   -5.0910   23.8670 C   0  0  0  0  0  0  0  0  0  0  0  0
    6.6340   -5.4620   22.4930 C   0  0  0  0  0  0  0  0  0  0  0  0
  1  2  1  0
  2  3  2  0
  2  4  1  0
  4  5  1  0
  5  6  1  0
  6  7  1  0
  7  8  1  0
  8  9  2  0
  8 10  1  0
 10 11  1  0
 11 12  1  0
 12 13  1  0
 12 14  1  0
 13 14  1  0
 10 15  1  0
 15 16  2  0
 16 17  1  0
 17 18  2  0
 18 19  1  0
 19 20  2  0
 19 21  1  0
 21 22  1  0
 22 23  1  0
 18 24  1  0
 15 25  1  0
 24 25  2  0
  7 26  1  0
  4 27  1  0
 26 27  1  0
M  END
