piperidine-amides-29939-covalent
     RDKit          3D

 27 28  0  0  0  0  0  0  0  0999 V2000
    7.1150   -3.2990   19.1790 C   0  0  0  0  0  0  0  0  0  0  0  0
    6.3880   -4.0590   20.1890 C   0  0  0  0  0  0  0  0  0  0  0  0
    5.3190   -4.5940   19.9070 O   0  0  0  0  0  0  0  0  0  0  0  0
    6.9580   -4.2380   21.4930 N   0  0  0  0  0  0  0  0  0  0  0  0
    7.7460   -3.1990   22.0960 C   0  0  0  0  0  0  0  0  0  0  0  0
    6.9960   -2.6030   23.2420 C   0  0  0  0  0  0  0  0  0  0  0  0
    6.4980   -3.7350   24.1190 C   0  0  0  0  0  0  0  0  0  0  0  0
    5.5310   -3.1680   25.0770 C   0  0  0  0  0  0  0  0  0  0  0  0
    4.4800   -2.6130   24.7200 O   0  0  0  0  0  0  0  0  0  0  0  0
    5.8210   -3.2850   26.4360 N   0  0  0  0  0  0  0  0  0  0  0  0
    6.4520   -2.1460   27.0660 C   0  0  0  0  0  0  0  0  0  0  0  0
    5.3980   -1.0840   27.1960 C   0  0  0  0  0  0  0  0  0  0  0  0
    4.0380   -1.3730   27.0120 C   0  0  0  0  0  0  0  0  0  0  0  0
    3.0510   -0.3780   27.1310 C   0  0  0  0  0  0  0  0  0  0  0  0
    3.4330    0.9020   27.4360 C   0  0  0  0  0  0  0  0  0  0  0  0
    4.8310    1.1830   27.6220 C   0  0  0  0  0  0  0  0  0  0  0  0
    5.7750    0.2080   27.5020 C   0  0  0  0  0  0  0  0  0  0  0  0
    5.9650   -4.6070   26.9880 C   0  0  2  0  0  0  0  0  0  0  0  0
    5.0910   -5.3120   27.7600 C   0  0  0  0  0  0  0  0  0  0  0  0
    6.1610   -4.6920   28.4430 C   0  0  0  0  0  0  0  0  0  0  0  0
    5.3780   -3.8000   29.1880 C   0  0  0  0  0  0  0  0  0  0  0  0
    4.2120   -4.3050   29.8010 C   0  0  0  0  0  0  0  0  0  0  0  0
    4.1160   -5.7550   30.1770 C   0  0  0  0  0  0  0  0  0  0  0  0
    5.3900   -6.4770   30.6250 C   0  0  0  0  0  0  0  0  0  0  0  0
    5.9070   -7.6420   29.8260 C   0  0  0  0  0  0  0  0  0  0  0  0
    5.8360   -4.8920   23.4360 C   0  0  0  0  0  0  0  0  0  0  0  0
    6.5060   -5.3190   22.2980 C   0  0  0  0  0  0  0  0  0  0  0  0
  1  2  1  0
  2  3  2  0
  2  4  1  0
  4  5  1  0
  5  6  1  0
  6  7  1  0
  7  8  1  0
  8  9  2  0
  8 10  1  0
 10 11  1  0
 11 12  1  0
 12 13  2  0
 13 14  1  0
 14 15  2  0
 15 16  1  0
 12 17  1  0
 16 17  2  0
 10 18  1  0
 18 19  1  1
 18 20  1  0
 20 21  1  0
 21 22  1  0
 22 23  1  0
 23 24  1  0
 24 25  1  0
  7 26  1  0
  4 27  1  0
 26 27  1  0
M  END
