piperidine-amides-10643-covalent
     RDKit          3D

 23 24  0  0  0  0  0  0  0  0999 V2000
    7.1040   -3.3270   19.2760 C   0  0  0  0  0  0  0  0  0  0  0  0
    6.3500   -4.0820   20.2790 C   0  0  0  0  0  0  0  0  0  0  0  0
    5.2760   -4.6150   19.9030 O   0  0  0  0  0  0  0  0  0  0  0  0
    6.8600   -4.2260   21.5670 N   0  0  0  0  0  0  0  0  0  0  0  0
    7.7120   -3.2060   22.1340 C   0  0  0  0  0  0  0  0  0  0  0  0
    7.0430   -2.6830   23.3610 C   0  0  0  0  0  0  0  0  0  0  0  0
    6.6020   -3.8230   24.2200 C   0  0  0  0  0  0  0  0  0  0  0  0
    5.8360   -3.3030   25.3740 C   0  0  0  0  0  0  0  0  0  0  0  0
    4.6180   -3.0580   25.2190 O   0  0  0  0  0  0  0  0  0  0  0  0
    6.4190   -3.0750   26.6300 N   0  0  0  0  0  0  0  0  0  0  0  0
    6.4210   -1.7700   27.2510 C   0  0  0  0  0  0  0  0  0  0  0  0
    5.8400   -0.5430   26.5840 C   0  0  0  0  0  0  0  0  0  0  0  0
    5.8690    0.6630   27.2450 C   0  0  0  0  0  0  0  0  0  0  0  0
    6.4320    0.7400   28.5110 C   0  0  0  0  0  0  0  0  0  0  0  0
    7.0020   -0.3110   29.2310 C   0  0  0  0  0  0  0  0  0  0  0  0
    7.5230   -0.0770   30.4870 O   0  0  0  0  0  0  0  0  0  0  0  0
    6.7910    0.7200   31.3960 C   0  0  1  0  0  0  0  0  0  0  0  0
    5.7120    0.2470   32.1130 C   0  0  0  0  0  0  0  0  0  0  0  0
    6.8590    0.4980   32.9260 C   0  0  0  0  0  0  0  0  0  0  0  0
    8.2450    0.2380   33.5130 C   0  0  0  0  0  0  0  0  0  0  0  0
    6.9940   -1.5350   28.6070 C   0  0  0  0  0  0  0  0  0  0  0  0
    5.7530   -4.8160   23.4760 C   0  0  0  0  0  0  0  0  0  0  0  0
    6.4850   -5.3450   22.4320 C   0  0  0  0  0  0  0  0  0  0  0  0
  1  2  1  0
  2  3  2  0
  2  4  1  0
  4  5  1  0
  5  6  1  0
  6  7  1  0
  7  8  1  0
  8  9  2  0
  8 10  1  0
 10 11  1  0
 11 12  2  0
 12 13  1  0
 13 14  2  0
 14 15  1  0
 15 16  1  0
 16 17  1  0
 17 18  1  6
 17 19  1  0
 19 20  1  0
 11 21  1  0
 15 21  2  0
  7 22  1  0
  4 23  1  0
 22 23  1  0
M  END
