piperidine-amides-11384-covalent
     RDKit          3D

 24 26  0  0  0  0  0  0  0  0999 V2000
    7.1320   -3.2650   19.1890 C   0  0  0  0  0  0  0  0  0  0  0  0
    6.3720   -3.9990   20.2020 C   0  0  0  0  0  0  0  0  0  0  0  0
    5.2970   -4.5310   19.8870 O   0  0  0  0  0  0  0  0  0  0  0  0
    6.8650   -4.1590   21.5040 N   0  0  0  0  0  0  0  0  0  0  0  0
    7.7160   -3.1860   22.1420 C   0  0  0  0  0  0  0  0  0  0  0  0
    6.9700   -2.7370   23.3630 C   0  0  0  0  0  0  0  0  0  0  0  0
    6.4810   -3.8950   24.1810 C   0  0  0  0  0  0  0  0  0  0  0  0
    5.6360   -3.4850   25.3270 C   0  0  0  0  0  0  0  0  0  0  0  0
    4.3940   -3.3180   25.1490 O   0  0  0  0  0  0  0  0  0  0  0  0
    6.1380   -3.2820   26.6370 N   0  0  0  0  0  0  0  0  0  0  0  0
    5.5680   -2.2590   27.5540 C   0  0  0  0  0  0  0  0  0  0  0  0
    5.8020   -2.5670   28.9890 C   0  0  0  0  0  0  0  0  0  0  0  0
    6.1240   -1.3790   29.5210 N   0  0  0  0  0  0  0  0  0  0  0  0
    5.3880   -0.3720   30.1720 C   0  0  0  0  0  0  0  0  0  0  0  0
    6.3910    0.6560   30.4880 C   0  0  0  0  0  0  0  0  0  0  0  0
    7.6570    0.2660   30.0340 N   0  0  0  0  0  0  0  0  0  0  0  0
    7.5470   -0.9550   29.4510 C   0  0  0  0  0  0  0  0  0  0  0  0
    4.1240   -1.9130   27.3090 C   0  0  0  0  0  0  0  0  0  0  0  0
    4.4370   -0.6600   26.9080 C   0  0  0  0  0  0  0  0  0  0  0  0
    4.0800   -0.2490   25.6570 F   0  0  0  0  0  0  0  0  0  0  0  0
    3.7670    0.2170   27.7350 F   0  0  0  0  0  0  0  0  0  0  0  0
    5.7990   -0.8280   27.0790 C   0  0  0  0  0  0  0  0  0  0  0  0
    5.6660   -4.9190   23.3780 C   0  0  0  0  0  0  0  0  0  0  0  0
    6.5430   -5.3650   22.2150 C   0  0  0  0  0  0  0  0  0  0  0  0
  1  2  1  0
  2  3  2  0
  2  4  1  0
  4  5  1  0
  5  6  1  0
  6  7  1  0
  7  8  1  0
  8  9  2  0
  8 10  1  0
 11 10  1  0
 11 12  1  0
 12 13  1  0
 13 14  1  0
 14 15  2  0
 15 16  1  0
 13 17  1  0
 16 17  2  0
 11 18  1  0
 18 19  1  0
 19 20  1  0
 19 21  1  0
 11 22  1  0
 19 22  1  0
  7 23  1  0
  4 24  1  0
 23 24  1  0
M  END
