piperidine-amides-7219-covalent
     RDKit          3D

 21 22  0  0  0  0  0  0  0  0999 V2000
    7.0410   -3.3300   19.3540 C   0  0  0  0  0  0  0  0  0  0  0  0
    6.3740   -4.1630   20.3590 C   0  0  0  0  0  0  0  0  0  0  0  0
    5.3580   -4.7950   19.9700 O   0  0  0  0  0  0  0  0  0  0  0  0
    6.8760   -4.2850   21.6630 N   0  0  0  0  0  0  0  0  0  0  0  0
    6.6460   -5.4620   22.4590 C   0  0  0  0  0  0  0  0  0  0  0  0
    5.9220   -5.0640   23.7190 C   0  0  0  0  0  0  0  0  0  0  0  0
    6.0730   -3.6020   24.0950 C   0  0  0  0  0  0  0  0  0  0  0  0
    5.8510   -3.4870   25.5640 C   0  0  0  0  0  0  0  0  0  0  0  0
    5.8640   -4.5350   26.2170 O   0  0  0  0  0  0  0  0  0  0  0  0
    5.5520   -2.3050   26.2770 N   0  0  0  0  0  0  0  0  0  0  0  0
    6.5400   -1.3610   26.7560 C   0  0  0  0  0  0  0  0  0  0  0  0
    5.9510    0.0040   26.4950 C   0  0  0  0  0  0  0  0  0  0  0  0
    5.8220    0.9230   27.4980 C   0  0  0  0  0  0  0  0  0  0  0  0
    6.3340    0.6320   28.7340 N   0  0  0  0  0  0  0  0  0  0  0  0
    6.3560    1.5790   29.6890 C   0  0  0  0  0  0  0  0  0  0  0  0
    5.5220    2.6820   29.5700 C   0  0  0  0  0  0  0  0  0  0  0  0
    6.0010    3.9000   29.1150 C   0  0  0  0  0  0  0  0  0  0  0  0
    6.3080   -0.6740   29.1190 C   0  0  0  0  0  0  0  0  0  0  0  0
    7.0000   -1.5260   28.0770 C   0  0  0  0  0  0  0  0  0  0  0  0
    7.4110   -3.0580   23.7030 C   0  0  0  0  0  0  0  0  0  0  0  0
    7.6200   -3.1470   22.2080 C   0  0  0  0  0  0  0  0  0  0  0  0
  1  2  1  0
  2  3  2  0
  2  4  1  0
  4  5  1  0
  5  6  1  0
  6  7  1  0
  7  8  1  0
  8  9  2  0
  8 10  1  0
 10 11  1  0
 11 12  1  0
 12 13  1  0
 13 14  1  0
 14 15  1  0
 15 16  1  0
 16 17  3  0
 14 18  1  0
 11 19  1  0
 18 19  1  0
  7 20  1  0
  4 21  1  0
 20 21  1  0
M  END
