piperidine-amides-3730-covalent
     RDKit          3D

 26 27  0  0  0  0  0  0  0  0999 V2000
    7.2080   -3.9660   19.6130 C   0  0  0  0  0  0  0  0  0  0  0  0
    6.0250   -3.8430   20.3360 C   0  0  0  0  0  0  0  0  0  0  0  0
    4.9990   -4.0440   19.6490 O   0  0  0  0  0  0  0  0  0  0  0  0
    6.1140   -3.6410   21.7060 N   0  0  0  0  0  0  0  0  0  0  0  0
    7.2660   -2.8980   22.1190 C   0  0  0  0  0  0  0  0  0  0  0  0
    7.1130   -2.4890   23.4930 C   0  0  0  0  0  0  0  0  0  0  0  0
    5.7870   -2.9290   23.9420 C   0  0  0  0  0  0  0  0  0  0  0  0
    5.2750   -2.3230   25.2080 C   0  0  0  0  0  0  0  0  0  0  0  0
    4.0440   -2.2360   25.3430 O   0  0  0  0  0  0  0  0  0  0  0  0
    6.0910   -1.8730   26.2600 N   0  0  0  0  0  0  0  0  0  0  0  0
    6.3690   -2.7190   27.3150 C   0  0  1  0  0  0  0  0  0  0  0  0
    5.8990   -2.7220   28.7070 C   0  0  0  0  0  0  0  0  0  0  0  0
    6.2190   -4.1590   28.6890 C   0  0  0  0  0  0  0  0  0  0  0  0
    7.3790   -4.3170   27.9800 C   0  0  0  0  0  0  0  0  0  0  0  0
    7.7930   -5.7110   27.8290 C   0  0  0  0  0  0  0  0  0  0  0  0
    9.3450   -6.1060   26.7940 Br  0  0  0  0  0  0  0  0  0  0  0  0
    6.6290   -6.6010   28.6880 S   0  0  0  0  0  0  0  0  0  0  0  0
    5.6000   -5.4190   29.1890 C   0  0  0  0  0  0  0  0  0  0  0  0
    3.9840   -5.7750   30.1640 Br  0  0  0  0  0  0  0  0  0  0  0  0
    5.2760   -3.8260   27.1480 C   0  0  0  0  0  0  0  0  0  0  0  0
    4.0150   -3.2990   27.4500 O   0  0  0  0  0  0  0  0  0  0  0  0
    5.3500   -5.0020   26.7730 O   0  0  0  0  0  0  0  0  0  0  0  0
    4.1040   -5.7110   26.6500 C   0  0  0  0  0  0  0  0  0  0  0  0
    4.2570   -7.2080   26.6600 C   0  0  0  0  0  0  0  0  0  0  0  0
    5.6990   -4.4630   23.9180 C   0  0  0  0  0  0  0  0  0  0  0  0
    5.7890   -4.8540   22.4870 C   0  0  0  0  0  0  0  0  0  0  0  0
  1  2  1  0
  2  3  2  0
  2  4  1  0
  4  5  1  0
  5  6  1  0
  6  7  1  0
  7  8  1  0
  8  9  2  0
  8 10  1  0
 10 11  1  0
 11 12  1  1
 12 13  1  0
 13 14  1  0
 14 15  2  0
 15 16  1  0
 15 17  1  0
 13 18  2  0
 17 18  1  0
 18 19  1  0
 11 20  1  0
 20 21  2  0
 20 22  1  0
 22 23  1  0
 23 24  1  0
  7 25  1  0
  4 26  1  0
 25 26  1  0
M  END
