piperidine-amides-7107-covalent
     RDKit          3D

 22 24  0  0  0  0  0  0  0  0999 V2000
    7.0880   -3.3470   19.3910 C   0  0  0  0  0  0  0  0  0  0  0  0
    6.3810   -4.1670   20.3850 C   0  0  0  0  0  0  0  0  0  0  0  0
    5.4470   -4.9200   20.0110 O   0  0  0  0  0  0  0  0  0  0  0  0
    6.7750   -4.1290   21.7370 N   0  0  0  0  0  0  0  0  0  0  0  0
    7.6910   -3.0720   22.1620 C   0  0  0  0  0  0  0  0  0  0  0  0
    7.6650   -2.9290   23.6940 C   0  0  0  0  0  0  0  0  0  0  0  0
    6.2670   -3.2570   24.1460 C   0  0  0  0  0  0  0  0  0  0  0  0
    6.0600   -2.8850   25.5820 C   0  0  0  0  0  0  0  0  0  0  0  0
    5.3540   -3.6620   26.2540 O   0  0  0  0  0  0  0  0  0  0  0  0
    6.6550   -1.6630   26.1200 N   0  0  0  0  0  0  0  0  0  0  0  0
    6.3210   -0.9980   27.4270 C   0  0  1  0  0  0  0  0  0  0  0  0
    5.1360   -0.2160   27.3790 C   0  0  0  0  0  0  0  0  0  0  0  0
    4.8430   -1.4820   27.1690 O   0  0  0  0  0  0  0  0  0  0  0  0
    4.9710   -2.4800   28.0730 C   0  0  0  0  0  0  0  0  0  0  0  0
    4.1030   -2.0860   27.2610 C   0  0  0  0  0  0  0  0  0  0  0  0
    4.8880   -0.9430   26.7990 C   0  0  0  0  0  0  0  0  0  0  0  0
    6.2750   -0.5100   27.2190 C   0  0  0  0  0  0  0  0  0  0  0  0
    6.5510    0.6470   26.4950 F   0  0  0  0  0  0  0  0  0  0  0  0
    7.3360   -1.1640   28.2940 C   0  0  0  0  0  0  0  0  0  0  0  0
    6.2650   -2.0850   28.4660 C   0  0  0  0  0  0  0  0  0  0  0  0
    5.9420   -4.6900   23.9230 C   0  0  0  0  0  0  0  0  0  0  0  0
    6.4460   -5.1820   22.6360 C   0  0  0  0  0  0  0  0  0  0  0  0
  1  2  1  0
  2  3  2  0
  2  4  1  0
  4  5  1  0
  5  6  1  0
  6  7  1  0
  7  8  1  0
  8  9  2  0
  8 10  1  0
 11 10  1  6
 11 12  1  0
 12 13  1  0
 13 14  1  0
 14 15  1  0
 15 16  2  0
 16 17  1  0
 17 18  1  0
 17 19  2  0
 11 20  1  0
 14 20  2  0
 19 20  1  0
  7 21  1  0
  4 22  1  0
 21 22  1  0
M  END
