piperidine-amides-13640-covalent
     RDKit          3D

 28 30  0  0  0  0  0  0  0  0999 V2000
    7.0590   -3.3330   19.3480 C   0  0  0  0  0  0  0  0  0  0  0  0
    6.3890   -4.1980   20.3560 C   0  0  0  0  0  0  0  0  0  0  0  0
    5.4130   -4.8820   19.9960 O   0  0  0  0  0  0  0  0  0  0  0  0
    6.9040   -4.2430   21.6740 N   0  0  0  0  0  0  0  0  0  0  0  0
    7.7140   -3.1490   22.1960 C   0  0  0  0  0  0  0  0  0  0  0  0
    7.4980   -3.0490   23.7130 C   0  0  0  0  0  0  0  0  0  0  0  0
    6.1380   -3.5790   23.9820 C   0  0  0  0  0  0  0  0  0  0  0  0
    5.6330   -3.3790   25.3640 C   0  0  0  0  0  0  0  0  0  0  0  0
    4.4580   -3.7010   25.5580 O   0  0  0  0  0  0  0  0  0  0  0  0
    6.4420   -2.8330   26.3680 N   0  0  0  0  0  0  0  0  0  0  0  0
    6.3020   -1.5400   26.9390 C   0  0  0  0  0  0  0  0  0  0  0  0
    5.4690   -0.5720   26.4180 C   0  0  0  0  0  0  0  0  0  0  0  0
    5.3480    0.6970   27.0010 C   0  0  0  0  0  0  0  0  0  0  0  0
    6.0800    0.9860   28.1100 C   0  0  0  0  0  0  0  0  0  0  0  0
    6.0650    2.2850   28.8340 C   0  0  0  0  0  0  0  0  0  0  0  0
    6.9180    0.0590   28.6550 C   0  0  0  0  0  0  0  0  0  0  0  0
    7.6430    0.4300   29.7570 O   0  0  0  0  0  0  0  0  0  0  0  0
    7.7910   -0.3920   30.8660 C   0  0  0  0  0  0  0  0  0  0  0  0
    7.0900    0.0560   31.9600 C   0  0  0  0  0  0  0  0  0  0  0  0
    7.7730    0.5030   33.1750 C   0  0  0  0  0  0  0  0  0  0  0  0
    6.7810    0.9550   34.2610 C   0  0  0  0  0  0  0  0  0  0  0  0
    5.3920    1.0760   34.4570 C   0  0  0  0  0  0  0  0  0  0  0  0
    4.9020    0.5570   33.0700 C   0  0  0  0  0  0  0  0  0  0  0  0
    3.1560    0.5250   32.8450 Cl  0  0  0  0  0  0  0  0  0  0  0  0
    5.7530    0.0900   31.9350 C   0  0  0  0  0  0  0  0  0  0  0  0
    7.0310   -1.1900   28.0890 C   0  0  0  0  0  0  0  0  0  0  0  0
    6.0570   -5.0680   23.7210 C   0  0  0  0  0  0  0  0  0  0  0  0
    6.5570   -5.3770   22.4700 C   0  0  0  0  0  0  0  0  0  0  0  0
  1  2  1  0
  2  3  2  0
  2  4  1  0
  4  5  1  0
  5  6  1  0
  6  7  1  0
  7  8  1  0
  8  9  2  0
  8 10  1  0
 10 11  1  0
 11 12  2  0
 12 13  1  0
 13 14  2  0
 14 15  1  0
 14 16  1  0
 16 17  1  0
 17 18  1  0
 18 19  1  0
 19 20  2  0
 20 21  1  0
 21 22  2  0
 22 23  1  0
 23 24  1  0
 19 25  1  0
 23 25  2  0
 11 26  1  0
 16 26  2  0
  7 27  1  0
  4 28  1  0
 27 28  1  0
M  END
