piperidine-amides-3231-covalent
     RDKit          3D

 22 24  0  0  0  0  0  0  0  0999 V2000
    7.0890   -3.3290   19.3280 C   0  0  0  0  0  0  0  0  0  0  0  0
    6.3310   -4.1000   20.3030 C   0  0  0  0  0  0  0  0  0  0  0  0
    5.3250   -4.7150   19.9470 O   0  0  0  0  0  0  0  0  0  0  0  0
    6.7900   -4.1810   21.6680 N   0  0  0  0  0  0  0  0  0  0  0  0
    7.7210   -3.1850   22.1540 C   0  0  0  0  0  0  0  0  0  0  0  0
    7.5340   -2.9970   23.6210 C   0  0  0  0  0  0  0  0  0  0  0  0
    6.2090   -3.6340   23.9470 C   0  0  0  0  0  0  0  0  0  0  0  0
    5.7740   -3.2620   25.3210 C   0  0  0  0  0  0  0  0  0  0  0  0
    4.6550   -3.5820   25.7690 O   0  0  0  0  0  0  0  0  0  0  0  0
    6.6570   -2.5100   26.1380 N   0  0  0  0  0  0  0  0  0  0  0  0
    6.0750   -1.5580   27.0570 C   0  0  1  0  0  0  0  0  0  0  0  0
    6.9450   -1.5550   28.3060 C   0  0  0  0  0  0  0  0  0  0  0  0
    6.6720   -0.5840   29.2560 C   0  0  0  0  0  0  0  0  0  0  0  0
    6.1220    0.5820   28.7460 C   0  0  0  0  0  0  0  0  0  0  0  0
    5.9120    1.8050   29.3980 N   0  0  0  0  0  0  0  0  0  0  0  0
    5.3370    2.7080   28.5130 C   0  0  0  0  0  0  0  0  0  0  0  0
    4.9230    4.0930   28.6900 C   0  0  0  0  0  0  0  0  0  0  0  0
    5.1720    2.0380   27.2350 N   0  0  0  0  0  0  0  0  0  0  0  0
    5.6630    0.8350   27.5230 N   0  0  0  0  0  0  0  0  0  0  0  0
    5.7520   -0.2690   26.6070 C   0  0  0  0  0  0  0  0  0  0  0  0
    6.3850   -5.1390   23.7990 C   0  0  0  0  0  0  0  0  0  0  0  0
    6.4020   -5.3750   22.4140 C   0  0  0  0  0  0  0  0  0  0  0  0
  1  2  1  0
  2  3  2  0
  2  4  1  0
  4  5  1  0
  5  6  1  0
  6  7  1  0
  7  8  1  0
  8  9  2  0
  8 10  1  0
 11 10  1  6
 11 12  1  0
 12 13  1  0
 13 14  1  0
 14 15  2  0
 15 16  1  0
 16 17  1  0
 16 18  2  0
 14 19  1  0
 18 19  1  0
 11 20  1  0
 19 20  1  0
  7 21  1  0
  4 22  1  0
 21 22  1  0
M  END
