piperidine-amides-6486-covalent
     RDKit          3D

 25 26  0  0  0  0  0  0  0  0999 V2000
    7.0270   -3.3310   19.3430 C   0  0  0  0  0  0  0  0  0  0  0  0
    6.3610   -4.1790   20.3440 C   0  0  0  0  0  0  0  0  0  0  0  0
    5.4020   -4.9050   19.9960 O   0  0  0  0  0  0  0  0  0  0  0  0
    6.8020   -4.2230   21.6800 N   0  0  0  0  0  0  0  0  0  0  0  0
    6.6930   -5.4770   22.3940 C   0  0  0  0  0  0  0  0  0  0  0  0
    6.0050   -5.1740   23.7310 C   0  0  0  0  0  0  0  0  0  0  0  0
    6.1150   -3.6810   23.9210 C   0  0  0  0  0  0  0  0  0  0  0  0
    5.6600   -3.2720   25.2690 C   0  0  0  0  0  0  0  0  0  0  0  0
    4.4400   -3.3540   25.5210 O   0  0  0  0  0  0  0  0  0  0  0  0
    6.5840   -2.8120   26.2410 N   0  0  0  0  0  0  0  0  0  0  0  0
    6.4350   -1.5160   26.8560 C   0  0  0  0  0  0  0  0  0  0  0  0
    7.0550   -1.2340   28.2210 C   0  0  0  0  0  0  0  0  0  0  0  0
    6.9540   -0.0100   28.8720 C   0  0  0  0  0  0  0  0  0  0  0  0
    7.4500    0.2860   29.9840 O   0  0  0  0  0  0  0  0  0  0  0  0
    7.8820   -0.7510   30.7100 C   0  0  0  0  0  0  0  0  0  0  0  0
    6.2850    1.0520   28.3540 C   0  0  0  0  0  0  0  0  0  0  0  0
    6.2370    2.2320   29.0690 O   0  0  0  0  0  0  0  0  0  0  0  0
    5.5360    3.3700   28.5910 C   0  0  0  0  0  0  0  0  0  0  0  0
    5.6350    0.8620   26.9990 C   0  0  0  0  0  0  0  0  0  0  0  0
    5.6890   -0.4020   26.2210 C   0  0  0  0  0  0  0  0  0  0  0  0
    4.9940   -0.4150   24.9000 C   0  0  0  0  0  0  0  0  0  0  0  0
    3.9760    0.4100   24.7180 N   0  0  0  0  0  0  0  0  0  0  0  0
    5.2500   -1.1050   23.9170 O   0  0  0  0  0  0  0  0  0  0  0  0
    7.5220   -3.2420   23.6240 C   0  0  0  0  0  0  0  0  0  0  0  0
    7.6460   -3.1630   22.2250 C   0  0  0  0  0  0  0  0  0  0  0  0
  1  2  1  0
  2  3  2  0
  2  4  1  0
  4  5  1  0
  5  6  1  0
  6  7  1  0
  7  8  1  0
  8  9  2  0
  8 10  1  0
 10 11  1  0
 11 12  2  0
 12 13  1  0
 13 14  1  0
 14 15  1  0
 13 16  2  0
 16 17  1  0
 17 18  1  0
 16 19  1  0
 11 20  1  0
 19 20  2  0
 20 21  1  0
 21 22  1  0
 21 23  2  0
  7 24  1  0
  4 25  1  0
 24 25  1  0
M  END
