piperidine-amides-3871-covalent
     RDKit          3D

 24 26  0  0  0  0  0  0  0  0999 V2000
    7.1010   -3.2790   19.1810 C   0  0  0  0  0  0  0  0  0  0  0  0
    6.3440   -4.0350   20.1970 C   0  0  0  0  0  0  0  0  0  0  0  0
    5.2320   -4.4920   19.8540 O   0  0  0  0  0  0  0  0  0  0  0  0
    6.8720   -4.2900   21.4780 N   0  0  0  0  0  0  0  0  0  0  0  0
    6.2930   -5.3460   22.2320 C   0  0  0  0  0  0  0  0  0  0  0  0
    5.6620   -4.9310   23.4890 C   0  0  0  0  0  0  0  0  0  0  0  0
    6.2590   -3.7460   24.1560 C   0  0  0  0  0  0  0  0  0  0  0  0
    5.4030   -3.2500   25.2780 C   0  0  0  0  0  0  0  0  0  0  0  0
    4.3060   -2.7090   25.0490 O   0  0  0  0  0  0  0  0  0  0  0  0
    5.8350   -3.4030   26.6010 N   0  0  0  0  0  0  0  0  0  0  0  0
    6.8670   -4.2600   26.9880 C   0  0  0  0  0  0  0  0  0  0  0  0
    7.9610   -4.5170   26.0740 C   0  0  1  0  0  0  0  0  0  0  0  0
    8.9320   -3.4070   26.0670 C   0  0  2  0  0  0  0  0  0  0  0  0
    9.6680   -2.9980   24.9530 C   0  0  0  0  0  0  0  0  0  0  0  0
   11.0560   -3.4270   25.4560 C   0  0  0  0  0  0  0  0  0  0  0  0
   12.2060   -3.0970   24.4970 C   0  0  0  0  0  0  0  0  0  0  0  0
   11.7450   -2.4130   23.1920 C   0  0  0  0  0  0  0  0  0  0  0  0
   10.3680   -2.0390   22.7620 C   0  0  0  0  0  0  0  0  0  0  0  0
    9.3520   -2.3970   23.7860 C   0  0  0  0  0  0  0  0  0  0  0  0
    9.2340   -4.8530   26.6720 C   0  0  0  0  0  0  0  0  0  0  0  0
    9.3070   -4.9280   28.1370 C   0  0  0  0  0  0  0  0  0  0  0  0
    9.8220   -5.8740   26.0230 C   0  0  0  0  0  0  0  0  0  0  0  0
    6.6750   -2.6640   23.2300 C   0  0  0  0  0  0  0  0  0  0  0  0
    7.5490   -3.2230   22.1460 C   0  0  0  0  0  0  0  0  0  0  0  0
  1  2  1  0
  2  3  2  0
  2  4  1  0
  4  5  1  0
  5  6  1  0
  6  7  1  0
  7  8  1  0
  8  9  2  0
  8 10  1  0
 10 11  1  0
 12 11  1  1
 12 13  1  0
 13 14  1  6
 14 15  2  0
 15 16  1  0
 16 17  2  0
 17 18  1  0
 14 19  1  0
 18 19  2  0
 12 20  1  0
 13 20  1  0
 20 21  1  0
 20 22  1  0
  7 23  1  0
  4 24  1  0
 23 24  1  0
M  END
