piperidine-amides-1375-covalent
     RDKit          3D

 22 23  0  0  0  0  0  0  0  0999 V2000
    7.0760   -3.2710   19.2460 C   0  0  0  0  0  0  0  0  0  0  0  0
    6.3230   -4.0630   20.2610 C   0  0  0  0  0  0  0  0  0  0  0  0
    5.2790   -4.6350   19.9110 O   0  0  0  0  0  0  0  0  0  0  0  0
    6.8140   -4.1990   21.5790 N   0  0  0  0  0  0  0  0  0  0  0  0
    6.6660   -5.4270   22.3220 C   0  0  0  0  0  0  0  0  0  0  0  0
    6.0460   -5.1150   23.6930 C   0  0  0  0  0  0  0  0  0  0  0  0
    6.0820   -3.6370   23.9100 C   0  0  0  0  0  0  0  0  0  0  0  0
    5.6230   -3.2240   25.2550 C   0  0  0  0  0  0  0  0  0  0  0  0
    4.4500   -2.8470   25.3450 O   0  0  0  0  0  0  0  0  0  0  0  0
    6.4970   -3.2680   26.3440 N   0  0  0  0  0  0  0  0  0  0  0  0
    6.1800   -3.3150   27.7270 C   0  0  0  0  0  0  0  0  0  0  0  0
    5.8780   -4.4420   28.4700 C   0  0  0  0  0  0  0  0  0  0  0  0
    5.8980   -5.6900   27.8380 C   0  0  0  0  0  0  0  0  0  0  0  0
    4.8140   -6.5230   28.0280 C   0  0  0  0  0  0  0  0  0  0  0  0
    4.0340   -6.4720   29.1420 N   0  0  0  0  0  0  0  0  0  0  0  0
    3.5320   -7.5870   29.7060 C   0  0  0  0  0  0  0  0  0  0  0  0
    2.4080   -7.4450   30.7480 C   0  0  0  0  0  0  0  0  0  0  0  0
    2.7090   -7.3350   32.0510 N   0  0  0  0  0  0  0  0  0  0  0  0
    4.1780   -5.2960   29.9160 C   0  0  0  0  0  0  0  0  0  0  0  0
    4.7020   -4.2730   29.1540 C   0  0  0  0  0  0  0  0  0  0  0  0
    7.3990   -3.0100   23.6110 C   0  0  0  0  0  0  0  0  0  0  0  0
    7.6630   -3.1570   22.1320 C   0  0  0  0  0  0  0  0  0  0  0  0
  1  2  1  0
  2  3  2  0
  2  4  1  0
  4  5  1  0
  5  6  1  0
  6  7  1  0
  7  8  1  0
  8  9  2  0
  8 10  1  0
 10 11  1  0
 11 12  1  0
 12 13  1  0
 13 14  1  0
 14 15  1  0
 15 16  1  0
 16 17  1  0
 17 18  3  0
 15 19  1  0
 12 20  1  0
 19 20  1  0
  7 21  1  0
  4 22  1  0
 21 22  1  0
M  END
