piperidine-amides-26957-covalent
     RDKit          3D

 25 27  0  0  0  0  0  0  0  0999 V2000
    7.0530   -3.3510   19.3670 C   0  0  0  0  0  0  0  0  0  0  0  0
    6.3420   -4.1620   20.3530 C   0  0  0  0  0  0  0  0  0  0  0  0
    5.3150   -4.7680   19.9520 O   0  0  0  0  0  0  0  0  0  0  0  0
    6.8280   -4.2800   21.6530 N   0  0  0  0  0  0  0  0  0  0  0  0
    6.6360   -5.4960   22.4040 C   0  0  0  0  0  0  0  0  0  0  0  0
    5.9300   -5.1380   23.6840 C   0  0  0  0  0  0  0  0  0  0  0  0
    6.5940   -3.9760   24.3790 C   0  0  0  0  0  0  0  0  0  0  0  0
    5.7780   -3.5560   25.5770 C   0  0  0  0  0  0  0  0  0  0  0  0
    4.5710   -3.3120   25.3500 O   0  0  0  0  0  0  0  0  0  0  0  0
    6.2200   -3.3870   26.9400 N   0  0  0  0  0  0  0  0  0  0  0  0
    5.4340   -2.6470   27.8850 C   0  0  0  0  0  0  0  0  0  0  0  0
    4.2230   -3.4450   28.3640 C   0  0  0  0  0  0  0  0  0  0  0  0
    4.6450   -4.7020   28.9850 N   0  0  0  0  0  0  0  0  0  0  0  0
    4.0030   -5.1790   30.0310 C   0  0  0  0  0  0  0  0  0  0  0  0
    2.6030   -5.0110   30.2180 O   0  0  0  0  0  0  0  0  0  0  0  0
    4.7320   -5.8610   30.9640 O   0  0  0  0  0  0  0  0  0  0  0  0
    4.9260   -7.2490   30.8970 C   0  0  0  0  0  0  0  0  0  0  0  0
    5.8180   -7.5680   29.8800 C   0  0  0  0  0  0  0  0  0  0  0  0
    5.4310   -7.7340   32.2300 C   0  0  0  0  0  0  0  0  0  0  0  0
    3.5800   -7.9040   30.6020 C   0  0  0  0  0  0  0  0  0  0  0  0
    5.9270   -4.9710   29.0080 C   0  0  1  0  0  0  0  0  0  0  0  0
    6.4950   -5.6640   28.0050 C   0  0  0  0  0  0  0  0  0  0  0  0
    6.6840   -4.0990   28.1240 C   0  0  1  0  0  0  0  0  0  0  0  0
    6.7720   -2.8260   23.4280 C   0  0  0  0  0  0  0  0  0  0  0  0
    7.5370   -3.1920   22.3370 C   0  0  0  0  0  0  0  0  0  0  0  0
  1  2  1  0
  2  3  2  0
  2  4  1  0
  4  5  1  0
  5  6  1  0
  6  7  1  0
  7  8  1  0
  8  9  2  0
  8 10  1  0
 10 11  1  0
 11 12  1  0
 12 13  1  0
 13 14  1  0
 14 15  2  0
 14 16  1  0
 17 16  1  0
 17 18  1  0
 17 19  1  0
 17 20  1  0
 13 21  1  0
 21 22  1  6
 10 23  1  0
 21 23  1  0
 23 22  1  6
  7 24  1  0
  4 25  1  0
 24 25  1  0
M  END
