piperidine-amides-12945-covalent
     RDKit          3D

 21 22  0  0  0  0  0  0  0  0999 V2000
    7.1000   -3.2800   19.2470 C   0  0  0  0  0  0  0  0  0  0  0  0
    6.3880   -4.0660   20.2810 C   0  0  0  0  0  0  0  0  0  0  0  0
    5.3280   -4.6200   19.9180 O   0  0  0  0  0  0  0  0  0  0  0  0
    6.9150   -4.2150   21.5770 N   0  0  0  0  0  0  0  0  0  0  0  0
    7.6890   -3.1740   22.1830 C   0  0  0  0  0  0  0  0  0  0  0  0
    7.2810   -2.8820   23.5530 C   0  0  0  0  0  0  0  0  0  0  0  0
    6.0520   -3.6020   23.9430 C   0  0  0  0  0  0  0  0  0  0  0  0
    5.6440   -3.2700   25.3330 C   0  0  0  0  0  0  0  0  0  0  0  0
    4.4430   -3.4200   25.6210 O   0  0  0  0  0  0  0  0  0  0  0  0
    6.5500   -2.7980   26.3060 N   0  0  0  0  0  0  0  0  0  0  0  0
    6.5350   -1.4170   26.8380 C   0  0  0  0  0  0  0  0  0  0  0  0
    5.4810   -1.2180   27.8810 C   0  0  0  0  0  0  0  0  0  0  0  0
    5.4660   -1.8280   29.1650 C   0  0  0  0  0  0  0  0  0  0  0  0
    4.3930   -1.4480   29.8750 C   0  0  0  0  0  0  0  0  0  0  0  0
    3.8980   -1.7210   31.1330 C   0  0  0  0  0  0  0  0  0  0  0  0
    3.0130   -0.7430   31.4720 C   0  0  0  0  0  0  0  0  0  0  0  0
    3.5210   -3.1510   30.8960 C   0  0  0  0  0  0  0  0  0  0  0  0
    3.7360   -0.5720   28.9740 N   0  0  0  0  0  0  0  0  0  0  0  0
    4.4320   -0.4850   27.8270 O   0  0  0  0  0  0  0  0  0  0  0  0
    6.0580   -5.0580   23.6330 C   0  0  0  0  0  0  0  0  0  0  0  0
    6.5870   -5.3770   22.3710 C   0  0  0  0  0  0  0  0  0  0  0  0
  1  2  1  0
  2  3  2  0
  2  4  1  0
  4  5  1  0
  5  6  1  0
  6  7  1  0
  7  8  1  0
  8  9  2  0
  8 10  1  0
 10 11  1  0
 11 12  1  0
 12 13  2  0
 13 14  1  0
 14 15  1  0
 15 16  1  0
 15 17  1  0
 14 18  2  0
 12 19  1  0
 18 19  1  0
  7 20  1  0
  4 21  1  0
 20 21  1  0
M  END
