piperidine-amides-9000-covalent
     RDKit          3D

 21 23  0  0  0  0  0  0  0  0999 V2000
    7.0540   -3.3360   19.3650 C   0  0  0  0  0  0  0  0  0  0  0  0
    6.3760   -4.1760   20.3530 C   0  0  0  0  0  0  0  0  0  0  0  0
    5.3920   -4.8400   19.9850 O   0  0  0  0  0  0  0  0  0  0  0  0
    6.8290   -4.3000   21.6870 N   0  0  0  0  0  0  0  0  0  0  0  0
    6.6180   -5.5250   22.4220 C   0  0  0  0  0  0  0  0  0  0  0  0
    6.0710   -5.1220   23.7700 C   0  0  0  0  0  0  0  0  0  0  0  0
    6.0710   -3.6300   23.9640 C   0  0  0  0  0  0  0  0  0  0  0  0
    5.6660   -3.2030   25.3380 C   0  0  0  0  0  0  0  0  0  0  0  0
    4.4350   -3.0790   25.6220 O   0  0  0  0  0  0  0  0  0  0  0  0
    6.5820   -2.9340   26.3830 N   0  0  0  0  0  0  0  0  0  0  0  0
    6.6460   -1.6410   27.1160 C   0  0  1  0  0  0  0  0  0  0  0  0
    5.5890   -0.7320   26.6030 C   0  0  0  0  0  0  0  0  0  0  0  0
    5.6610    0.6560   27.0930 C   0  0  0  0  0  0  0  0  0  0  0  0
    6.2740    0.6960   28.4560 C   0  0  0  0  0  0  0  0  0  0  0  0
    6.5140    1.8050   29.2670 N   0  0  0  0  0  0  0  0  0  0  0  0
    7.0630    1.4760   30.4040 N   0  0  0  0  0  0  0  0  0  0  0  0
    7.1820    0.1390   30.3300 N   0  0  0  0  0  0  0  0  0  0  0  0
    6.7110   -0.3440   29.1620 N   0  0  0  0  0  0  0  0  0  0  0  0
    6.5740   -1.6520   28.5390 C   0  0  0  0  0  0  0  0  0  0  0  0
    7.4020   -3.0830   23.5870 C   0  0  0  0  0  0  0  0  0  0  0  0
    7.5780   -3.1910   22.2300 C   0  0  0  0  0  0  0  0  0  0  0  0
  1  2  1  0
  2  3  2  0
  2  4  1  0
  4  5  1  0
  5  6  1  0
  6  7  1  0
  7  8  1  0
  8  9  2  0
  8 10  1  0
 11 10  1  6
 11 12  1  0
 12 13  1  0
 13 14  1  0
 14 15  2  0
 15 16  1  0
 16 17  2  0
 14 18  1  0
 17 18  1  0
 11 19  1  0
 18 19  1  0
  7 20  1  0
  4 21  1  0
 20 21  1  0
M  END
