piperidine-amides-6588-covalent
     RDKit          3D

 24 26  0  0  0  0  0  0  0  0999 V2000
    7.0880   -3.2710   19.2600 C   0  0  0  0  0  0  0  0  0  0  0  0
    6.3430   -4.0590   20.2550 C   0  0  0  0  0  0  0  0  0  0  0  0
    5.3020   -4.6640   19.9230 O   0  0  0  0  0  0  0  0  0  0  0  0
    6.8060   -4.1850   21.5690 N   0  0  0  0  0  0  0  0  0  0  0  0
    7.6620   -3.1550   22.1310 C   0  0  0  0  0  0  0  0  0  0  0  0
    7.4090   -3.1110   23.6400 C   0  0  0  0  0  0  0  0  0  0  0  0
    6.0220   -3.6750   23.8230 C   0  0  0  0  0  0  0  0  0  0  0  0
    5.5070   -3.4730   25.1860 C   0  0  0  0  0  0  0  0  0  0  0  0
    4.2730   -3.4890   25.3520 O   0  0  0  0  0  0  0  0  0  0  0  0
    6.4080   -3.2740   26.2430 N   0  0  0  0  0  0  0  0  0  0  0  0
    6.1360   -2.2490   27.1900 C   0  0  2  0  0  0  0  0  0  0  0  0
    6.4440   -2.7110   28.5940 C   0  0  0  0  0  0  0  0  0  0  0  0
    6.4690   -1.7140   29.5330 C   0  0  0  0  0  0  0  0  0  0  0  0
    7.4700   -1.1290   29.8340 C   0  0  0  0  0  0  0  0  0  0  0  0
    6.4650   -0.3330   29.1380 C   0  0  0  0  0  0  0  0  0  0  0  0
    4.6770   -1.8850   27.1610 C   0  0  0  0  0  0  0  0  0  0  0  0
    3.8650   -2.2360   28.4040 C   0  0  0  0  0  0  0  0  0  0  0  0
    2.4550   -1.7340   28.0460 C   0  0  0  0  0  0  0  0  0  0  0  0
    1.6910   -1.0530   26.9270 C   0  0  0  0  0  0  0  0  0  0  0  0
   -0.0110   -0.5870   26.8140 Cl  0  0  0  0  0  0  0  0  0  0  0  0
    2.7970   -0.9130   25.9980 C   0  0  0  0  0  0  0  0  0  0  0  0
    4.1270   -1.2550   26.0390 C   0  0  0  0  0  0  0  0  0  0  0  0
    6.0950   -5.1770   23.6120 C   0  0  0  0  0  0  0  0  0  0  0  0
    6.6690   -5.4540   22.2500 C   0  0  0  0  0  0  0  0  0  0  0  0
  1  2  1  0
  2  3  2  0
  2  4  1  0
  4  5  1  0
  5  6  1  0
  6  7  1  0
  7  8  1  0
  8  9  2  0
  8 10  1  0
 10 11  1  0
 11 12  1  1
 12 13  1  0
 13 14  1  0
 13 15  1  0
 14 15  1  0
 11 16  1  0
 16 17  2  0
 17 18  1  0
 18 19  2  0
 19 20  1  0
 19 21  1  0
 16 22  1  0
 21 22  2  0
  7 23  1  0
  4 24  1  0
 23 24  1  0
M  END
