piperidine-amides-15162-covalent
     RDKit          3D

 20 20  0  0  0  0  0  0  0  0999 V2000
    7.0660   -3.2630   19.2150 C   0  0  0  0  0  0  0  0  0  0  0  0
    6.3200   -4.0310   20.2160 C   0  0  0  0  0  0  0  0  0  0  0  0
    5.2510   -4.5570   19.8730 O   0  0  0  0  0  0  0  0  0  0  0  0
    6.8280   -4.2110   21.5230 N   0  0  0  0  0  0  0  0  0  0  0  0
    7.5710   -3.1440   22.1390 C   0  0  0  0  0  0  0  0  0  0  0  0
    6.8610   -2.6960   23.3800 C   0  0  0  0  0  0  0  0  0  0  0  0
    6.6000   -3.9480   24.1760 C   0  0  0  0  0  0  0  0  0  0  0  0
    5.9350   -3.5940   25.4730 C   0  0  0  0  0  0  0  0  0  0  0  0
    4.7020   -3.4210   25.4850 O   0  0  0  0  0  0  0  0  0  0  0  0
    6.7810   -3.4790   26.5780 N   0  0  0  0  0  0  0  0  0  0  0  0
    7.3040   -4.6160   27.2730 C   0  0  0  0  0  0  0  0  0  0  0  0
    8.3040   -5.3420   26.6020 C   0  0  0  0  0  0  0  0  0  0  0  0
    9.5350   -4.7900   26.3060 C   0  0  0  0  0  0  0  0  0  0  0  0
    9.6380   -3.7420   25.3950 C   0  0  0  0  0  0  0  0  0  0  0  0
   11.1220   -3.5260   25.3410 C   0  0  0  0  0  0  0  0  0  0  0  0
   11.8280   -4.3850   26.1310 O   0  0  0  0  0  0  0  0  0  0  0  0
   11.7840   -2.5580   24.5730 O   0  0  0  0  0  0  0  0  0  0  0  0
   13.1750   -2.3150   24.7630 C   0  0  0  0  0  0  0  0  0  0  0  0
    5.7460   -4.9560   23.4880 C   0  0  0  0  0  0  0  0  0  0  0  0
    6.3940   -5.3830   22.2020 C   0  0  0  0  0  0  0  0  0  0  0  0
  1  2  1  0
  2  3  2  0
  2  4  1  0
  4  5  1  0
  5  6  1  0
  6  7  1  0
  7  8  1  0
  8  9  2  0
  8 10  1  0
 10 11  1  0
 11 12  1  0
 12 13  1  0
 13 14  1  0
 14 15  1  0
 15 16  2  0
 15 17  1  0
 17 18  1  0
  7 19  1  0
  4 20  1  0
 19 20  1  0
M  END
