piperidine-amides-11080-covalent
     RDKit          3D

 21 22  0  0  0  0  0  0  0  0999 V2000
    7.1210   -3.3290   19.2790 C   0  0  0  0  0  0  0  0  0  0  0  0
    6.3480   -4.0870   20.2580 C   0  0  0  0  0  0  0  0  0  0  0  0
    5.2820   -4.6160   19.9100 O   0  0  0  0  0  0  0  0  0  0  0  0
    6.8230   -4.2830   21.5620 N   0  0  0  0  0  0  0  0  0  0  0  0
    6.5780   -5.4900   22.3070 C   0  0  0  0  0  0  0  0  0  0  0  0
    5.8500   -5.0450   23.5480 C   0  0  0  0  0  0  0  0  0  0  0  0
    6.5450   -3.8980   24.2270 C   0  0  0  0  0  0  0  0  0  0  0  0
    5.7550   -3.3850   25.3710 C   0  0  0  0  0  0  0  0  0  0  0  0
    4.4960   -3.5280   25.3730 O   0  0  0  0  0  0  0  0  0  0  0  0
    6.3050   -2.7120   26.4840 N   0  0  0  0  0  0  0  0  0  0  0  0
    5.5250   -1.5740   27.0260 C   0  0  2  0  0  0  0  0  0  0  0  0
    5.9810   -0.3550   26.3370 C   0  0  0  0  0  0  0  0  0  0  0  0
    5.7590    0.9300   27.0090 C   0  0  0  0  0  0  0  0  0  0  0  0
    6.2020    0.8990   28.4290 C   0  0  0  0  0  0  0  0  0  0  0  0
    5.4790   -0.1740   29.1920 C   0  0  0  0  0  0  0  0  0  0  0  0
    5.6390   -1.4900   28.5170 C   0  0  2  0  0  0  0  0  0  0  0  0
    6.7500   -2.1350   28.9260 C   0  0  0  0  0  0  0  0  0  0  0  0
    7.8110   -1.3080   29.2650 C   0  0  0  0  0  0  0  0  0  0  0  0
    7.7620   -0.4390   30.5050 C   0  0  0  0  0  0  0  0  0  0  0  0
    6.8840   -2.7370   23.3450 C   0  0  0  0  0  0  0  0  0  0  0  0
    7.6620   -3.2820   22.1830 C   0  0  0  0  0  0  0  0  0  0  0  0
  1  2  1  0
  2  3  2  0
  2  4  1  0
  4  5  1  0
  5  6  1  0
  6  7  1  0
  7  8  1  0
  8  9  2  0
  8 10  1  0
 11 10  1  6
 11 12  1  0
 12 13  1  0
 13 14  1  0
 14 15  1  0
 11 16  1  0
 15 16  1  0
 16 17  1  6
 17 18  1  0
 18 19  1  0
  7 20  1  0
  4 21  1  0
 20 21  1  0
M  END
