piperidine-amides-33390-covalent
     RDKit          3D

 25 27  0  0  0  0  0  0  0  0999 V2000
    7.0130   -3.3780   19.4180 C   0  0  0  0  0  0  0  0  0  0  0  0
    6.3880   -4.2480   20.4340 C   0  0  0  0  0  0  0  0  0  0  0  0
    5.4290   -4.9480   20.0150 O   0  0  0  0  0  0  0  0  0  0  0  0
    6.8600   -4.3350   21.7860 N   0  0  0  0  0  0  0  0  0  0  0  0
    6.4940   -5.4720   22.5710 C   0  0  0  0  0  0  0  0  0  0  0  0
    5.8260   -5.0950   23.8150 C   0  0  0  0  0  0  0  0  0  0  0  0
    5.7600   -3.6300   23.9570 C   0  0  0  0  0  0  0  0  0  0  0  0
    4.9510   -3.1080   25.1580 C   0  0  0  0  0  0  0  0  0  0  0  0
    3.8850   -2.5270   24.9270 O   0  0  0  0  0  0  0  0  0  0  0  0
    5.3190   -3.2480   26.5180 N   0  0  0  0  0  0  0  0  0  0  0  0
    6.3230   -3.9550   26.9050 C   0  0  0  0  0  0  0  0  0  0  0  0
    6.2690   -4.3860   28.2660 C   0  0  0  0  0  0  0  0  0  0  0  0
    4.7920   -4.0220   28.5690 C   0  0  2  0  0  0  0  0  0  0  0  0
    4.8890   -3.7100   29.9020 O   0  0  0  0  0  0  0  0  0  0  0  0
    3.8970   -5.0720   28.4100 C   0  0  0  0  0  0  0  0  0  0  0  0
    4.3750   -5.8100   29.6710 C   0  0  0  0  0  0  0  0  0  0  0  0
    3.5070   -5.3020   30.7780 C   0  0  0  0  0  0  0  0  0  0  0  0
    3.9610   -6.0600   32.0630 C   0  0  0  0  0  0  0  0  0  0  0  0
    5.0370   -7.1150   32.3070 C   0  0  0  0  0  0  0  0  0  0  0  0
    5.4280   -7.9240   33.9810 Br  0  0  0  0  0  0  0  0  0  0  0  0
    5.7940   -7.4780   31.0480 C   0  0  0  0  0  0  0  0  0  0  0  0
    5.4660   -6.8230   29.7230 C   0  0  0  0  0  0  0  0  0  0  0  0
    4.4780   -2.9900   27.6560 C   0  0  0  0  0  0  0  0  0  0  0  0
    7.1040   -3.0020   23.7280 C   0  0  0  0  0  0  0  0  0  0  0  0
    7.5580   -3.2230   22.4150 C   0  0  0  0  0  0  0  0  0  0  0  0
  1  2  1  0
  2  3  2  0
  2  4  1  0
  4  5  1  0
  5  6  1  0
  6  7  1  0
  7  8  1  0
  8  9  2  0
  8 10  1  0
 10 11  1  0
 11 12  1  0
 12 13  1  0
 13 14  1  1
 13 15  1  0
 15 16  1  0
 16 17  2  0
 17 18  1  0
 18 19  2  0
 19 20  1  0
 19 21  1  0
 16 22  1  0
 21 22  2  0
 10 23  1  0
 13 23  1  0
  7 24  1  0
  4 25  1  0
 24 25  1  0
M  END
