piperidine-amides-34901-covalent
     RDKit          3D

 30 33  0  0  0  0  0  0  0  0999 V2000
    7.0960   -3.2980   19.2910 C   0  0  0  0  0  0  0  0  0  0  0  0
    6.3760   -4.1390   20.2810 C   0  0  0  0  0  0  0  0  0  0  0  0
    5.3180   -4.6480   19.9190 O   0  0  0  0  0  0  0  0  0  0  0  0
    6.9210   -4.3730   21.5430 N   0  0  0  0  0  0  0  0  0  0  0  0
    7.6870   -3.3550   22.2130 C   0  0  0  0  0  0  0  0  0  0  0  0
    6.8890   -2.8360   23.3720 C   0  0  0  0  0  0  0  0  0  0  0  0
    6.4380   -3.9890   24.2830 C   0  0  0  0  0  0  0  0  0  0  0  0
    5.6080   -3.3840   25.3410 C   0  0  0  0  0  0  0  0  0  0  0  0
    4.3970   -3.2100   25.1490 O   0  0  0  0  0  0  0  0  0  0  0  0
    6.1850   -3.0050   26.5630 N   0  0  0  0  0  0  0  0  0  0  0  0
    6.1050   -1.6440   27.0300 C   0  0  0  0  0  0  0  0  0  0  0  0
    5.4900   -0.6170   26.3090 N   0  0  0  0  0  0  0  0  0  0  0  0
    5.3720    0.6860   26.7050 C   0  0  0  0  0  0  0  0  0  0  0  0
    5.9240    0.8800   27.9020 N   0  0  0  0  0  0  0  0  0  0  0  0
    6.2990   -0.3720   28.0290 C   0  0  0  0  0  0  0  0  0  0  0  0
    7.0430    0.1200   29.7690 S   0  0  0  0  0  0  0  0  0  0  0  0
    6.3500    1.3930   29.0030 C   0  0  0  0  0  0  0  0  0  0  0  0
    6.8290    1.8620   30.2010 C   0  0  0  0  0  0  0  0  0  0  0  0
    6.7680   -0.1260   29.0850 C   0  0  0  0  0  0  0  0  0  0  0  0
    7.4740   -1.0270   30.0520 C   0  0  0  0  0  0  0  0  0  0  0  0
    6.7790   -1.5340   28.4120 C   0  0  0  0  0  0  0  0  0  0  0  0
    6.5290   -4.0680   27.4760 C   0  0  1  0  0  0  0  0  0  0  0  0
    5.5240   -5.1610   27.4920 C   0  0  0  0  0  0  0  0  0  0  0  0
    7.7360   -4.6490   26.9300 C   0  0  0  0  0  0  0  0  0  0  0  0
    8.2540   -5.7670   27.4060 N   0  0  0  0  0  0  0  0  0  0  0  0
    9.3060   -6.1550   26.8390 C   0  0  0  0  0  0  0  0  0  0  0  0
    9.8170   -5.3460   25.7640 C   0  0  0  0  0  0  0  0  0  0  0  0
    8.7170   -4.1040   25.6360 S   0  0  0  0  0  0  0  0  0  0  0  0
    5.6310   -4.9800   23.4750 C   0  0  0  0  0  0  0  0  0  0  0  0
    6.3790   -5.4730   22.2680 C   0  0  0  0  0  0  0  0  0  0  0  0
  1  2  1  0
  2  3  2  0
  2  4  1  0
  4  5  1  0
  5  6  1  0
  6  7  1  0
  7  8  1  0
  8  9  2  0
  8 10  1  0
 10 11  1  0
 11 12  2  0
 12 13  1  0
 13 14  2  0
 14 15  1  0
 15 16  1  0
 16 17  1  0
 17 18  1  0
 17 19  2  0
 19 20  1  0
 11 21  1  0
 15 21  2  0
 19 21  1  0
 10 22  1  0
 22 23  1  6
 22 24  1  0
 24 25  2  0
 25 26  1  0
 26 27  2  0
 24 28  1  0
 27 28  1  0
  7 29  1  0
  4 30  1  0
 29 30  1  0
M  END
