piperidine-amides-5321-covalent
     RDKit          3D

 21 22  0  0  0  0  0  0  0  0999 V2000
    7.0840   -3.2850   19.2770 C   0  0  0  0  0  0  0  0  0  0  0  0
    6.3640   -4.0840   20.3010 C   0  0  0  0  0  0  0  0  0  0  0  0
    5.3170   -4.6460   19.9200 O   0  0  0  0  0  0  0  0  0  0  0  0
    6.8660   -4.2300   21.6100 N   0  0  0  0  0  0  0  0  0  0  0  0
    6.5740   -5.4000   22.3740 C   0  0  0  0  0  0  0  0  0  0  0  0
    6.0440   -5.0760   23.6960 C   0  0  0  0  0  0  0  0  0  0  0  0
    6.0730   -3.6240   23.9750 C   0  0  0  0  0  0  0  0  0  0  0  0
    5.6170   -3.3290   25.3660 C   0  0  0  0  0  0  0  0  0  0  0  0
    4.4130   -3.0680   25.5320 O   0  0  0  0  0  0  0  0  0  0  0  0
    6.4860   -3.3280   26.4730 N   0  0  0  0  0  0  0  0  0  0  0  0
    6.2560   -4.1380   27.7030 C   0  0  0  0  0  0  0  0  0  0  0  0
    6.0560   -5.6020   27.4400 C   0  0  0  0  0  0  0  0  0  0  0  0
    5.0930   -6.3210   28.2680 C   0  0  0  0  0  0  0  0  0  0  0  0
    3.9300   -6.8810   27.7980 C   0  0  0  0  0  0  0  0  0  0  0  0
    2.9980   -7.5410   28.5580 C   0  0  0  0  0  0  0  0  0  0  0  0
    3.2640   -7.6400   29.8800 C   0  0  0  0  0  0  0  0  0  0  0  0
    2.2420   -8.2710   30.6170 O   0  0  0  0  0  0  0  0  0  0  0  0
    4.4470   -7.1510   30.4760 N   0  0  0  0  0  0  0  0  0  0  0  0
    5.3510   -6.4570   29.6020 C   0  0  0  0  0  0  0  0  0  0  0  0
    7.3300   -2.9460   23.5610 C   0  0  0  0  0  0  0  0  0  0  0  0
    7.6620   -3.1740   22.2140 C   0  0  0  0  0  0  0  0  0  0  0  0
  1  2  1  0
  2  3  2  0
  2  4  1  0
  4  5  1  0
  5  6  1  0
  6  7  1  0
  7  8  1  0
  8  9  2  0
  8 10  1  0
 10 11  1  0
 11 12  1  0
 12 13  1  0
 13 14  1  0
 14 15  2  0
 15 16  1  0
 16 17  2  0
 16 18  1  0
 13 19  2  0
 18 19  1  0
  7 20  1  0
  4 21  1  0
 20 21  1  0
M  END
