piperidine-amides-8664-covalent
     RDKit          3D

 23 24  0  0  0  0  0  0  0  0999 V2000
    7.1290   -3.2850   19.2290 C   0  0  0  0  0  0  0  0  0  0  0  0
    6.4000   -4.0580   20.2280 C   0  0  0  0  0  0  0  0  0  0  0  0
    5.3150   -4.5700   19.8970 O   0  0  0  0  0  0  0  0  0  0  0  0
    6.9610   -4.2570   21.5140 N   0  0  0  0  0  0  0  0  0  0  0  0
    7.6640   -3.1590   22.1100 C   0  0  0  0  0  0  0  0  0  0  0  0
    6.8060   -2.5990   23.1930 C   0  0  0  0  0  0  0  0  0  0  0  0
    6.6250   -3.7160   24.1870 C   0  0  0  0  0  0  0  0  0  0  0  0
    5.9390   -3.1740   25.3970 C   0  0  0  0  0  0  0  0  0  0  0  0
    4.7290   -3.3900   25.4820 O   0  0  0  0  0  0  0  0  0  0  0  0
    6.7130   -2.4580   26.3120 N   0  0  0  0  0  0  0  0  0  0  0  0
    6.4880   -2.4540   27.7210 C   0  0  0  0  0  0  0  0  0  0  0  0
    5.8080   -3.5640   28.2240 C   0  0  0  0  0  0  0  0  0  0  0  0
    6.4850   -4.6760   28.7310 C   0  0  0  0  0  0  0  0  0  0  0  0
    5.8840   -5.8390   29.2530 C   0  0  0  0  0  0  0  0  0  0  0  0
    4.3790   -5.8670   29.2600 C   0  0  0  0  0  0  0  0  0  0  0  0
    3.5950   -6.8560   29.7010 N   0  0  0  0  0  0  0  0  0  0  0  0
    4.1390   -7.7630   30.4960 C   0  0  0  0  0  0  0  0  0  0  0  0
    2.7000   -7.4530   28.7600 C   0  0  0  0  0  0  0  0  0  0  0  0
    3.6550   -4.7240   28.7450 C   0  0  0  0  0  0  0  0  0  0  0  0
    4.4310   -3.5480   28.2160 C   0  0  0  0  0  0  0  0  0  0  0  0
    4.0750   -2.3310   27.6700 C   0  0  0  0  0  0  0  0  0  0  0  0
    5.7770   -4.7770   23.5480 C   0  0  0  0  0  0  0  0  0  0  0  0
    6.4060   -5.3300   22.2950 C   0  0  0  0  0  0  0  0  0  0  0  0
  1  2  1  0
  2  3  2  0
  2  4  1  0
  4  5  1  0
  5  6  1  0
  6  7  1  0
  7  8  1  0
  8  9  2  0
  8 10  1  0
 10 11  1  0
 11 12  1  0
 12 13  2  0
 13 14  1  0
 14 15  2  0
 15 16  1  0
 16 17  1  0
 16 18  1  0
 15 19  1  0
 12 20  1  0
 19 20  2  0
 20 21  1  0
  7 22  1  0
  4 23  1  0
 22 23  1  0
M  END
