piperidine-amides-32300-covalent
     RDKit          3D

 24 26  0  0  0  0  0  0  0  0999 V2000
    7.0050   -3.3590   19.3860 C   0  0  0  0  0  0  0  0  0  0  0  0
    6.3100   -4.2600   20.3520 C   0  0  0  0  0  0  0  0  0  0  0  0
    5.3260   -4.9060   19.9740 O   0  0  0  0  0  0  0  0  0  0  0  0
    6.7990   -4.3960   21.6640 N   0  0  0  0  0  0  0  0  0  0  0  0
    6.6200   -5.6350   22.3940 C   0  0  0  0  0  0  0  0  0  0  0  0
    6.1870   -5.3360   23.8480 C   0  0  0  0  0  0  0  0  0  0  0  0
    5.9990   -3.8680   24.0140 C   0  0  0  0  0  0  0  0  0  0  0  0
    5.3240   -3.4570   25.2810 C   0  0  0  0  0  0  0  0  0  0  0  0
    4.4560   -2.5950   25.1450 O   0  0  0  0  0  0  0  0  0  0  0  0
    5.6330   -3.9910   26.5450 N   0  0  0  0  0  0  0  0  0  0  0  0
    6.8710   -4.4290   26.9210 C   0  0  0  0  0  0  0  0  0  0  0  0
    7.0380   -5.4940   27.7280 C   0  0  0  0  0  0  0  0  0  0  0  0
    6.0990   -5.5660   28.7400 C   0  0  0  0  0  0  0  0  0  0  0  0
    6.1370   -6.6140   29.6240 C   0  0  0  0  0  0  0  0  0  0  0  0
    5.1560   -6.7370   30.7210 C   0  0  0  0  0  0  0  0  0  0  0  0
    4.0520   -5.7040   30.9210 C   0  0  0  0  0  0  0  0  0  0  0  0
    2.7330   -5.7390   32.2830 Br  0  0  0  0  0  0  0  0  0  0  0  0
    4.1670   -4.6200   29.8430 C   0  0  0  0  0  0  0  0  0  0  0  0
    5.1260   -4.5750   28.8340 C   0  0  0  0  0  0  0  0  0  0  0  0
    5.1210   -3.4490   27.8180 C   0  0  2  0  0  0  0  0  0  0  0  0
    3.6120   -3.2640   27.8920 C   0  0  0  0  0  0  0  0  0  0  0  0
    3.3380   -2.2440   28.8060 O   0  0  0  0  0  0  0  0  0  0  0  0
    7.2990   -3.2730   23.7490 C   0  0  0  0  0  0  0  0  0  0  0  0
    7.5680   -3.3320   22.2470 C   0  0  0  0  0  0  0  0  0  0  0  0
  1  2  1  0
  2  3  2  0
  2  4  1  0
  4  5  1  0
  5  6  1  0
  6  7  1  0
  7  8  1  0
  8  9  2  0
  8 10  1  0
 10 11  1  0
 11 12  1  0
 12 13  1  0
 13 14  2  0
 14 15  1  0
 15 16  2  0
 16 17  1  0
 16 18  1  0
 13 19  1  0
 18 19  2  0
 10 20  1  0
 19 20  1  0
 20 21  1  6
 21 22  1  0
  7 23  1  0
  4 24  1  0
 23 24  1  0
M  END
