piperidine-amides-2685-covalent
     RDKit          3D

 25 27  0  0  0  0  0  0  0  0999 V2000
    7.0610   -3.3240   19.3580 C   0  0  0  0  0  0  0  0  0  0  0  0
    6.3610   -4.1590   20.3280 C   0  0  0  0  0  0  0  0  0  0  0  0
    5.3800   -4.8130   19.9760 O   0  0  0  0  0  0  0  0  0  0  0  0
    6.8420   -4.2620   21.6780 N   0  0  0  0  0  0  0  0  0  0  0  0
    6.5830   -5.4570   22.4400 C   0  0  0  0  0  0  0  0  0  0  0  0
    6.1030   -5.1190   23.8280 C   0  0  0  0  0  0  0  0  0  0  0  0
    6.0470   -3.6050   23.9800 C   0  0  0  0  0  0  0  0  0  0  0  0
    5.6070   -3.2060   25.3500 C   0  0  0  0  0  0  0  0  0  0  0  0
    4.4000   -3.1230   25.6610 O   0  0  0  0  0  0  0  0  0  0  0  0
    6.5840   -2.9130   26.3300 N   0  0  0  0  0  0  0  0  0  0  0  0
    6.4970   -1.7210   27.1550 C   0  0  0  0  0  0  0  0  0  0  0  0
    5.8680   -0.5080   26.5430 C   0  0  0  0  0  0  0  0  0  0  0  0
    5.7620    0.6520   27.2890 C   0  0  0  0  0  0  0  0  0  0  0  0
    6.2460    0.6840   28.6160 C   0  0  0  0  0  0  0  0  0  0  0  0
    6.0890    2.1950   29.5590 S   0  0  0  0  0  0  0  0  0  0  0  0
    7.7360    2.8680   29.9030 C   0  0  0  0  0  0  0  0  0  0  0  0
    8.3270    2.2580   31.0920 C   0  0  0  0  0  0  0  0  0  0  0  0
    8.7280    3.2110   31.9670 C   0  0  0  0  0  0  0  0  0  0  0  0
    8.4040    4.4350   31.4680 C   0  0  0  0  0  0  0  0  0  0  0  0
    7.7680    4.3550   30.2250 C   0  0  0  0  0  0  0  0  0  0  0  0
    6.8350   -0.4520   29.1820 C   0  0  0  0  0  0  0  0  0  0  0  0
    7.2890   -0.3910   30.4650 F   0  0  0  0  0  0  0  0  0  0  0  0
    6.9600   -1.6330   28.4690 C   0  0  0  0  0  0  0  0  0  0  0  0
    7.3780   -3.0050   23.6490 C   0  0  0  0  0  0  0  0  0  0  0  0
    7.6390   -3.1920   22.1980 C   0  0  0  0  0  0  0  0  0  0  0  0
  1  2  1  0
  2  3  2  0
  2  4  1  0
  4  5  1  0
  5  6  1  0
  6  7  1  0
  7  8  1  0
  8  9  2  0
  8 10  1  0
 10 11  1  0
 11 12  2  0
 12 13  1  0
 13 14  2  0
 14 15  1  0
 15 16  1  0
 16 17  1  0
 17 18  1  0
 18 19  1  0
 16 20  1  0
 19 20  1  0
 14 21  1  0
 21 22  1  0
 11 23  1  0
 21 23  2  0
  7 24  1  0
  4 25  1  0
 24 25  1  0
M  END
