piperidine-amides-29031-covalent
     RDKit          3D

 24 26  0  0  0  0  0  0  0  0999 V2000
    7.0040   -3.3360   19.3400 C   0  0  0  0  0  0  0  0  0  0  0  0
    6.3480   -4.1760   20.3490 C   0  0  0  0  0  0  0  0  0  0  0  0
    5.3890   -4.8750   19.9820 O   0  0  0  0  0  0  0  0  0  0  0  0
    6.8090   -4.2180   21.6920 N   0  0  0  0  0  0  0  0  0  0  0  0
    7.6990   -3.1940   22.1760 C   0  0  0  0  0  0  0  0  0  0  0  0
    7.5970   -3.1450   23.6640 C   0  0  0  0  0  0  0  0  0  0  0  0
    6.2110   -3.6560   23.9540 C   0  0  0  0  0  0  0  0  0  0  0  0
    5.8150   -3.4540   25.3900 C   0  0  0  0  0  0  0  0  0  0  0  0
    4.5960   -3.5310   25.6250 O   0  0  0  0  0  0  0  0  0  0  0  0
    6.8000   -3.1590   26.3500 N   0  0  0  0  0  0  0  0  0  0  0  0
    7.3690   -4.1680   27.2040 C   0  0  0  0  0  0  0  0  0  0  0  0
    8.3930   -4.9790   26.6780 C   0  0  0  0  0  0  0  0  0  0  0  0
    6.6150   -1.8560   26.9970 C   0  0  0  0  0  0  0  0  0  0  0  0
    6.8570   -1.3860   28.3390 N   0  0  0  0  0  0  0  0  0  0  0  0
    6.4800   -0.0310   28.4100 C   0  0  0  0  0  0  0  0  0  0  0  0
    6.5990    0.7660   29.6660 C   0  0  0  0  0  0  0  0  0  0  0  0
    6.1500    2.2610   29.6190 C   0  0  0  0  0  0  0  0  0  0  0  0
    6.2660    3.2630   31.0770 Cl  0  0  0  0  0  0  0  0  0  0  0  0
    5.6230    2.8370   28.3340 C   0  0  0  0  0  0  0  0  0  0  0  0
    5.5150    2.0000   27.0820 C   0  0  0  0  0  0  0  0  0  0  0  0
    5.9920    0.5590   27.2890 C   0  0  0  0  0  0  0  0  0  0  0  0
    5.9690   -0.6340   25.9720 S   0  0  0  0  0  0  0  0  0  0  0  0
    6.1320   -5.1400   23.6670 C   0  0  0  0  0  0  0  0  0  0  0  0
    6.7020   -5.4530   22.4410 C   0  0  0  0  0  0  0  0  0  0  0  0
  1  2  1  0
  2  3  2  0
  2  4  1  0
  4  5  1  0
  5  6  1  0
  6  7  1  0
  7  8  1  0
  8  9  2  0
  8 10  1  0
 10 11  1  0
 11 12  1  0
 10 13  1  0
 13 14  2  0
 14 15  1  0
 15 16  2  0
 16 17  1  0
 17 18  1  0
 17 19  2  0
 19 20  1  0
 15 21  1  0
 20 21  2  0
 13 22  1  0
 21 22  1  0
  7 23  1  0
  4 24  1  0
 23 24  1  0
M  END
