piperidine-amides-24821-covalent
     RDKit          3D

 24 26  0  0  0  0  0  0  0  0999 V2000
    7.1100   -3.2780   19.2410 C   0  0  0  0  0  0  0  0  0  0  0  0
    6.4010   -4.0810   20.2480 C   0  0  0  0  0  0  0  0  0  0  0  0
    5.3570   -4.6970   19.9430 O   0  0  0  0  0  0  0  0  0  0  0  0
    6.9110   -4.1990   21.5480 N   0  0  0  0  0  0  0  0  0  0  0  0
    7.6660   -3.1010   22.1030 C   0  0  0  0  0  0  0  0  0  0  0  0
    6.8200   -2.5590   23.2500 C   0  0  0  0  0  0  0  0  0  0  0  0
    6.6310   -3.7140   24.2050 C   0  0  0  0  0  0  0  0  0  0  0  0
    5.8550   -3.2600   25.3710 C   0  0  0  0  0  0  0  0  0  0  0  0
    4.9420   -2.4230   25.1970 O   0  0  0  0  0  0  0  0  0  0  0  0
    6.1320   -3.8080   26.6450 N   0  0  0  0  0  0  0  0  0  0  0  0
    5.7230   -5.1960   26.8380 C   0  0  0  0  0  0  0  0  0  0  0  0
    5.1750   -5.5760   28.2140 C   0  0  0  0  0  0  0  0  0  0  0  0
    4.3700   -4.7820   28.9820 C   0  0  0  0  0  0  0  0  0  0  0  0
    6.3120   -6.0810   29.0470 C   0  0  0  0  0  0  0  0  0  0  0  0
    5.7840   -7.3210   29.1730 O   0  0  0  0  0  0  0  0  0  0  0  0
    4.6880   -6.9690   28.3320 C   0  0  0  0  0  0  0  0  0  0  0  0
    5.9600   -3.1440   27.9680 C   0  0  0  0  0  0  0  0  0  0  0  0
    6.4970   -1.7400   28.2020 C   0  0  0  0  0  0  0  0  0  0  0  0
    5.0860   -2.1390   28.5520 C   0  0  0  0  0  0  0  0  0  0  0  0
    7.3000   -1.1520   29.2780 C   0  0  0  0  0  0  0  0  0  0  0  0
    7.2210    0.0920   28.9220 O   0  0  0  0  0  0  0  0  0  0  0  0
    6.4140   -0.2540   27.8320 C   0  0  0  0  0  0  0  0  0  0  0  0
    5.8800   -4.8360   23.5380 C   0  0  0  0  0  0  0  0  0  0  0  0
    6.4500   -5.2620   22.3710 C   0  0  0  0  0  0  0  0  0  0  0  0
  1  2  1  0
  2  3  2  0
  2  4  1  0
  4  5  1  0
  5  6  1  0
  6  7  1  0
  7  8  1  0
  8  9  2  0
  8 10  1  0
 10 11  1  0
 12 11  1  0
 12 13  1  0
 12 14  1  0
 14 15  1  0
 12 16  1  0
 15 16  1  0
 10 17  1  0
 18 17  1  0
 18 19  1  0
 18 20  1  0
 20 21  1  0
 18 22  1  0
 21 22  1  0
  7 23  1  0
  4 24  1  0
 23 24  1  0
M  END
