piperidine-amides-3733-covalent
     RDKit          3D

 21 23  0  0  0  0  0  0  0  0999 V2000
    7.1080   -3.3360   19.2970 C   0  0  0  0  0  0  0  0  0  0  0  0
    6.4380   -4.1800   20.2970 C   0  0  0  0  0  0  0  0  0  0  0  0
    5.3630   -4.7280   19.9520 O   0  0  0  0  0  0  0  0  0  0  0  0
    7.0210   -4.4160   21.5650 N   0  0  0  0  0  0  0  0  0  0  0  0
    6.4900   -5.4780   22.3260 C   0  0  0  0  0  0  0  0  0  0  0  0
    5.8440   -5.0480   23.5620 C   0  0  0  0  0  0  0  0  0  0  0  0
    6.3860   -3.8280   24.2240 C   0  0  0  0  0  0  0  0  0  0  0  0
    5.4620   -3.3730   25.3020 C   0  0  0  0  0  0  0  0  0  0  0  0
    4.2530   -3.2290   25.0450 O   0  0  0  0  0  0  0  0  0  0  0  0
    5.9100   -3.0920   26.6010 N   0  0  0  0  0  0  0  0  0  0  0  0
    5.9620   -1.8310   27.2240 C   0  0  1  0  0  0  0  0  0  0  0  0
    4.8740   -0.9110   27.5040 C   0  0  0  0  0  0  0  0  0  0  0  0
    5.5030    0.4630   27.8660 C   0  0  0  0  0  0  0  0  0  0  0  0
    5.9230    0.5390   29.1880 C   0  0  0  0  0  0  0  0  0  0  0  0
    6.8860   -0.6210   28.9210 C   0  0  1  0  0  0  0  0  0  0  0  0
    7.5600   -0.5680   30.2480 C   0  0  0  0  0  0  0  0  0  0  0  0
    6.2490   -1.9910   28.7240 C   0  0  0  0  0  0  0  0  0  0  0  0
    7.7840   -0.5350   27.8960 O   0  0  0  0  0  0  0  0  0  0  0  0
    7.1090   -1.1010   26.7560 C   0  0  0  0  0  0  0  0  0  0  0  0
    6.7170   -2.7310   23.2410 C   0  0  0  0  0  0  0  0  0  0  0  0
    7.6770   -3.3170   22.2140 C   0  0  0  0  0  0  0  0  0  0  0  0
  1  2  1  0
  2  3  2  0
  2  4  1  0
  4  5  1  0
  5  6  1  0
  6  7  1  0
  7  8  1  0
  8  9  2  0
  8 10  1  0
 11 10  1  6
 11 12  1  0
 12 13  1  0
 13 14  1  0
 14 15  1  0
 15 16  1  1
 11 17  1  0
 15 17  1  0
 15 18  1  0
 11 19  1  0
 18 19  1  0
  7 20  1  0
  4 21  1  0
 20 21  1  0
M  END
