piperidine-amides-31373-covalent
     RDKit          3D

 22 24  0  0  0  0  0  0  0  0999 V2000
    7.1500   -3.4010   19.4970 C   0  0  0  0  0  0  0  0  0  0  0  0
    6.4380   -4.2410   20.4280 C   0  0  0  0  0  0  0  0  0  0  0  0
    5.4370   -4.9030   20.0020 O   0  0  0  0  0  0  0  0  0  0  0  0
    6.8520   -4.3800   21.7750 N   0  0  0  0  0  0  0  0  0  0  0  0
    6.4640   -5.6070   22.4940 C   0  0  0  0  0  0  0  0  0  0  0  0
    6.7010   -5.1190   23.9840 C   0  0  0  0  0  0  0  0  0  0  0  0
    6.2050   -3.6930   23.9980 C   0  0  0  0  0  0  0  0  0  0  0  0
    5.5190   -3.1860   25.3480 C   0  0  0  0  0  0  0  0  0  0  0  0
    4.6450   -2.3850   25.0630 O   0  0  0  0  0  0  0  0  0  0  0  0
    6.0090   -3.7220   26.3900 N   0  0  0  0  0  0  0  0  0  0  0  0
    6.6880   -4.4980   27.2490 C   0  0  0  0  0  0  0  0  0  0  0  0
    7.3720   -5.6690   27.3270 C   0  0  0  0  0  0  0  0  0  0  0  0
    7.2690   -5.9780   28.6720 C   0  0  0  0  0  0  0  0  0  0  0  0
    5.9220   -5.5890   29.0320 C   0  0  0  0  0  0  0  0  0  0  0  0
    4.7230   -6.2920   30.0820 S   0  0  0  0  0  0  0  0  0  0  0  0
    3.3850   -5.0950   29.8520 C   0  0  0  0  0  0  0  0  0  0  0  0
    1.6080   -4.9660   30.5830 Br  0  0  0  0  0  0  0  0  0  0  0  0
    3.9460   -4.1610   28.9220 C   0  0  0  0  0  0  0  0  0  0  0  0
    5.2620   -4.4010   28.4840 C   0  0  0  0  0  0  0  0  0  0  0  0
    5.3280   -3.1740   27.5600 C   0  0  0  0  0  0  0  0  0  0  0  0
    7.0590   -2.7290   23.2390 C   0  0  0  0  0  0  0  0  0  0  0  0
    7.8010   -3.4800   22.3720 C   0  0  0  0  0  0  0  0  0  0  0  0
  1  2  1  0
  2  3  2  0
  2  4  1  0
  4  5  1  0
  5  6  1  0
  6  7  1  0
  7  8  1  0
  8  9  2  0
  8 10  1  0
 10 11  1  0
 11 12  1  0
 12 13  1  0
 13 14  1  0
 14 15  1  0
 15 16  1  0
 16 17  1  0
 16 18  2  0
 14 19  2  0
 18 19  1  0
 10 20  1  0
 19 20  1  0
  7 21  1  0
  4 22  1  0
 21 22  1  0
M  END
