piperidine-amides-11742-covalent
     RDKit          3D

 28 30  0  0  0  0  0  0  0  0999 V2000
    7.0600   -3.3370   19.2730 C   0  0  0  0  0  0  0  0  0  0  0  0
    6.3510   -4.1460   20.2580 C   0  0  0  0  0  0  0  0  0  0  0  0
    5.3140   -4.7270   19.9430 O   0  0  0  0  0  0  0  0  0  0  0  0
    6.8850   -4.3170   21.5770 N   0  0  0  0  0  0  0  0  0  0  0  0
    7.7350   -3.2920   22.1400 C   0  0  0  0  0  0  0  0  0  0  0  0
    7.1360   -2.7350   23.3900 C   0  0  0  0  0  0  0  0  0  0  0  0
    6.7630   -3.8980   24.2790 C   0  0  0  0  0  0  0  0  0  0  0  0
    6.0590   -3.3800   25.4730 C   0  0  0  0  0  0  0  0  0  0  0  0
    4.8170   -3.3190   25.5840 O   0  0  0  0  0  0  0  0  0  0  0  0
    6.9060   -2.9520   26.5190 N   0  0  0  0  0  0  0  0  0  0  0  0
    6.7060   -1.6910   27.2130 C   0  0  0  0  0  0  0  0  0  0  0  0
    7.1700   -1.5710   28.6290 C   0  0  0  0  0  0  0  0  0  0  0  0
    7.0180   -0.4150   29.3610 C   0  0  0  0  0  0  0  0  0  0  0  0
    6.4110    0.7140   28.7880 C   0  0  0  0  0  0  0  0  0  0  0  0
    5.9530    0.7010   27.4830 C   0  0  0  0  0  0  0  0  0  0  0  0
    6.0520   -0.4530   26.6030 C   0  0  0  0  0  0  0  0  0  0  0  0
    5.6060   -0.4760   25.3030 C   0  0  0  0  0  0  0  0  0  0  0  0
    5.0770   -1.4590   24.6250 O   0  0  0  0  0  0  0  0  0  0  0  0
    5.7440    0.7260   24.7010 N   0  0  0  0  0  0  0  0  0  0  0  0
    4.6390    1.0650   23.8580 C   0  0  0  0  0  0  0  0  0  0  0  0
    4.4150    2.4400   23.8590 C   0  0  0  0  0  0  0  0  0  0  0  0
    3.0980    2.9720   23.5650 C   0  0  0  0  0  0  0  0  0  0  0  0
    2.8130    4.3100   23.5490 C   0  0  0  0  0  0  0  0  0  0  0  0
    3.8160    5.2320   23.8240 C   0  0  0  0  0  0  0  0  0  0  0  0
    5.0700    4.7960   24.1070 N   0  0  0  0  0  0  0  0  0  0  0  0
    5.3630    3.4100   24.1230 C   0  0  0  0  0  0  0  0  0  0  0  0
    5.8860   -4.9240   23.6290 C   0  0  0  0  0  0  0  0  0  0  0  0
    6.5150   -5.4580   22.3620 C   0  0  0  0  0  0  0  0  0  0  0  0
  1  2  1  0
  2  3  2  0
  2  4  1  0
  4  5  1  0
  5  6  1  0
  6  7  1  0
  7  8  1  0
  8  9  2  0
  8 10  1  0
 10 11  1  0
 11 12  2  0
 12 13  1  0
 13 14  2  0
 14 15  1  0
 11 16  1  0
 15 16  2  0
 16 17  1  0
 17 18  2  0
 17 19  1  0
 19 20  1  0
 20 21  1  0
 21 22  2  0
 22 23  1  0
 23 24  2  0
 24 25  1  0
 21 26  1  0
 25 26  2  0
  7 27  1  0
  4 28  1  0
 27 28  1  0
M  END
