piperidine-amides-10269-covalent
     RDKit          3D

 24 26  0  0  0  0  0  0  0  0999 V2000
    7.0650   -3.3250   19.2910 C   0  0  0  0  0  0  0  0  0  0  0  0
    6.3900   -4.1410   20.3010 C   0  0  0  0  0  0  0  0  0  0  0  0
    5.3290   -4.7180   19.9460 O   0  0  0  0  0  0  0  0  0  0  0  0
    6.9490   -4.2980   21.5730 N   0  0  0  0  0  0  0  0  0  0  0  0
    7.7450   -3.2630   22.1950 C   0  0  0  0  0  0  0  0  0  0  0  0
    6.9800   -2.7260   23.3630 C   0  0  0  0  0  0  0  0  0  0  0  0
    6.4880   -3.8390   24.2400 C   0  0  0  0  0  0  0  0  0  0  0  0
    5.7950   -3.2750   25.4150 C   0  0  0  0  0  0  0  0  0  0  0  0
    4.5580   -3.1040   25.3450 O   0  0  0  0  0  0  0  0  0  0  0  0
    6.4680   -2.9310   26.6000 N   0  0  0  0  0  0  0  0  0  0  0  0
    6.4000   -1.6140   27.1970 C   0  0  0  0  0  0  0  0  0  0  0  0
    7.0200   -1.5730   28.5670 C   0  0  0  0  0  0  0  0  0  0  0  0
    7.0220   -0.4390   29.2360 C   0  0  0  0  0  0  0  0  0  0  0  0
    6.4430    0.5870   28.5860 C   0  0  0  0  0  0  0  0  0  0  0  0
    5.9020    0.4730   27.3370 N   0  0  0  0  0  0  0  0  0  0  0  0
    5.7330   -0.5130   26.3840 C   0  0  0  0  0  0  0  0  0  0  0  0
    5.2090    0.6970   25.9450 C   0  0  0  0  0  0  0  0  0  0  0  0
    3.9600    1.0150   25.5400 C   0  0  0  0  0  0  0  0  0  0  0  0
    3.9120    2.3080   25.2010 N   0  0  0  0  0  0  0  0  0  0  0  0
    5.0630    2.9770   25.3300 N   0  0  0  0  0  0  0  0  0  0  0  0
    5.3280    4.2630   25.0730 C   0  0  0  0  0  0  0  0  0  0  0  0
    5.9650    1.9830   25.8150 C   0  0  0  0  0  0  0  0  0  0  0  0
    5.6140   -4.8300   23.4600 C   0  0  0  0  0  0  0  0  0  0  0  0
    6.5320   -5.4200   22.4030 C   0  0  0  0  0  0  0  0  0  0  0  0
  1  2  1  0
  2  3  2  0
  2  4  1  0
  4  5  1  0
  5  6  1  0
  6  7  1  0
  7  8  1  0
  8  9  2  0
  8 10  1  0
 10 11  1  0
 11 12  2  0
 12 13  1  0
 13 14  2  0
 14 15  1  0
 11 16  1  0
 15 16  2  0
 16 17  1  0
 17 18  1  0
 18 19  2  0
 19 20  1  0
 20 21  1  0
 17 22  2  0
 20 22  1  0
  7 23  1  0
  4 24  1  0
 23 24  1  0
M  END
