piperidine-amides-31295-covalent
     RDKit          3D

 28 31  0  0  0  0  0  0  0  0999 V2000
    7.0470   -3.4130   19.5100 C   0  0  0  0  0  0  0  0  0  0  0  0
    6.3950   -4.3380   20.4130 C   0  0  0  0  0  0  0  0  0  0  0  0
    5.3740   -4.9690   19.9970 O   0  0  0  0  0  0  0  0  0  0  0  0
    6.8860   -4.5800   21.7080 N   0  0  0  0  0  0  0  0  0  0  0  0
    6.3730   -5.7510   22.4550 C   0  0  0  0  0  0  0  0  0  0  0  0
    5.2970   -5.0780   23.4200 C   0  0  0  0  0  0  0  0  0  0  0  0
    5.9670   -3.9550   24.2070 C   0  0  0  0  0  0  0  0  0  0  0  0
    4.9100   -3.2260   25.2080 C   0  0  0  0  0  0  0  0  0  0  0  0
    4.2490   -2.4470   24.5470 O   0  0  0  0  0  0  0  0  0  0  0  0
    4.9510   -3.5950   26.4520 N   0  0  0  0  0  0  0  0  0  0  0  0
    4.6780   -4.3000   27.5720 C   0  0  0  0  0  0  0  0  0  0  0  0
    5.0990   -4.3760   28.8510 C   0  0  0  0  0  0  0  0  0  0  0  0
    6.3490   -3.7880   28.9970 C   0  0  0  0  0  0  0  0  0  0  0  0
    6.9230   -3.1690   27.8110 C   0  0  0  0  0  0  0  0  0  0  0  0
    5.5860   -2.5490   27.2300 C   0  0  1  0  0  0  0  0  0  0  0  0
    6.4130   -2.0730   26.3000 C   0  0  0  0  0  0  0  0  0  0  0  0
    7.2120   -2.9920   26.2590 N   0  0  0  0  0  0  0  0  0  0  0  0
    8.0840   -2.6680   25.3520 C   0  0  0  0  0  0  0  0  0  0  0  0
    8.8340   -3.8780   25.5390 C   0  0  0  0  0  0  0  0  0  0  0  0
   10.0370   -4.2680   25.0730 N   0  0  0  0  0  0  0  0  0  0  0  0
   10.2620   -5.5260   25.6940 C   0  0  0  0  0  0  0  0  0  0  0  0
    9.4990   -6.2190   26.5060 C   0  0  0  0  0  0  0  0  0  0  0  0
    8.3400   -5.7840   26.8930 C   0  0  0  0  0  0  0  0  0  0  0  0
    8.0550   -4.6150   26.3920 N   0  0  0  0  0  0  0  0  0  0  0  0
    7.7200   -1.4090   24.8300 N   0  0  0  0  0  0  0  0  0  0  0  0
    6.5480   -1.0760   25.5550 O   0  0  0  0  0  0  0  0  0  0  0  0
    6.6830   -2.9550   23.2900 C   0  0  0  0  0  0  0  0  0  0  0  0
    7.5700   -3.5590   22.4410 C   0  0  0  0  0  0  0  0  0  0  0  0
  1  2  1  0
  2  3  2  0
  2  4  1  0
  4  5  1  0
  5  6  1  0
  6  7  1  0
  7  8  1  0
  8  9  2  0
  8 10  1  0
 10 11  1  0
 11 12  1  0
 12 13  1  0
 13 14  1  0
 10 15  1  0
 14 15  1  0
 15 16  1  6
 16 17  2  0
 17 18  1  0
 18 19  1  0
 19 20  2  0
 20 21  1  0
 21 22  2  0
 22 23  1  0
 19 24  1  0
 23 24  2  0
 18 25  2  0
 16 26  1  0
 25 26  1  0
  7 27  1  0
  4 28  1  0
 27 28  1  0
M  END
