piperidine-amides-11930-covalent
     RDKit          3D

 26 27  0  0  0  0  0  0  0  0999 V2000
    7.0500   -3.2990   19.2610 C   0  0  0  0  0  0  0  0  0  0  0  0
    6.3270   -4.0750   20.2680 C   0  0  0  0  0  0  0  0  0  0  0  0
    5.3180   -4.6970   19.9370 O   0  0  0  0  0  0  0  0  0  0  0  0
    6.7960   -4.1620   21.6240 N   0  0  0  0  0  0  0  0  0  0  0  0
    7.6440   -3.1170   22.1590 C   0  0  0  0  0  0  0  0  0  0  0  0
    7.3830   -2.9310   23.6230 C   0  0  0  0  0  0  0  0  0  0  0  0
    6.0860   -3.6500   23.9310 C   0  0  0  0  0  0  0  0  0  0  0  0
    5.6680   -3.3750   25.3360 C   0  0  0  0  0  0  0  0  0  0  0  0
    4.9970   -2.3740   25.6480 O   0  0  0  0  0  0  0  0  0  0  0  0
    6.0360   -4.2990   26.3410 N   0  0  0  0  0  0  0  0  0  0  0  0
    6.1540   -3.8710   27.7150 C   0  0  0  0  0  0  0  0  0  0  0  0
    6.3960   -5.0990   28.5770 C   0  0  0  0  0  0  0  0  0  0  0  0
    6.0520   -6.3590   28.2320 N   0  0  0  0  0  0  0  0  0  0  0  0
    5.0640   -7.4370   29.1330 S   0  0  0  0  0  0  0  0  0  0  0  0
    5.8860   -8.6740   29.2690 O   0  0  0  0  0  0  0  0  0  0  0  0
    3.8380   -7.7480   28.3540 O   0  0  0  0  0  0  0  0  0  0  0  0
    4.6270   -6.9370   30.7590 C   0  0  0  0  0  0  0  0  0  0  0  0
    5.5290   -7.3070   31.7610 C   0  0  0  0  0  0  0  0  0  0  0  0
    5.3270   -6.9970   33.0820 C   0  0  0  0  0  0  0  0  0  0  0  0
    6.1280   -7.2780   34.2670 C   0  0  0  0  0  0  0  0  0  0  0  0
    4.2060   -6.3070   33.4190 C   0  0  0  0  0  0  0  0  0  0  0  0
    3.2780   -5.9170   32.4700 C   0  0  0  0  0  0  0  0  0  0  0  0
    3.4940   -6.2390   31.1190 C   0  0  0  0  0  0  0  0  0  0  0  0
    2.2310   -5.7220   29.7720 Br  0  0  0  0  0  0  0  0  0  0  0  0
    6.0580   -5.0710   23.6250 C   0  0  0  0  0  0  0  0  0  0  0  0
    6.6370   -5.3690   22.3990 C   0  0  0  0  0  0  0  0  0  0  0  0
  1  2  1  0
  2  3  2  0
  2  4  1  0
  4  5  1  0
  5  6  1  0
  6  7  1  0
  7  8  1  0
  8  9  2  0
  8 10  1  0
 10 11  1  0
 11 12  1  0
 12 13  1  0
 14 13  1  0
 14 15  2  0
 14 16  2  0
 14 17  1  0
 17 18  2  0
 18 19  1  0
 19 20  1  0
 19 21  2  0
 21 22  1  0
 17 23  1  0
 22 23  2  0
 23 24  1  0
  7 25  1  0
  4 26  1  0
 25 26  1  0
M  END
