piperidine-amides-14807-covalent
     RDKit          3D

 22 24  0  0  0  0  0  0  0  0999 V2000
    7.0250   -3.3400   19.3400 C   0  0  0  0  0  0  0  0  0  0  0  0
    6.3780   -4.1840   20.3460 C   0  0  0  0  0  0  0  0  0  0  0  0
    5.3860   -4.8430   19.9860 O   0  0  0  0  0  0  0  0  0  0  0  0
    6.9080   -4.2720   21.6660 N   0  0  0  0  0  0  0  0  0  0  0  0
    7.6060   -3.1560   22.2400 C   0  0  0  0  0  0  0  0  0  0  0  0
    6.7990   -2.6110   23.3800 C   0  0  0  0  0  0  0  0  0  0  0  0
    6.5300   -3.7820   24.2890 C   0  0  0  0  0  0  0  0  0  0  0  0
    5.6710   -3.3710   25.4670 C   0  0  0  0  0  0  0  0  0  0  0  0
    4.4520   -3.4260   25.3210 O   0  0  0  0  0  0  0  0  0  0  0  0
    6.2640   -2.9640   26.6610 N   0  0  0  0  0  0  0  0  0  0  0  0
    6.8420   -1.6700   26.8920 C   0  0  2  0  0  0  0  0  0  0  0  0
    7.1460   -1.4010   28.2110 C   0  0  0  0  0  0  0  0  0  0  0  0
    6.4940   -0.2640   28.5910 C   0  0  0  0  0  0  0  0  0  0  0  0
    5.6790    0.3890   27.6470 C   0  0  0  0  0  0  0  0  0  0  0  0
    5.6140    1.1440   28.8370 C   0  0  0  0  0  0  0  0  0  0  0  0
    4.6800    1.8600   27.7300 C   0  0  0  0  0  0  0  0  0  0  0  0
    3.8390    3.3370   28.2300 Cl  0  0  0  0  0  0  0  0  0  0  0  0
    4.4500    1.3630   26.2520 C   0  0  0  0  0  0  0  0  0  0  0  0
    5.1020    0.1020   25.6580 C   0  0  0  0  0  0  0  0  0  0  0  0
    5.9460   -0.5220   26.6950 C   0  0  0  0  0  0  0  0  0  0  0  0
    5.7580   -4.8450   23.5260 C   0  0  0  0  0  0  0  0  0  0  0  0
    6.5670   -5.3720   22.5370 C   0  0  0  0  0  0  0  0  0  0  0  0
  1  2  1  0
  2  3  2  0
  2  4  1  0
  4  5  1  0
  5  6  1  0
  6  7  1  0
  7  8  1  0
  8  9  2  0
  8 10  1  0
 11 10  1  1
 11 12  1  0
 12 13  1  0
 13 14  1  0
 14 15  1  0
 15 16  2  0
 16 17  1  0
 16 18  1  0
 18 19  2  0
 11 20  1  0
 14 20  2  0
 19 20  1  0
  7 21  1  0
  4 22  1  0
 21 22  1  0
M  END
