piperidine-amides-27828-covalent
     RDKit          3D

 26 28  0  0  0  0  0  0  0  0999 V2000
    7.1660   -3.2760   19.1620 C   0  0  0  0  0  0  0  0  0  0  0  0
    6.4150   -4.0510   20.1700 C   0  0  0  0  0  0  0  0  0  0  0  0
    5.2920   -4.4840   19.8520 O   0  0  0  0  0  0  0  0  0  0  0  0
    6.9930   -4.3280   21.3990 N   0  0  0  0  0  0  0  0  0  0  0  0
    6.5880   -5.4850   22.1100 C   0  0  0  0  0  0  0  0  0  0  0  0
    6.0470   -5.1740   23.4250 C   0  0  0  0  0  0  0  0  0  0  0  0
    6.7390   -4.0620   24.1030 C   0  0  0  0  0  0  0  0  0  0  0  0
    5.9530   -3.6660   25.2650 C   0  0  0  0  0  0  0  0  0  0  0  0
    4.9570   -2.9260   25.1320 O   0  0  0  0  0  0  0  0  0  0  0  0
    6.3590   -4.1530   26.4830 N   0  0  0  0  0  0  0  0  0  0  0  0
    7.7600   -4.4830   26.7730 C   0  0  0  0  0  0  0  0  0  0  0  0
    7.8790   -4.3500   28.2240 C   0  0  0  0  0  0  0  0  0  0  0  0
    7.1880   -3.1860   28.7640 C   0  0  0  0  0  0  0  0  0  0  0  0
    7.8540   -2.1100   28.9200 O   0  0  0  0  0  0  0  0  0  0  0  0
    5.7950   -3.4310   29.0560 N   0  0  0  0  0  0  0  0  0  0  0  0
    5.1360   -4.5620   28.5720 C   0  0  0  0  0  0  0  0  0  0  0  0
    4.2250   -5.3670   29.2650 C   0  0  0  0  0  0  0  0  0  0  0  0
    3.6610   -6.4690   28.6410 C   0  0  0  0  0  0  0  0  0  0  0  0
    2.7740   -7.2590   29.3150 C   0  0  0  0  0  0  0  0  0  0  0  0
    1.7340   -7.5820   28.5260 N   0  0  0  0  0  0  0  0  0  0  0  0
    2.9080   -7.6940   30.6650 O   0  0  0  0  0  0  0  0  0  0  0  0
    3.9680   -6.8100   27.3280 C   0  0  0  0  0  0  0  0  0  0  0  0
    4.8610   -6.0210   26.6370 C   0  0  0  0  0  0  0  0  0  0  0  0
    5.4520   -4.8630   27.3060 C   0  0  0  0  0  0  0  0  0  0  0  0
    7.0160   -2.8690   23.2770 C   0  0  0  0  0  0  0  0  0  0  0  0
    7.7720   -3.3130   22.0800 C   0  0  0  0  0  0  0  0  0  0  0  0
  1  2  1  0
  2  3  2  0
  2  4  1  0
  4  5  1  0
  5  6  1  0
  6  7  1  0
  7  8  1  0
  8  9  2  0
  8 10  1  0
 10 11  1  0
 11 12  1  0
 12 13  1  0
 13 14  2  0
 13 15  1  0
 15 16  1  0
 16 17  1  0
 17 18  2  0
 18 19  1  0
 19 20  1  0
 19 21  2  0
 18 22  1  0
 22 23  2  0
 10 24  1  0
 16 24  2  0
 23 24  1  0
  7 25  1  0
  4 26  1  0
 25 26  1  0
M  END
