piperidine-amides-19046-covalent
     RDKit          3D

 22 24  0  0  0  0  0  0  0  0999 V2000
    7.1650   -3.3260   19.3720 C   0  0  0  0  0  0  0  0  0  0  0  0
    6.4540   -4.1360   20.3280 C   0  0  0  0  0  0  0  0  0  0  0  0
    5.4070   -4.7610   19.9610 O   0  0  0  0  0  0  0  0  0  0  0  0
    6.9260   -4.2740   21.6410 N   0  0  0  0  0  0  0  0  0  0  0  0
    6.6800   -5.5470   22.3500 C   0  0  0  0  0  0  0  0  0  0  0  0
    5.8020   -4.9920   23.5280 C   0  0  0  0  0  0  0  0  0  0  0  0
    6.6290   -3.8900   24.1540 C   0  0  0  0  0  0  0  0  0  0  0  0
    5.9580   -3.3790   25.4870 C   0  0  0  0  0  0  0  0  0  0  0  0
    5.3670   -2.3140   25.3670 O   0  0  0  0  0  0  0  0  0  0  0  0
    6.2270   -4.2740   26.3110 N   0  0  0  0  0  0  0  0  0  0  0  0
    6.3790   -5.2800   26.9920 C   0  0  2  0  0  0  0  0  0  0  0  0
    5.8670   -5.9280   28.0770 C   0  0  0  0  0  0  0  0  0  0  0  0
    4.5430   -6.3570   27.9150 C   0  0  0  0  0  0  0  0  0  0  0  0
    3.7370   -7.1030   28.9320 C   0  0  0  0  0  0  0  0  0  0  0  0
    4.5230   -7.3840   30.2600 C   0  0  0  0  0  0  0  0  0  0  0  0
    5.8230   -6.8680   30.2000 C   0  0  0  0  0  0  0  0  0  0  0  0
    6.4640   -6.1840   29.1860 C   0  0  0  0  0  0  0  0  0  0  0  0
    7.3590   -4.2000   27.3100 C   0  0  0  0  0  0  0  0  0  0  0  0
    8.4470   -5.3360   27.4200 C   0  0  0  0  0  0  0  0  0  0  0  0
    7.1600   -3.3470   28.5020 C   0  0  0  0  0  0  0  0  0  0  0  0
    7.0360   -2.7530   23.2410 C   0  0  0  0  0  0  0  0  0  0  0  0
    7.7660   -3.2560   22.2280 C   0  0  0  0  0  0  0  0  0  0  0  0
  1  2  1  0
  2  3  2  0
  2  4  1  0
  4  5  1  0
  5  6  1  0
  6  7  1  0
  7  8  1  0
  8  9  2  0
  8 10  1  0
 10 11  1  0
 11 12  1  1
 12 13  2  0
 13 14  1  0
 14 15  2  0
 15 16  1  0
 12 17  1  0
 16 17  2  0
 10 18  1  0
 11 18  1  0
 18 19  1  0
 18 20  1  0
  7 21  1  0
  4 22  1  0
 21 22  1  0
M  END
