piperidine-amides-6841-covalent
     RDKit          3D

 23 24  0  0  0  0  0  0  0  0999 V2000
    7.1280   -3.2930   19.2040 C   0  0  0  0  0  0  0  0  0  0  0  0
    6.3410   -4.0300   20.2050 C   0  0  0  0  0  0  0  0  0  0  0  0
    5.2620   -4.5690   19.8830 O   0  0  0  0  0  0  0  0  0  0  0  0
    6.8170   -4.1830   21.5060 N   0  0  0  0  0  0  0  0  0  0  0  0
    7.7150   -3.1910   22.0710 C   0  0  0  0  0  0  0  0  0  0  0  0
    7.0450   -2.6510   23.3270 C   0  0  0  0  0  0  0  0  0  0  0  0
    6.8200   -3.8480   24.2210 C   0  0  0  0  0  0  0  0  0  0  0  0
    6.1920   -3.3650   25.4590 C   0  0  0  0  0  0  0  0  0  0  0  0
    4.9410   -3.2900   25.5190 O   0  0  0  0  0  0  0  0  0  0  0  0
    7.0400   -2.9840   26.5340 N   0  0  0  0  0  0  0  0  0  0  0  0
    7.4920   -3.9420   27.5090 C   0  0  2  0  0  0  0  0  0  0  0  0
    8.3690   -4.9720   26.8090 C   0  0  0  0  0  0  0  0  0  0  0  0
    6.3110   -4.5770   28.1460 C   0  0  0  0  0  0  0  0  0  0  0  0
    5.0820   -4.0540   28.3140 C   0  0  0  0  0  0  0  0  0  0  0  0
    4.9000   -2.7660   27.8350 F   0  0  0  0  0  0  0  0  0  0  0  0
    4.1730   -4.8480   28.9300 C   0  0  0  0  0  0  0  0  0  0  0  0
    4.4130   -6.1110   29.3830 C   0  0  0  0  0  0  0  0  0  0  0  0
    3.2860   -6.6650   29.9660 F   0  0  0  0  0  0  0  0  0  0  0  0
    5.7250   -6.9060   29.3070 C   0  0  0  0  0  0  0  0  0  0  0  0
    6.5930   -5.8450   28.5910 C   0  0  0  0  0  0  0  0  0  0  0  0
    7.8060   -6.4020   28.4490 F   0  0  0  0  0  0  0  0  0  0  0  0
    5.9730   -4.9030   23.6220 C   0  0  0  0  0  0  0  0  0  0  0  0
    6.4220   -5.2990   22.2940 C   0  0  0  0  0  0  0  0  0  0  0  0
  1  2  1  0
  2  3  2  0
  2  4  1  0
  4  5  1  0
  5  6  1  0
  6  7  1  0
  7  8  1  0
  8  9  2  0
  8 10  1  0
 10 11  1  0
 11 12  1  6
 11 13  1  0
 13 14  2  0
 14 15  1  0
 14 16  1  0
 16 17  2  0
 17 18  1  0
 17 19  1  0
 13 20  1  0
 19 20  2  0
 20 21  1  0
  7 22  1  0
  4 23  1  0
 22 23  1  0
M  END
