piperidine-amides-16133-covalent
     RDKit          3D

 19 20  0  0  0  0  0  0  0  0999 V2000
    7.0260   -3.3570   19.3620 C   0  0  0  0  0  0  0  0  0  0  0  0
    6.3620   -4.2390   20.3580 C   0  0  0  0  0  0  0  0  0  0  0  0
    5.3530   -4.8260   19.9740 O   0  0  0  0  0  0  0  0  0  0  0  0
    6.8920   -4.4310   21.6470 N   0  0  0  0  0  0  0  0  0  0  0  0
    6.4610   -5.5210   22.4650 C   0  0  0  0  0  0  0  0  0  0  0  0
    5.5110   -4.9780   23.4980 C   0  0  0  0  0  0  0  0  0  0  0  0
    6.2320   -3.9510   24.3780 C   0  0  0  0  0  0  0  0  0  0  0  0
    5.2330   -3.3750   25.3200 C   0  0  0  0  0  0  0  0  0  0  0  0
    4.3270   -2.6970   24.8370 O   0  0  0  0  0  0  0  0  0  0  0  0
    5.2620   -3.5520   26.7350 N   0  0  0  0  0  0  0  0  0  0  0  0
    6.5120   -3.4380   27.3460 C   0  0  0  0  0  0  0  0  0  0  0  0
    6.6420   -4.6800   28.2240 C   0  0  2  0  0  0  0  0  0  0  0  0
    6.5210   -5.9750   27.8150 C   0  0  0  0  0  0  0  0  0  0  0  0
    5.5800   -4.5520   29.0520 O   0  0  0  0  0  0  0  0  0  0  0  0
    4.7070   -3.5010   28.9400 C   0  0  0  0  0  0  0  0  0  0  0  0
    4.2240   -3.3150   27.6610 C   0  0  2  0  0  0  0  0  0  0  0  0
    2.9350   -3.9630   27.1980 C   0  0  0  0  0  0  0  0  0  0  0  0
    6.9620   -2.8950   23.5860 C   0  0  0  0  0  0  0  0  0  0  0  0
    7.6220   -3.3680   22.3100 C   0  0  0  0  0  0  0  0  0  0  0  0
  1  2  1  0
  2  3  2  0
  2  4  1  0
  4  5  1  0
  5  6  1  0
  6  7  1  0
  7  8  1  0
  8  9  2  0
  8 10  1  0
 10 11  1  0
 11 12  1  0
 12 13  1  6
 12 14  1  0
 14 15  1  0
 10 16  1  0
 15 16  1  0
 16 17  1  6
  7 18  1  0
  4 19  1  0
 18 19  1  0
M  END
