piperidine-amides-8612-covalent
     RDKit          3D

 23 24  0  0  0  0  0  0  0  0999 V2000
    7.0760   -3.3360   19.3150 C   0  0  0  0  0  0  0  0  0  0  0  0
    6.3480   -4.1180   20.3070 C   0  0  0  0  0  0  0  0  0  0  0  0
    5.3180   -4.7090   19.9420 O   0  0  0  0  0  0  0  0  0  0  0  0
    6.8470   -4.2350   21.6290 N   0  0  0  0  0  0  0  0  0  0  0  0
    7.7070   -3.2170   22.1660 C   0  0  0  0  0  0  0  0  0  0  0  0
    7.0520   -2.6110   23.3620 C   0  0  0  0  0  0  0  0  0  0  0  0
    6.6370   -3.7790   24.2100 C   0  0  0  0  0  0  0  0  0  0  0  0
    5.8050   -3.2860   25.3520 C   0  0  0  0  0  0  0  0  0  0  0  0
    4.6110   -3.1000   25.1280 O   0  0  0  0  0  0  0  0  0  0  0  0
    6.4330   -3.0790   26.5770 N   0  0  0  0  0  0  0  0  0  0  0  0
    6.4320   -1.8150   27.2370 C   0  0  0  0  0  0  0  0  0  0  0  0
    6.9250   -1.5200   28.5190 C   0  0  0  0  0  0  0  0  0  0  0  0
    6.8780   -0.2590   29.1010 C   0  0  0  0  0  0  0  0  0  0  0  0
    7.5240   -0.0110   30.7310 Cl  0  0  0  0  0  0  0  0  0  0  0  0
    6.3270    0.8450   28.4410 C   0  0  0  0  0  0  0  0  0  0  0  0
    6.3360    2.0590   29.1150 O   0  0  0  0  0  0  0  0  0  0  0  0
    6.5870    3.1320   28.2890 C   0  0  0  0  0  0  0  0  0  0  0  0
    5.8060    0.7210   27.1840 C   0  0  0  0  0  0  0  0  0  0  0  0
    5.2480    1.6120   26.3940 O   0  0  0  0  0  0  0  0  0  0  0  0
    4.1020    1.0970   25.7930 C   0  0  0  0  0  0  0  0  0  0  0  0
    5.8390   -0.6160   26.5310 C   0  0  0  0  0  0  0  0  0  0  0  0
    5.8810   -4.8570   23.5450 C   0  0  0  0  0  0  0  0  0  0  0  0
    6.5560   -5.3790   22.4630 C   0  0  0  0  0  0  0  0  0  0  0  0
  1  2  1  0
  2  3  2  0
  2  4  1  0
  4  5  1  0
  5  6  1  0
  6  7  1  0
  7  8  1  0
  8  9  2  0
  8 10  1  0
 10 11  1  0
 11 12  2  0
 12 13  1  0
 13 14  1  0
 13 15  2  0
 15 16  1  0
 16 17  1  0
 15 18  1  0
 18 19  1  0
 19 20  1  0
 11 21  1  0
 18 21  2  0
  7 22  1  0
  4 23  1  0
 22 23  1  0
M  END
