piperidine-amides-4587-covalent
     RDKit          3D

 24 25  0  0  0  0  0  0  0  0999 V2000
    7.0640   -3.3270   19.3360 C   0  0  0  0  0  0  0  0  0  0  0  0
    6.3920   -4.1740   20.3470 C   0  0  0  0  0  0  0  0  0  0  0  0
    5.3650   -4.7730   19.9670 O   0  0  0  0  0  0  0  0  0  0  0  0
    6.9220   -4.3290   21.6400 N   0  0  0  0  0  0  0  0  0  0  0  0
    7.6620   -3.2640   22.2570 C   0  0  0  0  0  0  0  0  0  0  0  0
    7.2050   -2.9140   23.5980 C   0  0  0  0  0  0  0  0  0  0  0  0
    5.9640   -3.6020   24.0000 C   0  0  0  0  0  0  0  0  0  0  0  0
    5.5830   -3.2570   25.3890 C   0  0  0  0  0  0  0  0  0  0  0  0
    4.3840   -3.3560   25.7040 O   0  0  0  0  0  0  0  0  0  0  0  0
    6.5380   -2.8350   26.3280 N   0  0  0  0  0  0  0  0  0  0  0  0
    6.4600   -1.5820   27.1170 C   0  0  0  0  0  0  0  0  0  0  0  0
    7.0750   -1.6140   28.4500 C   0  0  0  0  0  0  0  0  0  0  0  0
    7.0490   -0.4490   29.2810 C   0  0  0  0  0  0  0  0  0  0  0  0
    6.4290    0.6680   28.7670 C   0  0  0  0  0  0  0  0  0  0  0  0
    5.8330    0.7260   27.5000 C   0  0  0  0  0  0  0  0  0  0  0  0
    5.8200   -0.3620   26.6460 C   0  0  0  0  0  0  0  0  0  0  0  0
    5.2200   -0.2610   25.4170 C   0  0  0  0  0  0  0  0  0  0  0  0
    4.5590    0.9330   25.2500 C   0  0  0  0  0  0  0  0  0  0  0  0
    3.3410    0.9350   25.9560 C   0  0  0  0  0  0  0  0  0  0  0  0
    2.7380   -0.2560   26.2050 F   0  0  0  0  0  0  0  0  0  0  0  0
    3.5120    1.6040   27.1000 F   0  0  0  0  0  0  0  0  0  0  0  0
    2.4080    1.6240   25.1970 F   0  0  0  0  0  0  0  0  0  0  0  0
    5.9590   -5.0660   23.7650 C   0  0  0  0  0  0  0  0  0  0  0  0
    6.6310   -5.4890   22.4800 C   0  0  0  0  0  0  0  0  0  0  0  0
  1  2  1  0
  2  3  2  0
  2  4  1  0
  4  5  1  0
  5  6  1  0
  6  7  1  0
  7  8  1  0
  8  9  2  0
  8 10  1  0
 10 11  1  0
 11 12  2  0
 12 13  1  0
 13 14  2  0
 14 15  1  0
 11 16  1  0
 15 16  2  0
 16 17  1  0
 17 18  1  0
 18 19  1  0
 19 20  1  0
 19 21  1  0
 19 22  1  0
  7 23  1  0
  4 24  1  0
 23 24  1  0
M  END
