piperidine-amides-8041-covalent
     RDKit          3D

 26 28  0  0  0  0  0  0  0  0999 V2000
    7.0980   -3.3500   19.3340 C   0  0  0  0  0  0  0  0  0  0  0  0
    6.4330   -4.2100   20.3080 C   0  0  0  0  0  0  0  0  0  0  0  0
    5.3810   -4.7760   19.9680 O   0  0  0  0  0  0  0  0  0  0  0  0
    7.0270   -4.4280   21.5790 N   0  0  0  0  0  0  0  0  0  0  0  0
    7.7240   -3.3460   22.2010 C   0  0  0  0  0  0  0  0  0  0  0  0
    6.8180   -2.7390   23.2180 C   0  0  0  0  0  0  0  0  0  0  0  0
    6.4080   -3.8490   24.1590 C   0  0  0  0  0  0  0  0  0  0  0  0
    5.6580   -3.2290   25.2840 C   0  0  0  0  0  0  0  0  0  0  0  0
    4.4350   -3.1910   25.1960 O   0  0  0  0  0  0  0  0  0  0  0  0
    6.4090   -2.7560   26.3330 N   0  0  0  0  0  0  0  0  0  0  0  0
    6.2830   -1.4570   26.9010 C   0  0  0  0  0  0  0  0  0  0  0  0
    5.9090   -0.2250   26.3370 C   0  0  0  0  0  0  0  0  0  0  0  0
    5.8530    0.9500   27.0760 C   0  0  0  0  0  0  0  0  0  0  0  0
    6.1620    1.0200   28.4340 C   0  0  0  0  0  0  0  0  0  0  0  0
    6.0910    2.5270   29.3820 S   0  0  0  0  0  0  0  0  0  0  0  0
    5.7510    2.2440   31.1400 C   0  0  0  0  0  0  0  0  0  0  0  0
    5.0960    0.8640   31.4040 C   0  0  0  0  0  0  0  0  0  0  0  0
    3.6880    0.7980   30.9500 C   0  0  0  0  0  0  0  0  0  0  0  0
    2.9410    1.9430   31.5740 C   0  0  0  0  0  0  0  0  0  0  0  0
    3.9160    2.8440   32.3790 C   0  0  0  0  0  0  0  0  0  0  0  0
    4.9570    3.4130   31.6780 C   0  0  0  0  0  0  0  0  0  0  0  0
    6.5370   -0.1090   29.0900 C   0  0  0  0  0  0  0  0  0  0  0  0
    6.5950   -1.3700   28.3230 C   0  0  0  0  0  0  0  0  0  0  0  0
    6.9740   -2.6120   28.9920 C   0  0  0  0  0  0  0  0  0  0  0  0
    5.5720   -4.8760   23.4090 C   0  0  0  0  0  0  0  0  0  0  0  0
    6.4990   -5.5130   22.3680 C   0  0  0  0  0  0  0  0  0  0  0  0
  1  2  1  0
  2  3  2  0
  2  4  1  0
  4  5  1  0
  5  6  1  0
  6  7  1  0
  7  8  1  0
  8  9  2  0
  8 10  1  0
 10 11  1  0
 11 12  2  0
 12 13  1  0
 13 14  2  0
 14 15  1  0
 15 16  1  0
 16 17  1  0
 17 18  1  0
 18 19  1  0
 19 20  1  0
 16 21  1  0
 20 21  1  0
 14 22  1  0
 11 23  1  0
 22 23  2  0
 23 24  1  0
  7 25  1  0
  4 26  1  0
 25 26  1  0
M  END
