piperidine-amides-25302-covalent
     RDKit          3D

 23 24  0  0  0  0  0  0  0  0999 V2000
    7.0480   -3.3300   19.2940 C   0  0  0  0  0  0  0  0  0  0  0  0
    6.3670   -4.1710   20.3090 C   0  0  0  0  0  0  0  0  0  0  0  0
    5.3530   -4.7650   19.9550 O   0  0  0  0  0  0  0  0  0  0  0  0
    6.9050   -4.3020   21.5870 N   0  0  0  0  0  0  0  0  0  0  0  0
    6.6130   -5.4530   22.3910 C   0  0  0  0  0  0  0  0  0  0  0  0
    5.6570   -5.0410   23.4750 C   0  0  0  0  0  0  0  0  0  0  0  0
    5.9130   -3.5780   23.8760 C   0  0  0  0  0  0  0  0  0  0  0  0
    5.3730   -3.3500   25.2420 C   0  0  0  0  0  0  0  0  0  0  0  0
    4.2560   -2.8360   25.3440 O   0  0  0  0  0  0  0  0  0  0  0  0
    6.0540   -3.6870   26.4230 N   0  0  0  0  0  0  0  0  0  0  0  0
    5.6100   -2.9920   27.6110 C   0  0  0  0  0  0  0  0  0  0  0  0
    5.8380   -3.8770   28.8060 C   0  0  0  0  0  0  0  0  0  0  0  0
    6.7240   -4.8980   28.7720 C   0  0  0  0  0  0  0  0  0  0  0  0
    6.8700   -5.4540   27.5730 C   0  0  0  0  0  0  0  0  0  0  0  0
    7.1320   -4.5750   26.5590 C   0  0  1  0  0  0  0  0  0  0  0  0
    7.5070   -5.0810   25.1870 C   0  0  0  0  0  0  0  0  0  0  0  0
    8.5890   -5.8540   25.7800 C   0  0  0  0  0  0  0  0  0  0  0  0
    9.8140   -4.7100   26.3470 P   0  0  0  0  0  0  0  0  0  0  0  0
    9.6440   -5.0690   28.0970 C   0  0  0  0  0  0  0  0  0  0  0  0
    9.3690   -3.0230   25.7670 C   0  0  0  0  0  0  0  0  0  0  0  0
   11.1940   -4.9120   25.9040 O   0  0  0  0  0  0  0  0  0  0  0  0
    7.3270   -3.1150   23.6540 C   0  0  0  0  0  0  0  0  0  0  0  0
    7.6290   -3.1920   22.1710 C   0  0  0  0  0  0  0  0  0  0  0  0
  1  2  1  0
  2  3  2  0
  2  4  1  0
  4  5  1  0
  5  6  1  0
  6  7  1  0
  7  8  1  0
  8  9  2  0
  8 10  1  0
 10 11  1  0
 11 12  1  0
 12 13  1  0
 13 14  1  0
 10 15  1  0
 14 15  1  0
 15 16  1  6
 16 17  1  0
 17 18  1  0
 18 19  1  0
 18 20  1  0
 18 21  2  0
  7 22  1  0
  4 23  1  0
 22 23  1  0
M  END
