piperidine-amides-29158-covalent
     RDKit          3D

 25 27  0  0  0  0  0  0  0  0999 V2000
    7.0410   -3.3680   19.3670 C   0  0  0  0  0  0  0  0  0  0  0  0
    6.4120   -4.2470   20.3470 C   0  0  0  0  0  0  0  0  0  0  0  0
    5.3940   -4.8700   19.9920 O   0  0  0  0  0  0  0  0  0  0  0  0
    6.9900   -4.4110   21.6360 N   0  0  0  0  0  0  0  0  0  0  0  0
    6.6500   -5.5730   22.3990 C   0  0  0  0  0  0  0  0  0  0  0  0
    5.7270   -5.1750   23.5150 C   0  0  0  0  0  0  0  0  0  0  0  0
    6.3610   -4.0600   24.3350 C   0  0  0  0  0  0  0  0  0  0  0  0
    5.3280   -3.5420   25.3050 C   0  0  0  0  0  0  0  0  0  0  0  0
    4.3400   -3.0360   24.7950 O   0  0  0  0  0  0  0  0  0  0  0  0
    5.5410   -3.6560   26.6800 N   0  0  0  0  0  0  0  0  0  0  0  0
    6.7750   -3.8960   27.1720 C   0  0  0  0  0  0  0  0  0  0  0  0
    6.6370   -4.8470   28.1590 C   0  0  0  0  0  0  0  0  0  0  0  0
    5.2900   -4.8980   28.4260 C   0  0  0  0  0  0  0  0  0  0  0  0
    4.4980   -4.0820   27.5930 C   0  0  1  0  0  0  0  0  0  0  0  0
    3.9990   -2.9990   28.5110 C   0  0  0  0  0  0  0  0  0  0  0  0
    3.8520   -1.5950   27.8820 C   0  0  0  0  0  0  0  0  0  0  0  0
    2.5590   -1.3120   27.1810 C   0  0  0  0  0  0  0  0  0  0  0  0
    1.6460   -2.3610   27.1900 F   0  0  0  0  0  0  0  0  0  0  0  0
    2.4530    0.0570   26.5800 C   0  0  0  0  0  0  0  0  0  0  0  0
    3.6700    0.9790   26.7640 C   0  0  0  0  0  0  0  0  0  0  0  0
    4.7860    0.5710   27.4390 C   0  0  0  0  0  0  0  0  0  0  0  0
    4.9110   -0.6800   28.0000 C   0  0  0  0  0  0  0  0  0  0  0  0
    6.3880   -1.1020   28.8500 Cl  0  0  0  0  0  0  0  0  0  0  0  0
    6.8090   -2.9010   23.4880 C   0  0  0  0  0  0  0  0  0  0  0  0
    7.6400   -3.3310   22.3190 C   0  0  0  0  0  0  0  0  0  0  0  0
  1  2  1  0
  2  3  2  0
  2  4  1  0
  4  5  1  0
  5  6  1  0
  6  7  1  0
  7  8  1  0
  8  9  2  0
  8 10  1  0
 10 11  1  0
 11 12  1  0
 12 13  1  0
 10 14  1  0
 13 14  1  0
 14 15  1  1
 15 16  1  0
 16 17  2  0
 17 18  1  0
 17 19  1  0
 19 20  2  0
 20 21  1  0
 16 22  1  0
 21 22  2  0
 22 23  1  0
  7 24  1  0
  4 25  1  0
 24 25  1  0
M  END
