piperidine-amides-4736-covalent
     RDKit          3D

 24 26  0  0  0  0  0  0  0  0999 V2000
    7.0800   -3.2960   19.1840 C   0  0  0  0  0  0  0  0  0  0  0  0
    6.3600   -4.0650   20.2250 C   0  0  0  0  0  0  0  0  0  0  0  0
    5.2760   -4.5780   19.8900 O   0  0  0  0  0  0  0  0  0  0  0  0
    6.9080   -4.2560   21.4990 N   0  0  0  0  0  0  0  0  0  0  0  0
    7.6150   -3.1870   22.1370 C   0  0  0  0  0  0  0  0  0  0  0  0
    7.0600   -2.7650   23.4180 C   0  0  0  0  0  0  0  0  0  0  0  0
    6.4800   -3.8560   24.2160 C   0  0  0  0  0  0  0  0  0  0  0  0
    5.7490   -3.2990   25.3760 C   0  0  0  0  0  0  0  0  0  0  0  0
    4.5300   -3.0700   25.2530 O   0  0  0  0  0  0  0  0  0  0  0  0
    6.4120   -3.0450   26.5860 N   0  0  0  0  0  0  0  0  0  0  0  0
    6.3970   -1.7280   27.2670 C   0  0  0  0  0  0  0  0  0  0  0  0
    7.0340   -1.5970   28.5760 C   0  0  0  0  0  0  0  0  0  0  0  0
    7.0200   -0.3320   29.2590 C   0  0  0  0  0  0  0  0  0  0  0  0
    6.3910    0.7390   28.6400 C   0  0  0  0  0  0  0  0  0  0  0  0
    5.7620    0.6770   27.3810 C   0  0  0  0  0  0  0  0  0  0  0  0
    5.1350    1.8620   26.8310 N   0  0  0  0  0  0  0  0  0  0  0  0
    3.7930    2.0650   26.7990 C   0  0  0  0  0  0  0  0  0  0  0  0
    3.6280    3.4090   27.1050 C   0  0  0  0  0  0  0  0  0  0  0  0
    4.5810    3.6700   28.0340 N   0  0  0  0  0  0  0  0  0  0  0  0
    5.6410    2.9550   27.6860 C   0  0  0  0  0  0  0  0  0  0  0  0
    6.9220    3.2020   28.0490 O   0  0  0  0  0  0  0  0  0  0  0  0
    5.7560   -0.5320   26.6860 C   0  0  0  0  0  0  0  0  0  0  0  0
    5.6880   -4.8570   23.4710 C   0  0  0  0  0  0  0  0  0  0  0  0
    6.5180   -5.3850   22.3330 C   0  0  0  0  0  0  0  0  0  0  0  0
  1  2  1  0
  2  3  2  0
  2  4  1  0
  4  5  1  0
  5  6  1  0
  6  7  1  0
  7  8  1  0
  8  9  2  0
  8 10  1  0
 10 11  1  0
 11 12  2  0
 12 13  1  0
 13 14  2  0
 14 15  1  0
 15 16  1  0
 16 17  1  0
 17 18  1  0
 18 19  1  0
 16 20  1  0
 19 20  1  0
 20 21  2  0
 11 22  1  0
 15 22  2  0
  7 23  1  0
  4 24  1  0
 23 24  1  0
M  END
