piperidine-amides-28598-covalent
     RDKit          3D

 26 28  0  0  0  0  0  0  0  0999 V2000
    7.0850   -3.2770   19.2380 C   0  0  0  0  0  0  0  0  0  0  0  0
    6.3730   -4.0570   20.2560 C   0  0  0  0  0  0  0  0  0  0  0  0
    5.3230   -4.6340   19.9170 O   0  0  0  0  0  0  0  0  0  0  0  0
    6.8890   -4.1830   21.5730 N   0  0  0  0  0  0  0  0  0  0  0  0
    6.5490   -5.3510   22.3400 C   0  0  0  0  0  0  0  0  0  0  0  0
    6.3860   -5.0020   23.8000 C   0  0  0  0  0  0  0  0  0  0  0  0
    6.2270   -3.4990   23.9200 C   0  0  0  0  0  0  0  0  0  0  0  0
    5.9090   -3.0890   25.3240 C   0  0  0  0  0  0  0  0  0  0  0  0
    4.7620   -3.3280   25.7050 O   0  0  0  0  0  0  0  0  0  0  0  0
    6.9060   -2.4710   26.0940 N   0  0  0  0  0  0  0  0  0  0  0  0
    6.5830   -1.7810   27.2870 C   0  0  0  0  0  0  0  0  0  0  0  0
    7.5870   -0.9400   27.1780 C   0  0  0  0  0  0  0  0  0  0  0  0
    8.5160   -0.8780   28.0010 O   0  0  0  0  0  0  0  0  0  0  0  0
    8.2990   -0.3230   29.2210 C   0  0  0  0  0  0  0  0  0  0  0  0
    7.0030    0.0870   29.5680 O   0  0  0  0  0  0  0  0  0  0  0  0
    9.3410   -0.1460   30.1750 N   0  0  0  0  0  0  0  0  0  0  0  0
    9.7480    1.1840   30.3890 C   0  0  0  0  0  0  0  0  0  0  0  0
   10.6000    1.4160   31.5910 C   0  0  0  0  0  0  0  0  0  0  0  0
   11.0630    2.8550   31.8600 C   0  0  0  0  0  0  0  0  0  0  0  0
   10.6810    3.9640   30.9580 C   0  0  0  0  0  0  0  0  0  0  0  0
    9.8190    3.7150   29.7470 C   0  0  0  0  0  0  0  0  0  0  0  0
    9.4560    4.7460   28.9030 F   0  0  0  0  0  0  0  0  0  0  0  0
    9.3860    2.2340   29.5370 C   0  0  0  0  0  0  0  0  0  0  0  0
    8.0720   -1.4800   25.9910 C   0  0  0  0  0  0  0  0  0  0  0  0
    7.5270   -2.8940   23.5130 C   0  0  0  0  0  0  0  0  0  0  0  0
    7.7450   -3.1180   22.0550 C   0  0  0  0  0  0  0  0  0  0  0  0
  1  2  1  0
  2  3  2  0
  2  4  1  0
  4  5  1  0
  5  6  1  0
  6  7  1  0
  7  8  1  0
  8  9  2  0
  8 10  1  0
 10 11  1  0
 11 12  1  0
 12 13  1  0
 13 14  1  0
 14 15  2  0
 14 16  1  0
 16 17  1  0
 17 18  2  0
 18 19  1  0
 19 20  2  0
 20 21  1  0
 21 22  1  0
 17 23  1  0
 21 23  2  0
 10 24  1  0
 12 24  1  0
  7 25  1  0
  4 26  1  0
 25 26  1  0
M  END
