piperidine-amides-24396-covalent
     RDKit          3D

 24 26  0  0  0  0  0  0  0  0999 V2000
    7.0710   -3.3490   19.3520 C   0  0  0  0  0  0  0  0  0  0  0  0
    6.3360   -4.1960   20.3040 C   0  0  0  0  0  0  0  0  0  0  0  0
    5.3140   -4.8140   19.9560 O   0  0  0  0  0  0  0  0  0  0  0  0
    6.8080   -4.3450   21.6080 N   0  0  0  0  0  0  0  0  0  0  0  0
    6.6520   -5.6270   22.2810 C   0  0  0  0  0  0  0  0  0  0  0  0
    6.1450   -5.3840   23.7200 C   0  0  0  0  0  0  0  0  0  0  0  0
    5.9790   -3.8960   23.8790 C   0  0  0  0  0  0  0  0  0  0  0  0
    5.5150   -3.4680   25.2200 C   0  0  0  0  0  0  0  0  0  0  0  0
    4.4420   -2.8350   25.2490 O   0  0  0  0  0  0  0  0  0  0  0  0
    6.2050   -3.7430   26.4280 N   0  0  0  0  0  0  0  0  0  0  0  0
    6.8970   -5.0280   26.5700 C   0  0  0  0  0  0  0  0  0  0  0  0
    7.0720   -5.3200   28.0120 C   0  0  0  0  0  0  0  0  0  0  0  0
    6.5090   -4.3330   28.6750 C   0  0  0  0  0  0  0  0  0  0  0  0
    5.7890   -3.5320   27.8400 C   0  0  1  0  0  0  0  0  0  0  0  0
    5.8900   -2.1400   27.9260 C   0  0  0  0  0  0  0  0  0  0  0  0
    5.2990   -1.8310   29.0990 N   0  0  0  0  0  0  0  0  0  0  0  0
    3.8940   -1.9180   29.3190 C   0  0  0  0  0  0  0  0  0  0  0  0
    3.4800   -2.5460   30.6260 C   0  0  0  0  0  0  0  0  0  0  0  0
    3.6170   -1.0270   30.7720 C   0  0  0  0  0  0  0  0  0  0  0  0
    3.8580   -0.0510   29.6480 C   0  0  0  0  0  0  0  0  0  0  0  0
    4.9810   -0.3130   30.7890 C   0  0  0  0  0  0  0  0  0  0  0  0
    5.9450   -0.9070   29.9510 C   0  0  0  0  0  0  0  0  0  0  0  0
    7.3250   -3.2830   23.6430 C   0  0  0  0  0  0  0  0  0  0  0  0
    7.6290   -3.3130   22.1860 C   0  0  0  0  0  0  0  0  0  0  0  0
  1  2  1  0
  2  3  2  0
  2  4  1  0
  4  5  1  0
  5  6  1  0
  6  7  1  0
  7  8  1  0
  8  9  2  0
  8 10  1  0
 10 11  1  0
 11 12  1  0
 12 13  1  0
 10 14  1  0
 13 14  1  0
 14 15  1  1
 15 16  1  0
 16 17  1  0
 17 18  1  0
 18 19  1  0
 19 20  1  0
 19 21  1  0
 16 22  1  0
 21 22  1  0
  7 23  1  0
  4 24  1  0
 23 24  1  0
M  END
