piperidine-amides-24334-covalent
     RDKit          3D

 23 25  0  0  0  0  0  0  0  0999 V2000
    7.0720   -3.3230   19.3530 C   0  0  0  0  0  0  0  0  0  0  0  0
    6.3940   -4.1950   20.3220 C   0  0  0  0  0  0  0  0  0  0  0  0
    5.3790   -4.8410   19.9810 O   0  0  0  0  0  0  0  0  0  0  0  0
    6.9010   -4.3520   21.6190 N   0  0  0  0  0  0  0  0  0  0  0  0
    6.5230   -5.5150   22.3760 C   0  0  0  0  0  0  0  0  0  0  0  0
    5.6140   -4.9880   23.4890 C   0  0  0  0  0  0  0  0  0  0  0  0
    6.4740   -4.0650   24.3220 C   0  0  0  0  0  0  0  0  0  0  0  0
    5.6210   -3.4310   25.3700 C   0  0  0  0  0  0  0  0  0  0  0  0
    4.7950   -2.5910   24.9640 O   0  0  0  0  0  0  0  0  0  0  0  0
    5.6800   -3.7440   26.7710 N   0  0  0  0  0  0  0  0  0  0  0  0
    4.4590   -3.5400   27.4970 C   0  0  0  0  0  0  0  0  0  0  0  0
    4.4360   -4.6910   28.4240 C   0  0  0  0  0  0  0  0  0  0  0  0
    5.7740   -5.1140   28.2370 N   0  0  0  0  0  0  0  0  0  0  0  0
    6.9060   -4.3770   28.7260 C   0  0  0  0  0  0  0  0  0  0  0  0
    6.9170   -5.5370   29.2270 O   0  0  0  0  0  0  0  0  0  0  0  0
    6.4340   -3.2850   27.9350 C   0  0  2  0  0  0  0  0  0  0  0  0
    5.6060   -2.3470   28.5690 C   0  0  0  0  0  0  0  0  0  0  0  0
    4.9360   -2.5610   29.7120 C   0  0  0  0  0  0  0  0  0  0  0  0
    4.0590   -1.4910   30.3710 C   0  0  0  0  0  0  0  0  0  0  0  0
    4.3610   -0.4320   29.2610 C   0  0  0  0  0  0  0  0  0  0  0  0
    5.3940   -0.7850   27.9250 S   0  0  0  0  0  0  0  0  0  0  0  0
    7.1270   -2.9610   23.5760 C   0  0  0  0  0  0  0  0  0  0  0  0
    7.6520   -3.3220   22.2600 C   0  0  0  0  0  0  0  0  0  0  0  0
  1  2  1  0
  2  3  2  0
  2  4  1  0
  4  5  1  0
  5  6  1  0
  6  7  1  0
  7  8  1  0
  8  9  2  0
  8 10  1  0
 10 11  1  0
 11 12  1  0
 12 13  1  0
 13 14  1  0
 14 15  2  0
 10 16  1  0
 14 16  1  0
 16 17  1  1
 17 18  2  0
 18 19  1  0
 19 20  2  0
 17 21  1  0
 20 21  1  0
  7 22  1  0
  4 23  1  0
 22 23  1  0
M  END
