piperidine-amides-14499-covalent
     RDKit          3D

 23 24  0  0  0  0  0  0  0  0999 V2000
    7.0580   -3.2880   19.2540 C   0  0  0  0  0  0  0  0  0  0  0  0
    6.3830   -4.1040   20.2660 C   0  0  0  0  0  0  0  0  0  0  0  0
    5.3360   -4.6880   19.9360 O   0  0  0  0  0  0  0  0  0  0  0  0
    6.9390   -4.2640   21.5620 N   0  0  0  0  0  0  0  0  0  0  0  0
    7.6410   -3.1630   22.1660 C   0  0  0  0  0  0  0  0  0  0  0  0
    7.3570   -3.1070   23.6430 C   0  0  0  0  0  0  0  0  0  0  0  0
    5.9980   -3.7400   23.8550 C   0  0  0  0  0  0  0  0  0  0  0  0
    5.4500   -3.4880   25.2230 C   0  0  0  0  0  0  0  0  0  0  0  0
    4.2530   -3.2290   25.2830 O   0  0  0  0  0  0  0  0  0  0  0  0
    6.2880   -3.5520   26.3250 N   0  0  0  0  0  0  0  0  0  0  0  0
    6.4970   -2.3870   27.0930 C   0  0  0  0  0  0  0  0  0  0  0  0
    6.7730   -2.5570   28.4520 C   0  0  0  0  0  0  0  0  0  0  0  0
    7.3600   -1.4880   29.1040 C   0  0  0  0  0  0  0  0  0  0  0  0
    6.7130   -0.8790   30.1740 C   0  0  0  0  0  0  0  0  0  0  0  0
    6.1400    0.3640   29.5590 C   0  0  0  0  0  0  0  0  0  0  0  0
    5.5060    1.2120   30.4090 N   0  0  0  0  0  0  0  0  0  0  0  0
    4.4400    1.9140   30.0230 C   0  0  0  0  0  0  0  0  0  0  0  0
    3.1990    1.8450   30.8370 C   0  0  0  0  0  0  0  0  0  0  0  0
    3.5660    2.0400   32.2810 C   0  0  0  0  0  0  0  0  0  0  0  0
    4.9320    1.3730   32.5840 C   0  0  0  0  0  0  0  0  0  0  0  0
    5.9880    1.5610   31.7200 C   0  0  0  0  0  0  0  0  0  0  0  0
    6.1750   -5.2060   23.6460 C   0  0  0  0  0  0  0  0  0  0  0  0
    6.6270   -5.4960   22.2470 C   0  0  0  0  0  0  0  0  0  0  0  0
  1  2  1  0
  2  3  2  0
  2  4  1  0
  4  5  1  0
  5  6  1  0
  6  7  1  0
  7  8  1  0
  8  9  2  0
  8 10  1  0
 10 11  1  0
 11 12  1  0
 12 13  1  0
 13 14  1  0
 14 15  1  0
 15 16  1  0
 16 17  1  0
 17 18  1  0
 18 19  1  0
 19 20  1  0
 16 21  1  0
 20 21  1  0
  7 22  1  0
  4 23  1  0
 22 23  1  0
M  END
