piperidine-amides-25099-covalent
     RDKit          3D

 25 28  0  0  0  0  0  0  0  0999 V2000
    7.0660   -3.3390   19.3620 C   0  0  0  0  0  0  0  0  0  0  0  0
    6.4050   -4.2300   20.3480 C   0  0  0  0  0  0  0  0  0  0  0  0
    5.3830   -4.8050   19.9740 O   0  0  0  0  0  0  0  0  0  0  0  0
    6.9680   -4.4330   21.6170 N   0  0  0  0  0  0  0  0  0  0  0  0
    6.5800   -5.5400   22.4300 C   0  0  0  0  0  0  0  0  0  0  0  0
    5.6110   -5.0350   23.4630 C   0  0  0  0  0  0  0  0  0  0  0  0
    6.2110   -3.8800   24.2830 C   0  0  0  0  0  0  0  0  0  0  0  0
    5.1440   -3.3780   25.1890 C   0  0  0  0  0  0  0  0  0  0  0  0
    3.9770   -3.4220   24.8020 O   0  0  0  0  0  0  0  0  0  0  0  0
    5.3960   -2.8530   26.4750 N   0  0  0  0  0  0  0  0  0  0  0  0
    6.6590   -3.0110   26.9980 C   0  0  0  0  0  0  0  0  0  0  0  0
    6.4150   -4.0570   28.0630 C   0  0  0  0  0  0  0  0  0  0  0  0
    5.1080   -4.4160   28.2930 C   0  0  1  0  0  0  0  0  0  0  0  0
    4.4280   -4.6600   29.5020 N   0  0  0  0  0  0  0  0  0  0  0  0
    3.3020   -3.9550   30.1190 C   0  0  0  0  0  0  0  0  0  0  0  0
    3.0250   -4.6050   31.2980 N   0  0  0  0  0  0  0  0  0  0  0  0
    3.9230   -5.7250   31.5020 C   0  0  0  0  0  0  0  0  0  0  0  0
    3.9940   -6.7130   32.6490 C   0  0  0  0  0  0  0  0  0  0  0  0
    5.0790   -7.7580   32.5180 C   0  0  0  0  0  0  0  0  0  0  0  0
    6.0090   -7.7970   31.3210 C   0  0  0  0  0  0  0  0  0  0  0  0
    5.8080   -6.7610   30.2840 C   0  0  0  0  0  0  0  0  0  0  0  0
    4.7880   -5.7140   30.3350 C   0  0  0  0  0  0  0  0  0  0  0  0
    4.6160   -3.1150   27.6900 C   0  0  0  0  0  0  0  0  0  0  0  0
    6.7420   -2.7720   23.3840 C   0  0  0  0  0  0  0  0  0  0  0  0
    7.6410   -3.3700   22.3320 C   0  0  0  0  0  0  0  0  0  0  0  0
  1  2  1  0
  2  3  2  0
  2  4  1  0
  4  5  1  0
  5  6  1  0
  6  7  1  0
  7  8  1  0
  8  9  2  0
  8 10  1  0
 10 11  1  0
 11 12  1  0
 12 13  1  0
 13 14  1  1
 14 15  1  0
 15 16  2  0
 16 17  1  0
 17 18  1  0
 18 19  2  0
 19 20  1  0
 20 21  2  0
 14 22  1  0
 17 22  2  0
 21 22  1  0
 10 23  1  0
 13 23  1  0
  7 24  1  0
  4 25  1  0
 24 25  1  0
M  END
