piperidine-amides-8694-covalent
     RDKit          3D

 23 25  0  0  0  0  0  0  0  0999 V2000
    7.0450   -3.3230   19.2910 C   0  0  0  0  0  0  0  0  0  0  0  0
    6.3700   -4.1420   20.2940 C   0  0  0  0  0  0  0  0  0  0  0  0
    5.3380   -4.7460   19.9550 O   0  0  0  0  0  0  0  0  0  0  0  0
    6.9160   -4.2860   21.6000 N   0  0  0  0  0  0  0  0  0  0  0  0
    7.7140   -3.2260   22.1700 C   0  0  0  0  0  0  0  0  0  0  0  0
    6.9920   -2.6260   23.3300 C   0  0  0  0  0  0  0  0  0  0  0  0
    6.6340   -3.7920   24.2050 C   0  0  0  0  0  0  0  0  0  0  0  0
    5.7780   -3.3010   25.3260 C   0  0  0  0  0  0  0  0  0  0  0  0
    4.5780   -3.1650   25.0920 O   0  0  0  0  0  0  0  0  0  0  0  0
    6.3930   -3.0380   26.5380 N   0  0  0  0  0  0  0  0  0  0  0  0
    6.3690   -1.7460   27.1330 C   0  0  0  0  0  0  0  0  0  0  0  0
    5.8910   -0.4990   26.6440 C   0  0  0  0  0  0  0  0  0  0  0  0
    5.9360    0.7030   27.3790 C   0  0  0  0  0  0  0  0  0  0  0  0
    6.4640    0.7810   28.6760 C   0  0  0  0  0  0  0  0  0  0  0  0
    6.5650    1.9050   29.5010 N   0  0  0  0  0  0  0  0  0  0  0  0
    7.1750    1.6730   30.8270 C   0  0  0  0  0  0  0  0  0  0  0  0
    7.3490    2.6720   31.7500 O   0  0  0  0  0  0  0  0  0  0  0  0
    8.1020    3.6740   31.1340 C   0  0  0  0  0  0  0  0  0  0  0  0
    7.5580   -0.0410   30.8400 S   0  0  0  0  0  0  0  0  0  0  0  0
    6.9400   -0.3610   29.2110 C   0  0  0  0  0  0  0  0  0  0  0  0
    6.9330   -1.6480   28.5220 C   0  0  0  0  0  0  0  0  0  0  0  0
    5.9430   -4.9140   23.5600 C   0  0  0  0  0  0  0  0  0  0  0  0
    6.5780   -5.4110   22.4460 C   0  0  0  0  0  0  0  0  0  0  0  0
  1  2  1  0
  2  3  2  0
  2  4  1  0
  4  5  1  0
  5  6  1  0
  6  7  1  0
  7  8  1  0
  8  9  2  0
  8 10  1  0
 10 11  1  0
 11 12  2  0
 12 13  1  0
 13 14  2  0
 14 15  1  0
 15 16  2  0
 16 17  1  0
 17 18  1  0
 16 19  1  0
 14 20  1  0
 19 20  1  0
 11 21  1  0
 20 21  2  0
  7 22  1  0
  4 23  1  0
 22 23  1  0
M  END
