piperidine-amides-8828-covalent
     RDKit          3D

 22 24  0  0  0  0  0  0  0  0999 V2000
    7.0280   -3.3300   19.3630 C   0  0  0  0  0  0  0  0  0  0  0  0
    6.3750   -4.1770   20.3600 C   0  0  0  0  0  0  0  0  0  0  0  0
    5.4010   -4.8560   19.9860 O   0  0  0  0  0  0  0  0  0  0  0  0
    6.8600   -4.2480   21.6970 N   0  0  0  0  0  0  0  0  0  0  0  0
    7.7220   -3.2000   22.2060 C   0  0  0  0  0  0  0  0  0  0  0  0
    7.4640   -2.9590   23.6640 C   0  0  0  0  0  0  0  0  0  0  0  0
    6.1590   -3.6480   23.9360 C   0  0  0  0  0  0  0  0  0  0  0  0
    5.6600   -3.4170   25.3300 C   0  0  0  0  0  0  0  0  0  0  0  0
    4.5270   -3.8320   25.5520 O   0  0  0  0  0  0  0  0  0  0  0  0
    6.4440   -2.7490   26.2680 N   0  0  0  0  0  0  0  0  0  0  0  0
    5.8200   -1.8110   27.1470 C   0  0  0  0  0  0  0  0  0  0  0  0
    4.9170   -2.1370   28.1770 C   0  0  0  0  0  0  0  0  0  0  0  0
    5.1210   -2.0660   29.5440 C   0  0  0  0  0  0  0  0  0  0  0  0
    4.1760   -2.4000   30.5200 C   0  0  0  0  0  0  0  0  0  0  0  0
    2.8450   -2.8720   30.0080 C   0  0  0  0  0  0  0  0  0  0  0  0
    1.5020   -3.3490   31.2930 Br  0  0  0  0  0  0  0  0  0  0  0  0
    2.6230   -2.9500   28.4850 C   0  0  0  0  0  0  0  0  0  0  0  0
    3.6420   -2.5880   27.6080 N   0  0  0  0  0  0  0  0  0  0  0  0
    6.1360   -0.4870   27.0270 C   0  0  0  0  0  0  0  0  0  0  0  0
    7.0140   -0.7670   27.8670 C   0  0  0  0  0  0  0  0  0  0  0  0
    6.1390   -5.0970   23.6920 C   0  0  0  0  0  0  0  0  0  0  0  0
    6.7050   -5.4510   22.4880 C   0  0  0  0  0  0  0  0  0  0  0  0
  1  2  1  0
  2  3  2  0
  2  4  1  0
  4  5  1  0
  5  6  1  0
  6  7  1  0
  7  8  1  0
  8  9  2  0
  8 10  1  0
 10 11  1  0
 11 12  1  0
 12 13  2  0
 13 14  1  0
 14 15  2  0
 15 16  1  0
 15 17  1  0
 12 18  1  0
 17 18  2  0
 11 19  1  0
 11 20  1  0
 19 20  1  0
  7 21  1  0
  4 22  1  0
 21 22  1  0
M  END
