piperidine-amides-19811-covalent
     RDKit          3D

 22 24  0  0  0  0  0  0  0  0999 V2000
    7.0440   -3.3280   19.3620 C   0  0  0  0  0  0  0  0  0  0  0  0
    6.3730   -4.1860   20.3710 C   0  0  0  0  0  0  0  0  0  0  0  0
    5.4000   -4.8370   19.9840 O   0  0  0  0  0  0  0  0  0  0  0  0
    6.8630   -4.2670   21.6830 N   0  0  0  0  0  0  0  0  0  0  0  0
    6.7190   -5.4690   22.4770 C   0  0  0  0  0  0  0  0  0  0  0  0
    6.0460   -5.1490   23.7890 C   0  0  0  0  0  0  0  0  0  0  0  0
    6.0570   -3.6360   24.0060 C   0  0  0  0  0  0  0  0  0  0  0  0
    5.5380   -3.3270   25.3610 C   0  0  0  0  0  0  0  0  0  0  0  0
    4.3130   -3.2610   25.5150 O   0  0  0  0  0  0  0  0  0  0  0  0
    6.3740   -3.0780   26.4660 N   0  0  0  0  0  0  0  0  0  0  0  0
    6.1370   -3.7470   27.7380 C   0  0  0  0  0  0  0  0  0  0  0  0
    5.2800   -4.9820   27.5670 C   0  0  0  0  0  0  0  0  0  0  0  0
    5.5720   -6.0470   28.3970 C   0  0  0  0  0  0  0  0  0  0  0  0
    4.7240   -7.0720   28.1720 C   0  0  0  0  0  0  0  0  0  0  0  0
    4.0650   -6.8430   27.0160 C   0  0  0  0  0  0  0  0  0  0  0  0
    4.2230   -5.5020   26.3530 C   0  0  0  0  0  0  0  0  0  0  0  0
    3.8080   -4.7940   27.6130 C   0  0  0  0  0  0  0  0  0  0  0  0
    6.7640   -1.7120   26.6720 C   0  0  0  0  0  0  0  0  0  0  0  0
    5.8730   -0.7020   26.8370 C   0  0  0  0  0  0  0  0  0  0  0  0
    6.7430   -0.9880   28.0790 C   0  0  0  0  0  0  0  0  0  0  0  0
    7.3150   -2.9640   23.6290 C   0  0  0  0  0  0  0  0  0  0  0  0
    7.7170   -3.2130   22.2230 C   0  0  0  0  0  0  0  0  0  0  0  0
  1  2  1  0
  2  3  2  0
  2  4  1  0
  4  5  1  0
  5  6  1  0
  6  7  1  0
  7  8  1  0
  8  9  2  0
  8 10  1  0
 10 11  1  0
 11 12  1  0
 12 13  1  0
 13 14  1  0
 14 15  1  0
 15 16  1  0
 12 17  1  0
 16 17  1  0
 10 18  1  0
 18 19  1  0
 18 20  1  0
 19 20  1  0
  7 21  1  0
  4 22  1  0
 21 22  1  0
M  END
