piperidine-amides-32562-covalent
     RDKit          3D

 29 32  0  0  0  0  0  0  0  0999 V2000
    7.1050   -3.3410   19.3450 C   0  0  0  0  0  0  0  0  0  0  0  0
    6.3600   -4.1820   20.3160 C   0  0  0  0  0  0  0  0  0  0  0  0
    5.3080   -4.7250   19.9470 O   0  0  0  0  0  0  0  0  0  0  0  0
    6.8850   -4.4000   21.6100 N   0  0  0  0  0  0  0  0  0  0  0  0
    6.5140   -5.5760   22.3470 C   0  0  0  0  0  0  0  0  0  0  0  0
    5.6160   -5.0780   23.4820 C   0  0  0  0  0  0  0  0  0  0  0  0
    6.4310   -4.1030   24.2610 C   0  0  0  0  0  0  0  0  0  0  0  0
    5.6630   -3.4350   25.3560 C   0  0  0  0  0  0  0  0  0  0  0  0
    4.9770   -2.4760   25.0070 O   0  0  0  0  0  0  0  0  0  0  0  0
    5.6870   -3.8690   26.6960 N   0  0  0  0  0  0  0  0  0  0  0  0
    4.5350   -3.9600   27.5450 C   0  0  0  0  0  0  0  0  0  0  0  0
    4.5030   -4.0790   28.9390 C   0  0  0  0  0  0  0  0  0  0  0  0
    5.5510   -4.9680   29.3790 N   0  0  0  0  0  0  0  0  0  0  0  0
    5.4160   -6.3180   29.6980 C   0  0  0  0  0  0  0  0  0  0  0  0
    4.0950   -6.6920   29.6560 C   0  0  0  0  0  0  0  0  0  0  0  0
    3.3500   -7.1060   28.4600 C   0  0  0  0  0  0  0  0  0  0  0  0
    3.7380   -7.2530   26.9810 C   0  0  0  0  0  0  0  0  0  0  0  0
    2.0920   -7.3860   28.8810 N   0  0  0  0  0  0  0  0  0  0  0  0
    1.9580   -7.1920   30.2280 C   0  0  0  0  0  0  0  0  0  0  0  0
    0.8100   -7.3810   31.0030 C   0  0  0  0  0  0  0  0  0  0  0  0
    0.7800   -7.1320   32.4870 C   0  0  0  0  0  0  0  0  0  0  0  0
    2.1970   -6.6810   32.7740 C   0  0  0  0  0  0  0  0  0  0  0  0
    3.0270   -6.2680   33.7860 C   0  0  0  0  0  0  0  0  0  0  0  0
    3.3660   -6.5010   31.9240 C   0  0  0  0  0  0  0  0  0  0  0  0
    3.1660   -6.7810   30.6380 N   0  0  0  0  0  0  0  0  0  0  0  0
    6.7200   -4.8230   28.6000 C   0  0  0  0  0  0  0  0  0  0  0  0
    6.3710   -3.5180   27.8830 C   0  0  0  0  0  0  0  0  0  0  0  0
    6.9730   -2.9480   23.4350 C   0  0  0  0  0  0  0  0  0  0  0  0
    7.5760   -3.3230   22.2440 C   0  0  0  0  0  0  0  0  0  0  0  0
  1  2  1  0
  2  3  2  0
  2  4  1  0
  4  5  1  0
  5  6  1  0
  6  7  1  0
  7  8  1  0
  8  9  2  0
  8 10  1  0
 10 11  1  0
 11 12  1  0
 12 13  1  0
 13 14  1  0
 14 15  1  0
 15 16  2  0
 16 17  1  0
 16 18  1  0
 18 19  2  0
 19 20  1  0
 20 21  2  0
 21 22  1  0
 22 23  1  0
 22 24  2  0
 15 25  1  0
 19 25  1  0
 24 25  1  0
 13 26  1  0
 10 27  1  0
 26 27  1  0
  7 28  1  0
  4 29  1  0
 28 29  1  0
M  END
