piperidine-amides-4381-covalent
     RDKit          3D

 25 27  0  0  0  0  0  0  0  0999 V2000
    7.0560   -3.3470   19.3430 C   0  0  0  0  0  0  0  0  0  0  0  0
    6.4110   -4.1970   20.3580 C   0  0  0  0  0  0  0  0  0  0  0  0
    5.3900   -4.8310   19.9840 O   0  0  0  0  0  0  0  0  0  0  0  0
    6.9470   -4.3360   21.6710 N   0  0  0  0  0  0  0  0  0  0  0  0
    6.5790   -5.4780   22.4380 C   0  0  0  0  0  0  0  0  0  0  0  0
    6.0760   -5.1530   23.7700 C   0  0  0  0  0  0  0  0  0  0  0  0
    6.0670   -3.7050   24.0660 C   0  0  0  0  0  0  0  0  0  0  0  0
    5.5000   -3.4130   25.4320 C   0  0  0  0  0  0  0  0  0  0  0  0
    4.2830   -3.5980   25.6040 O   0  0  0  0  0  0  0  0  0  0  0  0
    6.2540   -2.9210   26.5200 N   0  0  0  0  0  0  0  0  0  0  0  0
    6.3890   -1.5750   26.9360 C   0  0  0  0  0  0  0  0  0  0  0  0
    5.2380   -0.6690   26.9300 C   0  0  0  0  0  0  0  0  0  0  0  0
    5.6540    0.7320   27.4420 C   0  0  0  0  0  0  0  0  0  0  0  0
    6.0590    0.5320   28.8410 N   0  0  0  0  0  0  0  0  0  0  0  0
    5.1770    1.2490   29.7140 C   0  0  0  0  0  0  0  0  0  0  0  0
    5.8850    1.3950   31.0680 C   0  0  0  0  0  0  0  0  0  0  0  0
    7.3270    1.5950   30.7510 C   0  0  0  0  0  0  0  0  0  0  0  0
    7.9750    1.7260   32.1430 C   0  0  0  0  0  0  0  0  0  0  0  0
    7.3260    2.5010   33.2790 C   0  0  0  0  0  0  0  0  0  0  0  0
    5.9540    1.9270   33.6030 C   0  0  0  0  0  0  0  0  0  0  0  0
    5.2040    1.3420   32.4050 C   0  0  0  0  0  0  0  0  0  0  0  0
    6.4760   -0.6770   29.2210 C   0  0  0  0  0  0  0  0  0  0  0  0
    6.9940   -1.5610   28.2910 C   0  0  0  0  0  0  0  0  0  0  0  0
    7.3390   -3.0200   23.7180 C   0  0  0  0  0  0  0  0  0  0  0  0
    7.6920   -3.2400   22.2600 C   0  0  0  0  0  0  0  0  0  0  0  0
  1  2  1  0
  2  3  2  0
  2  4  1  0
  4  5  1  0
  5  6  1  0
  6  7  1  0
  7  8  1  0
  8  9  2  0
  8 10  1  0
 10 11  1  0
 11 12  1  0
 12 13  1  0
 13 14  1  0
 14 15  1  0
 15 16  1  0
 16 17  2  0
 17 18  1  0
 18 19  1  0
 19 20  1  0
 16 21  1  0
 20 21  1  0
 14 22  1  0
 11 23  1  0
 22 23  1  0
  7 24  1  0
  4 25  1  0
 24 25  1  0
M  END
