piperidine-amides-14917-covalent
     RDKit          3D

 21 22  0  0  0  0  0  0  0  0999 V2000
    7.0730   -3.3370   19.3120 C   0  0  0  0  0  0  0  0  0  0  0  0
    6.3850   -4.1570   20.3070 C   0  0  0  0  0  0  0  0  0  0  0  0
    5.3570   -4.7680   19.9610 O   0  0  0  0  0  0  0  0  0  0  0  0
    6.9170   -4.2830   21.6140 N   0  0  0  0  0  0  0  0  0  0  0  0
    6.5430   -5.4170   22.4050 C   0  0  0  0  0  0  0  0  0  0  0  0
    5.7520   -4.9420   23.5870 C   0  0  0  0  0  0  0  0  0  0  0  0
    6.5970   -3.8920   24.2820 C   0  0  0  0  0  0  0  0  0  0  0  0
    5.8030   -3.2650   25.3850 C   0  0  0  0  0  0  0  0  0  0  0  0
    4.6110   -3.0790   25.1620 O   0  0  0  0  0  0  0  0  0  0  0  0
    6.4550   -2.9540   26.5740 N   0  0  0  0  0  0  0  0  0  0  0  0
    6.4050   -1.6640   27.1910 C   0  0  0  0  0  0  0  0  0  0  0  0
    6.8800   -1.4460   28.5020 C   0  0  0  0  0  0  0  0  0  0  0  0
    6.8350   -0.2260   29.1190 C   0  0  0  0  0  0  0  0  0  0  0  0
    7.4830    0.0080   30.8990 Br  0  0  0  0  0  0  0  0  0  0  0  0
    6.3080    0.8330   28.4290 C   0  0  0  0  0  0  0  0  0  0  0  0
    5.7960    0.8010   27.1310 N   0  0  0  0  0  0  0  0  0  0  0  0
    5.8260   -0.4870   26.4420 C   0  0  0  0  0  0  0  0  0  0  0  0
    5.3430   -0.6160   25.1650 O   0  0  0  0  0  0  0  0  0  0  0  0
    3.9520   -0.7410   25.2240 C   0  0  0  0  0  0  0  0  0  0  0  0
    7.0390   -2.7520   23.4390 C   0  0  0  0  0  0  0  0  0  0  0  0
    7.6280   -3.1600   22.1310 C   0  0  0  0  0  0  0  0  0  0  0  0
  1  2  1  0
  2  3  2  0
  2  4  1  0
  4  5  1  0
  5  6  1  0
  6  7  1  0
  7  8  1  0
  8  9  2  0
  8 10  1  0
 10 11  1  0
 11 12  2  0
 12 13  1  0
 13 14  1  0
 13 15  2  0
 15 16  1  0
 11 17  1  0
 16 17  2  0
 17 18  1  0
 18 19  1  0
  7 20  1  0
  4 21  1  0
 20 21  1  0
M  END
