piperidine-amides-10430-covalent
     RDKit          3D

 24 25  0  0  0  0  0  0  0  0999 V2000
    7.0820   -3.3200   19.2670 C   0  0  0  0  0  0  0  0  0  0  0  0
    6.3930   -4.1210   20.2790 C   0  0  0  0  0  0  0  0  0  0  0  0
    5.3240   -4.6840   19.9310 O   0  0  0  0  0  0  0  0  0  0  0  0
    6.9510   -4.2770   21.5440 N   0  0  0  0  0  0  0  0  0  0  0  0
    7.7270   -3.2200   22.1540 C   0  0  0  0  0  0  0  0  0  0  0  0
    6.9370   -2.6840   23.3040 C   0  0  0  0  0  0  0  0  0  0  0  0
    6.5890   -3.7930   24.2450 C   0  0  0  0  0  0  0  0  0  0  0  0
    5.8130   -3.2560   25.3780 C   0  0  0  0  0  0  0  0  0  0  0  0
    4.6080   -2.9790   25.1930 O   0  0  0  0  0  0  0  0  0  0  0  0
    6.3750   -3.0630   26.6490 N   0  0  0  0  0  0  0  0  0  0  0  0
    6.4210   -1.7800   27.3050 C   0  0  0  0  0  0  0  0  0  0  0  0
    7.0510   -1.6020   28.6570 C   0  0  0  0  0  0  0  0  0  0  0  0
    7.0700   -0.3830   29.2530 C   0  0  0  0  0  0  0  0  0  0  0  0
    6.5040    0.6990   28.6050 C   0  0  0  0  0  0  0  0  0  0  0  0
    5.8850    0.7080   27.3510 C   0  0  0  0  0  0  0  0  0  0  0  0
    5.3500    1.8520   26.7950 C   0  0  0  0  0  0  0  0  0  0  0  0
    3.9760    2.0450   26.9840 O   0  0  0  0  0  0  0  0  0  0  0  0
    3.1200    1.2630   26.1770 C   0  0  0  0  0  0  0  0  0  0  0  0
    3.4260    1.4450   24.7100 C   0  0  0  0  0  0  0  0  0  0  0  0
    3.1110   -0.0540   26.5440 C   0  0  0  0  0  0  0  0  0  0  0  0
    1.8460    1.6170   26.5610 C   0  0  0  0  0  0  0  0  0  0  0  0
    5.8550   -0.5270   26.7230 C   0  0  0  0  0  0  0  0  0  0  0  0
    5.8560   -4.9180   23.6020 C   0  0  0  0  0  0  0  0  0  0  0  0
    6.5420   -5.3950   22.3420 C   0  0  0  0  0  0  0  0  0  0  0  0
  1  2  1  0
  2  3  2  0
  2  4  1  0
  4  5  1  0
  5  6  1  0
  6  7  1  0
  7  8  1  0
  8  9  2  0
  8 10  1  0
 10 11  1  0
 11 12  2  0
 12 13  1  0
 13 14  2  0
 14 15  1  0
 15 16  1  0
 16 17  1  0
 18 17  1  0
 18 19  1  0
 18 20  1  0
 18 21  1  0
 11 22  1  0
 15 22  2  0
  7 23  1  0
  4 24  1  0
 23 24  1  0
M  END
