piperidine-amides-26153-covalent
     RDKit          3D

 25 27  0  0  0  0  0  0  0  0999 V2000
    7.1420   -3.3440   19.3080 C   0  0  0  0  0  0  0  0  0  0  0  0
    6.3800   -4.1380   20.2650 C   0  0  0  0  0  0  0  0  0  0  0  0
    5.2940   -4.6230   19.9150 O   0  0  0  0  0  0  0  0  0  0  0  0
    6.8920   -4.4250   21.5370 N   0  0  0  0  0  0  0  0  0  0  0  0
    6.5190   -5.6200   22.2330 C   0  0  0  0  0  0  0  0  0  0  0  0
    5.6780   -5.1070   23.3620 C   0  0  0  0  0  0  0  0  0  0  0  0
    6.4280   -4.1670   24.2600 C   0  0  0  0  0  0  0  0  0  0  0  0
    5.5700   -3.7350   25.3870 C   0  0  0  0  0  0  0  0  0  0  0  0
    4.4650   -3.1740   25.1330 O   0  0  0  0  0  0  0  0  0  0  0  0
    5.8780   -3.8800   26.7600 N   0  0  0  0  0  0  0  0  0  0  0  0
    6.1120   -2.6630   27.5270 C   0  0  0  0  0  0  0  0  0  0  0  0
    6.4390   -3.1040   28.8770 C   0  0  0  0  0  0  0  0  0  0  0  0
    5.2850   -3.4110   29.6950 C   0  0  0  0  0  0  0  0  0  0  0  0
    3.9590   -3.2090   29.0090 C   0  0  0  0  0  0  0  0  0  0  0  0
    2.9000   -4.1200   29.5870 C   0  0  0  0  0  0  0  0  0  0  0  0
    3.1630   -5.4660   29.0220 C   0  0  0  0  0  0  0  0  0  0  0  0
    4.0890   -6.2220   29.8050 N   0  0  0  0  0  0  0  0  0  0  0  0
    3.5760   -6.6240   30.9580 C   0  0  0  0  0  0  0  0  0  0  0  0
    4.4720   -7.2950   31.5900 C   0  0  0  0  0  0  0  0  0  0  0  0
    5.4820   -7.2560   30.7550 N   0  0  0  0  0  0  0  0  0  0  0  0
    5.4510   -6.5500   29.4360 C   0  0  0  0  0  0  0  0  0  0  0  0
    5.0540   -5.7360   28.1850 C   0  0  0  0  0  0  0  0  0  0  0  0
    6.1450   -5.2050   27.3320 C   0  0  0  0  0  0  0  0  0  0  0  0
    6.9800   -2.9920   23.4980 C   0  0  0  0  0  0  0  0  0  0  0  0
    7.5840   -3.3700   22.2050 C   0  0  0  0  0  0  0  0  0  0  0  0
  1  2  1  0
  2  3  2  0
  2  4  1  0
  4  5  1  0
  5  6  1  0
  6  7  1  0
  7  8  1  0
  8  9  2  0
  8 10  1  0
 10 11  1  0
 11 12  1  0
 12 13  1  0
 13 14  1  0
 14 15  1  0
 15 16  1  0
 16 17  1  0
 17 18  1  0
 18 19  2  0
 19 20  1  0
 17 21  1  0
 20 21  2  0
 21 22  1  0
 10 23  1  0
 22 23  1  0
  7 24  1  0
  4 25  1  0
 24 25  1  0
M  END
