piperidine-amides-4437-covalent
     RDKit          3D

 25 26  0  0  0  0  0  0  0  0999 V2000
    7.1210   -3.2960   19.1570 C   0  0  0  0  0  0  0  0  0  0  0  0
    6.3140   -4.0100   20.1560 C   0  0  0  0  0  0  0  0  0  0  0  0
    5.1920   -4.4290   19.8140 O   0  0  0  0  0  0  0  0  0  0  0  0
    6.8310   -4.2680   21.4370 N   0  0  0  0  0  0  0  0  0  0  0  0
    6.3890   -5.4290   22.1130 C   0  0  0  0  0  0  0  0  0  0  0  0
    5.6100   -5.1090   23.2920 C   0  0  0  0  0  0  0  0  0  0  0  0
    5.8330   -3.7270   23.7440 C   0  0  0  0  0  0  0  0  0  0  0  0
    5.4080   -3.5710   25.1680 C   0  0  0  0  0  0  0  0  0  0  0  0
    4.3680   -2.9330   25.4340 O   0  0  0  0  0  0  0  0  0  0  0  0
    6.1680   -4.1440   26.2000 N   0  0  0  0  0  0  0  0  0  0  0  0
    5.7800   -5.0940   27.1780 C   0  0  0  0  0  0  0  0  0  0  0  0
    5.1640   -4.6970   28.4490 C   0  0  1  0  0  0  0  0  0  0  0  0
    5.1150   -5.8670   29.4520 C   0  0  0  0  0  0  0  0  0  0  0  0
    6.1740   -6.7480   29.4100 C   0  0  0  0  0  0  0  0  0  0  0  0
    6.0410   -3.3040   29.1960 S   0  0  0  0  0  0  0  0  0  0  0  0
    7.1330   -3.3140   27.7900 C   0  0  0  0  0  0  0  0  0  0  0  0
    7.9430   -4.5650   27.6080 C   0  0  0  0  0  0  0  0  0  0  0  0
    8.7840   -4.4920   26.3410 C   0  0  0  0  0  0  0  0  0  0  0  0
    9.6970   -5.9280   26.1220 Cl  0  0  0  0  0  0  0  0  0  0  0  0
    8.8720   -3.3580   25.3530 C   0  0  0  0  0  0  0  0  0  0  0  0
    8.0510   -2.1350   25.6220 C   0  0  0  0  0  0  0  0  0  0  0  0
    7.1700   -2.1220   26.8610 C   0  0  0  0  0  0  0  0  0  0  0  0
    6.1510   -0.7490   27.2670 Cl  0  0  0  0  0  0  0  0  0  0  0  0
    7.2610   -3.3310   23.5240 C   0  0  0  0  0  0  0  0  0  0  0  0
    7.4940   -3.2050   22.1560 C   0  0  0  0  0  0  0  0  0  0  0  0
  1  2  1  0
  2  3  2  0
  2  4  1  0
  4  5  1  0
  5  6  1  0
  6  7  1  0
  7  8  1  0
  8  9  2  0
  8 10  1  0
 10 11  1  0
 12 11  1  6
 12 13  1  0
 13 14  1  0
 12 15  1  0
 15 16  1  0
 16 17  2  0
 17 18  1  0
 18 19  1  0
 18 20  2  0
 20 21  1  0
 16 22  1  0
 21 22  2  0
 22 23  1  0
  7 24  1  0
  4 25  1  0
 24 25  1  0
M  END
