piperidine-amides-27801-covalent
     RDKit          3D

 26 28  0  0  0  0  0  0  0  0999 V2000
    7.0150   -3.4050   19.3900 C   0  0  0  0  0  0  0  0  0  0  0  0
    6.4240   -4.3110   20.3980 C   0  0  0  0  0  0  0  0  0  0  0  0
    5.4230   -4.9510   20.0120 O   0  0  0  0  0  0  0  0  0  0  0  0
    6.9970   -4.4750   21.6850 N   0  0  0  0  0  0  0  0  0  0  0  0
    6.6020   -5.5400   22.5560 C   0  0  0  0  0  0  0  0  0  0  0  0
    6.2560   -5.0850   23.9170 C   0  0  0  0  0  0  0  0  0  0  0  0
    5.9220   -3.6420   23.9960 C   0  0  0  0  0  0  0  0  0  0  0  0
    5.3340   -3.1770   25.3000 C   0  0  0  0  0  0  0  0  0  0  0  0
    4.5630   -2.2120   25.2110 O   0  0  0  0  0  0  0  0  0  0  0  0
    5.5350   -3.7030   26.6000 N   0  0  0  0  0  0  0  0  0  0  0  0
    4.8060   -3.1420   27.7770 C   0  0  0  0  0  0  0  0  0  0  0  0
    5.1300   -3.8440   29.0730 C   0  0  0  0  0  0  0  0  0  0  0  0
    5.9270   -5.0060   29.0620 N   0  0  0  0  0  0  0  0  0  0  0  0
    5.5580   -6.2210   29.7610 C   0  0  0  0  0  0  0  0  0  0  0  0
    4.2270   -6.5310   29.5610 C   0  0  0  0  0  0  0  0  0  0  0  0
    3.6490   -7.5880   30.2470 C   0  0  0  0  0  0  0  0  0  0  0  0
    2.3360   -7.9240   30.0710 C   0  0  0  0  0  0  0  0  0  0  0  0
    1.5630   -7.2110   29.2050 C   0  0  0  0  0  0  0  0  0  0  0  0
    2.0990   -6.1720   28.5210 C   0  0  0  0  0  0  0  0  0  0  0  0
    3.4280   -5.8230   28.6900 C   0  0  0  0  0  0  0  0  0  0  0  0
    6.5940   -5.4240   27.8480 C   0  0  0  0  0  0  0  0  0  0  0  0
    5.6330   -6.3950   27.2210 C   0  0  0  0  0  0  0  0  0  0  0  0
    7.9160   -6.1270   28.1080 C   0  0  0  0  0  0  0  0  0  0  0  0
    6.7650   -4.2730   26.9630 C   0  0  0  0  0  0  0  0  0  0  0  0
    6.8780   -2.7540   23.3280 C   0  0  0  0  0  0  0  0  0  0  0  0
    7.7730   -3.4270   22.3440 C   0  0  0  0  0  0  0  0  0  0  0  0
  1  2  1  0
  2  3  2  0
  2  4  1  0
  4  5  1  0
  5  6  1  0
  6  7  1  0
  7  8  1  0
  8  9  2  0
  8 10  1  0
 10 11  1  0
 11 12  1  0
 12 13  1  0
 13 14  1  0
 14 15  1  0
 15 16  2  0
 16 17  1  0
 17 18  2  0
 18 19  1  0
 15 20  1  0
 19 20  2  0
 13 21  1  0
 21 22  1  0
 21 23  1  0
 10 24  1  0
 21 24  1  0
  7 25  1  0
  4 26  1  0
 25 26  1  0
M  END
