piperidine-amides-28858-covalent
     RDKit          3D

 25 27  0  0  0  0  0  0  0  0999 V2000
    7.0650   -3.3410   19.3390 C   0  0  0  0  0  0  0  0  0  0  0  0
    6.4180   -4.2000   20.3210 C   0  0  0  0  0  0  0  0  0  0  0  0
    5.3780   -4.7960   19.9780 O   0  0  0  0  0  0  0  0  0  0  0  0
    7.0110   -4.3850   21.5990 N   0  0  0  0  0  0  0  0  0  0  0  0
    6.5690   -5.4990   22.3720 C   0  0  0  0  0  0  0  0  0  0  0  0
    5.6510   -4.9900   23.4420 C   0  0  0  0  0  0  0  0  0  0  0  0
    6.4080   -3.9640   24.2530 C   0  0  0  0  0  0  0  0  0  0  0  0
    5.4930   -3.3790   25.2880 C   0  0  0  0  0  0  0  0  0  0  0  0
    4.6690   -2.5770   24.8810 O   0  0  0  0  0  0  0  0  0  0  0  0
    5.6040   -3.7690   26.6110 N   0  0  0  0  0  0  0  0  0  0  0  0
    6.4410   -3.1750   27.5070 C   0  0  0  0  0  0  0  0  0  0  0  0
    6.7640   -4.1430   28.4540 C   0  0  0  0  0  0  0  0  0  0  0  0
    5.7870   -4.4550   29.3270 C   0  0  0  0  0  0  0  0  0  0  0  0
    5.0410   -3.3470   29.6720 O   0  0  0  0  0  0  0  0  0  0  0  0
    4.0950   -3.0150   30.5540 C   0  0  0  0  0  0  0  0  0  0  0  0
    3.1460   -4.1020   30.9730 C   0  0  0  0  0  0  0  0  0  0  0  0
    2.0130   -3.8190   31.9960 C   0  0  0  0  0  0  0  0  0  0  0  0
    1.9140   -2.4390   32.5340 C   0  0  0  0  0  0  0  0  0  0  0  0
    2.8880   -1.3990   32.0800 C   0  0  0  0  0  0  0  0  0  0  0  0
    3.9990   -1.7200   31.0620 C   0  0  0  0  0  0  0  0  0  0  0  0
    5.1500   -0.4990   30.5250 Cl  0  0  0  0  0  0  0  0  0  0  0  0
    5.0630   -5.2360   28.2450 C   0  0  0  0  0  0  0  0  0  0  0  0
    4.5210   -4.3930   27.2850 C   0  0  0  0  0  0  0  0  0  0  0  0
    6.9730   -2.8490   23.4420 C   0  0  0  0  0  0  0  0  0  0  0  0
    7.7390   -3.3270   22.2480 C   0  0  0  0  0  0  0  0  0  0  0  0
  1  2  1  0
  2  3  2  0
  2  4  1  0
  4  5  1  0
  5  6  1  0
  6  7  1  0
  7  8  1  0
  8  9  2  0
  8 10  1  0
 10 11  1  0
 11 12  1  0
 12 13  1  0
 13 14  1  0
 14 15  1  0
 15 16  2  0
 16 17  1  0
 17 18  2  0
 18 19  1  0
 15 20  1  0
 19 20  2  0
 20 21  1  0
 13 22  1  0
 10 23  1  0
 22 23  1  0
  7 24  1  0
  4 25  1  0
 24 25  1  0
M  END
