piperidine-amides-5581-covalent
     RDKit          3D

 19 20  0  0  0  0  0  0  0  0999 V2000
    7.1490   -3.2970   19.2430 C   0  0  0  0  0  0  0  0  0  0  0  0
    6.3950   -4.0240   20.2630 C   0  0  0  0  0  0  0  0  0  0  0  0
    5.3620   -4.6360   19.9320 O   0  0  0  0  0  0  0  0  0  0  0  0
    6.8590   -4.0750   21.5900 N   0  0  0  0  0  0  0  0  0  0  0  0
    7.7410   -3.0450   22.1070 C   0  0  0  0  0  0  0  0  0  0  0  0
    7.4870   -2.9790   23.5830 C   0  0  0  0  0  0  0  0  0  0  0  0
    6.0970   -3.4340   23.8890 C   0  0  0  0  0  0  0  0  0  0  0  0
    5.6470   -3.1430   25.2720 C   0  0  0  0  0  0  0  0  0  0  0  0
    4.4520   -2.7780   25.4780 O   0  0  0  0  0  0  0  0  0  0  0  0
    6.4730   -3.2370   26.4070 N   0  0  0  0  0  0  0  0  0  0  0  0
    6.0690   -4.0660   27.5690 C   0  0  0  0  0  0  0  0  0  0  0  0
    5.1290   -5.1090   27.0860 C   0  0  0  0  0  0  0  0  0  0  0  0
    4.1500   -5.2120   25.6710 S   0  0  0  0  0  0  0  0  0  0  0  0
    3.3850   -6.7820   25.9720 C   0  0  0  0  0  0  0  0  0  0  0  0
    3.9060   -7.2920   27.2570 C   0  0  0  0  0  0  0  0  0  0  0  0
    4.8900   -6.3520   27.8800 C   0  0  0  0  0  0  0  0  0  0  0  0
    5.7580   -6.7110   29.5480 Br  0  0  0  0  0  0  0  0  0  0  0  0
    5.9790   -4.8930   23.5790 C   0  0  0  0  0  0  0  0  0  0  0  0
    6.5020   -5.2330   22.3590 C   0  0  0  0  0  0  0  0  0  0  0  0
  1  2  1  0
  2  3  2  0
  2  4  1  0
  4  5  1  0
  5  6  1  0
  6  7  1  0
  7  8  1  0
  8  9  2  0
  8 10  1  0
 10 11  1  0
 11 12  1  0
 12 13  1  0
 13 14  1  0
 14 15  2  0
 12 16  2  0
 15 16  1  0
 16 17  1  0
  7 18  1  0
  4 19  1  0
 18 19  1  0
M  END
