piperidine-amides-15345-covalent
     RDKit          3D

 17 18  0  0  0  0  0  0  0  0999 V2000
    7.0990   -3.3060   19.2640 C   0  0  0  0  0  0  0  0  0  0  0  0
    6.3760   -4.1010   20.2600 C   0  0  0  0  0  0  0  0  0  0  0  0
    5.3250   -4.7010   19.9430 O   0  0  0  0  0  0  0  0  0  0  0  0
    6.8880   -4.2410   21.5560 N   0  0  0  0  0  0  0  0  0  0  0  0
    6.4860   -5.3530   22.3690 C   0  0  0  0  0  0  0  0  0  0  0  0
    5.4280   -4.7890   23.3210 C   0  0  0  0  0  0  0  0  0  0  0  0
    6.1110   -3.7920   24.2440 C   0  0  0  0  0  0  0  0  0  0  0  0
    5.0400   -3.1100   25.0100 C   0  0  0  0  0  0  0  0  0  0  0  0
    3.8650   -3.4590   24.8160 O   0  0  0  0  0  0  0  0  0  0  0  0
    5.3460   -2.1010   25.9450 N   0  0  0  0  0  0  0  0  0  0  0  0
    6.6830   -2.1010   26.4170 C   0  0  0  0  0  0  0  0  0  0  0  0
    6.2330   -2.0840   27.7830 C   0  0  0  0  0  0  0  0  0  0  0  0
    6.3460   -3.1350   28.6460 C   0  0  0  0  0  0  0  0  0  0  0  0
    6.7880   -0.8440   28.4490 C   0  0  0  0  0  0  0  0  0  0  0  0
    4.8800   -1.8430   27.3750 C   0  0  0  0  0  0  0  0  0  0  0  0
    7.0050   -2.7930   23.5760 C   0  0  0  0  0  0  0  0  0  0  0  0
    7.5580   -3.1530   22.2140 C   0  0  0  0  0  0  0  0  0  0  0  0
  1  2  1  0
  2  3  2  0
  2  4  1  0
  4  5  1  0
  5  6  1  0
  6  7  1  0
  7  8  1  0
  8  9  2  0
  8 10  1  0
 10 11  1  0
 11 12  1  0
 12 13  1  0
 12 14  1  0
 10 15  1  0
 12 15  1  0
  7 16  1  0
  4 17  1  0
 16 17  1  0
M  END
