piperidine-amides-11805-covalent
     RDKit          3D

 27 28  0  0  0  0  0  0  0  0999 V2000
    7.1170   -3.3030   19.2600 C   0  0  0  0  0  0  0  0  0  0  0  0
    6.4040   -4.0880   20.2470 C   0  0  0  0  0  0  0  0  0  0  0  0
    5.3510   -4.6430   19.9330 O   0  0  0  0  0  0  0  0  0  0  0  0
    6.9470   -4.2790   21.5660 N   0  0  0  0  0  0  0  0  0  0  0  0
    7.6170   -3.1950   22.2500 C   0  0  0  0  0  0  0  0  0  0  0  0
    7.0640   -3.0640   23.6460 C   0  0  0  0  0  0  0  0  0  0  0  0
    5.5790   -3.4000   23.5500 C   0  0  0  0  0  0  0  0  0  0  0  0
    4.7710   -3.0570   24.7640 C   0  0  0  0  0  0  0  0  0  0  0  0
    3.5330   -3.1440   24.7530 O   0  0  0  0  0  0  0  0  0  0  0  0
    5.3600   -2.6230   25.9630 N   0  0  0  0  0  0  0  0  0  0  0  0
    6.0600   -3.5860   26.7280 C   0  0  2  0  0  0  0  0  0  0  0  0
    5.7090   -4.9860   26.2480 C   0  0  0  0  0  0  0  0  0  0  0  0
    6.4380   -5.3860   25.1440 O   0  0  0  0  0  0  0  0  0  0  0  0
    4.7890   -5.8700   26.7590 O   0  0  0  0  0  0  0  0  0  0  0  0
    3.8890   -6.6310   26.0030 C   0  0  0  0  0  0  0  0  0  0  0  0
    3.1050   -7.4150   26.8500 C   0  0  0  0  0  0  0  0  0  0  0  0
    5.8140   -3.3800   28.1610 C   0  0  2  0  0  0  0  0  0  0  0  0
    6.7940   -2.9480   28.9900 O   0  0  0  0  0  0  0  0  0  0  0  0
    5.2420   -4.5100   28.8870 C   0  0  0  0  0  0  0  0  0  0  0  0
    5.8550   -5.7290   29.1920 C   0  0  0  0  0  0  0  0  0  0  0  0
    5.1860   -6.7130   29.8940 C   0  0  0  0  0  0  0  0  0  0  0  0
    3.8850   -6.6010   30.3510 C   0  0  0  0  0  0  0  0  0  0  0  0
    3.0780   -7.8790   31.2360 Cl  0  0  0  0  0  0  0  0  0  0  0  0
    3.2770   -5.3230   30.0140 C   0  0  0  0  0  0  0  0  0  0  0  0
    3.9270   -4.3190   29.3110 C   0  0  0  0  0  0  0  0  0  0  0  0
    5.3560   -4.8590   23.2160 C   0  0  0  0  0  0  0  0  0  0  0  0
    6.4250   -5.3640   22.3070 C   0  0  0  0  0  0  0  0  0  0  0  0
  1  2  1  0
  2  3  2  0
  2  4  1  0
  4  5  1  0
  5  6  1  0
  6  7  1  0
  7  8  1  0
  8  9  2  0
  8 10  1  0
 11 10  1  6
 11 12  1  0
 12 13  2  0
 12 14  1  0
 14 15  1  0
 15 16  1  0
 11 17  1  0
 17 18  1  1
 17 19  1  0
 19 20  2  0
 20 21  1  0
 21 22  2  0
 22 23  1  0
 22 24  1  0
 19 25  1  0
 24 25  2  0
  7 26  1  0
  4 27  1  0
 26 27  1  0
M  END
