piperidine-amides-11412-covalent
     RDKit          3D

 25 27  0  0  0  0  0  0  0  0999 V2000
    7.1780   -3.2750   19.1530 C   0  0  0  0  0  0  0  0  0  0  0  0
    6.4160   -4.0200   20.1570 C   0  0  0  0  0  0  0  0  0  0  0  0
    5.3010   -4.4820   19.8600 O   0  0  0  0  0  0  0  0  0  0  0  0
    6.9520   -4.2800   21.4210 N   0  0  0  0  0  0  0  0  0  0  0  0
    6.4960   -5.3910   22.2050 C   0  0  0  0  0  0  0  0  0  0  0  0
    5.6930   -4.7460   23.3000 C   0  0  0  0  0  0  0  0  0  0  0  0
    6.4760   -3.6930   24.0410 C   0  0  0  0  0  0  0  0  0  0  0  0
    5.7320   -3.1600   25.1810 C   0  0  0  0  0  0  0  0  0  0  0  0
    4.5810   -2.6580   25.0430 O   0  0  0  0  0  0  0  0  0  0  0  0
    6.2630   -3.2030   26.4570 N   0  0  0  0  0  0  0  0  0  0  0  0
    6.0870   -4.4470   27.2070 C   0  0  2  0  0  0  0  0  0  0  0  0
    4.6730   -4.8010   27.2320 C   0  0  0  0  0  0  0  0  0  0  0  0
    6.5130   -4.2270   28.6330 C   0  0  0  0  0  0  0  0  0  0  0  0
    5.6400   -5.2580   29.2240 C   0  0  0  0  0  0  0  0  0  0  0  0
    6.2600   -6.6020   29.2610 C   0  0  0  0  0  0  0  0  0  0  0  0
    5.4870   -7.7070   29.8350 C   0  0  0  0  0  0  0  0  0  0  0  0
    4.2000   -7.5120   30.3420 C   0  0  0  0  0  0  0  0  0  0  0  0
    3.6240   -6.2250   30.2930 C   0  0  0  0  0  0  0  0  0  0  0  0
    4.3920   -5.0860   29.7070 C   0  0  0  0  0  0  0  0  0  0  0  0
    2.3330   -6.1500   30.8290 O   0  0  0  0  0  0  0  0  0  0  0  0
    1.4060   -7.1840   30.5380 C   0  0  0  0  0  0  0  0  0  0  0  0
    2.1110   -8.5060   30.6090 C   0  0  0  0  0  0  0  0  0  0  0  0
    3.4850   -8.3900   30.8520 O   0  0  0  0  0  0  0  0  0  0  0  0
    6.9360   -2.6010   23.1440 C   0  0  0  0  0  0  0  0  0  0  0  0
    7.6670   -3.1990   22.0240 C   0  0  0  0  0  0  0  0  0  0  0  0
  1  2  1  0
  2  3  2  0
  2  4  1  0
  4  5  1  0
  5  6  1  0
  6  7  1  0
  7  8  1  0
  8  9  2  0
  8 10  1  0
 10 11  1  0
 11 12  1  1
 11 13  1  0
 13 14  1  0
 14 15  2  0
 15 16  1  0
 16 17  2  0
 17 18  1  0
 14 19  1  0
 18 19  2  0
 18 20  1  0
 20 21  1  0
 21 22  1  0
 17 23  1  0
 22 23  1  0
  7 24  1  0
  4 25  1  0
 24 25  1  0
M  END
