piperidine-amides-12110-covalent
     RDKit          3D

 25 26  0  0  0  0  0  0  0  0999 V2000
    7.1110   -3.2680   19.2470 C   0  0  0  0  0  0  0  0  0  0  0  0
    6.3510   -4.0380   20.2280 C   0  0  0  0  0  0  0  0  0  0  0  0
    5.3000   -4.5900   19.8990 O   0  0  0  0  0  0  0  0  0  0  0  0
    6.8460   -4.1960   21.5650 N   0  0  0  0  0  0  0  0  0  0  0  0
    6.5460   -5.3980   22.2960 C   0  0  0  0  0  0  0  0  0  0  0  0
    5.9030   -5.0610   23.6150 C   0  0  0  0  0  0  0  0  0  0  0  0
    6.6490   -3.8900   24.2430 C   0  0  0  0  0  0  0  0  0  0  0  0
    5.8890   -3.4390   25.4430 C   0  0  0  0  0  0  0  0  0  0  0  0
    4.7010   -3.0570   25.3680 O   0  0  0  0  0  0  0  0  0  0  0  0
    6.5330   -3.4350   26.7060 N   0  0  0  0  0  0  0  0  0  0  0  0
    6.7950   -4.6960   27.3840 C   0  0  0  0  0  0  0  0  0  0  0  0
    5.4980   -5.4540   27.4040 C   0  0  1  0  0  0  0  0  0  0  0  0
    5.6830   -6.6660   26.7790 O   0  0  0  0  0  0  0  0  0  0  0  0
    4.9290   -5.9060   28.5750 C   0  0  0  0  0  0  0  0  0  0  0  0
    4.5980   -7.2460   28.7220 C   0  0  0  0  0  0  0  0  0  0  0  0
    4.0170   -7.6800   29.8970 C   0  0  0  0  0  0  0  0  0  0  0  0
    3.7320   -6.7740   31.0140 C   0  0  0  0  0  0  0  0  0  0  0  0
    3.0260   -7.1010   32.5300 S   0  0  0  0  0  0  0  0  0  0  0  0
    2.2670   -8.5940   32.2060 C   0  0  0  0  0  0  0  0  0  0  0  0
    2.0290   -6.0450   32.8610 O   0  0  0  0  0  0  0  0  0  0  0  0
    4.1260   -7.2200   33.5670 O   0  0  0  0  0  0  0  0  0  0  0  0
    4.0890   -5.4870   30.7830 C   0  0  0  0  0  0  0  0  0  0  0  0
    4.6710   -5.0590   29.5990 C   0  0  0  0  0  0  0  0  0  0  0  0
    6.9180   -2.7760   23.3500 C   0  0  0  0  0  0  0  0  0  0  0  0
    7.6190   -3.1790   22.2340 C   0  0  0  0  0  0  0  0  0  0  0  0
  1  2  1  0
  2  3  2  0
  2  4  1  0
  4  5  1  0
  5  6  1  0
  6  7  1  0
  7  8  1  0
  8  9  2  0
  8 10  1  0
 10 11  1  0
 11 12  1  0
 12 13  1  6
 12 14  1  0
 14 15  2  0
 15 16  1  0
 16 17  2  0
 17 18  1  0
 18 19  1  0
 18 20  2  0
 18 21  2  0
 17 22  1  0
 14 23  1  0
 22 23  2  0
  7 24  1  0
  4 25  1  0
 24 25  1  0
M  END
