piperidine-amides-8916-covalent
     RDKit          3D

 22 23  0  0  0  0  0  0  0  0999 V2000
    7.0860   -3.2960   19.2560 C   0  0  0  0  0  0  0  0  0  0  0  0
    6.3890   -4.1000   20.2560 C   0  0  0  0  0  0  0  0  0  0  0  0
    5.3250   -4.6490   19.9240 O   0  0  0  0  0  0  0  0  0  0  0  0
    6.9540   -4.2840   21.5480 N   0  0  0  0  0  0  0  0  0  0  0  0
    6.5520   -5.4150   22.3260 C   0  0  0  0  0  0  0  0  0  0  0  0
    5.7710   -4.9290   23.5120 C   0  0  0  0  0  0  0  0  0  0  0  0
    6.5830   -3.8360   24.1720 C   0  0  0  0  0  0  0  0  0  0  0  0
    5.7860   -3.2270   25.2900 C   0  0  0  0  0  0  0  0  0  0  0  0
    4.6370   -2.8990   24.9980 O   0  0  0  0  0  0  0  0  0  0  0  0
    6.3640   -3.0780   26.5470 N   0  0  0  0  0  0  0  0  0  0  0  0
    6.1220   -4.0060   27.6090 C   0  0  0  0  0  0  0  0  0  0  0  0
    5.0820   -3.6710   28.4830 C   0  0  0  0  0  0  0  0  0  0  0  0
    5.2320   -2.6460   29.1810 O   0  0  0  0  0  0  0  0  0  0  0  0
    6.3900   -1.9360   29.1110 C   0  0  0  0  0  0  0  0  0  0  0  0
    4.8580   -4.6940   29.5010 C   0  0  0  0  0  0  0  0  0  0  0  0
    3.8140   -5.7450   29.3370 C   0  0  0  0  0  0  0  0  0  0  0  0
    2.4110   -5.1500   29.1100 C   0  0  0  0  0  0  0  0  0  0  0  0
    2.2910   -3.7930   29.7080 C   0  0  0  0  0  0  0  0  0  0  0  0
    2.6980   -2.8520   28.5970 C   0  0  0  0  0  0  0  0  0  0  0  0
    3.9030   -3.4330   27.7970 C   0  0  0  0  0  0  0  0  0  0  0  0
    6.8540   -2.7230   23.1890 C   0  0  0  0  0  0  0  0  0  0  0  0
    7.6700   -3.2210   22.2010 C   0  0  0  0  0  0  0  0  0  0  0  0
  1  2  1  0
  2  3  2  0
  2  4  1  0
  4  5  1  0
  5  6  1  0
  6  7  1  0
  7  8  1  0
  8  9  2  0
  8 10  1  0
 10 11  1  0
 11 12  1  0
 12 13  1  0
 13 14  1  0
 12 15  1  0
 15 16  1  0
 16 17  1  0
 17 18  1  0
 18 19  1  0
 12 20  1  0
 19 20  1  0
  7 21  1  0
  4 22  1  0
 21 22  1  0
M  END
