piperidine-amides-13831-covalent
     RDKit          3D

 26 27  0  0  0  0  0  0  0  0999 V2000
    7.0790   -3.2610   19.2240 C   0  0  0  0  0  0  0  0  0  0  0  0
    6.3100   -4.0410   20.2380 C   0  0  0  0  0  0  0  0  0  0  0  0
    5.2560   -4.5950   19.8920 O   0  0  0  0  0  0  0  0  0  0  0  0
    6.8070   -4.1780   21.5500 N   0  0  0  0  0  0  0  0  0  0  0  0
    7.6110   -3.1360   22.1550 C   0  0  0  0  0  0  0  0  0  0  0  0
    7.4490   -3.2200   23.6750 C   0  0  0  0  0  0  0  0  0  0  0  0
    6.0910   -3.7740   23.9500 C   0  0  0  0  0  0  0  0  0  0  0  0
    5.5710   -3.3630   25.2690 C   0  0  0  0  0  0  0  0  0  0  0  0
    4.4070   -2.9480   25.3040 O   0  0  0  0  0  0  0  0  0  0  0  0
    6.3880   -3.4600   26.3910 N   0  0  0  0  0  0  0  0  0  0  0  0
    6.0350   -3.8010   27.7210 C   0  0  2  0  0  0  0  0  0  0  0  0
    6.7600   -3.4250   28.8000 C   0  0  0  0  0  0  0  0  0  0  0  0
    5.9110   -5.3150   27.9470 C   0  0  2  0  0  0  0  0  0  0  0  0
    5.4140   -6.1180   26.9520 C   0  0  0  0  0  0  0  0  0  0  0  0
    5.0690   -5.5490   29.1600 C   0  0  0  0  0  0  0  0  0  0  0  0
    3.9020   -4.9050   29.1440 O   0  0  0  0  0  0  0  0  0  0  0  0
    5.5660   -6.3970   30.1860 N   0  0  0  0  0  0  0  0  0  0  0  0
    4.5840   -7.0810   31.0000 C   0  0  0  0  0  0  0  0  0  0  0  0
    3.4320   -7.5060   30.4200 N   0  0  0  0  0  0  0  0  0  0  0  0
    2.5560   -8.1330   31.1920 C   0  0  0  0  0  0  0  0  0  0  0  0
    2.7980   -8.3410   32.5050 C   0  0  0  0  0  0  0  0  0  0  0  0
    3.9790   -7.9470   33.2770 C   0  0  0  0  0  0  0  0  0  0  0  0
    4.9710   -7.2260   32.3600 C   0  0  0  0  0  0  0  0  0  0  0  0
    6.1800   -6.7640   32.9190 O   0  0  0  0  0  0  0  0  0  0  0  0
    6.1820   -5.2170   23.7150 C   0  0  0  0  0  0  0  0  0  0  0  0
    6.6080   -5.4220   22.2500 C   0  0  0  0  0  0  0  0  0  0  0  0
  1  2  1  0
  2  3  2  0
  2  4  1  0
  4  5  1  0
  5  6  1  0
  6  7  1  0
  7  8  1  0
  8  9  2  0
  8 10  1  0
 10 11  1  0
 11 12  1  1
 11 13  1  0
 13 14  1  6
 13 15  1  0
 15 16  2  0
 15 17  1  0
 17 18  1  0
 18 19  2  0
 19 20  1  0
 20 21  2  0
 21 22  1  0
 18 23  1  0
 22 23  2  0
 23 24  1  0
  7 25  1  0
  4 26  1  0
 25 26  1  0
M  END
