piperidine-amides-5553-covalent
     RDKit          3D

 19 20  0  0  0  0  0  0  0  0999 V2000
    7.1130   -3.2720   19.2220 C   0  0  0  0  0  0  0  0  0  0  0  0
    6.3440   -4.0020   20.2340 C   0  0  0  0  0  0  0  0  0  0  0  0
    5.2980   -4.5840   19.9000 O   0  0  0  0  0  0  0  0  0  0  0  0
    6.7960   -4.0910   21.5640 N   0  0  0  0  0  0  0  0  0  0  0  0
    7.6730   -3.0750   22.1120 C   0  0  0  0  0  0  0  0  0  0  0  0
    7.4190   -3.0570   23.5880 C   0  0  0  0  0  0  0  0  0  0  0  0
    6.0260   -3.5130   23.8850 C   0  0  0  0  0  0  0  0  0  0  0  0
    5.6210   -3.2220   25.2770 C   0  0  0  0  0  0  0  0  0  0  0  0
    4.4090   -2.9940   25.5600 O   0  0  0  0  0  0  0  0  0  0  0  0
    6.5520   -3.1720   26.3330 N   0  0  0  0  0  0  0  0  0  0  0  0
    6.1310   -3.1880   27.7490 C   0  0  0  0  0  0  0  0  0  0  0  0
    5.4400   -4.4590   28.0740 C   0  0  0  0  0  0  0  0  0  0  0  0
    4.7360   -5.0300   27.0930 N   0  0  0  0  0  0  0  0  0  0  0  0
    4.2030   -6.1100   27.5970 O   0  0  0  0  0  0  0  0  0  0  0  0
    4.3890   -6.0920   28.9370 C   0  0  0  0  0  0  0  0  0  0  0  0
    3.7090   -6.8410   29.7620 O   0  0  0  0  0  0  0  0  0  0  0  0
    5.3410   -5.1970   29.2120 N   0  0  0  0  0  0  0  0  0  0  0  0
    5.8830   -4.9920   23.6150 C   0  0  0  0  0  0  0  0  0  0  0  0
    6.6630   -5.2950   22.3480 C   0  0  0  0  0  0  0  0  0  0  0  0
  1  2  1  0
  2  3  2  0
  2  4  1  0
  4  5  1  0
  5  6  1  0
  6  7  1  0
  7  8  1  0
  8  9  2  0
  8 10  1  0
 10 11  1  0
 11 12  1  0
 12 13  2  0
 13 14  1  0
 14 15  1  0
 15 16  2  0
 12 17  1  0
 15 17  1  0
  7 18  1  0
  4 19  1  0
 18 19  1  0
M  END
