piperidine-amides-25218-covalent
     RDKit          3D

 25 27  0  0  0  0  0  0  0  0999 V2000
    7.0490   -3.3450   19.3780 C   0  0  0  0  0  0  0  0  0  0  0  0
    6.3980   -4.2260   20.3840 C   0  0  0  0  0  0  0  0  0  0  0  0
    5.4280   -4.8840   19.9960 O   0  0  0  0  0  0  0  0  0  0  0  0
    6.9130   -4.3120   21.6910 N   0  0  0  0  0  0  0  0  0  0  0  0
    6.7340   -5.4980   22.5080 C   0  0  0  0  0  0  0  0  0  0  0  0
    6.1160   -5.1290   23.8380 C   0  0  0  0  0  0  0  0  0  0  0  0
    6.2110   -3.6170   23.9900 C   0  0  0  0  0  0  0  0  0  0  0  0
    5.6800   -3.1620   25.2950 C   0  0  0  0  0  0  0  0  0  0  0  0
    4.9520   -2.1670   25.3000 O   0  0  0  0  0  0  0  0  0  0  0  0
    5.9150   -3.7950   26.5240 N   0  0  0  0  0  0  0  0  0  0  0  0
    4.7460   -4.3960   27.0750 C   0  0  0  0  0  0  0  0  0  0  0  0
    5.1680   -5.7150   27.6540 C   0  0  0  0  0  0  0  0  0  0  0  0
    6.0430   -5.4230   28.7660 N   0  0  0  0  0  0  0  0  0  0  0  0
    5.2300   -5.7030   29.9600 C   0  0  0  0  0  0  0  0  0  0  0  0
    6.0780   -6.7100   30.1180 N   0  0  0  0  0  0  0  0  0  0  0  0
    5.7030   -7.3770   31.2620 C   0  0  0  0  0  0  0  0  0  0  0  0
    4.6150   -7.0180   32.0650 C   0  0  0  0  0  0  0  0  0  0  0  0
    3.5940   -5.8900   31.9540 C   0  0  0  0  0  0  0  0  0  0  0  0
    4.0800   -5.2530   30.7290 C   0  0  0  0  0  0  0  0  0  0  0  0
    3.6830   -4.0750   29.8870 C   0  0  0  0  0  0  0  0  0  0  0  0
    2.7860   -3.0950   30.3640 N   0  0  0  0  0  0  0  0  0  0  0  0
    6.6120   -4.0860   28.8360 C   0  0  0  0  0  0  0  0  0  0  0  0
    6.3760   -3.1100   27.7200 C   0  0  0  0  0  0  0  0  0  0  0  0
    7.5060   -3.0380   23.6160 C   0  0  0  0  0  0  0  0  0  0  0  0
    7.8090   -3.2680   22.1850 C   0  0  0  0  0  0  0  0  0  0  0  0
  1  2  1  0
  2  3  2  0
  2  4  1  0
  4  5  1  0
  5  6  1  0
  6  7  1  0
  7  8  1  0
  8  9  2  0
  8 10  1  0
 10 11  1  0
 11 12  1  0
 12 13  1  0
 13 14  1  0
 14 15  2  0
 15 16  1  0
 16 17  2  0
 17 18  1  0
 14 19  1  0
 18 19  2  0
 19 20  1  0
 20 21  3  0
 13 22  1  0
 10 23  1  0
 22 23  1  0
  7 24  1  0
  4 25  1  0
 24 25  1  0
M  END
