piperidine-amides-35679-covalent
     RDKit          3D

 42 46  0  0  0  0  0  0  0  0999 V2000
    7.0700   -3.3170   19.3840 C   0  0  0  0  0  0  0  0  0  0  0  0
    6.3200   -4.1510   20.3580 C   0  0  0  0  0  0  0  0  0  0  0  0
    5.3020   -4.6930   19.9360 O   0  0  0  0  0  0  0  0  0  0  0  0
    6.7830   -4.3380   21.6620 N   0  0  0  0  0  0  0  0  0  0  0  0
    7.6060   -3.3440   22.3320 C   0  0  0  0  0  0  0  0  0  0  0  0
    7.2250   -3.2120   23.7830 C   0  0  0  0  0  0  0  0  0  0  0  0
    6.0820   -4.1850   24.0790 C   0  0  0  0  0  0  0  0  0  0  0  0
    5.4800   -3.9670   25.4160 C   0  0  0  0  0  0  0  0  0  0  0  0
    4.2440   -3.9270   25.4720 O   0  0  0  0  0  0  0  0  0  0  0  0
    6.1930   -3.7520   26.6230 N   0  0  0  0  0  0  0  0  0  0  0  0
    5.6970   -4.4770   27.7860 C   0  0  0  0  0  0  0  0  0  0  0  0
    6.2100   -5.8850   28.0130 C   0  0  0  0  0  0  0  0  0  0  0  0
    5.8250   -6.6700   29.0730 C   0  0  0  0  0  0  0  0  0  0  0  0
    4.9310   -6.1650   29.9700 C   0  0  0  0  0  0  0  0  0  0  0  0
    4.5290   -6.9470   31.0510 F   0  0  0  0  0  0  0  0  0  0  0  0
    4.4160   -4.9040   29.8350 C   0  0  0  0  0  0  0  0  0  0  0  0
    3.2590   -4.2560   30.9860 Cl  0  0  0  0  0  0  0  0  0  0  0  0
    4.8000   -3.9900   28.7000 C   0  0  0  0  0  0  0  0  0  0  0  0
    6.1920   -2.3860   26.8580 C   0  0  0  0  0  0  0  0  0  0  0  0
    5.7170   -1.7430   25.7070 N   0  0  0  0  0  0  0  0  0  0  0  0
    5.7300   -0.3560   26.0580 C   0  0  0  0  0  0  0  0  0  0  0  0
    6.1610    0.0260   27.3380 N   0  0  0  0  0  0  0  0  0  0  0  0
    6.6780   -0.5370   28.6090 C   0  0  0  0  0  0  0  0  0  0  0  0
    6.6830    0.8560   28.9710 C   0  0  0  0  0  0  0  0  0  0  0  0
    6.1650    1.5690   27.7910 C   0  0  0  0  0  0  0  0  0  0  0  0
    6.0100    2.9530   27.7400 O   0  0  0  0  0  0  0  0  0  0  0  0
    4.7300    3.4050   27.8900 C   0  0  0  0  0  0  0  0  0  0  0  0
    5.8200    0.7880   26.6810 C   0  0  0  0  0  0  0  0  0  0  0  0
    5.3120    1.3170   25.4880 O   0  0  0  0  0  0  0  0  0  0  0  0
    3.9540    1.6760   25.3780 C   0  0  0  0  0  0  0  0  0  0  0  0
    3.4950    1.1760   24.0220 C   0  0  0  0  0  0  0  0  0  0  0  0
    4.4310    1.6280   22.8940 C   0  0  0  0  0  0  0  0  0  0  0  0
    3.8710    2.2750   21.8610 N   0  0  0  0  0  0  0  0  0  0  0  0
    4.3700    3.3680   21.2590 C   0  0  0  0  0  0  0  0  0  0  0  0
    3.3560    4.2470   21.0550 C   0  0  0  0  0  0  0  0  0  0  0  0
    2.1950    3.4130   20.9810 O   0  0  0  0  0  0  0  0  0  0  0  0
    2.2460    2.1790   20.2950 C   0  0  0  0  0  0  0  0  0  0  0  0
    3.3650    1.4250   20.9440 C   0  0  0  0  0  0  0  0  0  0  0  0
    5.9980   -0.6490   26.7790 C   0  0  0  0  0  0  0  0  0  0  0  0
    6.5090   -1.6210   27.8910 C   0  0  0  0  0  0  0  0  0  0  0  0
    6.4790   -5.5660   23.7290 C   0  0  0  0  0  0  0  0  0  0  0  0
    6.6750   -5.6640   22.2180 C   0  0  0  0  0  0  0  0  0  0  0  0
  1  2  1  0
  2  3  2  0
  2  4  1  0
  4  5  1  0
  5  6  1  0
  6  7  1  0
  7  8  1  0
  8  9  2  0
  8 10  1  0
 10 11  1  0
 11 12  2  0
 12 13  1  0
 13 14  2  0
 14 15  1  0
 14 16  1  0
 16 17  1  0
 11 18  1  0
 16 18  2  0
 10 19  1  0
 19 20  2  0
 20 21  1  0
 21 22  2  0
 22 23  1  0
 23 24  1  0
 24 25  2  0
 25 26  1  0
 26 27  1  0
 25 28  1  0
 28 29  1  0
 29 30  1  0
 30 31  1  0
 31 32  1  0
 32 33  1  0
 33 34  1  0
 34 35  1  0
 35 36  1  0
 36 37  1  0
 33 38  1  0
 37 38  1  0
 28 39  2  0
 19 40  1  0
 23 40  2  0
 39 40  1  0
  7 41  1  0
  4 42  1  0
 41 42  1  0
M  END
