piperidine-amides-2436-covalent
     RDKit          3D

 26 27  0  0  0  0  0  0  0  0999 V2000
    7.1320   -3.2780   19.1590 C   0  0  0  0  0  0  0  0  0  0  0  0
    6.3330   -4.0170   20.1610 C   0  0  0  0  0  0  0  0  0  0  0  0
    5.2290   -4.4270   19.8270 O   0  0  0  0  0  0  0  0  0  0  0  0
    6.8870   -4.2760   21.4080 N   0  0  0  0  0  0  0  0  0  0  0  0
    7.7000   -3.2970   22.0780 C   0  0  0  0  0  0  0  0  0  0  0  0
    6.9300   -2.7730   23.2390 C   0  0  0  0  0  0  0  0  0  0  0  0
    6.4830   -3.9550   24.0910 C   0  0  0  0  0  0  0  0  0  0  0  0
    5.8460   -3.3850   25.2730 C   0  0  0  0  0  0  0  0  0  0  0  0
    4.6170   -3.4460   25.4240 O   0  0  0  0  0  0  0  0  0  0  0  0
    6.6660   -2.7560   26.2080 N   0  0  0  0  0  0  0  0  0  0  0  0
    6.2070   -2.5910   27.5510 C   0  0  0  0  0  0  0  0  0  0  0  0
    6.6730   -3.7800   28.3570 C   0  0  0  0  0  0  0  0  0  0  0  0
    6.4790   -4.6550   29.4020 O   0  0  0  0  0  0  0  0  0  0  0  0
    5.4490   -3.1880   28.9500 N   0  0  0  0  0  0  0  0  0  0  0  0
    5.6550   -1.7800   29.4130 C   0  0  0  0  0  0  0  0  0  0  0  0
    6.9690   -1.4460   29.6090 C   0  0  0  0  0  0  0  0  0  0  0  0
    7.3060   -0.1560   29.2720 C   0  0  0  0  0  0  0  0  0  0  0  0
    7.8360    0.4360   27.9740 C   0  0  0  0  0  0  0  0  0  0  0  0
    8.0570    1.9180   28.0850 C   0  0  0  0  0  0  0  0  0  0  0  0
    7.7680    2.6510   29.3530 C   0  0  0  0  0  0  0  0  0  0  0  0
    7.2530    1.8990   30.5240 C   0  0  0  0  0  0  0  0  0  0  0  0
    6.9650    0.4390   30.6240 C   0  0  0  0  0  0  0  0  0  0  0  0
    6.5300   -0.1630   31.6310 O   0  0  0  0  0  0  0  0  0  0  0  0
    7.0980    0.2080   32.9060 C   0  0  0  0  0  0  0  0  0  0  0  0
    5.5550   -4.8620   23.3230 C   0  0  0  0  0  0  0  0  0  0  0  0
    6.3980   -5.3810   22.1950 C   0  0  0  0  0  0  0  0  0  0  0  0
  1  2  1  0
  2  3  2  0
  2  4  1  0
  4  5  1  0
  5  6  1  0
  6  7  1  0
  7  8  1  0
  8  9  2  0
  8 10  1  0
 10 11  1  0
 11 12  1  0
 12 13  2  0
 12 14  1  0
 14 15  1  0
 15 16  1  0
 16 17  1  0
 17 18  2  0
 18 19  1  0
 19 20  2  0
 20 21  1  0
 17 22  1  0
 21 22  2  0
 22 23  1  0
 23 24  1  0
  7 25  1  0
  4 26  1  0
 25 26  1  0
M  END
