piperidine-amides-24784-covalent
     RDKit          3D

 24 26  0  0  0  0  0  0  0  0999 V2000
    7.0050   -3.3430   19.4060 C   0  0  0  0  0  0  0  0  0  0  0  0
    6.3470   -4.2270   20.3870 C   0  0  0  0  0  0  0  0  0  0  0  0
    5.3980   -4.9450   20.0040 O   0  0  0  0  0  0  0  0  0  0  0  0
    6.7800   -4.3120   21.7320 N   0  0  0  0  0  0  0  0  0  0  0  0
    6.7300   -5.6260   22.3490 C   0  0  0  0  0  0  0  0  0  0  0  0
    6.3700   -5.4480   23.8280 C   0  0  0  0  0  0  0  0  0  0  0  0
    6.1590   -3.9770   24.0280 C   0  0  0  0  0  0  0  0  0  0  0  0
    5.5120   -3.6640   25.3440 C   0  0  0  0  0  0  0  0  0  0  0  0
    4.2930   -3.4250   25.2790 O   0  0  0  0  0  0  0  0  0  0  0  0
    6.1650   -3.6170   26.6210 N   0  0  0  0  0  0  0  0  0  0  0  0
    6.1580   -2.3270   27.2930 C   0  0  0  0  0  0  0  0  0  0  0  0
    5.3170   -2.2450   28.5720 C   0  0  1  0  0  0  0  0  0  0  0  0
    3.9400   -2.2580   28.5320 C   0  0  0  0  0  0  0  0  0  0  0  0
    3.1600   -2.7830   29.3800 O   0  0  0  0  0  0  0  0  0  0  0  0
    3.3820   -1.6410   27.4920 O   0  0  0  0  0  0  0  0  0  0  0  0
    2.7010   -1.7450   26.3610 C   0  0  0  0  0  0  0  0  0  0  0  0
    5.7120   -3.2860   29.3830 O   0  0  0  0  0  0  0  0  0  0  0  0
    6.6850   -3.9300   28.7240 C   0  0  0  0  0  0  0  0  0  0  0  0
    6.0210   -4.5850   27.7600 C   0  0  0  0  0  0  0  0  0  0  0  0
    6.4300   -6.0780   27.5350 C   0  0  0  0  0  0  0  0  0  0  0  0
    5.3890   -5.9390   28.5890 C   0  0  0  0  0  0  0  0  0  0  0  0
    4.7320   -4.7390   28.1520 C   0  0  0  0  0  0  0  0  0  0  0  0
    7.4390   -3.2330   23.7340 C   0  0  0  0  0  0  0  0  0  0  0  0
    7.6060   -3.2630   22.3260 C   0  0  0  0  0  0  0  0  0  0  0  0
  1  2  1  0
  2  3  2  0
  2  4  1  0
  4  5  1  0
  5  6  1  0
  6  7  1  0
  7  8  1  0
  8  9  2  0
  8 10  1  0
 10 11  1  0
 11 12  1  0
 12 13  1  6
 13 14  2  0
 13 15  1  0
 15 16  1  0
 12 17  1  0
 17 18  1  0
 19 10  1  0
 18 19  1  0
 19 20  1  0
 20 21  1  0
 19 22  1  0
 21 22  1  0
  7 23  1  0
  4 24  1  0
 23 24  1  0
M  END
