piperidine-amides-11843-covalent
     RDKit          3D

 27 29  0  0  0  0  0  0  0  0999 V2000
    7.1470   -3.2870   19.2430 C   0  0  0  0  0  0  0  0  0  0  0  0
    6.3510   -4.0130   20.2250 C   0  0  0  0  0  0  0  0  0  0  0  0
    5.3020   -4.5640   19.8920 O   0  0  0  0  0  0  0  0  0  0  0  0
    6.8180   -4.1200   21.5760 N   0  0  0  0  0  0  0  0  0  0  0  0
    7.7100   -3.1260   22.1220 C   0  0  0  0  0  0  0  0  0  0  0  0
    7.4750   -2.9640   23.5950 C   0  0  0  0  0  0  0  0  0  0  0  0
    6.0200   -3.3110   23.8710 C   0  0  0  0  0  0  0  0  0  0  0  0
    5.6090   -2.9270   25.2630 C   0  0  0  0  0  0  0  0  0  0  0  0
    4.5420   -3.3400   25.7540 O   0  0  0  0  0  0  0  0  0  0  0  0
    6.4400   -2.0500   26.0340 N   0  0  0  0  0  0  0  0  0  0  0  0
    6.6600   -2.2790   27.4550 C   0  0  2  0  0  0  0  0  0  0  0  0
    6.3540   -3.7140   27.6960 C   0  0  0  0  0  0  0  0  0  0  0  0
    7.3180   -4.4920   27.2130 C   0  0  0  0  0  0  0  0  0  0  0  0
    7.3030   -4.8210   25.8410 C   0  0  0  0  0  0  0  0  0  0  0  0
    8.2880   -5.5930   25.3090 C   0  0  0  0  0  0  0  0  0  0  0  0
    9.2960   -6.0300   26.2010 C   0  0  0  0  0  0  0  0  0  0  0  0
    9.2930   -5.7190   27.4840 C   0  0  0  0  0  0  0  0  0  0  0  0
    8.3270   -4.9600   28.0100 C   0  0  0  0  0  0  0  0  0  0  0  0
    6.2860   -1.4270   28.4470 C   0  0  0  0  0  0  0  0  0  0  0  0
    7.1620   -1.0480   29.5900 C   0  0  0  0  0  0  0  0  0  0  0  0
    6.8980   -0.2010   30.6570 C   0  0  0  0  0  0  0  0  0  0  0  0
    5.6720    0.4110   30.7340 C   0  0  0  0  0  0  0  0  0  0  0  0
    4.6820    0.1420   29.6730 C   0  0  0  0  0  0  0  0  0  0  0  0
    5.0120   -0.8000   28.5110 C   0  0  0  0  0  0  0  0  0  0  0  0
    4.1110   -1.0580   27.5310 F   0  0  0  0  0  0  0  0  0  0  0  0
    5.6860   -4.7400   23.5090 C   0  0  0  0  0  0  0  0  0  0  0  0
    6.4840   -5.2750   22.3640 C   0  0  0  0  0  0  0  0  0  0  0  0
  1  2  1  0
  2  3  2  0
  2  4  1  0
  4  5  1  0
  5  6  1  0
  6  7  1  0
  7  8  1  0
  8  9  2  0
  8 10  1  0
 10 11  1  0
 11 12  1  1
 12 13  1  0
 13 14  2  0
 14 15  1  0
 15 16  2  0
 16 17  1  0
 13 18  1  0
 17 18  2  0
 11 19  1  0
 19 20  2  0
 20 21  1  0
 21 22  2  0
 22 23  1  0
 19 24  1  0
 23 24  2  0
 24 25  1  0
  7 26  1  0
  4 27  1  0
 26 27  1  0
M  END
