piperidine-amides-2412-covalent
     RDKit          3D

 27 29  0  0  0  0  0  0  0  0999 V2000
    7.1440   -3.2920   19.1810 C   0  0  0  0  0  0  0  0  0  0  0  0
    6.3690   -4.0340   20.2040 C   0  0  0  0  0  0  0  0  0  0  0  0
    5.2830   -4.4950   19.8640 O   0  0  0  0  0  0  0  0  0  0  0  0
    6.9180   -4.2300   21.4650 N   0  0  0  0  0  0  0  0  0  0  0  0
    7.6780   -3.1950   22.1060 C   0  0  0  0  0  0  0  0  0  0  0  0
    6.9050   -2.7210   23.2910 C   0  0  0  0  0  0  0  0  0  0  0  0
    6.5900   -3.9050   24.2110 C   0  0  0  0  0  0  0  0  0  0  0  0
    5.7540   -3.3710   25.2870 C   0  0  0  0  0  0  0  0  0  0  0  0
    4.5210   -3.4350   25.1950 O   0  0  0  0  0  0  0  0  0  0  0  0
    6.3360   -2.7870   26.4150 N   0  0  0  0  0  0  0  0  0  0  0  0
    5.7810   -3.1190   27.6940 C   0  0  2  0  0  0  0  0  0  0  0  0
    4.8100   -1.9690   27.9960 C   0  0  0  0  0  0  0  0  0  0  0  0
    4.6640   -1.6700   29.3470 C   0  0  0  0  0  0  0  0  0  0  0  0
    3.8910   -0.7270   29.8090 C   0  0  0  0  0  0  0  0  0  0  0  0
    3.2530   -0.0740   28.8910 C   0  0  0  0  0  0  0  0  0  0  0  0
    3.2350   -0.1980   27.4060 C   0  0  0  0  0  0  0  0  0  0  0  0
    4.1330   -1.2990   26.7950 C   0  0  0  0  0  0  0  0  0  0  0  0
    2.4690    0.6180   26.6120 O   0  0  0  0  0  0  0  0  0  0  0  0
    1.1450    1.0590   26.6770 C   0  0  0  0  0  0  0  0  0  0  0  0
    0.8160    1.7140   27.9810 C   0  0  0  0  0  0  0  0  0  0  0  0
    2.0430    1.8960   28.8070 C   0  0  0  0  0  0  0  0  0  0  0  0
    2.4600    0.9030   29.4340 O   0  0  0  0  0  0  0  0  0  0  0  0
    6.7420   -3.1320   28.8510 C   0  0  0  0  0  0  0  0  0  0  0  0
    5.4230   -3.7870   29.0830 C   0  0  0  0  0  0  0  0  0  0  0  0
    7.1150   -1.8580   29.3180 C   0  0  0  0  0  0  0  0  0  0  0  0
    5.8030   -4.9600   23.4650 C   0  0  0  0  0  0  0  0  0  0  0  0
    6.4870   -5.3780   22.1950 C   0  0  0  0  0  0  0  0  0  0  0  0
  1  2  1  0
  2  3  2  0
  2  4  1  0
  4  5  1  0
  5  6  1  0
  6  7  1  0
  7  8  1  0
  8  9  2  0
  8 10  1  0
 11 10  1  6
 11 12  1  0
 12 13  2  0
 13 14  1  0
 14 15  2  0
 15 16  1  0
 12 17  1  0
 16 17  2  0
 16 18  1  0
 18 19  1  0
 19 20  1  0
 20 21  1  0
 15 22  1  0
 21 22  1  0
 11 23  1  0
 23 24  1  0
 23 25  1  0
  7 26  1  0
  4 27  1  0
 26 27  1  0
M  END
