piperidine-amides-28677-covalent
     RDKit          3D

 26 28  0  0  0  0  0  0  0  0999 V2000
    6.9890   -3.3390   19.3310 C   0  0  0  0  0  0  0  0  0  0  0  0
    6.2790   -4.1730   20.3000 C   0  0  0  0  0  0  0  0  0  0  0  0
    5.2640   -4.7740   19.9340 O   0  0  0  0  0  0  0  0  0  0  0  0
    6.7640   -4.3260   21.6130 N   0  0  0  0  0  0  0  0  0  0  0  0
    6.4500   -5.5210   22.3320 C   0  0  0  0  0  0  0  0  0  0  0  0
    6.3120   -5.1960   23.7970 C   0  0  0  0  0  0  0  0  0  0  0  0
    5.8340   -3.7570   23.9170 C   0  0  0  0  0  0  0  0  0  0  0  0
    5.2890   -3.4380   25.2910 C   0  0  0  0  0  0  0  0  0  0  0  0
    4.0880   -3.2170   25.3460 O   0  0  0  0  0  0  0  0  0  0  0  0
    6.1420   -3.4060   26.3880 N   0  0  0  0  0  0  0  0  0  0  0  0
    5.6630   -3.3790   27.7350 C   0  0  0  0  0  0  0  0  0  0  0  0
    6.2840   -4.2780   28.6170 C   0  0  0  0  0  0  0  0  0  0  0  0
    7.4860   -4.8240   28.2100 C   0  0  0  0  0  0  0  0  0  0  0  0
    7.8150   -4.8560   26.8520 C   0  0  2  0  0  0  0  0  0  0  0  0
    9.2580   -5.1580   26.8470 C   0  0  0  0  0  0  0  0  0  0  0  0
    9.5440   -5.8470   27.9610 O   0  0  0  0  0  0  0  0  0  0  0  0
   10.1470   -4.8040   25.8480 N   0  0  0  0  0  0  0  0  0  0  0  0
   10.3540   -3.5310   25.4310 C   0  0  0  0  0  0  0  0  0  0  0  0
    9.4570   -3.1030   24.3220 C   0  0  0  0  0  0  0  0  0  0  0  0
   10.2600   -2.4700   23.1860 C   0  0  0  0  0  0  0  0  0  0  0  0
   11.3340   -1.5140   23.7610 C   0  0  0  0  0  0  0  0  0  0  0  0
   11.9620   -2.0000   24.8560 C   0  0  0  0  0  0  0  0  0  0  0  0
   11.6690   -3.2960   25.0950 C   0  0  0  0  0  0  0  0  0  0  0  0
    7.4900   -3.7740   26.1370 C   0  0  0  0  0  0  0  0  0  0  0  0
    6.9360   -2.7820   23.4730 C   0  0  0  0  0  0  0  0  0  0  0  0
    7.5870   -3.3420   22.2270 C   0  0  0  0  0  0  0  0  0  0  0  0
  1  2  1  0
  2  3  2  0
  2  4  1  0
  4  5  1  0
  5  6  1  0
  6  7  1  0
  7  8  1  0
  8  9  2  0
  8 10  1  0
 10 11  1  0
 11 12  1  0
 12 13  1  0
 13 14  1  0
 14 15  1  1
 15 16  2  0
 15 17  1  0
 17 18  1  0
 18 19  1  0
 19 20  1  0
 20 21  1  0
 21 22  1  0
 18 23  1  0
 22 23  1  0
 10 24  1  0
 14 24  1  0
  7 25  1  0
  4 26  1  0
 25 26  1  0
M  END
