piperidine-amides-21626-covalent
     RDKit          3D

 23 25  0  0  0  0  0  0  0  0999 V2000
    6.9890   -3.3780   19.4200 C   0  0  0  0  0  0  0  0  0  0  0  0
    6.3670   -4.2530   20.4250 C   0  0  0  0  0  0  0  0  0  0  0  0
    5.4100   -4.9580   20.0060 O   0  0  0  0  0  0  0  0  0  0  0  0
    6.8400   -4.3200   21.7510 N   0  0  0  0  0  0  0  0  0  0  0  0
    6.6580   -5.5010   22.5690 C   0  0  0  0  0  0  0  0  0  0  0  0
    5.9720   -5.0860   23.8460 C   0  0  0  0  0  0  0  0  0  0  0  0
    5.9070   -3.5850   23.9130 C   0  0  0  0  0  0  0  0  0  0  0  0
    5.1120   -3.0410   25.0730 C   0  0  0  0  0  0  0  0  0  0  0  0
    4.3250   -2.1200   24.8160 O   0  0  0  0  0  0  0  0  0  0  0  0
    5.1510   -3.4590   26.4180 N   0  0  0  0  0  0  0  0  0  0  0  0
    4.4390   -2.8010   27.4650 C   0  0  0  0  0  0  0  0  0  0  0  0
    4.4400   -3.7010   28.6900 C   0  0  0  0  0  0  0  0  0  0  0  0
    5.5600   -4.2330   29.2380 C   0  0  0  0  0  0  0  0  0  0  0  0
    5.5320   -5.5130   29.7210 C   0  0  0  0  0  0  0  0  0  0  0  0
    6.3720   -6.5660   29.2490 N   0  0  0  0  0  0  0  0  0  0  0  0
    6.0650   -7.6740   29.9420 C   0  0  0  0  0  0  0  0  0  0  0  0
    5.1530   -7.1170   30.6670 C   0  0  0  0  0  0  0  0  0  0  0  0
    4.7680   -6.1110   30.7020 N   0  0  0  0  0  0  0  0  0  0  0  0
    3.7270   -5.7540   31.6270 C   0  0  0  0  0  0  0  0  0  0  0  0
    6.5820   -3.9780   28.3970 C   0  0  0  0  0  0  0  0  0  0  0  0
    6.3030   -3.9680   26.9020 C   0  0  0  0  0  0  0  0  0  0  0  0
    7.3170   -3.0030   23.7640 C   0  0  0  0  0  0  0  0  0  0  0  0
    7.6660   -3.2190   22.2890 C   0  0  0  0  0  0  0  0  0  0  0  0
  1  2  1  0
  2  3  2  0
  2  4  1  0
  4  5  1  0
  5  6  1  0
  6  7  1  0
  7  8  1  0
  8  9  2  0
  8 10  1  0
 10 11  1  0
 11 12  1  0
 12 13  1  0
 13 14  1  0
 14 15  2  0
 15 16  1  0
 16 17  2  0
 14 18  1  0
 17 18  1  0
 18 19  1  0
 13 20  1  0
 10 21  1  0
 20 21  1  0
  7 22  1  0
  4 23  1  0
 22 23  1  0
M  END
