piperidine-amides-18947-covalent
     RDKit          3D

 20 21  0  0  0  0  0  0  0  0999 V2000
    7.1630   -3.4030   19.4580 C   0  0  0  0  0  0  0  0  0  0  0  0
    6.4490   -4.2360   20.3950 C   0  0  0  0  0  0  0  0  0  0  0  0
    5.4180   -4.8650   19.9950 O   0  0  0  0  0  0  0  0  0  0  0  0
    6.9200   -4.3820   21.7140 N   0  0  0  0  0  0  0  0  0  0  0  0
    6.4080   -5.5000   22.5350 C   0  0  0  0  0  0  0  0  0  0  0  0
    5.5860   -4.7070   23.6440 C   0  0  0  0  0  0  0  0  0  0  0  0
    6.5200   -3.6540   24.2230 C   0  0  0  0  0  0  0  0  0  0  0  0
    5.9480   -3.0230   25.5740 C   0  0  0  0  0  0  0  0  0  0  0  0
    5.9510   -1.8160   25.4760 O   0  0  0  0  0  0  0  0  0  0  0  0
    5.5950   -3.8890   26.4260 N   0  0  0  0  0  0  0  0  0  0  0  0
    4.8520   -4.8090   27.0370 C   0  0  0  0  0  0  0  0  0  0  0  0
    4.0440   -4.7960   28.1210 C   0  0  0  0  0  0  0  0  0  0  0  0
    4.7840   -4.7130   29.2980 C   0  0  0  0  0  0  0  0  0  0  0  0
    5.8030   -5.7570   29.3600 C   0  0  1  0  0  0  0  0  0  0  0  0
    5.2660   -7.3690   28.8930 S   0  0  0  0  0  0  0  0  0  0  0  0
    3.5530   -7.7240   29.2460 C   0  0  0  0  0  0  0  0  0  0  0  0
    6.6090   -4.9630   28.3310 C   0  0  0  0  0  0  0  0  0  0  0  0
    6.2010   -3.7360   27.7260 C   0  0  0  0  0  0  0  0  0  0  0  0
    7.0880   -2.7000   23.3230 C   0  0  0  0  0  0  0  0  0  0  0  0
    7.8770   -3.5460   22.3140 C   0  0  0  0  0  0  0  0  0  0  0  0
  1  2  1  0
  2  3  2  0
  2  4  1  0
  4  5  1  0
  5  6  1  0
  6  7  1  0
  7  8  1  0
  8  9  2  0
  8 10  1  0
 10 11  1  0
 11 12  1  0
 12 13  1  0
 13 14  1  0
 14 15  1  6
 15 16  1  0
 14 17  1  0
 10 18  1  0
 17 18  1  0
  7 19  1  0
  4 20  1  0
 19 20  1  0
M  END
