piperidine-amides-5364-covalent
     RDKit          3D

 21 22  0  0  0  0  0  0  0  0999 V2000
    7.1390   -3.2960   19.2120 C   0  0  0  0  0  0  0  0  0  0  0  0
    6.3290   -4.0010   20.2020 C   0  0  0  0  0  0  0  0  0  0  0  0
    5.2440   -4.4970   19.8590 O   0  0  0  0  0  0  0  0  0  0  0  0
    6.7820   -4.1890   21.5120 N   0  0  0  0  0  0  0  0  0  0  0  0
    6.5220   -5.3760   22.2800 C   0  0  0  0  0  0  0  0  0  0  0  0
    5.8020   -4.9000   23.5140 C   0  0  0  0  0  0  0  0  0  0  0  0
    6.5640   -3.8120   24.2250 C   0  0  0  0  0  0  0  0  0  0  0  0
    5.8400   -3.3240   25.4230 C   0  0  0  0  0  0  0  0  0  0  0  0
    4.5810   -3.1900   25.3990 O   0  0  0  0  0  0  0  0  0  0  0  0
    6.4970   -2.9750   26.6250 N   0  0  0  0  0  0  0  0  0  0  0  0
    6.2110   -3.6750   27.9060 C   0  0  0  0  0  0  0  0  0  0  0  0
    5.8610   -5.0960   27.6390 C   0  0  0  0  0  0  0  0  0  0  0  0
    4.6480   -5.3840   28.1530 N   0  0  0  0  0  0  0  0  0  0  0  0
    3.8480   -4.5060   28.9360 C   0  0  0  0  0  0  0  0  0  0  0  0
    3.0920   -5.1210   30.0790 C   0  0  0  0  0  0  0  0  0  0  0  0
    3.2500   -6.6070   30.2900 C   0  0  0  0  0  0  0  0  0  0  0  0
    3.8740   -7.3710   29.1880 C   0  0  0  0  0  0  0  0  0  0  0  0
    4.2540   -6.6750   28.0650 C   0  0  0  0  0  0  0  0  0  0  0  0
    4.2040   -7.2880   26.9450 O   0  0  0  0  0  0  0  0  0  0  0  0
    6.8600   -2.6470   23.3210 C   0  0  0  0  0  0  0  0  0  0  0  0
    7.6240   -3.1780   22.1350 C   0  0  0  0  0  0  0  0  0  0  0  0
  1  2  1  0
  2  3  2  0
  2  4  1  0
  4  5  1  0
  5  6  1  0
  6  7  1  0
  7  8  1  0
  8  9  2  0
  8 10  1  0
 10 11  1  0
 11 12  1  0
 12 13  1  0
 13 14  1  0
 14 15  2  0
 15 16  1  0
 16 17  2  0
 13 18  1  0
 17 18  1  0
 18 19  2  0
  7 20  1  0
  4 21  1  0
 20 21  1  0
M  END
