piperidine-amides-2033-covalent
     RDKit          3D

 25 27  0  0  0  0  0  0  0  0999 V2000
    7.0460   -3.3290   19.3010 C   0  0  0  0  0  0  0  0  0  0  0  0
    6.3730   -4.1740   20.3200 C   0  0  0  0  0  0  0  0  0  0  0  0
    5.3610   -4.7700   19.9620 O   0  0  0  0  0  0  0  0  0  0  0  0
    6.9080   -4.3180   21.6100 N   0  0  0  0  0  0  0  0  0  0  0  0
    6.5990   -5.4630   22.4110 C   0  0  0  0  0  0  0  0  0  0  0  0
    5.8960   -4.9970   23.6570 C   0  0  0  0  0  0  0  0  0  0  0  0
    6.6650   -3.8420   24.3250 C   0  0  0  0  0  0  0  0  0  0  0  0
    5.8350   -3.3720   25.4500 C   0  0  0  0  0  0  0  0  0  0  0  0
    4.6150   -3.2290   25.2810 O   0  0  0  0  0  0  0  0  0  0  0  0
    6.4080   -3.0830   26.7080 N   0  0  0  0  0  0  0  0  0  0  0  0
    6.8930   -1.7450   26.9810 C   0  0  2  0  0  0  0  0  0  0  0  0
    7.3210   -1.7710   28.4260 C   0  0  0  0  0  0  0  0  0  0  0  0
    7.0510   -0.7370   29.2420 C   0  0  0  0  0  0  0  0  0  0  0  0
    7.0720    0.4040   28.7370 O   0  0  0  0  0  0  0  0  0  0  0  0
    6.1760    0.5460   27.6610 C   0  0  0  0  0  0  0  0  0  0  0  0
    5.9050   -0.5940   26.9050 C   0  0  2  0  0  0  0  0  0  0  0  0
    4.8310   -1.1480   27.4400 N   0  0  0  0  0  0  0  0  0  0  0  0
    3.5470   -0.4140   27.2710 C   0  0  0  0  0  0  0  0  0  0  0  0
    3.5980    0.6250   26.2010 C   0  0  0  0  0  0  0  0  0  0  0  0
    2.3200    1.4070   25.9790 C   0  0  0  0  0  0  0  0  0  0  0  0
    1.2620    1.0870   26.7700 N   0  0  0  0  0  0  0  0  0  0  0  0
    1.2220    0.0780   27.8050 C   0  0  0  0  0  0  0  0  0  0  0  0
    2.4070   -0.6600   28.0250 N   0  0  0  0  0  0  0  0  0  0  0  0
    6.9890   -2.7120   23.3880 C   0  0  0  0  0  0  0  0  0  0  0  0
    7.7250   -3.2740   22.1920 C   0  0  0  0  0  0  0  0  0  0  0  0
  1  2  1  0
  2  3  2  0
  2  4  1  0
  4  5  1  0
  5  6  1  0
  6  7  1  0
  7  8  1  0
  8  9  2  0
  8 10  1  0
 11 10  1  1
 11 12  1  0
 12 13  1  0
 13 14  1  0
 14 15  1  0
 11 16  1  0
 15 16  1  0
 16 17  1  1
 17 18  1  0
 18 19  2  0
 19 20  1  0
 20 21  2  0
 21 22  1  0
 18 23  1  0
 22 23  2  0
  7 24  1  0
  4 25  1  0
 24 25  1  0
M  END
