piperidine-amides-14692-covalent
     RDKit          3D

 22 23  0  0  0  0  0  0  0  0999 V2000
    7.0580   -3.3450   19.3100 C   0  0  0  0  0  0  0  0  0  0  0  0
    6.3970   -4.1830   20.3110 C   0  0  0  0  0  0  0  0  0  0  0  0
    5.3710   -4.7970   19.9690 O   0  0  0  0  0  0  0  0  0  0  0  0
    6.9480   -4.3290   21.6120 N   0  0  0  0  0  0  0  0  0  0  0  0
    7.7410   -3.2620   22.1590 C   0  0  0  0  0  0  0  0  0  0  0  0
    6.9870   -2.6370   23.2770 C   0  0  0  0  0  0  0  0  0  0  0  0
    6.6480   -3.7670   24.2060 C   0  0  0  0  0  0  0  0  0  0  0  0
    5.9180   -3.2040   25.3830 C   0  0  0  0  0  0  0  0  0  0  0  0
    4.7190   -3.4630   25.4880 O   0  0  0  0  0  0  0  0  0  0  0  0
    6.6750   -2.4180   26.2460 N   0  0  0  0  0  0  0  0  0  0  0  0
    6.1060   -1.5370   27.2090 C   0  0  0  0  0  0  0  0  0  0  0  0
    5.8840   -0.2090   26.7660 C   0  0  0  0  0  0  0  0  0  0  0  0
    5.7990    0.8200   27.7110 C   0  0  0  0  0  0  0  0  0  0  0  0
    4.5610    1.1590   28.2260 C   0  0  0  0  0  0  0  0  0  0  0  0
    6.1880    2.1800   27.0380 C   0  0  0  0  0  0  0  0  0  0  0  0
    6.6600    0.6460   28.7940 O   0  0  0  0  0  0  0  0  0  0  0  0
    6.7740   -0.6200   29.3510 C   0  0  0  0  0  0  0  0  0  0  0  0
    5.6490   -1.0300   30.2230 C   0  0  0  0  0  0  0  0  0  0  0  0
    8.0110   -0.6170   30.2060 C   0  0  0  0  0  0  0  0  0  0  0  0
    7.0380   -1.5150   28.3530 C   0  0  0  0  0  0  0  0  0  0  0  0
    5.7460   -4.7640   23.5030 C   0  0  0  0  0  0  0  0  0  0  0  0
    6.4860   -5.3650   22.5000 C   0  0  0  0  0  0  0  0  0  0  0  0
  1  2  1  0
  2  3  2  0
  2  4  1  0
  4  5  1  0
  5  6  1  0
  6  7  1  0
  7  8  1  0
  8  9  2  0
  8 10  1  0
 10 11  1  0
 11 12  1  0
 12 13  1  0
 13 14  1  0
 13 15  1  0
 13 16  1  0
 16 17  1  0
 17 18  1  0
 17 19  1  0
 11 20  1  0
 17 20  1  0
  7 21  1  0
  4 22  1  0
 21 22  1  0
M  END
