piperidine-amides-15400-covalent
     RDKit          3D

 17 18  0  0  0  0  0  0  0  0999 V2000
    7.1140   -3.2700   19.2570 C   0  0  0  0  0  0  0  0  0  0  0  0
    6.3810   -4.0760   20.2440 C   0  0  0  0  0  0  0  0  0  0  0  0
    5.3300   -4.6760   19.9280 O   0  0  0  0  0  0  0  0  0  0  0  0
    6.8860   -4.2200   21.5390 N   0  0  0  0  0  0  0  0  0  0  0  0
    6.5400   -5.3860   22.3100 C   0  0  0  0  0  0  0  0  0  0  0  0
    5.6720   -4.8750   23.4610 C   0  0  0  0  0  0  0  0  0  0  0  0
    6.4920   -3.8110   24.1690 C   0  0  0  0  0  0  0  0  0  0  0  0
    5.7250   -3.3290   25.3350 C   0  0  0  0  0  0  0  0  0  0  0  0
    4.4820   -3.2890   25.2350 O   0  0  0  0  0  0  0  0  0  0  0  0
    6.3810   -2.9220   26.5210 N   0  0  0  0  0  0  0  0  0  0  0  0
    5.9250   -3.4070   27.7680 C   0  0  0  0  0  0  0  0  0  0  0  0
    5.9080   -1.9560   28.0140 C   0  0  0  0  0  0  0  0  0  0  0  0
    4.7140   -1.4400   28.3930 F   0  0  0  0  0  0  0  0  0  0  0  0
    6.9070   -1.6770   28.9790 F   0  0  0  0  0  0  0  0  0  0  0  0
    6.4020   -1.4610   26.8150 C   0  0  0  0  0  0  0  0  0  0  0  0
    6.8050   -2.7070   23.2210 C   0  0  0  0  0  0  0  0  0  0  0  0
    7.6220   -3.1820   22.2010 C   0  0  0  0  0  0  0  0  0  0  0  0
  1  2  1  0
  2  3  2  0
  2  4  1  0
  4  5  1  0
  5  6  1  0
  6  7  1  0
  7  8  1  0
  8  9  2  0
  8 10  1  0
 10 11  1  0
 11 12  1  0
 12 13  1  0
 12 14  1  0
 10 15  1  0
 12 15  1  0
  7 16  1  0
  4 17  1  0
 16 17  1  0
M  END
