piperidine-amides-14327-covalent
     RDKit          3D

 24 26  0  0  0  0  0  0  0  0999 V2000
    7.1610   -3.2660   19.1610 C   0  0  0  0  0  0  0  0  0  0  0  0
    6.4210   -4.0280   20.1670 C   0  0  0  0  0  0  0  0  0  0  0  0
    5.3050   -4.4910   19.8650 O   0  0  0  0  0  0  0  0  0  0  0  0
    7.0090   -4.2820   21.4250 N   0  0  0  0  0  0  0  0  0  0  0  0
    6.4790   -5.3650   22.1870 C   0  0  0  0  0  0  0  0  0  0  0  0
    5.6630   -4.7870   23.3020 C   0  0  0  0  0  0  0  0  0  0  0  0
    6.5880   -3.8800   24.0890 C   0  0  0  0  0  0  0  0  0  0  0  0
    5.8740   -3.3220   25.2550 C   0  0  0  0  0  0  0  0  0  0  0  0
    4.6620   -3.1290   25.1380 O   0  0  0  0  0  0  0  0  0  0  0  0
    6.6350   -3.0700   26.3710 N   0  0  0  0  0  0  0  0  0  0  0  0
    6.1670   -3.4910   27.6250 C   0  0  2  0  0  0  0  0  0  0  0  0
    6.3690   -2.5340   28.6340 C   0  0  0  0  0  0  0  0  0  0  0  0
    7.6090   -1.9720   28.9250 C   0  0  0  0  0  0  0  0  0  0  0  0
    7.8880   -0.9990   29.9180 C   0  0  0  0  0  0  0  0  0  0  0  0
    6.7020   -0.5360   30.7220 C   0  0  0  0  0  0  0  0  0  0  0  0
    6.9100    0.3960   31.6840 F   0  0  0  0  0  0  0  0  0  0  0  0
    5.3420   -1.1420   30.4100 C   0  0  0  0  0  0  0  0  0  0  0  0
    5.2710   -2.1350   29.3500 C   0  0  0  0  0  0  0  0  0  0  0  0
    4.0630   -2.6980   29.0420 F   0  0  0  0  0  0  0  0  0  0  0  0
    6.9320   -4.7920   27.8960 C   0  0  0  0  0  0  0  0  0  0  0  0
    7.9550   -5.0370   26.9980 C   0  0  0  0  0  0  0  0  0  0  0  0
    8.3470   -4.8380   28.3420 C   0  0  0  0  0  0  0  0  0  0  0  0
    6.9690   -2.7150   23.2370 C   0  0  0  0  0  0  0  0  0  0  0  0
    7.7020   -3.1680   22.0230 C   0  0  0  0  0  0  0  0  0  0  0  0
  1  2  1  0
  2  3  2  0
  2  4  1  0
  4  5  1  0
  5  6  1  0
  6  7  1  0
  7  8  1  0
  8  9  2  0
  8 10  1  0
 11 10  1  6
 11 12  1  0
 12 13  2  0
 13 14  1  0
 14 15  2  0
 15 16  1  0
 15 17  1  0
 12 18  1  0
 17 18  2  0
 18 19  1  0
 11 20  1  0
 20 21  1  0
 20 22  1  0
 21 22  1  0
  7 23  1  0
  4 24  1  0
 23 24  1  0
M  END
