piperidine-amides-14533-covalent
     RDKit          3D

 23 24  0  0  0  0  0  0  0  0999 V2000
    7.1480   -3.2990   19.2680 C   0  0  0  0  0  0  0  0  0  0  0  0
    6.3760   -4.0530   20.2480 C   0  0  0  0  0  0  0  0  0  0  0  0
    5.2920   -4.5480   19.8890 O   0  0  0  0  0  0  0  0  0  0  0  0
    6.8950   -4.2530   21.5510 N   0  0  0  0  0  0  0  0  0  0  0  0
    6.3260   -5.2840   22.3550 C   0  0  0  0  0  0  0  0  0  0  0  0
    5.6010   -4.6410   23.5070 C   0  0  0  0  0  0  0  0  0  0  0  0
    6.6160   -3.7870   24.2510 C   0  0  0  0  0  0  0  0  0  0  0  0
    6.0340   -3.2510   25.5260 C   0  0  0  0  0  0  0  0  0  0  0  0
    4.8030   -3.2640   25.6080 O   0  0  0  0  0  0  0  0  0  0  0  0
    6.9240   -2.7680   26.5060 N   0  0  0  0  0  0  0  0  0  0  0  0
    7.5320   -3.5730   27.5240 C   0  0  1  0  0  0  0  0  0  0  0  0
    6.6610   -4.2910   28.3680 C   0  0  0  0  0  0  0  0  0  0  0  0
    6.9190   -5.6200   28.6940 C   0  0  0  0  0  0  0  0  0  0  0  0
    6.1510   -6.4640   29.5020 C   0  0  0  0  0  0  0  0  0  0  0  0
    4.9150   -5.8360   30.0710 C   0  0  0  0  0  0  0  0  0  0  0  0
    4.6200   -4.3710   29.7270 C   0  0  0  0  0  0  0  0  0  0  0  0
    5.5490   -3.6440   28.8580 C   0  0  0  0  0  0  0  0  0  0  0  0
    5.2450   -1.9720   28.4490 Cl  0  0  0  0  0  0  0  0  0  0  0  0
    8.2280   -4.6920   26.7630 C   0  0  0  0  0  0  0  0  0  0  0  0
    7.1390   -5.6320   26.2650 C   0  0  0  0  0  0  0  0  0  0  0  0
    8.8340   -4.3010   25.5850 C   0  0  0  0  0  0  0  0  0  0  0  0
    6.9550   -2.6290   23.3670 C   0  0  0  0  0  0  0  0  0  0  0  0
    7.6210   -3.1400   22.1210 C   0  0  0  0  0  0  0  0  0  0  0  0
  1  2  1  0
  2  3  2  0
  2  4  1  0
  4  5  1  0
  5  6  1  0
  6  7  1  0
  7  8  1  0
  8  9  2  0
  8 10  1  0
 11 10  1  6
 11 12  1  0
 12 13  2  0
 13 14  1  0
 14 15  2  0
 15 16  1  0
 12 17  1  0
 16 17  2  0
 17 18  1  0
 11 19  1  0
 19 20  1  0
 19 21  1  0
  7 22  1  0
  4 23  1  0
 22 23  1  0
M  END
