piperidine-amides-13924-covalent
     RDKit          3D

 26 28  0  0  0  0  0  0  0  0999 V2000
    7.1210   -3.2970   19.2700 C   0  0  0  0  0  0  0  0  0  0  0  0
    6.3240   -4.0560   20.2670 C   0  0  0  0  0  0  0  0  0  0  0  0
    5.2720   -4.6060   19.9040 O   0  0  0  0  0  0  0  0  0  0  0  0
    6.8130   -4.1720   21.5840 N   0  0  0  0  0  0  0  0  0  0  0  0
    7.6780   -3.1650   22.1510 C   0  0  0  0  0  0  0  0  0  0  0  0
    6.9950   -2.6680   23.4220 C   0  0  0  0  0  0  0  0  0  0  0  0
    6.6720   -3.8680   24.2490 C   0  0  0  0  0  0  0  0  0  0  0  0
    5.9370   -3.5060   25.4880 C   0  0  0  0  0  0  0  0  0  0  0  0
    4.6850   -3.4870   25.4550 O   0  0  0  0  0  0  0  0  0  0  0  0
    6.6770   -3.1800   26.6370 N   0  0  0  0  0  0  0  0  0  0  0  0
    7.5210   -4.0340   27.4020 C   0  0  2  0  0  0  0  0  0  0  0  0
    8.3710   -4.9830   26.8720 C   0  0  0  0  0  0  0  0  0  0  0  0
    6.6610   -4.8380   28.3640 C   0  0  0  0  0  0  0  0  0  0  0  0
    5.5040   -4.3920   29.0060 C   0  0  0  0  0  0  0  0  0  0  0  0
    4.6670   -5.1770   29.9440 C   0  0  0  0  0  0  0  0  0  0  0  0
    5.0630   -6.5910   30.2640 C   0  0  0  0  0  0  0  0  0  0  0  0
    4.1730   -7.3530   31.2400 C   0  0  0  0  0  0  0  0  0  0  0  0
    2.9570   -7.7630   30.8620 C   0  0  0  0  0  0  0  0  0  0  0  0
    1.9930   -8.4980   31.6560 C   0  0  0  0  0  0  0  0  0  0  0  0
    2.6170   -8.7330   33.0410 C   0  0  0  0  0  0  0  0  0  0  0  0
    3.8310   -8.4230   33.6870 C   0  0  0  0  0  0  0  0  0  0  0  0
    4.5390   -7.6640   32.5170 C   0  0  0  0  0  0  0  0  0  0  0  0
    6.1680   -7.0830   29.6760 C   0  0  0  0  0  0  0  0  0  0  0  0
    7.0480   -6.2820   28.7030 C   0  0  0  0  0  0  0  0  0  0  0  0
    5.7970   -4.8900   23.5390 C   0  0  0  0  0  0  0  0  0  0  0  0
    6.3770   -5.2910   22.3420 C   0  0  0  0  0  0  0  0  0  0  0  0
  1  2  1  0
  2  3  2  0
  2  4  1  0
  4  5  1  0
  5  6  1  0
  6  7  1  0
  7  8  1  0
  8  9  2  0
  8 10  1  0
 10 11  1  0
 11 12  1  6
 11 13  1  0
 13 14  2  0
 14 15  1  0
 15 16  2  0
 16 17  1  0
 17 18  2  0
 18 19  1  0
 19 20  2  0
 20 21  1  0
 17 22  1  0
 21 22  2  0
 16 23  1  0
 13 24  1  0
 23 24  2  0
  7 25  1  0
  4 26  1  0
 25 26  1  0
M  END
