piperidine-amides-35616-covalent
     RDKit          3D

 37 40  0  0  0  0  0  0  0  0999 V2000
    7.0080   -3.3620   19.4210 C   0  0  0  0  0  0  0  0  0  0  0  0
    6.3680   -4.2620   20.4200 C   0  0  0  0  0  0  0  0  0  0  0  0
    5.4140   -4.9210   20.0040 O   0  0  0  0  0  0  0  0  0  0  0  0
    6.8510   -4.3770   21.7390 N   0  0  0  0  0  0  0  0  0  0  0  0
    6.5100   -5.5010   22.5630 C   0  0  0  0  0  0  0  0  0  0  0  0
    5.6760   -5.0300   23.7320 C   0  0  0  0  0  0  0  0  0  0  0  0
    6.2170   -3.7190   24.3460 C   0  0  0  0  0  0  0  0  0  0  0  0
    5.1900   -3.1830   25.3170 C   0  0  0  0  0  0  0  0  0  0  0  0
    4.4420   -2.2730   24.9640 O   0  0  0  0  0  0  0  0  0  0  0  0
    5.0600   -3.7140   26.6370 N   0  0  0  0  0  0  0  0  0  0  0  0
    6.1310   -4.5070   26.8630 C   0  0  0  0  0  0  0  0  0  0  0  0
    5.9500   -5.3150   28.0900 C   0  0  0  0  0  0  0  0  0  0  0  0
    5.6380   -4.6170   29.1800 C   0  0  0  0  0  0  0  0  0  0  0  0
    4.4720   -5.0050   29.7740 C   0  0  0  0  0  0  0  0  0  0  0  0
    3.1720   -4.4410   29.4970 N   0  0  0  0  0  0  0  0  0  0  0  0
    2.2180   -5.1230   30.3370 C   0  0  0  0  0  0  0  0  0  0  0  0
    0.7120   -4.9320   30.4550 C   0  0  0  0  0  0  0  0  0  0  0  0
    0.1380   -5.4220   31.6330 F   0  0  0  0  0  0  0  0  0  0  0  0
   -0.0360   -5.5180   29.4230 F   0  0  0  0  0  0  0  0  0  0  0  0
    0.4520   -3.5810   30.3910 F   0  0  0  0  0  0  0  0  0  0  0  0
    2.8310   -6.0450   31.0970 N   0  0  0  0  0  0  0  0  0  0  0  0
    4.2380   -6.0360   30.7990 C   0  0  0  0  0  0  0  0  0  0  0  0
    5.1730   -6.9710   31.4960 C   0  0  0  0  0  0  0  0  0  0  0  0
    4.5500   -7.8800   32.3530 N   0  0  0  0  0  0  0  0  0  0  0  0
    5.0970   -8.2180   33.5660 C   0  0  0  0  0  0  0  0  0  0  0  0
    4.4540   -9.1680   34.3720 O   0  0  0  0  0  0  0  0  0  0  0  0
    6.1680   -7.6860   33.9640 O   0  0  0  0  0  0  0  0  0  0  0  0
    6.6240   -7.8200   35.2810 C   0  0  0  0  0  0  0  0  0  0  0  0
    7.2880   -9.1710   35.4900 C   0  0  0  0  0  0  0  0  0  0  0  0
    5.5160   -7.7230   36.3270 C   0  0  0  0  0  0  0  0  0  0  0  0
    7.6460   -6.7320   35.6200 C   0  0  0  0  0  0  0  0  0  0  0  0
    3.1830   -8.2210   32.0000 C   0  0  0  0  0  0  0  0  0  0  0  0
    2.3220   -6.9690   32.0910 C   0  0  0  0  0  0  0  0  0  0  0  0
    5.7260   -3.2530   28.9660 C   0  0  0  0  0  0  0  0  0  0  0  0
    4.8150   -2.8290   27.7730 C   0  0  0  0  0  0  0  0  0  0  0  0
    6.6770   -2.6480   23.3720 C   0  0  0  0  0  0  0  0  0  0  0  0
    7.6100   -3.2960   22.3300 C   0  0  0  0  0  0  0  0  0  0  0  0
  1  2  1  0
  2  3  2  0
  2  4  1  0
  4  5  1  0
  5  6  1  0
  6  7  1  0
  7  8  1  0
  8  9  2  0
  8 10  1  0
 10 11  1  0
 11 12  1  0
 12 13  1  0
 13 14  1  0
 14 15  1  0
 15 16  2  0
 16 17  1  0
 17 18  1  0
 17 19  1  0
 17 20  1  0
 16 21  1  0
 14 22  2  0
 21 22  1  0
 22 23  1  0
 23 24  1  0
 24 25  1  0
 25 26  2  0
 25 27  1  0
 28 27  1  0
 28 29  1  0
 28 30  1  0
 28 31  1  0
 24 32  1  0
 21 33  1  0
 32 33  1  0
 13 34  1  0
 10 35  1  0
 34 35  1  0
  7 36  1  0
  4 37  1  0
 36 37  1  0
M  END
