piperidine-amides-10768-covalent
     RDKit          3D

 22 24  0  0  0  0  0  0  0  0999 V2000
    7.0370   -3.3320   19.3410 C   0  0  0  0  0  0  0  0  0  0  0  0
    6.3630   -4.1430   20.3540 C   0  0  0  0  0  0  0  0  0  0  0  0
    5.4230   -4.8780   19.9950 O   0  0  0  0  0  0  0  0  0  0  0  0
    6.7760   -4.1420   21.7020 N   0  0  0  0  0  0  0  0  0  0  0  0
    7.6690   -3.1310   22.2480 C   0  0  0  0  0  0  0  0  0  0  0  0
    7.5200   -3.1550   23.7510 C   0  0  0  0  0  0  0  0  0  0  0  0
    6.1430   -3.5720   24.1830 C   0  0  0  0  0  0  0  0  0  0  0  0
    5.8790   -3.4740   25.6630 C   0  0  0  0  0  0  0  0  0  0  0  0
    5.7840   -4.5460   26.3190 O   0  0  0  0  0  0  0  0  0  0  0  0
    5.6870   -2.2450   26.4370 N   0  0  0  0  0  0  0  0  0  0  0  0
    6.6970   -1.1840   26.3300 C   0  0  0  0  0  0  0  0  0  0  0  0
    6.7470   -1.8960   27.6050 C   0  0  0  0  0  0  0  0  0  0  0  0
    5.6010   -2.6370   27.6060 N   0  0  0  0  0  0  0  0  0  0  0  0
    4.5870   -2.7250   26.5590 C   0  0  0  0  0  0  0  0  0  0  0  0
    3.4300   -3.5920   26.7200 C   0  0  0  0  0  0  0  0  0  0  0  0
    2.8230   -3.2510   25.3830 C   0  0  0  0  0  0  0  0  0  0  0  0
    1.5490   -3.9680   25.1370 C   0  0  0  0  0  0  0  0  0  0  0  0
    3.5550   -2.3430   24.6350 N   0  0  0  0  0  0  0  0  0  0  0  0
    4.6390   -2.0380   25.3900 N   0  0  0  0  0  0  0  0  0  0  0  0
    5.7010   -1.1970   25.1900 C   0  0  0  0  0  0  0  0  0  0  0  0
    5.8480   -4.9990   23.7420 C   0  0  0  0  0  0  0  0  0  0  0  0
    6.6320   -5.3480   22.4880 C   0  0  0  0  0  0  0  0  0  0  0  0
  1  2  1  0
  2  3  2  0
  2  4  1  0
  4  5  1  0
  5  6  1  0
  6  7  1  0
  7  8  1  0
  8  9  2  0
  8 10  1  0
 10 11  1  0
 11 12  1  0
 12 13  2  0
 13 14  1  0
 14 15  2  0
 15 16  1  0
 16 17  1  0
 16 18  2  0
 14 19  1  0
 18 19  1  0
 11 20  2  0
 19 20  1  0
  7 21  1  0
  4 22  1  0
 21 22  1  0
M  END
