piperidine-amides-12252-covalent
     RDKit          3D

 24 26  0  0  0  0  0  0  0  0999 V2000
    7.1880   -4.0420   19.6830 C   0  0  0  0  0  0  0  0  0  0  0  0
    6.0150   -4.0010   20.3910 C   0  0  0  0  0  0  0  0  0  0  0  0
    4.9990   -4.1740   19.7350 O   0  0  0  0  0  0  0  0  0  0  0  0
    6.1300   -3.9110   21.8000 N   0  0  0  0  0  0  0  0  0  0  0  0
    7.2340   -3.1020   22.2480 C   0  0  0  0  0  0  0  0  0  0  0  0
    7.0670   -2.7260   23.6840 C   0  0  0  0  0  0  0  0  0  0  0  0
    6.4480   -3.8770   24.4740 C   0  0  0  0  0  0  0  0  0  0  0  0
    5.6710   -3.2560   25.5780 C   0  0  0  0  0  0  0  0  0  0  0  0
    4.4400   -3.0770   25.4880 O   0  0  0  0  0  0  0  0  0  0  0  0
    6.3320   -2.8480   26.7570 N   0  0  0  0  0  0  0  0  0  0  0  0
    6.6060   -1.4330   26.9180 C   0  0  0  0  0  0  0  0  0  0  0  0
    7.1420   -1.1080   28.2880 C   0  0  0  0  0  0  0  0  0  0  0  0
    7.2350    0.2350   27.9550 N   0  0  0  0  0  0  0  0  0  0  0  0
    6.8600    0.6250   26.7240 N   0  0  0  0  0  0  0  0  0  0  0  0
    6.8930    1.9820   26.1890 C   0  0  0  0  0  0  0  0  0  0  0  0
    5.7270    2.0580   25.4190 C   0  0  0  0  0  0  0  0  0  0  0  0
    5.6550    3.2460   24.7130 C   0  0  0  0  0  0  0  0  0  0  0  0
    6.7460    3.5970   24.0040 N   0  0  0  0  0  0  0  0  0  0  0  0
    6.7090    3.0040   22.6830 C   0  0  0  0  0  0  0  0  0  0  0  0
    8.0010    3.4740   24.7010 C   0  0  0  0  0  0  0  0  0  0  0  0
    7.9790    2.2860   25.3970 C   0  0  0  0  0  0  0  0  0  0  0  0
    6.4490   -0.4450   26.0510 C   0  0  0  0  0  0  0  0  0  0  0  0
    5.6040   -4.8540   23.7950 C   0  0  0  0  0  0  0  0  0  0  0  0
    6.0340   -5.1430   22.5270 C   0  0  0  0  0  0  0  0  0  0  0  0
  1  2  1  0
  2  3  2  0
  2  4  1  0
  4  5  1  0
  5  6  1  0
  6  7  1  0
  7  8  1  0
  8  9  2  0
  8 10  1  0
 10 11  1  0
 11 12  1  0
 12 13  2  0
 13 14  1  0
 14 15  1  0
 15 16  1  0
 16 17  1  0
 17 18  1  0
 18 19  1  0
 18 20  1  0
 15 21  1  0
 20 21  1  0
 11 22  2  0
 14 22  1  0
  7 23  1  0
  4 24  1  0
 23 24  1  0
M  END
