piperidine-amides-26858-covalent
     RDKit          3D

 24 26  0  0  0  0  0  0  0  0999 V2000
    7.0400   -3.2900   19.3100 C   0  0  0  0  0  0  0  0  0  0  0  0
    6.3550   -4.0860   20.3360 C   0  0  0  0  0  0  0  0  0  0  0  0
    5.3420   -4.7310   19.9500 O   0  0  0  0  0  0  0  0  0  0  0  0
    6.8340   -4.1510   21.6610 N   0  0  0  0  0  0  0  0  0  0  0  0
    6.6300   -5.3480   22.4430 C   0  0  0  0  0  0  0  0  0  0  0  0
    5.8840   -4.9600   23.6910 C   0  0  0  0  0  0  0  0  0  0  0  0
    5.9120   -3.4710   23.9030 C   0  0  0  0  0  0  0  0  0  0  0  0
    5.5200   -3.1360   25.3040 C   0  0  0  0  0  0  0  0  0  0  0  0
    4.9790   -4.0370   25.9720 O   0  0  0  0  0  0  0  0  0  0  0  0
    5.6850   -1.8730   25.9220 N   0  0  0  0  0  0  0  0  0  0  0  0
    6.6980   -1.6290   26.9240 C   0  0  0  0  0  0  0  0  0  0  0  0
    5.9430   -0.4780   27.3310 C   0  0  0  0  0  0  0  0  0  0  0  0
    5.5080   -0.1200   28.5950 C   0  0  0  0  0  0  0  0  0  0  0  0
    5.2490    1.2120   28.8430 C   0  0  0  0  0  0  0  0  0  0  0  0
    4.8180    1.7650   30.0320 C   0  0  0  0  0  0  0  0  0  0  0  0
    4.5890    3.1170   30.1850 C   0  0  0  0  0  0  0  0  0  0  0  0
    4.6080    0.9520   31.1080 C   0  0  0  0  0  0  0  0  0  0  0  0
    4.0600    1.6250   32.6300 Cl  0  0  0  0  0  0  0  0  0  0  0  0
    4.8370   -0.5320   31.0220 C   0  0  0  0  0  0  0  0  0  0  0  0
    5.3180   -1.0180   29.6460 C   0  0  0  0  0  0  0  0  0  0  0  0
    5.5630   -2.2140   29.3890 O   0  0  0  0  0  0  0  0  0  0  0  0
    4.8430   -0.7640   26.5590 C   0  0  0  0  0  0  0  0  0  0  0  0
    7.2800   -2.9240   23.5880 C   0  0  0  0  0  0  0  0  0  0  0  0
    7.6680   -3.0960   22.2660 C   0  0  0  0  0  0  0  0  0  0  0  0
  1  2  1  0
  2  3  2  0
  2  4  1  0
  4  5  1  0
  5  6  1  0
  6  7  1  0
  7  8  1  0
  8  9  2  0
  8 10  1  0
 10 11  1  0
 11 12  1  0
 12 13  1  0
 13 14  2  0
 14 15  1  0
 15 16  1  0
 15 17  2  0
 17 18  1  0
 17 19  1  0
 13 20  1  0
 19 20  2  0
 20 21  1  0
 10 22  1  0
 12 22  1  0
  7 23  1  0
  4 24  1  0
 23 24  1  0
M  END
