piperidine-amides-30854-covalent
     RDKit          3D

 23 24  0  0  0  0  0  0  0  0999 V2000
    7.1080   -3.3320   19.2970 C   0  0  0  0  0  0  0  0  0  0  0  0
    6.3380   -4.1150   20.2600 C   0  0  0  0  0  0  0  0  0  0  0  0
    5.2640   -4.6260   19.9110 O   0  0  0  0  0  0  0  0  0  0  0  0
    6.8440   -4.3410   21.5460 N   0  0  0  0  0  0  0  0  0  0  0  0
    7.7400   -3.4140   22.1740 C   0  0  0  0  0  0  0  0  0  0  0  0
    6.9340   -2.9180   23.3090 C   0  0  0  0  0  0  0  0  0  0  0  0
    6.4020   -4.0550   24.0970 C   0  0  0  0  0  0  0  0  0  0  0  0
    5.7170   -3.5510   25.3020 C   0  0  0  0  0  0  0  0  0  0  0  0
    4.4660   -3.6890   25.4570 O   0  0  0  0  0  0  0  0  0  0  0  0
    6.4240   -2.8800   26.3160 N   0  0  0  0  0  0  0  0  0  0  0  0
    6.3540   -3.3730   27.7120 C   0  0  0  0  0  0  0  0  0  0  0  0
    6.7750   -1.4550   26.1460 C   0  0  0  0  0  0  0  0  0  0  0  0
    6.7710   -0.9480   24.7440 C   0  0  0  0  0  0  0  0  0  0  0  0
    5.5150   -0.2110   24.3340 C   0  0  0  0  0  0  0  0  0  0  0  0
    4.3570   -0.0340   25.2950 C   0  0  0  0  0  0  0  0  0  0  0  0
    5.4240    0.3690   22.8980 C   0  0  0  0  0  0  0  0  0  0  0  0
    6.5000    0.1810   22.0550 C   0  0  0  0  0  0  0  0  0  0  0  0
    6.4260    0.8780   20.2980 Br  0  0  0  0  0  0  0  0  0  0  0  0
    7.6340   -0.5120   22.4760 C   0  0  0  0  0  0  0  0  0  0  0  0
    7.8180   -1.1100   23.8400 C   0  0  0  0  0  0  0  0  0  0  0  0
    9.1550   -1.8400   24.0830 C   0  0  0  0  0  0  0  0  0  0  0  0
    5.5310   -4.9120   23.1650 C   0  0  0  0  0  0  0  0  0  0  0  0
    6.2520   -5.4220   22.3310 C   0  0  0  0  0  0  0  0  0  0  0  0
  1  2  1  0
  2  3  2  0
  2  4  1  0
  4  5  1  0
  5  6  1  0
  6  7  1  0
  7  8  1  0
  8  9  2  0
  8 10  1  0
 10 11  1  0
 10 12  1  0
 12 13  1  0
 13 14  2  0
 14 15  1  0
 14 16  1  0
 16 17  2  0
 17 18  1  0
 17 19  1  0
 13 20  1  0
 19 20  2  0
 20 21  1  0
  7 22  1  0
  4 23  1  0
 22 23  1  0
M  END
