piperidine-amides-27683-covalent
     RDKit          3D

 25 27  0  0  0  0  0  0  0  0999 V2000
    7.0780   -3.3400   19.3150 C   0  0  0  0  0  0  0  0  0  0  0  0
    6.4140   -4.1820   20.3150 C   0  0  0  0  0  0  0  0  0  0  0  0
    5.3490   -4.7450   19.9530 O   0  0  0  0  0  0  0  0  0  0  0  0
    6.9800   -4.3870   21.5760 N   0  0  0  0  0  0  0  0  0  0  0  0
    6.6780   -5.5500   22.3650 C   0  0  0  0  0  0  0  0  0  0  0  0
    5.9940   -5.0760   23.6140 C   0  0  0  0  0  0  0  0  0  0  0  0
    6.7720   -3.9990   24.3400 C   0  0  0  0  0  0  0  0  0  0  0  0
    5.9080   -3.4630   25.4100 C   0  0  0  0  0  0  0  0  0  0  0  0
    5.0090   -2.6530   25.0920 O   0  0  0  0  0  0  0  0  0  0  0  0
    6.0090   -3.8370   26.7610 N   0  0  0  0  0  0  0  0  0  0  0  0
    5.0630   -4.7020   27.3540 C   0  0  0  0  0  0  0  0  0  0  0  0
    5.7400   -5.3940   28.5400 C   0  0  1  0  0  0  0  0  0  0  0  0
    5.1930   -6.5700   29.0060 C   0  0  0  0  0  0  0  0  0  0  0  0
    5.3900   -6.8300   30.3310 F   0  0  0  0  0  0  0  0  0  0  0  0
    6.9890   -5.6280   28.4060 O   0  0  0  0  0  0  0  0  0  0  0  0
    7.7480   -4.5780   27.9610 C   0  0  0  0  0  0  0  0  0  0  0  0
    7.0500   -3.4270   27.6230 C   0  0  2  0  0  0  0  0  0  0  0  0
    6.3290   -2.9170   28.7120 C   0  0  0  0  0  0  0  0  0  0  0  0
    6.6990   -1.6980   29.1110 N   0  0  0  0  0  0  0  0  0  0  0  0
    7.9440   -1.3000   28.9220 C   0  0  0  0  0  0  0  0  0  0  0  0
    8.5810   -0.5100   29.8140 O   0  0  0  0  0  0  0  0  0  0  0  0
    8.5240   -1.6710   27.8890 O   0  0  0  0  0  0  0  0  0  0  0  0
    7.8180   -2.4800   26.9700 C   0  0  0  0  0  0  0  0  0  0  0  0
    7.1210   -2.8450   23.4550 C   0  0  0  0  0  0  0  0  0  0  0  0
    7.7230   -3.2590   22.1410 C   0  0  0  0  0  0  0  0  0  0  0  0
  1  2  1  0
  2  3  2  0
  2  4  1  0
  4  5  1  0
  5  6  1  0
  6  7  1  0
  7  8  1  0
  8  9  2  0
  8 10  1  0
 10 11  1  0
 11 12  1  0
 12 13  1  6
 13 14  1  0
 12 15  1  0
 15 16  1  0
 17 10  1  0
 17 16  1  1
 17 18  1  0
 18 19  1  0
 19 20  1  0
 20 21  2  0
 20 22  1  0
 17 23  1  0
 22 23  1  0
  7 24  1  0
  4 25  1  0
 24 25  1  0
M  END
