piperidine-amides-31505-covalent
     RDKit          3D

 28 30  0  0  0  0  0  0  0  0999 V2000
    7.0640   -3.4170   19.3590 C   0  0  0  0  0  0  0  0  0  0  0  0
    6.3730   -4.1890   20.3600 C   0  0  0  0  0  0  0  0  0  0  0  0
    5.3490   -4.8380   19.9840 O   0  0  0  0  0  0  0  0  0  0  0  0
    6.8220   -4.2970   21.6940 N   0  0  0  0  0  0  0  0  0  0  0  0
    6.4620   -5.5190   22.4380 C   0  0  0  0  0  0  0  0  0  0  0  0
    5.4630   -4.8740   23.4730 C   0  0  0  0  0  0  0  0  0  0  0  0
    6.3570   -4.0640   24.3820 C   0  0  0  0  0  0  0  0  0  0  0  0
    5.5780   -2.9610   25.2420 C   0  0  0  0  0  0  0  0  0  0  0  0
    5.5700   -1.9000   24.6600 O   0  0  0  0  0  0  0  0  0  0  0  0
    5.1290   -3.4600   26.3290 N   0  0  0  0  0  0  0  0  0  0  0  0
    4.2840   -3.9800   27.2110 C   0  0  0  0  0  0  0  0  0  0  0  0
    4.6270   -4.8850   28.1040 C   0  0  0  0  0  0  0  0  0  0  0  0
    5.9900   -4.8630   27.8380 C   0  0  2  0  0  0  0  0  0  0  0  0
    6.7120   -5.3270   29.0070 C   0  0  0  0  0  0  0  0  0  0  0  0
    5.8450   -5.7580   30.0410 N   0  0  0  0  0  0  0  0  0  0  0  0
    5.8520   -7.1280   30.5480 C   0  0  0  0  0  0  0  0  0  0  0  0
    5.9290   -8.2960   29.7580 O   0  0  0  0  0  0  0  0  0  0  0  0
    5.7910   -7.1530   31.8900 N   0  0  0  0  0  0  0  0  0  0  0  0
    4.7010   -7.7800   32.2840 C   0  0  0  0  0  0  0  0  0  0  0  0
    4.8490   -8.2580   33.6430 C   0  0  0  0  0  0  0  0  0  0  0  0
    3.4600   -8.9430   33.8740 C   0  0  0  0  0  0  0  0  0  0  0  0
    2.1960   -9.1290   32.9790 C   0  0  0  0  0  0  0  0  0  0  0  0
    2.2450   -8.6250   31.7540 C   0  0  0  0  0  0  0  0  0  0  0  0
    1.3040   -8.6410   30.7630 C   0  0  0  0  0  0  0  0  0  0  0  0
    3.5030   -7.9590   31.4400 C   0  0  0  0  0  0  0  0  0  0  0  0
    6.2590   -3.5830   27.2450 C   0  0  0  0  0  0  0  0  0  0  0  0
    7.6240   -3.5170   23.7950 C   0  0  0  0  0  0  0  0  0  0  0  0
    7.5420   -3.2120   22.3240 C   0  0  0  0  0  0  0  0  0  0  0  0
  1  2  1  0
  2  3  2  0
  2  4  1  0
  4  5  1  0
  5  6  1  0
  6  7  1  0
  7  8  1  0
  8  9  2  0
  8 10  1  0
 10 11  1  0
 11 12  1  0
 12 13  1  0
 13 14  1  1
 14 15  1  0
 15 16  1  0
 16 17  2  0
 16 18  1  0
 18 19  1  0
 19 20  2  0
 20 21  1  0
 21 22  2  0
 22 23  1  0
 23 24  1  0
 19 25  1  0
 23 25  2  0
 10 26  1  0
 13 26  1  0
  7 27  1  0
  4 28  1  0
 27 28  1  0
M  END
