piperidine-amides-32429-covalent
     RDKit          3D

 29 31  0  0  0  0  0  0  0  0999 V2000
    7.1030   -3.3090   19.2660 C   0  0  0  0  0  0  0  0  0  0  0  0
    6.3690   -4.1350   20.2630 C   0  0  0  0  0  0  0  0  0  0  0  0
    5.3110   -4.6900   19.9310 O   0  0  0  0  0  0  0  0  0  0  0  0
    6.9300   -4.3170   21.5360 N   0  0  0  0  0  0  0  0  0  0  0  0
    6.5990   -5.4520   22.3490 C   0  0  0  0  0  0  0  0  0  0  0  0
    5.5920   -4.9350   23.3710 C   0  0  0  0  0  0  0  0  0  0  0  0
    5.7580   -3.4450   23.4370 C   0  0  0  0  0  0  0  0  0  0  0  0
    4.9890   -2.8420   24.5440 C   0  0  0  0  0  0  0  0  0  0  0  0
    3.9600   -2.2320   24.2990 O   0  0  0  0  0  0  0  0  0  0  0  0
    5.4770   -3.0350   25.7920 N   0  0  0  0  0  0  0  0  0  0  0  0
    6.2980   -4.1240   25.9700 C   0  0  0  0  0  0  0  0  0  0  0  0
    7.0880   -3.7370   26.8640 C   0  0  0  0  0  0  0  0  0  0  0  0
    7.7890   -4.6150   27.6220 C   0  0  0  0  0  0  0  0  0  0  0  0
    8.5660   -4.1430   28.5690 C   0  0  0  0  0  0  0  0  0  0  0  0
    8.6700   -2.6780   28.8100 C   0  0  0  0  0  0  0  0  0  0  0  0
    7.9560   -1.6910   28.0160 C   0  0  0  0  0  0  0  0  0  0  0  0
    7.1520   -2.3900   27.0090 C   0  0  0  0  0  0  0  0  0  0  0  0
    5.6970   -1.8550   26.6630 C   0  0  0  0  0  0  0  0  0  0  0  0
    6.1610   -2.0710   28.0890 C   0  0  0  0  0  0  0  0  0  0  0  0
    6.3350   -0.7360   28.8030 C   0  0  0  0  0  0  0  0  0  0  0  0
    6.1050    0.4790   28.2460 C   0  0  0  0  0  0  0  0  0  0  0  0
    6.3180    1.4800   29.0440 O   0  0  0  0  0  0  0  0  0  0  0  0
    5.2020    2.0420   29.6120 C   0  0  0  0  0  0  0  0  0  0  0  0
    5.6800    0.5830   26.9450 C   0  0  0  0  0  0  0  0  0  0  0  0
    5.4310    1.8690   26.3630 O   0  0  0  0  0  0  0  0  0  0  0  0
    4.5110    2.0980   25.3130 C   0  0  0  0  0  0  0  0  0  0  0  0
    5.4820   -0.5530   26.1670 C   0  0  0  0  0  0  0  0  0  0  0  0
    7.2270   -3.0440   23.4480 C   0  0  0  0  0  0  0  0  0  0  0  0
    7.6380   -3.2130   22.1630 C   0  0  0  0  0  0  0  0  0  0  0  0
  1  2  1  0
  2  3  2  0
  2  4  1  0
  4  5  1  0
  5  6  1  0
  6  7  1  0
  7  8  1  0
  8  9  2  0
  8 10  1  0
 10 11  1  0
 11 12  1  0
 12 13  2  0
 13 14  1  0
 14 15  2  0
 15 16  1  0
 12 17  1  0
 16 17  2  0
 10 18  1  0
 18 19  2  0
 19 20  1  0
 20 21  2  0
 21 22  1  0
 22 23  1  0
 21 24  1  0
 24 25  1  0
 25 26  1  0
 18 27  1  0
 24 27  2  0
  7 28  1  0
  4 29  1  0
 28 29  1  0
M  END
