piperidine-amides-26985-covalent
     RDKit          3D

 25 26  0  0  0  0  0  0  0  0999 V2000
    7.0780   -3.2800   19.2380 C   0  0  0  0  0  0  0  0  0  0  0  0
    6.3640   -4.0390   20.2760 C   0  0  0  0  0  0  0  0  0  0  0  0
    5.3070   -4.6180   19.9110 O   0  0  0  0  0  0  0  0  0  0  0  0
    6.8680   -4.1360   21.5800 N   0  0  0  0  0  0  0  0  0  0  0  0
    7.7500   -3.1190   22.1330 C   0  0  0  0  0  0  0  0  0  0  0  0
    7.5250   -2.9770   23.6180 C   0  0  0  0  0  0  0  0  0  0  0  0
    6.1960   -3.5400   24.0480 C   0  0  0  0  0  0  0  0  0  0  0  0
    5.9490   -3.2930   25.4900 C   0  0  0  0  0  0  0  0  0  0  0  0
    4.7610   -3.0820   25.8270 O   0  0  0  0  0  0  0  0  0  0  0  0
    6.9570   -3.2850   26.4910 N   0  0  0  0  0  0  0  0  0  0  0  0
    7.2360   -2.0710   27.2420 C   0  0  0  0  0  0  0  0  0  0  0  0
    6.5670   -2.1060   28.6210 C   0  0  0  0  0  0  0  0  0  0  0  0
    6.2430   -3.1690   29.2060 O   0  0  0  0  0  0  0  0  0  0  0  0
    6.3690   -0.7300   29.1390 N   0  0  0  0  0  0  0  0  0  0  0  0
    5.8360   -0.5690   30.3390 C   0  0  0  0  0  0  0  0  0  0  0  0
    6.7080    0.0130   31.2340 C   0  0  0  0  0  0  0  0  0  0  0  0
    7.1720    1.2480   30.8020 C   0  0  0  0  0  0  0  0  0  0  0  0
    6.3130    2.0130   30.0260 C   0  0  0  0  0  0  0  0  0  0  0  0
    5.5260    1.4150   29.0640 C   0  0  0  0  0  0  0  0  0  0  0  0
    6.1140    0.2620   28.2740 C   0  0  0  0  0  0  0  0  0  0  0  0
    7.6490   -4.4920   26.8540 C   0  0  0  0  0  0  0  0  0  0  0  0
    8.2020   -4.3970   28.2540 C   0  0  0  0  0  0  0  0  0  0  0  0
    6.6230   -5.6520   27.1380 C   0  0  0  0  0  0  0  0  0  0  0  0
    6.0660   -4.9850   23.7260 C   0  0  0  0  0  0  0  0  0  0  0  0
    6.5910   -5.3210   22.3470 C   0  0  0  0  0  0  0  0  0  0  0  0
  1  2  1  0
  2  3  2  0
  2  4  1  0
  4  5  1  0
  5  6  1  0
  6  7  1  0
  7  8  1  0
  8  9  2  0
  8 10  1  0
 10 11  1  0
 11 12  1  0
 12 13  2  0
 12 14  1  0
 14 15  1  0
 15 16  1  0
 16 17  1  0
 17 18  1  0
 18 19  1  0
 14 20  1  0
 19 20  1  0
 10 21  1  0
 21 22  1  0
 21 23  1  0
  7 24  1  0
  4 25  1  0
 24 25  1  0
M  END
