piperidine-amides-33031-covalent
     RDKit          3D

 29 31  0  0  0  0  0  0  0  0999 V2000
    7.0780   -3.2600   19.2330 C   0  0  0  0  0  0  0  0  0  0  0  0
    6.3000   -4.0370   20.2450 C   0  0  0  0  0  0  0  0  0  0  0  0
    5.2550   -4.6000   19.8920 O   0  0  0  0  0  0  0  0  0  0  0  0
    6.7760   -4.1520   21.5660 N   0  0  0  0  0  0  0  0  0  0  0  0
    6.5520   -5.3480   22.3410 C   0  0  0  0  0  0  0  0  0  0  0  0
    6.0920   -4.9310   23.7500 C   0  0  0  0  0  0  0  0  0  0  0  0
    5.9000   -3.4470   23.7820 C   0  0  0  0  0  0  0  0  0  0  0  0
    5.2730   -2.9600   25.0500 C   0  0  0  0  0  0  0  0  0  0  0  0
    4.1820   -3.4710   25.3280 O   0  0  0  0  0  0  0  0  0  0  0  0
    5.8650   -1.9890   25.8810 N   0  0  0  0  0  0  0  0  0  0  0  0
    6.1430   -0.6640   25.4880 C   0  0  0  0  0  0  0  0  0  0  0  0
    5.8090    0.4480   26.2280 C   0  0  0  0  0  0  0  0  0  0  0  0
    6.0660    0.4660   27.6200 C   0  0  0  0  0  0  0  0  0  0  0  0
    5.7600    1.5410   28.4210 C   0  0  0  0  0  0  0  0  0  0  0  0
    6.0710    1.4020   29.7450 F   0  0  0  0  0  0  0  0  0  0  0  0
    5.1360    2.7560   27.8700 C   0  0  0  0  0  0  0  0  0  0  0  0
    4.8130    2.8520   26.3910 C   0  0  0  0  0  0  0  0  0  0  0  0
    4.2180    4.0230   25.8740 F   0  0  0  0  0  0  0  0  0  0  0  0
    5.2290    1.5620   25.6800 C   0  0  0  0  0  0  0  0  0  0  0  0
    6.3150   -2.4830   27.1150 C   0  0  0  0  0  0  0  0  0  0  0  0
    7.3010   -3.4820   26.8530 C   0  0  0  0  0  0  0  0  0  0  0  0
    8.1800   -3.2150   25.7270 C   0  0  0  0  0  0  0  0  0  0  0  0
    9.0640   -4.1880   25.5400 N   0  0  0  0  0  0  0  0  0  0  0  0
    8.7600   -5.0680   26.5520 N   0  0  0  0  0  0  0  0  0  0  0  0
    9.5320   -6.2050   26.6700 C   0  0  0  0  0  0  0  0  0  0  0  0
    7.7510   -4.7850   27.3780 C   0  0  0  0  0  0  0  0  0  0  0  0
    7.1900   -5.5500   28.5440 C   0  0  0  0  0  0  0  0  0  0  0  0
    7.1950   -2.7110   23.5030 C   0  0  0  0  0  0  0  0  0  0  0  0
    7.5990   -3.0760   22.1240 C   0  0  0  0  0  0  0  0  0  0  0  0
  1  2  1  0
  2  3  2  0
  2  4  1  0
  4  5  1  0
  5  6  1  0
  6  7  1  0
  7  8  1  0
  8  9  2  0
  8 10  1  0
 10 11  1  0
 11 12  1  0
 12 13  2  0
 13 14  1  0
 14 15  1  0
 14 16  2  0
 16 17  1  0
 17 18  1  0
 12 19  1  0
 17 19  2  0
 10 20  1  0
 20 21  1  0
 21 22  1  0
 22 23  2  0
 23 24  1  0
 24 25  1  0
 21 26  2  0
 24 26  1  0
 26 27  1  0
  7 28  1  0
  4 29  1  0
 28 29  1  0
M  END
