piperidine-amides-7031-covalent
     RDKit          3D

 22 23  0  0  0  0  0  0  0  0999 V2000
    7.0760   -3.2900   19.2730 C   0  0  0  0  0  0  0  0  0  0  0  0
    6.3700   -4.0940   20.2800 C   0  0  0  0  0  0  0  0  0  0  0  0
    5.3500   -4.7390   19.9570 O   0  0  0  0  0  0  0  0  0  0  0  0
    6.8570   -4.1820   21.5970 N   0  0  0  0  0  0  0  0  0  0  0  0
    7.6890   -3.1110   22.1330 C   0  0  0  0  0  0  0  0  0  0  0  0
    7.4130   -2.9550   23.6370 C   0  0  0  0  0  0  0  0  0  0  0  0
    6.0480   -3.5580   23.8850 C   0  0  0  0  0  0  0  0  0  0  0  0
    5.5860   -3.2490   25.2540 C   0  0  0  0  0  0  0  0  0  0  0  0
    4.3760   -2.9970   25.4250 O   0  0  0  0  0  0  0  0  0  0  0  0
    6.5030   -3.2290   26.3250 N   0  0  0  0  0  0  0  0  0  0  0  0
    6.1610   -3.7530   27.6230 C   0  0  0  0  0  0  0  0  0  0  0  0
    5.8950   -5.2510   27.5250 C   0  0  0  0  0  0  0  0  0  0  0  0
    4.5540   -5.5320   28.0290 N   0  0  0  0  0  0  0  0  0  0  0  0
    3.6660   -4.5310   28.5900 C   0  0  0  0  0  0  0  0  0  0  0  0
    4.1730   -6.8810   28.1590 C   0  0  0  0  0  0  0  0  0  0  0  0
    3.1320   -7.0910   27.2400 C   0  0  0  0  0  0  0  0  0  0  0  0
    1.8690   -7.3350   27.7270 C   0  0  0  0  0  0  0  0  0  0  0  0
    1.6430   -7.3760   29.0470 O   0  0  0  0  0  0  0  0  0  0  0  0
    2.5750   -7.4040   30.0240 C   0  0  0  0  0  0  0  0  0  0  0  0
    3.9740   -7.2870   29.4550 C   0  0  0  0  0  0  0  0  0  0  0  0
    6.0200   -5.0080   23.6510 C   0  0  0  0  0  0  0  0  0  0  0  0
    6.6080   -5.3580   22.3660 C   0  0  0  0  0  0  0  0  0  0  0  0
  1  2  1  0
  2  3  2  0
  2  4  1  0
  4  5  1  0
  5  6  1  0
  6  7  1  0
  7  8  1  0
  8  9  2  0
  8 10  1  0
 10 11  1  0
 11 12  1  0
 12 13  1  0
 13 14  1  0
 13 15  1  0
 15 16  1  0
 16 17  1  0
 17 18  1  0
 18 19  1  0
 15 20  1  0
 19 20  1  0
  7 21  1  0
  4 22  1  0
 21 22  1  0
M  END
