piperidine-amides-34890-covalent
     RDKit          3D

 31 33  0  0  0  0  0  0  0  0999 V2000
    7.0420   -3.3410   19.3770 C   0  0  0  0  0  0  0  0  0  0  0  0
    6.3810   -4.2190   20.3780 C   0  0  0  0  0  0  0  0  0  0  0  0
    5.4010   -4.8570   19.9870 O   0  0  0  0  0  0  0  0  0  0  0  0
    6.8910   -4.3320   21.6850 N   0  0  0  0  0  0  0  0  0  0  0  0
    7.7740   -3.3410   22.2550 C   0  0  0  0  0  0  0  0  0  0  0  0
    7.1000   -2.6890   23.4210 C   0  0  0  0  0  0  0  0  0  0  0  0
    5.8970   -3.5330   23.8410 C   0  0  0  0  0  0  0  0  0  0  0  0
    5.3680   -3.1080   25.1690 C   0  0  0  0  0  0  0  0  0  0  0  0
    4.2420   -3.5040   25.4940 O   0  0  0  0  0  0  0  0  0  0  0  0
    6.0590   -2.2640   26.0810 N   0  0  0  0  0  0  0  0  0  0  0  0
    5.8480   -2.4930   27.4790 C   0  0  0  0  0  0  0  0  0  0  0  0
    7.1920   -2.8220   27.9860 C   0  0  0  0  0  0  0  0  0  0  0  0
    7.7880   -3.8200   27.3720 C   0  0  0  0  0  0  0  0  0  0  0  0
    8.2050   -3.5130   26.1270 C   0  0  0  0  0  0  0  0  0  0  0  0
    8.7970   -4.4680   25.4660 C   0  0  0  0  0  0  0  0  0  0  0  0
    9.0640   -5.8290   25.9180 C   0  0  0  0  0  0  0  0  0  0  0  0
    8.5590   -6.0400   27.2940 C   0  0  0  0  0  0  0  0  0  0  0  0
    7.8530   -5.0640   28.2050 C   0  0  0  0  0  0  0  0  0  0  0  0
    6.1720   -0.8740   25.6790 C   0  0  0  0  0  0  0  0  0  0  0  0
    5.7540    0.0820   26.6300 N   0  0  0  0  0  0  0  0  0  0  0  0
    5.8760    1.4260   26.2220 C   0  0  0  0  0  0  0  0  0  0  0  0
    5.4790    2.6070   27.0990 C   0  0  0  0  0  0  0  0  0  0  0  0
    6.1510    2.6870   28.3140 O   0  0  0  0  0  0  0  0  0  0  0  0
    4.5590    3.4770   26.7040 O   0  0  0  0  0  0  0  0  0  0  0  0
    3.2870    3.0860   26.2110 C   0  0  0  0  0  0  0  0  0  0  0  0
    3.3270    2.3080   24.9150 C   0  0  0  0  0  0  0  0  0  0  0  0
    6.4300    1.6710   24.8360 C   0  0  0  0  0  0  0  0  0  0  0  0
    6.6760    2.9840   24.1330 C   0  0  0  0  0  0  0  0  0  0  0  0
    6.6970   -0.0140   24.2920 S   0  0  0  0  0  0  0  0  0  0  0  0
    6.1680   -5.0500   23.8670 C   0  0  0  0  0  0  0  0  0  0  0  0
    6.5430   -5.5070   22.4540 C   0  0  0  0  0  0  0  0  0  0  0  0
  1  2  1  0
  2  3  2  0
  2  4  1  0
  4  5  1  0
  5  6  1  0
  6  7  1  0
  7  8  1  0
  8  9  2  0
  8 10  1  0
 10 11  1  0
 11 12  1  0
 12 13  1  0
 13 14  2  0
 14 15  1  0
 15 16  2  0
 16 17  1  0
 13 18  1  0
 17 18  2  0
 10 19  1  0
 19 20  2  0
 20 21  1  0
 21 22  1  0
 22 23  2  0
 22 24  1  0
 24 25  1  0
 25 26  1  0
 21 27  2  0
 27 28  1  0
 19 29  1  0
 27 29  1  0
  7 30  1  0
  4 31  1  0
 30 31  1  0
M  END
