piperidine-amides-9857-covalent
     RDKit          3D

 27 28  0  0  0  0  0  0  0  0999 V2000
    7.0580   -3.2830   19.2310 C   0  0  0  0  0  0  0  0  0  0  0  0
    6.3260   -4.0510   20.2490 C   0  0  0  0  0  0  0  0  0  0  0  0
    5.2510   -4.5870   19.8840 O   0  0  0  0  0  0  0  0  0  0  0  0
    6.8320   -4.1960   21.5390 N   0  0  0  0  0  0  0  0  0  0  0  0
    7.6360   -3.1680   22.1420 C   0  0  0  0  0  0  0  0  0  0  0  0
    7.3280   -3.1700   23.6020 C   0  0  0  0  0  0  0  0  0  0  0  0
    5.9160   -3.5560   23.8920 C   0  0  0  0  0  0  0  0  0  0  0  0
    5.6250   -3.3780   25.3290 C   0  0  0  0  0  0  0  0  0  0  0  0
    4.4570   -3.0800   25.6550 O   0  0  0  0  0  0  0  0  0  0  0  0
    6.5940   -3.5180   26.3470 N   0  0  0  0  0  0  0  0  0  0  0  0
    6.6790   -4.7040   27.1660 C   0  0  0  0  0  0  0  0  0  0  0  0
    5.3230   -5.1120   27.7250 C   0  0  0  0  0  0  0  0  0  0  0  0
    4.3380   -4.2440   28.1430 C   0  0  0  0  0  0  0  0  0  0  0  0
    3.1200   -4.6740   28.6400 C   0  0  0  0  0  0  0  0  0  0  0  0
    2.8660   -6.0340   28.7280 C   0  0  0  0  0  0  0  0  0  0  0  0
    1.7120   -6.6270   29.1940 O   0  0  0  0  0  0  0  0  0  0  0  0
    1.0980   -7.6680   28.4570 C   0  0  0  0  0  0  0  0  0  0  0  0
    1.0480   -7.6320   27.0810 C   0  0  0  0  0  0  0  0  0  0  0  0
    1.9580   -8.6660   26.4610 C   0  0  0  0  0  0  0  0  0  0  0  0
    1.9380   -8.2650   24.9910 C   0  0  0  0  0  0  0  0  0  0  0  0
    1.2540   -7.9980   24.1400 O   0  0  0  0  0  0  0  0  0  0  0  0
    3.4530   -8.2390   24.5890 O   0  0  0  0  0  0  0  0  0  0  0  0
    3.7830   -7.0740   23.8110 C   0  0  0  0  0  0  0  0  0  0  0  0
    3.8840   -6.8390   28.3020 C   0  0  0  0  0  0  0  0  0  0  0  0
    5.0700   -6.3410   27.8170 C   0  0  0  0  0  0  0  0  0  0  0  0
    5.7190   -5.0070   23.4820 C   0  0  0  0  0  0  0  0  0  0  0  0
    6.6380   -5.4010   22.3260 C   0  0  0  0  0  0  0  0  0  0  0  0
  1  2  1  0
  2  3  2  0
  2  4  1  0
  4  5  1  0
  5  6  1  0
  6  7  1  0
  7  8  1  0
  8  9  2  0
  8 10  1  0
 10 11  1  0
 11 12  1  0
 12 13  2  0
 13 14  1  0
 14 15  2  0
 15 16  1  0
 16 17  1  0
 17 18  1  0
 18 19  1  0
 19 20  1  0
 20 21  2  0
 20 22  1  0
 22 23  1  0
 15 24  1  0
 12 25  1  0
 24 25  2  0
  7 26  1  0
  4 27  1  0
 26 27  1  0
M  END
