piperidine-amides-423-covalent
     RDKit          3D

 27 28  0  0  0  0  0  0  0  0999 V2000
    7.1110   -3.2970   19.3830 C   0  0  0  0  0  0  0  0  0  0  0  0
    6.3920   -4.0990   20.3510 C   0  0  0  0  0  0  0  0  0  0  0  0
    5.3800   -4.7640   19.9570 O   0  0  0  0  0  0  0  0  0  0  0  0
    6.7940   -4.1900   21.7020 N   0  0  0  0  0  0  0  0  0  0  0  0
    6.7360   -5.5500   22.3070 C   0  0  0  0  0  0  0  0  0  0  0  0
    6.2060   -5.2660   23.7750 C   0  0  0  0  0  0  0  0  0  0  0  0
    6.1810   -3.7720   23.9050 C   0  0  0  0  0  0  0  0  0  0  0  0
    5.3710   -3.2590   25.1770 C   0  0  0  0  0  0  0  0  0  0  0  0
    4.4870   -2.5060   24.8070 O   0  0  0  0  0  0  0  0  0  0  0  0
    5.8270   -3.7480   26.2660 N   0  0  0  0  0  0  0  0  0  0  0  0
    6.2630   -4.1740   27.4860 C   0  0  1  0  0  0  0  0  0  0  0  0
    6.8420   -3.6320   28.6070 C   0  0  0  0  0  0  0  0  0  0  0  0
    6.7560   -2.1970   28.6700 C   0  0  0  0  0  0  0  0  0  0  0  0
    7.8630   -1.4540   29.3120 C   0  0  0  0  0  0  0  0  0  0  0  0
    6.6290   -1.7430   27.2470 C   0  0  0  0  0  0  0  0  0  0  0  0
    5.1750   -4.9790   28.1690 C   0  0  0  0  0  0  0  0  0  0  0  0
    4.6610   -5.8660   27.4540 O   0  0  0  0  0  0  0  0  0  0  0  0
    4.7530   -4.7580   29.4960 N   0  0  0  0  0  0  0  0  0  0  0  0
    3.9940   -3.6020   29.9260 C   0  0  0  0  0  0  0  0  0  0  0  0
    3.1360   -4.1510   31.0410 C   0  0  0  0  0  0  0  0  0  0  0  0
    3.4490   -5.6800   31.1470 C   0  0  1  0  0  0  0  0  0  0  0  0
    2.4000   -6.4710   31.0140 N   0  0  0  0  0  0  0  0  0  0  0  0
    1.7220   -6.5590   29.7450 C   0  0  0  0  0  0  0  0  0  0  0  0
    1.5940   -6.6860   32.0780 C   0  0  0  0  0  0  0  0  0  0  0  0
    4.4990   -6.0260   30.0990 C   0  0  0  0  0  0  0  0  0  0  0  0
    7.4370   -3.0430   23.5880 C   0  0  0  0  0  0  0  0  0  0  0  0
    7.7210   -3.2200   22.2390 C   0  0  0  0  0  0  0  0  0  0  0  0
  1  2  1  0
  2  3  2  0
  2  4  1  0
  4  5  1  0
  5  6  1  0
  6  7  1  0
  7  8  1  0
  8  9  2  0
  8 10  1  0
 10 11  1  0
 11 12  1  1
 12 13  1  0
 13 14  1  0
 13 15  1  0
 11 16  1  0
 16 17  2  0
 16 18  1  0
 18 19  1  0
 19 20  1  0
 20 21  1  0
 21 22  1  6
 22 23  1  0
 22 24  1  0
 18 25  1  0
 21 25  1  0
  7 26  1  0
  4 27  1  0
 26 27  1  0
M  END
