piperidine-amides-32730-covalent
     RDKit          3D

 28 29  0  0  0  0  0  0  0  0999 V2000
    7.1240   -3.2770   19.2030 C   0  0  0  0  0  0  0  0  0  0  0  0
    6.3700   -4.0560   20.2200 C   0  0  0  0  0  0  0  0  0  0  0  0
    5.2890   -4.5750   19.8950 O   0  0  0  0  0  0  0  0  0  0  0  0
    6.9270   -4.2330   21.5000 N   0  0  0  0  0  0  0  0  0  0  0  0
    7.7340   -3.2130   22.1280 C   0  0  0  0  0  0  0  0  0  0  0  0
    6.8710   -2.6230   23.2320 C   0  0  0  0  0  0  0  0  0  0  0  0
    6.5340   -3.7390   24.1610 C   0  0  0  0  0  0  0  0  0  0  0  0
    5.7550   -3.2460   25.3090 C   0  0  0  0  0  0  0  0  0  0  0  0
    4.6710   -2.7210   25.0450 O   0  0  0  0  0  0  0  0  0  0  0  0
    6.2530   -3.4000   26.5930 N   0  0  0  0  0  0  0  0  0  0  0  0
    6.5930   -4.7080   27.0710 C   0  0  0  0  0  0  0  0  0  0  0  0
    6.9080   -5.0580   28.3510 C   0  0  0  0  0  0  0  0  0  0  0  0
    5.6760   -5.5800   28.9220 O   0  0  0  0  0  0  0  0  0  0  0  0
    5.6240   -6.9600   28.9700 C   0  0  0  0  0  0  0  0  0  0  0  0
    6.4440   -2.3230   27.4890 C   0  0  1  0  0  0  0  0  0  0  0  0
    6.9640   -0.9900   27.0640 C   0  0  0  0  0  0  0  0  0  0  0  0
    5.2780   -2.0570   28.1910 C   0  0  0  0  0  0  0  0  0  0  0  0
    4.9450   -2.7820   29.4920 C   0  0  0  0  0  0  0  0  0  0  0  0
    3.7940   -2.5560   30.2440 C   0  0  0  0  0  0  0  0  0  0  0  0
    2.6780   -1.5900   29.9450 C   0  0  0  0  0  0  0  0  0  0  0  0
    3.0870   -0.9180   28.6470 C   0  0  0  0  0  0  0  0  0  0  0  0
    2.6480    0.0310   27.7520 C   0  0  0  0  0  0  0  0  0  0  0  0
    1.4860    0.6610   28.0330 F   0  0  0  0  0  0  0  0  0  0  0  0
    2.4120   -0.4290   26.5200 F   0  0  0  0  0  0  0  0  0  0  0  0
    3.5680    1.0650   27.6770 F   0  0  0  0  0  0  0  0  0  0  0  0
    4.2570   -1.0730   27.7810 C   0  0  0  0  0  0  0  0  0  0  0  0
    5.8240   -4.8960   23.5210 C   0  0  0  0  0  0  0  0  0  0  0  0
    6.5950   -5.3870   22.2980 C   0  0  0  0  0  0  0  0  0  0  0  0
  1  2  1  0
  2  3  2  0
  2  4  1  0
  4  5  1  0
  5  6  1  0
  6  7  1  0
  7  8  1  0
  8  9  2  0
  8 10  1  0
 10 11  1  0
 11 12  1  0
 12 13  1  0
 13 14  1  0
 10 15  1  0
 15 16  1  6
 15 17  1  0
 17 18  2  0
 18 19  1  0
 19 20  2  0
 20 21  1  0
 21 22  1  0
 22 23  1  0
 22 24  1  0
 22 25  1  0
 17 26  1  0
 21 26  2  0
  7 27  1  0
  4 28  1  0
 27 28  1  0
M  END
