piperidine-amides-14384-covalent
     RDKit          3D

 23 25  0  0  0  0  0  0  0  0999 V2000
    7.0990   -3.2750   19.2430 C   0  0  0  0  0  0  0  0  0  0  0  0
    6.3800   -4.0660   20.2430 C   0  0  0  0  0  0  0  0  0  0  0  0
    5.3140   -4.6070   19.9080 O   0  0  0  0  0  0  0  0  0  0  0  0
    6.9230   -4.2420   21.5410 N   0  0  0  0  0  0  0  0  0  0  0  0
    7.7230   -3.2020   22.1220 C   0  0  0  0  0  0  0  0  0  0  0  0
    7.0090   -2.6440   23.3040 C   0  0  0  0  0  0  0  0  0  0  0  0
    6.5880   -3.8320   24.1300 C   0  0  0  0  0  0  0  0  0  0  0  0
    5.8050   -3.3480   25.3120 C   0  0  0  0  0  0  0  0  0  0  0  0
    4.5990   -3.5850   25.3230 O   0  0  0  0  0  0  0  0  0  0  0  0
    6.5050   -2.6630   26.3020 N   0  0  0  0  0  0  0  0  0  0  0  0
    5.9290   -1.5840   27.0370 C   0  0  0  0  0  0  0  0  0  0  0  0
    5.7570   -0.3140   26.4670 C   0  0  0  0  0  0  0  0  0  0  0  0
    6.0760   -0.3490   25.0410 N   0  0  0  0  0  0  0  0  0  0  0  0
    6.0430    0.6830   24.0920 C   0  0  0  0  0  0  0  0  0  0  0  0
    5.6620    1.9620   24.4720 C   0  0  0  0  0  0  0  0  0  0  0  0
    5.3150    2.0760   25.9350 C   0  0  0  0  0  0  0  0  0  0  0  0
    5.3560    0.9210   26.9760 C   0  0  0  0  0  0  0  0  0  0  0  0
    5.0320    1.0420   28.3100 F   0  0  0  0  0  0  0  0  0  0  0  0
    4.8850   -1.9080   27.8750 C   0  0  0  0  0  0  0  0  0  0  0  0
    5.0210   -1.9610   29.2790 C   0  0  0  0  0  0  0  0  0  0  0  0
    6.3670   -1.5820   28.5470 C   0  0  0  0  0  0  0  0  0  0  0  0
    5.6850   -4.7430   23.3200 C   0  0  0  0  0  0  0  0  0  0  0  0
    6.4930   -5.3370   22.3730 C   0  0  0  0  0  0  0  0  0  0  0  0
  1  2  1  0
  2  3  2  0
  2  4  1  0
  4  5  1  0
  5  6  1  0
  6  7  1  0
  7  8  1  0
  8  9  2  0
  8 10  1  0
 11 10  1  0
 11 12  1  0
 12 13  2  0
 13 14  1  0
 14 15  2  0
 15 16  1  0
 12 17  1  0
 16 17  2  0
 17 18  1  0
 11 19  1  0
 19 20  1  0
 11 21  1  0
 20 21  1  0
  7 22  1  0
  4 23  1  0
 22 23  1  0
M  END
