piperidine-amides-8808-covalent
     RDKit          3D

 23 24  0  0  0  0  0  0  0  0999 V2000
    7.0640   -3.2710   19.2480 C   0  0  0  0  0  0  0  0  0  0  0  0
    6.2840   -4.0910   20.1760 C   0  0  0  0  0  0  0  0  0  0  0  0
    5.1650   -4.4730   19.8200 O   0  0  0  0  0  0  0  0  0  0  0  0
    6.8120   -4.4840   21.4220 N   0  0  0  0  0  0  0  0  0  0  0  0
    7.4060   -3.4810   22.2390 C   0  0  0  0  0  0  0  0  0  0  0  0
    6.3460   -2.8920   23.1110 C   0  0  0  0  0  0  0  0  0  0  0  0
    5.6760   -4.0640   23.7820 C   0  0  0  0  0  0  0  0  0  0  0  0
    5.8250   -3.9570   25.2660 C   0  0  0  0  0  0  0  0  0  0  0  0
    4.9730   -3.2890   25.8550 O   0  0  0  0  0  0  0  0  0  0  0  0
    6.9120   -4.6300   25.8380 N   0  0  0  0  0  0  0  0  0  0  0  0
    7.0440   -4.9050   27.2290 C   0  0  0  0  0  0  0  0  0  0  0  0
    7.3300   -3.7690   27.9800 C   0  0  0  0  0  0  0  0  0  0  0  0
    7.0100   -2.6560   27.4960 O   0  0  0  0  0  0  0  0  0  0  0  0
    7.4540   -2.3000   26.2570 C   0  0  0  0  0  0  0  0  0  0  0  0
    7.1230   -1.2230   25.4480 C   0  0  0  0  0  0  0  0  0  0  0  0
    7.8570   -1.1560   24.1450 C   0  0  0  0  0  0  0  0  0  0  0  0
    8.8840   -2.2360   23.7750 C   0  0  0  0  0  0  0  0  0  0  0  0
    9.6460   -2.2060   22.4970 C   0  0  0  0  0  0  0  0  0  0  0  0
   10.9220   -1.5580   22.4080 N   0  0  0  0  0  0  0  0  0  0  0  0
    9.0900   -3.3440   24.7740 C   0  0  0  0  0  0  0  0  0  0  0  0
    8.3550   -3.2380   25.8890 N   0  0  0  0  0  0  0  0  0  0  0  0
    6.1640   -5.4090   23.4330 C   0  0  0  0  0  0  0  0  0  0  0  0
    6.3140   -5.6630   22.0890 C   0  0  0  0  0  0  0  0  0  0  0  0
  1  2  1  0
  2  3  2  0
  2  4  1  0
  4  5  1  0
  5  6  1  0
  6  7  1  0
  7  8  1  0
  8  9  2  0
  8 10  1  0
 10 11  1  0
 11 12  1  0
 12 13  1  0
 13 14  1  0
 14 15  2  0
 15 16  1  0
 16 17  2  0
 17 18  1  0
 18 19  3  0
 17 20  1  0
 14 21  1  0
 20 21  2  0
  7 22  1  0
  4 23  1  0
 22 23  1  0
M  END
