piperidine-amides-17023-covalent
     RDKit          3D

 20 21  0  0  0  0  0  0  0  0999 V2000
    7.1600   -3.3090   19.2100 C   0  0  0  0  0  0  0  0  0  0  0  0
    6.4550   -4.0900   20.2310 C   0  0  0  0  0  0  0  0  0  0  0  0
    5.3440   -4.5820   19.9070 O   0  0  0  0  0  0  0  0  0  0  0  0
    7.0400   -4.3440   21.4880 N   0  0  0  0  0  0  0  0  0  0  0  0
    6.3730   -5.3080   22.2510 C   0  0  0  0  0  0  0  0  0  0  0  0
    5.4380   -4.6640   23.1460 C   0  0  0  0  0  0  0  0  0  0  0  0
    6.0580   -3.6810   24.0570 C   0  0  0  0  0  0  0  0  0  0  0  0
    5.8590   -4.2910   25.3920 C   0  0  0  0  0  0  0  0  0  0  0  0
    5.7650   -5.5100   25.4180 O   0  0  0  0  0  0  0  0  0  0  0  0
    5.6930   -3.6510   26.6080 N   0  0  0  0  0  0  0  0  0  0  0  0
    5.0330   -4.2550   27.6680 C   0  0  0  0  0  0  0  0  0  0  0  0
    5.3980   -3.8710   28.9900 C   0  0  0  0  0  0  0  0  0  0  0  0
    5.5560   -2.5900   29.3260 N   0  0  0  0  0  0  0  0  0  0  0  0
    4.6620   -1.5090   29.0020 C   0  0  0  0  0  0  0  0  0  0  0  0
    6.7020   -2.5850   28.4520 C   0  0  2  0  0  0  0  0  0  0  0  0
    7.1260   -1.1160   28.3440 C   0  0  0  0  0  0  0  0  0  0  0  0
    7.6930   -1.1530   29.7190 C   0  0  0  0  0  0  0  0  0  0  0  0
    6.4510   -2.5200   26.9760 C   0  0  0  0  0  0  0  0  0  0  0  0
    7.5050   -3.3570   23.7260 C   0  0  0  0  0  0  0  0  0  0  0  0
    7.6510   -3.2420   22.2120 C   0  0  0  0  0  0  0  0  0  0  0  0
  1  2  1  0
  2  3  2  0
  2  4  1  0
  4  5  1  0
  5  6  1  0
  6  7  1  0
  7  8  1  0
  8  9  2  0
  8 10  1  0
 10 11  1  0
 11 12  1  0
 12 13  1  0
 13 14  1  0
 13 15  1  0
 15 16  1  1
 16 17  1  0
 10 18  1  0
 15 18  1  0
  7 19  1  0
  4 20  1  0
 19 20  1  0
M  END
