piperidine-amides-25772-covalent
     RDKit          3D

 25 27  0  0  0  0  0  0  0  0999 V2000
    7.0510   -3.3150   19.3200 C   0  0  0  0  0  0  0  0  0  0  0  0
    6.3770   -4.1690   20.3330 C   0  0  0  0  0  0  0  0  0  0  0  0
    5.3770   -4.7850   19.9630 O   0  0  0  0  0  0  0  0  0  0  0  0
    6.8920   -4.2910   21.6290 N   0  0  0  0  0  0  0  0  0  0  0  0
    6.6160   -5.4480   22.4310 C   0  0  0  0  0  0  0  0  0  0  0  0
    5.9650   -4.9860   23.7040 C   0  0  0  0  0  0  0  0  0  0  0  0
    6.8390   -3.9050   24.3670 C   0  0  0  0  0  0  0  0  0  0  0  0
    6.1130   -3.3660   25.5620 C   0  0  0  0  0  0  0  0  0  0  0  0
    4.8890   -3.1750   25.4510 O   0  0  0  0  0  0  0  0  0  0  0  0
    6.7360   -3.0520   26.8170 N   0  0  0  0  0  0  0  0  0  0  0  0
    5.8760   -2.3670   27.7940 C   0  0  0  0  0  0  0  0  0  0  0  0
    5.2540   -3.3230   28.8290 C   0  0  0  0  0  0  0  0  0  0  0  0
    5.6760   -4.5920   29.0390 C   0  0  0  0  0  0  0  0  0  0  0  0
    4.9050   -5.3280   29.8700 C   0  0  0  0  0  0  0  0  0  0  0  0
    5.2750   -6.5710   30.0890 C   0  0  0  0  0  0  0  0  0  0  0  0
    4.5580   -7.3920   30.9130 O   0  0  0  0  0  0  0  0  0  0  0  0
    6.4460   -7.2150   29.5130 C   0  0  0  0  0  0  0  0  0  0  0  0
    7.2480   -6.3040   28.6010 C   0  0  0  0  0  0  0  0  0  0  0  0
    6.9130   -4.8510   28.2690 C   0  0  0  0  0  0  0  0  0  0  0  0
    7.6880   -4.0020   27.3730 C   0  0  1  0  0  0  0  0  0  0  0  0
    8.4020   -4.7580   26.3260 C   0  0  0  0  0  0  0  0  0  0  0  0
    9.4140   -5.8180   26.7140 C   0  0  0  0  0  0  0  0  0  0  0  0
    7.2940   -5.6230   25.8190 C   0  0  0  0  0  0  0  0  0  0  0  0
    7.0740   -2.7690   23.3790 C   0  0  0  0  0  0  0  0  0  0  0  0
    7.7060   -3.2450   22.2450 C   0  0  0  0  0  0  0  0  0  0  0  0
  1  2  1  0
  2  3  2  0
  2  4  1  0
  4  5  1  0
  5  6  1  0
  6  7  1  0
  7  8  1  0
  8  9  2  0
  8 10  1  0
 10 11  1  0
 11 12  1  0
 12 13  1  0
 13 14  2  0
 14 15  1  0
 15 16  1  0
 15 17  2  0
 17 18  1  0
 13 19  1  0
 18 19  2  0
 10 20  1  0
 19 20  1  0
 20 21  1  6
 21 22  1  0
 21 23  1  0
  7 24  1  0
  4 25  1  0
 24 25  1  0
M  END
