piperidine-amides-3064-covalent
     RDKit          3D

 23 24  0  0  0  0  0  0  0  0999 V2000
    7.1230   -3.2750   19.2710 C   0  0  0  0  0  0  0  0  0  0  0  0
    6.3670   -4.0470   20.2540 C   0  0  0  0  0  0  0  0  0  0  0  0
    5.3310   -4.6210   19.9190 O   0  0  0  0  0  0  0  0  0  0  0  0
    6.8590   -4.1700   21.6000 N   0  0  0  0  0  0  0  0  0  0  0  0
    7.7740   -3.1710   22.1110 C   0  0  0  0  0  0  0  0  0  0  0  0
    7.4720   -2.9140   23.5480 C   0  0  0  0  0  0  0  0  0  0  0  0
    6.1400   -3.5760   23.7960 C   0  0  0  0  0  0  0  0  0  0  0  0
    5.6270   -3.1600   25.1220 C   0  0  0  0  0  0  0  0  0  0  0  0
    4.4260   -2.9030   25.3150 O   0  0  0  0  0  0  0  0  0  0  0  0
    6.5320   -3.0530   26.1910 N   0  0  0  0  0  0  0  0  0  0  0  0
    6.1690   -3.7490   27.3940 C   0  0  0  0  0  0  0  0  0  0  0  0
    6.0400   -2.7330   28.4790 C   0  0  0  0  0  0  0  0  0  0  0  0
    7.0900   -1.8420   28.5810 O   0  0  0  0  0  0  0  0  0  0  0  0
    5.0290   -2.5550   29.3500 N   0  0  0  0  0  0  0  0  0  0  0  0
    4.1470   -3.5680   29.2140 C   0  0  0  0  0  0  0  0  0  0  0  0
    4.4760   -4.9300   29.1720 C   0  0  0  0  0  0  0  0  0  0  0  0
    5.8050   -5.3580   29.1980 C   0  0  0  0  0  0  0  0  0  0  0  0
    6.0820   -6.7770   29.1500 C   0  0  0  0  0  0  0  0  0  0  0  0
    5.1030   -7.7130   29.0840 C   0  0  0  0  0  0  0  0  0  0  0  0
    3.8150   -7.2670   29.0610 C   0  0  0  0  0  0  0  0  0  0  0  0
    3.5010   -5.9140   29.1030 C   0  0  0  0  0  0  0  0  0  0  0  0
    6.1000   -5.0140   23.6090 C   0  0  0  0  0  0  0  0  0  0  0  0
    6.6480   -5.3710   22.3790 C   0  0  0  0  0  0  0  0  0  0  0  0
  1  2  1  0
  2  3  2  0
  2  4  1  0
  4  5  1  0
  5  6  1  0
  6  7  1  0
  7  8  1  0
  8  9  2  0
  8 10  1  0
 10 11  1  0
 11 12  1  0
 12 13  2  0
 12 14  1  0
 14 15  1  0
 15 16  1  0
 16 17  2  0
 17 18  1  0
 18 19  2  0
 19 20  1  0
 16 21  1  0
 20 21  2  0
  7 22  1  0
  4 23  1  0
 22 23  1  0
M  END
