piperidine-amides-24782-covalent
     RDKit          3D

 24 26  0  0  0  0  0  0  0  0999 V2000
    7.0600   -3.3320   19.3850 C   0  0  0  0  0  0  0  0  0  0  0  0
    6.3970   -4.2170   20.3520 C   0  0  0  0  0  0  0  0  0  0  0  0
    5.3950   -4.8800   19.9910 O   0  0  0  0  0  0  0  0  0  0  0  0
    6.8980   -4.3710   21.6550 N   0  0  0  0  0  0  0  0  0  0  0  0
    6.6350   -5.5830   22.3790 C   0  0  0  0  0  0  0  0  0  0  0  0
    5.8230   -5.1600   23.6040 C   0  0  0  0  0  0  0  0  0  0  0  0
    6.6140   -4.0790   24.3150 C   0  0  0  0  0  0  0  0  0  0  0  0
    5.8610   -3.6940   25.5590 C   0  0  0  0  0  0  0  0  0  0  0  0
    4.6470   -3.4620   25.3650 O   0  0  0  0  0  0  0  0  0  0  0  0
    6.3760   -3.5380   26.9120 N   0  0  0  0  0  0  0  0  0  0  0  0
    5.7840   -2.3950   27.5100 C   0  0  0  0  0  0  0  0  0  0  0  0
    4.4890   -2.8270   28.2590 C   0  0  2  0  0  0  0  0  0  0  0  0
    4.5650   -3.2430   29.5600 C   0  0  0  0  0  0  0  0  0  0  0  0
    3.9550   -2.3890   30.4470 C   0  0  0  0  0  0  0  0  0  0  0  0
    2.6300   -2.5260   30.8290 O   0  0  0  0  0  0  0  0  0  0  0  0
    4.7080   -1.3780   30.9620 O   0  0  0  0  0  0  0  0  0  0  0  0
    4.3550   -0.8810   32.1950 C   0  0  0  0  0  0  0  0  0  0  0  0
    3.8380   -3.9120   27.5920 O   0  0  0  0  0  0  0  0  0  0  0  0
    4.7010   -5.0060   27.5470 C   0  0  0  0  0  0  0  0  0  0  0  0
    6.0530   -4.5590   27.9090 C   0  0  0  0  0  0  0  0  0  0  0  0
    6.2180   -5.8480   27.5740 C   0  0  0  0  0  0  0  0  0  0  0  0
    6.9460   -5.2840   28.8760 C   0  0  0  0  0  0  0  0  0  0  0  0
    6.7930   -2.8830   23.4020 C   0  0  0  0  0  0  0  0  0  0  0  0
    7.6130   -3.3140   22.3440 C   0  0  0  0  0  0  0  0  0  0  0  0
  1  2  1  0
  2  3  2  0
  2  4  1  0
  4  5  1  0
  5  6  1  0
  6  7  1  0
  7  8  1  0
  8  9  2  0
  8 10  1  0
 10 11  1  0
 11 12  1  0
 12 13  1  1
 13 14  1  0
 14 15  2  0
 14 16  1  0
 16 17  1  0
 12 18  1  0
 18 19  1  0
 20 10  1  0
 19 20  1  0
 20 21  1  0
 20 22  1  0
 21 22  1  0
  7 23  1  0
  4 24  1  0
 23 24  1  0
M  END
