piperidine-amides-33535-covalent
     RDKit          3D

 29 31  0  0  0  0  0  0  0  0999 V2000
    7.0620   -3.3840   19.3590 C   0  0  0  0  0  0  0  0  0  0  0  0
    6.3710   -4.1960   20.3690 C   0  0  0  0  0  0  0  0  0  0  0  0
    5.3580   -4.8240   19.9820 O   0  0  0  0  0  0  0  0  0  0  0  0
    6.8730   -4.2980   21.7000 N   0  0  0  0  0  0  0  0  0  0  0  0
    6.4620   -5.3820   22.5240 C   0  0  0  0  0  0  0  0  0  0  0  0
    6.2370   -5.0520   23.9430 C   0  0  0  0  0  0  0  0  0  0  0  0
    6.5360   -3.6650   24.4180 C   0  0  0  0  0  0  0  0  0  0  0  0
    5.4050   -3.1400   25.2740 C   0  0  0  0  0  0  0  0  0  0  0  0
    4.4560   -2.5970   24.6960 O   0  0  0  0  0  0  0  0  0  0  0  0
    5.3240   -3.2220   26.6990 N   0  0  0  0  0  0  0  0  0  0  0  0
    6.3490   -3.3540   27.6320 C   0  0  1  0  0  0  0  0  0  0  0  0
    6.4590   -2.5280   28.8310 C   0  0  0  0  0  0  0  0  0  0  0  0
    6.1670   -4.7480   28.1140 C   0  0  0  0  0  0  0  0  0  0  0  0
    5.0620   -5.6680   28.1310 N   0  0  0  0  0  0  0  0  0  0  0  0
    4.7790   -6.3150   29.3840 C   0  0  0  0  0  0  0  0  0  0  0  0
    3.2700   -6.5480   29.5660 C   0  0  0  0  0  0  0  0  0  0  0  0
    2.8740   -7.2250   30.8740 C   0  0  0  0  0  0  0  0  0  0  0  0
    3.9920   -7.6100   31.8870 C   0  0  0  0  0  0  0  0  0  0  0  0
    3.6390   -8.2730   33.2000 C   0  0  0  0  0  0  0  0  0  0  0  0
    2.6240   -9.1810   32.9950 F   0  0  0  0  0  0  0  0  0  0  0  0
    4.7890   -8.9300   33.6550 F   0  0  0  0  0  0  0  0  0  0  0  0
    3.2420   -7.3330   34.1330 F   0  0  0  0  0  0  0  0  0  0  0  0
    5.4800   -7.3880   31.7080 C   0  0  0  0  0  0  0  0  0  0  0  0
    5.8010   -6.7190   30.3950 C   0  0  0  0  0  0  0  0  0  0  0  0
    4.0580   -4.9640   27.6410 C   0  0  0  0  0  0  0  0  0  0  0  0
    4.1170   -3.5720   27.4160 C   0  0  2  0  0  0  0  0  0  0  0  0
    2.9950   -3.1420   26.7370 C   0  0  0  0  0  0  0  0  0  0  0  0
    6.8060   -2.6960   23.3120 C   0  0  0  0  0  0  0  0  0  0  0  0
    7.6110   -3.2340   22.3200 C   0  0  0  0  0  0  0  0  0  0  0  0
  1  2  1  0
  2  3  2  0
  2  4  1  0
  4  5  1  0
  5  6  1  0
  6  7  1  0
  7  8  1  0
  8  9  2  0
  8 10  1  0
 10 11  1  0
 11 12  1  1
 11 13  1  0
 13 14  1  0
 14 15  1  0
 15 16  2  0
 16 17  1  0
 17 18  2  0
 18 19  1  0
 19 20  1  0
 19 21  1  0
 19 22  1  0
 18 23  1  0
 15 24  1  0
 23 24  2  0
 14 25  1  0
 10 26  1  0
 25 26  1  0
 26 27  1  6
  7 28  1  0
  4 29  1  0
 28 29  1  0
M  END
