piperidine-amides-6824-covalent
     RDKit          3D

 23 25  0  0  0  0  0  0  0  0999 V2000
    7.0210   -3.3340   19.3460 C   0  0  0  0  0  0  0  0  0  0  0  0
    6.3690   -4.1790   20.3620 C   0  0  0  0  0  0  0  0  0  0  0  0
    5.4330   -4.9350   20.0090 O   0  0  0  0  0  0  0  0  0  0  0  0
    6.7950   -4.1760   21.7080 N   0  0  0  0  0  0  0  0  0  0  0  0
    7.7040   -3.1310   22.1620 C   0  0  0  0  0  0  0  0  0  0  0  0
    7.5490   -3.0210   23.6760 C   0  0  0  0  0  0  0  0  0  0  0  0
    6.1390   -3.4690   23.9260 C   0  0  0  0  0  0  0  0  0  0  0  0
    5.5880   -3.0060   25.2300 C   0  0  0  0  0  0  0  0  0  0  0  0
    4.3750   -2.7170   25.2540 O   0  0  0  0  0  0  0  0  0  0  0  0
    6.3890   -2.9080   26.4060 N   0  0  0  0  0  0  0  0  0  0  0  0
    6.7300   -1.6500   27.0500 C   0  0  1  0  0  0  0  0  0  0  0  0
    5.8140   -0.5090   26.6940 C   0  0  0  0  0  0  0  0  0  0  0  0
    6.0010    0.6140   27.4500 C   0  0  0  0  0  0  0  0  0  0  0  0
    6.7780    0.5180   28.4670 O   0  0  0  0  0  0  0  0  0  0  0  0
    6.6950   -0.6220   29.2140 C   0  0  0  0  0  0  0  0  0  0  0  0
    6.7150   -1.8620   28.5520 C   0  0  1  0  0  0  0  0  0  0  0  0
    5.6530   -2.5650   29.0080 N   0  0  0  0  0  0  0  0  0  0  0  0
    4.4230   -2.0670   29.4980 C   0  0  0  0  0  0  0  0  0  0  0  0
    3.1700   -2.8920   29.1300 C   0  0  0  0  0  0  0  0  0  0  0  0
    4.1750   -3.9740   29.5910 C   0  0  0  0  0  0  0  0  0  0  0  0
    5.5310   -3.9780   28.9580 C   0  0  0  0  0  0  0  0  0  0  0  0
    6.0460   -4.9730   23.7740 C   0  0  0  0  0  0  0  0  0  0  0  0
    6.6240   -5.3550   22.5400 C   0  0  0  0  0  0  0  0  0  0  0  0
  1  2  1  0
  2  3  2  0
  2  4  1  0
  4  5  1  0
  5  6  1  0
  6  7  1  0
  7  8  1  0
  8  9  2  0
  8 10  1  0
 11 10  1  6
 11 12  1  0
 12 13  1  0
 13 14  1  0
 14 15  1  0
 11 16  1  0
 15 16  1  0
 16 17  1  6
 17 18  1  0
 18 19  1  0
 19 20  1  0
 17 21  1  0
 20 21  1  0
  7 22  1  0
  4 23  1  0
 22 23  1  0
M  END
