piperidine-amides-31297-covalent
     RDKit          3D

 28 31  0  0  0  0  0  0  0  0999 V2000
    7.0280   -3.4390   19.4520 C   0  0  0  0  0  0  0  0  0  0  0  0
    6.3690   -4.2310   20.4660 C   0  0  0  0  0  0  0  0  0  0  0  0
    5.4490   -5.0030   20.0390 O   0  0  0  0  0  0  0  0  0  0  0  0
    6.7210   -4.2090   21.8540 N   0  0  0  0  0  0  0  0  0  0  0  0
    6.6090   -5.5100   22.5850 C   0  0  0  0  0  0  0  0  0  0  0  0
    5.9490   -5.1220   23.9890 C   0  0  0  0  0  0  0  0  0  0  0  0
    6.1660   -3.6330   24.1260 C   0  0  0  0  0  0  0  0  0  0  0  0
    5.2220   -2.7920   25.1520 C   0  0  0  0  0  0  0  0  0  0  0  0
    4.4930   -2.1370   24.4410 O   0  0  0  0  0  0  0  0  0  0  0  0
    5.3340   -2.9120   26.4460 N   0  0  0  0  0  0  0  0  0  0  0  0
    5.0420   -2.7300   27.7340 C   0  0  0  0  0  0  0  0  0  0  0  0
    4.5310   -3.6130   28.6020 C   0  0  0  0  0  0  0  0  0  0  0  0
    4.4080   -4.7860   27.7310 N   0  0  0  0  0  0  0  0  0  0  0  0
    4.0710   -5.9380   28.2930 C   0  0  0  0  0  0  0  0  0  0  0  0
    2.9030   -6.7150   28.2420 O   0  0  0  0  0  0  0  0  0  0  0  0
    5.0550   -6.4020   29.0330 N   0  0  0  0  0  0  0  0  0  0  0  0
    4.9860   -6.5780   30.3590 C   0  0  0  0  0  0  0  0  0  0  0  0
    5.8530   -7.6780   30.8430 C   0  0  0  0  0  0  0  0  0  0  0  0
    5.6990   -7.8130   32.2780 C   0  0  0  0  0  0  0  0  0  0  0  0
    4.9530   -7.1870   33.3810 C   0  0  0  0  0  0  0  0  0  0  0  0
    4.1530   -6.1000   32.6230 C   0  0  0  0  0  0  0  0  0  0  0  0
    4.1350   -5.7620   31.1350 C   0  0  0  0  0  0  0  0  0  0  0  0
    6.1720   -5.5910   28.5920 C   0  0  0  0  0  0  0  0  0  0  0  0
    7.3560   -5.3640   29.2030 O   0  0  0  0  0  0  0  0  0  0  0  0
    5.7590   -5.0660   27.3710 C   0  0  2  0  0  0  0  0  0  0  0  0
    6.2450   -3.9700   26.6780 C   0  0  0  0  0  0  0  0  0  0  0  0
    7.5100   -3.1210   23.7680 C   0  0  0  0  0  0  0  0  0  0  0  0
    7.6420   -3.2030   22.3730 C   0  0  0  0  0  0  0  0  0  0  0  0
  1  2  1  0
  2  3  2  0
  2  4  1  0
  4  5  1  0
  5  6  1  0
  6  7  1  0
  7  8  1  0
  8  9  2  0
  8 10  1  0
 10 11  1  0
 11 12  1  0
 12 13  1  0
 13 14  1  0
 14 15  2  0
 14 16  1  0
 16 17  1  0
 17 18  2  0
 18 19  1  0
 19 20  2  0
 20 21  1  0
 17 22  1  0
 21 22  2  0
 16 23  1  0
 23 24  2  0
 13 25  1  0
 23 25  1  0
 10 26  1  0
 25 26  1  1
  7 27  1  0
  4 28  1  0
 27 28  1  0
M  END
