piperidine-amides-28844-covalent
     RDKit          3D

 26 28  0  0  0  0  0  0  0  0999 V2000
    6.9550   -3.3710   19.4240 C   0  0  0  0  0  0  0  0  0  0  0  0
    6.3340   -4.2550   20.4180 C   0  0  0  0  0  0  0  0  0  0  0  0
    5.4210   -4.9990   20.0100 O   0  0  0  0  0  0  0  0  0  0  0  0
    6.7650   -4.2840   21.7840 N   0  0  0  0  0  0  0  0  0  0  0  0
    6.5370   -5.4800   22.5540 C   0  0  0  0  0  0  0  0  0  0  0  0
    6.0470   -5.1660   23.9580 C   0  0  0  0  0  0  0  0  0  0  0  0
    5.8980   -3.6600   24.0780 C   0  0  0  0  0  0  0  0  0  0  0  0
    5.1630   -3.1230   25.3220 C   0  0  0  0  0  0  0  0  0  0  0  0
    4.5920   -2.0670   25.1140 O   0  0  0  0  0  0  0  0  0  0  0  0
    5.1170   -3.7550   26.5890 N   0  0  0  0  0  0  0  0  0  0  0  0
    4.5950   -3.0760   27.7380 C   0  0  0  0  0  0  0  0  0  0  0  0
    4.9000   -3.5790   29.0330 C   0  0  0  0  0  0  0  0  0  0  0  0
    5.1220   -5.0230   28.8960 N   0  0  0  0  0  0  0  0  0  0  0  0
    4.5240   -6.1830   29.4600 C   0  0  0  0  0  0  0  0  0  0  0  0
    3.4930   -5.9610   30.3650 C   0  0  0  0  0  0  0  0  0  0  0  0
    3.1980   -7.3140   30.9700 C   0  0  0  0  0  0  0  0  0  0  0  0
    4.1840   -7.6090   31.8440 N   0  0  0  0  0  0  0  0  0  0  0  0
    4.0090   -8.1720   33.0620 C   0  0  0  0  0  0  0  0  0  0  0  0
    5.2050   -8.6810   33.7900 C   0  0  0  0  0  0  0  0  0  0  0  0
    4.7370   -9.7270   34.7560 C   0  0  0  0  0  0  0  0  0  0  0  0
    5.4090   -7.3050   31.3960 C   0  0  0  0  0  0  0  0  0  0  0  0
    5.5900   -7.0530   30.0640 C   0  0  0  0  0  0  0  0  0  0  0  0
    6.2880   -5.2290   28.1500 C   0  0  0  0  0  0  0  0  0  0  0  0
    6.2480   -4.4920   26.8490 C   0  0  0  0  0  0  0  0  0  0  0  0
    7.2730   -3.0290   23.8180 C   0  0  0  0  0  0  0  0  0  0  0  0
    7.5760   -3.2330   22.3410 C   0  0  0  0  0  0  0  0  0  0  0  0
  1  2  1  0
  2  3  2  0
  2  4  1  0
  4  5  1  0
  5  6  1  0
  6  7  1  0
  7  8  1  0
  8  9  2  0
  8 10  1  0
 10 11  1  0
 11 12  1  0
 12 13  1  0
 13 14  1  0
 14 15  1  0
 15 16  1  0
 16 17  1  0
 17 18  1  0
 18 19  1  0
 19 20  1  0
 17 21  1  0
 14 22  1  0
 21 22  1  0
 13 23  1  0
 10 24  1  0
 23 24  1  0
  7 25  1  0
  4 26  1  0
 25 26  1  0
M  END
