piperidine-amides-2077-covalent
     RDKit          3D

 24 26  0  0  0  0  0  0  0  0999 V2000
    7.0120   -3.3370   19.3290 C   0  0  0  0  0  0  0  0  0  0  0  0
    6.3480   -4.1940   20.3490 C   0  0  0  0  0  0  0  0  0  0  0  0
    5.3710   -4.8430   19.9740 O   0  0  0  0  0  0  0  0  0  0  0  0
    6.8430   -4.2810   21.6550 N   0  0  0  0  0  0  0  0  0  0  0  0
    7.6800   -3.2490   22.2310 C   0  0  0  0  0  0  0  0  0  0  0  0
    7.3650   -3.1030   23.6910 C   0  0  0  0  0  0  0  0  0  0  0  0
    6.0140   -3.7600   23.9690 C   0  0  0  0  0  0  0  0  0  0  0  0
    5.5320   -3.4190   25.3230 C   0  0  0  0  0  0  0  0  0  0  0  0
    4.3190   -3.4900   25.5580 O   0  0  0  0  0  0  0  0  0  0  0  0
    6.3960   -3.0050   26.3510 N   0  0  0  0  0  0  0  0  0  0  0  0
    6.7090   -1.6030   26.4450 C   0  0  2  0  0  0  0  0  0  0  0  0
    6.7470   -1.2650   27.7530 C   0  0  0  0  0  0  0  0  0  0  0  0
    5.6890   -0.5780   27.1230 C   0  0  1  0  0  0  0  0  0  0  0  0
    5.8260    0.2110   26.0210 C   0  0  0  0  0  0  0  0  0  0  0  0
    5.5890   -0.2950   24.7840 C   0  0  0  0  0  0  0  0  0  0  0  0
    5.6680    0.3610   23.4240 C   0  0  0  0  0  0  0  0  0  0  0  0
    6.0810    1.7990   23.6010 C   0  0  0  0  0  0  0  0  0  0  0  0
    6.2210    2.6160   22.5150 O   0  0  0  0  0  0  0  0  0  0  0  0
    7.4060    3.3500   22.4460 C   0  0  0  0  0  0  0  0  0  0  0  0
    7.0830    4.7700   22.1200 C   0  0  0  0  0  0  0  0  0  0  0  0
    6.3400    2.3860   24.8370 C   0  0  0  0  0  0  0  0  0  0  0  0
    6.1930    1.5140   26.0770 C   0  0  0  0  0  0  0  0  0  0  0  0
    6.1320   -5.2570   23.7840 C   0  0  0  0  0  0  0  0  0  0  0  0
    6.6940   -5.5110   22.4060 C   0  0  0  0  0  0  0  0  0  0  0  0
  1  2  1  0
  2  3  2  0
  2  4  1  0
  4  5  1  0
  5  6  1  0
  6  7  1  0
  7  8  1  0
  8  9  2  0
  8 10  1  0
 11 10  1  1
 11 12  1  0
 11 13  1  0
 12 13  1  0
 13 14  1  6
 14 15  2  0
 15 16  1  0
 16 17  2  0
 17 18  1  0
 18 19  1  0
 19 20  1  0
 17 21  1  0
 14 22  1  0
 21 22  2  0
  7 23  1  0
  4 24  1  0
 23 24  1  0
M  END
