piperidine-amides-24902-covalent
     RDKit          3D

 23 25  0  0  0  0  0  0  0  0999 V2000
    6.9750   -3.3660   19.4340 C   0  0  0  0  0  0  0  0  0  0  0  0
    6.3420   -4.2590   20.4280 C   0  0  0  0  0  0  0  0  0  0  0  0
    5.4430   -5.0330   20.0280 O   0  0  0  0  0  0  0  0  0  0  0  0
    6.7450   -4.2720   21.7930 N   0  0  0  0  0  0  0  0  0  0  0  0
    6.6020   -5.5070   22.5540 C   0  0  0  0  0  0  0  0  0  0  0  0
    5.9640   -5.1610   23.9200 C   0  0  0  0  0  0  0  0  0  0  0  0
    6.0060   -3.6580   23.9940 C   0  0  0  0  0  0  0  0  0  0  0  0
    5.3300   -3.0080   25.1840 C   0  0  0  0  0  0  0  0  0  0  0  0
    4.6640   -2.0030   24.9050 O   0  0  0  0  0  0  0  0  0  0  0  0
    5.3490   -3.4180   26.5620 N   0  0  0  0  0  0  0  0  0  0  0  0
    4.7790   -2.5200   27.5710 C   0  0  0  0  0  0  0  0  0  0  0  0
    5.0330   -2.9870   29.0310 C   0  0  0  0  0  0  0  0  0  0  0  0
    5.0580   -4.3130   29.2460 C   0  0  0  0  0  0  0  0  0  0  0  0
    4.4180   -5.0370   30.1810 C   0  0  0  0  0  0  0  0  0  0  0  0
    3.3530   -4.3840   31.4120 Cl  0  0  0  0  0  0  0  0  0  0  0  0
    4.6450   -6.3680   30.1090 C   0  0  0  0  0  0  0  0  0  0  0  0
    5.4540   -6.8710   29.1330 C   0  0  0  0  0  0  0  0  0  0  0  0
    6.2490   -6.2260   27.9870 C   0  0  0  0  0  0  0  0  0  0  0  0
    7.0120   -6.6610   27.0330 F   0  0  0  0  0  0  0  0  0  0  0  0
    5.8380   -4.8270   28.3230 C   0  0  0  0  0  0  0  0  0  0  0  0
    6.2760   -3.6180   27.5700 C   0  0  0  0  0  0  0  0  0  0  0  0
    7.4200   -3.1980   23.7480 C   0  0  0  0  0  0  0  0  0  0  0  0
    7.5730   -3.1920   22.3380 C   0  0  0  0  0  0  0  0  0  0  0  0
  1  2  1  0
  2  3  2  0
  2  4  1  0
  4  5  1  0
  5  6  1  0
  6  7  1  0
  7  8  1  0
  8  9  2  0
  8 10  1  0
 10 11  1  0
 11 12  1  0
 12 13  1  0
 13 14  2  0
 14 15  1  0
 14 16  1  0
 16 17  2  0
 17 18  1  0
 18 19  1  0
 13 20  1  0
 18 20  2  0
 10 21  1  0
 20 21  1  0
  7 22  1  0
  4 23  1  0
 22 23  1  0
M  END
