piperidine-amides-29239-covalent
     RDKit          3D

 26 27  0  0  0  0  0  0  0  0999 V2000
    7.0460   -3.3270   19.3430 C   0  0  0  0  0  0  0  0  0  0  0  0
    6.4110   -4.1950   20.3330 C   0  0  0  0  0  0  0  0  0  0  0  0
    5.4090   -4.8460   19.9850 O   0  0  0  0  0  0  0  0  0  0  0  0
    6.9660   -4.3110   21.6350 N   0  0  0  0  0  0  0  0  0  0  0  0
    6.6460   -5.4670   22.4090 C   0  0  0  0  0  0  0  0  0  0  0  0
    5.8520   -5.0400   23.6100 C   0  0  0  0  0  0  0  0  0  0  0  0
    6.6400   -3.9870   24.3830 C   0  0  0  0  0  0  0  0  0  0  0  0
    5.7500   -3.4450   25.4730 C   0  0  0  0  0  0  0  0  0  0  0  0
    4.5550   -3.3780   25.1820 O   0  0  0  0  0  0  0  0  0  0  0  0
    6.2590   -3.0440   26.7200 N   0  0  0  0  0  0  0  0  0  0  0  0
    7.5490   -3.2900   27.2410 C   0  0  0  0  0  0  0  0  0  0  0  0
    7.6900   -4.4530   27.9970 C   0  0  2  0  0  0  0  0  0  0  0  0
    7.9710   -5.3590   26.9160 N   0  0  0  0  0  0  0  0  0  0  0  0
    8.9840   -6.2950   26.7830 C   0  0  0  0  0  0  0  0  0  0  0  0
   10.0480   -5.7460   26.0980 O   0  0  0  0  0  0  0  0  0  0  0  0
    8.8550   -7.6410   27.2680 O   0  0  0  0  0  0  0  0  0  0  0  0
    9.6880   -8.9220   26.7320 C   0  0  0  0  0  0  0  0  0  0  0  0
    9.6090  -10.6310   27.8790 C   0  0  0  0  0  0  0  0  0  0  0  0
    9.7950   -7.2110   26.6210 C   0  0  0  0  0  0  0  0  0  0  0  0
   10.2240   -8.9390   26.3710 C   0  0  0  0  0  0  0  0  0  0  0  0
    6.6510   -5.1280   28.6430 C   0  0  0  0  0  0  0  0  0  0  0  0
    5.6540   -3.9480   28.7590 C   0  0  0  0  0  0  0  0  0  0  0  0
    5.8700   -2.7730   28.0810 C   0  0  2  0  0  0  0  0  0  0  0  0
    4.8350   -1.8660   28.0430 C   0  0  0  0  0  0  0  0  0  0  0  0
    7.0810   -2.8350   23.5280 C   0  0  0  0  0  0  0  0  0  0  0  0
    7.7200   -3.2450   22.2320 C   0  0  0  0  0  0  0  0  0  0  0  0
  1  2  1  0
  2  3  2  0
  2  4  1  0
  4  5  1  0
  5  6  1  0
  6  7  1  0
  7  8  1  0
  8  9  2  0
  8 10  1  0
 10 11  1  0
 11 12  1  0
 12 13  1  6
 13 14  1  0
 14 15  2  0
 14 16  1  0
 17 16  1  0
 17 18  1  0
 17 19  1  0
 17 20  1  0
 12 21  1  0
 21 22  1  0
 10 23  1  0
 22 23  1  0
 23 24  1  6
  7 25  1  0
  4 26  1  0
 25 26  1  0
M  END
