piperidine-amides-14616-covalent
     RDKit          3D

 23 25  0  0  0  0  0  0  0  0999 V2000
    7.0640   -3.2940   19.2580 C   0  0  0  0  0  0  0  0  0  0  0  0
    6.3710   -4.0840   20.2760 C   0  0  0  0  0  0  0  0  0  0  0  0
    5.3380   -4.6860   19.9380 O   0  0  0  0  0  0  0  0  0  0  0  0
    6.8900   -4.1940   21.5930 N   0  0  0  0  0  0  0  0  0  0  0  0
    7.6580   -3.1040   22.1460 C   0  0  0  0  0  0  0  0  0  0  0  0
    7.4490   -3.0140   23.6350 C   0  0  0  0  0  0  0  0  0  0  0  0
    6.0660   -3.5600   23.8990 C   0  0  0  0  0  0  0  0  0  0  0  0
    5.5650   -3.1950   25.2730 C   0  0  0  0  0  0  0  0  0  0  0  0
    4.3920   -2.8430   25.3320 O   0  0  0  0  0  0  0  0  0  0  0  0
    6.4270   -3.2660   26.3580 N   0  0  0  0  0  0  0  0  0  0  0  0
    6.0240   -3.6980   27.6670 C   0  0  0  0  0  0  0  0  0  0  0  0
    5.4290   -4.9770   27.7630 C   0  0  0  0  0  0  0  0  0  0  0  0
    5.2450   -5.5740   28.9860 C   0  0  0  0  0  0  0  0  0  0  0  0
    6.1080   -6.6130   29.3630 C   0  0  0  0  0  0  0  0  0  0  0  0
    5.8670   -7.2580   30.7060 C   0  0  0  0  0  0  0  0  0  0  0  0
    4.7230   -6.7820   31.6140 C   0  0  0  0  0  0  0  0  0  0  0  0
    3.8610   -5.6900   31.1620 C   0  0  0  0  0  0  0  0  0  0  0  0
    2.8530   -5.3290   32.0480 F   0  0  0  0  0  0  0  0  0  0  0  0
    4.2160   -5.1540   29.8170 C   0  0  0  0  0  0  0  0  0  0  0  0
    4.4360   -5.3360   26.6750 C   0  0  0  0  0  0  0  0  0  0  0  0
    5.5470   -5.8760   26.7450 C   0  0  0  0  0  0  0  0  0  0  0  0
    6.1810   -5.0460   23.7490 C   0  0  0  0  0  0  0  0  0  0  0  0
    6.5360   -5.3840   22.3270 C   0  0  0  0  0  0  0  0  0  0  0  0
  1  2  1  0
  2  3  2  0
  2  4  1  0
  4  5  1  0
  5  6  1  0
  6  7  1  0
  7  8  1  0
  8  9  2  0
  8 10  1  0
 10 11  1  0
 12 11  1  0
 12 13  1  0
 13 14  2  0
 14 15  1  0
 15 16  2  0
 16 17  1  0
 17 18  1  0
 13 19  1  0
 17 19  2  0
 12 20  1  0
 12 21  1  0
 20 21  1  0
  7 22  1  0
  4 23  1  0
 22 23  1  0
M  END
