piperidine-amides-33659-covalent
     RDKit          3D

 25 27  0  0  0  0  0  0  0  0999 V2000
    7.0160   -3.3750   19.4320 C   0  0  0  0  0  0  0  0  0  0  0  0
    6.4000   -4.2700   20.4300 C   0  0  0  0  0  0  0  0  0  0  0  0
    5.4350   -4.9640   20.0150 O   0  0  0  0  0  0  0  0  0  0  0  0
    6.8930   -4.3680   21.7700 N   0  0  0  0  0  0  0  0  0  0  0  0
    6.5490   -5.5150   22.5560 C   0  0  0  0  0  0  0  0  0  0  0  0
    5.9400   -5.1470   23.8310 C   0  0  0  0  0  0  0  0  0  0  0  0
    5.9040   -3.6820   23.9710 C   0  0  0  0  0  0  0  0  0  0  0  0
    5.1130   -3.1090   25.1490 C   0  0  0  0  0  0  0  0  0  0  0  0
    4.3320   -2.1880   24.8860 O   0  0  0  0  0  0  0  0  0  0  0  0
    5.1760   -3.5090   26.5090 N   0  0  0  0  0  0  0  0  0  0  0  0
    6.2510   -4.1010   27.0050 C   0  0  0  0  0  0  0  0  0  0  0  0
    6.4620   -4.2840   28.4160 C   0  0  0  0  0  0  0  0  0  0  0  0
    5.3990   -4.3000   29.0850 O   0  0  0  0  0  0  0  0  0  0  0  0
    4.5040   -3.2880   28.8180 C   0  0  1  0  0  0  0  0  0  0  0  0
    4.8420   -2.2430   29.6620 C   0  0  0  0  0  0  0  0  0  0  0  0
    3.4680   -2.1080   30.3340 C   0  0  0  0  0  0  0  0  0  0  0  0
    3.4080   -1.0080   31.3850 C   0  0  0  0  0  0  0  0  0  0  0  0
    4.7300   -0.2190   31.5980 C   0  0  0  0  0  0  0  0  0  0  0  0
    4.7380    0.7820   32.5280 F   0  0  0  0  0  0  0  0  0  0  0  0
    6.0400   -0.4250   30.8870 C   0  0  0  0  0  0  0  0  0  0  0  0
    7.6160    0.5820   31.2030 Br  0  0  0  0  0  0  0  0  0  0  0  0
    5.9660   -1.5290   29.8830 C   0  0  0  0  0  0  0  0  0  0  0  0
    4.4840   -2.6590   27.4310 C   0  0  0  0  0  0  0  0  0  0  0  0
    7.2830   -3.1450   23.7460 C   0  0  0  0  0  0  0  0  0  0  0  0
    7.6380   -3.2630   22.3830 C   0  0  0  0  0  0  0  0  0  0  0  0
  1  2  1  0
  2  3  2  0
  2  4  1  0
  4  5  1  0
  5  6  1  0
  6  7  1  0
  7  8  1  0
  8  9  2  0
  8 10  1  0
 10 11  1  0
 11 12  1  0
 12 13  1  0
 13 14  1  0
 14 15  1  1
 15 16  2  0
 16 17  1  0
 17 18  2  0
 18 19  1  0
 18 20  1  0
 20 21  1  0
 15 22  1  0
 20 22  2  0
 10 23  1  0
 14 23  1  0
  7 24  1  0
  4 25  1  0
 24 25  1  0
M  END
