piperidine-amides-35180-covalent
     RDKit          3D

 33 36  0  0  0  0  0  0  0  0999 V2000
    7.0120   -3.3590   19.4270 C   0  0  0  0  0  0  0  0  0  0  0  0
    6.3720   -4.2660   20.4200 C   0  0  0  0  0  0  0  0  0  0  0  0
    5.4300   -4.9440   20.0040 O   0  0  0  0  0  0  0  0  0  0  0  0
    6.8500   -4.3580   21.7450 N   0  0  0  0  0  0  0  0  0  0  0  0
    6.7010   -5.5830   22.5000 C   0  0  0  0  0  0  0  0  0  0  0  0
    6.0440   -5.2750   23.8220 C   0  0  0  0  0  0  0  0  0  0  0  0
    5.9750   -3.7590   23.9530 C   0  0  0  0  0  0  0  0  0  0  0  0
    5.2480   -3.3300   25.1930 C   0  0  0  0  0  0  0  0  0  0  0  0
    4.3950   -2.4500   25.0740 O   0  0  0  0  0  0  0  0  0  0  0  0
    5.4730   -3.8490   26.4890 N   0  0  0  0  0  0  0  0  0  0  0  0
    6.5330   -3.2850   27.1840 C   0  0  0  0  0  0  0  0  0  0  0  0
    6.7820   -4.3020   28.2890 C   0  0  0  0  0  0  0  0  0  0  0  0
    5.8420   -4.4550   29.2160 C   0  0  0  0  0  0  0  0  0  0  0  0
    4.6000   -4.3070   28.7250 C   0  0  0  0  0  0  0  0  0  0  0  0
    3.5050   -4.4430   29.5440 C   0  0  0  0  0  0  0  0  0  0  0  0
    2.0250   -4.3070   29.2010 C   0  0  0  0  0  0  0  0  0  0  0  0
    1.8270   -3.9800   27.7500 C   0  0  0  0  0  0  0  0  0  0  0  0
    0.5460   -3.8280   27.3120 O   0  0  0  0  0  0  0  0  0  0  0  0
   -0.3360   -4.8720   27.5720 C   0  0  0  0  0  0  0  0  0  0  0  0
   -1.7210   -4.4640   27.8670 C   0  0  0  0  0  0  0  0  0  0  0  0
   -2.1920   -4.9490   26.6780 N   0  0  0  0  0  0  0  0  0  0  0  0
   -3.5620   -5.2620   26.4940 C   0  0  0  0  0  0  0  0  0  0  0  0
   -3.9070   -6.0620   25.5980 O   0  0  0  0  0  0  0  0  0  0  0  0
   -4.5790   -4.7170   27.2770 O   0  0  0  0  0  0  0  0  0  0  0  0
   -5.9440   -4.8500   26.9500 C   0  0  0  0  0  0  0  0  0  0  0  0
   -6.7710   -3.8420   27.6710 C   0  0  0  0  0  0  0  0  0  0  0  0
   -6.2500   -6.1940   27.1540 C   0  0  0  0  0  0  0  0  0  0  0  0
   -6.1300   -4.6010   25.4770 C   0  0  0  0  0  0  0  0  0  0  0  0
   -1.0110   -5.4340   26.2800 C   0  0  0  0  0  0  0  0  0  0  0  0
    2.9370   -3.8440   26.9130 C   0  0  0  0  0  0  0  0  0  0  0  0
    4.3620   -4.0090   27.3960 C   0  0  0  0  0  0  0  0  0  0  0  0
    7.2660   -3.0190   23.7270 C   0  0  0  0  0  0  0  0  0  0  0  0
    7.6550   -3.2510   22.2500 C   0  0  0  0  0  0  0  0  0  0  0  0
  1  2  1  0
  2  3  2  0
  2  4  1  0
  4  5  1  0
  5  6  1  0
  6  7  1  0
  7  8  1  0
  8  9  2  0
  8 10  1  0
 10 11  1  0
 11 12  1  0
 12 13  1  0
 13 14  1  0
 14 15  2  0
 15 16  1  0
 16 17  2  0
 17 18  1  0
 18 19  1  0
 19 20  1  0
 20 21  1  0
 21 22  1  0
 22 23  2  0
 22 24  1  0
 25 24  1  0
 25 26  1  0
 25 27  1  0
 25 28  1  0
 19 29  1  0
 21 29  1  0
 17 30  1  0
 10 31  1  0
 14 31  1  0
 30 31  2  0
  7 32  1  0
  4 33  1  0
 32 33  1  0
M  END
