piperidine-amides-13269-covalent
     RDKit          3D

 17 17  0  0  0  0  0  0  0  0999 V2000
    7.1240   -3.2890   19.1430 C   0  0  0  0  0  0  0  0  0  0  0  0
    6.3130   -3.9700   20.1730 C   0  0  0  0  0  0  0  0  0  0  0  0
    5.2080   -4.4120   19.8150 O   0  0  0  0  0  0  0  0  0  0  0  0
    6.8010   -4.1700   21.4640 N   0  0  0  0  0  0  0  0  0  0  0  0
    6.3610   -5.2970   22.2120 C   0  0  0  0  0  0  0  0  0  0  0  0
    5.8460   -4.9550   23.5370 C   0  0  0  0  0  0  0  0  0  0  0  0
    6.5440   -3.8170   24.1680 C   0  0  0  0  0  0  0  0  0  0  0  0
    5.8140   -3.2930   25.3530 C   0  0  0  0  0  0  0  0  0  0  0  0
    4.5950   -3.0440   25.2350 O   0  0  0  0  0  0  0  0  0  0  0  0
    6.4720   -3.0800   26.5830 N   0  0  0  0  0  0  0  0  0  0  0  0
    6.1990   -3.8370   27.8400 C   0  0  0  0  0  0  0  0  0  0  0  0
    5.9550   -5.3080   27.6600 C   0  0  0  0  0  0  0  0  0  0  0  0
    6.8610   -6.0580   28.3260 F   0  0  0  0  0  0  0  0  0  0  0  0
    5.9700   -5.6430   26.2980 F   0  0  0  0  0  0  0  0  0  0  0  0
    4.3760   -5.6780   28.4330 Cl  0  0  0  0  0  0  0  0  0  0  0  0
    6.8260   -2.6760   23.2380 C   0  0  0  0  0  0  0  0  0  0  0  0
    7.5020   -3.0990   22.1240 C   0  0  0  0  0  0  0  0  0  0  0  0
  1  2  1  0
  2  3  2  0
  2  4  1  0
  4  5  1  0
  5  6  1  0
  6  7  1  0
  7  8  1  0
  8  9  2  0
  8 10  1  0
 10 11  1  0
 11 12  1  0
 12 13  1  0
 12 14  1  0
 12 15  1  0
  7 16  1  0
  4 17  1  0
 16 17  1  0
M  END
