piperidine-amides-28088-covalent
     RDKit          3D

 26 27  0  0  0  0  0  0  0  0999 V2000
    7.1110   -3.2580   19.1940 C   0  0  0  0  0  0  0  0  0  0  0  0
    6.3650   -4.0100   20.2320 C   0  0  0  0  0  0  0  0  0  0  0  0
    5.2990   -4.5500   19.8810 O   0  0  0  0  0  0  0  0  0  0  0  0
    6.8730   -4.1340   21.5340 N   0  0  0  0  0  0  0  0  0  0  0  0
    6.5280   -5.2630   22.3300 C   0  0  0  0  0  0  0  0  0  0  0  0
    6.0880   -4.9370   23.6990 C   0  0  0  0  0  0  0  0  0  0  0  0
    6.6330   -3.6800   24.2740 C   0  0  0  0  0  0  0  0  0  0  0  0
    5.7830   -3.2280   25.4120 C   0  0  0  0  0  0  0  0  0  0  0  0
    4.5690   -3.0630   25.1930 O   0  0  0  0  0  0  0  0  0  0  0  0
    6.3030   -2.9860   26.7060 N   0  0  0  0  0  0  0  0  0  0  0  0
    6.6430   -1.6060   27.1220 C   0  0  0  0  0  0  0  0  0  0  0  0
    7.0690   -1.5070   28.5550 C   0  0  0  0  0  0  0  0  0  0  0  0
    6.2060   -3.8820   27.7980 C   0  0  0  0  0  0  0  0  0  0  0  0
    5.3680   -3.5700   28.8230 C   0  0  0  0  0  0  0  0  0  0  0  0
    5.4710   -2.6220   29.6210 O   0  0  0  0  0  0  0  0  0  0  0  0
    4.3330   -4.5080   28.8590 N   0  0  0  0  0  0  0  0  0  0  0  0
    4.3550   -5.5110   29.8980 C   0  0  0  0  0  0  0  0  0  0  0  0
    3.3360   -5.6370   30.7800 C   0  0  0  0  0  0  0  0  0  0  0  0
    2.2570   -4.8100   30.7040 C   0  0  0  0  0  0  0  0  0  0  0  0
    3.3900   -6.6120   31.7640 C   0  0  0  0  0  0  0  0  0  0  0  0
    4.4810   -7.4850   31.8780 C   0  0  0  0  0  0  0  0  0  0  0  0
    5.6420   -7.4180   30.9580 C   0  0  0  0  0  0  0  0  0  0  0  0
    5.4630   -6.3230   29.9400 C   0  0  0  0  0  0  0  0  0  0  0  0
    6.6300   -6.2430   29.0080 C   0  0  0  0  0  0  0  0  0  0  0  0
    6.9030   -2.5930   23.3340 C   0  0  0  0  0  0  0  0  0  0  0  0
    7.6750   -3.0910   22.1410 C   0  0  0  0  0  0  0  0  0  0  0  0
  1  2  1  0
  2  3  2  0
  2  4  1  0
  4  5  1  0
  5  6  1  0
  6  7  1  0
  7  8  1  0
  8  9  2  0
  8 10  1  0
 10 11  1  0
 11 12  1  0
 10 13  1  0
 13 14  1  0
 14 15  2  0
 14 16  1  0
 16 17  1  0
 17 18  2  0
 18 19  1  0
 18 20  1  0
 20 21  2  0
 21 22  1  0
 17 23  1  0
 22 23  2  0
 23 24  1  0
  7 25  1  0
  4 26  1  0
 25 26  1  0
M  END
