piperidine-amides-25724-covalent
     RDKit          3D

 25 27  0  0  0  0  0  0  0  0999 V2000
    7.0030   -3.3550   19.3440 C   0  0  0  0  0  0  0  0  0  0  0  0
    6.3640   -4.2300   20.3610 C   0  0  0  0  0  0  0  0  0  0  0  0
    5.3900   -4.8850   19.9900 O   0  0  0  0  0  0  0  0  0  0  0  0
    6.8890   -4.3230   21.6590 N   0  0  0  0  0  0  0  0  0  0  0  0
    6.6860   -5.4790   22.4880 C   0  0  0  0  0  0  0  0  0  0  0  0
    6.0110   -5.0860   23.7830 C   0  0  0  0  0  0  0  0  0  0  0  0
    6.5790   -3.7710   24.3510 C   0  0  0  0  0  0  0  0  0  0  0  0
    5.6600   -3.2660   25.4240 C   0  0  0  0  0  0  0  0  0  0  0  0
    4.6910   -2.6180   25.0260 O   0  0  0  0  0  0  0  0  0  0  0  0
    5.7600   -3.4420   26.8530 N   0  0  0  0  0  0  0  0  0  0  0  0
    6.4360   -4.5560   27.4700 C   0  0  0  0  0  0  0  0  0  0  0  0
    5.6510   -4.7660   28.6720 C   0  0  0  0  0  0  0  0  0  0  0  0
    4.7200   -3.8190   28.7930 C   0  0  0  0  0  0  0  0  0  0  0  0
    4.5960   -3.1050   27.6250 C   0  0  2  0  0  0  0  0  0  0  0  0
    3.4390   -3.3560   26.9250 C   0  0  0  0  0  0  0  0  0  0  0  0
    3.1680   -4.6940   26.1770 C   0  0  0  0  0  0  0  0  0  0  0  0
    1.8470   -4.8530   25.4230 C   0  0  0  0  0  0  0  0  0  0  0  0
    0.8500   -3.7330   25.4210 C   0  0  0  0  0  0  0  0  0  0  0  0
   -0.2860   -4.0430   24.6900 O   0  0  0  0  0  0  0  0  0  0  0  0
   -0.3270   -5.1950   23.8760 C   0  0  0  0  0  0  0  0  0  0  0  0
   -1.1960   -5.0300   22.6720 C   0  0  0  0  0  0  0  0  0  0  0  0
    1.1420   -2.4870   26.1450 C   0  0  0  0  0  0  0  0  0  0  0  0
    2.4230   -2.4160   26.8350 C   0  0  0  0  0  0  0  0  0  0  0  0
    6.6890   -2.7190   23.2640 C   0  0  0  0  0  0  0  0  0  0  0  0
    7.5410   -3.1890   22.2880 C   0  0  0  0  0  0  0  0  0  0  0  0
  1  2  1  0
  2  3  2  0
  2  4  1  0
  4  5  1  0
  5  6  1  0
  6  7  1  0
  7  8  1  0
  8  9  2  0
  8 10  1  0
 10 11  1  0
 11 12  1  0
 12 13  1  0
 10 14  1  0
 13 14  1  0
 14 15  1  6
 15 16  2  0
 16 17  1  0
 17 18  2  0
 18 19  1  0
 19 20  1  0
 20 21  1  0
 18 22  1  0
 15 23  1  0
 22 23  2  0
  7 24  1  0
  4 25  1  0
 24 25  1  0
M  END
