piperidine-amides-12373-covalent
     RDKit          3D

 24 27  0  0  0  0  0  0  0  0999 V2000
    7.1130   -3.2840   19.2300 C   0  0  0  0  0  0  0  0  0  0  0  0
    6.3580   -4.0370   20.2260 C   0  0  0  0  0  0  0  0  0  0  0  0
    5.3010   -4.5740   19.9040 O   0  0  0  0  0  0  0  0  0  0  0  0
    6.8710   -4.2090   21.5590 N   0  0  0  0  0  0  0  0  0  0  0  0
    6.6300   -5.4460   22.2610 C   0  0  0  0  0  0  0  0  0  0  0  0
    6.1910   -5.1670   23.6750 C   0  0  0  0  0  0  0  0  0  0  0  0
    6.0760   -3.6670   23.8540 C   0  0  0  0  0  0  0  0  0  0  0  0
    5.5990   -3.3300   25.2160 C   0  0  0  0  0  0  0  0  0  0  0  0
    4.3890   -3.3840   25.5060 O   0  0  0  0  0  0  0  0  0  0  0  0
    6.5240   -2.9450   26.2050 N   0  0  0  0  0  0  0  0  0  0  0  0
    6.2010   -3.2700   27.5730 C   0  0  0  0  0  0  0  0  0  0  0  0
    5.8470   -1.9840   28.2830 C   0  0  2  0  0  0  0  0  0  0  0  0
    6.4420   -1.8900   29.4820 C   0  0  0  0  0  0  0  0  0  0  0  0
    5.8270   -0.8550   30.1230 C   0  0  1  0  0  0  0  0  0  0  0  0
    6.3250    0.3040   29.5800 C   0  0  0  0  0  0  0  0  0  0  0  0
    5.8900    0.3610   28.1980 C   0  0  2  0  0  0  0  0  0  0  0  0
    4.5670    0.5470   28.0560 C   0  0  0  0  0  0  0  0  0  0  0  0
    3.9300   -0.4800   28.6720 C   0  0  2  0  0  0  0  0  0  0  0  0
    2.1870   -0.5670   28.4490 Cl  0  0  0  0  0  0  0  0  0  0  0  0
    4.4500   -0.9880   29.8950 C   0  0  0  0  0  0  0  0  0  0  0  0
    4.4690   -1.8620   28.5390 C   0  0  0  0  0  0  0  0  0  0  0  0
    6.1790   -0.8410   27.5620 C   0  0  0  0  0  0  0  0  0  0  0  0
    7.3840   -2.9970   23.5660 C   0  0  0  0  0  0  0  0  0  0  0  0
    7.6740   -3.1710   22.1190 C   0  0  0  0  0  0  0  0  0  0  0  0
  1  2  1  0
  2  3  2  0
  2  4  1  0
  4  5  1  0
  5  6  1  0
  6  7  1  0
  7  8  1  0
  8  9  2  0
  8 10  1  0
 10 11  1  0
 12 11  1  6
 12 13  1  0
 14 13  1  6
 14 15  1  0
 16 15  1  1
 16 17  1  0
 17 18  1  0
 18 19  1  1
 14 20  1  0
 18 20  1  0
 12 21  1  0
 18 21  1  0
 12 22  1  0
 16 22  1  0
  7 23  1  0
  4 24  1  0
 23 24  1  0
M  END
