piperidine-amides-13561-covalent
     RDKit          3D

 30 31  0  0  0  0  0  0  0  0999 V2000
    7.1660   -3.2300   19.1590 C   0  0  0  0  0  0  0  0  0  0  0  0
    6.3550   -3.9430   20.1710 C   0  0  0  0  0  0  0  0  0  0  0  0
    5.2670   -4.4410   19.8420 O   0  0  0  0  0  0  0  0  0  0  0  0
    6.8650   -4.0930   21.4720 N   0  0  0  0  0  0  0  0  0  0  0  0
    7.7680   -3.1540   22.0930 C   0  0  0  0  0  0  0  0  0  0  0  0
    7.0110   -2.4850   23.2510 C   0  0  0  0  0  0  0  0  0  0  0  0
    6.4200   -3.5520   24.1170 C   0  0  0  0  0  0  0  0  0  0  0  0
    5.7200   -2.9990   25.3080 C   0  0  0  0  0  0  0  0  0  0  0  0
    4.5240   -2.7280   25.1530 O   0  0  0  0  0  0  0  0  0  0  0  0
    6.3970   -2.7980   26.5240 N   0  0  0  0  0  0  0  0  0  0  0  0
    6.3120   -3.5770   27.7140 C   0  0  2  0  0  0  0  0  0  0  0  0
    7.2140   -4.5560   27.8550 C   0  0  0  0  0  0  0  0  0  0  0  0
    7.4630   -5.2310   26.7040 C   0  0  0  0  0  0  0  0  0  0  0  0
    6.4240   -5.5560   25.8520 C   0  0  0  0  0  0  0  0  0  0  0  0
    6.6620   -6.3170   24.6070 C   0  0  0  0  0  0  0  0  0  0  0  0
    8.0580   -6.7480   24.2320 C   0  0  0  0  0  0  0  0  0  0  0  0
    9.0360   -6.2590   25.3100 C   0  0  0  0  0  0  0  0  0  0  0  0
    8.7300   -5.5720   26.4240 C   0  0  0  0  0  0  0  0  0  0  0  0
    4.9630   -3.9990   28.1460 C   0  0  0  0  0  0  0  0  0  0  0  0
    4.8910   -5.3910   27.7280 N   0  0  0  0  0  0  0  0  0  0  0  0
    4.9780   -6.3310   28.7890 C   0  0  0  0  0  0  0  0  0  0  0  0
    4.3660   -5.8470   29.9180 C   0  0  0  0  0  0  0  0  0  0  0  0
    3.4000   -6.6390   30.2600 O   0  0  0  0  0  0  0  0  0  0  0  0
    3.6550   -7.9780   30.1610 C   0  0  0  0  0  0  0  0  0  0  0  0
    3.9360   -5.6670   26.6420 C   0  0  0  0  0  0  0  0  0  0  0  0
    3.8130   -7.2000   26.4430 C   0  0  0  0  0  0  0  0  0  0  0  0
    4.2720   -7.6440   25.2000 O   0  0  0  0  0  0  0  0  0  0  0  0
    3.4990   -7.2720   24.1100 C   0  0  0  0  0  0  0  0  0  0  0  0
    5.5140   -4.4750   23.3120 C   0  0  0  0  0  0  0  0  0  0  0  0
    6.2420   -5.0650   22.3220 C   0  0  0  0  0  0  0  0  0  0  0  0
  1  2  1  0
  2  3  2  0
  2  4  1  0
  4  5  1  0
  5  6  1  0
  6  7  1  0
  7  8  1  0
  8  9  2  0
  8 10  1  0
 10 11  1  0
 11 12  1  6
 12 13  1  0
 13 14  2  0
 14 15  1  0
 15 16  2  0
 16 17  1  0
 13 18  1  0
 17 18  2  0
 11 19  1  0
 19 20  1  0
 20 21  1  0
 21 22  1  0
 22 23  1  0
 23 24  1  0
 20 25  1  0
 25 26  1  0
 26 27  1  0
 27 28  1  0
  7 29  1  0
  4 30  1  0
 29 30  1  0
M  END
