piperidine-amides-27195-covalent
     RDKit          3D

 24 26  0  0  0  0  0  0  0  0999 V2000
    7.0260   -3.3270   19.3040 C   0  0  0  0  0  0  0  0  0  0  0  0
    6.3030   -4.1380   20.2960 C   0  0  0  0  0  0  0  0  0  0  0  0
    5.2430   -4.6780   19.9080 O   0  0  0  0  0  0  0  0  0  0  0  0
    6.7980   -4.3260   21.5790 N   0  0  0  0  0  0  0  0  0  0  0  0
    6.6680   -5.5890   22.2640 C   0  0  0  0  0  0  0  0  0  0  0  0
    5.9520   -5.3380   23.5540 C   0  0  0  0  0  0  0  0  0  0  0  0
    5.9800   -3.8830   23.9220 C   0  0  0  0  0  0  0  0  0  0  0  0
    5.5220   -3.6730   25.3190 C   0  0  0  0  0  0  0  0  0  0  0  0
    4.3560   -3.2640   25.4960 O   0  0  0  0  0  0  0  0  0  0  0  0
    6.2850   -3.9240   26.4780 N   0  0  0  0  0  0  0  0  0  0  0  0
    7.0110   -5.1720   26.5670 C   0  0  0  0  0  0  0  0  0  0  0  0
    7.0910   -5.3420   28.0410 C   0  0  0  0  0  0  0  0  0  0  0  0
    6.4190   -4.3370   28.6420 C   0  0  0  0  0  0  0  0  0  0  0  0
    5.7850   -3.4480   27.7840 C   0  0  2  0  0  0  0  0  0  0  0  0
    4.3940   -3.3900   27.8330 C   0  0  0  0  0  0  0  0  0  0  0  0
    3.5270   -2.3430   27.7160 C   0  0  0  0  0  0  0  0  0  0  0  0
    3.9430   -1.0490   27.5100 C   0  0  0  0  0  0  0  0  0  0  0  0
    2.2600   -2.8280   27.8400 N   0  0  0  0  0  0  0  0  0  0  0  0
    2.3630   -4.1700   28.0290 N   0  0  0  0  0  0  0  0  0  0  0  0
    1.1890   -4.9450   28.1870 C   0  0  0  0  0  0  0  0  0  0  0  0
    3.6390   -4.6380   28.0450 C   0  0  0  0  0  0  0  0  0  0  0  0
    3.9990   -6.3380   28.2770 Cl  0  0  0  0  0  0  0  0  0  0  0  0
    7.3640   -3.3060   23.7010 C   0  0  0  0  0  0  0  0  0  0  0  0
    7.5760   -3.2620   22.2030 C   0  0  0  0  0  0  0  0  0  0  0  0
  1  2  1  0
  2  3  2  0
  2  4  1  0
  4  5  1  0
  5  6  1  0
  6  7  1  0
  7  8  1  0
  8  9  2  0
  8 10  1  0
 10 11  1  0
 11 12  1  0
 12 13  1  0
 10 14  1  0
 13 14  1  0
 14 15  1  6
 15 16  1  0
 16 17  1  0
 16 18  2  0
 18 19  1  0
 19 20  1  0
 15 21  2  0
 19 21  1  0
 21 22  1  0
  7 23  1  0
  4 24  1  0
 23 24  1  0
M  END
