piperidine-amides-33058-covalent
     RDKit          3D

 29 31  0  0  0  0  0  0  0  0999 V2000
    7.1150   -3.3060   19.2690 C   0  0  0  0  0  0  0  0  0  0  0  0
    6.4100   -4.1190   20.2720 C   0  0  0  0  0  0  0  0  0  0  0  0
    5.3240   -4.6390   19.9170 O   0  0  0  0  0  0  0  0  0  0  0  0
    6.9610   -4.3610   21.5510 N   0  0  0  0  0  0  0  0  0  0  0  0
    6.5210   -5.5120   22.2480 C   0  0  0  0  0  0  0  0  0  0  0  0
    6.0280   -5.2110   23.5840 C   0  0  0  0  0  0  0  0  0  0  0  0
    6.7430   -4.1210   24.2720 C   0  0  0  0  0  0  0  0  0  0  0  0
    5.9060   -3.6170   25.4070 C   0  0  0  0  0  0  0  0  0  0  0  0
    4.7010   -3.3880   25.2030 O   0  0  0  0  0  0  0  0  0  0  0  0
    6.4480   -3.4150   26.6880 N   0  0  0  0  0  0  0  0  0  0  0  0
    7.7420   -3.7850   27.0980 C   0  0  0  0  0  0  0  0  0  0  0  0
    7.8480   -4.8920   28.0310 C   0  0  0  0  0  0  0  0  0  0  0  0
    6.6100   -4.7620   28.9430 C   0  0  0  0  0  0  0  0  0  0  0  0
    5.3990   -4.8980   28.3140 C   0  0  0  0  0  0  0  0  0  0  0  0
    5.5160   -3.4430   27.8300 C   0  0  2  0  0  0  0  0  0  0  0  0
    4.0820   -3.3850   27.3730 C   0  0  0  0  0  0  0  0  0  0  0  0
    3.4910   -4.5740   27.1510 N   0  0  0  0  0  0  0  0  0  0  0  0
    2.2630   -4.4710   26.7610 N   0  0  0  0  0  0  0  0  0  0  0  0
    2.0620   -3.0480   26.7350 C   0  0  0  0  0  0  0  0  0  0  0  0
    3.2650   -2.2060   27.1460 C   0  0  0  0  0  0  0  0  0  0  0  0
    3.5010   -0.7040   27.2680 C   0  0  0  0  0  0  0  0  0  0  0  0
    3.7650   -0.1490   28.3640 O   0  0  0  0  0  0  0  0  0  0  0  0
    3.4190    0.0600   26.1380 O   0  0  0  0  0  0  0  0  0  0  0  0
    4.4320    0.1250   25.1470 C   0  0  0  0  0  0  0  0  0  0  0  0
    5.7030   -0.0390   25.9080 C   0  0  0  0  0  0  0  0  0  0  0  0
    4.4560    1.2040   24.2840 C   0  0  0  0  0  0  0  0  0  0  0  0
    4.7700   -1.1150   24.3420 C   0  0  0  0  0  0  0  0  0  0  0  0
    7.0500   -2.9720   23.3630 C   0  0  0  0  0  0  0  0  0  0  0  0
    7.7610   -3.3760   22.2440 C   0  0  0  0  0  0  0  0  0  0  0  0
  1  2  1  0
  2  3  2  0
  2  4  1  0
  4  5  1  0
  5  6  1  0
  6  7  1  0
  7  8  1  0
  8  9  2  0
  8 10  1  0
 10 11  1  0
 11 12  1  0
 12 13  1  0
 13 14  1  0
 10 15  1  0
 14 15  1  0
 15 16  1  6
 16 17  1  0
 17 18  1  0
 18 19  2  0
 16 20  2  0
 19 20  1  0
 20 21  1  0
 21 22  2  0
 21 23  1  0
 24 23  1  0
 24 25  1  0
 24 26  1  0
 24 27  1  0
  7 28  1  0
  4 29  1  0
 28 29  1  0
M  END
