piperidine-amides-4685-covalent
     RDKit          3D

 24 25  0  0  0  0  0  0  0  0999 V2000
    7.1750   -3.8900   19.5890 C   0  0  0  0  0  0  0  0  0  0  0  0
    5.9080   -3.7900   20.2240 C   0  0  0  0  0  0  0  0  0  0  0  0
    4.9420   -3.8310   19.4560 O   0  0  0  0  0  0  0  0  0  0  0  0
    5.8710   -3.7860   21.5970 N   0  0  0  0  0  0  0  0  0  0  0  0
    6.8680   -2.9800   22.2230 C   0  0  0  0  0  0  0  0  0  0  0  0
    7.3430   -3.4930   23.5020 C   0  0  0  0  0  0  0  0  0  0  0  0
    6.3210   -4.1840   24.3260 C   0  0  0  0  0  0  0  0  0  0  0  0
    5.7190   -3.2300   25.2580 C   0  0  0  0  0  0  0  0  0  0  0  0
    4.6840   -2.6330   24.9180 O   0  0  0  0  0  0  0  0  0  0  0  0
    6.2910   -3.0290   26.4970 N   0  0  0  0  0  0  0  0  0  0  0  0
    6.0310   -3.9880   27.5680 C   0  0  0  0  0  0  0  0  0  0  0  0
    6.5250   -3.4450   28.8280 C   0  0  0  0  0  0  0  0  0  0  0  0
    5.8630   -2.2250   29.3010 C   0  0  0  0  0  0  0  0  0  0  0  0
    6.6050   -1.1040   29.5960 C   0  0  0  0  0  0  0  0  0  0  0  0
    5.9640    0.0270   30.0740 C   0  0  0  0  0  0  0  0  0  0  0  0
    6.7110    0.7750   30.8380 O   0  0  0  0  0  0  0  0  0  0  0  0
    6.4170    1.2710   32.1010 C   0  0  0  0  0  0  0  0  0  0  0  0
    5.9000    2.5320   32.1060 C   0  0  0  0  0  0  0  0  0  0  0  0
    5.3540    3.0600   33.2380 C   0  0  0  0  0  0  0  0  0  0  0  0
    4.5000    2.2010   33.9290 C   0  0  0  0  0  0  0  0  0  0  0  0
    4.4100    0.7980   33.4620 C   0  0  0  0  0  0  0  0  0  0  0  0
    5.7690    0.3990   32.9330 C   0  0  0  0  0  0  0  0  0  0  0  0
    5.2360   -4.8590   23.5010 C   0  0  0  0  0  0  0  0  0  0  0  0
    5.6950   -5.0800   22.2170 C   0  0  0  0  0  0  0  0  0  0  0  0
  1  2  1  0
  2  3  2  0
  2  4  1  0
  4  5  1  0
  5  6  1  0
  6  7  1  0
  7  8  1  0
  8  9  2  0
  8 10  1  0
 10 11  1  0
 11 12  1  0
 12 13  1  0
 13 14  1  0
 14 15  1  0
 15 16  1  0
 16 17  1  0
 17 18  1  0
 18 19  1  0
 19 20  1  0
 20 21  1  0
 17 22  1  0
 21 22  1  0
  7 23  1  0
  4 24  1  0
 23 24  1  0
M  END
