piperidine-amides-33910-covalent
     RDKit          3D

 30 33  0  0  0  0  0  0  0  0999 V2000
    7.0560   -3.3470   19.2760 C   0  0  0  0  0  0  0  0  0  0  0  0
    6.3870   -4.1620   20.3030 C   0  0  0  0  0  0  0  0  0  0  0  0
    5.3490   -4.7740   19.9600 O   0  0  0  0  0  0  0  0  0  0  0  0
    6.9400   -4.2830   21.6000 N   0  0  0  0  0  0  0  0  0  0  0  0
    6.5360   -5.3710   22.4200 C   0  0  0  0  0  0  0  0  0  0  0  0
    6.1580   -4.9910   23.7860 C   0  0  0  0  0  0  0  0  0  0  0  0
    6.7770   -3.7430   24.3040 C   0  0  0  0  0  0  0  0  0  0  0  0
    6.0040   -3.1690   25.4690 C   0  0  0  0  0  0  0  0  0  0  0  0
    5.5510   -2.0180   25.3830 O   0  0  0  0  0  0  0  0  0  0  0  0
    5.7070   -3.8940   26.6430 N   0  0  0  0  0  0  0  0  0  0  0  0
    4.4660   -4.4140   26.9290 C   0  0  0  0  0  0  0  0  0  0  0  0
    4.4050   -5.4930   27.8810 C   0  0  0  0  0  0  0  0  0  0  0  0
    5.4070   -5.2110   28.9920 C   0  0  0  0  0  0  0  0  0  0  0  0
    6.6820   -4.9360   28.5520 C   0  0  0  0  0  0  0  0  0  0  0  0
    6.3120   -3.5680   27.9280 C   0  0  0  0  0  0  0  0  0  0  0  0
    5.9690   -6.4730   29.5730 C   0  0  0  0  0  0  0  0  0  0  0  0
    5.3920   -6.7680   30.7440 N   0  0  0  0  0  0  0  0  0  0  0  0
    5.7200   -7.8760   31.4650 N   0  0  0  0  0  0  0  0  0  0  0  0
    4.8630   -7.8290   32.6660 C   0  0  0  0  0  0  0  0  0  0  0  0
    4.9440   -8.9060   33.7240 C   0  0  0  0  0  0  0  0  0  0  0  0
    3.7150   -9.4850   34.0990 O   0  0  0  0  0  0  0  0  0  0  0  0
    6.0890   -9.3280   34.3290 N   0  0  0  0  0  0  0  0  0  0  0  0
    6.7830   -8.5530   35.1740 C   0  0  0  0  0  0  0  0  0  0  0  0
    6.4330  -10.6000   34.1000 C   0  0  0  0  0  0  0  0  0  0  0  0
    4.0710   -6.6120   32.5000 C   0  0  0  0  0  0  0  0  0  0  0  0
    4.4050   -5.9880   31.3420 C   0  0  0  0  0  0  0  0  0  0  0  0
    4.0420   -4.8610   30.6750 C   0  0  0  0  0  0  0  0  0  0  0  0
    4.9730   -4.4830   29.9220 O   0  0  0  0  0  0  0  0  0  0  0  0
    6.9190   -2.7090   23.2540 C   0  0  0  0  0  0  0  0  0  0  0  0
    7.6640   -3.1930   22.1970 C   0  0  0  0  0  0  0  0  0  0  0  0
  1  2  1  0
  2  3  2  0
  2  4  1  0
  4  5  1  0
  5  6  1  0
  6  7  1  0
  7  8  1  0
  8  9  2  0
  8 10  1  0
 10 11  1  0
 11 12  1  0
 12 13  1  0
 13 14  1  0
 10 15  1  0
 14 15  1  0
 13 16  1  0
 16 17  1  0
 17 18  1  0
 18 19  2  0
 19 20  1  0
 20 21  2  0
 20 22  1  0
 22 23  1  0
 22 24  1  0
 19 25  1  0
 17 26  1  0
 25 26  2  0
 26 27  1  0
 13 28  1  0
 27 28  1  0
  7 29  1  0
  4 30  1  0
 29 30  1  0
M  END
