piperidine-amides-13556-covalent
     RDKit          3D

 30 32  0  0  0  0  0  0  0  0999 V2000
    7.0630   -3.2900   19.2900 C   0  0  0  0  0  0  0  0  0  0  0  0
    6.3440   -4.1150   20.3020 C   0  0  0  0  0  0  0  0  0  0  0  0
    5.3170   -4.7150   19.9460 O   0  0  0  0  0  0  0  0  0  0  0  0
    6.8530   -4.2530   21.6220 N   0  0  0  0  0  0  0  0  0  0  0  0
    6.6630   -5.4960   22.3410 C   0  0  0  0  0  0  0  0  0  0  0  0
    6.1720   -5.1630   23.7600 C   0  0  0  0  0  0  0  0  0  0  0  0
    6.0560   -3.6820   23.8550 C   0  0  0  0  0  0  0  0  0  0  0  0
    5.6180   -3.1870   25.1870 C   0  0  0  0  0  0  0  0  0  0  0  0
    4.4170   -2.9070   25.2730 O   0  0  0  0  0  0  0  0  0  0  0  0
    6.4860   -3.0610   26.2760 N   0  0  0  0  0  0  0  0  0  0  0  0
    6.1610   -3.3790   27.6250 C   0  0  0  0  0  0  0  0  0  0  0  0
    6.0850   -2.4710   28.6570 C   0  0  0  0  0  0  0  0  0  0  0  0
    5.0120   -2.5180   29.5710 C   0  0  0  0  0  0  0  0  0  0  0  0
    4.8710   -1.6410   30.6360 C   0  0  0  0  0  0  0  0  0  0  0  0
    5.8720   -0.5720   30.8840 C   0  0  0  0  0  0  0  0  0  0  0  0
    5.7230    0.2490   31.9200 O   0  0  0  0  0  0  0  0  0  0  0  0
    6.2450    0.1990   33.1690 C   0  0  0  0  0  0  0  0  0  0  0  0
    5.2940   -0.1130   34.3120 C   0  0  0  0  0  0  0  0  0  0  0  0
    5.7460   -0.1860   35.6280 C   0  0  0  0  0  0  0  0  0  0  0  0
    7.0280    0.0010   36.0640 N   0  0  0  0  0  0  0  0  0  0  0  0
    7.9690    0.2970   35.0330 C   0  0  0  0  0  0  0  0  0  0  0  0
    9.4450    0.5410   35.3020 C   0  0  0  0  0  0  0  0  0  0  0  0
   10.1020    0.1400   36.4740 O   0  0  0  0  0  0  0  0  0  0  0  0
   10.0240    1.2060   34.2990 N   0  0  0  0  0  0  0  0  0  0  0  0
   11.1900    0.6710   33.6380 C   0  0  0  0  0  0  0  0  0  0  0  0
    7.6440    0.4140   33.5300 C   0  0  0  0  0  0  0  0  0  0  0  0
    6.9220   -0.4980   30.0120 C   0  0  0  0  0  0  0  0  0  0  0  0
    7.0240   -1.4820   28.8610 C   0  0  0  0  0  0  0  0  0  0  0  0
    7.3480   -2.9770   23.5170 C   0  0  0  0  0  0  0  0  0  0  0  0
    7.6130   -3.1650   22.1710 C   0  0  0  0  0  0  0  0  0  0  0  0
  1  2  1  0
  2  3  2  0
  2  4  1  0
  4  5  1  0
  5  6  1  0
  6  7  1  0
  7  8  1  0
  8  9  2  0
  8 10  1  0
 10 11  1  0
 11 12  1  0
 12 13  2  0
 13 14  1  0
 14 15  2  0
 15 16  1  0
 16 17  1  0
 17 18  2  0
 18 19  1  0
 19 20  2  0
 20 21  1  0
 21 22  1  0
 22 23  2  0
 22 24  1  0
 24 25  1  0
 17 26  1  0
 21 26  2  0
 15 27  1  0
 12 28  1  0
 27 28  2  0
  7 29  1  0
  4 30  1  0
 29 30  1  0
M  END
