piperidine-amides-469-covalent
     RDKit          3D

 27 28  0  0  0  0  0  0  0  0999 V2000
    7.1230   -3.3470   19.1980 C   0  0  0  0  0  0  0  0  0  0  0  0
    6.4100   -4.0690   20.2260 C   0  0  0  0  0  0  0  0  0  0  0  0
    5.2930   -4.5830   19.9040 O   0  0  0  0  0  0  0  0  0  0  0  0
    6.9250   -4.2940   21.5190 N   0  0  0  0  0  0  0  0  0  0  0  0
    7.8180   -3.2750   22.1190 C   0  0  0  0  0  0  0  0  0  0  0  0
    6.7800   -2.5420   23.0250 C   0  0  0  0  0  0  0  0  0  0  0  0
    6.2270   -3.6280   23.9130 C   0  0  0  0  0  0  0  0  0  0  0  0
    5.3150   -2.9600   25.0240 C   0  0  0  0  0  0  0  0  0  0  0  0
    4.4000   -2.3100   24.5460 O   0  0  0  0  0  0  0  0  0  0  0  0
    5.8000   -3.3020   26.1220 N   0  0  0  0  0  0  0  0  0  0  0  0
    6.3210   -3.7510   27.2620 C   0  0  1  0  0  0  0  0  0  0  0  0
    6.7490   -4.9860   27.6510 C   0  0  0  0  0  0  0  0  0  0  0  0
    5.8160   -5.8310   28.3050 C   0  0  0  0  0  0  0  0  0  0  0  0
    4.8020   -6.6950   27.6840 C   0  0  0  0  0  0  0  0  0  0  0  0
    3.9590   -7.5220   28.6710 C   0  0  0  0  0  0  0  0  0  0  0  0
    4.2200   -7.3850   30.0440 C   0  0  0  0  0  0  0  0  0  0  0  0
    3.5430   -8.0770   30.8170 O   0  0  0  0  0  0  0  0  0  0  0  0
    5.0800   -6.6570   30.8600 C   0  0  0  0  0  0  0  0  0  0  0  0
    5.8330   -5.9060   29.7810 C   0  0  0  0  0  0  0  0  0  0  0  0
    7.4640   -2.7120   27.4840 C   0  0  0  0  0  0  0  0  0  0  0  0
    8.6110   -2.2100   27.4530 O   0  0  0  0  0  0  0  0  0  0  0  0
    8.2110   -3.6690   26.8530 O   0  0  0  0  0  0  0  0  0  0  0  0
    7.9420   -4.9240   27.3590 C   0  0  0  0  0  0  0  0  0  0  0  0
    8.4900   -4.9730   28.5660 C   0  0  0  0  0  0  0  0  0  0  0  0
    8.4230   -6.1040   26.6720 C   0  0  0  0  0  0  0  0  0  0  0  0
    5.5810   -4.8200   23.2680 C   0  0  0  0  0  0  0  0  0  0  0  0
    6.4670   -5.3710   22.3400 C   0  0  0  0  0  0  0  0  0  0  0  0
  1  2  1  0
  2  3  2  0
  2  4  1  0
  4  5  1  0
  5  6  1  0
  6  7  1  0
  7  8  1  0
  8  9  2  0
  8 10  1  0
 10 11  1  0
 11 12  1  6
 12 13  1  0
 13 14  2  0
 14 15  1  0
 15 16  2  0
 16 17  1  0
 16 18  1  0
 13 19  1  0
 18 19  2  0
 11 20  1  0
 20 21  2  0
 20 22  1  0
 22 23  1  0
 23 24  1  0
 23 25  1  0
  7 26  1  0
  4 27  1  0
 26 27  1  0
M  END
