piperidine-amides-33349-covalent
     RDKit          3D

 30 32  0  0  0  0  0  0  0  0999 V2000
    7.1060   -3.2820   19.1680 C   0  0  0  0  0  0  0  0  0  0  0  0
    6.3690   -4.0290   20.1990 C   0  0  0  0  0  0  0  0  0  0  0  0
    5.2590   -4.5010   19.8660 O   0  0  0  0  0  0  0  0  0  0  0  0
    6.9180   -4.2660   21.4840 N   0  0  0  0  0  0  0  0  0  0  0  0
    7.5790   -3.1800   22.1220 C   0  0  0  0  0  0  0  0  0  0  0  0
    7.0920   -2.8540   23.4600 C   0  0  0  0  0  0  0  0  0  0  0  0
    6.4920   -3.9740   24.2230 C   0  0  0  0  0  0  0  0  0  0  0  0
    5.6860   -3.5100   25.4010 C   0  0  0  0  0  0  0  0  0  0  0  0
    4.4450   -3.5860   25.3370 O   0  0  0  0  0  0  0  0  0  0  0  0
    6.2620   -2.9790   26.5750 N   0  0  0  0  0  0  0  0  0  0  0  0
    6.5680   -1.6060   26.7020 C   0  0  0  0  0  0  0  0  0  0  0  0
    5.7180   -0.6270   26.0320 C   0  0  0  0  0  0  0  0  0  0  0  0
    6.3740   -0.1160   24.7870 C   0  0  0  0  0  0  0  0  0  0  0  0
    5.8130    0.8020   23.9640 C   0  0  0  0  0  0  0  0  0  0  0  0
    4.4120    1.3640   24.3170 C   0  0  0  0  0  0  0  0  0  0  0  0
    3.7130    0.8660   25.5820 C   0  0  0  0  0  0  0  0  0  0  0  0
    4.4080   -0.1870   26.4870 C   0  0  0  0  0  0  0  0  0  0  0  0
    6.2600   -3.5680   27.8790 C   0  0  0  0  0  0  0  0  0  0  0  0
    4.9110   -3.7320   28.5530 C   0  0  0  0  0  0  0  0  0  0  0  0
    4.2810   -5.0690   29.0000 C   0  0  0  0  0  0  0  0  0  0  0  0
    2.9330   -5.0450   29.6520 C   0  0  0  0  0  0  0  0  0  0  0  0
    2.1450   -3.9180   29.9130 C   0  0  0  0  0  0  0  0  0  0  0  0
    0.9000   -4.0480   30.5300 O   0  0  0  0  0  0  0  0  0  0  0  0
    0.5920   -3.1200   31.5620 C   0  0  0  0  0  0  0  0  0  0  0  0
   -0.2950   -3.6430   32.6680 C   0  0  0  0  0  0  0  0  0  0  0  0
   -0.5190   -2.6990   33.6600 C   0  0  0  0  0  0  0  0  0  0  0  0
    2.6300   -2.6850   29.5490 C   0  0  0  0  0  0  0  0  0  0  0  0
    3.9780   -2.6060   28.8870 C   0  0  0  0  0  0  0  0  0  0  0  0
    5.5370   -4.7880   23.3550 C   0  0  0  0  0  0  0  0  0  0  0  0
    6.3790   -5.3810   22.2280 C   0  0  0  0  0  0  0  0  0  0  0  0
  1  2  1  0
  2  3  2  0
  2  4  1  0
  4  5  1  0
  5  6  1  0
  6  7  1  0
  7  8  1  0
  8  9  2  0
  8 10  1  0
 10 11  1  0
 11 12  1  0
 12 13  2  0
 13 14  1  0
 14 15  2  0
 15 16  1  0
 12 17  1  0
 16 17  2  0
 10 18  1  0
 18 19  1  0
 19 20  2  0
 20 21  1  0
 21 22  2  0
 22 23  1  0
 23 24  1  0
 24 25  1  0
 25 26  1  0
 22 27  1  0
 19 28  1  0
 27 28  2  0
  7 29  1  0
  4 30  1  0
 29 30  1  0
M  END
