piperidine-amides-768-covalent
     RDKit          3D

 25 26  0  0  0  0  0  0  0  0999 V2000
    7.1410   -3.3350   19.1900 C   0  0  0  0  0  0  0  0  0  0  0  0
    6.3540   -3.9740   20.2140 C   0  0  0  0  0  0  0  0  0  0  0  0
    5.2460   -4.4890   19.8680 O   0  0  0  0  0  0  0  0  0  0  0  0
    6.8000   -4.1140   21.5400 N   0  0  0  0  0  0  0  0  0  0  0  0
    7.6300   -3.0380   22.1270 C   0  0  0  0  0  0  0  0  0  0  0  0
    6.6900   -2.6030   23.3150 C   0  0  0  0  0  0  0  0  0  0  0  0
    6.5430   -3.8450   24.1630 C   0  0  0  0  0  0  0  0  0  0  0  0
    5.8500   -3.5840   25.5680 C   0  0  0  0  0  0  0  0  0  0  0  0
    5.1680   -4.5540   25.8600 O   0  0  0  0  0  0  0  0  0  0  0  0
    6.1290   -2.4450   26.0580 N   0  0  0  0  0  0  0  0  0  0  0  0
    6.2190   -1.2390   26.6990 C   0  0  0  0  0  0  0  0  0  0  0  0
    5.4400   -0.4300   27.5120 C   0  0  0  0  0  0  0  0  0  0  0  0
    4.3830   -0.0470   26.6310 C   0  0  0  0  0  0  0  0  0  0  0  0
    3.9910    1.3850   26.6390 C   0  0  0  0  0  0  0  0  0  0  0  0
    2.7420    1.6380   27.2120 O   0  0  0  0  0  0  0  0  0  0  0  0
    4.8110    2.3510   26.1150 O   0  0  0  0  0  0  0  0  0  0  0  0
    5.2400    1.9150   24.8440 C   0  0  0  0  0  0  0  0  0  0  0  0
    4.1570    1.9190   23.9540 C   0  0  0  0  0  0  0  0  0  0  0  0
    5.9840    0.6790   28.0970 C   0  0  0  0  0  0  0  0  0  0  0  0
    6.5750    0.5060   29.4940 C   0  0  0  0  0  0  0  0  0  0  0  0
    6.8500   -0.9940   29.6400 C   0  0  0  0  0  0  0  0  0  0  0  0
    5.9970   -1.6170   28.7880 C   0  0  0  0  0  0  0  0  0  0  0  0
    4.7250   -1.0770   28.6850 C   0  0  0  0  0  0  0  0  0  0  0  0
    5.9110   -5.0390   23.4520 C   0  0  0  0  0  0  0  0  0  0  0  0
    6.5750   -5.3160   22.2890 C   0  0  0  0  0  0  0  0  0  0  0  0
  1  2  1  0
  2  3  2  0
  2  4  1  0
  4  5  1  0
  5  6  1  0
  6  7  1  0
  7  8  1  0
  8  9  2  0
  8 10  1  0
 10 11  1  0
 12 11  1  0
 12 13  1  0
 13 14  1  0
 14 15  2  0
 14 16  1  0
 16 17  1  0
 17 18  1  0
 12 19  1  0
 19 20  1  0
 20 21  1  0
 21 22  1  0
 12 23  1  0
 22 23  1  0
  7 24  1  0
  4 25  1  0
 24 25  1  0
M  END
