piperidine-amides-3296-covalent
     RDKit          3D

 22 23  0  0  0  0  0  0  0  0999 V2000
    7.0900   -3.3430   19.3270 C   0  0  0  0  0  0  0  0  0  0  0  0
    6.4080   -4.1870   20.2980 C   0  0  0  0  0  0  0  0  0  0  0  0
    5.3890   -4.8020   19.9770 O   0  0  0  0  0  0  0  0  0  0  0  0
    6.9690   -4.3350   21.6120 N   0  0  0  0  0  0  0  0  0  0  0  0
    7.6730   -3.2280   22.1840 C   0  0  0  0  0  0  0  0  0  0  0  0
    6.8600   -2.6790   23.3100 C   0  0  0  0  0  0  0  0  0  0  0  0
    6.4660   -3.8410   24.2080 C   0  0  0  0  0  0  0  0  0  0  0  0
    5.7280   -3.3300   25.3950 C   0  0  0  0  0  0  0  0  0  0  0  0
    4.4800   -3.2180   25.4570 O   0  0  0  0  0  0  0  0  0  0  0  0
    6.5000   -2.9730   26.5170 N   0  0  0  0  0  0  0  0  0  0  0  0
    6.4300   -1.6680   27.1370 C   0  0  0  0  0  0  0  0  0  0  0  0
    5.8820   -0.5180   26.3130 C   0  0  0  0  0  0  0  0  0  0  0  0
    5.7790    0.7720   26.8330 C   0  0  0  0  0  0  0  0  0  0  0  0
    5.3180    1.9760   26.2920 C   0  0  0  0  0  0  0  0  0  0  0  0
    4.3090    2.7340   26.9310 N   0  0  0  0  0  0  0  0  0  0  0  0
    5.8550    2.4500   25.0830 O   0  0  0  0  0  0  0  0  0  0  0  0
    6.2780    0.8900   28.2970 C   0  0  0  0  0  0  0  0  0  0  0  0
    6.7840   -0.2580   29.0050 C   0  0  0  0  0  0  0  0  0  0  0  0
    6.8510   -1.4890   28.4360 C   0  0  0  0  0  0  0  0  0  0  0  0
    7.3120   -2.5270   29.1090 F   0  0  0  0  0  0  0  0  0  0  0  0
    5.5980   -4.8240   23.4260 C   0  0  0  0  0  0  0  0  0  0  0  0
    6.4110   -5.3820   22.4430 C   0  0  0  0  0  0  0  0  0  0  0  0
  1  2  1  0
  2  3  2  0
  2  4  1  0
  4  5  1  0
  5  6  1  0
  6  7  1  0
  7  8  1  0
  8  9  2  0
  8 10  1  0
 10 11  1  0
 11 12  2  0
 12 13  1  0
 13 14  1  0
 14 15  1  0
 14 16  2  0
 13 17  2  0
 17 18  1  0
 11 19  1  0
 18 19  2  0
 19 20  1  0
  7 21  1  0
  4 22  1  0
 21 22  1  0
M  END
