piperidine-amides-33919-covalent
     RDKit          3D

 30 31  0  0  0  0  0  0  0  0999 V2000
    7.0270   -3.3150   19.3090 C   0  0  0  0  0  0  0  0  0  0  0  0
    6.3770   -4.1590   20.3270 C   0  0  0  0  0  0  0  0  0  0  0  0
    5.3360   -4.7530   19.9570 O   0  0  0  0  0  0  0  0  0  0  0  0
    6.9150   -4.3490   21.6300 N   0  0  0  0  0  0  0  0  0  0  0  0
    6.5390   -5.5040   22.3620 C   0  0  0  0  0  0  0  0  0  0  0  0
    6.1110   -5.2640   23.7450 C   0  0  0  0  0  0  0  0  0  0  0  0
    6.7410   -4.1280   24.4790 C   0  0  0  0  0  0  0  0  0  0  0  0
    5.9380   -3.7700   25.7130 C   0  0  0  0  0  0  0  0  0  0  0  0
    4.7920   -3.3050   25.5420 O   0  0  0  0  0  0  0  0  0  0  0  0
    6.4070   -3.9290   27.0660 N   0  0  0  0  0  0  0  0  0  0  0  0
    7.0470   -5.1050   27.6370 C   0  0  0  0  0  0  0  0  0  0  0  0
    6.3680   -6.2000   28.3690 C   0  0  0  0  0  0  0  0  0  0  0  0
    7.0260   -7.3220   28.8910 N   0  0  0  0  0  0  0  0  0  0  0  0
    6.4530   -8.3360   29.8120 C   0  0  0  0  0  0  0  0  0  0  0  0
    5.0770   -8.3100   29.7770 O   0  0  0  0  0  0  0  0  0  0  0  0
    7.2150   -9.1590   30.6140 O   0  0  0  0  0  0  0  0  0  0  0  0
    7.7790  -10.4830   30.7300 C   0  0  0  0  0  0  0  0  0  0  0  0
    8.2500  -11.0060   29.4450 C   0  0  0  0  0  0  0  0  0  0  0  0
    7.5490  -11.3400   32.0050 C   0  0  0  0  0  0  0  0  0  0  0  0
    9.1580  -10.9580   30.5390 C   0  0  0  0  0  0  0  0  0  0  0  0
    6.2860   -2.9590   28.1110 C   0  0  0  0  0  0  0  0  0  0  0  0
    6.5620   -1.4800   27.8700 C   0  0  0  0  0  0  0  0  0  0  0  0
    5.8210   -0.7860   26.7260 C   0  0  0  0  0  0  0  0  0  0  0  0
    4.4330   -0.3640   27.0800 C   0  0  0  0  0  0  0  0  0  0  0  0
    3.6110    0.2870   26.1670 C   0  0  0  0  0  0  0  0  0  0  0  0
    4.0610    0.5610   24.9030 C   0  0  0  0  0  0  0  0  0  0  0  0
    5.4560    0.1380   24.5380 C   0  0  0  0  0  0  0  0  0  0  0  0
    6.2730   -0.5120   25.4530 C   0  0  0  0  0  0  0  0  0  0  0  0
    6.8030   -2.9420   23.5260 C   0  0  0  0  0  0  0  0  0  0  0  0
    7.6310   -3.2980   22.3040 C   0  0  0  0  0  0  0  0  0  0  0  0
  1  2  1  0
  2  3  2  0
  2  4  1  0
  4  5  1  0
  5  6  1  0
  6  7  1  0
  7  8  1  0
  8  9  2  0
  8 10  1  0
 10 11  1  0
 11 12  1  0
 12 13  1  0
 13 14  1  0
 14 15  2  0
 14 16  1  0
 17 16  1  0
 17 18  1  0
 17 19  1  0
 17 20  1  0
 10 21  1  0
 21 22  1  0
 22 23  1  0
 23 24  2  0
 24 25  1  0
 25 26  2  0
 26 27  1  0
 23 28  1  0
 27 28  2  0
  7 29  1  0
  4 30  1  0
 29 30  1  0
M  END
