piperidine-amides-6705-covalent
     RDKit          3D

 23 24  0  0  0  0  0  0  0  0999 V2000
    7.1010   -3.2500   19.1850 C   0  0  0  0  0  0  0  0  0  0  0  0
    6.3350   -4.0000   20.1950 C   0  0  0  0  0  0  0  0  0  0  0  0
    5.2720   -4.5780   19.8880 O   0  0  0  0  0  0  0  0  0  0  0  0
    6.8040   -4.1210   21.5030 N   0  0  0  0  0  0  0  0  0  0  0  0
    6.6330   -5.3840   22.1880 C   0  0  0  0  0  0  0  0  0  0  0  0
    5.9090   -5.0700   23.4970 C   0  0  0  0  0  0  0  0  0  0  0  0
    6.1880   -3.6100   23.7800 C   0  0  0  0  0  0  0  0  0  0  0  0
    5.9360   -3.2900   25.1840 C   0  0  0  0  0  0  0  0  0  0  0  0
    4.7690   -3.0050   25.5360 O   0  0  0  0  0  0  0  0  0  0  0  0
    7.0370   -3.3100   26.0680 N   0  0  0  0  0  0  0  0  0  0  0  0
    7.2630   -4.4300   26.9380 C   0  0  1  0  0  0  0  0  0  0  0  0
    7.6820   -3.7980   28.2340 C   0  0  0  0  0  0  0  0  0  0  0  0
    7.7610   -2.4280   28.2490 C   0  0  0  0  0  0  0  0  0  0  0  0
    8.3900   -1.8440   29.1700 O   0  0  0  0  0  0  0  0  0  0  0  0
    7.6630   -0.9740   29.9220 C   0  0  0  0  0  0  0  0  0  0  0  0
    5.9820   -5.2210   27.0420 C   0  0  0  0  0  0  0  0  0  0  0  0
    5.6990   -5.7230   28.2850 C   0  0  0  0  0  0  0  0  0  0  0  0
    6.7980   -6.5340   29.0440 C   0  0  0  0  0  0  0  0  0  0  0  0
    5.8270   -6.7220   30.1780 C   0  0  0  0  0  0  0  0  0  0  0  0
    4.5250   -6.1360   30.0400 C   0  0  0  0  0  0  0  0  0  0  0  0
    4.4230   -5.5010   28.8550 O   0  0  0  0  0  0  0  0  0  0  0  0
    7.6180   -3.2670   23.4600 C   0  0  0  0  0  0  0  0  0  0  0  0
    7.6580   -3.1020   22.0790 C   0  0  0  0  0  0  0  0  0  0  0  0
  1  2  1  0
  2  3  2  0
  2  4  1  0
  4  5  1  0
  5  6  1  0
  6  7  1  0
  7  8  1  0
  8  9  2  0
  8 10  1  0
 10 11  1  0
 11 12  1  1
 12 13  1  0
 13 14  1  0
 14 15  1  0
 11 16  1  0
 16 17  1  0
 17 18  2  0
 18 19  1  0
 19 20  2  0
 17 21  1  0
 20 21  1  0
  7 22  1  0
  4 23  1  0
 22 23  1  0
M  END
