piperidine-amides-26860-covalent
     RDKit          3D

 24 26  0  0  0  0  0  0  0  0999 V2000
    7.1720   -3.2800   19.2680 C   0  0  0  0  0  0  0  0  0  0  0  0
    6.5150   -4.1420   20.2740 C   0  0  0  0  0  0  0  0  0  0  0  0
    5.4200   -4.6670   19.9620 O   0  0  0  0  0  0  0  0  0  0  0  0
    7.1520   -4.4050   21.4910 N   0  0  0  0  0  0  0  0  0  0  0  0
    7.1330   -5.7800   21.9650 C   0  0  0  0  0  0  0  0  0  0  0  0
    6.7480   -5.7420   23.3890 C   0  0  0  0  0  0  0  0  0  0  0  0
    6.4870   -4.3430   23.8010 C   0  0  0  0  0  0  0  0  0  0  0  0
    6.0020   -4.4270   25.1860 C   0  0  0  0  0  0  0  0  0  0  0  0
    4.9040   -5.0040   25.2710 O   0  0  0  0  0  0  0  0  0  0  0  0
    6.4970   -3.8850   26.3940 N   0  0  0  0  0  0  0  0  0  0  0  0
    5.1720   -3.5430   26.9990 C   0  0  0  0  0  0  0  0  0  0  0  0
    4.9280   -4.4020   28.2250 C   0  0  1  0  0  0  0  0  0  0  0  0
    4.8450   -5.8090   28.2340 C   0  0  0  0  0  0  0  0  0  0  0  0
    4.7380   -6.5330   27.0910 C   0  0  0  0  0  0  0  0  0  0  0  0
    5.8770   -4.0570   28.6490 O   0  0  0  0  0  0  0  0  0  0  0  0
    6.4030   -3.3110   27.7940 C   0  0  0  0  0  0  0  0  0  0  0  0
    6.1430   -2.7580   29.2400 C   0  0  0  0  0  0  0  0  0  0  0  0
    5.8810   -2.1980   30.7040 Cl  0  0  0  0  0  0  0  0  0  0  0  0
    6.5600   -1.5380   29.4620 C   0  0  0  0  0  0  0  0  0  0  0  0
    7.2310   -0.6530   28.5500 C   0  0  0  0  0  0  0  0  0  0  0  0
    7.3570   -1.2640   27.3380 C   0  0  0  0  0  0  0  0  0  0  0  0
    7.0010   -2.5300   26.7090 C   0  0  0  0  0  0  0  0  0  0  0  0
    7.6470   -3.4300   23.5640 C   0  0  0  0  0  0  0  0  0  0  0  0
    7.9960   -3.4200   22.2110 C   0  0  0  0  0  0  0  0  0  0  0  0
  1  2  1  0
  2  3  2  0
  2  4  1  0
  4  5  1  0
  5  6  1  0
  6  7  1  0
  7  8  1  0
  8  9  2  0
  8 10  1  0
 10 11  1  0
 11 12  1  0
 12 13  1  6
 13 14  1  0
 12 15  1  0
 15 16  1  0
 16 17  2  0
 17 18  1  0
 17 19  1  0
 19 20  2  0
 20 21  1  0
 10 22  1  0
 16 22  1  0
 21 22  2  0
  7 23  1  0
  4 24  1  0
 23 24  1  0
M  END
