piperidine-amides-16176-covalent
     RDKit          3D

 19 20  0  0  0  0  0  0  0  0999 V2000
    7.0390   -3.3390   19.3020 C   0  0  0  0  0  0  0  0  0  0  0  0
    6.3700   -4.1900   20.3210 C   0  0  0  0  0  0  0  0  0  0  0  0
    5.3600   -4.8000   19.9670 O   0  0  0  0  0  0  0  0  0  0  0  0
    6.9050   -4.3180   21.6040 N   0  0  0  0  0  0  0  0  0  0  0  0
    6.7040   -5.5110   22.3910 C   0  0  0  0  0  0  0  0  0  0  0  0
    6.0950   -5.1720   23.7290 C   0  0  0  0  0  0  0  0  0  0  0  0
    6.1850   -3.6610   23.9690 C   0  0  0  0  0  0  0  0  0  0  0  0
    5.6940   -3.3330   25.3250 C   0  0  0  0  0  0  0  0  0  0  0  0
    4.7600   -2.5310   25.4140 O   0  0  0  0  0  0  0  0  0  0  0  0
    6.1900   -3.8850   26.5200 N   0  0  0  0  0  0  0  0  0  0  0  0
    5.3660   -3.6890   27.6900 C   0  0  0  0  0  0  0  0  0  0  0  0
    6.3650   -4.0740   28.7080 C   0  0  0  0  0  0  0  0  0  0  0  0
    7.5580   -4.3980   28.1580 C   0  0  0  0  0  0  0  0  0  0  0  0
    7.5840   -4.1040   26.8220 C   0  0  1  0  0  0  0  0  0  0  0  0
    8.2630   -5.0270   26.0890 C   0  0  0  0  0  0  0  0  0  0  0  0
    9.3270   -5.8820   26.7310 C   0  0  0  0  0  0  0  0  0  0  0  0
    9.4960   -5.6680   28.0660 O   0  0  0  0  0  0  0  0  0  0  0  0
    7.5190   -3.1090   23.6150 C   0  0  0  0  0  0  0  0  0  0  0  0
    7.7250   -3.2410   22.1450 C   0  0  0  0  0  0  0  0  0  0  0  0
  1  2  1  0
  2  3  2  0
  2  4  1  0
  4  5  1  0
  5  6  1  0
  6  7  1  0
  7  8  1  0
  8  9  2  0
  8 10  1  0
 10 11  1  0
 11 12  1  0
 12 13  1  0
 10 14  1  0
 13 14  1  0
 14 15  1  6
 15 16  1  0
 16 17  1  0
  7 18  1  0
  4 19  1  0
 18 19  1  0
M  END
