piperidine-amides-11929-covalent
     RDKit          3D

 26 27  0  0  0  0  0  0  0  0999 V2000
    7.0890   -3.2970   19.2350 C   0  0  0  0  0  0  0  0  0  0  0  0
    6.3410   -4.0570   20.2280 C   0  0  0  0  0  0  0  0  0  0  0  0
    5.2920   -4.6100   19.9090 O   0  0  0  0  0  0  0  0  0  0  0  0
    6.8530   -4.2100   21.5640 N   0  0  0  0  0  0  0  0  0  0  0  0
    7.6770   -3.1780   22.1520 C   0  0  0  0  0  0  0  0  0  0  0  0
    7.3350   -2.9910   23.6050 C   0  0  0  0  0  0  0  0  0  0  0  0
    5.9790   -3.6360   23.8340 C   0  0  0  0  0  0  0  0  0  0  0  0
    5.4500   -3.3380   25.1880 C   0  0  0  0  0  0  0  0  0  0  0  0
    4.2820   -2.9570   25.3790 O   0  0  0  0  0  0  0  0  0  0  0  0
    6.3140   -3.4990   26.2790 N   0  0  0  0  0  0  0  0  0  0  0  0
    5.8380   -3.1550   27.5860 C   0  0  1  0  0  0  0  0  0  0  0  0
    5.3260   -4.4090   28.2470 C   0  0  0  0  0  0  0  0  0  0  0  0
    6.1520   -5.3540   28.8900 C   0  0  0  0  0  0  0  0  0  0  0  0
    5.6600   -6.5230   29.5190 C   0  0  0  0  0  0  0  0  0  0  0  0
    4.3150   -6.7640   29.5180 C   0  0  0  0  0  0  0  0  0  0  0  0
    3.5630   -7.8580   30.0920 C   0  0  0  0  0  0  0  0  0  0  0  0
    3.4790   -5.9120   28.9240 C   0  0  0  0  0  0  0  0  0  0  0  0
    3.9030   -4.7820   28.3060 C   0  0  0  0  0  0  0  0  0  0  0  0
    6.5650   -2.3460   28.3740 C   0  0  1  0  0  0  0  0  0  0  0  0
    7.1760   -1.1850   27.7460 C   0  0  0  0  0  0  0  0  0  0  0  0
    5.6110   -1.4290   29.5970 S   0  0  0  0  0  0  0  0  0  0  0  0
    6.7130   -0.5350   30.6590 C   0  0  0  0  0  0  0  0  0  0  0  0
    4.7340   -0.4260   28.9280 O   0  0  0  0  0  0  0  0  0  0  0  0
    4.7530   -2.3120   30.4280 O   0  0  0  0  0  0  0  0  0  0  0  0
    6.0610   -5.1190   23.6390 C   0  0  0  0  0  0  0  0  0  0  0  0
    6.5420   -5.4110   22.2590 C   0  0  0  0  0  0  0  0  0  0  0  0
  1  2  1  0
  2  3  2  0
  2  4  1  0
  4  5  1  0
  5  6  1  0
  6  7  1  0
  7  8  1  0
  8  9  2  0
  8 10  1  0
 11 10  1  6
 11 12  1  0
 12 13  2  0
 13 14  1  0
 14 15  2  0
 15 16  1  0
 15 17  1  0
 12 18  1  0
 17 18  2  0
 11 19  1  0
 19 20  1  6
 19 21  1  0
 21 22  1  0
 21 23  2  0
 21 24  2  0
  7 25  1  0
  4 26  1  0
 25 26  1  0
M  END
