piperidine-amides-31136-covalent
     RDKit          3D

 25 27  0  0  0  0  0  0  0  0999 V2000
    7.0800   -3.3340   19.3230 C   0  0  0  0  0  0  0  0  0  0  0  0
    6.4040   -4.1570   20.3250 C   0  0  0  0  0  0  0  0  0  0  0  0
    5.3870   -4.7890   19.9780 O   0  0  0  0  0  0  0  0  0  0  0  0
    6.8960   -4.3040   21.6400 N   0  0  0  0  0  0  0  0  0  0  0  0
    6.6480   -5.5120   22.4010 C   0  0  0  0  0  0  0  0  0  0  0  0
    6.1970   -5.0820   23.7820 C   0  0  0  0  0  0  0  0  0  0  0  0
    6.1400   -3.5850   23.9220 C   0  0  0  0  0  0  0  0  0  0  0  0
    5.5250   -3.1000   25.1790 C   0  0  0  0  0  0  0  0  0  0  0  0
    4.4030   -2.5200   25.1260 O   0  0  0  0  0  0  0  0  0  0  0  0
    6.0680   -3.2400   26.4710 N   0  0  0  0  0  0  0  0  0  0  0  0
    6.2440   -1.9610   27.2410 C   0  0  0  0  0  0  0  0  0  0  0  0
    6.9250   -1.9250   28.5330 C   0  0  0  0  0  0  0  0  0  0  0  0
    7.0620   -0.6550   29.2560 C   0  0  0  0  0  0  0  0  0  0  0  0
    6.5160    0.6500   28.7090 C   0  0  0  0  0  0  0  0  0  0  0  0
    6.7600    2.0930   29.7210 Cl  0  0  0  0  0  0  0  0  0  0  0  0
    5.8040    0.6530   27.3550 C   0  0  0  0  0  0  0  0  0  0  0  0
    5.1070    2.0770   26.5510 Cl  0  0  0  0  0  0  0  0  0  0  0  0
    5.7200   -0.6900   26.7020 C   0  0  0  0  0  0  0  0  0  0  0  0
    5.6690   -4.4880   27.0940 C   0  0  0  0  0  0  0  0  0  0  0  0
    4.2660   -4.6740   27.1850 C   0  0  0  0  0  0  0  0  0  0  0  0
    3.9410   -5.7040   28.2340 C   0  0  0  0  0  0  0  0  0  0  0  0
    5.2140   -5.7180   29.0240 C   0  0  0  0  0  0  0  0  0  0  0  0
    6.0610   -4.6180   28.4380 C   0  0  0  0  0  0  0  0  0  0  0  0
    7.4720   -3.0240   23.6000 C   0  0  0  0  0  0  0  0  0  0  0  0
    7.7060   -3.2250   22.1600 C   0  0  0  0  0  0  0  0  0  0  0  0
  1  2  1  0
  2  3  2  0
  2  4  1  0
  4  5  1  0
  5  6  1  0
  6  7  1  0
  7  8  1  0
  8  9  2  0
  8 10  1  0
 10 11  1  0
 11 12  2  0
 12 13  1  0
 13 14  2  0
 14 15  1  0
 14 16  1  0
 16 17  1  0
 11 18  1  0
 16 18  2  0
 10 19  1  0
 19 20  1  0
 20 21  1  0
 21 22  1  0
 19 23  1  0
 22 23  1  0
  7 24  1  0
  4 25  1  0
 24 25  1  0
M  END
