piperidine-amides-10367-covalent
     RDKit          3D

 24 25  0  0  0  0  0  0  0  0999 V2000
    7.0740   -3.2740   19.2390 C   0  0  0  0  0  0  0  0  0  0  0  0
    6.3460   -4.0220   20.2750 C   0  0  0  0  0  0  0  0  0  0  0  0
    5.2940   -4.6040   19.9030 O   0  0  0  0  0  0  0  0  0  0  0  0
    6.8280   -4.1090   21.5870 N   0  0  0  0  0  0  0  0  0  0  0  0
    7.7540   -3.1380   22.1340 C   0  0  0  0  0  0  0  0  0  0  0  0
    7.4460   -2.9860   23.5890 C   0  0  0  0  0  0  0  0  0  0  0  0
    6.0890   -3.5550   23.8820 C   0  0  0  0  0  0  0  0  0  0  0  0
    5.6100   -3.1650   25.2260 C   0  0  0  0  0  0  0  0  0  0  0  0
    4.4590   -2.6880   25.3090 O   0  0  0  0  0  0  0  0  0  0  0  0
    6.3540   -3.3090   26.4080 N   0  0  0  0  0  0  0  0  0  0  0  0
    5.8600   -4.1550   27.4630 C   0  0  2  0  0  0  0  0  0  0  0  0
    6.4690   -3.6830   28.7740 C   0  0  0  0  0  0  0  0  0  0  0  0
    6.1560   -2.4790   29.3580 C   0  0  0  0  0  0  0  0  0  0  0  0
    4.8950   -2.2770   29.9010 C   0  0  0  0  0  0  0  0  0  0  0  0
    4.5780   -1.0810   30.4930 C   0  0  0  0  0  0  0  0  0  0  0  0
    5.4660   -0.1080   30.5560 N   0  0  0  0  0  0  0  0  0  0  0  0
    6.6760   -0.3070   30.0320 C   0  0  0  0  0  0  0  0  0  0  0  0
    7.1250   -1.4660   29.4040 C   0  0  0  0  0  0  0  0  0  0  0  0
    5.8630   -5.5300   27.1860 C   0  0  0  0  0  0  0  0  0  0  0  0
    5.7450   -6.8780   27.3570 O   0  0  0  0  0  0  0  0  0  0  0  0
    5.5200   -5.7220   28.4730 O   0  0  0  0  0  0  0  0  0  0  0  0
    6.1900   -6.7080   29.2820 C   0  0  0  0  0  0  0  0  0  0  0  0
    6.0690   -5.0770   23.6730 C   0  0  0  0  0  0  0  0  0  0  0  0
    6.6750   -5.3740   22.3060 C   0  0  0  0  0  0  0  0  0  0  0  0
  1  2  1  0
  2  3  2  0
  2  4  1  0
  4  5  1  0
  5  6  1  0
  6  7  1  0
  7  8  1  0
  8  9  2  0
  8 10  1  0
 10 11  1  0
 11 12  1  1
 12 13  1  0
 13 14  2  0
 14 15  1  0
 15 16  2  0
 16 17  1  0
 13 18  1  0
 17 18  2  0
 11 19  1  0
 19 20  2  0
 19 21  1  0
 21 22  1  0
  7 23  1  0
  4 24  1  0
 23 24  1  0
M  END
