piperidine-amides-29087-covalent
     RDKit          3D

 27 30  0  0  0  0  0  0  0  0999 V2000
    6.9900   -3.3460   19.3540 C   0  0  0  0  0  0  0  0  0  0  0  0
    6.3120   -4.2070   20.3270 C   0  0  0  0  0  0  0  0  0  0  0  0
    5.3070   -4.8290   19.9580 O   0  0  0  0  0  0  0  0  0  0  0  0
    6.8090   -4.3630   21.6400 N   0  0  0  0  0  0  0  0  0  0  0  0
    7.5450   -3.2840   22.2250 C   0  0  0  0  0  0  0  0  0  0  0  0
    7.2800   -3.2880   23.6900 C   0  0  0  0  0  0  0  0  0  0  0  0
    5.9410   -3.9310   23.9040 C   0  0  0  0  0  0  0  0  0  0  0  0
    5.3380   -3.5020   25.2200 C   0  0  0  0  0  0  0  0  0  0  0  0
    4.5780   -2.5440   25.1620 O   0  0  0  0  0  0  0  0  0  0  0  0
    5.6470   -4.1760   26.4030 N   0  0  0  0  0  0  0  0  0  0  0  0
    6.9540   -4.5530   26.5900 C   0  0  0  0  0  0  0  0  0  0  0  0
    7.1760   -5.6210   27.4320 C   0  0  0  0  0  0  0  0  0  0  0  0
    6.7700   -5.3230   28.6770 C   0  0  0  0  0  0  0  0  0  0  0  0
    5.6560   -4.4280   28.6750 N   0  0  0  0  0  0  0  0  0  0  0  0
    4.9290   -3.9670   29.7980 N   0  0  0  0  0  0  0  0  0  0  0  0
    4.0130   -3.1690   29.2500 C   0  0  0  0  0  0  0  0  0  0  0  0
    3.1860   -2.6270   30.3770 C   0  0  0  0  0  0  0  0  0  0  0  0
    2.4340   -1.2830   30.1490 C   0  0  0  0  0  0  0  0  0  0  0  0
    1.6330   -0.7980   31.3070 C   0  0  0  0  0  0  0  0  0  0  0  0
    1.6420   -1.6420   32.5380 C   0  0  0  0  0  0  0  0  0  0  0  0
    0.8320   -1.2010   33.7840 C   0  0  0  0  0  0  0  0  0  0  0  0
    2.3410   -2.8110   32.6280 C   0  0  0  0  0  0  0  0  0  0  0  0
    3.0910   -3.2930   31.5840 C   0  0  0  0  0  0  0  0  0  0  0  0
    5.0230   -3.9550   29.0130 C   0  0  0  0  0  0  0  0  0  0  0  0
    4.9510   -3.7450   27.6050 C   0  0  0  0  0  0  0  0  0  0  0  0
    6.1510   -5.4300   23.7750 C   0  0  0  0  0  0  0  0  0  0  0  0
    6.5800   -5.6340   22.3050 C   0  0  0  0  0  0  0  0  0  0  0  0
  1  2  1  0
  2  3  2  0
  2  4  1  0
  4  5  1  0
  5  6  1  0
  6  7  1  0
  7  8  1  0
  8  9  2  0
  8 10  1  0
 10 11  1  0
 11 12  1  0
 12 13  1  0
 13 14  1  0
 14 15  1  0
 15 16  2  0
 16 17  1  0
 17 18  2  0
 18 19  1  0
 19 20  2  0
 20 21  1  0
 20 22  1  0
 17 23  1  0
 22 23  2  0
 16 24  1  0
 10 25  1  0
 14 25  1  0
 24 25  2  0
  7 26  1  0
  4 27  1  0
 26 27  1  0
M  END
