piperidine-amides-13830-covalent
     RDKit          3D

 26 28  0  0  0  0  0  0  0  0999 V2000
    7.3040   -3.1200   18.8630 C   0  0  0  0  0  0  0  0  0  0  0  0
    6.3240   -3.5630   19.8740 C   0  0  0  0  0  0  0  0  0  0  0  0
    5.2110   -4.0130   19.5630 O   0  0  0  0  0  0  0  0  0  0  0  0
    6.7050   -3.5000   21.1950 N   0  0  0  0  0  0  0  0  0  0  0  0
    7.6120   -2.4870   21.6830 C   0  0  0  0  0  0  0  0  0  0  0  0
    7.3890   -2.2670   23.1860 C   0  0  0  0  0  0  0  0  0  0  0  0
    5.9180   -2.1980   23.4790 C   0  0  0  0  0  0  0  0  0  0  0  0
    5.5850   -2.0430   24.9110 C   0  0  0  0  0  0  0  0  0  0  0  0
    4.4910   -2.5200   25.2490 O   0  0  0  0  0  0  0  0  0  0  0  0
    6.4400   -1.4030   25.8310 N   0  0  0  0  0  0  0  0  0  0  0  0
    6.6020   -1.9080   27.1370 C   0  0  0  0  0  0  0  0  0  0  0  0
    6.5280   -3.2630   27.2180 C   0  0  1  0  0  0  0  0  0  0  0  0
    6.8590   -4.0910   28.3240 C   0  0  0  0  0  0  0  0  0  0  0  0
    5.9930   -4.1690   29.3390 C   0  0  0  0  0  0  0  0  0  0  0  0
    4.5730   -4.1710   29.0360 C   0  0  0  0  0  0  0  0  0  0  0  0
    4.2390   -3.3360   27.8130 C   0  0  0  0  0  0  0  0  0  0  0  0
    5.2120   -3.5200   26.7970 N   0  0  0  0  0  0  0  0  0  0  0  0
    4.9690   -4.5760   25.8920 C   0  0  0  0  0  0  0  0  0  0  0  0
    5.7440   -4.8120   24.7550 C   0  0  0  0  0  0  0  0  0  0  0  0
    5.2830   -5.9090   23.9000 C   0  0  0  0  0  0  0  0  0  0  0  0
    6.1080   -6.2020   22.6520 C   0  0  0  0  0  0  0  0  0  0  0  0
    7.2390   -5.7070   22.0470 C   0  0  0  0  0  0  0  0  0  0  0  0
    7.5670   -4.5810   23.0760 C   0  0  0  0  0  0  0  0  0  0  0  0
    6.8630   -4.1620   24.3410 C   0  0  0  0  0  0  0  0  0  0  0  0
    5.1030   -3.3800   22.9650 C   0  0  0  0  0  0  0  0  0  0  0  0
    5.8950   -4.2670   22.1020 C   0  0  0  0  0  0  0  0  0  0  0  0
  1  2  1  0
  2  3  2  0
  2  4  1  0
  4  5  1  0
  5  6  1  0
  6  7  1  0
  7  8  1  0
  8  9  2  0
  8 10  1  0
 10 11  1  0
 12 11  1  1
 12 13  1  0
 13 14  1  0
 14 15  1  0
 15 16  1  0
 12 17  1  0
 16 17  1  0
 17 18  1  0
 18 19  1  0
 19 20  2  0
 20 21  1  0
 21 22  2  0
 22 23  1  0
 19 24  1  0
 23 24  2  0
  7 25  1  0
  4 26  1  0
 25 26  1  0
M  END
