piperidine-amides-31401-covalent
     RDKit          3D

 26 28  0  0  0  0  0  0  0  0999 V2000
    7.7630   -4.0530   20.1690 C   0  0  0  0  0  0  0  0  0  0  0  0
    6.3030   -3.9640   19.9720 C   0  0  0  0  0  0  0  0  0  0  0  0
    5.6140   -5.0360   19.9790 O   0  0  0  0  0  0  0  0  0  0  0  0
    5.5780   -2.7530   19.8800 N   0  0  0  0  0  0  0  0  0  0  0  0
    5.2070   -2.3390   21.2670 C   0  0  0  0  0  0  0  0  0  0  0  0
    5.1520   -0.7880   21.2090 C   0  0  0  0  0  0  0  0  0  0  0  0
    6.5190   -0.6710   20.6850 C   0  0  0  0  0  0  0  0  0  0  0  0
    7.3860   -1.9840   20.8980 C   0  0  0  0  0  0  0  0  0  0  0  0
    7.8200   -1.6340   19.8310 O   0  0  0  0  0  0  0  0  0  0  0  0
    6.7880   -2.1590   22.0000 N   0  0  0  0  0  0  0  0  0  0  0  0
    6.0990   -2.1670   23.1080 C   0  0  0  0  0  0  0  0  0  0  0  0
    6.0770   -3.4340   23.3660 C   0  0  0  0  0  0  0  0  0  0  0  0
    6.9350   -3.6400   22.2220 C   0  0  0  0  0  0  0  0  0  0  0  0
    7.0160   -3.8430   24.4610 C   0  0  1  0  0  0  0  0  0  0  0  0
    5.9150   -3.5860   25.5220 C   0  0  0  0  0  0  0  0  0  0  0  0
    4.5280   -3.8220   25.3990 O   0  0  0  0  0  0  0  0  0  0  0  0
    6.4910   -3.0070   26.7190 N   0  0  0  0  0  0  0  0  0  0  0  0
    6.3900   -3.8340   27.8760 C   0  0  0  0  0  0  0  0  0  0  0  0
    6.7870   -1.5840   26.7830 C   0  0  0  0  0  0  0  0  0  0  0  0
    7.4500   -5.1370   23.9130 C   0  0  0  0  0  0  0  0  0  0  0  0
    6.5300   -5.7410   22.8620 C   0  0  0  0  0  0  0  0  0  0  0  0
    5.1270   -4.7760   22.9410 S   0  0  0  0  0  0  0  0  0  0  0  0
    4.1190   -5.0840   24.0050 O   0  0  0  0  0  0  0  0  0  0  0  0
    4.5120   -4.6530   21.6120 O   0  0  0  0  0  0  0  0  0  0  0  0
    6.3270   -0.5580   19.1970 C   0  0  0  0  0  0  0  0  0  0  0  0
    5.8050   -1.7620   18.7860 C   0  0  0  0  0  0  0  0  0  0  0  0
  1  2  1  0
  2  3  2  0
  2  4  1  0
  4  5  1  0
  5  6  1  0
  6  7  1  0
  7  8  1  0
  8  9  2  0
  8 10  1  0
 10 11  1  0
 12 11  1  0
 10 13  1  0
 12 13  1  0
 12 14  1  0
 14 15  1  1
 15 16  2  0
 15 17  1  0
 17 18  1  0
 17 19  1  0
 14 20  1  0
 20 21  1  0
 12 22  1  0
 22 21  1  0
 22 23  2  0
 22 24  2  0
  7 25  1  0
  4 26  1  0
 25 26  1  0
M  END
