piperidine-amides-2455-covalent
     RDKit          3D

 26 28  0  0  0  0  0  0  0  0999 V2000
    7.1080   -3.2640   19.2530 C   0  0  0  0  0  0  0  0  0  0  0  0
    6.3630   -4.0570   20.2620 C   0  0  0  0  0  0  0  0  0  0  0  0
    5.3080   -4.5770   19.8990 O   0  0  0  0  0  0  0  0  0  0  0  0
    6.8840   -4.2240   21.5440 N   0  0  0  0  0  0  0  0  0  0  0  0
    7.6040   -3.1600   22.1960 C   0  0  0  0  0  0  0  0  0  0  0  0
    6.7750   -2.6460   23.3420 C   0  0  0  0  0  0  0  0  0  0  0  0
    6.3510   -3.7920   24.2750 C   0  0  0  0  0  0  0  0  0  0  0  0
    5.4620   -3.2270   25.3140 C   0  0  0  0  0  0  0  0  0  0  0  0
    4.3170   -2.8850   25.0010 O   0  0  0  0  0  0  0  0  0  0  0  0
    5.8930   -3.0630   26.6520 N   0  0  0  0  0  0  0  0  0  0  0  0
    5.9220   -4.2160   27.5260 C   0  0  2  0  0  0  0  0  0  0  0  0
    6.6410   -5.2810   26.7740 C   0  0  0  0  0  0  0  0  0  0  0  0
    7.9290   -5.0660   26.6380 C   0  0  0  0  0  0  0  0  0  0  0  0
    8.3190   -4.6660   25.4230 C   0  0  0  0  0  0  0  0  0  0  0  0
    9.5810   -4.4210   25.2770 C   0  0  0  0  0  0  0  0  0  0  0  0
   10.6410   -4.5340   26.2570 C   0  0  0  0  0  0  0  0  0  0  0  0
   10.0830   -4.9900   27.5830 C   0  0  0  0  0  0  0  0  0  0  0  0
    8.6480   -5.3150   27.9250 C   0  0  0  0  0  0  0  0  0  0  0  0
    4.6390   -4.9010   27.8230 C   0  0  0  0  0  0  0  0  0  0  0  0
    4.1980   -6.5000   27.3470 S   0  0  0  0  0  0  0  0  0  0  0  0
    2.6490   -6.6210   28.0130 C   0  0  0  0  0  0  0  0  0  0  0  0
    2.4400   -5.2980   28.6730 C   0  0  0  0  0  0  0  0  0  0  0  0
    3.5000   -4.2570   28.6260 C   0  0  0  0  0  0  0  0  0  0  0  0
    3.5640   -2.8610   29.1940 C   0  0  0  0  0  0  0  0  0  0  0  0
    5.5940   -4.8340   23.4700 C   0  0  0  0  0  0  0  0  0  0  0  0
    6.4030   -5.3320   22.3000 C   0  0  0  0  0  0  0  0  0  0  0  0
  1  2  1  0
  2  3  2  0
  2  4  1  0
  4  5  1  0
  5  6  1  0
  6  7  1  0
  7  8  1  0
  8  9  2  0
  8 10  1  0
 10 11  1  0
 11 12  1  6
 12 13  1  0
 13 14  2  0
 14 15  1  0
 15 16  2  0
 16 17  1  0
 13 18  1  0
 17 18  2  0
 11 19  1  0
 19 20  1  0
 20 21  1  0
 21 22  2  0
 19 23  2  0
 22 23  1  0
 23 24  1  0
  7 25  1  0
  4 26  1  0
 25 26  1  0
M  END
