piperidine-amides-12614-covalent
     RDKit          3D

 23 24  0  0  0  0  0  0  0  0999 V2000
    7.0810   -3.2660   19.2330 C   0  0  0  0  0  0  0  0  0  0  0  0
    6.3210   -4.0400   20.2490 C   0  0  0  0  0  0  0  0  0  0  0  0
    5.2570   -4.5600   19.8740 O   0  0  0  0  0  0  0  0  0  0  0  0
    6.8020   -4.2040   21.5530 N   0  0  0  0  0  0  0  0  0  0  0  0
    7.5810   -3.1830   22.1470 C   0  0  0  0  0  0  0  0  0  0  0  0
    7.3440   -3.0900   23.5720 C   0  0  0  0  0  0  0  0  0  0  0  0
    6.0240   -3.5970   23.9990 C   0  0  0  0  0  0  0  0  0  0  0  0
    5.8430   -3.4540   25.4690 C   0  0  0  0  0  0  0  0  0  0  0  0
    4.6720   -3.3670   25.8930 O   0  0  0  0  0  0  0  0  0  0  0  0
    6.9330   -3.4050   26.3700 N   0  0  0  0  0  0  0  0  0  0  0  0
    7.3860   -4.5620   27.1840 C   0  0  0  0  0  0  0  0  0  0  0  0
    8.6500   -5.1800   26.6730 C   0  0  0  0  0  0  0  0  0  0  0  0
    9.7680   -4.5970   26.7850 O   0  0  0  0  0  0  0  0  0  0  0  0
   10.1000   -3.6840   25.9020 C   0  0  0  0  0  0  0  0  0  0  0  0
    9.2780   -2.7790   25.2840 C   0  0  0  0  0  0  0  0  0  0  0  0
    9.6400   -1.8250   24.3650 C   0  0  0  0  0  0  0  0  0  0  0  0
   10.9420   -1.7630   24.0320 C   0  0  0  0  0  0  0  0  0  0  0  0
   11.5120   -0.5640   22.8580 Cl  0  0  0  0  0  0  0  0  0  0  0  0
   11.8010   -2.6290   24.6110 C   0  0  0  0  0  0  0  0  0  0  0  0
   13.4960   -2.4810   24.1290 Cl  0  0  0  0  0  0  0  0  0  0  0  0
   11.4160   -3.5730   25.5220 C   0  0  0  0  0  0  0  0  0  0  0  0
    5.7620   -5.0140   23.5210 C   0  0  0  0  0  0  0  0  0  0  0  0
    6.5970   -5.3990   22.3480 C   0  0  0  0  0  0  0  0  0  0  0  0
  1  2  1  0
  2  3  2  0
  2  4  1  0
  4  5  1  0
  5  6  1  0
  6  7  1  0
  7  8  1  0
  8  9  2  0
  8 10  1  0
 10 11  1  0
 11 12  1  0
 12 13  1  0
 13 14  1  0
 14 15  2  0
 15 16  1  0
 16 17  2  0
 17 18  1  0
 17 19  1  0
 19 20  1  0
 14 21  1  0
 19 21  2  0
  7 22  1  0
  4 23  1  0
 22 23  1  0
M  END
