piperidine-amides-25413-covalent
     RDKit          3D

 25 27  0  0  0  0  0  0  0  0999 V2000
    7.1120   -3.2980   19.2170 C   0  0  0  0  0  0  0  0  0  0  0  0
    6.3670   -4.1090   20.2170 C   0  0  0  0  0  0  0  0  0  0  0  0
    5.2830   -4.5700   19.8840 O   0  0  0  0  0  0  0  0  0  0  0  0
    6.9280   -4.3720   21.4580 N   0  0  0  0  0  0  0  0  0  0  0  0
    6.4770   -5.5150   22.2070 C   0  0  0  0  0  0  0  0  0  0  0  0
    5.7190   -5.0180   23.4030 C   0  0  0  0  0  0  0  0  0  0  0  0
    6.6210   -4.0510   24.1700 C   0  0  0  0  0  0  0  0  0  0  0  0
    5.9450   -3.6170   25.3850 C   0  0  0  0  0  0  0  0  0  0  0  0
    4.7980   -3.1450   25.3500 O   0  0  0  0  0  0  0  0  0  0  0  0
    6.6310   -3.7590   26.5850 N   0  0  0  0  0  0  0  0  0  0  0  0
    5.8180   -3.4890   27.7570 C   0  0  0  0  0  0  0  0  0  0  0  0
    6.1080   -4.5430   28.7860 C   0  0  0  0  0  0  0  0  0  0  0  0
    7.1860   -5.3550   28.6600 C   0  0  0  0  0  0  0  0  0  0  0  0
    7.5680   -5.6050   27.3970 C   0  0  0  0  0  0  0  0  0  0  0  0
    7.8670   -4.4700   26.7270 C   0  0  1  0  0  0  0  0  0  0  0  0
    8.6940   -4.4200   25.4380 C   0  0  0  0  0  0  0  0  0  0  0  0
   10.0490   -4.5640   26.0750 C   0  0  0  0  0  0  0  0  0  0  0  0
   10.8850   -3.4940   25.3700 C   0  0  0  0  0  0  0  0  0  0  0  0
   10.1280   -2.5520   24.5010 C   0  0  0  0  0  0  0  0  0  0  0  0
   10.9340   -1.5080   23.8080 C   0  0  0  0  0  0  0  0  0  0  0  0
   12.4370   -1.4450   24.0070 C   0  0  0  0  0  0  0  0  0  0  0  0
   13.1010   -2.4300   24.8960 C   0  0  0  0  0  0  0  0  0  0  0  0
   12.2510   -3.4780   25.5850 C   0  0  0  0  0  0  0  0  0  0  0  0
    6.9050   -2.8520   23.3150 C   0  0  0  0  0  0  0  0  0  0  0  0
    7.6230   -3.2840   22.0830 C   0  0  0  0  0  0  0  0  0  0  0  0
  1  2  1  0
  2  3  2  0
  2  4  1  0
  4  5  1  0
  5  6  1  0
  6  7  1  0
  7  8  1  0
  8  9  2  0
  8 10  1  0
 10 11  1  0
 11 12  1  0
 12 13  1  0
 13 14  1  0
 10 15  1  0
 14 15  1  0
 15 16  1  6
 16 17  1  0
 17 18  1  0
 18 19  2  0
 19 20  1  0
 20 21  2  0
 21 22  1  0
 18 23  1  0
 22 23  2  0
  7 24  1  0
  4 25  1  0
 24 25  1  0
M  END
