piperidine-amides-12710-covalent
     RDKit          3D

 22 23  0  0  0  0  0  0  0  0999 V2000
    7.0690   -3.3400   19.2660 C   0  0  0  0  0  0  0  0  0  0  0  0
    6.3630   -4.1430   20.2880 C   0  0  0  0  0  0  0  0  0  0  0  0
    5.3080   -4.7000   19.9330 O   0  0  0  0  0  0  0  0  0  0  0  0
    6.9010   -4.3040   21.5690 N   0  0  0  0  0  0  0  0  0  0  0  0
    7.6070   -3.2140   22.1560 C   0  0  0  0  0  0  0  0  0  0  0  0
    7.0060   -2.7790   23.3940 C   0  0  0  0  0  0  0  0  0  0  0  0
    6.6030   -3.9080   24.2430 C   0  0  0  0  0  0  0  0  0  0  0  0
    5.8430   -3.3910   25.3930 C   0  0  0  0  0  0  0  0  0  0  0  0
    4.5990   -3.2930   25.3110 O   0  0  0  0  0  0  0  0  0  0  0  0
    6.5290   -3.0260   26.5540 N   0  0  0  0  0  0  0  0  0  0  0  0
    6.4780   -1.6970   27.2030 C   0  0  0  0  0  0  0  0  0  0  0  0
    7.0100   -1.5190   28.5120 C   0  0  0  0  0  0  0  0  0  0  0  0
    6.9910   -0.2540   29.2290 C   0  0  0  0  0  0  0  0  0  0  0  0
    6.5030    1.0600   28.9140 C   0  0  0  0  0  0  0  0  0  0  0  0
    6.0150    0.7090   27.5890 N   0  0  0  0  0  0  0  0  0  0  0  0
    5.9580   -0.4690   26.7470 C   0  0  0  0  0  0  0  0  0  0  0  0
    5.4230   -0.4080   25.5580 O   0  0  0  0  0  0  0  0  0  0  0  0
    4.9400    0.7440   24.9450 C   0  0  0  0  0  0  0  0  0  0  0  0
    3.6140    0.9630   25.2450 F   0  0  0  0  0  0  0  0  0  0  0  0
    5.0880    0.6420   23.5420 F   0  0  0  0  0  0  0  0  0  0  0  0
    5.9030   -5.0320   23.5310 C   0  0  0  0  0  0  0  0  0  0  0  0
    6.6150   -5.4280   22.4270 C   0  0  0  0  0  0  0  0  0  0  0  0
  1  2  1  0
  2  3  2  0
  2  4  1  0
  4  5  1  0
  5  6  1  0
  6  7  1  0
  7  8  1  0
  8  9  2  0
  8 10  1  0
 10 11  1  0
 11 12  2  0
 12 13  1  0
 13 14  2  0
 14 15  1  0
 11 16  1  0
 15 16  2  0
 16 17  1  0
 17 18  1  0
 18 19  1  0
 18 20  1  0
  7 21  1  0
  4 22  1  0
 21 22  1  0
M  END
