piperidine-amides-10897-covalent
     RDKit          3D

 21 22  0  0  0  0  0  0  0  0999 V2000
    7.0830   -3.3330   19.2950 C   0  0  0  0  0  0  0  0  0  0  0  0
    6.3870   -4.1490   20.2920 C   0  0  0  0  0  0  0  0  0  0  0  0
    5.3600   -4.7620   19.9600 O   0  0  0  0  0  0  0  0  0  0  0  0
    6.8790   -4.3010   21.5990 N   0  0  0  0  0  0  0  0  0  0  0  0
    6.6290   -5.4840   22.3860 C   0  0  0  0  0  0  0  0  0  0  0  0
    5.8920   -5.0040   23.6110 C   0  0  0  0  0  0  0  0  0  0  0  0
    6.5580   -3.8210   24.2630 C   0  0  0  0  0  0  0  0  0  0  0  0
    5.7860   -3.2930   25.4170 C   0  0  0  0  0  0  0  0  0  0  0  0
    4.5270   -3.1780   25.3200 O   0  0  0  0  0  0  0  0  0  0  0  0
    6.3590   -2.8960   26.6470 N   0  0  0  0  0  0  0  0  0  0  0  0
    6.2630   -1.4710   27.0440 C   0  0  0  0  0  0  0  0  0  0  0  0
    5.8560   -0.6110   25.8830 C   0  0  0  0  0  0  0  0  0  0  0  0
    5.7420    0.7040   26.1450 N   0  0  0  0  0  0  0  0  0  0  0  0
    5.9470    1.3990   27.3370 C   0  0  0  0  0  0  0  0  0  0  0  0
    6.3430    0.5520   28.4620 C   0  0  0  0  0  0  0  0  0  0  0  0
    6.5100   -0.9280   28.3380 C   0  0  0  0  0  0  0  0  0  0  0  0
    6.9050   -1.5560   29.5770 C   0  0  0  0  0  0  0  0  0  0  0  0
    7.3860   -0.7370   30.5630 C   0  0  0  0  0  0  0  0  0  0  0  0
    8.3670   -1.2630   29.5500 C   0  0  0  0  0  0  0  0  0  0  0  0
    6.8010   -2.6700   23.2920 C   0  0  0  0  0  0  0  0  0  0  0  0
    7.6690   -3.2350   22.1740 C   0  0  0  0  0  0  0  0  0  0  0  0
  1  2  1  0
  2  3  2  0
  2  4  1  0
  4  5  1  0
  5  6  1  0
  6  7  1  0
  7  8  1  0
  8  9  2  0
  8 10  1  0
 10 11  1  0
 11 12  2  0
 12 13  1  0
 13 14  2  0
 14 15  1  0
 11 16  1  0
 15 16  2  0
 16 17  1  0
 17 18  1  0
 17 19  1  0
  7 20  1  0
  4 21  1  0
 20 21  1  0
M  END
