piperidine-amides-2781-covalent
     RDKit          3D

 24 24  0  0  0  0  0  0  0  0999 V2000
    7.1360   -3.2990   19.1890 C   0  0  0  0  0  0  0  0  0  0  0  0
    6.3290   -3.9860   20.1870 C   0  0  0  0  0  0  0  0  0  0  0  0
    5.2600   -4.5020   19.8670 O   0  0  0  0  0  0  0  0  0  0  0  0
    6.8150   -4.1170   21.5260 N   0  0  0  0  0  0  0  0  0  0  0  0
    7.7650   -3.1550   22.0480 C   0  0  0  0  0  0  0  0  0  0  0  0
    7.4650   -2.9170   23.4850 C   0  0  0  0  0  0  0  0  0  0  0  0
    6.1170   -3.5520   23.7020 C   0  0  0  0  0  0  0  0  0  0  0  0
    5.5890   -3.1970   25.0280 C   0  0  0  0  0  0  0  0  0  0  0  0
    4.4580   -2.7030   25.1830 O   0  0  0  0  0  0  0  0  0  0  0  0
    6.3970   -3.4370   26.1470 N   0  0  0  0  0  0  0  0  0  0  0  0
    5.7090   -3.8940   27.3090 C   0  0  1  0  0  0  0  0  0  0  0  0
    6.0240   -5.3530   27.5770 C   0  0  0  0  0  0  0  0  0  0  0  0
    6.9890   -5.5550   28.5460 O   0  0  0  0  0  0  0  0  0  0  0  0
    5.4430   -6.4590   27.0140 O   0  0  0  0  0  0  0  0  0  0  0  0
    4.5320   -7.2840   27.6780 C   0  0  0  0  0  0  0  0  0  0  0  0
    5.9880   -3.0750   28.4860 C   0  0  2  0  0  0  0  0  0  0  0  0
    6.8700   -2.0260   28.3730 C   0  0  0  0  0  0  0  0  0  0  0  0
    6.6790   -3.9640   29.2580 O   0  0  0  0  0  0  0  0  0  0  0  0
    4.7770   -2.7480   29.0690 C   0  0  0  0  0  0  0  0  0  0  0  0
    4.0160   -2.0120   28.2050 F   0  0  0  0  0  0  0  0  0  0  0  0
    4.1440   -3.9040   29.4780 F   0  0  0  0  0  0  0  0  0  0  0  0
    4.9460   -1.9310   30.1810 F   0  0  0  0  0  0  0  0  0  0  0  0
    6.0870   -5.0500   23.5170 C   0  0  0  0  0  0  0  0  0  0  0  0
    6.6390   -5.3550   22.2880 C   0  0  0  0  0  0  0  0  0  0  0  0
  1  2  1  0
  2  3  2  0
  2  4  1  0
  4  5  1  0
  5  6  1  0
  6  7  1  0
  7  8  1  0
  8  9  2  0
  8 10  1  0
 11 10  1  6
 11 12  1  0
 12 13  2  0
 12 14  1  0
 14 15  1  0
 11 16  1  0
 16 17  1  6
 16 18  1  0
 16 19  1  0
 19 20  1  0
 19 21  1  0
 19 22  1  0
  7 23  1  0
  4 24  1  0
 23 24  1  0
M  END
