piperidine-amides-35586-covalent
     RDKit          3D

 32 35  0  0  0  0  0  0  0  0999 V2000
    7.0150   -3.3340   19.3880 C   0  0  0  0  0  0  0  0  0  0  0  0
    6.3770   -4.2050   20.4150 C   0  0  0  0  0  0  0  0  0  0  0  0
    5.4530   -4.9170   20.0110 O   0  0  0  0  0  0  0  0  0  0  0  0
    6.8370   -4.2210   21.7520 N   0  0  0  0  0  0  0  0  0  0  0  0
    7.6760   -3.1960   22.3120 C   0  0  0  0  0  0  0  0  0  0  0  0
    7.1250   -2.7000   23.6330 C   0  0  0  0  0  0  0  0  0  0  0  0
    6.3370   -3.7580   24.4430 C   0  0  0  0  0  0  0  0  0  0  0  0
    5.2740   -3.0050   25.1940 C   0  0  0  0  0  0  0  0  0  0  0  0
    4.3480   -2.5280   24.5380 O   0  0  0  0  0  0  0  0  0  0  0  0
    5.2320   -2.8000   26.6110 N   0  0  0  0  0  0  0  0  0  0  0  0
    5.7900   -1.6050   27.2040 C   0  0  0  0  0  0  0  0  0  0  0  0
    5.4280   -0.1900   26.7250 C   0  0  0  0  0  0  0  0  0  0  0  0
    5.8630    1.0420   27.2180 C   0  0  0  0  0  0  0  0  0  0  0  0
    5.4860    2.2460   26.7280 C   0  0  0  0  0  0  0  0  0  0  0  0
    6.8360    1.0390   28.4020 C   0  0  0  0  0  0  0  0  0  0  0  0
    7.1300   -0.3640   28.7800 C   0  0  0  0  0  0  0  0  0  0  0  0
    8.0340   -0.8160   29.8810 C   0  0  0  0  0  0  0  0  0  0  0  0
    6.7740   -1.7260   28.3750 C   0  0  0  0  0  0  0  0  0  0  0  0
    5.5000   -3.9380   27.4180 C   0  0  0  0  0  0  0  0  0  0  0  0
    6.7640   -4.2370   27.2630 N   0  0  0  0  0  0  0  0  0  0  0  0
    7.2100   -5.2880   27.9670 C   0  0  0  0  0  0  0  0  0  0  0  0
    8.6000   -5.3180   27.5350 C   0  0  0  0  0  0  0  0  0  0  0  0
    9.7160   -4.6880   28.0760 C   0  0  0  0  0  0  0  0  0  0  0  0
   11.0370   -4.8470   27.3300 C   0  0  0  0  0  0  0  0  0  0  0  0
   11.5930   -5.4230   26.2180 C   0  0  0  0  0  0  0  0  0  0  0  0
   13.9960   -5.0290   25.7680 Br  0  0  0  0  0  0  0  0  0  0  0  0
   10.2020   -6.1050   25.8500 C   0  0  0  0  0  0  0  0  0  0  0  0
    8.8740   -5.9840   26.5040 C   0  0  0  0  0  0  0  0  0  0  0  0
    6.3630   -5.9870   28.7940 C   0  0  0  0  0  0  0  0  0  0  0  0
    4.8870   -5.0920   28.5310 S   0  0  0  0  0  0  0  0  0  0  0  0
    5.6680   -4.9120   23.6940 C   0  0  0  0  0  0  0  0  0  0  0  0
    6.5770   -5.3890   22.5460 C   0  0  0  0  0  0  0  0  0  0  0  0
  1  2  1  0
  2  3  2  0
  2  4  1  0
  4  5  1  0
  5  6  1  0
  6  7  1  0
  7  8  1  0
  8  9  2  0
  8 10  1  0
 10 11  1  0
 11 12  2  0
 12 13  1  0
 13 14  1  0
 13 15  2  0
 15 16  1  0
 16 17  1  0
 11 18  1  0
 16 18  2  0
 10 19  1  0
 19 20  2  0
 20 21  1  0
 21 22  1  0
 22 23  2  0
 23 24  1  0
 24 25  2  0
 25 26  1  0
 25 27  1  0
 22 28  1  0
 27 28  2  0
 21 29  2  0
 19 30  1  0
 29 30  1  0
  7 31  1  0
  4 32  1  0
 31 32  1  0
M  END
