piperidine-amides-19013-covalent
     RDKit          3D

 21 21  0  0  0  0  0  0  0  0999 V2000
    7.1500   -3.2600   19.3010 C   0  0  0  0  0  0  0  0  0  0  0  0
    6.3720   -3.9980   20.2780 C   0  0  0  0  0  0  0  0  0  0  0  0
    5.3250   -4.6070   19.8980 O   0  0  0  0  0  0  0  0  0  0  0  0
    6.7480   -4.0880   21.6270 N   0  0  0  0  0  0  0  0  0  0  0  0
    6.6710   -5.4380   22.2340 C   0  0  0  0  0  0  0  0  0  0  0  0
    5.9770   -5.1290   23.6190 C   0  0  0  0  0  0  0  0  0  0  0  0
    6.1750   -3.6520   23.8750 C   0  0  0  0  0  0  0  0  0  0  0  0
    5.5600   -3.1920   25.2670 C   0  0  0  0  0  0  0  0  0  0  0  0
    4.8350   -2.2270   25.1180 O   0  0  0  0  0  0  0  0  0  0  0  0
    6.0030   -3.9980   26.1400 N   0  0  0  0  0  0  0  0  0  0  0  0
    6.6440   -5.0950   26.6610 C   0  0  0  0  0  0  0  0  0  0  0  0
    7.0410   -5.6510   27.8550 C   0  0  0  0  0  0  0  0  0  0  0  0
    8.4210   -5.8930   27.9070 O   0  0  0  0  0  0  0  0  0  0  0  0
    9.0470   -6.2390   26.7240 C   0  0  0  0  0  0  0  0  0  0  0  0
    5.3950   -3.7540   27.4860 C   0  0  0  0  0  0  0  0  0  0  0  0
    5.1220   -2.2480   27.7190 C   0  0  0  0  0  0  0  0  0  0  0  0
    4.9940   -1.3750   26.8280 O   0  0  0  0  0  0  0  0  0  0  0  0
    5.0110   -1.8080   29.0200 O   0  0  0  0  0  0  0  0  0  0  0  0
    6.0000   -1.1610   29.7550 C   0  0  0  0  0  0  0  0  0  0  0  0
    7.5900   -3.1890   23.6510 C   0  0  0  0  0  0  0  0  0  0  0  0
    7.7280   -3.1320   22.1370 C   0  0  0  0  0  0  0  0  0  0  0  0
  1  2  1  0
  2  3  2  0
  2  4  1  0
  4  5  1  0
  5  6  1  0
  6  7  1  0
  7  8  1  0
  8  9  2  0
  8 10  1  0
 10 11  1  0
 11 12  1  0
 12 13  1  0
 13 14  1  0
 10 15  1  0
 15 16  1  0
 16 17  2  0
 16 18  1  0
 18 19  1  0
  7 20  1  0
  4 21  1  0
 20 21  1  0
M  END
