piperidine-amides-14887-covalent
     RDKit          3D

 22 23  0  0  0  0  0  0  0  0999 V2000
    7.0750   -3.2770   19.2620 C   0  0  0  0  0  0  0  0  0  0  0  0
    6.3520   -4.0600   20.2610 C   0  0  0  0  0  0  0  0  0  0  0  0
    5.3020   -4.6260   19.9120 O   0  0  0  0  0  0  0  0  0  0  0  0
    6.8650   -4.2010   21.5750 N   0  0  0  0  0  0  0  0  0  0  0  0
    6.5540   -5.3770   22.3340 C   0  0  0  0  0  0  0  0  0  0  0  0
    5.7740   -4.9800   23.5540 C   0  0  0  0  0  0  0  0  0  0  0  0
    6.5400   -3.8480   24.2050 C   0  0  0  0  0  0  0  0  0  0  0  0
    5.7070   -3.2490   25.3110 C   0  0  0  0  0  0  0  0  0  0  0  0
    4.5790   -2.8890   24.9880 O   0  0  0  0  0  0  0  0  0  0  0  0
    6.2340   -3.1340   26.6040 N   0  0  0  0  0  0  0  0  0  0  0  0
    6.1210   -4.1840   27.5700 C   0  0  0  0  0  0  0  0  0  0  0  0
    5.2150   -4.0140   28.6190 C   0  0  1  0  0  0  0  0  0  0  0  0
    3.9270   -3.5540   28.3650 C   0  0  0  0  0  0  0  0  0  0  0  0
    3.0340   -4.2790   29.1130 C   0  0  0  0  0  0  0  0  0  0  0  0
    1.6960   -3.9110   29.0630 O   0  0  0  0  0  0  0  0  0  0  0  0
    3.6750   -5.2940   29.8070 N   0  0  0  0  0  0  0  0  0  0  0  0
    3.2590   -5.5760   31.1800 C   0  0  0  0  0  0  0  0  0  0  0  0
    4.1950   -6.6150   31.8460 C   0  0  0  0  0  0  0  0  0  0  0  0
    3.5710   -7.9590   31.7430 C   0  0  0  0  0  0  0  0  0  0  0  0
    5.0400   -5.2030   29.3630 C   0  0  0  0  0  0  0  0  0  0  0  0
    6.9560   -2.7500   23.3230 C   0  0  0  0  0  0  0  0  0  0  0  0
    7.6580   -3.1740   22.2190 C   0  0  0  0  0  0  0  0  0  0  0  0
  1  2  1  0
  2  3  2  0
  2  4  1  0
  4  5  1  0
  5  6  1  0
  6  7  1  0
  7  8  1  0
  8  9  2  0
  8 10  1  0
 10 11  1  0
 12 11  1  6
 12 13  1  0
 13 14  1  0
 14 15  2  0
 14 16  1  0
 16 17  1  0
 17 18  1  0
 18 19  1  0
 12 20  1  0
 16 20  1  0
  7 21  1  0
  4 22  1  0
 21 22  1  0
M  END
