piperidine-amides-31031-covalent
     RDKit          3D

 28 30  0  0  0  0  0  0  0  0999 V2000
    7.0790   -3.3370   19.3200 C   0  0  0  0  0  0  0  0  0  0  0  0
    6.3850   -4.1580   20.3120 C   0  0  0  0  0  0  0  0  0  0  0  0
    5.3660   -4.7840   19.9690 O   0  0  0  0  0  0  0  0  0  0  0  0
    6.8800   -4.2920   21.6210 N   0  0  0  0  0  0  0  0  0  0  0  0
    6.6360   -5.4680   22.4230 C   0  0  0  0  0  0  0  0  0  0  0  0
    5.9110   -4.9850   23.6550 C   0  0  0  0  0  0  0  0  0  0  0  0
    6.5580   -3.7840   24.2960 C   0  0  0  0  0  0  0  0  0  0  0  0
    5.7630   -3.2380   25.4260 C   0  0  0  0  0  0  0  0  0  0  0  0
    4.5310   -2.9920   25.2480 O   0  0  0  0  0  0  0  0  0  0  0  0
    6.2780   -2.9290   26.7130 N   0  0  0  0  0  0  0  0  0  0  0  0
    6.2040   -3.8580   27.8670 C   0  0  0  0  0  0  0  0  0  0  0  0
    5.3640   -5.0470   27.6450 C   0  0  0  0  0  0  0  0  0  0  0  0
    4.5170   -5.1940   26.4560 C   0  0  0  0  0  0  0  0  0  0  0  0
    3.6810   -6.4300   26.3110 C   0  0  0  0  0  0  0  0  0  0  0  0
    3.7270   -7.4930   27.3830 C   0  0  0  0  0  0  0  0  0  0  0  0
    4.6500   -7.1700   28.5060 C   0  0  0  0  0  0  0  0  0  0  0  0
    5.3960   -6.0210   28.5960 C   0  0  0  0  0  0  0  0  0  0  0  0
    6.1830   -5.7730   29.5790 O   0  0  0  0  0  0  0  0  0  0  0  0
    6.2830   -1.6000   27.1920 C   0  0  0  0  0  0  0  0  0  0  0  0
    5.4690   -0.5300   26.4180 C   0  0  0  0  0  0  0  0  0  0  0  0
    5.5360    0.8450   27.0350 C   0  0  0  0  0  0  0  0  0  0  0  0
    6.3850    0.6910   28.1940 C   0  0  0  0  0  0  0  0  0  0  0  0
    7.0250    0.0070   28.8570 C   0  0  0  0  0  0  0  0  0  0  0  0
    7.6470    0.3790   29.8540 O   0  0  0  0  0  0  0  0  0  0  0  0
    7.2700    0.0540   31.1770 C   0  0  0  0  0  0  0  0  0  0  0  0
    7.0240   -1.3060   28.3680 C   0  0  0  0  0  0  0  0  0  0  0  0
    6.8430   -2.6810   23.3230 C   0  0  0  0  0  0  0  0  0  0  0  0
    7.6980   -3.2510   22.2140 C   0  0  0  0  0  0  0  0  0  0  0  0
  1  2  1  0
  2  3  2  0
  2  4  1  0
  4  5  1  0
  5  6  1  0
  6  7  1  0
  7  8  1  0
  8  9  2  0
  8 10  1  0
 10 11  1  0
 11 12  1  0
 12 13  2  0
 13 14  1  0
 14 15  2  0
 15 16  1  0
 12 17  1  0
 16 17  2  0
 17 18  1  0
 10 19  1  0
 19 20  2  0
 20 21  1  0
 21 22  2  0
 22 23  1  0
 23 24  1  0
 24 25  1  0
 19 26  1  0
 23 26  2  0
  7 27  1  0
  4 28  1  0
 27 28  1  0
M  END
