piperidine-amides-3068-covalent
     RDKit          3D

 23 24  0  0  0  0  0  0  0  0999 V2000
    7.0600   -3.3350   19.3620 C   0  0  0  0  0  0  0  0  0  0  0  0
    6.3710   -4.1700   20.3370 C   0  0  0  0  0  0  0  0  0  0  0  0
    5.4020   -4.8480   19.9870 O   0  0  0  0  0  0  0  0  0  0  0  0
    6.8460   -4.2460   21.6910 N   0  0  0  0  0  0  0  0  0  0  0  0
    7.7280   -3.2080   22.2000 C   0  0  0  0  0  0  0  0  0  0  0  0
    7.4800   -2.9660   23.6590 C   0  0  0  0  0  0  0  0  0  0  0  0
    6.1600   -3.6290   23.9780 C   0  0  0  0  0  0  0  0  0  0  0  0
    5.6600   -3.2370   25.3280 C   0  0  0  0  0  0  0  0  0  0  0  0
    4.4580   -3.3680   25.6210 O   0  0  0  0  0  0  0  0  0  0  0  0
    6.5500   -2.6920   26.2960 N   0  0  0  0  0  0  0  0  0  0  0  0
    6.0440   -1.6600   27.1840 C   0  0  0  0  0  0  0  0  0  0  0  0
    4.8680   -2.3410   27.8420 C   0  0  0  0  0  0  0  0  0  0  0  0
    4.8720   -3.7190   27.7180 O   0  0  0  0  0  0  0  0  0  0  0  0
    3.8490   -1.8230   28.5510 N   0  0  0  0  0  0  0  0  0  0  0  0
    4.1620   -1.8460   29.8600 C   0  0  0  0  0  0  0  0  0  0  0  0
    2.5730   -2.4050   28.2560 C   0  0  0  0  0  0  0  0  0  0  0  0
    7.0790   -1.5300   28.2200 C   0  0  0  0  0  0  0  0  0  0  0  0
    6.8250   -0.5000   29.1840 C   0  0  0  0  0  0  0  0  0  0  0  0
    6.2070    0.6520   28.7940 C   0  0  0  0  0  0  0  0  0  0  0  0
    5.5500    0.6400   27.5690 C   0  0  0  0  0  0  0  0  0  0  0  0
    5.7520   -0.4220   26.6590 C   0  0  0  0  0  0  0  0  0  0  0  0
    6.1250   -5.0630   23.7520 C   0  0  0  0  0  0  0  0  0  0  0  0
    6.6250   -5.4140   22.5090 C   0  0  0  0  0  0  0  0  0  0  0  0
  1  2  1  0
  2  3  2  0
  2  4  1  0
  4  5  1  0
  5  6  1  0
  6  7  1  0
  7  8  1  0
  8  9  2  0
  8 10  1  0
 10 11  1  0
 11 12  1  0
 12 13  2  0
 12 14  1  0
 14 15  1  0
 14 16  1  0
 11 17  1  0
 17 18  1  0
 18 19  1  0
 19 20  1  0
 11 21  1  0
 20 21  1  0
  7 22  1  0
  4 23  1  0
 22 23  1  0
M  END
