piperidine-amides-8820-covalent
     RDKit          3D

 22 24  0  0  0  0  0  0  0  0999 V2000
    7.0560   -3.2960   19.3000 C   0  0  0  0  0  0  0  0  0  0  0  0
    6.3580   -4.0950   20.3130 C   0  0  0  0  0  0  0  0  0  0  0  0
    5.3670   -4.7540   19.9540 O   0  0  0  0  0  0  0  0  0  0  0  0
    6.8180   -4.1450   21.6570 N   0  0  0  0  0  0  0  0  0  0  0  0
    7.7100   -3.1250   22.1460 C   0  0  0  0  0  0  0  0  0  0  0  0
    7.4900   -2.9520   23.6130 C   0  0  0  0  0  0  0  0  0  0  0  0
    6.1060   -3.4920   23.8490 C   0  0  0  0  0  0  0  0  0  0  0  0
    5.6090   -3.1650   25.2270 C   0  0  0  0  0  0  0  0  0  0  0  0
    4.4650   -2.7290   25.2940 O   0  0  0  0  0  0  0  0  0  0  0  0
    6.4550   -3.3520   26.3170 N   0  0  0  0  0  0  0  0  0  0  0  0
    6.0670   -4.0250   27.5210 C   0  0  0  0  0  0  0  0  0  0  0  0
    5.6800   -5.3800   27.4080 C   0  0  0  0  0  0  0  0  0  0  0  0
    4.5430   -5.7200   26.6950 C   0  0  2  0  0  0  0  0  0  0  0  0
    3.6280   -4.7360   26.2920 C   0  0  0  0  0  0  0  0  0  0  0  0
    2.3210   -5.3760   26.6240 C   0  0  0  0  0  0  0  0  0  0  0  0
    2.5900   -6.7290   27.2750 C   0  0  0  0  0  0  0  0  0  0  0  0
    2.1530   -6.8590   28.6940 C   0  0  0  0  0  0  0  0  0  0  0  0
    1.4060   -8.1030   28.2630 C   0  0  0  0  0  0  0  0  0  0  0  0
    1.9470   -7.8710   26.8430 C   0  0  0  0  0  0  0  0  0  0  0  0
    3.8400   -6.7170   27.3540 O   0  0  0  0  0  0  0  0  0  0  0  0
    6.1250   -4.9970   23.6900 C   0  0  0  0  0  0  0  0  0  0  0  0
    6.6330   -5.3410   22.4470 C   0  0  0  0  0  0  0  0  0  0  0  0
  1  2  1  0
  2  3  2  0
  2  4  1  0
  4  5  1  0
  5  6  1  0
  6  7  1  0
  7  8  1  0
  8  9  2  0
  8 10  1  0
 10 11  1  0
 11 12  1  0
 13 12  1  1
 13 14  1  0
 14 15  1  0
 15 16  1  0
 16 17  1  0
 17 18  1  0
 16 19  1  0
 18 19  1  0
 13 20  1  0
 16 20  1  0
  7 21  1  0
  4 22  1  0
 21 22  1  0
M  END
