piperidine-amides-34290-covalent
     RDKit          3D

 30 32  0  0  0  0  0  0  0  0999 V2000
    7.0950   -3.3720   19.3940 C   0  0  0  0  0  0  0  0  0  0  0  0
    6.4110   -4.2460   20.3520 C   0  0  0  0  0  0  0  0  0  0  0  0
    5.3900   -4.8790   19.9960 O   0  0  0  0  0  0  0  0  0  0  0  0
    6.9310   -4.4180   21.6470 N   0  0  0  0  0  0  0  0  0  0  0  0
    6.6460   -5.6200   22.3800 C   0  0  0  0  0  0  0  0  0  0  0  0
    5.7970   -5.1970   23.5860 C   0  0  0  0  0  0  0  0  0  0  0  0
    6.5070   -4.0680   24.3220 C   0  0  0  0  0  0  0  0  0  0  0  0
    5.5930   -3.5390   25.3650 C   0  0  0  0  0  0  0  0  0  0  0  0
    4.7360   -2.7160   24.9900 O   0  0  0  0  0  0  0  0  0  0  0  0
    5.6560   -3.9400   26.7290 N   0  0  0  0  0  0  0  0  0  0  0  0
    6.8560   -4.5160   27.2330 C   0  0  0  0  0  0  0  0  0  0  0  0
    6.6070   -5.8760   27.7870 C   0  0  0  0  0  0  0  0  0  0  0  0
    5.6670   -5.5400   28.7460 O   0  0  0  0  0  0  0  0  0  0  0  0
    5.5320   -4.2180   29.0240 C   0  0  0  0  0  0  0  0  0  0  0  0
    5.2300   -3.3270   28.0030 C   0  0  1  0  0  0  0  0  0  0  0  0
    6.0270   -2.1800   27.9070 C   0  0  0  0  0  0  0  0  0  0  0  0
    6.4160   -1.6610   29.1270 O   0  0  0  0  0  0  0  0  0  0  0  0
    5.5080   -0.9550   29.9550 C   0  0  0  0  0  0  0  0  0  0  0  0
    4.1790   -1.6780   29.9890 C   0  0  0  0  0  0  0  0  0  0  0  0
    3.5590   -1.8340   28.8060 N   0  0  0  0  0  0  0  0  0  0  0  0
    2.4670   -1.0180   28.3880 C   0  0  0  0  0  0  0  0  0  0  0  0
    2.5960    0.2310   27.7990 O   0  0  0  0  0  0  0  0  0  0  0  0
    1.1510   -1.4740   28.5710 O   0  0  0  0  0  0  0  0  0  0  0  0
    0.3890   -1.8280   27.4380 C   0  0  0  0  0  0  0  0  0  0  0  0
    1.3170   -2.2480   26.3850 C   0  0  0  0  0  0  0  0  0  0  0  0
   -0.5170   -2.8020   27.8770 C   0  0  0  0  0  0  0  0  0  0  0  0
   -0.4410   -0.6630   26.9330 C   0  0  0  0  0  0  0  0  0  0  0  0
    3.7550   -3.0490   28.0930 C   0  0  0  0  0  0  0  0  0  0  0  0
    6.8230   -2.8820   23.4220 C   0  0  0  0  0  0  0  0  0  0  0  0
    7.7050   -3.3840   22.2810 C   0  0  0  0  0  0  0  0  0  0  0  0
  1  2  1  0
  2  3  2  0
  2  4  1  0
  4  5  1  0
  5  6  1  0
  6  7  1  0
  7  8  1  0
  8  9  2  0
  8 10  1  0
 10 11  1  0
 11 12  1  0
 12 13  1  0
 13 14  1  0
 15 10  1  0
 15 14  1  1
 15 16  1  0
 16 17  1  0
 17 18  1  0
 18 19  1  0
 19 20  1  0
 20 21  1  0
 21 22  2  0
 21 23  1  0
 24 23  1  0
 24 25  1  0
 24 26  1  0
 24 27  1  0
 15 28  1  0
 20 28  1  0
  7 29  1  0
  4 30  1  0
 29 30  1  0
M  END
