piperidine-amides-5067-covalent
     RDKit          3D

 22 22  0  0  0  0  0  0  0  0999 V2000
    7.0810   -3.2950   19.1810 C   0  0  0  0  0  0  0  0  0  0  0  0
    6.3590   -4.0550   20.2300 C   0  0  0  0  0  0  0  0  0  0  0  0
    5.2780   -4.5730   19.8890 O   0  0  0  0  0  0  0  0  0  0  0  0
    6.8990   -4.2180   21.5130 N   0  0  0  0  0  0  0  0  0  0  0  0
    7.5660   -3.1210   22.1220 C   0  0  0  0  0  0  0  0  0  0  0  0
    6.9260   -2.7010   23.3550 C   0  0  0  0  0  0  0  0  0  0  0  0
    6.6100   -3.8160   24.2730 C   0  0  0  0  0  0  0  0  0  0  0  0
    5.8640   -3.2960   25.4390 C   0  0  0  0  0  0  0  0  0  0  0  0
    4.6190   -3.2710   25.3840 O   0  0  0  0  0  0  0  0  0  0  0  0
    6.5560   -2.8240   26.5700 N   0  0  0  0  0  0  0  0  0  0  0  0
    6.3350   -3.3240   27.9460 C   0  0  0  0  0  0  0  0  0  0  0  0
    5.7280   -4.6800   28.0060 C   0  0  2  0  0  0  0  0  0  0  0  0
    5.1680   -4.9700   29.3270 C   0  0  0  0  0  0  0  0  0  0  0  0
    4.2080   -4.1370   29.8660 C   0  0  0  0  0  0  0  0  0  0  0  0
    4.1380   -2.9340   29.5630 O   0  0  0  0  0  0  0  0  0  0  0  0
    3.3180   -4.6610   30.7460 O   0  0  0  0  0  0  0  0  0  0  0  0
    3.0730   -4.0630   32.0160 C   0  0  0  0  0  0  0  0  0  0  0  0
    6.2910   -5.7880   27.4790 C   0  0  0  0  0  0  0  0  0  0  0  0
    7.4130   -6.0400   28.2200 C   0  0  0  0  0  0  0  0  0  0  0  0
    5.3040   -6.7640   27.4890 C   0  0  0  0  0  0  0  0  0  0  0  0
    5.8450   -4.8970   23.5390 C   0  0  0  0  0  0  0  0  0  0  0  0
    6.6140   -5.3660   22.3550 C   0  0  0  0  0  0  0  0  0  0  0  0
  1  2  1  0
  2  3  2  0
  2  4  1  0
  4  5  1  0
  5  6  1  0
  6  7  1  0
  7  8  1  0
  8  9  2  0
  8 10  1  0
 10 11  1  0
 12 11  1  1
 12 13  1  0
 13 14  1  0
 14 15  2  0
 14 16  1  0
 16 17  1  0
 12 18  1  0
 18 19  1  0
 18 20  1  0
  7 21  1  0
  4 22  1  0
 21 22  1  0
M  END
