piperidine-amides-3145-covalent
     RDKit          3D

 22 24  0  0  0  0  0  0  0  0999 V2000
    7.0190   -3.3370   19.3250 C   0  0  0  0  0  0  0  0  0  0  0  0
    6.3350   -4.1440   20.3340 C   0  0  0  0  0  0  0  0  0  0  0  0
    5.3850   -4.8460   19.9830 O   0  0  0  0  0  0  0  0  0  0  0  0
    6.7720   -4.1730   21.7090 N   0  0  0  0  0  0  0  0  0  0  0  0
    7.6730   -3.1520   22.2100 C   0  0  0  0  0  0  0  0  0  0  0  0
    7.4380   -2.9200   23.6750 C   0  0  0  0  0  0  0  0  0  0  0  0
    6.1190   -3.5860   23.9940 C   0  0  0  0  0  0  0  0  0  0  0  0
    5.5710   -3.2080   25.3450 C   0  0  0  0  0  0  0  0  0  0  0  0
    4.3410   -3.1580   25.5370 O   0  0  0  0  0  0  0  0  0  0  0  0
    6.4220   -2.8990   26.4470 N   0  0  0  0  0  0  0  0  0  0  0  0
    6.6850   -1.5060   26.8090 C   0  0  2  0  0  0  0  0  0  0  0  0
    7.0930   -1.5020   28.2770 C   0  0  0  0  0  0  0  0  0  0  0  0
    6.5610   -0.5610   29.1220 C   0  0  0  0  0  0  0  0  0  0  0  0
    6.0360    0.5910   28.5570 C   0  0  0  0  0  0  0  0  0  0  0  0
    5.6560    0.6020   27.2770 C   0  0  0  0  0  0  0  0  0  0  0  0
    5.1530    1.8500   26.8910 N   0  0  0  0  0  0  0  0  0  0  0  0
    5.2480    2.5910   28.0060 N   0  0  0  0  0  0  0  0  0  0  0  0
    5.7780    1.8370   29.0000 N   0  0  0  0  0  0  0  0  0  0  0  0
    6.0460    2.2580   30.3560 C   0  0  0  0  0  0  0  0  0  0  0  0
    5.7670   -0.5040   26.4660 C   0  0  0  0  0  0  0  0  0  0  0  0
    6.3350   -5.0890   23.8580 C   0  0  0  0  0  0  0  0  0  0  0  0
    6.3460   -5.3420   22.4760 C   0  0  0  0  0  0  0  0  0  0  0  0
  1  2  1  0
  2  3  2  0
  2  4  1  0
  4  5  1  0
  5  6  1  0
  6  7  1  0
  7  8  1  0
  8  9  2  0
  8 10  1  0
 11 10  1  1
 11 12  1  0
 12 13  1  0
 13 14  1  0
 14 15  2  0
 15 16  1  0
 16 17  2  0
 14 18  1  0
 17 18  1  0
 18 19  1  0
 11 20  1  0
 15 20  1  0
  7 21  1  0
  4 22  1  0
 21 22  1  0
M  END
