piperidine-amides-32958-covalent
     RDKit          3D

 29 32  0  0  0  0  0  0  0  0999 V2000
    7.0500   -3.3590   19.3980 C   0  0  0  0  0  0  0  0  0  0  0  0
    6.3860   -4.2640   20.3770 C   0  0  0  0  0  0  0  0  0  0  0  0
    5.3930   -4.9070   19.9990 O   0  0  0  0  0  0  0  0  0  0  0  0
    6.9210   -4.4070   21.6820 N   0  0  0  0  0  0  0  0  0  0  0  0
    6.5870   -5.5320   22.5040 C   0  0  0  0  0  0  0  0  0  0  0  0
    5.6090   -5.0080   23.5640 C   0  0  0  0  0  0  0  0  0  0  0  0
    6.2170   -3.8540   24.3230 C   0  0  0  0  0  0  0  0  0  0  0  0
    5.2190   -3.2290   25.2500 C   0  0  0  0  0  0  0  0  0  0  0  0
    4.3500   -2.5670   24.6860 O   0  0  0  0  0  0  0  0  0  0  0  0
    5.2330   -3.3690   26.6560 N   0  0  0  0  0  0  0  0  0  0  0  0
    4.1410   -3.4200   27.5500 C   0  0  0  0  0  0  0  0  0  0  0  0
    4.2790   -3.7260   28.8900 C   0  0  0  0  0  0  0  0  0  0  0  0
    5.1930   -4.8320   29.0010 N   0  0  0  0  0  0  0  0  0  0  0  0
    5.1000   -5.9650   29.7300 C   0  0  0  0  0  0  0  0  0  0  0  0
    4.0210   -6.2680   30.5410 C   0  0  0  0  0  0  0  0  0  0  0  0
    4.3040   -6.4590   31.9910 C   0  0  0  0  0  0  0  0  0  0  0  0
    5.4190   -7.3450   32.5460 C   0  0  0  0  0  0  0  0  0  0  0  0
    6.2020   -7.9970   31.5900 F   0  0  0  0  0  0  0  0  0  0  0  0
    5.4880   -7.3640   34.0540 C   0  0  0  0  0  0  0  0  0  0  0  0
    4.6250   -6.6490   34.8270 C   0  0  0  0  0  0  0  0  0  0  0  0
    3.5070   -5.7580   34.4540 C   0  0  0  0  0  0  0  0  0  0  0  0
    3.3880   -5.7000   32.9210 C   0  0  0  0  0  0  0  0  0  0  0  0
    2.3990   -4.9200   32.3770 F   0  0  0  0  0  0  0  0  0  0  0  0
    6.2360   -6.6160   29.4460 N   0  0  0  0  0  0  0  0  0  0  0  0
    6.9170   -5.8490   28.5800 N   0  0  0  0  0  0  0  0  0  0  0  0
    6.2640   -4.7000   28.2750 C   0  0  0  0  0  0  0  0  0  0  0  0
    6.4290   -3.4340   27.3900 C   0  0  0  0  0  0  0  0  0  0  0  0
    6.8700   -2.7780   23.4880 C   0  0  0  0  0  0  0  0  0  0  0  0
    7.6880   -3.3710   22.3410 C   0  0  0  0  0  0  0  0  0  0  0  0
  1  2  1  0
  2  3  2  0
  2  4  1  0
  4  5  1  0
  5  6  1  0
  6  7  1  0
  7  8  1  0
  8  9  2  0
  8 10  1  0
 10 11  1  0
 11 12  1  0
 12 13  1  0
 13 14  1  0
 14 15  1  0
 15 16  1  0
 16 17  2  0
 17 18  1  0
 17 19  1  0
 19 20  2  0
 20 21  1  0
 16 22  1  0
 21 22  2  0
 22 23  1  0
 14 24  2  0
 24 25  1  0
 13 26  1  0
 25 26  2  0
 10 27  1  0
 26 27  1  0
  7 28  1  0
  4 29  1  0
 28 29  1  0
M  END
