piperidine-amides-6820-covalent
     RDKit          3D

 23 24  0  0  0  0  0  0  0  0999 V2000
    7.1180   -3.2630   19.2580 C   0  0  0  0  0  0  0  0  0  0  0  0
    6.3890   -4.0650   20.2530 C   0  0  0  0  0  0  0  0  0  0  0  0
    5.3470   -4.6810   19.9330 O   0  0  0  0  0  0  0  0  0  0  0  0
    6.8760   -4.1850   21.5590 N   0  0  0  0  0  0  0  0  0  0  0  0
    6.6180   -5.4130   22.2870 C   0  0  0  0  0  0  0  0  0  0  0  0
    6.1370   -5.0600   23.7080 C   0  0  0  0  0  0  0  0  0  0  0  0
    6.0420   -3.5540   23.8010 C   0  0  0  0  0  0  0  0  0  0  0  0
    5.5720   -3.1400   25.1320 C   0  0  0  0  0  0  0  0  0  0  0  0
    4.5160   -2.4800   25.2060 O   0  0  0  0  0  0  0  0  0  0  0  0
    6.2890   -3.4940   26.2870 N   0  0  0  0  0  0  0  0  0  0  0  0
    5.6670   -4.3830   27.2230 C   0  0  1  0  0  0  0  0  0  0  0  0
    5.8130   -5.8100   26.7450 C   0  0  0  0  0  0  0  0  0  0  0  0
    4.6990   -6.5940   26.6650 C   0  0  0  0  0  0  0  0  0  0  0  0
    6.0460   -4.2320   28.6080 C   0  0  0  0  0  0  0  0  0  0  0  0
    6.8530   -3.1670   28.9570 O   0  0  0  0  0  0  0  0  0  0  0  0
    5.5170   -5.1730   29.5340 N   0  0  0  0  0  0  0  0  0  0  0  0
    4.1790   -5.1170   29.9620 C   0  0  0  0  0  0  0  0  0  0  0  0
    3.6190   -6.3800   29.9700 C   0  0  0  0  0  0  0  0  0  0  0  0
    4.1820   -7.2700   30.8370 O   0  0  0  0  0  0  0  0  0  0  0  0
    5.5750   -7.1700   30.9210 C   0  0  0  0  0  0  0  0  0  0  0  0
    6.0060   -6.5140   29.6310 C   0  0  0  0  0  0  0  0  0  0  0  0
    7.3020   -2.8730   23.4990 C   0  0  0  0  0  0  0  0  0  0  0  0
    7.6870   -3.1570   22.1360 C   0  0  0  0  0  0  0  0  0  0  0  0
  1  2  1  0
  2  3  2  0
  2  4  1  0
  4  5  1  0
  5  6  1  0
  6  7  1  0
  7  8  1  0
  8  9  2  0
  8 10  1  0
 10 11  1  0
 11 12  1  6
 12 13  1  0
 11 14  1  0
 14 15  2  0
 14 16  1  0
 16 17  1  0
 17 18  1  0
 18 19  1  0
 19 20  1  0
 16 21  1  0
 20 21  1  0
  7 22  1  0
  4 23  1  0
 22 23  1  0
M  END
