piperidine-amides-13790-covalent
     RDKit          3D

 27 29  0  0  0  0  0  0  0  0999 V2000
    7.0470   -3.3350   19.3510 C   0  0  0  0  0  0  0  0  0  0  0  0
    6.3770   -4.1920   20.3700 C   0  0  0  0  0  0  0  0  0  0  0  0
    5.4210   -4.9020   20.0000 O   0  0  0  0  0  0  0  0  0  0  0  0
    6.8630   -4.1970   21.7030 N   0  0  0  0  0  0  0  0  0  0  0  0
    7.7290   -3.1330   22.1850 C   0  0  0  0  0  0  0  0  0  0  0  0
    7.5790   -3.0620   23.7060 C   0  0  0  0  0  0  0  0  0  0  0  0
    6.2120   -3.5610   23.9940 C   0  0  0  0  0  0  0  0  0  0  0  0
    5.7270   -3.3130   25.3800 C   0  0  0  0  0  0  0  0  0  0  0  0
    4.5330   -3.5620   25.5780 O   0  0  0  0  0  0  0  0  0  0  0  0
    6.5670   -2.8050   26.3920 N   0  0  0  0  0  0  0  0  0  0  0  0
    6.4050   -1.5580   27.0640 C   0  0  0  0  0  0  0  0  0  0  0  0
    6.0120   -0.4150   26.4040 C   0  0  0  0  0  0  0  0  0  0  0  0
    5.8450    0.8150   27.0520 C   0  0  0  0  0  0  0  0  0  0  0  0
    6.0650    0.9270   28.3930 C   0  0  0  0  0  0  0  0  0  0  0  0
    6.4820   -0.2570   29.1630 C   0  0  0  0  0  0  0  0  0  0  0  0
    6.7010   -0.1140   30.6780 C   0  0  0  0  0  0  0  0  0  0  0  0
    8.1370    0.1430   31.0870 C   0  0  0  0  0  0  0  0  0  0  0  0
    8.5130    0.3000   32.3970 C   0  0  0  0  0  0  0  0  0  0  0  0
    7.5770    0.2340   33.5480 C   0  0  0  0  0  0  0  0  0  0  0  0
    8.0040    0.3800   34.9050 N   0  0  0  0  0  0  0  0  0  0  0  0
    9.3490    0.7580   35.0960 C   0  0  0  0  0  0  0  0  0  0  0  0
    7.4970   -0.4980   35.7750 C   0  0  0  0  0  0  0  0  0  0  0  0
    6.1070   -0.0200   33.1180 C   0  0  0  0  0  0  0  0  0  0  0  0
    5.7410   -0.1850   31.6600 C   0  0  0  0  0  0  0  0  0  0  0  0
    6.6460   -1.4700   28.4630 C   0  0  0  0  0  0  0  0  0  0  0  0
    6.0710   -5.0530   23.7480 C   0  0  0  0  0  0  0  0  0  0  0  0
    6.5900   -5.3620   22.4910 C   0  0  0  0  0  0  0  0  0  0  0  0
  1  2  1  0
  2  3  2  0
  2  4  1  0
  4  5  1  0
  5  6  1  0
  6  7  1  0
  7  8  1  0
  8  9  2  0
  8 10  1  0
 10 11  1  0
 11 12  2  0
 12 13  1  0
 13 14  2  0
 14 15  1  0
 15 16  1  0
 16 17  2  0
 17 18  1  0
 18 19  2  0
 19 20  1  0
 20 21  1  0
 20 22  1  0
 19 23  1  0
 16 24  1  0
 23 24  2  0
 11 25  1  0
 15 25  2  0
  7 26  1  0
  4 27  1  0
 26 27  1  0
M  END
