piperidine-amides-16150-covalent
     RDKit          3D

 19 20  0  0  0  0  0  0  0  0999 V2000
    7.0410   -3.3070   19.2730 C   0  0  0  0  0  0  0  0  0  0  0  0
    6.3510   -4.1150   20.3130 C   0  0  0  0  0  0  0  0  0  0  0  0
    5.3480   -4.7350   19.9500 O   0  0  0  0  0  0  0  0  0  0  0  0
    6.8510   -4.1860   21.6240 N   0  0  0  0  0  0  0  0  0  0  0  0
    7.6810   -3.1480   22.2070 C   0  0  0  0  0  0  0  0  0  0  0  0
    7.3450   -2.9380   23.6660 C   0  0  0  0  0  0  0  0  0  0  0  0
    6.0390   -3.6600   23.9940 C   0  0  0  0  0  0  0  0  0  0  0  0
    5.5670   -3.3110   25.3590 C   0  0  0  0  0  0  0  0  0  0  0  0
    4.3540   -3.3910   25.5780 O   0  0  0  0  0  0  0  0  0  0  0  0
    6.4120   -2.9020   26.4170 N   0  0  0  0  0  0  0  0  0  0  0  0
    6.3440   -3.7060   27.6230 C   0  0  0  0  0  0  0  0  0  0  0  0
    6.7320   -1.5100   26.5180 C   0  0  0  0  0  0  0  0  0  0  0  0
    5.6720   -0.7710   26.9730 C   0  0  0  0  0  0  0  0  0  0  0  0
    5.0540   -0.9860   28.1620 C   0  0  0  0  0  0  0  0  0  0  0  0
    4.2880    0.1060   28.5270 O   0  0  0  0  0  0  0  0  0  0  0  0
    4.7490   -0.4210   25.8680 C   0  0  0  0  0  0  0  0  0  0  0  0
    5.5940    0.6840   26.4940 C   0  0  0  0  0  0  0  0  0  0  0  0
    6.1360   -5.1260   23.7440 C   0  0  0  0  0  0  0  0  0  0  0  0
    6.6600   -5.4140   22.3670 C   0  0  0  0  0  0  0  0  0  0  0  0
  1  2  1  0
  2  3  2  0
  2  4  1  0
  4  5  1  0
  5  6  1  0
  6  7  1  0
  7  8  1  0
  8  9  2  0
  8 10  1  0
 10 11  1  0
 10 12  1  0
 13 12  1  0
 13 14  1  0
 14 15  1  0
 13 16  1  0
 13 17  1  0
 16 17  1  0
  7 18  1  0
  4 19  1  0
 18 19  1  0
M  END
