piperidine-amides-30801-covalent
     RDKit          3D

 27 29  0  0  0  0  0  0  0  0999 V2000
    7.1110   -3.3230   19.2570 C   0  0  0  0  0  0  0  0  0  0  0  0
    6.4010   -4.1240   20.2520 C   0  0  0  0  0  0  0  0  0  0  0  0
    5.3490   -4.7060   19.9400 O   0  0  0  0  0  0  0  0  0  0  0  0
    6.9220   -4.2930   21.5370 N   0  0  0  0  0  0  0  0  0  0  0  0
    7.7790   -3.2960   22.1450 C   0  0  0  0  0  0  0  0  0  0  0  0
    7.0150   -2.7510   23.3130 C   0  0  0  0  0  0  0  0  0  0  0  0
    6.4970   -3.8590   24.1720 C   0  0  0  0  0  0  0  0  0  0  0  0
    5.4760   -3.3730   25.1190 C   0  0  0  0  0  0  0  0  0  0  0  0
    4.4970   -2.6800   24.7250 O   0  0  0  0  0  0  0  0  0  0  0  0
    5.5330   -3.6490   26.4870 N   0  0  0  0  0  0  0  0  0  0  0  0
    4.7080   -2.8870   27.4370 C   0  0  0  0  0  0  0  0  0  0  0  0
    4.6800   -3.6640   28.6820 C   0  0  0  0  0  0  0  0  0  0  0  0
    5.9960   -4.0830   29.1170 C   0  0  0  0  0  0  0  0  0  0  0  0
    6.8810   -4.4290   28.0270 C   0  0  1  0  0  0  0  0  0  0  0  0
    7.8980   -3.3590   27.8370 C   0  0  0  0  0  0  0  0  0  0  0  0
    8.1630   -2.4060   28.8460 O   0  0  0  0  0  0  0  0  0  0  0  0
    8.4400   -3.3790   26.7280 O   0  0  0  0  0  0  0  0  0  0  0  0
    8.6960   -4.6770   26.3750 C   0  0  0  0  0  0  0  0  0  0  0  0
    9.6610   -5.3080   25.7230 C   0  0  0  0  0  0  0  0  0  0  0  0
    8.2910   -5.3760   25.1170 C   0  0  0  0  0  0  0  0  0  0  0  0
    8.9710   -5.6910   27.4720 C   0  0  0  0  0  0  0  0  0  0  0  0
    7.3510   -5.8250   28.3710 C   0  0  0  0  0  0  0  0  0  0  0  0
    6.3180   -6.5500   27.8120 O   0  0  0  0  0  0  0  0  0  0  0  0
    5.5770   -5.7720   26.9380 C   0  0  0  0  0  0  0  0  0  0  0  0
    6.2780   -4.8030   26.8790 C   0  0  1  0  0  0  0  0  0  0  0  0
    5.9290   -5.0330   23.4670 C   0  0  0  0  0  0  0  0  0  0  0  0
    6.5800   -5.4270   22.3240 C   0  0  0  0  0  0  0  0  0  0  0  0
  1  2  1  0
  2  3  2  0
  2  4  1  0
  4  5  1  0
  5  6  1  0
  6  7  1  0
  7  8  1  0
  8  9  2  0
  8 10  1  0
 10 11  1  0
 11 12  1  0
 12 13  1  0
 13 14  1  0
 14 15  1  6
 15 16  2  0
 15 17  1  0
 18 17  1  0
 18 19  1  0
 18 20  1  0
 18 21  1  0
 14 22  1  0
 22 23  1  0
 23 24  1  0
 10 25  1  0
 14 25  1  0
 25 24  1  1
  7 26  1  0
  4 27  1  0
 26 27  1  0
M  END
