piperidine-amides-33039-covalent
     RDKit          3D

 29 31  0  0  0  0  0  0  0  0999 V2000
    6.9880   -3.3510   19.4040 C   0  0  0  0  0  0  0  0  0  0  0  0
    6.3430   -4.2710   20.3900 C   0  0  0  0  0  0  0  0  0  0  0  0
    5.3870   -4.9600   19.9990 O   0  0  0  0  0  0  0  0  0  0  0  0
    6.8320   -4.3750   21.7210 N   0  0  0  0  0  0  0  0  0  0  0  0
    6.7070   -5.6220   22.4530 C   0  0  0  0  0  0  0  0  0  0  0  0
    6.4380   -5.3540   23.9560 C   0  0  0  0  0  0  0  0  0  0  0  0
    6.2550   -3.8900   24.1570 C   0  0  0  0  0  0  0  0  0  0  0  0
    5.7670   -3.4100   25.4960 C   0  0  0  0  0  0  0  0  0  0  0  0
    5.0990   -2.3740   25.4140 O   0  0  0  0  0  0  0  0  0  0  0  0
    5.9590   -4.0290   26.7670 N   0  0  0  0  0  0  0  0  0  0  0  0
    5.1430   -3.7560   27.8980 C   0  0  0  0  0  0  0  0  0  0  0  0
    5.2440   -4.4120   29.1120 C   0  0  0  0  0  0  0  0  0  0  0  0
    5.7670   -5.7470   28.8690 N   0  0  0  0  0  0  0  0  0  0  0  0
    5.4090   -6.9870   29.5920 C   0  0  2  0  0  0  0  0  0  0  0  0
    5.1690   -6.7460   30.9180 C   0  0  0  0  0  0  0  0  0  0  0  0
    6.5440   -7.9430   29.5670 C   0  0  0  0  0  0  0  0  0  0  0  0
    7.5030   -7.4980   28.7850 O   0  0  0  0  0  0  0  0  0  0  0  0
    6.6770   -9.2670   30.2120 N   0  0  0  0  0  0  0  0  0  0  0  0
    7.8330  -10.3380   30.3490 C   0  0  0  0  0  0  0  0  0  0  0  0
    8.0010  -10.9520   31.7470 C   0  0  0  0  0  0  0  0  0  0  0  0
    8.9110  -11.8840   32.1120 C   0  0  0  0  0  0  0  0  0  0  0  0
    9.9370  -12.5290   31.2750 C   0  0  0  0  0  0  0  0  0  0  0  0
    9.7600  -11.9330   29.8700 C   0  0  0  0  0  0  0  0  0  0  0  0
   10.6250  -12.4400   28.9590 F   0  0  0  0  0  0  0  0  0  0  0  0
    8.8480  -10.9780   29.4410 C   0  0  0  0  0  0  0  0  0  0  0  0
    7.0590   -5.7380   28.1640 C   0  0  0  0  0  0  0  0  0  0  0  0
    7.2770   -4.5570   27.1910 C   0  0  0  0  0  0  0  0  0  0  0  0
    7.5020   -3.1500   23.7390 C   0  0  0  0  0  0  0  0  0  0  0  0
    7.6710   -3.2930   22.2670 C   0  0  0  0  0  0  0  0  0  0  0  0
  1  2  1  0
  2  3  2  0
  2  4  1  0
  4  5  1  0
  5  6  1  0
  6  7  1  0
  7  8  1  0
  8  9  2  0
  8 10  1  0
 10 11  1  0
 11 12  1  0
 12 13  1  0
 13 14  1  0
 14 15  1  1
 14 16  1  0
 16 17  2  0
 16 18  1  0
 18 19  1  0
 19 20  2  0
 20 21  1  0
 21 22  2  0
 22 23  1  0
 23 24  1  0
 19 25  1  0
 23 25  2  0
 13 26  1  0
 10 27  1  0
 26 27  1  0
  7 28  1  0
  4 29  1  0
 28 29  1  0
M  END
