piperidine-amides-364-covalent
     RDKit          3D

 28 31  0  0  0  0  0  0  0  0999 V2000
    7.0430   -3.3650   19.2730 C   0  0  0  0  0  0  0  0  0  0  0  0
    6.3640   -4.0840   20.3280 C   0  0  0  0  0  0  0  0  0  0  0  0
    5.3740   -4.8000   19.9810 O   0  0  0  0  0  0  0  0  0  0  0  0
    6.7730   -4.0550   21.6870 N   0  0  0  0  0  0  0  0  0  0  0  0
    6.6560   -5.3410   22.4450 C   0  0  0  0  0  0  0  0  0  0  0  0
    5.9550   -4.9400   23.8220 C   0  0  0  0  0  0  0  0  0  0  0  0
    6.1890   -3.4630   24.0080 C   0  0  0  0  0  0  0  0  0  0  0  0
    5.4180   -2.7910   25.2340 C   0  0  0  0  0  0  0  0  0  0  0  0
    4.7170   -1.8900   24.8150 O   0  0  0  0  0  0  0  0  0  0  0  0
    5.6970   -3.3540   26.3380 N   0  0  0  0  0  0  0  0  0  0  0  0
    5.8630   -3.9650   27.5350 C   0  0  2  0  0  0  0  0  0  0  0  0
    5.5190   -5.1840   28.0410 C   0  0  0  0  0  0  0  0  0  0  0  0
    6.0780   -5.5140   29.2730 C   0  0  0  0  0  0  0  0  0  0  0  0
    5.8550   -6.7780   30.0290 C   0  0  0  0  0  0  0  0  0  0  0  0
    4.8840   -7.7130   29.2370 C   0  0  0  0  0  0  0  0  0  0  0  0
    4.4200   -7.2210   28.0130 C   0  0  0  0  0  0  0  0  0  0  0  0
    4.7160   -6.0110   27.4250 C   0  0  0  0  0  0  0  0  0  0  0  0
    5.4790   -3.0450   28.6150 C   0  0  0  0  0  0  0  0  0  0  0  0
    4.4300   -3.2250   29.1330 N   0  0  0  0  0  0  0  0  0  0  0  0
    4.2450   -2.3030   30.1090 C   0  0  0  0  0  0  0  0  0  0  0  0
    3.0840   -2.3210   30.8550 C   0  0  0  0  0  0  0  0  0  0  0  0
    2.7930   -1.4330   31.8680 C   0  0  0  0  0  0  0  0  0  0  0  0
    3.7350   -0.4940   32.1180 C   0  0  0  0  0  0  0  0  0  0  0  0
    4.9050   -0.4260   31.4140 C   0  0  0  0  0  0  0  0  0  0  0  0
    5.1630   -1.3370   30.4000 C   0  0  0  0  0  0  0  0  0  0  0  0
    6.3430   -1.7220   29.2680 S   0  0  0  0  0  0  0  0  0  0  0  0
    7.5310   -2.9500   23.6760 C   0  0  0  0  0  0  0  0  0  0  0  0
    7.7290   -3.1040   22.2110 C   0  0  0  0  0  0  0  0  0  0  0  0
  1  2  1  0
  2  3  2  0
  2  4  1  0
  4  5  1  0
  5  6  1  0
  6  7  1  0
  7  8  1  0
  8  9  2  0
  8 10  1  0
 11 10  1  6
 11 12  1  0
 12 13  2  0
 13 14  1  0
 14 15  2  0
 15 16  1  0
 12 17  1  0
 16 17  2  0
 11 18  1  0
 18 19  2  0
 19 20  1  0
 20 21  2  0
 21 22  1  0
 22 23  2  0
 23 24  1  0
 20 25  1  0
 24 25  2  0
 18 26  1  0
 25 26  1  0
  7 27  1  0
  4 28  1  0
 27 28  1  0
M  END
