piperidine-amides-25045-covalent
     RDKit          3D

 24 26  0  0  0  0  0  0  0  0999 V2000
    7.0320   -3.3620   19.3910 C   0  0  0  0  0  0  0  0  0  0  0  0
    6.4050   -4.2590   20.3990 C   0  0  0  0  0  0  0  0  0  0  0  0
    5.4300   -4.9040   20.0030 O   0  0  0  0  0  0  0  0  0  0  0  0
    6.9250   -4.3880   21.7070 N   0  0  0  0  0  0  0  0  0  0  0  0
    6.5920   -5.5150   22.5290 C   0  0  0  0  0  0  0  0  0  0  0  0
    5.8090   -5.0470   23.7370 C   0  0  0  0  0  0  0  0  0  0  0  0
    6.3620   -3.7470   24.3570 C   0  0  0  0  0  0  0  0  0  0  0  0
    5.3100   -3.2170   25.2810 C   0  0  0  0  0  0  0  0  0  0  0  0
    4.4620   -2.4680   24.7990 O   0  0  0  0  0  0  0  0  0  0  0  0
    5.1960   -3.5180   26.6700 N   0  0  0  0  0  0  0  0  0  0  0  0
    4.7090   -2.5460   27.5640 C   0  0  0  0  0  0  0  0  0  0  0  0
    4.2330   -3.3710   28.7240 C   0  0  0  0  0  0  0  0  0  0  0  0
    4.6960   -4.6130   29.0250 C   0  0  0  0  0  0  0  0  0  0  0  0
    5.6920   -5.0480   28.2500 C   0  0  0  0  0  0  0  0  0  0  0  0
    6.2210   -6.2300   28.4960 C   0  0  0  0  0  0  0  0  0  0  0  0
    5.7970   -7.1430   29.5750 C   0  0  0  0  0  0  0  0  0  0  0  0
    6.3370   -8.3820   29.8710 F   0  0  0  0  0  0  0  0  0  0  0  0
    4.6610   -6.5700   30.3660 C   0  0  0  0  0  0  0  0  0  0  0  0
    4.2020   -7.3840   31.3980 F   0  0  0  0  0  0  0  0  0  0  0  0
    3.9420   -5.2230   30.2050 C   0  0  0  0  0  0  0  0  0  0  0  0
    2.8670   -4.7160   30.9850 F   0  0  0  0  0  0  0  0  0  0  0  0
    6.1940   -4.3270   27.1970 C   0  0  0  0  0  0  0  0  0  0  0  0
    6.7620   -2.7030   23.3390 C   0  0  0  0  0  0  0  0  0  0  0  0
    7.7020   -3.3390   22.3300 C   0  0  0  0  0  0  0  0  0  0  0  0
  1  2  1  0
  2  3  2  0
  2  4  1  0
  4  5  1  0
  5  6  1  0
  6  7  1  0
  7  8  1  0
  8  9  2  0
  8 10  1  0
 10 11  1  0
 11 12  1  0
 12 13  1  0
 13 14  2  0
 14 15  1  0
 15 16  2  0
 16 17  1  0
 16 18  1  0
 18 19  1  0
 13 20  1  0
 18 20  2  0
 20 21  1  0
 10 22  1  0
 14 22  1  0
  7 23  1  0
  4 24  1  0
 23 24  1  0
M  END
