piperidine-amides-25594-covalent
     RDKit          3D

 24 26  0  0  0  0  0  0  0  0999 V2000
    7.1120   -3.3070   19.2640 C   0  0  0  0  0  0  0  0  0  0  0  0
    6.4100   -4.1470   20.2650 C   0  0  0  0  0  0  0  0  0  0  0  0
    5.3430   -4.6580   19.9260 O   0  0  0  0  0  0  0  0  0  0  0  0
    6.9910   -4.3830   21.5110 N   0  0  0  0  0  0  0  0  0  0  0  0
    6.6530   -5.5550   22.2650 C   0  0  0  0  0  0  0  0  0  0  0  0
    5.9000   -5.1290   23.4900 C   0  0  0  0  0  0  0  0  0  0  0  0
    6.6420   -3.9780   24.1800 C   0  0  0  0  0  0  0  0  0  0  0  0
    5.7890   -3.5630   25.2940 C   0  0  0  0  0  0  0  0  0  0  0  0
    4.7960   -2.8480   25.1000 O   0  0  0  0  0  0  0  0  0  0  0  0
    6.1210   -3.9850   26.5740 N   0  0  0  0  0  0  0  0  0  0  0  0
    5.9050   -2.9990   27.6070 C   0  0  0  0  0  0  0  0  0  0  0  0
    5.6500   -3.7660   28.8590 C   0  0  0  0  0  0  0  0  0  0  0  0
    6.0870   -5.0360   28.9090 C   0  0  1  0  0  0  0  0  0  0  0  0
    5.0640   -5.9390   29.0110 C   0  0  0  0  0  0  0  0  0  0  0  0
    5.3180   -6.9610   29.9270 F   0  0  0  0  0  0  0  0  0  0  0  0
    3.8670   -5.3620   29.4790 F   0  0  0  0  0  0  0  0  0  0  0  0
    4.7960   -6.5430   27.8020 F   0  0  0  0  0  0  0  0  0  0  0  0
    6.9970   -5.3850   27.9210 N   0  0  0  0  0  0  0  0  0  0  0  0
    8.0460   -6.3820   28.0990 N   0  0  0  0  0  0  0  0  0  0  0  0
    8.5110   -6.1650   26.7560 C   0  0  0  0  0  0  0  0  0  0  0  0
    7.5210   -5.7370   27.6960 C   0  0  0  0  0  0  0  0  0  0  0  0
    7.1870   -4.9430   26.6100 C   0  0  0  0  0  0  0  0  0  0  0  0
    6.9190   -2.8180   23.3220 C   0  0  0  0  0  0  0  0  0  0  0  0
    7.6690   -3.2780   22.1360 C   0  0  0  0  0  0  0  0  0  0  0  0
  1  2  1  0
  2  3  2  0
  2  4  1  0
  4  5  1  0
  5  6  1  0
  6  7  1  0
  7  8  1  0
  8  9  2  0
  8 10  1  0
 10 11  1  0
 11 12  1  0
 12 13  1  0
 13 14  1  6
 14 15  1  0
 14 16  1  0
 14 17  1  0
 13 18  1  0
 18 19  1  0
 19 20  2  0
 20 21  1  0
 10 22  1  0
 18 22  1  0
 21 22  2  0
  7 23  1  0
  4 24  1  0
 23 24  1  0
M  END
