piperidine-amides-21618-covalent
     RDKit          3D

 23 25  0  0  0  0  0  0  0  0999 V2000
    6.9620   -3.3770   19.3780 C   0  0  0  0  0  0  0  0  0  0  0  0
    6.2900   -4.2670   20.3380 C   0  0  0  0  0  0  0  0  0  0  0  0
    5.2480   -4.8280   19.9410 O   0  0  0  0  0  0  0  0  0  0  0  0
    6.8090   -4.5000   21.6050 N   0  0  0  0  0  0  0  0  0  0  0  0
    6.4270   -5.6360   22.4070 C   0  0  0  0  0  0  0  0  0  0  0  0
    5.6570   -5.1440   23.6140 C   0  0  0  0  0  0  0  0  0  0  0  0
    6.3340   -3.9730   24.2940 C   0  0  0  0  0  0  0  0  0  0  0  0
    5.5660   -3.4830   25.4890 C   0  0  0  0  0  0  0  0  0  0  0  0
    4.3600   -3.2040   25.3060 O   0  0  0  0  0  0  0  0  0  0  0  0
    6.0830   -3.3120   26.8140 N   0  0  0  0  0  0  0  0  0  0  0  0
    5.3490   -3.8740   27.9190 C   0  0  0  0  0  0  0  0  0  0  0  0
    6.4360   -4.7090   28.5010 C   0  0  0  0  0  0  0  0  0  0  0  0
    7.6130   -4.4200   27.8990 C   0  0  0  0  0  0  0  0  0  0  0  0
    7.5180   -3.2930   27.0730 C   0  0  1  0  0  0  0  0  0  0  0  0
    8.1250   -3.2090   25.8520 C   0  0  0  0  0  0  0  0  0  0  0  0
    8.1950   -2.1700   24.9670 C   0  0  0  0  0  0  0  0  0  0  0  0
    8.9140   -2.5900   23.8510 C   0  0  0  0  0  0  0  0  0  0  0  0
    9.2290   -1.7360   22.6390 C   0  0  0  0  0  0  0  0  0  0  0  0
    9.2370   -3.8890   24.1450 N   0  0  0  0  0  0  0  0  0  0  0  0
    8.7960   -4.2770   25.3230 N   0  0  0  0  0  0  0  0  0  0  0  0
    9.0560   -5.5250   25.7430 C   0  0  0  0  0  0  0  0  0  0  0  0
    6.5300   -2.8470   23.2640 C   0  0  0  0  0  0  0  0  0  0  0  0
    7.5130   -3.4360   22.2720 C   0  0  0  0  0  0  0  0  0  0  0  0
  1  2  1  0
  2  3  2  0
  2  4  1  0
  4  5  1  0
  5  6  1  0
  6  7  1  0
  7  8  1  0
  8  9  2  0
  8 10  1  0
 10 11  1  0
 11 12  1  0
 12 13  1  0
 10 14  1  0
 13 14  1  0
 14 15  1  6
 15 16  2  0
 16 17  1  0
 17 18  1  0
 17 19  2  0
 15 20  1  0
 19 20  1  0
 20 21  1  0
  7 22  1  0
  4 23  1  0
 22 23  1  0
M  END
