piperidine-amides-1619-covalent
     RDKit          3D

 21 21  0  0  0  0  0  0  0  0999 V2000
    7.1100   -3.2650   19.2610 C   0  0  0  0  0  0  0  0  0  0  0  0
    6.3360   -4.0610   20.2510 C   0  0  0  0  0  0  0  0  0  0  0  0
    5.2690   -4.5840   19.8950 O   0  0  0  0  0  0  0  0  0  0  0  0
    6.8510   -4.2530   21.5550 N   0  0  0  0  0  0  0  0  0  0  0  0
    6.5960   -5.4670   22.2860 C   0  0  0  0  0  0  0  0  0  0  0  0
    5.8500   -5.0580   23.5610 C   0  0  0  0  0  0  0  0  0  0  0  0
    6.5940   -3.9180   24.1700 C   0  0  0  0  0  0  0  0  0  0  0  0
    5.9020   -3.3710   25.3600 C   0  0  0  0  0  0  0  0  0  0  0  0
    4.8190   -2.8130   25.1550 O   0  0  0  0  0  0  0  0  0  0  0  0
    6.4750   -3.5060   26.6270 N   0  0  0  0  0  0  0  0  0  0  0  0
    6.8040   -4.7250   27.2810 C   0  0  0  0  0  0  0  0  0  0  0  0
    5.9080   -5.7080   27.5860 C   0  0  0  0  0  0  0  0  0  0  0  0
    6.2190   -6.1720   28.9260 N   0  0  0  0  0  0  0  0  0  0  0  0
    5.3420   -6.1330   30.0070 C   0  0  0  0  0  0  0  0  0  0  0  0
    4.4340   -5.1060   30.2140 O   0  0  0  0  0  0  0  0  0  0  0  0
    5.4380   -7.2010   30.8700 C   0  0  0  0  0  0  0  0  0  0  0  0
    5.9560   -7.0740   32.1390 O   0  0  0  0  0  0  0  0  0  0  0  0
    5.5850   -7.9420   33.2200 C   0  0  0  0  0  0  0  0  0  0  0  0
    4.0960   -8.3150   33.1890 C   0  0  0  0  0  0  0  0  0  0  0  0
    6.8550   -2.7660   23.2390 C   0  0  0  0  0  0  0  0  0  0  0  0
    7.6220   -3.2180   22.1860 C   0  0  0  0  0  0  0  0  0  0  0  0
  1  2  1  0
  2  3  2  0
  2  4  1  0
  4  5  1  0
  5  6  1  0
  6  7  1  0
  7  8  1  0
  8  9  2  0
  8 10  1  0
 10 11  1  0
 11 12  1  0
 12 13  1  0
 13 14  1  0
 14 15  2  0
 14 16  1  0
 16 17  1  0
 17 18  1  0
 18 19  1  0
  7 20  1  0
  4 21  1  0
 20 21  1  0
M  END
