piperidine-amides-18883-covalent
     RDKit          3D

 21 21  0  0  0  0  0  0  0  0999 V2000
    7.0950   -3.3360   19.2340 C   0  0  0  0  0  0  0  0  0  0  0  0
    6.3790   -4.0540   20.2610 C   0  0  0  0  0  0  0  0  0  0  0  0
    5.2870   -4.6020   19.9160 O   0  0  0  0  0  0  0  0  0  0  0  0
    6.8550   -4.2400   21.5800 N   0  0  0  0  0  0  0  0  0  0  0  0
    7.6600   -3.1630   22.1990 C   0  0  0  0  0  0  0  0  0  0  0  0
    6.6430   -2.6700   23.2960 C   0  0  0  0  0  0  0  0  0  0  0  0
    6.3390   -3.8720   24.1720 C   0  0  0  0  0  0  0  0  0  0  0  0
    5.4740   -3.3750   25.4140 C   0  0  0  0  0  0  0  0  0  0  0  0
    4.3110   -3.7090   25.2480 O   0  0  0  0  0  0  0  0  0  0  0  0
    6.1670   -2.7460   26.2740 N   0  0  0  0  0  0  0  0  0  0  0  0
    6.8930   -1.7010   26.7580 C   0  0  0  0  0  0  0  0  0  0  0  0
    5.8580   -3.4200   27.4950 C   0  0  2  0  0  0  0  0  0  0  0  0
    6.7330   -3.3300   28.6010 C   0  0  0  0  0  0  0  0  0  0  0  0
    5.7490   -4.9490   27.2840 C   0  0  0  0  0  0  0  0  0  0  0  0
    4.3520   -4.9630   27.9290 C   0  0  0  0  0  0  0  0  0  0  0  0
    3.3460   -4.0560   27.5240 O   0  0  0  0  0  0  0  0  0  0  0  0
    4.0150   -5.7740   28.8290 O   0  0  0  0  0  0  0  0  0  0  0  0
    4.2840   -7.0970   28.5280 C   0  0  0  0  0  0  0  0  0  0  0  0
    4.0200   -7.2260   27.1550 C   0  0  0  0  0  0  0  0  0  0  0  0
    5.8610   -5.0890   23.5520 C   0  0  0  0  0  0  0  0  0  0  0  0
    6.7390   -5.4240   22.3130 C   0  0  0  0  0  0  0  0  0  0  0  0
  1  2  1  0
  2  3  2  0
  2  4  1  0
  4  5  1  0
  5  6  1  0
  6  7  1  0
  7  8  1  0
  8  9  2  0
  8 10  1  0
 10 11  1  0
 10 12  1  0
 12 13  1  1
 12 14  1  0
 14 15  1  0
 15 16  2  0
 15 17  1  0
 17 18  1  0
 18 19  1  0
  7 20  1  0
  4 21  1  0
 20 21  1  0
M  END
