piperidine-amides-4202-covalent
     RDKit          3D

 27 29  0  0  0  0  0  0  0  0999 V2000
    7.1450   -3.3380   19.2700 C   0  0  0  0  0  0  0  0  0  0  0  0
    6.3950   -4.1060   20.2660 C   0  0  0  0  0  0  0  0  0  0  0  0
    5.2950   -4.5810   19.9020 O   0  0  0  0  0  0  0  0  0  0  0  0
    6.9340   -4.3630   21.5470 N   0  0  0  0  0  0  0  0  0  0  0  0
    7.6020   -3.2760   22.1740 C   0  0  0  0  0  0  0  0  0  0  0  0
    7.0440   -2.8710   23.4560 C   0  0  0  0  0  0  0  0  0  0  0  0
    6.4220   -3.9430   24.2680 C   0  0  0  0  0  0  0  0  0  0  0  0
    5.7100   -3.3480   25.4460 C   0  0  0  0  0  0  0  0  0  0  0  0
    4.4710   -3.2360   25.4090 O   0  0  0  0  0  0  0  0  0  0  0  0
    6.4030   -2.9110   26.5900 N   0  0  0  0  0  0  0  0  0  0  0  0
    6.0530   -1.8510   27.4620 C   0  0  0  0  0  0  0  0  0  0  0  0
    6.9400   -1.4810   28.5710 C   0  0  0  0  0  0  0  0  0  0  0  0
    6.1960   -0.6410   29.6370 C   0  0  0  0  0  0  0  0  0  0  0  0
    5.9640    0.7250   29.1180 N   0  0  0  0  0  0  0  0  0  0  0  0
    6.8740    1.6640   29.7120 C   0  0  0  0  0  0  0  0  0  0  0  0
    6.2830    2.0990   31.0610 C   0  0  0  0  0  0  0  0  0  0  0  0
    5.1010    2.7070   30.3640 C   0  0  0  0  0  0  0  0  0  0  0  0
    5.7450    4.0740   30.6370 C   0  0  0  0  0  0  0  0  0  0  0  0
    5.9040    4.5570   32.0670 C   0  0  0  0  0  0  0  0  0  0  0  0
    6.5400    5.9040   32.2700 C   0  0  0  0  0  0  0  0  0  0  0  0
    6.9970    6.7310   31.0870 C   0  0  0  0  0  0  0  0  0  0  0  0
    6.7720    6.1220   29.7520 C   0  0  0  0  0  0  0  0  0  0  0  0
    6.1780    4.8610   29.5350 C   0  0  0  0  0  0  0  0  0  0  0  0
    5.8170    0.7160   27.6490 C   0  0  0  0  0  0  0  0  0  0  0  0
    5.7920   -0.5340   26.8190 C   0  0  0  0  0  0  0  0  0  0  0  0
    5.5600   -4.8590   23.4560 C   0  0  0  0  0  0  0  0  0  0  0  0
    6.3650   -5.4260   22.3060 C   0  0  0  0  0  0  0  0  0  0  0  0
  1  2  1  0
  2  3  2  0
  2  4  1  0
  4  5  1  0
  5  6  1  0
  6  7  1  0
  7  8  1  0
  8  9  2  0
  8 10  1  0
 10 11  1  0
 11 12  1  0
 12 13  1  0
 13 14  1  0
 14 15  1  0
 15 16  1  0
 16 17  1  0
 17 18  1  0
 18 19  2  0
 19 20  1  0
 20 21  2  0
 21 22  1  0
 18 23  1  0
 22 23  2  0
 14 24  1  0
 11 25  1  0
 24 25  1  0
  7 26  1  0
  4 27  1  0
 26 27  1  0
M  END
