piperidine-amides-17202-covalent
     RDKit          3D

 20 21  0  0  0  0  0  0  0  0999 V2000
    7.0660   -3.3660   19.3740 C   0  0  0  0  0  0  0  0  0  0  0  0
    6.4210   -4.2420   20.3640 C   0  0  0  0  0  0  0  0  0  0  0  0
    5.3870   -4.8490   19.9870 O   0  0  0  0  0  0  0  0  0  0  0  0
    6.9750   -4.4330   21.6590 N   0  0  0  0  0  0  0  0  0  0  0  0
    6.4840   -5.4970   22.4560 C   0  0  0  0  0  0  0  0  0  0  0  0
    5.8800   -5.0870   23.7280 C   0  0  0  0  0  0  0  0  0  0  0  0
    6.4030   -3.8460   24.3660 C   0  0  0  0  0  0  0  0  0  0  0  0
    5.4440   -3.3390   25.4260 C   0  0  0  0  0  0  0  0  0  0  0  0
    4.5970   -2.5030   25.0740 O   0  0  0  0  0  0  0  0  0  0  0  0
    5.4200   -3.7480   26.7970 N   0  0  0  0  0  0  0  0  0  0  0  0
    6.3610   -3.5100   27.7650 C   0  0  0  0  0  0  0  0  0  0  0  0
    6.7610   -4.6690   28.5390 C   0  0  0  0  0  0  0  0  0  0  0  0
    5.5290   -5.0960   29.2630 C   0  0  0  0  0  0  0  0  0  0  0  0
    5.4680   -6.4810   29.4280 C   0  0  0  0  0  0  0  0  0  0  0  0
    4.8490   -6.3170   30.8230 C   0  0  0  0  0  0  0  0  0  0  0  0
    5.7030   -6.7510   31.8510 O   0  0  0  0  0  0  0  0  0  0  0  0
    4.3360   -5.1150   28.3940 C   0  0  0  0  0  0  0  0  0  0  0  0
    4.1660   -3.8710   27.4700 C   0  0  0  0  0  0  0  0  0  0  0  0
    6.7820   -2.7590   23.3860 C   0  0  0  0  0  0  0  0  0  0  0  0
    7.6820   -3.3630   22.3260 C   0  0  0  0  0  0  0  0  0  0  0  0
  1  2  1  0
  2  3  2  0
  2  4  1  0
  4  5  1  0
  5  6  1  0
  6  7  1  0
  7  8  1  0
  8  9  2  0
  8 10  1  0
 10 11  1  0
 11 12  1  0
 12 13  1  0
 13 14  1  0
 14 15  1  0
 15 16  1  0
 13 17  1  0
 10 18  1  0
 17 18  1  0
  7 19  1  0
  4 20  1  0
 19 20  1  0
M  END
