piperidine-amides-30865-covalent
     RDKit          3D

 28 31  0  0  0  0  0  0  0  0999 V2000
    7.0730   -3.3560   19.3460 C   0  0  0  0  0  0  0  0  0  0  0  0
    6.3230   -4.1620   20.3090 C   0  0  0  0  0  0  0  0  0  0  0  0
    5.2920   -4.7390   19.9440 O   0  0  0  0  0  0  0  0  0  0  0  0
    6.7830   -4.3360   21.6210 N   0  0  0  0  0  0  0  0  0  0  0  0
    6.6060   -5.5850   22.3360 C   0  0  0  0  0  0  0  0  0  0  0  0
    5.9520   -5.2500   23.6610 C   0  0  0  0  0  0  0  0  0  0  0  0
    5.8780   -3.7720   23.8980 C   0  0  0  0  0  0  0  0  0  0  0  0
    5.4620   -3.4210   25.2860 C   0  0  0  0  0  0  0  0  0  0  0  0
    4.2750   -3.0420   25.4980 O   0  0  0  0  0  0  0  0  0  0  0  0
    6.2960   -3.4840   26.4200 N   0  0  0  0  0  0  0  0  0  0  0  0
    5.7260   -3.4110   27.7760 C   0  0  0  0  0  0  0  0  0  0  0  0
    5.8780   -4.7330   28.4190 C   0  0  0  0  0  0  0  0  0  0  0  0
    7.1770   -5.4340   28.2560 C   0  0  0  0  0  0  0  0  0  0  0  0
    8.1790   -4.7650   27.3420 C   0  0  0  0  0  0  0  0  0  0  0  0
    7.6930   -3.7270   26.3840 C   0  0  0  0  0  0  0  0  0  0  0  0
    8.7110   -3.0690   25.5460 N   0  0  0  0  0  0  0  0  0  0  0  0
    9.9830   -3.7760   25.4840 C   0  0  0  0  0  0  0  0  0  0  0  0
   10.9140   -3.0940   24.7590 C   0  0  0  0  0  0  0  0  0  0  0  0
   12.2650   -3.0860   25.1960 C   0  0  0  0  0  0  0  0  0  0  0  0
   13.4100   -2.3700   24.5100 C   0  0  0  0  0  0  0  0  0  0  0  0
   12.9320   -1.6500   23.2750 C   0  0  0  0  0  0  0  0  0  0  0  0
   11.4880   -1.9110   23.1790 C   0  0  0  0  0  0  0  0  0  0  0  0
   10.5790   -2.4160   23.6300 N   0  0  0  0  0  0  0  0  0  0  0  0
   10.0760   -4.9400   26.1540 N   0  0  0  0  0  0  0  0  0  0  0  0
    9.4960   -5.0450   27.3340 C   0  0  0  0  0  0  0  0  0  0  0  0
   10.0460   -5.3320   28.3840 O   0  0  0  0  0  0  0  0  0  0  0  0
    7.0780   -3.0040   23.5160 C   0  0  0  0  0  0  0  0  0  0  0  0
    7.5450   -3.3150   22.2650 C   0  0  0  0  0  0  0  0  0  0  0  0
  1  2  1  0
  2  3  2  0
  2  4  1  0
  4  5  1  0
  5  6  1  0
  6  7  1  0
  7  8  1  0
  8  9  2  0
  8 10  1  0
 10 11  1  0
 11 12  1  0
 12 13  1  0
 13 14  1  0
 10 15  1  0
 14 15  2  0
 15 16  1  0
 16 17  2  0
 17 18  1  0
 18 19  2  0
 19 20  1  0
 20 21  2  0
 21 22  1  0
 18 23  1  0
 22 23  2  0
 17 24  1  0
 14 25  1  0
 24 25  1  0
 25 26  2  0
  7 27  1  0
  4 28  1  0
 27 28  1  0
M  END
