piperidine-amides-19010-covalent
     RDKit          3D

 21 23  0  0  0  0  0  0  0  0999 V2000
    7.0360   -3.4150   19.3570 C   0  0  0  0  0  0  0  0  0  0  0  0
    6.4090   -4.2210   20.3790 C   0  0  0  0  0  0  0  0  0  0  0  0
    5.4180   -4.9280   20.0110 O   0  0  0  0  0  0  0  0  0  0  0  0
    6.8740   -4.2880   21.7170 N   0  0  0  0  0  0  0  0  0  0  0  0
    6.5980   -5.5180   22.4690 C   0  0  0  0  0  0  0  0  0  0  0  0
    5.5220   -4.9400   23.4640 C   0  0  0  0  0  0  0  0  0  0  0  0
    6.1510   -3.7900   24.2430 C   0  0  0  0  0  0  0  0  0  0  0  0
    5.0580   -3.3580   25.3370 C   0  0  0  0  0  0  0  0  0  0  0  0
    3.9700   -3.2660   24.8020 O   0  0  0  0  0  0  0  0  0  0  0  0
    5.5790   -3.2160   26.4890 N   0  0  0  0  0  0  0  0  0  0  0  0
    6.4450   -3.1060   27.4660 C   0  0  0  0  0  0  0  0  0  0  0  0
    6.6050   -3.8310   28.6030 C   0  0  0  0  0  0  0  0  0  0  0  0
    5.5170   -4.7030   28.6210 C   0  0  0  0  0  0  0  0  0  0  0  0
    4.1840   -4.4130   28.0810 C   0  0  0  0  0  0  0  0  0  0  0  0
    4.5960   -3.0180   27.5360 C   0  0  0  0  0  0  0  0  0  0  0  0
    5.5680   -5.8720   27.7790 C   0  0  0  0  0  0  0  0  0  0  0  0
    6.0740   -6.0040   29.1100 C   0  0  0  0  0  0  0  0  0  0  0  0
    5.3320   -6.7850   29.9520 F   0  0  0  0  0  0  0  0  0  0  0  0
    7.3760   -6.3280   29.1340 F   0  0  0  0  0  0  0  0  0  0  0  0
    6.8520   -2.7360   23.5310 C   0  0  0  0  0  0  0  0  0  0  0  0
    7.6990   -3.3540   22.3690 C   0  0  0  0  0  0  0  0  0  0  0  0
  1  2  1  0
  2  3  2  0
  2  4  1  0
  4  5  1  0
  5  6  1  0
  6  7  1  0
  7  8  1  0
  8  9  2  0
  8 10  1  0
 10 11  1  0
 11 12  1  0
 13 12  1  0
 13 14  1  0
 10 15  1  0
 14 15  1  0
 13 16  1  0
 13 17  1  0
 16 17  1  0
 17 18  1  0
 17 19  1  0
  7 20  1  0
  4 21  1  0
 20 21  1  0
M  END
