piperidine-amides-8305-covalent
     RDKit          3D

 25 26  0  0  0  0  0  0  0  0999 V2000
    7.0670   -3.3330   19.3070 C   0  0  0  0  0  0  0  0  0  0  0  0
    6.4050   -4.1730   20.3010 C   0  0  0  0  0  0  0  0  0  0  0  0
    5.3670   -4.7720   19.9650 O   0  0  0  0  0  0  0  0  0  0  0  0
    6.9850   -4.3290   21.5830 N   0  0  0  0  0  0  0  0  0  0  0  0
    6.5500   -5.4320   22.3820 C   0  0  0  0  0  0  0  0  0  0  0  0
    5.6920   -4.8970   23.4900 C   0  0  0  0  0  0  0  0  0  0  0  0
    6.5060   -3.8540   24.2280 C   0  0  0  0  0  0  0  0  0  0  0  0
    5.6970   -3.2870   25.3580 C   0  0  0  0  0  0  0  0  0  0  0  0
    4.4810   -3.2840   25.1950 O   0  0  0  0  0  0  0  0  0  0  0  0
    6.3470   -2.8070   26.4870 N   0  0  0  0  0  0  0  0  0  0  0  0
    6.2940   -1.4140   26.8050 C   0  0  0  0  0  0  0  0  0  0  0  0
    6.2070   -0.3640   25.9150 C   0  0  0  0  0  0  0  0  0  0  0  0
    6.1600    0.9570   26.3460 C   0  0  0  0  0  0  0  0  0  0  0  0
    6.1980    1.3940   27.6760 C   0  0  0  0  0  0  0  0  0  0  0  0
    6.2890    0.3050   28.6790 C   0  0  0  0  0  0  0  0  0  0  0  0
    6.3310   -1.1410   28.1910 C   0  0  0  0  0  0  0  0  0  0  0  0
    6.3920   -2.0730   29.2830 C   0  0  0  0  0  0  0  0  0  0  0  0
    6.5480   -3.3120   29.1430 O   0  0  0  0  0  0  0  0  0  0  0  0
    6.2240   -1.5340   30.5890 N   0  0  0  0  0  0  0  0  0  0  0  0
    4.9340   -0.9280   30.8120 C   0  0  0  0  0  0  0  0  0  0  0  0
    4.8890    0.1780   31.8920 C   0  0  0  0  0  0  0  0  0  0  0  0
    7.2410   -0.5550   30.8910 C   0  0  0  0  0  0  0  0  0  0  0  0
    8.3310   -0.8010   30.1010 C   0  0  0  0  0  0  0  0  0  0  0  0
    6.9600   -2.7240   23.3750 C   0  0  0  0  0  0  0  0  0  0  0  0
    7.7180   -3.2600   22.2030 C   0  0  0  0  0  0  0  0  0  0  0  0
  1  2  1  0
  2  3  2  0
  2  4  1  0
  4  5  1  0
  5  6  1  0
  6  7  1  0
  7  8  1  0
  8  9  2  0
  8 10  1  0
 10 11  1  0
 11 12  2  0
 12 13  1  0
 13 14  2  0
 14 15  1  0
 11 16  1  0
 15 16  2  0
 16 17  1  0
 17 18  2  0
 17 19  1  0
 19 20  1  0
 20 21  1  0
 19 22  1  0
 22 23  1  0
  7 24  1  0
  4 25  1  0
 24 25  1  0
M  END
