piperidine-amides-32456-covalent
     RDKit          3D

 29 31  0  0  0  0  0  0  0  0999 V2000
    7.0630   -3.3320   19.3390 C   0  0  0  0  0  0  0  0  0  0  0  0
    6.3770   -4.1970   20.3370 C   0  0  0  0  0  0  0  0  0  0  0  0
    5.3740   -4.8390   19.9800 O   0  0  0  0  0  0  0  0  0  0  0  0
    6.9020   -4.3110   21.6440 N   0  0  0  0  0  0  0  0  0  0  0  0
    6.5410   -5.3770   22.5260 C   0  0  0  0  0  0  0  0  0  0  0  0
    5.6300   -4.7560   23.5980 C   0  0  0  0  0  0  0  0  0  0  0  0
    6.3330   -3.6120   24.2960 C   0  0  0  0  0  0  0  0  0  0  0  0
    5.4260   -2.9150   25.2590 C   0  0  0  0  0  0  0  0  0  0  0  0
    4.3860   -2.4750   24.7710 O   0  0  0  0  0  0  0  0  0  0  0  0
    5.7200   -2.7760   26.6350 N   0  0  0  0  0  0  0  0  0  0  0  0
    5.6810   -3.7950   27.5970 C   0  0  0  0  0  0  0  0  0  0  0  0
    6.7750   -4.5010   27.5950 C   0  0  0  0  0  0  0  0  0  0  0  0
    7.3940   -5.2610   28.5370 C   0  0  0  0  0  0  0  0  0  0  0  0
    8.5070   -5.7400   27.9830 C   0  0  0  0  0  0  0  0  0  0  0  0
    8.5790   -5.2970   26.7220 N   0  0  0  0  0  0  0  0  0  0  0  0
    9.4460   -5.4740   25.7910 C   0  0  0  0  0  0  0  0  0  0  0  0
    9.4170   -4.2280   24.8940 C   0  0  0  0  0  0  0  0  0  0  0  0
    7.5360   -4.5590   26.5110 N   0  0  0  0  0  0  0  0  0  0  0  0
    5.9020   -1.4480   27.1950 C   0  0  0  0  0  0  0  0  0  0  0  0
    6.7030   -1.4100   28.3320 C   0  0  0  0  0  0  0  0  0  0  0  0
    7.0430   -0.1980   29.1480 C   0  0  0  0  0  0  0  0  0  0  0  0
    6.3700    1.0470   28.5450 C   0  0  0  0  0  0  0  0  0  0  0  0
    6.5300    2.2850   29.1450 C   0  0  0  0  0  0  0  0  0  0  0  0
    6.8250    2.3130   27.6280 C   0  0  0  0  0  0  0  0  0  0  0  0
    5.5230    3.0040   29.7440 C   0  0  0  0  0  0  0  0  0  0  0  0
    5.5860    0.9780   27.4020 C   0  0  0  0  0  0  0  0  0  0  0  0
    5.3570   -0.2990   26.7230 C   0  0  0  0  0  0  0  0  0  0  0  0
    6.9640   -2.6190   23.3210 C   0  0  0  0  0  0  0  0  0  0  0  0
    7.5990   -3.1940   22.2560 C   0  0  0  0  0  0  0  0  0  0  0  0
  1  2  1  0
  2  3  2  0
  2  4  1  0
  4  5  1  0
  5  6  1  0
  6  7  1  0
  7  8  1  0
  8  9  2  0
  8 10  1  0
 10 11  1  0
 11 12  1  0
 12 13  1  0
 13 14  2  0
 14 15  1  0
 15 16  1  0
 16 17  1  0
 12 18  2  0
 15 18  1  0
 10 19  1  0
 19 20  2  0
 20 21  1  0
 21 22  2  0
 22 23  1  0
 23 24  1  0
 23 25  1  0
 22 26  1  0
 19 27  1  0
 26 27  2  0
  7 28  1  0
  4 29  1  0
 28 29  1  0
M  END
