piperidine-amides-5291-covalent
     RDKit          3D

 21 23  0  0  0  0  0  0  0  0999 V2000
    7.1560   -3.2600   19.1750 C   0  0  0  0  0  0  0  0  0  0  0  0
    6.4040   -4.0130   20.2070 C   0  0  0  0  0  0  0  0  0  0  0  0
    5.3090   -4.5050   19.8680 O   0  0  0  0  0  0  0  0  0  0  0  0
    6.9400   -4.1990   21.4870 N   0  0  0  0  0  0  0  0  0  0  0  0
    6.4380   -5.2280   22.3360 C   0  0  0  0  0  0  0  0  0  0  0  0
    5.9320   -4.7430   23.6290 C   0  0  0  0  0  0  0  0  0  0  0  0
    6.6640   -3.5800   24.1970 C   0  0  0  0  0  0  0  0  0  0  0  0
    5.8860   -2.8830   25.2440 C   0  0  0  0  0  0  0  0  0  0  0  0
    4.6640   -3.1170   25.3490 O   0  0  0  0  0  0  0  0  0  0  0  0
    6.5290   -1.9580   26.0970 N   0  0  0  0  0  0  0  0  0  0  0  0
    7.0410   -2.3220   27.4300 C   0  0  0  0  0  0  0  0  0  0  0  0
    6.0520   -3.1510   28.1590 C   0  0  0  0  0  0  0  0  0  0  0  0
    6.2600   -4.5400   28.0250 C   0  0  1  0  0  0  0  0  0  0  0  0
    5.5050   -5.4060   28.7640 C   0  0  0  0  0  0  0  0  0  0  0  0
    6.2660   -6.5150   28.9230 C   0  0  0  0  0  0  0  0  0  0  0  0
    7.3160   -6.1940   28.1210 C   0  0  1  0  0  0  0  0  0  0  0  0
    6.9740   -6.1590   26.8420 C   0  0  0  0  0  0  0  0  0  0  0  0
    6.3500   -5.0010   26.7460 C   0  0  0  0  0  0  0  0  0  0  0  0
    7.5900   -4.8850   28.2730 C   0  0  0  0  0  0  0  0  0  0  0  0
    7.1270   -2.5740   23.2190 C   0  0  0  0  0  0  0  0  0  0  0  0
    7.8480   -3.2320   22.0930 C   0  0  0  0  0  0  0  0  0  0  0  0
  1  2  1  0
  2  3  2  0
  2  4  1  0
  4  5  1  0
  5  6  1  0
  6  7  1  0
  7  8  1  0
  8  9  2  0
  8 10  1  0
 10 11  1  0
 11 12  1  0
 13 12  1  6
 13 14  1  0
 14 15  1  0
 16 15  1  1
 16 17  1  0
 13 18  1  0
 17 18  1  0
 13 19  1  0
 16 19  1  0
  7 20  1  0
  4 21  1  0
 20 21  1  0
M  END
