piperidine-amides-33713-covalent
     RDKit          3D

 27 28  0  0  0  0  0  0  0  0999 V2000
    7.0780   -3.2950   19.2700 C   0  0  0  0  0  0  0  0  0  0  0  0
    6.3740   -4.0710   20.3110 C   0  0  0  0  0  0  0  0  0  0  0  0
    5.3330   -4.6650   19.9320 O   0  0  0  0  0  0  0  0  0  0  0  0
    6.8520   -4.1990   21.6530 N   0  0  0  0  0  0  0  0  0  0  0  0
    7.6520   -3.1580   22.2240 C   0  0  0  0  0  0  0  0  0  0  0  0
    7.2880   -2.8830   23.6030 C   0  0  0  0  0  0  0  0  0  0  0  0
    6.0890   -3.6480   23.9750 C   0  0  0  0  0  0  0  0  0  0  0  0
    5.5510   -3.3540   25.3590 C   0  0  0  0  0  0  0  0  0  0  0  0
    4.3140   -3.3590   25.5070 O   0  0  0  0  0  0  0  0  0  0  0  0
    6.3370   -3.0350   26.4960 N   0  0  0  0  0  0  0  0  0  0  0  0
    6.7030   -1.6970   26.7800 C   0  0  0  0  0  0  0  0  0  0  0  0
    6.8400   -1.2530   28.1670 C   0  0  0  0  0  0  0  0  0  0  0  0
    6.2420    0.1570   28.2710 C   0  0  0  0  0  0  0  0  0  0  0  0
    6.1860   -3.8590   27.6830 C   0  0  0  0  0  0  0  0  0  0  0  0
    6.1910   -5.3880   27.5270 C   0  0  0  0  0  0  0  0  0  0  0  0
    6.9040   -6.0790   28.5040 O   0  0  0  0  0  0  0  0  0  0  0  0
    5.4900   -5.9500   26.4130 N   0  0  0  0  0  0  0  0  0  0  0  0
    4.2790   -6.6910   26.8360 C   0  0  0  0  0  0  0  0  0  0  0  0
    4.3330   -6.6730   28.3530 C   0  0  0  0  0  0  0  0  0  0  0  0
    3.3010   -7.3090   29.2440 C   0  0  0  0  0  0  0  0  0  0  0  0
    3.3760   -7.2820   30.9890 Cl  0  0  0  0  0  0  0  0  0  0  0  0
    2.1860   -7.9760   28.4360 C   0  0  0  0  0  0  0  0  0  0  0  0
    2.1480   -7.9860   26.8850 C   0  0  0  0  0  0  0  0  0  0  0  0
    3.2560   -7.3070   26.1510 C   0  0  0  0  0  0  0  0  0  0  0  0
    3.2880   -7.2730   24.4110 Cl  0  0  0  0  0  0  0  0  0  0  0  0
    6.2170   -5.1200   23.7110 C   0  0  0  0  0  0  0  0  0  0  0  0
    6.6100   -5.4100   22.4000 C   0  0  0  0  0  0  0  0  0  0  0  0
  1  2  1  0
  2  3  2  0
  2  4  1  0
  4  5  1  0
  5  6  1  0
  6  7  1  0
  7  8  1  0
  8  9  2  0
  8 10  1  0
 10 11  1  0
 11 12  1  0
 12 13  1  0
 10 14  1  0
 14 15  1  0
 15 16  2  0
 15 17  1  0
 17 18  1  0
 18 19  2  0
 19 20  1  0
 20 21  1  0
 20 22  2  0
 22 23  1  0
 18 24  1  0
 23 24  2  0
 24 25  1  0
  7 26  1  0
  4 27  1  0
 26 27  1  0
M  END
