piperidine-amides-32937-covalent
     RDKit          3D

 28 31  0  0  0  0  0  0  0  0999 V2000
    7.0900   -3.3600   19.3900 C   0  0  0  0  0  0  0  0  0  0  0  0
    6.3660   -4.2050   20.3740 C   0  0  0  0  0  0  0  0  0  0  0  0
    5.3760   -4.8490   19.9880 O   0  0  0  0  0  0  0  0  0  0  0  0
    6.8550   -4.2900   21.7040 N   0  0  0  0  0  0  0  0  0  0  0  0
    6.4270   -5.3200   22.5960 C   0  0  0  0  0  0  0  0  0  0  0  0
    5.5110   -4.6440   23.6350 C   0  0  0  0  0  0  0  0  0  0  0  0
    6.1770   -3.4430   24.2770 C   0  0  0  0  0  0  0  0  0  0  0  0
    5.1820   -2.5990   25.0130 C   0  0  0  0  0  0  0  0  0  0  0  0
    4.5450   -1.8230   24.3120 O   0  0  0  0  0  0  0  0  0  0  0  0
    4.9330   -2.6670   26.3990 N   0  0  0  0  0  0  0  0  0  0  0  0
    4.2390   -3.7510   26.9810 C   0  0  0  0  0  0  0  0  0  0  0  0
    5.0330   -4.7760   27.0170 C   0  0  0  0  0  0  0  0  0  0  0  0
    4.8280   -6.1990   27.2750 N   0  0  0  0  0  0  0  0  0  0  0  0
    6.1220   -6.6250   27.1390 N   0  0  0  0  0  0  0  0  0  0  0  0
    6.8060   -5.3840   26.8290 C   0  0  0  0  0  0  0  0  0  0  0  0
    8.0850   -5.1670   26.6240 C   0  0  0  0  0  0  0  0  0  0  0  0
    8.8910   -5.2510   27.7830 C   0  0  0  0  0  0  0  0  0  0  0  0
   10.3340   -5.0040   27.8000 C   0  0  0  0  0  0  0  0  0  0  0  0
   10.9690   -4.6430   26.4420 C   0  0  0  0  0  0  0  0  0  0  0  0
   12.7610   -4.3510   26.3820 Cl  0  0  0  0  0  0  0  0  0  0  0  0
   10.1290   -4.5660   25.3900 C   0  0  0  0  0  0  0  0  0  0  0  0
    8.6760   -4.8270   25.4300 C   0  0  0  0  0  0  0  0  0  0  0  0
    6.2570   -4.2300   26.7300 O   0  0  0  0  0  0  0  0  0  0  0  0
    5.5880   -1.5750   27.1370 C   0  0  0  0  0  0  0  0  0  0  0  0
    6.9730   -1.5050   27.2710 C   0  0  0  0  0  0  0  0  0  0  0  0
    6.1960   -0.3970   26.5310 C   0  0  0  0  0  0  0  0  0  0  0  0
    6.9500   -2.5250   23.3600 C   0  0  0  0  0  0  0  0  0  0  0  0
    7.7170   -3.2940   22.2880 C   0  0  0  0  0  0  0  0  0  0  0  0
  1  2  1  0
  2  3  2  0
  2  4  1  0
  4  5  1  0
  5  6  1  0
  6  7  1  0
  7  8  1  0
  8  9  2  0
  8 10  1  0
 10 11  1  0
 11 12  1  0
 12 13  2  0
 13 14  1  0
 14 15  2  0
 15 16  1  0
 16 17  2  0
 17 18  1  0
 18 19  2  0
 19 20  1  0
 19 21  1  0
 16 22  1  0
 21 22  2  0
 12 23  1  0
 15 23  1  0
 10 24  1  0
 24 25  1  0
 24 26  1  0
 25 26  1  0
  7 27  1  0
  4 28  1  0
 27 28  1  0
M  END
