piperidine-amides-13657-covalent
     RDKit          3D

 28 31  0  0  0  0  0  0  0  0999 V2000
    7.0470   -3.3340   19.3230 C   0  0  0  0  0  0  0  0  0  0  0  0
    6.3740   -4.1950   20.3380 C   0  0  0  0  0  0  0  0  0  0  0  0
    5.3950   -4.8760   19.9900 O   0  0  0  0  0  0  0  0  0  0  0  0
    6.9010   -4.2360   21.6530 N   0  0  0  0  0  0  0  0  0  0  0  0
    7.7200   -3.1450   22.1530 C   0  0  0  0  0  0  0  0  0  0  0  0
    7.4860   -2.9850   23.6600 C   0  0  0  0  0  0  0  0  0  0  0  0
    6.1120   -3.4750   23.9330 C   0  0  0  0  0  0  0  0  0  0  0  0
    5.6590   -3.2190   25.3170 C   0  0  0  0  0  0  0  0  0  0  0  0
    4.4570   -3.3930   25.5500 O   0  0  0  0  0  0  0  0  0  0  0  0
    6.5820   -2.7920   26.2720 N   0  0  0  0  0  0  0  0  0  0  0  0
    6.5040   -1.6400   27.1000 C   0  0  0  0  0  0  0  0  0  0  0  0
    7.0350   -1.6120   28.3710 C   0  0  0  0  0  0  0  0  0  0  0  0
    6.9680   -0.4940   29.1980 C   0  0  0  0  0  0  0  0  0  0  0  0
    6.3480    0.6470   28.7660 C   0  0  0  0  0  0  0  0  0  0  0  0
    5.7550    0.6730   27.4060 C   0  0  0  0  0  0  0  0  0  0  0  0
    5.0420    1.9180   26.8610 C   0  0  0  0  0  0  0  0  0  0  0  0
    5.3960    2.6210   25.6770 N   0  0  0  0  0  0  0  0  0  0  0  0
    4.4460    3.6890   25.6040 C   0  0  0  0  0  0  0  0  0  0  0  0
    4.3840    4.6160   24.6510 C   0  0  0  0  0  0  0  0  0  0  0  0
    3.3930    5.6830   24.6270 C   0  0  0  0  0  0  0  0  0  0  0  0
    2.4990    5.4980   25.8750 C   0  0  0  0  0  0  0  0  0  0  0  0
    2.4210    4.5960   26.9630 C   0  0  0  0  0  0  0  0  0  0  0  0
    3.6030    3.6090   26.6740 C   0  0  0  0  0  0  0  0  0  0  0  0
    3.9960    2.5360   27.3990 N   0  0  0  0  0  0  0  0  0  0  0  0
    3.3850    2.1430   28.5440 C   0  0  0  0  0  0  0  0  0  0  0  0
    5.8590   -0.4790   26.6190 C   0  0  0  0  0  0  0  0  0  0  0  0
    5.9960   -4.9650   23.7030 C   0  0  0  0  0  0  0  0  0  0  0  0
    6.5170   -5.3420   22.4770 C   0  0  0  0  0  0  0  0  0  0  0  0
  1  2  1  0
  2  3  2  0
  2  4  1  0
  4  5  1  0
  5  6  1  0
  6  7  1  0
  7  8  1  0
  8  9  2  0
  8 10  1  0
 10 11  1  0
 11 12  2  0
 12 13  1  0
 13 14  2  0
 14 15  1  0
 15 16  1  0
 16 17  2  0
 17 18  1  0
 18 19  2  0
 19 20  1  0
 20 21  2  0
 21 22  1  0
 18 23  1  0
 22 23  2  0
 16 24  1  0
 23 24  1  0
 24 25  1  0
 11 26  1  0
 15 26  2  0
  7 27  1  0
  4 28  1  0
 27 28  1  0
M  END
