piperidine-amides-35524-covalent
     RDKit          3D

 28 31  0  0  0  0  0  0  0  0999 V2000
    7.0090   -3.3510   19.3200 C   0  0  0  0  0  0  0  0  0  0  0  0
    6.3630   -4.2030   20.3580 C   0  0  0  0  0  0  0  0  0  0  0  0
    5.4010   -4.8760   19.9880 O   0  0  0  0  0  0  0  0  0  0  0  0
    6.8690   -4.2530   21.6680 N   0  0  0  0  0  0  0  0  0  0  0  0
    7.7390   -3.2410   22.2080 C   0  0  0  0  0  0  0  0  0  0  0  0
    7.2190   -2.7400   23.5240 C   0  0  0  0  0  0  0  0  0  0  0  0
    6.6620   -3.8690   24.4040 C   0  0  0  0  0  0  0  0  0  0  0  0
    5.6690   -3.2490   25.3130 C   0  0  0  0  0  0  0  0  0  0  0  0
    4.5520   -2.9600   24.8620 O   0  0  0  0  0  0  0  0  0  0  0  0
    5.9330   -2.9660   26.6760 N   0  0  0  0  0  0  0  0  0  0  0  0
    4.9110   -3.4330   27.6030 C   0  0  0  0  0  0  0  0  0  0  0  0
    3.6260   -2.6320   27.4820 C   0  0  0  0  0  0  0  0  0  0  0  0
    2.5380   -2.9020   28.2570 C   0  0  0  0  0  0  0  0  0  0  0  0
    2.7210   -3.9280   29.1110 C   0  0  0  0  0  0  0  0  0  0  0  0
    1.7410   -4.4550   30.0660 N   0  0  0  0  0  0  0  0  0  0  0  0
    2.3660   -5.5430   30.7570 C   0  0  0  0  0  0  0  0  0  0  0  0
    3.7430   -5.6740   30.2120 C   0  0  0  0  0  0  0  0  0  0  0  0
    5.1270   -7.1110   30.8540 I   0  0  0  0  0  0  0  0  0  0  0  0
    3.8560   -4.6730   29.2450 N   0  0  0  0  0  0  0  0  0  0  0  0
    4.9400   -4.4330   28.5040 N   0  0  0  0  0  0  0  0  0  0  0  0
    6.5930   -1.7270   26.9760 C   0  0  0  0  0  0  0  0  0  0  0  0
    7.4560   -1.6230   28.2210 C   0  0  0  0  0  0  0  0  0  0  0  0
    6.6760   -0.8650   29.2540 C   0  0  0  0  0  0  0  0  0  0  0  0
    6.3460    0.5230   28.8290 C   0  0  0  0  0  0  0  0  0  0  0  0
    6.0070    0.6580   27.3710 C   0  0  0  0  0  0  0  0  0  0  0  0
    5.7610   -0.6400   26.6780 C   0  0  0  0  0  0  0  0  0  0  0  0
    5.9190   -4.9370   23.5850 C   0  0  0  0  0  0  0  0  0  0  0  0
    6.6430   -5.4100   22.5110 C   0  0  0  0  0  0  0  0  0  0  0  0
  1  2  1  0
  2  3  2  0
  2  4  1  0
  4  5  1  0
  5  6  1  0
  6  7  1  0
  7  8  1  0
  8  9  2  0
  8 10  1  0
 10 11  1  0
 11 12  1  0
 12 13  2  0
 13 14  1  0
 14 15  2  0
 15 16  1  0
 16 17  2  0
 17 18  1  0
 14 19  1  0
 17 19  1  0
 11 20  2  0
 19 20  1  0
 10 21  1  0
 21 22  1  0
 22 23  1  0
 23 24  1  0
 24 25  1  0
 21 26  1  0
 25 26  1  0
  7 27  1  0
  4 28  1  0
 27 28  1  0
M  END
