piperidine-amides-30041-covalent
     RDKit          3D

 27 29  0  0  0  0  0  0  0  0999 V2000
    7.0190   -3.4080   19.4540 C   0  0  0  0  0  0  0  0  0  0  0  0
    6.3280   -4.2600   20.4180 C   0  0  0  0  0  0  0  0  0  0  0  0
    5.4060   -4.9660   20.0120 O   0  0  0  0  0  0  0  0  0  0  0  0
    6.7300   -4.3210   21.8080 N   0  0  0  0  0  0  0  0  0  0  0  0
    7.5640   -3.2840   22.3860 C   0  0  0  0  0  0  0  0  0  0  0  0
    7.1220   -2.9200   23.7870 C   0  0  0  0  0  0  0  0  0  0  0  0
    5.7590   -3.5590   24.0320 C   0  0  0  0  0  0  0  0  0  0  0  0
    5.0620   -3.0750   25.3110 C   0  0  0  0  0  0  0  0  0  0  0  0
    4.4280   -2.0140   25.3040 O   0  0  0  0  0  0  0  0  0  0  0  0
    5.0860   -3.7880   26.5560 N   0  0  0  0  0  0  0  0  0  0  0  0
    6.2070   -4.5280   26.6010 C   0  0  0  0  0  0  0  0  0  0  0  0
    6.2120   -5.5550   27.6910 C   0  0  0  0  0  0  0  0  0  0  0  0
    6.5510   -5.1510   28.9410 C   0  0  0  0  0  0  0  0  0  0  0  0
    5.3530   -4.8390   29.6170 N   0  0  0  0  0  0  0  0  0  0  0  0
    4.8610   -6.0090   30.3050 C   0  0  0  0  0  0  0  0  0  0  0  0
    3.5530   -6.3540   30.0510 C   0  0  0  0  0  0  0  0  0  0  0  0
    2.4920   -5.4640   30.4790 C   0  0  0  0  0  0  0  0  0  0  0  0
    1.1910   -5.7800   30.2460 C   0  0  0  0  0  0  0  0  0  0  0  0
    0.9780   -6.9670   29.5970 C   0  0  0  0  0  0  0  0  0  0  0  0
   -0.3470   -7.2850   29.3630 O   0  0  0  0  0  0  0  0  0  0  0  0
   -0.9220   -7.9330   30.4600 C   0  0  0  0  0  0  0  0  0  0  0  0
    2.0510   -7.8750   29.1600 C   0  0  0  0  0  0  0  0  0  0  0  0
    3.3950   -7.5650   29.3920 C   0  0  0  0  0  0  0  0  0  0  0  0
    4.4320   -4.0340   28.8610 C   0  0  0  0  0  0  0  0  0  0  0  0
    4.6860   -3.0540   27.7310 C   0  0  0  0  0  0  0  0  0  0  0  0
    5.7950   -5.0530   23.9000 C   0  0  0  0  0  0  0  0  0  0  0  0
    6.4400   -5.4970   22.5910 C   0  0  0  0  0  0  0  0  0  0  0  0
  1  2  1  0
  2  3  2  0
  2  4  1  0
  4  5  1  0
  5  6  1  0
  6  7  1  0
  7  8  1  0
  8  9  2  0
  8 10  1  0
 10 11  1  0
 11 12  1  0
 12 13  1  0
 13 14  1  0
 14 15  1  0
 15 16  1  0
 16 17  2  0
 17 18  1  0
 18 19  2  0
 19 20  1  0
 20 21  1  0
 19 22  1  0
 16 23  1  0
 22 23  2  0
 14 24  1  0
 10 25  1  0
 24 25  1  0
  7 26  1  0
  4 27  1  0
 26 27  1  0
M  END
