piperidine-amides-14072-covalent
     RDKit          3D

 25 27  0  0  0  0  0  0  0  0999 V2000
    7.1560   -3.2920   19.2300 C   0  0  0  0  0  0  0  0  0  0  0  0
    6.3410   -4.0410   20.2190 C   0  0  0  0  0  0  0  0  0  0  0  0
    5.2500   -4.5160   19.8690 O   0  0  0  0  0  0  0  0  0  0  0  0
    6.8590   -4.2520   21.5110 N   0  0  0  0  0  0  0  0  0  0  0  0
    6.3690   -5.3270   22.3170 C   0  0  0  0  0  0  0  0  0  0  0  0
    5.4930   -4.6600   23.3850 C   0  0  0  0  0  0  0  0  0  0  0  0
    6.3770   -3.7520   24.1820 C   0  0  0  0  0  0  0  0  0  0  0  0
    5.7570   -3.3640   25.4720 C   0  0  0  0  0  0  0  0  0  0  0  0
    4.5560   -3.0680   25.4290 O   0  0  0  0  0  0  0  0  0  0  0  0
    6.5130   -3.3380   26.6520 N   0  0  0  0  0  0  0  0  0  0  0  0
    6.3620   -4.1370   27.8220 C   0  0  0  0  0  0  0  0  0  0  0  0
    6.1070   -5.4980   27.8370 C   0  0  0  0  0  0  0  0  0  0  0  0
    6.9240   -6.2860   26.9550 O   0  0  0  0  0  0  0  0  0  0  0  0
    5.0590   -5.9710   28.7230 N   0  0  0  0  0  0  0  0  0  0  0  0
    5.2810   -6.7240   29.8900 C   0  0  0  0  0  0  0  0  0  0  0  0
    4.1370   -6.7730   30.6760 C   0  0  0  0  0  0  0  0  0  0  0  0
    2.9580   -7.1760   30.1110 O   0  0  0  0  0  0  0  0  0  0  0  0
    2.9650   -7.3290   28.7100 C   0  0  0  0  0  0  0  0  0  0  0  0
    1.9030   -8.1010   27.9470 C   0  0  0  0  0  0  0  0  0  0  0  0
    2.1030   -8.1470   26.4420 C   0  0  0  0  0  0  0  0  0  0  0  0
    3.1780   -7.5280   25.8230 C   0  0  0  0  0  0  0  0  0  0  0  0
    4.2780   -6.7420   26.4730 C   0  0  0  0  0  0  0  0  0  0  0  0
    4.0780   -6.6930   27.9910 C   0  0  0  0  0  0  0  0  0  0  0  0
    6.7890   -2.6380   23.3160 C   0  0  0  0  0  0  0  0  0  0  0  0
    7.6240   -3.2250   22.1660 C   0  0  0  0  0  0  0  0  0  0  0  0
  1  2  1  0
  2  3  2  0
  2  4  1  0
  4  5  1  0
  5  6  1  0
  6  7  1  0
  7  8  1  0
  8  9  2  0
  8 10  1  0
 10 11  1  0
 11 12  1  0
 12 13  2  0
 12 14  1  0
 14 15  1  0
 15 16  1  0
 16 17  1  0
 17 18  1  0
 18 19  2  0
 19 20  1  0
 20 21  2  0
 21 22  1  0
 14 23  1  0
 18 23  1  0
 22 23  2  0
  7 24  1  0
  4 25  1  0
 24 25  1  0
M  END
