piperidine-amides-33361-covalent
     RDKit          3D

 29 31  0  0  0  0  0  0  0  0999 V2000
    7.0990   -3.3110   19.2230 C   0  0  0  0  0  0  0  0  0  0  0  0
    6.3840   -4.0920   20.2450 C   0  0  0  0  0  0  0  0  0  0  0  0
    5.2980   -4.6120   19.9070 O   0  0  0  0  0  0  0  0  0  0  0  0
    6.9390   -4.2960   21.5280 N   0  0  0  0  0  0  0  0  0  0  0  0
    6.5180   -5.4420   22.2590 C   0  0  0  0  0  0  0  0  0  0  0  0
    6.0640   -5.1410   23.6110 C   0  0  0  0  0  0  0  0  0  0  0  0
    6.7410   -3.9940   24.2430 C   0  0  0  0  0  0  0  0  0  0  0  0
    5.9700   -3.5050   25.4190 C   0  0  0  0  0  0  0  0  0  0  0  0
    4.9700   -2.7740   25.2730 O   0  0  0  0  0  0  0  0  0  0  0  0
    6.3760   -3.9020   26.6920 N   0  0  0  0  0  0  0  0  0  0  0  0
    6.9960   -5.1220   26.9990 C   0  0  0  0  0  0  0  0  0  0  0  0
    7.0640   -5.3180   28.4210 C   0  0  0  0  0  0  0  0  0  0  0  0
    5.9290   -4.3390   28.8190 C   0  0  2  0  0  0  0  0  0  0  0  0
    4.8180   -5.2690   29.0780 N   0  0  0  0  0  0  0  0  0  0  0  0
    3.8180   -4.6300   29.8970 C   0  0  0  0  0  0  0  0  0  0  0  0
    2.6230   -5.5870   29.7980 C   0  0  0  0  0  0  0  0  0  0  0  0
    2.9950   -6.9490   29.9750 N   0  0  0  0  0  0  0  0  0  0  0  0
    2.8480   -7.6220   31.1390 C   0  0  0  0  0  0  0  0  0  0  0  0
    1.6300   -7.7720   31.8130 O   0  0  0  0  0  0  0  0  0  0  0  0
    3.9310   -8.2320   31.7840 O   0  0  0  0  0  0  0  0  0  0  0  0
    4.1830   -7.9840   33.1510 C   0  0  0  0  0  0  0  0  0  0  0  0
    3.1930   -8.8560   33.8860 C   0  0  0  0  0  0  0  0  0  0  0  0
    4.0260   -6.5090   33.4940 C   0  0  0  0  0  0  0  0  0  0  0  0
    5.5520   -8.4600   33.4100 C   0  0  0  0  0  0  0  0  0  0  0  0
    4.1640   -7.4530   29.2590 C   0  0  0  0  0  0  0  0  0  0  0  0
    5.2090   -6.5660   29.5100 C   0  0  0  0  0  0  0  0  0  0  0  0
    5.6850   -3.3800   27.8530 C   0  0  0  0  0  0  0  0  0  0  0  0
    6.9480   -2.8730   23.2860 C   0  0  0  0  0  0  0  0  0  0  0  0
    7.6960   -3.2620   22.1930 C   0  0  0  0  0  0  0  0  0  0  0  0
  1  2  1  0
  2  3  2  0
  2  4  1  0
  4  5  1  0
  5  6  1  0
  6  7  1  0
  7  8  1  0
  8  9  2  0
  8 10  1  0
 10 11  1  0
 11 12  1  0
 12 13  1  0
 13 14  1  6
 14 15  1  0
 15 16  1  0
 16 17  1  0
 17 18  1  0
 18 19  2  0
 18 20  1  0
 21 20  1  0
 21 22  1  0
 21 23  1  0
 21 24  1  0
 17 25  1  0
 14 26  1  0
 25 26  1  0
 10 27  1  0
 13 27  1  0
  7 28  1  0
  4 29  1  0
 28 29  1  0
M  END
