piperidine-amides-30720-covalent
     RDKit          3D

 27 29  0  0  0  0  0  0  0  0999 V2000
    7.1250   -3.2730   19.2150 C   0  0  0  0  0  0  0  0  0  0  0  0
    6.3740   -4.0160   20.2300 C   0  0  0  0  0  0  0  0  0  0  0  0
    5.3190   -4.5890   19.9060 O   0  0  0  0  0  0  0  0  0  0  0  0
    6.8470   -4.1380   21.5450 N   0  0  0  0  0  0  0  0  0  0  0  0
    7.7750   -3.1740   22.1090 C   0  0  0  0  0  0  0  0  0  0  0  0
    7.2020   -2.6940   23.4130 C   0  0  0  0  0  0  0  0  0  0  0  0
    5.9950   -3.4740   23.8290 C   0  0  0  0  0  0  0  0  0  0  0  0
    5.7070   -3.2460   25.2590 C   0  0  0  0  0  0  0  0  0  0  0  0
    4.5150   -3.2980   25.6810 O   0  0  0  0  0  0  0  0  0  0  0  0
    6.7380   -2.9550   26.1840 N   0  0  0  0  0  0  0  0  0  0  0  0
    7.8160   -3.9180   26.4470 C   0  0  0  0  0  0  0  0  0  0  0  0
    7.5620   -3.6100   27.8650 C   0  0  0  0  0  0  0  0  0  0  0  0
    6.4350   -2.6850   27.5990 C   0  0  2  0  0  0  0  0  0  0  0  0
    5.1250   -3.3320   27.9540 C   0  0  0  0  0  0  0  0  0  0  0  0
    5.1190   -3.3620   29.4580 C   0  0  0  0  0  0  0  0  0  0  0  0
    5.0710   -1.9270   29.8260 C   0  0  0  0  0  0  0  0  0  0  0  0
    6.2820   -1.2870   29.4220 N   0  0  0  0  0  0  0  0  0  0  0  0
    6.5230   -0.1610   30.1370 C   0  0  0  0  0  0  0  0  0  0  0  0
    7.4760    0.6510   29.8700 O   0  0  0  0  0  0  0  0  0  0  0  0
    5.7310    0.0160   31.0840 O   0  0  0  0  0  0  0  0  0  0  0  0
    6.2710    0.4360   32.2850 C   0  0  0  0  0  0  0  0  0  0  0  0
    5.6230   -0.0220   33.5770 C   0  0  0  0  0  0  0  0  0  0  0  0
    6.1780    1.9280   32.2650 C   0  0  0  0  0  0  0  0  0  0  0  0
    7.7450    0.1660   32.3420 C   0  0  0  0  0  0  0  0  0  0  0  0
    6.5520   -1.3620   28.0570 C   0  0  0  0  0  0  0  0  0  0  0  0
    6.0240   -4.9290   23.5690 C   0  0  0  0  0  0  0  0  0  0  0  0
    6.5400   -5.2780   22.3450 C   0  0  0  0  0  0  0  0  0  0  0  0
  1  2  1  0
  2  3  2  0
  2  4  1  0
  4  5  1  0
  5  6  1  0
  6  7  1  0
  7  8  1  0
  8  9  2  0
  8 10  1  0
 10 11  1  0
 11 12  1  0
 13 10  1  0
 13 12  1  1
 13 14  1  0
 14 15  1  0
 15 16  1  0
 16 17  1  0
 17 18  1  0
 18 19  2  0
 18 20  1  0
 21 20  1  0
 21 22  1  0
 21 23  1  0
 21 24  1  0
 13 25  1  0
 17 25  1  0
  7 26  1  0
  4 27  1  0
 26 27  1  0
M  END
