piperidine-amides-4833-covalent
     RDKit          3D

 23 25  0  0  0  0  0  0  0  0999 V2000
    7.1000   -3.3000   19.2480 C   0  0  0  0  0  0  0  0  0  0  0  0
    6.3870   -4.1060   20.2670 C   0  0  0  0  0  0  0  0  0  0  0  0
    5.3200   -4.6420   19.9130 O   0  0  0  0  0  0  0  0  0  0  0  0
    6.9250   -4.2860   21.5440 N   0  0  0  0  0  0  0  0  0  0  0  0
    7.6140   -3.2070   22.1730 C   0  0  0  0  0  0  0  0  0  0  0  0
    7.0620   -2.7870   23.4580 C   0  0  0  0  0  0  0  0  0  0  0  0
    6.5360   -3.8950   24.2760 C   0  0  0  0  0  0  0  0  0  0  0  0
    5.7820   -3.3810   25.4520 C   0  0  0  0  0  0  0  0  0  0  0  0
    4.5380   -3.3530   25.3630 O   0  0  0  0  0  0  0  0  0  0  0  0
    6.4100   -2.9210   26.6350 N   0  0  0  0  0  0  0  0  0  0  0  0
    6.3090   -1.4810   26.9840 C   0  0  0  0  0  0  0  0  0  0  0  0
    5.7980   -0.4250   26.1560 C   0  0  0  0  0  0  0  0  0  0  0  0
    5.2260   -0.1570   24.8410 C   0  0  0  0  0  0  0  0  0  0  0  0
    5.6410    0.9720   26.3700 C   0  0  0  0  0  0  0  0  0  0  0  0
    6.0370    1.4710   27.5880 C   0  0  0  0  0  0  0  0  0  0  0  0
    6.5680    0.6910   28.5920 C   0  0  0  0  0  0  0  0  0  0  0  0
    6.9270    1.3270   29.7880 N   0  0  0  0  0  0  0  0  0  0  0  0
    7.4660    0.5740   30.8450 C   0  0  0  0  0  0  0  0  0  0  0  0
    7.6130   -0.7570   30.6410 C   0  0  0  0  0  0  0  0  0  0  0  0
    7.2700   -1.4250   29.4600 C   0  0  0  0  0  0  0  0  0  0  0  0
    6.7050   -0.7930   28.2890 C   0  0  0  0  0  0  0  0  0  0  0  0
    5.7110   -4.8740   23.5200 C   0  0  0  0  0  0  0  0  0  0  0  0
    6.5050   -5.4040   22.3640 C   0  0  0  0  0  0  0  0  0  0  0  0
  1  2  1  0
  2  3  2  0
  2  4  1  0
  4  5  1  0
  5  6  1  0
  6  7  1  0
  7  8  1  0
  8  9  2  0
  8 10  1  0
 10 11  1  0
 11 12  2  0
 12 13  1  0
 12 14  1  0
 14 15  2  0
 15 16  1  0
 16 17  1  0
 17 18  2  0
 18 19  1  0
 19 20  2  0
 11 21  1  0
 16 21  2  0
 20 21  1  0
  7 22  1  0
  4 23  1  0
 22 23  1  0
M  END
