piperidine-amides-14606-covalent
     RDKit          3D

 23 25  0  0  0  0  0  0  0  0999 V2000
    7.0520   -3.3570   19.3820 C   0  0  0  0  0  0  0  0  0  0  0  0
    6.3510   -4.1610   20.3850 C   0  0  0  0  0  0  0  0  0  0  0  0
    5.4150   -4.8850   19.9930 O   0  0  0  0  0  0  0  0  0  0  0  0
    6.7620   -4.1330   21.7490 N   0  0  0  0  0  0  0  0  0  0  0  0
    7.7180   -3.1400   22.1630 C   0  0  0  0  0  0  0  0  0  0  0  0
    7.6560   -3.0160   23.6510 C   0  0  0  0  0  0  0  0  0  0  0  0
    6.2430   -3.3990   23.9970 C   0  0  0  0  0  0  0  0  0  0  0  0
    5.8990   -3.0620   25.4300 C   0  0  0  0  0  0  0  0  0  0  0  0
    4.9990   -3.7380   25.9280 O   0  0  0  0  0  0  0  0  0  0  0  0
    6.5880   -2.0080   26.0860 N   0  0  0  0  0  0  0  0  0  0  0  0
    6.1590   -1.4410   27.3720 C   0  0  1  0  0  0  0  0  0  0  0  0
    7.1280   -1.6660   28.4840 C   0  0  0  0  0  0  0  0  0  0  0  0
    7.1120   -1.0250   29.7840 C   0  0  0  0  0  0  0  0  0  0  0  0
    6.6020    0.5610   29.4620 S   0  0  0  0  0  0  0  0  0  0  0  0
    6.3030   -0.5140   28.1990 C   0  0  0  0  0  0  0  0  0  0  0  0
    5.9130   -1.1030   26.8210 C   0  0  0  0  0  0  0  0  0  0  0  0
    5.5370   -0.0430   26.0380 F   0  0  0  0  0  0  0  0  0  0  0  0
    6.3370   -1.0210   28.1370 C   0  0  0  0  0  0  0  0  0  0  0  0
    5.9870    0.6820   27.6420 C   0  0  0  0  0  0  0  0  0  0  0  0
    5.5610    0.2350   26.1710 C   0  0  0  0  0  0  0  0  0  0  0  0
    5.9830    0.0670   27.4160 C   0  0  0  0  0  0  0  0  0  0  0  0
    6.0620   -4.8990   23.8040 C   0  0  0  0  0  0  0  0  0  0  0  0
    6.6050   -5.3010   22.5860 C   0  0  0  0  0  0  0  0  0  0  0  0
  1  2  1  0
  2  3  2  0
  2  4  1  0
  4  5  1  0
  5  6  1  0
  6  7  1  0
  7  8  1  0
  8  9  2  0
  8 10  1  0
 11 10  1  6
 11 12  1  0
 12 13  1  0
 13 14  1  0
 14 15  1  0
 15 16  2  0
 16 17  1  0
 16 18  1  0
 18 19  2  0
 19 20  1  0
 11 21  1  0
 15 21  1  0
 20 21  2  0
  7 22  1  0
  4 23  1  0
 22 23  1  0
M  END
