piperidine-amides-10461-covalent
     RDKit          3D

 24 26  0  0  0  0  0  0  0  0999 V2000
    7.0690   -3.3380   19.2950 C   0  0  0  0  0  0  0  0  0  0  0  0
    6.4110   -4.1670   20.3070 C   0  0  0  0  0  0  0  0  0  0  0  0
    5.3560   -4.7590   19.9560 O   0  0  0  0  0  0  0  0  0  0  0  0
    6.9850   -4.3100   21.5700 N   0  0  0  0  0  0  0  0  0  0  0  0
    7.7180   -3.2340   22.1950 C   0  0  0  0  0  0  0  0  0  0  0  0
    6.8950   -2.7240   23.3390 C   0  0  0  0  0  0  0  0  0  0  0  0
    6.5110   -3.8460   24.2570 C   0  0  0  0  0  0  0  0  0  0  0  0
    5.6920   -3.3140   25.3740 C   0  0  0  0  0  0  0  0  0  0  0  0
    4.4610   -3.1980   25.1860 O   0  0  0  0  0  0  0  0  0  0  0  0
    6.2200   -2.9320   26.6290 N   0  0  0  0  0  0  0  0  0  0  0  0
    6.6290   -1.5670   26.8770 C   0  0  2  0  0  0  0  0  0  0  0  0
    7.1130   -1.4320   28.2690 C   0  0  0  0  0  0  0  0  0  0  0  0
    6.5030   -0.5570   29.1540 C   0  0  0  0  0  0  0  0  0  0  0  0
    5.7680    0.4710   29.7980 O   0  0  0  0  0  0  0  0  0  0  0  0
    5.9520    0.1150   28.0190 N   0  0  0  0  0  0  0  0  0  0  0  0
    5.6690    1.4330   28.1040 C   0  0  0  0  0  0  0  0  0  0  0  0
    4.4890    2.0060   28.5310 C   0  0  0  0  0  0  0  0  0  0  0  0
    4.5650    3.4400   28.4850 N   0  0  0  0  0  0  0  0  0  0  0  0
    5.7850    3.7470   28.0300 N   0  0  0  0  0  0  0  0  0  0  0  0
    6.4760    4.9910   27.7610 C   0  0  0  0  0  0  0  0  0  0  0  0
    6.5310    2.6300   27.7690 C   0  0  0  0  0  0  0  0  0  0  0  0
    5.7370   -0.5590   26.8560 C   0  0  0  0  0  0  0  0  0  0  0  0
    5.7460   -4.9190   23.5500 C   0  0  0  0  0  0  0  0  0  0  0  0
    6.4980   -5.4450   22.3490 C   0  0  0  0  0  0  0  0  0  0  0  0
  1  2  1  0
  2  3  2  0
  2  4  1  0
  4  5  1  0
  5  6  1  0
  6  7  1  0
  7  8  1  0
  8  9  2  0
  8 10  1  0
 11 10  1  1
 11 12  1  0
 12 13  1  0
 13 14  2  0
 13 15  1  0
 15 16  1  0
 16 17  1  0
 17 18  2  0
 18 19  1  0
 19 20  1  0
 16 21  2  0
 19 21  1  0
 11 22  1  0
 15 22  1  0
  7 23  1  0
  4 24  1  0
 23 24  1  0
M  END
