piperidine-amides-5002-covalent
     RDKit          3D

 23 25  0  0  0  0  0  0  0  0999 V2000
    7.1260   -3.3150   19.2760 C   0  0  0  0  0  0  0  0  0  0  0  0
    6.3580   -4.0860   20.2730 C   0  0  0  0  0  0  0  0  0  0  0  0
    5.2800   -4.5790   19.8930 O   0  0  0  0  0  0  0  0  0  0  0  0
    6.8650   -4.2930   21.5580 N   0  0  0  0  0  0  0  0  0  0  0  0
    7.6220   -3.2640   22.1990 C   0  0  0  0  0  0  0  0  0  0  0  0
    7.1430   -2.8650   23.5230 C   0  0  0  0  0  0  0  0  0  0  0  0
    6.4180   -3.9110   24.2730 C   0  0  0  0  0  0  0  0  0  0  0  0
    5.6360   -3.3070   25.3830 C   0  0  0  0  0  0  0  0  0  0  0  0
    4.4190   -3.1270   25.2040 O   0  0  0  0  0  0  0  0  0  0  0  0
    6.2290   -2.9440   26.6120 N   0  0  0  0  0  0  0  0  0  0  0  0
    6.6800   -1.5590   26.9120 C   0  0  1  0  0  0  0  0  0  0  0  0
    5.8220   -0.4560   26.4450 C   0  0  0  0  0  0  0  0  0  0  0  0
    5.6140    0.5070   27.5180 C   0  0  0  0  0  0  0  0  0  0  0  0
    6.1350   -0.1830   28.6950 N   0  0  0  0  0  0  0  0  0  0  0  0
    5.6200   -0.0030   30.0010 C   0  0  0  0  0  0  0  0  0  0  0  0
    5.0970   -0.9910   30.7840 C   0  0  0  0  0  0  0  0  0  0  0  0
    4.6500   -0.6110   32.0080 C   0  0  0  0  0  0  0  0  0  0  0  0
    4.7460    0.7080   32.3820 C   0  0  0  0  0  0  0  0  0  0  0  0
    5.2820    1.6890   31.5660 C   0  0  0  0  0  0  0  0  0  0  0  0
    5.7140    1.2900   30.3630 N   0  0  0  0  0  0  0  0  0  0  0  0
    6.9340   -1.3270   28.3480 C   0  0  0  0  0  0  0  0  0  0  0  0
    5.5970   -4.8460   23.4730 C   0  0  0  0  0  0  0  0  0  0  0  0
    6.4560   -5.4200   22.3790 C   0  0  0  0  0  0  0  0  0  0  0  0
  1  2  1  0
  2  3  2  0
  2  4  1  0
  4  5  1  0
  5  6  1  0
  6  7  1  0
  7  8  1  0
  8  9  2  0
  8 10  1  0
 11 10  1  1
 11 12  1  0
 12 13  1  0
 13 14  1  0
 14 15  1  0
 15 16  2  0
 16 17  1  0
 17 18  2  0
 18 19  1  0
 15 20  1  0
 19 20  2  0
 11 21  1  0
 14 21  1  0
  7 22  1  0
  4 23  1  0
 22 23  1  0
M  END
