piperidine-amides-17189-covalent
     RDKit          3D

 20 21  0  0  0  0  0  0  0  0999 V2000
    7.1350   -3.3210   19.2610 C   0  0  0  0  0  0  0  0  0  0  0  0
    6.4440   -4.1400   20.2660 C   0  0  0  0  0  0  0  0  0  0  0  0
    5.3550   -4.6680   19.9320 O   0  0  0  0  0  0  0  0  0  0  0  0
    7.0280   -4.3730   21.5300 N   0  0  0  0  0  0  0  0  0  0  0  0
    6.5660   -5.4680   22.2940 C   0  0  0  0  0  0  0  0  0  0  0  0
    6.0680   -5.0940   23.6130 C   0  0  0  0  0  0  0  0  0  0  0  0
    6.7270   -3.9350   24.2670 C   0  0  0  0  0  0  0  0  0  0  0  0
    5.8330   -3.4270   25.3410 C   0  0  0  0  0  0  0  0  0  0  0  0
    4.8130   -2.7910   25.0120 O   0  0  0  0  0  0  0  0  0  0  0  0
    6.0540   -3.6320   26.7040 N   0  0  0  0  0  0  0  0  0  0  0  0
    5.0780   -3.5900   27.6990 C   0  0  0  0  0  0  0  0  0  0  0  0
    5.5840   -4.1510   28.9160 C   0  0  0  0  0  0  0  0  0  0  0  0
    6.9260   -4.7220   28.4290 C   0  0  0  0  0  0  0  0  0  0  0  0
    7.2940   -4.0750   27.2790 C   0  0  2  0  0  0  0  0  0  0  0  0
    7.9890   -3.0190   28.1370 C   0  0  0  0  0  0  0  0  0  0  0  0
    8.2220   -4.9740   26.4610 C   0  0  1  0  0  0  0  0  0  0  0  0
    8.9940   -5.7010   27.5620 C   0  0  0  0  0  0  0  0  0  0  0  0
    7.4440   -5.9390   25.8530 O   0  0  0  0  0  0  0  0  0  0  0  0
    7.0900   -2.7920   23.3520 C   0  0  0  0  0  0  0  0  0  0  0  0
    7.8320   -3.3510   22.1680 C   0  0  0  0  0  0  0  0  0  0  0  0
  1  2  1  0
  2  3  2  0
  2  4  1  0
  4  5  1  0
  5  6  1  0
  6  7  1  0
  7  8  1  0
  8  9  2  0
  8 10  1  0
 10 11  1  0
 11 12  1  0
 12 13  1  0
 10 14  1  0
 13 14  1  0
 14 15  1  1
 14 16  1  0
 16 17  1  1
 16 18  1  0
  7 19  1  0
  4 20  1  0
 19 20  1  0
M  END
