piperidine-amides-4979-covalent
     RDKit          3D

 23 24  0  0  0  0  0  0  0  0999 V2000
    7.1250   -3.2900   19.2910 C   0  0  0  0  0  0  0  0  0  0  0  0
    6.3530   -4.0480   20.3020 C   0  0  0  0  0  0  0  0  0  0  0  0
    5.2940   -4.5720   19.9000 O   0  0  0  0  0  0  0  0  0  0  0  0
    6.8180   -4.2050   21.6210 N   0  0  0  0  0  0  0  0  0  0  0  0
    7.6260   -3.1910   22.2260 C   0  0  0  0  0  0  0  0  0  0  0  0
    7.2780   -2.9580   23.6220 C   0  0  0  0  0  0  0  0  0  0  0  0
    6.0230   -3.6330   24.0080 C   0  0  0  0  0  0  0  0  0  0  0  0
    5.6000   -3.3390   25.4060 C   0  0  0  0  0  0  0  0  0  0  0  0
    4.3780   -3.2310   25.6070 O   0  0  0  0  0  0  0  0  0  0  0  0
    6.5170   -3.1770   26.4670 N   0  0  0  0  0  0  0  0  0  0  0  0
    6.2060   -3.4190   27.9100 C   0  0  2  0  0  0  0  0  0  0  0  0
    6.5710   -4.7790   28.4130 C   0  0  0  0  0  0  0  0  0  0  0  0
    4.7870   -3.1370   28.2360 C   0  0  0  0  0  0  0  0  0  0  0  0
    3.8120   -4.0700   27.9120 C   0  0  0  0  0  0  0  0  0  0  0  0
    4.2920   -5.5570   27.1230 Cl  0  0  0  0  0  0  0  0  0  0  0  0
    2.4760   -3.8680   28.1900 C   0  0  0  0  0  0  0  0  0  0  0  0
    2.1010   -2.7170   28.8020 C   0  0  0  0  0  0  0  0  0  0  0  0
    3.0280   -1.7800   29.1350 C   0  0  0  0  0  0  0  0  0  0  0  0
    2.5860   -0.6050   29.7700 F   0  0  0  0  0  0  0  0  0  0  0  0
    4.3470   -1.9840   28.8590 C   0  0  0  0  0  0  0  0  0  0  0  0
    5.4180   -0.6620   29.3630 Cl  0  0  0  0  0  0  0  0  0  0  0  0
    6.1020   -5.1170   23.7350 C   0  0  0  0  0  0  0  0  0  0  0  0
    6.6300   -5.4320   22.3730 C   0  0  0  0  0  0  0  0  0  0  0  0
  1  2  1  0
  2  3  2  0
  2  4  1  0
  4  5  1  0
  5  6  1  0
  6  7  1  0
  7  8  1  0
  8  9  2  0
  8 10  1  0
 10 11  1  0
 11 12  1  6
 11 13  1  0
 13 14  2  0
 14 15  1  0
 14 16  1  0
 16 17  2  0
 17 18  1  0
 18 19  1  0
 13 20  1  0
 18 20  2  0
 20 21  1  0
  7 22  1  0
  4 23  1  0
 22 23  1  0
M  END
