piperidine-amides-35588-covalent
     RDKit          3D

 37 41  0  0  0  0  0  0  0  0999 V2000
    7.1000   -3.3260   19.3120 C   0  0  0  0  0  0  0  0  0  0  0  0
    6.4330   -4.1860   20.3250 C   0  0  0  0  0  0  0  0  0  0  0  0
    5.4070   -4.7680   19.9690 O   0  0  0  0  0  0  0  0  0  0  0  0
    6.9910   -4.3550   21.6040 N   0  0  0  0  0  0  0  0  0  0  0  0
    6.6810   -5.5080   22.4020 C   0  0  0  0  0  0  0  0  0  0  0  0
    6.0230   -5.0580   23.6780 C   0  0  0  0  0  0  0  0  0  0  0  0
    6.6520   -3.7540   24.1890 C   0  0  0  0  0  0  0  0  0  0  0  0
    5.7790   -3.2290   25.2530 C   0  0  0  0  0  0  0  0  0  0  0  0
    5.1100   -2.2150   25.0400 O   0  0  0  0  0  0  0  0  0  0  0  0
    5.6520   -3.8580   26.4910 N   0  0  0  0  0  0  0  0  0  0  0  0
    4.3360   -4.3260   26.7830 C   0  0  0  0  0  0  0  0  0  0  0  0
    4.4490   -5.2830   27.9390 C   0  0  0  0  0  0  0  0  0  0  0  0
    5.1300   -4.5560   28.9820 N   0  0  0  0  0  0  0  0  0  0  0  0
    4.6760   -5.1920   30.2140 C   0  0  0  0  0  0  0  0  0  0  0  0
    5.4810   -6.2390   30.4250 C   0  0  0  0  0  0  0  0  0  0  0  0
    5.2080   -6.9090   31.5100 C   0  0  0  0  0  0  0  0  0  0  0  0
    4.2360   -6.7070   32.4500 C   0  0  0  0  0  0  0  0  0  0  0  0
    3.3270   -5.5290   32.2040 C   0  0  0  0  0  0  0  0  0  0  0  0
    3.4740   -4.5870   30.9640 C   0  0  0  0  0  0  0  0  0  0  0  0
    2.6970   -3.5020   30.6720 F   0  0  0  0  0  0  0  0  0  0  0  0
    4.2860   -7.6950   33.5180 C   0  0  0  0  0  0  0  0  0  0  0  0
    3.3190   -8.0350   34.4730 O   0  0  0  0  0  0  0  0  0  0  0  0
    5.5780   -8.2980   33.4090 N   0  0  0  0  0  0  0  0  0  0  0  0
    6.1170   -9.1040   34.4920 C   0  0  2  0  0  0  0  0  0  0  0  0
    6.0320  -10.6230   34.5000 C   0  0  0  0  0  0  0  0  0  0  0  0
    6.9590  -11.2640   35.4770 C   0  0  0  0  0  0  0  0  0  0  0  0
    6.9450  -10.4890   36.7710 C   0  0  0  0  0  0  0  0  0  0  0  0
    7.7810  -10.8910   37.8070 O   0  0  0  0  0  0  0  0  0  0  0  0
    6.1200   -9.3700   36.9820 N   0  0  0  0  0  0  0  0  0  0  0  0
    5.6480   -8.6110   35.8460 C   0  0  0  0  0  0  0  0  0  0  0  0
    4.8310   -7.5080   36.0100 O   0  0  0  0  0  0  0  0  0  0  0  0
    5.8650   -7.9960   31.9500 C   0  0  0  0  0  0  0  0  0  0  0  0
    6.6040   -8.6700   31.2390 O   0  0  0  0  0  0  0  0  0  0  0  0
    6.4840   -4.4380   28.5470 C   0  0  0  0  0  0  0  0  0  0  0  0
    6.2790   -3.2530   27.6160 C   0  0  0  0  0  0  0  0  0  0  0  0
    6.9090   -2.6600   23.1920 C   0  0  0  0  0  0  0  0  0  0  0  0
    7.8170   -3.2970   22.1510 C   0  0  0  0  0  0  0  0  0  0  0  0
  1  2  1  0
  2  3  2  0
  2  4  1  0
  4  5  1  0
  5  6  1  0
  6  7  1  0
  7  8  1  0
  8  9  2  0
  8 10  1  0
 10 11  1  0
 11 12  1  0
 12 13  1  0
 13 14  1  0
 14 15  2  0
 15 16  1  0
 16 17  2  0
 17 18  1  0
 14 19  1  0
 18 19  2  0
 19 20  1  0
 17 21  1  0
 21 22  2  0
 21 23  1  0
 24 23  1  6
 24 25  1  0
 25 26  1  0
 26 27  1  0
 27 28  2  0
 27 29  1  0
 24 30  1  0
 29 30  1  0
 30 31  2  0
 16 32  1  0
 23 32  1  0
 32 33  2  0
 13 34  1  0
 10 35  1  0
 34 35  1  0
  7 36  1  0
  4 37  1  0
 36 37  1  0
M  END
