piperidine-amides-28622-covalent
     RDKit          3D

 26 28  0  0  0  0  0  0  0  0999 V2000
    7.0840   -3.3400   19.3210 C   0  0  0  0  0  0  0  0  0  0  0  0
    6.4110   -4.1920   20.2970 C   0  0  0  0  0  0  0  0  0  0  0  0
    5.3520   -4.7440   19.9550 O   0  0  0  0  0  0  0  0  0  0  0  0
    6.9970   -4.4340   21.5660 N   0  0  0  0  0  0  0  0  0  0  0  0
    6.6000   -5.6090   22.2790 C   0  0  0  0  0  0  0  0  0  0  0  0
    5.7670   -5.1820   23.4430 C   0  0  0  0  0  0  0  0  0  0  0  0
    6.5560   -4.1120   24.1560 C   0  0  0  0  0  0  0  0  0  0  0  0
    5.7320   -3.5710   25.2870 C   0  0  0  0  0  0  0  0  0  0  0  0
    4.7600   -2.9000   24.9640 O   0  0  0  0  0  0  0  0  0  0  0  0
    6.0910   -3.8550   26.5970 N   0  0  0  0  0  0  0  0  0  0  0  0
    5.8740   -5.1140   27.1950 C   0  0  0  0  0  0  0  0  0  0  0  0
    6.1690   -4.8890   28.5250 C   0  0  0  0  0  0  0  0  0  0  0  0
    6.0730   -3.5290   28.7150 C   0  0  0  0  0  0  0  0  0  0  0  0
    6.1150   -2.7580   27.5520 C   0  0  2  0  0  0  0  0  0  0  0  0
    4.8990   -1.8760   27.5330 C   0  0  0  0  0  0  0  0  0  0  0  0
    3.9220   -1.8330   28.4870 N   0  0  0  0  0  0  0  0  0  0  0  0
    2.9370   -0.9480   28.2290 N   0  0  0  0  0  0  0  0  0  0  0  0
    3.3750   -0.4480   27.0510 C   0  0  0  0  0  0  0  0  0  0  0  0
    2.7850    0.5880   26.1600 C   0  0  0  0  0  0  0  0  0  0  0  0
    2.4360    1.7090   26.6140 O   0  0  0  0  0  0  0  0  0  0  0  0
    2.6170    0.3250   24.8130 O   0  0  0  0  0  0  0  0  0  0  0  0
    2.7790    1.3430   23.8430 C   0  0  0  0  0  0  0  0  0  0  0  0
    3.1710    0.6630   22.5000 C   0  0  0  0  0  0  0  0  0  0  0  0
    4.5870   -0.9970   26.5860 N   0  0  0  0  0  0  0  0  0  0  0  0
    6.8250   -2.9530   23.2250 C   0  0  0  0  0  0  0  0  0  0  0  0
    7.7130   -3.4020   22.2780 C   0  0  0  0  0  0  0  0  0  0  0  0
  1  2  1  0
  2  3  2  0
  2  4  1  0
  4  5  1  0
  5  6  1  0
  6  7  1  0
  7  8  1  0
  8  9  2  0
  8 10  1  0
 10 11  1  0
 11 12  1  0
 12 13  1  0
 10 14  1  0
 13 14  1  0
 14 15  1  6
 15 16  2  0
 16 17  1  0
 17 18  1  0
 18 19  1  0
 19 20  2  0
 19 21  1  0
 21 22  1  0
 22 23  1  0
 15 24  1  0
 18 24  2  0
  7 25  1  0
  4 26  1  0
 25 26  1  0
M  END
