piperidine-amides-27990-covalent
     RDKit          3D

 26 28  0  0  0  0  0  0  0  0999 V2000
    7.0530   -3.3450   19.3640 C   0  0  0  0  0  0  0  0  0  0  0  0
    6.3970   -4.2000   20.3800 C   0  0  0  0  0  0  0  0  0  0  0  0
    5.4110   -4.8620   19.9900 O   0  0  0  0  0  0  0  0  0  0  0  0
    6.8990   -4.2790   21.6960 N   0  0  0  0  0  0  0  0  0  0  0  0
    6.6350   -5.4220   22.5140 C   0  0  0  0  0  0  0  0  0  0  0  0
    6.1580   -5.0800   23.8610 C   0  0  0  0  0  0  0  0  0  0  0  0
    6.2700   -3.6360   24.1610 C   0  0  0  0  0  0  0  0  0  0  0  0
    5.7070   -3.2590   25.5030 C   0  0  0  0  0  0  0  0  0  0  0  0
    4.7590   -2.4560   25.4910 O   0  0  0  0  0  0  0  0  0  0  0  0
    6.1510   -3.7620   26.7520 N   0  0  0  0  0  0  0  0  0  0  0  0
    5.9550   -5.1730   27.0250 C   0  0  0  0  0  0  0  0  0  0  0  0
    4.7360   -5.1860   27.8020 C   0  0  1  0  0  0  0  0  0  0  0  0
    3.8580   -6.2850   27.4380 C   0  0  0  0  0  0  0  0  0  0  0  0
    3.7720   -6.6600   26.1390 C   0  0  0  0  0  0  0  0  0  0  0  0
    2.9910   -7.6640   25.6190 C   0  0  0  0  0  0  0  0  0  0  0  0
    3.1220   -7.8040   24.2750 C   0  0  0  0  0  0  0  0  0  0  0  0
    2.1350   -8.4220   26.6220 C   0  0  0  0  0  0  0  0  0  0  0  0
    2.2700   -7.9910   27.9320 C   0  0  0  0  0  0  0  0  0  0  0  0
    3.1050   -6.9580   28.3310 C   0  0  0  0  0  0  0  0  0  0  0  0
    3.1760   -6.5800   29.7570 C   0  0  0  0  0  0  0  0  0  0  0  0
    4.8480   -5.0030   29.0420 O   0  0  0  0  0  0  0  0  0  0  0  0
    5.5210   -3.7700   29.1760 C   0  0  0  0  0  0  0  0  0  0  0  0
    5.7250   -2.9890   27.8940 C   0  0  1  0  0  0  0  0  0  0  0  0
    6.6010   -1.8950   27.9990 C   0  0  0  0  0  0  0  0  0  0  0  0
    7.5430   -3.0850   23.7280 C   0  0  0  0  0  0  0  0  0  0  0  0
    7.7700   -3.2300   22.2570 C   0  0  0  0  0  0  0  0  0  0  0  0
  1  2  1  0
  2  3  2  0
  2  4  1  0
  4  5  1  0
  5  6  1  0
  6  7  1  0
  7  8  1  0
  8  9  2  0
  8 10  1  0
 10 11  1  0
 11 12  1  0
 12 13  1  1
 13 14  2  0
 14 15  1  0
 15 16  1  0
 15 17  2  0
 17 18  1  0
 13 19  1  0
 18 19  2  0
 19 20  1  0
 12 21  1  0
 21 22  1  0
 10 23  1  0
 22 23  1  0
 23 24  1  1
  7 25  1  0
  4 26  1  0
 25 26  1  0
M  END
