piperidine-amides-10745-covalent
     RDKit          3D

 22 23  0  0  0  0  0  0  0  0999 V2000
    7.1240   -3.2680   19.1810 C   0  0  0  0  0  0  0  0  0  0  0  0
    6.3740   -3.9960   20.2080 C   0  0  0  0  0  0  0  0  0  0  0  0
    5.3100   -4.5580   19.8970 O   0  0  0  0  0  0  0  0  0  0  0  0
    6.8570   -4.1130   21.5200 N   0  0  0  0  0  0  0  0  0  0  0  0
    7.7430   -3.1450   22.1230 C   0  0  0  0  0  0  0  0  0  0  0  0
    7.0460   -2.6570   23.3640 C   0  0  0  0  0  0  0  0  0  0  0  0
    6.5220   -3.7850   24.1960 C   0  0  0  0  0  0  0  0  0  0  0  0
    5.7890   -3.3180   25.4020 C   0  0  0  0  0  0  0  0  0  0  0  0
    4.5520   -3.0350   25.3300 O   0  0  0  0  0  0  0  0  0  0  0  0
    6.4120   -3.1520   26.6640 N   0  0  0  0  0  0  0  0  0  0  0  0
    6.1020   -4.0500   27.8120 C   0  0  0  0  0  0  0  0  0  0  0  0
    5.2480   -5.1660   27.3330 C   0  0  1  0  0  0  0  0  0  0  0  0
    5.5670   -5.8330   26.3190 O   0  0  0  0  0  0  0  0  0  0  0  0
    4.5790   -6.6120   25.8230 C   0  0  0  0  0  0  0  0  0  0  0  0
    4.9870   -6.1900   28.4180 C   0  0  1  0  0  0  0  0  0  0  0  0
    5.7410   -5.8310   29.6680 C   0  0  0  0  0  0  0  0  0  0  0  0
    5.3840   -6.8770   30.6490 C   0  0  0  0  0  0  0  0  0  0  0  0
    4.0420   -7.1380   30.7410 C   0  0  0  0  0  0  0  0  0  0  0  0
    3.2200   -7.0970   29.8020 O   0  0  0  0  0  0  0  0  0  0  0  0
    3.5020   -6.2860   28.7110 C   0  0  0  0  0  0  0  0  0  0  0  0
    5.6150   -4.7460   23.4050 C   0  0  0  0  0  0  0  0  0  0  0  0
    6.4970   -5.2830   22.2750 C   0  0  0  0  0  0  0  0  0  0  0  0
  1  2  1  0
  2  3  2  0
  2  4  1  0
  4  5  1  0
  5  6  1  0
  6  7  1  0
  7  8  1  0
  8  9  2  0
  8 10  1  0
 10 11  1  0
 12 11  1  1
 12 13  1  0
 13 14  1  0
 12 15  1  0
 15 16  1  1
 16 17  1  0
 17 18  1  0
 18 19  1  0
 15 20  1  0
 19 20  1  0
  7 21  1  0
  4 22  1  0
 21 22  1  0
M  END
