piperidine-amides-14666-covalent
     RDKit          3D

 23 24  0  0  0  0  0  0  0  0999 V2000
    7.1220   -3.2510   19.2170 C   0  0  0  0  0  0  0  0  0  0  0  0
    6.3660   -4.0060   20.2150 C   0  0  0  0  0  0  0  0  0  0  0  0
    5.2840   -4.5150   19.8710 O   0  0  0  0  0  0  0  0  0  0  0  0
    6.8850   -4.2040   21.5160 N   0  0  0  0  0  0  0  0  0  0  0  0
    6.3880   -5.3070   22.2750 C   0  0  0  0  0  0  0  0  0  0  0  0
    5.5090   -4.7590   23.3560 C   0  0  0  0  0  0  0  0  0  0  0  0
    6.3330   -3.6900   24.0520 C   0  0  0  0  0  0  0  0  0  0  0  0
    5.5510   -3.0500   25.1620 C   0  0  0  0  0  0  0  0  0  0  0  0
    4.5830   -2.3780   24.8260 O   0  0  0  0  0  0  0  0  0  0  0  0
    5.9550   -3.2600   26.4780 N   0  0  0  0  0  0  0  0  0  0  0  0
    5.5690   -4.4360   27.1810 C   0  0  2  0  0  0  0  0  0  0  0  0
    6.1390   -4.5950   28.4460 C   0  0  0  0  0  0  0  0  0  0  0  0
    6.1820   -5.5100   26.4270 C   0  0  2  0  0  0  0  0  0  0  0  0
    5.6720   -6.7410   26.7640 O   0  0  0  0  0  0  0  0  0  0  0  0
    7.4880   -5.2000   26.3940 C   0  0  0  0  0  0  0  0  0  0  0  0
    7.9240   -4.6350   25.1130 C   0  0  0  0  0  0  0  0  0  0  0  0
    9.3650   -4.1710   24.8840 C   0  0  0  0  0  0  0  0  0  0  0  0
   10.2930   -4.3350   26.0320 C   0  0  0  0  0  0  0  0  0  0  0  0
    9.7490   -4.9340   27.3180 C   0  0  0  0  0  0  0  0  0  0  0  0
   10.4980   -5.0990   28.3860 F   0  0  0  0  0  0  0  0  0  0  0  0
    8.3110   -5.3530   27.4210 C   0  0  0  0  0  0  0  0  0  0  0  0
    6.6600   -2.6000   23.0550 C   0  0  0  0  0  0  0  0  0  0  0  0
    7.6000   -3.1560   22.2120 C   0  0  0  0  0  0  0  0  0  0  0  0
  1  2  1  0
  2  3  2  0
  2  4  1  0
  4  5  1  0
  5  6  1  0
  6  7  1  0
  7  8  1  0
  8  9  2  0
  8 10  1  0
 10 11  1  0
 11 12  1  1
 11 13  1  0
 13 14  1  1
 13 15  1  0
 15 16  2  0
 16 17  1  0
 17 18  2  0
 18 19  1  0
 19 20  1  0
 15 21  1  0
 19 21  2  0
  7 22  1  0
  4 23  1  0
 22 23  1  0
M  END
