piperidine-amides-30686-covalent
     RDKit          3D

 27 29  0  0  0  0  0  0  0  0999 V2000
    7.1000   -3.3500   19.3090 C   0  0  0  0  0  0  0  0  0  0  0  0
    6.4360   -4.1770   20.3100 C   0  0  0  0  0  0  0  0  0  0  0  0
    5.4110   -4.8080   19.9860 O   0  0  0  0  0  0  0  0  0  0  0  0
    6.9810   -4.3120   21.6020 N   0  0  0  0  0  0  0  0  0  0  0  0
    7.8410   -3.2600   22.1590 C   0  0  0  0  0  0  0  0  0  0  0  0
    7.3900   -2.9940   23.5680 C   0  0  0  0  0  0  0  0  0  0  0  0
    6.1160   -3.7150   23.7930 C   0  0  0  0  0  0  0  0  0  0  0  0
    5.4390   -3.3930   25.0550 C   0  0  0  0  0  0  0  0  0  0  0  0
    4.2100   -3.1050   25.0250 O   0  0  0  0  0  0  0  0  0  0  0  0
    6.0070   -3.3780   26.3260 N   0  0  0  0  0  0  0  0  0  0  0  0
    6.4870   -2.0630   26.7700 C   0  0  0  0  0  0  0  0  0  0  0  0
    6.4690   -1.7910   28.1290 N   0  0  0  0  0  0  0  0  0  0  0  0
    6.1770   -0.5470   28.5510 C   0  0  0  0  0  0  0  0  0  0  0  0
    5.0150   -0.1310   28.2930 O   0  0  0  0  0  0  0  0  0  0  0  0
    7.0690    0.2720   29.2380 O   0  0  0  0  0  0  0  0  0  0  0  0
    6.7420    1.6090   29.5870 C   0  0  0  0  0  0  0  0  0  0  0  0
    5.3570    1.8720   30.1160 C   0  0  0  0  0  0  0  0  0  0  0  0
    7.7540    2.1400   30.5560 C   0  0  0  0  0  0  0  0  0  0  0  0
    6.8990    2.5120   28.3360 C   0  0  0  0  0  0  0  0  0  0  0  0
    6.0170   -2.7800   28.9410 C   0  0  0  0  0  0  0  0  0  0  0  0
    5.7420   -4.1060   28.5280 C   0  0  0  0  0  0  0  0  0  0  0  0
    4.7240   -4.9310   29.2120 C   0  0  0  0  0  0  0  0  0  0  0  0
    5.7640   -5.9510   29.3950 C   0  0  0  0  0  0  0  0  0  0  0  0
    6.8060   -5.2280   28.6180 C   0  0  0  0  0  0  0  0  0  0  0  0
    5.1270   -4.1130   27.1800 C   0  0  0  0  0  0  0  0  0  0  0  0
    6.1840   -5.1660   23.6070 C   0  0  0  0  0  0  0  0  0  0  0  0
    6.7360   -5.4840   22.3930 C   0  0  0  0  0  0  0  0  0  0  0  0
  1  2  1  0
  2  3  2  0
  2  4  1  0
  4  5  1  0
  5  6  1  0
  6  7  1  0
  7  8  1  0
  8  9  2  0
  8 10  1  0
 10 11  1  0
 11 12  1  0
 12 13  1  0
 13 14  2  0
 13 15  1  0
 16 15  1  0
 16 17  1  0
 16 18  1  0
 16 19  1  0
 12 20  1  0
 21 20  1  0
 21 22  1  0
 22 23  1  0
 21 24  1  0
 23 24  1  0
 10 25  1  0
 21 25  1  0
  7 26  1  0
  4 27  1  0
 26 27  1  0
M  END
