piperidine-amides-9189-covalent
     RDKit          3D

 20 20  0  0  0  0  0  0  0  0999 V2000
    7.1060   -3.2610   19.2020 C   0  0  0  0  0  0  0  0  0  0  0  0
    6.3310   -4.0020   20.1990 C   0  0  0  0  0  0  0  0  0  0  0  0
    5.2550   -4.5170   19.8640 O   0  0  0  0  0  0  0  0  0  0  0  0
    6.7980   -4.2010   21.5050 N   0  0  0  0  0  0  0  0  0  0  0  0
    6.5850   -5.4250   22.2370 C   0  0  0  0  0  0  0  0  0  0  0  0
    5.8470   -5.0230   23.4870 C   0  0  0  0  0  0  0  0  0  0  0  0
    6.5750   -3.9510   24.2460 C   0  0  0  0  0  0  0  0  0  0  0  0
    5.8520   -3.5500   25.4740 C   0  0  0  0  0  0  0  0  0  0  0  0
    4.6270   -3.1940   25.4600 O   0  0  0  0  0  0  0  0  0  0  0  0
    6.4890   -3.5530   26.7290 N   0  0  0  0  0  0  0  0  0  0  0  0
    6.6990   -4.8300   27.4530 C   0  0  0  0  0  0  0  0  0  0  0  0
    7.2790   -4.5320   28.7480 C   0  0  0  0  0  0  0  0  0  0  0  0
    7.7200   -5.7370   26.7840 C   0  0  0  0  0  0  0  0  0  0  0  0
    5.4410   -5.5960   27.7360 C   0  0  0  0  0  0  0  0  0  0  0  0
    4.6040   -4.5610   28.4620 C   0  0  0  0  0  0  0  0  0  0  0  0
    5.7570   -6.7580   28.6940 C   0  0  0  0  0  0  0  0  0  0  0  0
    4.2070   -5.9370   26.9140 C   0  0  0  0  0  0  0  0  0  0  0  0
    4.4340   -7.0160   26.2730 O   0  0  0  0  0  0  0  0  0  0  0  0
    6.8240   -2.7440   23.3830 C   0  0  0  0  0  0  0  0  0  0  0  0
    7.5900   -3.1730   22.1580 C   0  0  0  0  0  0  0  0  0  0  0  0
  1  2  1  0
  2  3  2  0
  2  4  1  0
  4  5  1  0
  5  6  1  0
  6  7  1  0
  7  8  1  0
  8  9  2  0
  8 10  1  0
 11 10  1  0
 11 12  1  0
 11 13  1  0
 11 14  1  0
 14 15  1  0
 14 16  1  0
 14 17  1  0
 17 18  1  0
  7 19  1  0
  4 20  1  0
 19 20  1  0
M  END
