piperidine-amides-30654-covalent
     RDKit          3D

 27 29  0  0  0  0  0  0  0  0999 V2000
    7.0420   -3.3800   19.4060 C   0  0  0  0  0  0  0  0  0  0  0  0
    6.4040   -4.2560   20.3910 C   0  0  0  0  0  0  0  0  0  0  0  0
    5.4380   -4.9460   20.0150 O   0  0  0  0  0  0  0  0  0  0  0  0
    6.8870   -4.3560   21.7210 N   0  0  0  0  0  0  0  0  0  0  0  0
    7.7560   -3.3220   22.2860 C   0  0  0  0  0  0  0  0  0  0  0  0
    7.2490   -2.9820   23.6690 C   0  0  0  0  0  0  0  0  0  0  0  0
    5.9660   -3.7000   23.9280 C   0  0  0  0  0  0  0  0  0  0  0  0
    5.2380   -3.2650   25.1630 C   0  0  0  0  0  0  0  0  0  0  0  0
    4.4080   -2.3270   25.0470 O   0  0  0  0  0  0  0  0  0  0  0  0
    5.3320   -3.7690   26.4810 N   0  0  0  0  0  0  0  0  0  0  0  0
    6.4790   -3.3700   27.2560 C   0  0  0  0  0  0  0  0  0  0  0  0
    6.7650   -4.5030   28.1810 C   0  0  0  0  0  0  0  0  0  0  0  0
    5.7130   -4.7160   29.1050 C   0  0  0  0  0  0  0  0  0  0  0  0
    4.4360   -4.9600   28.3970 C   0  0  0  0  0  0  0  0  0  0  0  0
    4.2010   -3.8810   27.3630 C   0  0  1  0  0  0  0  0  0  0  0  0
    3.9130   -2.6280   28.1210 C   0  0  0  0  0  0  0  0  0  0  0  0
    2.6000   -2.3650   28.4350 O   0  0  0  0  0  0  0  0  0  0  0  0
    2.3880   -1.3930   29.4140 C   0  0  0  0  0  0  0  0  0  0  0  0
    3.2850   -0.8720   30.0990 O   0  0  0  0  0  0  0  0  0  0  0  0
    1.0300   -0.9140   29.6980 N   0  0  0  0  0  0  0  0  0  0  0  0
    0.6200   -1.3150   31.0730 C   0  0  0  0  0  0  0  0  0  0  0  0
   -0.4420   -0.3450   31.6570 C   0  0  0  0  0  0  0  0  0  0  0  0
   -1.2350    0.4850   30.6540 C   0  0  0  0  0  0  0  0  0  0  0  0
   -0.5530    0.2910   29.3740 C   0  0  0  0  0  0  0  0  0  0  0  0
    0.3000   -0.1920   28.7530 C   0  0  0  0  0  0  0  0  0  0  0  0
    6.0500   -5.1570   23.7660 C   0  0  0  0  0  0  0  0  0  0  0  0
    6.6000   -5.5010   22.5450 C   0  0  0  0  0  0  0  0  0  0  0  0
  1  2  1  0
  2  3  2  0
  2  4  1  0
  4  5  1  0
  5  6  1  0
  6  7  1  0
  7  8  1  0
  8  9  2  0
  8 10  1  0
 10 11  1  0
 11 12  1  0
 12 13  1  0
 13 14  1  0
 10 15  1  0
 14 15  1  0
 15 16  1  1
 16 17  1  0
 17 18  1  0
 18 19  2  0
 18 20  1  0
 20 21  1  0
 21 22  1  0
 22 23  1  0
 23 24  1  0
 20 25  1  0
 24 25  1  0
  7 26  1  0
  4 27  1  0
 26 27  1  0
M  END
