piperidine-amides-15433-covalent
     RDKit          3D

 18 20  0  0  0  0  0  0  0  0999 V2000
    7.0150   -3.3190   19.3100 C   0  0  0  0  0  0  0  0  0  0  0  0
    6.2850   -4.1530   20.2810 C   0  0  0  0  0  0  0  0  0  0  0  0
    5.2670   -4.7800   19.9390 O   0  0  0  0  0  0  0  0  0  0  0  0
    6.7290   -4.3010   21.5920 N   0  0  0  0  0  0  0  0  0  0  0  0
    6.6170   -5.5920   22.2360 C   0  0  0  0  0  0  0  0  0  0  0  0
    5.9350   -5.4110   23.6020 C   0  0  0  0  0  0  0  0  0  0  0  0
    5.8470   -3.9350   23.9190 C   0  0  0  0  0  0  0  0  0  0  0  0
    5.3740   -3.7050   25.3130 C   0  0  0  0  0  0  0  0  0  0  0  0
    4.2100   -3.3080   25.5030 O   0  0  0  0  0  0  0  0  0  0  0  0
    6.1920   -3.9410   26.4230 N   0  0  0  0  0  0  0  0  0  0  0  0
    7.1200   -5.0540   26.4020 C   0  0  0  0  0  0  0  0  0  0  0  0
    7.3320   -5.6460   27.7700 C   0  0  0  0  0  0  0  0  0  0  0  0
    6.7150   -5.0190   28.7720 C   0  0  0  0  0  0  0  0  0  0  0  0
    5.8940   -4.0350   28.3380 C   0  0  1  0  0  0  0  0  0  0  0  0
    5.7900   -2.9820   28.7940 C   0  0  0  0  0  0  0  0  0  0  0  0
    6.4900   -2.9670   27.5180 C   0  0  2  0  0  0  0  0  0  0  0  0
    7.2340   -3.3510   23.7430 C   0  0  0  0  0  0  0  0  0  0  0  0
    7.5070   -3.3000   22.2710 C   0  0  0  0  0  0  0  0  0  0  0  0
  1  2  1  0
  2  3  2  0
  2  4  1  0
  4  5  1  0
  5  6  1  0
  6  7  1  0
  7  8  1  0
  8  9  2  0
  8 10  1  0
 10 11  1  0
 11 12  1  0
 12 13  1  0
 14 13  1  1
 14 15  1  0
 10 16  1  0
 14 16  1  0
 16 15  1  6
  7 17  1  0
  4 18  1  0
 17 18  1  0
M  END
