piperidine-amides-29921-covalent
     RDKit          3D

 27 29  0  0  0  0  0  0  0  0999 V2000
    7.0930   -3.2760   19.1730 C   0  0  0  0  0  0  0  0  0  0  0  0
    6.3410   -3.9930   20.1960 C   0  0  0  0  0  0  0  0  0  0  0  0
    5.2920   -4.5640   19.8930 O   0  0  0  0  0  0  0  0  0  0  0  0
    6.8400   -4.0900   21.5350 N   0  0  0  0  0  0  0  0  0  0  0  0
    7.7270   -3.0700   22.0600 C   0  0  0  0  0  0  0  0  0  0  0  0
    7.4550   -2.8060   23.5110 C   0  0  0  0  0  0  0  0  0  0  0  0
    6.0980   -3.3960   23.8190 C   0  0  0  0  0  0  0  0  0  0  0  0
    5.6080   -2.9570   25.1540 C   0  0  0  0  0  0  0  0  0  0  0  0
    4.4120   -2.6660   25.3470 O   0  0  0  0  0  0  0  0  0  0  0  0
    6.5110   -2.8830   26.2370 N   0  0  0  0  0  0  0  0  0  0  0  0
    7.1910   -1.6450   26.4910 C   0  0  0  0  0  0  0  0  0  0  0  0
    6.8000   -1.1490   27.8610 C   0  0  0  0  0  0  0  0  0  0  0  0
    5.5710   -0.5160   28.0880 C   0  0  0  0  0  0  0  0  0  0  0  0
    5.2050   -0.0480   29.3650 C   0  0  0  0  0  0  0  0  0  0  0  0
    6.0780   -0.2190   30.4090 C   0  0  0  0  0  0  0  0  0  0  0  0
    7.3320   -0.8680   30.1600 C   0  0  0  0  0  0  0  0  0  0  0  0
    7.6730   -1.3180   28.9190 C   0  0  0  0  0  0  0  0  0  0  0  0
    6.4250   -3.8470   27.2860 C   0  0  0  0  0  0  0  0  0  0  0  0
    5.8790   -5.0840   26.9750 C   0  0  2  0  0  0  0  0  0  0  0  0
    4.8130   -5.7360   27.7570 C   0  0  0  0  0  0  0  0  0  0  0  0
    3.9580   -5.0650   28.3510 O   0  0  0  0  0  0  0  0  0  0  0  0
    7.1580   -5.7890   27.3030 C   0  0  0  0  0  0  0  0  0  0  0  0
    7.5540   -5.6670   28.5950 C   0  0  0  0  0  0  0  0  0  0  0  0
    8.8140   -5.1620   28.1350 C   0  0  0  0  0  0  0  0  0  0  0  0
    8.4410   -5.2560   26.6490 C   0  0  0  0  0  0  0  0  0  0  0  0
    6.1080   -4.8770   23.6310 C   0  0  0  0  0  0  0  0  0  0  0  0
    6.6030   -5.2990   22.2890 C   0  0  0  0  0  0  0  0  0  0  0  0
  1  2  1  0
  2  3  2  0
  2  4  1  0
  4  5  1  0
  5  6  1  0
  6  7  1  0
  7  8  1  0
  8  9  2  0
  8 10  1  0
 10 11  1  0
 11 12  1  0
 12 13  2  0
 13 14  1  0
 14 15  2  0
 15 16  1  0
 12 17  1  0
 16 17  2  0
 10 18  1  0
 19 18  1  1
 19 20  1  0
 20 21  1  0
 19 22  1  0
 22 23  1  0
 23 24  1  0
 22 25  1  0
 24 25  1  0
  7 26  1  0
  4 27  1  0
 26 27  1  0
M  END
