piperidine-amides-1233-covalent
     RDKit          3D

 23 24  0  0  0  0  0  0  0  0999 V2000
    7.1000   -3.2590   19.2190 C   0  0  0  0  0  0  0  0  0  0  0  0
    6.3170   -4.0280   20.2310 C   0  0  0  0  0  0  0  0  0  0  0  0
    5.2590   -4.5720   19.8830 O   0  0  0  0  0  0  0  0  0  0  0  0
    6.8160   -4.1660   21.5440 N   0  0  0  0  0  0  0  0  0  0  0  0
    7.6300   -3.1240   22.1430 C   0  0  0  0  0  0  0  0  0  0  0  0
    7.5780   -3.2800   23.6660 C   0  0  0  0  0  0  0  0  0  0  0  0
    6.2350   -3.8320   24.0070 C   0  0  0  0  0  0  0  0  0  0  0  0
    5.7770   -3.4760   25.3720 C   0  0  0  0  0  0  0  0  0  0  0  0
    4.8850   -2.6240   25.4440 O   0  0  0  0  0  0  0  0  0  0  0  0
    6.3250   -4.1150   26.5010 N   0  0  0  0  0  0  0  0  0  0  0  0
    7.6730   -4.4910   26.7460 C   0  0  0  0  0  0  0  0  0  0  0  0
    8.5030   -3.7730   27.5590 C   0  0  0  0  0  0  0  0  0  0  0  0
    8.2700   -2.4010   27.7030 C   0  0  0  0  0  0  0  0  0  0  0  0
    8.5920   -1.7850   28.9020 O   0  0  0  0  0  0  0  0  0  0  0  0
    7.6900   -1.1490   29.7470 C   0  0  0  0  0  0  0  0  0  0  0  0
    8.1760   -0.2500   30.8110 C   0  0  0  0  0  0  0  0  0  0  0  0
    7.2460    0.4770   31.7810 C   0  0  0  0  0  0  0  0  0  0  0  0
    5.7380    0.2350   31.6120 C   0  0  0  0  0  0  0  0  0  0  0  0
    4.7330    0.7870   32.3800 C   0  0  0  0  0  0  0  0  0  0  0  0
    5.2940   -0.6800   30.5200 C   0  0  0  0  0  0  0  0  0  0  0  0
    6.3420   -1.3320   29.6310 C   0  0  0  0  0  0  0  0  0  0  0  0
    6.2810   -5.2620   23.7140 C   0  0  0  0  0  0  0  0  0  0  0  0
    6.6320   -5.4270   22.2250 C   0  0  0  0  0  0  0  0  0  0  0  0
  1  2  1  0
  2  3  2  0
  2  4  1  0
  4  5  1  0
  5  6  1  0
  6  7  1  0
  7  8  1  0
  8  9  2  0
  8 10  1  0
 10 11  1  0
 11 12  1  0
 12 13  1  0
 13 14  1  0
 14 15  1  0
 15 16  2  0
 16 17  1  0
 17 18  2  0
 18 19  1  0
 18 20  1  0
 15 21  1  0
 20 21  2  0
  7 22  1  0
  4 23  1  0
 22 23  1  0
M  END
