piperidine-amides-13214-covalent
     RDKit          3D

 19 20  0  0  0  0  0  0  0  0999 V2000
    7.0920   -3.2770   19.2800 C   0  0  0  0  0  0  0  0  0  0  0  0
    6.3640   -4.0650   20.3080 C   0  0  0  0  0  0  0  0  0  0  0  0
    5.3310   -4.6530   19.9220 O   0  0  0  0  0  0  0  0  0  0  0  0
    6.8330   -4.1840   21.6330 N   0  0  0  0  0  0  0  0  0  0  0  0
    7.6490   -3.1600   22.2020 C   0  0  0  0  0  0  0  0  0  0  0  0
    7.2930   -2.9160   23.5870 C   0  0  0  0  0  0  0  0  0  0  0  0
    6.0780   -3.6580   23.9630 C   0  0  0  0  0  0  0  0  0  0  0  0
    5.6320   -3.3120   25.3370 C   0  0  0  0  0  0  0  0  0  0  0  0
    4.4270   -3.0440   25.4920 O   0  0  0  0  0  0  0  0  0  0  0  0
    6.4950   -3.2810   26.4460 N   0  0  0  0  0  0  0  0  0  0  0  0
    6.0060   -3.5830   27.8080 C   0  0  1  0  0  0  0  0  0  0  0  0
    6.6460   -4.7700   28.4570 C   0  0  0  0  0  0  0  0  0  0  0  0
    6.0590   -2.3870   28.6870 C   0  0  0  0  0  0  0  0  0  0  0  0
    4.9290   -1.7010   29.2820 N   0  0  0  0  0  0  0  0  0  0  0  0
    5.1680   -0.5930   30.0900 C   0  0  0  0  0  0  0  0  0  0  0  0
    6.4810   -0.2900   30.2180 C   0  0  0  0  0  0  0  0  0  0  0  0
    7.3850   -1.4480   29.2840 S   0  0  0  0  0  0  0  0  0  0  0  0
    6.1220   -5.1300   23.6640 C   0  0  0  0  0  0  0  0  0  0  0  0
    6.5620   -5.3810   22.3750 C   0  0  0  0  0  0  0  0  0  0  0  0
  1  2  1  0
  2  3  2  0
  2  4  1  0
  4  5  1  0
  5  6  1  0
  6  7  1  0
  7  8  1  0
  8  9  2  0
  8 10  1  0
 10 11  1  0
 11 12  1  1
 11 13  1  0
 13 14  2  0
 14 15  1  0
 15 16  2  0
 13 17  1  0
 16 17  1  0
  7 18  1  0
  4 19  1  0
 18 19  1  0
M  END
