piperidine-amides-326-covalent
     RDKit          3D

 28 30  0  0  0  0  0  0  0  0999 V2000
    7.1490   -3.3120   19.3960 C   0  0  0  0  0  0  0  0  0  0  0  0
    6.4130   -4.1210   20.3390 C   0  0  0  0  0  0  0  0  0  0  0  0
    5.3530   -4.7000   19.9430 O   0  0  0  0  0  0  0  0  0  0  0  0
    6.8590   -4.3170   21.6610 N   0  0  0  0  0  0  0  0  0  0  0  0
    6.3670   -5.4980   22.3890 C   0  0  0  0  0  0  0  0  0  0  0  0
    5.4090   -4.7690   23.4060 C   0  0  0  0  0  0  0  0  0  0  0  0
    6.2980   -3.8430   24.2110 C   0  0  0  0  0  0  0  0  0  0  0  0
    5.5530   -3.3070   25.5210 C   0  0  0  0  0  0  0  0  0  0  0  0
    4.9730   -2.2590   25.2790 O   0  0  0  0  0  0  0  0  0  0  0  0
    5.7420   -4.1180   26.4910 N   0  0  0  0  0  0  0  0  0  0  0  0
    5.9160   -4.9920   27.5370 C   0  0  0  0  0  0  0  0  0  0  0  0
    5.3780   -5.5760   28.6430 C   0  0  0  0  0  0  0  0  0  0  0  0
    4.2030   -5.1180   29.2790 C   0  0  0  0  0  0  0  0  0  0  0  0
    3.6880   -5.7120   30.3640 N   0  0  0  0  0  0  0  0  0  0  0  0
    4.4900   -6.7980   30.7070 C   0  0  0  0  0  0  0  0  0  0  0  0
    4.0890   -7.6460   31.9230 C   0  0  0  0  0  0  0  0  0  0  0  0
    5.3080   -7.8210   32.5800 C   0  0  0  0  0  0  0  0  0  0  0  0
    5.6390   -8.5250   33.7860 C   0  0  0  0  0  0  0  0  0  0  0  0
    4.2290   -9.0750   34.2020 C   0  0  0  0  0  0  0  0  0  0  0  0
    4.0970   -9.9370   35.5020 C   0  0  0  0  0  0  0  0  0  0  0  0
    4.0630   -9.1250   36.6410 F   0  0  0  0  0  0  0  0  0  0  0  0
    5.1050  -10.8080   35.7240 F   0  0  0  0  0  0  0  0  0  0  0  0
    2.8650  -10.6190   35.5300 F   0  0  0  0  0  0  0  0  0  0  0  0
    2.9510   -8.8580   33.4630 C   0  0  0  0  0  0  0  0  0  0  0  0
    2.9220   -8.1450   32.3390 C   0  0  0  0  0  0  0  0  0  0  0  0
    5.8370   -6.9180   29.5770 S   0  0  0  0  0  0  0  0  0  0  0  0
    6.9880   -2.7580   23.3870 C   0  0  0  0  0  0  0  0  0  0  0  0
    7.6780   -3.3510   22.3580 C   0  0  0  0  0  0  0  0  0  0  0  0
  1  2  1  0
  2  3  2  0
  2  4  1  0
  4  5  1  0
  5  6  1  0
  6  7  1  0
  7  8  1  0
  8  9  2  0
  8 10  1  0
 10 11  1  0
 11 12  1  0
 12 13  2  0
 13 14  1  0
 14 15  2  0
 15 16  1  0
 16 17  2  0
 17 18  1  0
 18 19  2  0
 19 20  1  0
 20 21  1  0
 20 22  1  0
 20 23  1  0
 19 24  1  0
 16 25  1  0
 24 25  2  0
 12 26  1  0
 15 26  1  0
  7 27  1  0
  4 28  1  0
 27 28  1  0
M  END
