piperidine-amides-34319-covalent
     RDKit          3D

 28 30  0  0  0  0  0  0  0  0999 V2000
    6.9980   -3.4110   19.4120 C   0  0  0  0  0  0  0  0  0  0  0  0
    6.3690   -4.3730   20.3400 C   0  0  0  0  0  0  0  0  0  0  0  0
    5.3390   -4.9720   19.9890 O   0  0  0  0  0  0  0  0  0  0  0  0
    6.9470   -4.6710   21.5820 N   0  0  0  0  0  0  0  0  0  0  0  0
    6.5140   -5.8350   22.3120 C   0  0  0  0  0  0  0  0  0  0  0  0
    5.5350   -5.3400   23.3910 C   0  0  0  0  0  0  0  0  0  0  0  0
    6.2380   -4.3080   24.2640 C   0  0  0  0  0  0  0  0  0  0  0  0
    5.2550   -3.7390   25.2230 C   0  0  0  0  0  0  0  0  0  0  0  0
    4.1410   -3.3940   24.7920 O   0  0  0  0  0  0  0  0  0  0  0  0
    5.5820   -3.5790   26.5890 N   0  0  0  0  0  0  0  0  0  0  0  0
    4.6960   -3.6290   27.7240 C   0  0  0  0  0  0  0  0  0  0  0  0
    5.0870   -4.7740   28.6540 C   0  0  0  0  0  0  0  0  0  0  0  0
    6.4010   -5.1210   28.7790 C   0  0  0  0  0  0  0  0  0  0  0  0
    7.2000   -4.4520   27.9350 C   0  0  0  0  0  0  0  0  0  0  0  0
    6.6910   -3.2780   27.4000 C   0  0  1  0  0  0  0  0  0  0  0  0
    7.1840   -2.4160   26.4200 C   0  0  0  0  0  0  0  0  0  0  0  0
    6.3630   -1.9210   25.4690 O   0  0  0  0  0  0  0  0  0  0  0  0
    8.4170   -1.9220   26.3280 N   0  0  0  0  0  0  0  0  0  0  0  0
    8.9360   -1.8420   25.0690 C   0  0  0  0  0  0  0  0  0  0  0  0
   10.3590   -1.9370   25.1910 C   0  0  0  0  0  0  0  0  0  0  0  0
   11.4710   -1.9480   24.2050 C   0  0  0  0  0  0  0  0  0  0  0  0
   10.6580   -1.7930   22.9840 C   0  0  0  0  0  0  0  0  0  0  0  0
   11.7110   -1.7960   21.6160 Cl  0  0  0  0  0  0  0  0  0  0  0  0
    9.2360   -1.6570   22.8420 C   0  0  0  0  0  0  0  0  0  0  0  0
    8.5510   -1.4220   21.2510 Cl  0  0  0  0  0  0  0  0  0  0  0  0
    8.4040   -1.6930   23.8950 C   0  0  0  0  0  0  0  0  0  0  0  0
    6.7650   -3.1530   23.4320 C   0  0  0  0  0  0  0  0  0  0  0  0
    7.6090   -3.6370   22.2910 C   0  0  0  0  0  0  0  0  0  0  0  0
  1  2  1  0
  2  3  2  0
  2  4  1  0
  4  5  1  0
  5  6  1  0
  6  7  1  0
  7  8  1  0
  8  9  2  0
  8 10  1  0
 10 11  1  0
 11 12  1  0
 12 13  1  0
 13 14  1  0
 10 15  1  0
 14 15  1  0
 15 16  1  6
 16 17  2  0
 16 18  1  0
 18 19  1  0
 19 20  2  0
 20 21  1  0
 21 22  2  0
 22 23  1  0
 22 24  1  0
 24 25  1  0
 19 26  1  0
 24 26  2  0
  7 27  1  0
  4 28  1  0
 27 28  1  0
M  END
