piperidine-amides-33797-covalent
     RDKit          3D

 30 32  0  0  0  0  0  0  0  0999 V2000
    6.9770   -3.3880   19.4340 C   0  0  0  0  0  0  0  0  0  0  0  0
    6.3840   -4.2870   20.4450 C   0  0  0  0  0  0  0  0  0  0  0  0
    5.4340   -4.9980   20.0210 O   0  0  0  0  0  0  0  0  0  0  0  0
    6.8730   -4.3800   21.7890 N   0  0  0  0  0  0  0  0  0  0  0  0
    6.4930   -5.4890   22.6050 C   0  0  0  0  0  0  0  0  0  0  0  0
    5.9680   -5.1090   23.9270 C   0  0  0  0  0  0  0  0  0  0  0  0
    5.8530   -3.6430   24.0890 C   0  0  0  0  0  0  0  0  0  0  0  0
    5.1320   -3.0630   25.3230 C   0  0  0  0  0  0  0  0  0  0  0  0
    4.4730   -2.0410   25.1150 O   0  0  0  0  0  0  0  0  0  0  0  0
    5.1080   -3.5380   26.6720 N   0  0  0  0  0  0  0  0  0  0  0  0
    4.6210   -2.8320   27.7870 C   0  0  0  0  0  0  0  0  0  0  0  0
    4.6180   -3.5040   29.0680 C   0  0  0  0  0  0  0  0  0  0  0  0
    5.3640   -4.5690   29.2710 N   0  0  0  0  0  0  0  0  0  0  0  0
    5.0290   -5.7550   30.0170 C   0  0  0  0  0  0  0  0  0  0  0  0
    6.0890   -6.4020   30.6100 O   0  0  0  0  0  0  0  0  0  0  0  0
    3.7370   -6.2280   30.1200 C   0  0  2  0  0  0  0  0  0  0  0  0
    3.4960   -5.3200   31.3300 C   0  0  0  0  0  0  0  0  0  0  0  0
    3.7920   -7.4120   30.4570 O   0  0  0  0  0  0  0  0  0  0  0  0
    2.9500   -8.0760   31.1830 C   0  0  0  0  0  0  0  0  0  0  0  0
    1.7230   -8.5960   30.4370 C   0  0  0  0  0  0  0  0  0  0  0  0
    0.5970   -9.3960   31.0200 C   0  0  0  0  0  0  0  0  0  0  0  0
    0.8020   -9.6530   32.5010 C   0  0  0  0  0  0  0  0  0  0  0  0
    2.0500   -9.1150   33.2290 C   0  0  0  0  0  0  0  0  0  0  0  0
    3.1110   -8.3250   32.5360 C   0  0  0  0  0  0  0  0  0  0  0  0
    4.1820   -7.9080   33.3290 C   0  0  0  0  0  0  0  0  0  0  0  0
    5.4090   -7.8980   32.6890 C   0  0  0  0  0  0  0  0  0  0  0  0
    6.4300   -4.7090   28.3770 C   0  0  0  0  0  0  0  0  0  0  0  0
    6.2160   -4.3040   27.0430 C   0  0  0  0  0  0  0  0  0  0  0  0
    7.2220   -3.0530   23.8330 C   0  0  0  0  0  0  0  0  0  0  0  0
    7.6200   -3.2680   22.3710 C   0  0  0  0  0  0  0  0  0  0  0  0
  1  2  1  0
  2  3  2  0
  2  4  1  0
  4  5  1  0
  5  6  1  0
  6  7  1  0
  7  8  1  0
  8  9  2  0
  8 10  1  0
 10 11  1  0
 11 12  1  0
 12 13  1  0
 13 14  1  0
 14 15  2  0
 14 16  1  0
 16 17  1  1
 16 18  1  0
 18 19  1  0
 19 20  2  0
 20 21  1  0
 21 22  2  0
 22 23  1  0
 19 24  1  0
 23 24  2  0
 24 25  1  0
 25 26  1  0
 13 27  1  0
 10 28  1  0
 27 28  1  0
  7 29  1  0
  4 30  1  0
 29 30  1  0
M  END
