piperidine-amides-1878-covalent
     RDKit          3D

 25 26  0  0  0  0  0  0  0  0999 V2000
    7.1080   -3.2890   19.2670 C   0  0  0  0  0  0  0  0  0  0  0  0
    6.3190   -4.0420   20.2760 C   0  0  0  0  0  0  0  0  0  0  0  0
    5.2850   -4.5840   19.8940 O   0  0  0  0  0  0  0  0  0  0  0  0
    6.7910   -4.1400   21.5880 N   0  0  0  0  0  0  0  0  0  0  0  0
    7.7240   -3.1750   22.1290 C   0  0  0  0  0  0  0  0  0  0  0  0
    7.3790   -2.8240   23.5470 C   0  0  0  0  0  0  0  0  0  0  0  0
    6.1090   -3.5570   23.9590 C   0  0  0  0  0  0  0  0  0  0  0  0
    5.8590   -3.2410   25.3790 C   0  0  0  0  0  0  0  0  0  0  0  0
    4.7340   -3.4630   25.8510 O   0  0  0  0  0  0  0  0  0  0  0  0
    6.8680   -2.6770   26.1950 N   0  0  0  0  0  0  0  0  0  0  0  0
    6.5070   -1.4850   26.9330 C   0  0  0  0  0  0  0  0  0  0  0  0
    7.7350   -0.9230   27.6200 C   0  0  1  0  0  0  0  0  0  0  0  0
    8.8000   -1.1730   26.7530 F   0  0  0  0  0  0  0  0  0  0  0  0
    7.8510    0.3370   28.1010 C   0  0  0  0  0  0  0  0  0  0  0  0
    8.3510    0.2160   29.3360 C   0  0  1  0  0  0  0  0  0  0  0  0
    7.5950    0.7820   30.3280 C   0  0  0  0  0  0  0  0  0  0  0  0
    7.3540    2.1190   30.4230 O   0  0  0  0  0  0  0  0  0  0  0  0
    7.0910   -0.1240   31.2310 O   0  0  0  0  0  0  0  0  0  0  0  0
    6.8560    0.1880   32.5820 C   0  0  0  0  0  0  0  0  0  0  0  0
    7.9650    0.0110   33.5810 C   0  0  0  0  0  0  0  0  0  0  0  0
    7.6260    1.4240   32.9870 C   0  0  0  0  0  0  0  0  0  0  0  0
    5.4870    0.1660   33.1750 C   0  0  0  0  0  0  0  0  0  0  0  0
    7.9620   -1.2720   29.0790 C   0  0  0  0  0  0  0  0  0  0  0  0
    6.0620   -5.0060   23.6490 C   0  0  0  0  0  0  0  0  0  0  0  0
    6.6160   -5.3760   22.3220 C   0  0  0  0  0  0  0  0  0  0  0  0
  1  2  1  0
  2  3  2  0
  2  4  1  0
  4  5  1  0
  5  6  1  0
  6  7  1  0
  7  8  1  0
  8  9  2  0
  8 10  1  0
 10 11  1  0
 11 12  1  0
 12 13  1  6
 12 14  1  0
 14 15  1  0
 15 16  1  1
 16 17  2  0
 16 18  1  0
 19 18  1  0
 19 20  1  0
 19 21  1  0
 19 22  1  0
 12 23  1  0
 15 23  1  0
  7 24  1  0
  4 25  1  0
 24 25  1  0
M  END
