piperidine-amides-23664-covalent
     RDKit          3D

 22 23  0  0  0  0  0  0  0  0999 V2000
    7.0960   -3.3190   19.2570 C   0  0  0  0  0  0  0  0  0  0  0  0
    6.3970   -4.1370   20.2600 C   0  0  0  0  0  0  0  0  0  0  0  0
    5.3140   -4.6640   19.9200 O   0  0  0  0  0  0  0  0  0  0  0  0
    6.9700   -4.3660   21.5300 N   0  0  0  0  0  0  0  0  0  0  0  0
    6.4680   -5.4440   22.2940 C   0  0  0  0  0  0  0  0  0  0  0  0
    5.8260   -5.0370   23.5390 C   0  0  0  0  0  0  0  0  0  0  0  0
    6.4910   -3.9380   24.2840 C   0  0  0  0  0  0  0  0  0  0  0  0
    5.6430   -3.4030   25.3960 C   0  0  0  0  0  0  0  0  0  0  0  0
    4.5170   -2.9340   25.1390 O   0  0  0  0  0  0  0  0  0  0  0  0
    6.0860   -3.4280   26.7250 N   0  0  0  0  0  0  0  0  0  0  0  0
    5.3180   -3.1900   27.8680 C   0  0  0  0  0  0  0  0  0  0  0  0
    5.7170   -4.0460   28.9610 C   0  0  0  0  0  0  0  0  0  0  0  0
    6.8850   -4.8210   28.3120 C   0  0  0  0  0  0  0  0  0  0  0  0
    7.1130   -4.3640   27.0250 C   0  0  2  0  0  0  0  0  0  0  0  0
    8.3750   -3.7360   27.5600 C   0  0  0  0  0  0  0  0  0  0  0  0
    9.2900   -5.1290   27.2930 S   0  0  0  0  0  0  0  0  0  0  0  0
   10.4280   -5.1080   28.2210 O   0  0  0  0  0  0  0  0  0  0  0  0
    8.4370   -6.3140   27.5400 O   0  0  0  0  0  0  0  0  0  0  0  0
    9.7800   -5.0690   25.8350 N   0  0  0  0  0  0  0  0  0  0  0  0
    9.3450   -4.0310   24.8790 C   0  0  0  0  0  0  0  0  0  0  0  0
    6.8900   -2.7940   23.3510 C   0  0  0  0  0  0  0  0  0  0  0  0
    7.7190   -3.3460   22.2220 C   0  0  0  0  0  0  0  0  0  0  0  0
  1  2  1  0
  2  3  2  0
  2  4  1  0
  4  5  1  0
  5  6  1  0
  6  7  1  0
  7  8  1  0
  8  9  2  0
  8 10  1  0
 10 11  1  0
 11 12  1  0
 12 13  1  0
 10 14  1  0
 13 14  1  0
 14 15  1  1
 15 16  1  0
 16 17  2  0
 16 18  2  0
 16 19  1  0
 19 20  1  0
  7 21  1  0
  4 22  1  0
 21 22  1  0
M  END
