piperidine-amides-10210-covalent
     RDKit          3D

 25 26  0  0  0  0  0  0  0  0999 V2000
    7.0950   -3.3350   19.2910 C   0  0  0  0  0  0  0  0  0  0  0  0
    6.3440   -4.1030   20.2840 C   0  0  0  0  0  0  0  0  0  0  0  0
    5.2670   -4.6270   19.9030 O   0  0  0  0  0  0  0  0  0  0  0  0
    6.8590   -4.2690   21.5640 N   0  0  0  0  0  0  0  0  0  0  0  0
    6.5590   -5.4420   22.3490 C   0  0  0  0  0  0  0  0  0  0  0  0
    5.8950   -4.9840   23.6150 C   0  0  0  0  0  0  0  0  0  0  0  0
    6.6390   -3.8280   24.2320 C   0  0  0  0  0  0  0  0  0  0  0  0
    5.8650   -3.2510   25.3500 C   0  0  0  0  0  0  0  0  0  0  0  0
    4.6610   -2.9700   25.1540 O   0  0  0  0  0  0  0  0  0  0  0  0
    6.4200   -3.0150   26.6210 N   0  0  0  0  0  0  0  0  0  0  0  0
    6.3970   -1.7170   27.2520 C   0  0  0  0  0  0  0  0  0  0  0  0
    7.0810   -1.5560   28.5850 C   0  0  0  0  0  0  0  0  0  0  0  0
    7.0760   -0.3550   29.2210 C   0  0  0  0  0  0  0  0  0  0  0  0
    6.4350    0.7180   28.6270 C   0  0  0  0  0  0  0  0  0  0  0  0
    5.7630    0.7160   27.4000 C   0  0  0  0  0  0  0  0  0  0  0  0
    5.1700    1.8820   26.9510 O   0  0  0  0  0  0  0  0  0  0  0  0
    3.7660    2.0730   27.0070 C   0  0  0  0  0  0  0  0  0  0  0  0
    3.0430    1.3320   27.9220 C   0  0  0  0  0  0  0  0  0  0  0  0
    2.6020    0.1290   27.4950 O   0  0  0  0  0  0  0  0  0  0  0  0
    2.8180    1.8560   29.1390 N   0  0  0  0  0  0  0  0  0  0  0  0
    3.9410    2.5220   29.4260 C   0  0  0  0  0  0  0  0  0  0  0  0
    1.8920    1.9540   30.1980 C   0  0  0  0  0  0  0  0  0  0  0  0
    5.7330   -0.4850   26.6980 C   0  0  0  0  0  0  0  0  0  0  0  0
    6.9170   -2.7420   23.2440 C   0  0  0  0  0  0  0  0  0  0  0  0
    7.6660   -3.2280   22.2070 C   0  0  0  0  0  0  0  0  0  0  0  0
  1  2  1  0
  2  3  2  0
  2  4  1  0
  4  5  1  0
  5  6  1  0
  6  7  1  0
  7  8  1  0
  8  9  2  0
  8 10  1  0
 10 11  1  0
 11 12  2  0
 12 13  1  0
 13 14  2  0
 14 15  1  0
 15 16  1  0
 16 17  1  0
 17 18  1  0
 18 19  2  0
 18 20  1  0
 20 21  1  0
 20 22  1  0
 11 23  1  0
 15 23  2  0
  7 24  1  0
  4 25  1  0
 24 25  1  0
M  END
