piperidine-amides-24177-covalent
     RDKit          3D

 24 25  0  0  0  0  0  0  0  0999 V2000
    7.0620   -3.3460   19.3920 C   0  0  0  0  0  0  0  0  0  0  0  0
    6.4120   -4.2450   20.3590 C   0  0  0  0  0  0  0  0  0  0  0  0
    5.4130   -4.9140   20.0020 O   0  0  0  0  0  0  0  0  0  0  0  0
    6.9280   -4.3980   21.6610 N   0  0  0  0  0  0  0  0  0  0  0  0
    6.6360   -5.6290   22.3790 C   0  0  0  0  0  0  0  0  0  0  0  0
    6.2820   -5.2670   23.8360 C   0  0  0  0  0  0  0  0  0  0  0  0
    6.1730   -3.7640   23.8560 C   0  0  0  0  0  0  0  0  0  0  0  0
    5.6200   -3.1880   25.0970 C   0  0  0  0  0  0  0  0  0  0  0  0
    4.9860   -2.1250   24.9770 O   0  0  0  0  0  0  0  0  0  0  0  0
    5.7240   -3.7630   26.3780 N   0  0  0  0  0  0  0  0  0  0  0  0
    4.4350   -4.1440   26.8740 C   0  0  0  0  0  0  0  0  0  0  0  0
    4.5410   -4.8710   28.1860 C   0  0  0  0  0  0  0  0  0  0  0  0
    5.4510   -4.4250   29.0390 C   0  0  0  0  0  0  0  0  0  0  0  0
    5.0430   -3.3170   29.7480 C   0  0  0  0  0  0  0  0  0  0  0  0
    4.2390   -2.4450   29.0160 C   0  0  0  0  0  0  0  0  0  0  0  0
    3.9800   -1.1710   29.4650 C   0  0  0  0  0  0  0  0  0  0  0  0
    5.4720   -5.4610   29.9370 C   0  0  0  0  0  0  0  0  0  0  0  0
    4.5520   -5.6190   30.7410 O   0  0  0  0  0  0  0  0  0  0  0  0
    6.4690   -6.3670   29.9860 O   0  0  0  0  0  0  0  0  0  0  0  0
    5.9620   -7.6180   29.7330 C   0  0  0  0  0  0  0  0  0  0  0  0
    6.6010   -4.3160   28.3910 C   0  0  0  0  0  0  0  0  0  0  0  0
    6.3890   -3.1670   27.4990 C   0  0  0  0  0  0  0  0  0  0  0  0
    7.5080   -3.1850   23.5540 C   0  0  0  0  0  0  0  0  0  0  0  0
    7.7240   -3.3400   22.2240 C   0  0  0  0  0  0  0  0  0  0  0  0
  1  2  1  0
  2  3  2  0
  2  4  1  0
  4  5  1  0
  5  6  1  0
  6  7  1  0
  7  8  1  0
  8  9  2  0
  8 10  1  0
 10 11  1  0
 11 12  1  0
 12 13  1  0
 13 14  1  0
 14 15  1  0
 15 16  3  0
 13 17  1  0
 17 18  2  0
 17 19  1  0
 19 20  1  0
 13 21  1  0
 10 22  1  0
 21 22  1  0
  7 23  1  0
  4 24  1  0
 23 24  1  0
M  END
