piperidine-amides-16213-covalent
     RDKit          3D

 19 20  0  0  0  0  0  0  0  0999 V2000
    7.1170   -3.2890   19.3010 C   0  0  0  0  0  0  0  0  0  0  0  0
    6.3400   -4.0610   20.3050 C   0  0  0  0  0  0  0  0  0  0  0  0
    5.3060   -4.5980   19.9090 O   0  0  0  0  0  0  0  0  0  0  0  0
    6.8100   -4.1920   21.6180 N   0  0  0  0  0  0  0  0  0  0  0  0
    6.6250   -5.4100   22.3740 C   0  0  0  0  0  0  0  0  0  0  0  0
    6.0840   -5.0990   23.7480 C   0  0  0  0  0  0  0  0  0  0  0  0
    6.0620   -3.5890   23.9950 C   0  0  0  0  0  0  0  0  0  0  0  0
    5.5740   -3.3560   25.3780 C   0  0  0  0  0  0  0  0  0  0  0  0
    4.3560   -3.3960   25.5800 O   0  0  0  0  0  0  0  0  0  0  0  0
    6.4280   -3.0750   26.4650 N   0  0  0  0  0  0  0  0  0  0  0  0
    6.8540   -1.6940   26.5480 C   0  0  0  0  0  0  0  0  0  0  0  0
    6.2880   -3.8340   27.6900 C   0  0  0  0  0  0  0  0  0  0  0  0
    6.0030   -5.1670   27.4950 C   0  0  1  0  0  0  0  0  0  0  0  0
    6.7880   -6.0100   28.0080 O   0  0  0  0  0  0  0  0  0  0  0  0
    4.7560   -5.5070   27.9080 C   0  0  0  0  0  0  0  0  0  0  0  0
    4.3100   -6.6630   27.7000 C   0  0  0  0  0  0  0  0  0  0  0  0
    3.5260   -5.8900   26.8840 C   0  0  0  0  0  0  0  0  0  0  0  0
    7.3610   -2.9460   23.6360 C   0  0  0  0  0  0  0  0  0  0  0  0
    7.6660   -3.1620   22.1850 C   0  0  0  0  0  0  0  0  0  0  0  0
  1  2  1  0
  2  3  2  0
  2  4  1  0
  4  5  1  0
  5  6  1  0
  6  7  1  0
  7  8  1  0
  8  9  2  0
  8 10  1  0
 10 11  1  0
 10 12  1  0
 12 13  1  0
 13 14  1  1
 13 15  1  0
 15 16  1  0
 15 17  1  0
 16 17  1  0
  7 18  1  0
  4 19  1  0
 18 19  1  0
M  END
