piperidine-amides-31458-covalent
     RDKit          3D

 22 24  0  0  0  0  0  0  0  0999 V2000
    7.0830   -3.3170   19.2310 C   0  0  0  0  0  0  0  0  0  0  0  0
    6.3660   -4.0280   20.2620 C   0  0  0  0  0  0  0  0  0  0  0  0
    5.2850   -4.5980   19.9140 O   0  0  0  0  0  0  0  0  0  0  0  0
    6.8280   -4.1950   21.5870 N   0  0  0  0  0  0  0  0  0  0  0  0
    6.5590   -5.5230   22.1680 C   0  0  0  0  0  0  0  0  0  0  0  0
    5.5300   -5.0190   23.2200 C   0  0  0  0  0  0  0  0  0  0  0  0
    6.4240   -4.2170   24.1100 C   0  0  0  0  0  0  0  0  0  0  0  0
    6.0830   -4.6110   25.6120 C   0  0  0  0  0  0  0  0  0  0  0  0
    6.4700   -5.7230   25.7410 O   0  0  0  0  0  0  0  0  0  0  0  0
    5.4280   -3.8700   26.3610 N   0  0  0  0  0  0  0  0  0  0  0  0
    4.2950   -3.7550   27.0310 C   0  0  0  0  0  0  0  0  0  0  0  0
    4.2130   -4.0550   28.2790 C   0  0  0  0  0  0  0  0  0  0  0  0
    5.2520   -3.2310   28.3650 C   0  0  0  0  0  0  0  0  0  0  0  0
    5.7240   -2.3840   29.5020 C   0  0  0  0  0  0  0  0  0  0  0  0
    6.9810   -1.5580   29.0660 C   0  0  0  0  0  0  0  0  0  0  0  0
    7.9090   -0.4300   30.0620 Cl  0  0  0  0  0  0  0  0  0  0  0  0
    7.0160   -2.0390   27.7490 C   0  0  0  0  0  0  0  0  0  0  0  0
    6.1370   -2.3960   28.6830 C   0  0  0  0  0  0  0  0  0  0  0  0
    6.9170   -1.2140   29.9370 Br  0  0  0  0  0  0  0  0  0  0  0  0
    6.2240   -2.8990   27.2560 C   0  0  0  0  0  0  0  0  0  0  0  0
    6.7480   -2.8850   23.5210 C   0  0  0  0  0  0  0  0  0  0  0  0
    7.4810   -3.1380   22.3530 C   0  0  0  0  0  0  0  0  0  0  0  0
  1  2  1  0
  2  3  2  0
  2  4  1  0
  4  5  1  0
  5  6  1  0
  6  7  1  0
  7  8  1  0
  8  9  2  0
  8 10  1  0
 10 11  1  0
 11 12  1  0
 12 13  1  0
 13 14  1  0
 14 15  2  0
 15 16  1  0
 15 17  1  0
 17 18  2  0
 18 19  1  0
 10 20  1  0
 13 20  2  0
 18 20  1  0
  7 21  1  0
  4 22  1  0
 21 22  1  0
M  END
