piperidine-amides-3246-covalent
     RDKit          3D

 22 24  0  0  0  0  0  0  0  0999 V2000
    7.0390   -3.3430   19.3300 C   0  0  0  0  0  0  0  0  0  0  0  0
    6.3490   -4.1540   20.3290 C   0  0  0  0  0  0  0  0  0  0  0  0
    5.3870   -4.8410   19.9850 O   0  0  0  0  0  0  0  0  0  0  0  0
    6.8110   -4.1950   21.6960 N   0  0  0  0  0  0  0  0  0  0  0  0
    7.7080   -3.1630   22.1700 C   0  0  0  0  0  0  0  0  0  0  0  0
    7.5650   -3.0260   23.6520 C   0  0  0  0  0  0  0  0  0  0  0  0
    6.2200   -3.6340   23.9660 C   0  0  0  0  0  0  0  0  0  0  0  0
    5.7450   -3.3170   25.3410 C   0  0  0  0  0  0  0  0  0  0  0  0
    4.6460   -3.7400   25.7460 O   0  0  0  0  0  0  0  0  0  0  0  0
    6.5020   -2.5050   26.2250 N   0  0  0  0  0  0  0  0  0  0  0  0
    5.6930   -1.7900   27.1860 C   0  0  2  0  0  0  0  0  0  0  0  0
    6.0190   -0.5020   27.3900 C   0  0  0  0  0  0  0  0  0  0  0  0
    6.3440   -1.3080   28.5340 C   0  0  2  0  0  0  0  0  0  0  0  0
    7.6100   -1.5350   29.0150 C   0  0  0  0  0  0  0  0  0  0  0  0
    5.4510   -0.9280   29.7450 C   0  0  0  0  0  0  0  0  0  0  0  0
    4.2750   -1.7200   30.1000 C   0  0  0  0  0  0  0  0  0  0  0  0
    3.4580   -1.4300   31.1660 C   0  0  0  0  0  0  0  0  0  0  0  0
    3.7650   -0.3390   31.9400 C   0  0  0  0  0  0  0  0  0  0  0  0
    4.8630    0.4690   31.6740 C   0  0  0  0  0  0  0  0  0  0  0  0
    5.7420    0.1710   30.5390 C   0  0  0  0  0  0  0  0  0  0  0  0
    6.1490   -5.1280   23.7070 C   0  0  0  0  0  0  0  0  0  0  0  0
    6.6960   -5.4210   22.4500 C   0  0  0  0  0  0  0  0  0  0  0  0
  1  2  1  0
  2  3  2  0
  2  4  1  0
  4  5  1  0
  5  6  1  0
  6  7  1  0
  7  8  1  0
  8  9  2  0
  8 10  1  0
 11 10  1  6
 11 12  1  0
 11 13  1  0
 12 13  1  0
 13 14  1  1
 13 15  1  0
 15 16  2  0
 16 17  1  0
 17 18  2  0
 18 19  1  0
 15 20  1  0
 19 20  2  0
  7 21  1  0
  4 22  1  0
 21 22  1  0
M  END
