piperidine-amides-7069-covalent
     RDKit          3D

 22 22  0  0  0  0  0  0  0  0999 V2000
    7.1140   -3.2860   19.2630 C   0  0  0  0  0  0  0  0  0  0  0  0
    6.4120   -4.1130   20.2510 C   0  0  0  0  0  0  0  0  0  0  0  0
    5.3600   -4.7190   19.9490 O   0  0  0  0  0  0  0  0  0  0  0  0
    6.9580   -4.2740   21.5320 N   0  0  0  0  0  0  0  0  0  0  0  0
    6.6820   -5.4700   22.2800 C   0  0  0  0  0  0  0  0  0  0  0  0
    5.6950   -5.0770   23.3850 C   0  0  0  0  0  0  0  0  0  0  0  0
    6.2690   -3.8980   24.1580 C   0  0  0  0  0  0  0  0  0  0  0  0
    5.1540   -3.3580   24.9520 C   0  0  0  0  0  0  0  0  0  0  0  0
    3.9970   -3.4800   24.5090 O   0  0  0  0  0  0  0  0  0  0  0  0
    5.3800   -2.7180   26.1720 N   0  0  0  0  0  0  0  0  0  0  0  0
    6.3410   -3.2240   27.0660 C   0  0  2  0  0  0  0  0  0  0  0  0
    5.6850   -4.2340   27.9800 C   0  0  0  0  0  0  0  0  0  0  0  0
    4.7310   -3.7480   28.9090 O   0  0  0  0  0  0  0  0  0  0  0  0
    6.0900   -5.5930   27.8270 N   0  0  0  0  0  0  0  0  0  0  0  0
    5.6210   -6.6870   28.6630 C   0  0  0  0  0  0  0  0  0  0  0  0
    7.2960   -5.7440   27.1690 C   0  0  0  0  0  0  0  0  0  0  0  0
    8.2070   -5.9630   28.1640 C   0  0  0  0  0  0  0  0  0  0  0  0
    6.8000   -2.0240   27.8030 C   0  0  0  0  0  0  0  0  0  0  0  0
    7.0020   -1.9600   29.2880 C   0  0  0  0  0  0  0  0  0  0  0  0
    5.8840   -1.2260   28.6520 C   0  0  0  0  0  0  0  0  0  0  0  0
    6.7950   -2.7830   23.3420 C   0  0  0  0  0  0  0  0  0  0  0  0
    7.5880   -3.1910   22.1970 C   0  0  0  0  0  0  0  0  0  0  0  0
  1  2  1  0
  2  3  2  0
  2  4  1  0
  4  5  1  0
  5  6  1  0
  6  7  1  0
  7  8  1  0
  8  9  2  0
  8 10  1  0
 11 10  1  6
 11 12  1  0
 12 13  2  0
 12 14  1  0
 14 15  1  0
 14 16  1  0
 16 17  1  0
 11 18  1  0
 18 19  1  0
 18 20  1  0
  7 21  1  0
  4 22  1  0
 21 22  1  0
M  END
