piperidine-amides-26187-covalent
     RDKit          3D

 25 26  0  0  0  0  0  0  0  0999 V2000
    7.1410   -3.2730   19.2130 C   0  0  0  0  0  0  0  0  0  0  0  0
    6.4050   -4.0100   20.2380 C   0  0  0  0  0  0  0  0  0  0  0  0
    5.3530   -4.5970   19.9170 O   0  0  0  0  0  0  0  0  0  0  0  0
    6.8910   -4.1150   21.5540 N   0  0  0  0  0  0  0  0  0  0  0  0
    7.7880   -3.1090   22.1260 C   0  0  0  0  0  0  0  0  0  0  0  0
    7.3420   -2.8160   23.5400 C   0  0  0  0  0  0  0  0  0  0  0  0
    6.0550   -3.5060   23.8490 C   0  0  0  0  0  0  0  0  0  0  0  0
    5.5450   -3.2670   25.2250 C   0  0  0  0  0  0  0  0  0  0  0  0
    4.3050   -3.0920   25.4020 O   0  0  0  0  0  0  0  0  0  0  0  0
    6.3420   -3.1920   26.3870 N   0  0  0  0  0  0  0  0  0  0  0  0
    6.7000   -1.8380   26.8690 C   0  0  0  0  0  0  0  0  0  0  0  0
    6.1350   -4.2090   27.4470 C   0  0  0  0  0  0  0  0  0  0  0  0
    4.7280   -4.5730   27.6220 C   0  0  2  0  0  0  0  0  0  0  0  0
    4.6500   -5.2750   28.6400 O   0  0  0  0  0  0  0  0  0  0  0  0
    5.3970   -6.4450   28.4990 C   0  0  0  0  0  0  0  0  0  0  0  0
    6.6420   -6.3580   29.3220 C   0  0  0  0  0  0  0  0  0  0  0  0
    4.5350   -7.6110   28.9960 C   0  0  0  0  0  0  0  0  0  0  0  0
    4.1730   -5.4140   26.6610 C   0  0  0  0  0  0  0  0  0  0  0  0
    2.7670   -5.7860   26.6270 C   0  0  0  0  0  0  0  0  0  0  0  0
    2.0780   -6.7200   25.6030 C   0  0  0  0  0  0  0  0  0  0  0  0
    3.0060   -7.2710   24.5610 C   0  0  0  0  0  0  0  0  0  0  0  0
    4.2860   -6.6870   24.9190 C   0  0  0  0  0  0  0  0  0  0  0  0
    4.9130   -6.0020   25.6300 C   0  0  0  0  0  0  0  0  0  0  0  0
    6.0580   -4.9480   23.5570 C   0  0  0  0  0  0  0  0  0  0  0  0
    6.6160   -5.2600   22.3520 C   0  0  0  0  0  0  0  0  0  0  0  0
  1  2  1  0
  2  3  2  0
  2  4  1  0
  4  5  1  0
  5  6  1  0
  6  7  1  0
  7  8  1  0
  8  9  2  0
  8 10  1  0
 10 11  1  0
 10 12  1  0
 13 12  1  6
 13 14  1  0
 14 15  1  0
 15 16  1  0
 15 17  1  0
 13 18  1  0
 18 19  2  0
 19 20  1  0
 20 21  2  0
 21 22  1  0
 18 23  1  0
 22 23  2  0
  7 24  1  0
  4 25  1  0
 24 25  1  0
M  END
