piperidine-amides-28617-covalent
     RDKit          3D

 26 28  0  0  0  0  0  0  0  0999 V2000
    7.0190   -3.3760   19.4010 C   0  0  0  0  0  0  0  0  0  0  0  0
    6.3800   -4.2610   20.3770 C   0  0  0  0  0  0  0  0  0  0  0  0
    5.3910   -4.9130   19.9950 O   0  0  0  0  0  0  0  0  0  0  0  0
    6.9000   -4.3960   21.6940 N   0  0  0  0  0  0  0  0  0  0  0  0
    6.5700   -5.5850   22.4460 C   0  0  0  0  0  0  0  0  0  0  0  0
    6.3760   -5.2700   23.9170 C   0  0  0  0  0  0  0  0  0  0  0  0
    6.2040   -3.7750   24.0350 C   0  0  0  0  0  0  0  0  0  0  0  0
    5.6820   -3.2530   25.3600 C   0  0  0  0  0  0  0  0  0  0  0  0
    5.0800   -2.1930   25.2490 O   0  0  0  0  0  0  0  0  0  0  0  0
    5.8040   -3.8890   26.6030 N   0  0  0  0  0  0  0  0  0  0  0  0
    4.7010   -3.6640   27.4880 C   0  0  0  0  0  0  0  0  0  0  0  0
    4.4710   -4.5930   28.5190 C   0  0  0  0  0  0  0  0  0  0  0  0
    5.5110   -4.9260   29.3260 C   0  0  0  0  0  0  0  0  0  0  0  0
    5.2140   -5.9910   30.1870 C   0  0  0  0  0  0  0  0  0  0  0  0
    4.0810   -6.8380   29.9790 N   0  0  0  0  0  0  0  0  0  0  0  0
    3.9880   -7.8070   31.0280 C   0  0  0  0  0  0  0  0  0  0  0  0
    5.1590   -7.5150   31.9290 C   0  0  0  0  0  0  0  0  0  0  0  0
    5.3100   -8.3690   33.1400 C   0  0  0  0  0  0  0  0  0  0  0  0
    4.4280   -8.3640   34.0430 O   0  0  0  0  0  0  0  0  0  0  0  0
    6.4090   -9.1760   33.3060 O   0  0  0  0  0  0  0  0  0  0  0  0
    6.3310  -10.3860   34.0350 C   0  0  0  0  0  0  0  0  0  0  0  0
    5.8810   -6.4270   31.3880 O   0  0  0  0  0  0  0  0  0  0  0  0
    6.6520   -4.8980   28.5950 C   0  0  0  0  0  0  0  0  0  0  0  0
    6.4630   -3.7280   27.8710 C   0  0  0  0  0  0  0  0  0  0  0  0
    7.5200   -3.1630   23.7020 C   0  0  0  0  0  0  0  0  0  0  0  0
    7.6870   -3.2970   22.2210 C   0  0  0  0  0  0  0  0  0  0  0  0
  1  2  1  0
  2  3  2  0
  2  4  1  0
  4  5  1  0
  5  6  1  0
  6  7  1  0
  7  8  1  0
  8  9  2  0
  8 10  1  0
 10 11  1  0
 11 12  1  0
 12 13  1  0
 13 14  1  0
 14 15  2  0
 15 16  1  0
 16 17  2  0
 17 18  1  0
 18 19  2  0
 18 20  1  0
 20 21  1  0
 14 22  1  0
 17 22  1  0
 13 23  1  0
 10 24  1  0
 23 24  1  0
  7 25  1  0
  4 26  1  0
 25 26  1  0
M  END
