piperidine-amides-13755-covalent
     RDKit          3D

 27 29  0  0  0  0  0  0  0  0999 V2000
    7.0340   -3.3230   19.3170 C   0  0  0  0  0  0  0  0  0  0  0  0
    6.3430   -4.1670   20.3310 C   0  0  0  0  0  0  0  0  0  0  0  0
    5.3710   -4.8560   19.9790 O   0  0  0  0  0  0  0  0  0  0  0  0
    6.8350   -4.1910   21.6580 N   0  0  0  0  0  0  0  0  0  0  0  0
    7.6850   -3.1410   22.1890 C   0  0  0  0  0  0  0  0  0  0  0  0
    7.5690   -3.0820   23.7200 C   0  0  0  0  0  0  0  0  0  0  0  0
    6.2200   -3.5890   24.0980 C   0  0  0  0  0  0  0  0  0  0  0  0
    5.8670   -3.4390   25.5350 C   0  0  0  0  0  0  0  0  0  0  0  0
    5.7900   -4.4770   26.1790 O   0  0  0  0  0  0  0  0  0  0  0  0
    5.5870   -2.1940   26.1070 N   0  0  0  0  0  0  0  0  0  0  0  0
    6.4180   -1.2660   26.7950 C   0  0  2  0  0  0  0  0  0  0  0  0
    6.9210   -1.4690   28.0690 C   0  0  0  0  0  0  0  0  0  0  0  0
    6.4920   -0.5030   28.9920 C   0  0  0  0  0  0  0  0  0  0  0  0
    5.7570    0.3920   28.1100 N   0  0  0  0  0  0  0  0  0  0  0  0
    4.7680    1.2350   28.5180 C   0  0  0  0  0  0  0  0  0  0  0  0
    3.3210    0.9350   28.5590 C   0  0  0  0  0  0  0  0  0  0  0  0
    2.2750    1.9500   29.0410 C   0  0  0  0  0  0  0  0  0  0  0  0
    2.8500    3.3100   29.4810 C   0  0  0  0  0  0  0  0  0  0  0  0
    4.2190    3.5380   29.4200 C   0  0  0  0  0  0  0  0  0  0  0  0
    5.1530    2.4890   28.9370 C   0  0  0  0  0  0  0  0  0  0  0  0
    6.3730    2.7730   28.9130 O   0  0  0  0  0  0  0  0  0  0  0  0
    6.6320    4.1210   29.0150 C   0  0  0  0  0  0  0  0  0  0  0  0
    6.5980    4.5390   30.3180 F   0  0  0  0  0  0  0  0  0  0  0  0
    7.8680    4.4110   28.4950 F   0  0  0  0  0  0  0  0  0  0  0  0
    5.8270   -0.0120   26.8330 C   0  0  0  0  0  0  0  0  0  0  0  0
    6.0130   -5.0310   23.7650 C   0  0  0  0  0  0  0  0  0  0  0  0
    6.6680   -5.3960   22.4540 C   0  0  0  0  0  0  0  0  0  0  0  0
  1  2  1  0
  2  3  2  0
  2  4  1  0
  4  5  1  0
  5  6  1  0
  6  7  1  0
  7  8  1  0
  8  9  2  0
  8 10  1  0
 11 10  1  1
 11 12  1  0
 12 13  1  0
 13 14  1  0
 14 15  1  0
 15 16  2  0
 16 17  1  0
 17 18  2  0
 18 19  1  0
 15 20  1  0
 19 20  2  0
 20 21  1  0
 21 22  1  0
 22 23  1  0
 22 24  1  0
 11 25  1  0
 14 25  1  0
  7 26  1  0
  4 27  1  0
 26 27  1  0
M  END
