piperidine-amides-31926-covalent
     RDKit          3D

 28 31  0  0  0  0  0  0  0  0999 V2000
    7.0780   -3.4000   19.2960 C   0  0  0  0  0  0  0  0  0  0  0  0
    6.4250   -4.1630   20.3340 C   0  0  0  0  0  0  0  0  0  0  0  0
    5.4020   -4.8380   19.9940 O   0  0  0  0  0  0  0  0  0  0  0  0
    6.9110   -4.2300   21.6640 N   0  0  0  0  0  0  0  0  0  0  0  0
    6.7790   -5.5720   22.3220 C   0  0  0  0  0  0  0  0  0  0  0  0
    6.3080   -5.2400   23.8000 C   0  0  0  0  0  0  0  0  0  0  0  0
    6.4590   -3.7590   23.9100 C   0  0  0  0  0  0  0  0  0  0  0  0
    5.6420   -3.0490   25.0560 C   0  0  0  0  0  0  0  0  0  0  0  0
    4.7070   -2.4590   24.5400 O   0  0  0  0  0  0  0  0  0  0  0  0
    6.0840   -3.2270   26.2300 N   0  0  0  0  0  0  0  0  0  0  0  0
    6.3920   -2.9280   27.4710 C   0  0  0  0  0  0  0  0  0  0  0  0
    5.4310   -2.9470   28.3280 C   0  0  2  0  0  0  0  0  0  0  0  0
    5.5050   -3.6440   29.4790 C   0  0  0  0  0  0  0  0  0  0  0  0
    4.1530   -3.6780   29.8850 O   0  0  0  0  0  0  0  0  0  0  0  0
    3.3310   -2.9760   28.9810 C   0  0  0  0  0  0  0  0  0  0  0  0
    3.6890   -3.0890   27.4630 C   0  0  0  0  0  0  0  0  0  0  0  0
    4.6070   -4.1050   27.7090 C   0  0  2  0  0  0  0  0  0  0  0  0
    3.9220   -5.1990   28.3000 C   0  0  0  0  0  0  0  0  0  0  0  0
    2.7190   -5.6120   27.7440 O   0  0  0  0  0  0  0  0  0  0  0  0
    4.4100   -5.8150   29.3600 N   0  0  0  0  0  0  0  0  0  0  0  0
    4.3780   -7.2450   29.4560 C   0  0  0  0  0  0  0  0  0  0  0  0
    5.8680   -7.6840   29.5760 C   0  0  0  0  0  0  0  0  0  0  0  0
    6.6820   -6.8940   28.7760 C   0  0  0  0  0  0  0  0  0  0  0  0
    6.5670   -5.5930   28.9710 C   0  0  0  0  0  0  0  0  0  0  0  0
    5.6140   -5.3590   29.8630 C   0  0  0  0  0  0  0  0  0  0  0  0
    5.4550   -4.4670   26.6400 C   0  0  0  0  0  0  0  0  0  0  0  0
    7.7500   -3.1620   23.5780 C   0  0  0  0  0  0  0  0  0  0  0  0
    7.8690   -3.2100   22.1030 C   0  0  0  0  0  0  0  0  0  0  0  0
  1  2  1  0
  2  3  2  0
  2  4  1  0
  4  5  1  0
  5  6  1  0
  6  7  1  0
  7  8  1  0
  8  9  2  0
  8 10  1  0
 10 11  1  0
 12 11  1  6
 12 13  1  0
 13 14  1  0
 14 15  1  0
 15 16  1  0
 12 17  1  0
 16 17  1  0
 17 18  1  1
 18 19  2  0
 18 20  1  0
 20 21  1  0
 21 22  1  0
 22 23  1  0
 23 24  1  0
 20 25  1  0
 24 25  1  0
 10 26  1  0
 17 26  1  0
  7 27  1  0
  4 28  1  0
 27 28  1  0
M  END
