piperidine-amides-26103-covalent
     RDKit          3D

 25 27  0  0  0  0  0  0  0  0999 V2000
    7.0050   -3.3720   19.3980 C   0  0  0  0  0  0  0  0  0  0  0  0
    6.3540   -4.2370   20.3920 C   0  0  0  0  0  0  0  0  0  0  0  0
    5.4100   -4.9490   20.0060 O   0  0  0  0  0  0  0  0  0  0  0  0
    6.7890   -4.3110   21.7370 N   0  0  0  0  0  0  0  0  0  0  0  0
    6.6910   -5.5490   22.5020 C   0  0  0  0  0  0  0  0  0  0  0  0
    6.1320   -5.2040   23.8680 C   0  0  0  0  0  0  0  0  0  0  0  0
    6.0940   -3.7250   24.0690 C   0  0  0  0  0  0  0  0  0  0  0  0
    5.5970   -3.2230   25.3950 C   0  0  0  0  0  0  0  0  0  0  0  0
    5.1340   -2.0530   25.4480 O   0  0  0  0  0  0  0  0  0  0  0  0
    5.5360   -3.9270   26.6330 N   0  0  0  0  0  0  0  0  0  0  0  0
    4.2090   -4.1550   27.2130 C   0  0  0  0  0  0  0  0  0  0  0  0
    4.3720   -4.2630   28.6950 C   0  0  0  0  0  0  0  0  0  0  0  0
    5.1790   -5.3040   28.9600 N   0  0  0  0  0  0  0  0  0  0  0  0
    5.1530   -6.1160   30.1140 C   0  0  0  0  0  0  0  0  0  0  0  0
    6.0000   -7.1770   30.1280 N   0  0  0  0  0  0  0  0  0  0  0  0
    6.0040   -7.9390   31.2020 N   0  0  0  0  0  0  0  0  0  0  0  0
    5.2160   -7.7820   32.3630 C   0  0  0  0  0  0  0  0  0  0  0  0
    5.2630   -8.6880   33.5760 C   0  0  0  0  0  0  0  0  0  0  0  0
    4.3150   -6.5790   32.2270 C   0  0  0  0  0  0  0  0  0  0  0  0
    3.4930   -6.3080   33.2840 C   0  0  0  0  0  0  0  0  0  0  0  0
    4.3090   -5.8040   31.1340 N   0  0  0  0  0  0  0  0  0  0  0  0
    6.5270   -5.0380   28.4980 C   0  0  0  0  0  0  0  0  0  0  0  0
    6.3260   -3.7300   27.7520 C   0  0  0  0  0  0  0  0  0  0  0  0
    7.3920   -3.0540   23.7250 C   0  0  0  0  0  0  0  0  0  0  0  0
    7.6670   -3.2640   22.2560 C   0  0  0  0  0  0  0  0  0  0  0  0
  1  2  1  0
  2  3  2  0
  2  4  1  0
  4  5  1  0
  5  6  1  0
  6  7  1  0
  7  8  1  0
  8  9  2  0
  8 10  1  0
 10 11  1  0
 11 12  1  0
 12 13  1  0
 13 14  1  0
 14 15  2  0
 15 16  1  0
 16 17  2  0
 17 18  1  0
 17 19  1  0
 19 20  1  0
 14 21  1  0
 19 21  2  0
 13 22  1  0
 10 23  1  0
 22 23  1  0
  7 24  1  0
  4 25  1  0
 24 25  1  0
M  END
