piperidine-amides-34172-covalent
     RDKit          3D

 26 28  0  0  0  0  0  0  0  0999 V2000
    7.0620   -3.3280   19.3340 C   0  0  0  0  0  0  0  0  0  0  0  0
    6.4030   -4.1900   20.3280 C   0  0  0  0  0  0  0  0  0  0  0  0
    5.4050   -4.8680   19.9920 O   0  0  0  0  0  0  0  0  0  0  0  0
    6.9150   -4.2950   21.6360 N   0  0  0  0  0  0  0  0  0  0  0  0
    6.5220   -5.4000   22.4710 C   0  0  0  0  0  0  0  0  0  0  0  0
    5.6520   -4.7980   23.5900 C   0  0  0  0  0  0  0  0  0  0  0  0
    6.4700   -3.7440   24.3240 C   0  0  0  0  0  0  0  0  0  0  0  0
    5.6530   -3.1720   25.4350 C   0  0  0  0  0  0  0  0  0  0  0  0
    4.4550   -2.9310   25.1700 O   0  0  0  0  0  0  0  0  0  0  0  0
    6.1800   -2.9110   26.7420 N   0  0  0  0  0  0  0  0  0  0  0  0
    6.1140   -3.9540   27.7380 C   0  0  0  0  0  0  0  0  0  0  0  0
    4.7080   -4.0390   28.2990 C   0  0  0  0  0  0  0  0  0  0  0  0
    3.7450   -4.9800   27.9630 C   0  0  0  0  0  0  0  0  0  0  0  0
    2.4860   -4.9970   28.5200 C   0  0  0  0  0  0  0  0  0  0  0  0
    2.0860   -4.0690   29.4650 C   0  0  0  0  0  0  0  0  0  0  0  0
    2.9060   -3.0820   29.9050 C   0  0  0  0  0  0  0  0  0  0  0  0
    2.2860   -1.8540   31.1960 Br  0  0  0  0  0  0  0  0  0  0  0  0
    4.3000   -2.9960   29.3410 C   0  0  0  0  0  0  0  0  0  0  0  0
    6.0920   -1.5960   27.4160 C   0  0  0  0  0  0  0  0  0  0  0  0
    7.2920   -1.5650   28.3340 C   0  0  0  0  0  0  0  0  0  0  0  0
    6.3620   -0.5970   28.8480 C   0  0  0  0  0  0  0  0  0  0  0  0
    6.6440    0.5830   28.5860 O   0  0  0  0  0  0  0  0  0  0  0  0
    6.0510    0.7750   27.3480 C   0  0  0  0  0  0  0  0  0  0  0  0
    6.1190   -0.3590   26.5500 C   0  0  0  0  0  0  0  0  0  0  0  0
    6.8970   -2.6190   23.4000 C   0  0  0  0  0  0  0  0  0  0  0  0
    7.6370   -3.1910   22.2130 C   0  0  0  0  0  0  0  0  0  0  0  0
  1  2  1  0
  2  3  2  0
  2  4  1  0
  4  5  1  0
  5  6  1  0
  6  7  1  0
  7  8  1  0
  8  9  2  0
  8 10  1  0
 10 11  1  0
 11 12  1  0
 12 13  2  0
 13 14  1  0
 14 15  2  0
 15 16  1  0
 16 17  1  0
 12 18  1  0
 16 18  2  0
 10 19  1  0
 19 20  1  0
 20 21  1  0
 21 22  1  0
 22 23  1  0
 19 24  1  0
 23 24  1  0
  7 25  1  0
  4 26  1  0
 25 26  1  0
M  END
