piperidine-amides-23645-covalent
     RDKit          3D

 22 23  0  0  0  0  0  0  0  0999 V2000
    7.1140   -3.3600   19.2820 C   0  0  0  0  0  0  0  0  0  0  0  0
    6.3830   -4.1320   20.2900 C   0  0  0  0  0  0  0  0  0  0  0  0
    5.3060   -4.6640   19.9300 O   0  0  0  0  0  0  0  0  0  0  0  0
    6.9280   -4.3210   21.5810 N   0  0  0  0  0  0  0  0  0  0  0  0
    6.5040   -5.4340   22.3520 C   0  0  0  0  0  0  0  0  0  0  0  0
    6.0530   -5.0970   23.7030 C   0  0  0  0  0  0  0  0  0  0  0  0
    6.7790   -4.0010   24.3880 C   0  0  0  0  0  0  0  0  0  0  0  0
    6.0800   -3.5510   25.6320 C   0  0  0  0  0  0  0  0  0  0  0  0
    5.0260   -2.8900   25.5150 O   0  0  0  0  0  0  0  0  0  0  0  0
    6.5550   -3.8610   26.9250 N   0  0  0  0  0  0  0  0  0  0  0  0
    5.9600   -3.4060   28.1120 C   0  0  0  0  0  0  0  0  0  0  0  0
    5.4410   -4.4140   29.0250 C   0  0  0  0  0  0  0  0  0  0  0  0
    6.0720   -5.5790   29.2870 N   0  0  0  0  0  0  0  0  0  0  0  0
    5.1350   -6.4630   30.3760 S   0  0  0  0  0  0  0  0  0  0  0  0
    3.8250   -5.3320   30.7390 C   0  0  0  0  0  0  0  0  0  0  0  0
    5.8810   -6.7300   31.6640 O   0  0  0  0  0  0  0  0  0  0  0  0
    4.6170   -7.7350   29.8160 O   0  0  0  0  0  0  0  0  0  0  0  0
    5.9260   -5.9380   27.8910 C   0  0  0  0  0  0  0  0  0  0  0  0
    7.0150   -5.2520   27.0910 C   0  0  2  0  0  0  0  0  0  0  0  0
    7.8600   -5.5190   28.2950 C   0  0  0  0  0  0  0  0  0  0  0  0
    6.9260   -2.8220   23.4310 C   0  0  0  0  0  0  0  0  0  0  0  0
    7.7080   -3.3050   22.2480 C   0  0  0  0  0  0  0  0  0  0  0  0
  1  2  1  0
  2  3  2  0
  2  4  1  0
  4  5  1  0
  5  6  1  0
  6  7  1  0
  7  8  1  0
  8  9  2  0
  8 10  1  0
 10 11  1  0
 11 12  1  0
 12 13  1  0
 13 14  1  0
 14 15  1  0
 14 16  2  0
 14 17  2  0
 13 18  1  0
 10 19  1  0
 18 19  1  0
 19 20  1  1
  7 21  1  0
  4 22  1  0
 21 22  1  0
M  END
