piperidine-amides-8601-covalent
     RDKit          3D

 23 25  0  0  0  0  0  0  0  0999 V2000
    7.0810   -3.2930   19.2310 C   0  0  0  0  0  0  0  0  0  0  0  0
    6.2730   -4.0600   20.1710 C   0  0  0  0  0  0  0  0  0  0  0  0
    5.1610   -4.4690   19.8230 O   0  0  0  0  0  0  0  0  0  0  0  0
    6.8030   -4.3680   21.4310 N   0  0  0  0  0  0  0  0  0  0  0  0
    7.1930   -3.2550   22.2080 C   0  0  0  0  0  0  0  0  0  0  0  0
    5.9810   -2.7100   22.8990 C   0  0  0  0  0  0  0  0  0  0  0  0
    5.2870   -3.8110   23.7140 C   0  0  0  0  0  0  0  0  0  0  0  0
    5.2330   -3.4160   25.1560 C   0  0  0  0  0  0  0  0  0  0  0  0
    4.8790   -4.2700   25.9580 O   0  0  0  0  0  0  0  0  0  0  0  0
    5.5650   -2.1210   25.4690 N   0  0  0  0  0  0  0  0  0  0  0  0
    6.8960   -1.7260   25.7040 C   0  0  0  0  0  0  0  0  0  0  0  0
    7.8610   -2.1820   24.7920 C   0  0  0  0  0  0  0  0  0  0  0  0
    7.8470   -3.4130   24.1480 C   0  0  0  0  0  0  0  0  0  0  0  0
    8.9410   -3.7410   23.2810 N   0  0  0  0  0  0  0  0  0  0  0  0
    9.8230   -2.6800   23.2960 C   0  0  0  0  0  0  0  0  0  0  0  0
   11.0430   -2.4610   22.7310 N   0  0  0  0  0  0  0  0  0  0  0  0
   12.1760   -2.5580   23.5430 C   0  0  0  0  0  0  0  0  0  0  0  0
   13.3400   -2.2730   22.7100 C   0  0  0  0  0  0  0  0  0  0  0  0
   12.7740   -2.0050   21.3720 C   0  0  0  0  0  0  0  0  0  0  0  0
   11.3960   -2.1360   21.4650 N   0  0  0  0  0  0  0  0  0  0  0  0
    9.2680   -1.3970   24.2680 S   0  0  0  0  0  0  0  0  0  0  0  0
    5.7930   -5.2010   23.4930 C   0  0  0  0  0  0  0  0  0  0  0  0
    6.3180   -5.5380   22.0820 C   0  0  0  0  0  0  0  0  0  0  0  0
  1  2  1  0
  2  3  2  0
  2  4  1  0
  4  5  1  0
  5  6  1  0
  6  7  1  0
  7  8  1  0
  8  9  2  0
  8 10  1  0
 10 11  1  0
 11 12  1  0
 12 13  2  0
 13 14  1  0
 14 15  2  0
 15 16  1  0
 16 17  1  0
 17 18  2  0
 18 19  1  0
 16 20  1  0
 19 20  2  0
 12 21  1  0
 15 21  1  0
  7 22  1  0
  4 23  1  0
 22 23  1  0
M  END
