piperidine-amides-10480-covalent
     RDKit          3D

 24 26  0  0  0  0  0  0  0  0999 V2000
    7.1010   -3.2840   19.2250 C   0  0  0  0  0  0  0  0  0  0  0  0
    6.3690   -4.0320   20.2510 C   0  0  0  0  0  0  0  0  0  0  0  0
    5.2820   -4.5510   19.8870 O   0  0  0  0  0  0  0  0  0  0  0  0
    6.8970   -4.1940   21.5390 N   0  0  0  0  0  0  0  0  0  0  0  0
    6.5980   -5.3420   22.3580 C   0  0  0  0  0  0  0  0  0  0  0  0
    5.9080   -4.8560   23.6040 C   0  0  0  0  0  0  0  0  0  0  0  0
    6.6270   -3.6920   24.2490 C   0  0  0  0  0  0  0  0  0  0  0  0
    5.8730   -3.2380   25.4390 C   0  0  0  0  0  0  0  0  0  0  0  0
    5.0970   -2.2630   25.3250 O   0  0  0  0  0  0  0  0  0  0  0  0
    5.9730   -3.8790   26.6810 N   0  0  0  0  0  0  0  0  0  0  0  0
    5.6180   -5.2730   26.7060 C   0  0  0  0  0  0  0  0  0  0  0  0
    5.3380   -5.8730   28.0710 C   0  0  0  0  0  0  0  0  0  0  0  0
    6.2310   -5.5170   29.1750 N   0  0  0  0  0  0  0  0  0  0  0  0
    5.7530   -6.1840   30.2370 N   0  0  0  0  0  0  0  0  0  0  0  0
    4.6690   -6.8920   29.8400 C   0  0  0  0  0  0  0  0  0  0  0  0
    4.4140   -6.7060   28.5380 N   0  0  0  0  0  0  0  0  0  0  0  0
    3.2770   -7.3970   27.9570 C   0  0  0  0  0  0  0  0  0  0  0  0
    2.2850   -7.8010   28.8520 C   0  0  0  0  0  0  0  0  0  0  0  0
    1.1690   -8.4670   28.3770 C   0  0  0  0  0  0  0  0  0  0  0  0
    0.9990   -8.7480   27.0450 C   0  0  0  0  0  0  0  0  0  0  0  0
    1.9940   -8.3640   25.9840 C   0  0  0  0  0  0  0  0  0  0  0  0
    3.1900   -7.6350   26.5900 C   0  0  0  0  0  0  0  0  0  0  0  0
    6.8480   -2.5490   23.2580 C   0  0  0  0  0  0  0  0  0  0  0  0
    7.6970   -3.1300   22.1480 C   0  0  0  0  0  0  0  0  0  0  0  0
  1  2  1  0
  2  3  2  0
  2  4  1  0
  4  5  1  0
  5  6  1  0
  6  7  1  0
  7  8  1  0
  8  9  2  0
  8 10  1  0
 10 11  1  0
 11 12  1  0
 12 13  2  0
 13 14  1  0
 14 15  2  0
 12 16  1  0
 15 16  1  0
 16 17  1  0
 17 18  2  0
 18 19  1  0
 19 20  2  0
 20 21  1  0
 17 22  1  0
 21 22  2  0
  7 23  1  0
  4 24  1  0
 23 24  1  0
M  END
