piperidine-amides-35301-covalent
     RDKit          3D

 28 30  0  0  0  0  0  0  0  0999 V2000
    7.0170   -3.3230   19.2880 C   0  0  0  0  0  0  0  0  0  0  0  0
    6.3260   -4.1460   20.3160 C   0  0  0  0  0  0  0  0  0  0  0  0
    5.3300   -4.7680   19.9560 O   0  0  0  0  0  0  0  0  0  0  0  0
    6.8340   -4.2290   21.6180 N   0  0  0  0  0  0  0  0  0  0  0  0
    7.6980   -3.2110   22.1630 C   0  0  0  0  0  0  0  0  0  0  0  0
    7.2180   -2.7990   23.5200 C   0  0  0  0  0  0  0  0  0  0  0  0
    6.9000   -4.0340   24.3650 C   0  0  0  0  0  0  0  0  0  0  0  0
    6.1550   -3.5770   25.5570 C   0  0  0  0  0  0  0  0  0  0  0  0
    4.9140   -3.6530   25.5650 O   0  0  0  0  0  0  0  0  0  0  0  0
    6.8270   -3.0280   26.6730 N   0  0  0  0  0  0  0  0  0  0  0  0
    7.3480   -3.9070   27.7070 C   0  0  0  0  0  0  0  0  0  0  0  0
    7.3560   -5.3330   27.2040 C   0  0  0  0  0  0  0  0  0  0  0  0
    8.3420   -5.5280   26.2660 O   0  0  0  0  0  0  0  0  0  0  0  0
    9.5780   -5.9180   26.5280 C   0  0  0  0  0  0  0  0  0  0  0  0
    6.4390   -1.7380   27.1190 C   0  0  0  0  0  0  0  0  0  0  0  0
    5.5340   -0.9070   26.3480 N   0  0  0  0  0  0  0  0  0  0  0  0
    5.2790    0.3290   26.9810 C   0  0  0  0  0  0  0  0  0  0  0  0
    4.3680    1.3910   26.3950 C   0  0  0  0  0  0  0  0  0  0  0  0
    3.4910    0.6640   25.4080 C   0  0  0  0  0  0  0  0  0  0  0  0
    2.4580    1.4750   24.6480 C   0  0  0  0  0  0  0  0  0  0  0  0
    2.4480    2.9300   24.9910 C   0  0  0  0  0  0  0  0  0  0  0  0
    3.3280    3.6210   25.9710 C   0  0  0  0  0  0  0  0  0  0  0  0
    3.1370    5.5030   26.2490 Br  0  0  0  0  0  0  0  0  0  0  0  0
    4.3690    2.8510   26.7490 C   0  0  0  0  0  0  0  0  0  0  0  0
    5.8700    0.5960   28.1720 C   0  0  0  0  0  0  0  0  0  0  0  0
    6.8160   -0.8000   28.5380 S   0  0  0  0  0  0  0  0  0  0  0  0
    6.0210   -5.0190   23.5930 C   0  0  0  0  0  0  0  0  0  0  0  0
    6.6230   -5.4210   22.4190 C   0  0  0  0  0  0  0  0  0  0  0  0
  1  2  1  0
  2  3  2  0
  2  4  1  0
  4  5  1  0
  5  6  1  0
  6  7  1  0
  7  8  1  0
  8  9  2  0
  8 10  1  0
 10 11  1  0
 11 12  1  0
 12 13  1  0
 13 14  1  0
 10 15  1  0
 15 16  2  0
 16 17  1  0
 17 18  1  0
 18 19  2  0
 19 20  1  0
 20 21  2  0
 21 22  1  0
 22 23  1  0
 18 24  1  0
 22 24  2  0
 17 25  2  0
 15 26  1  0
 25 26  1  0
  7 27  1  0
  4 28  1  0
 27 28  1  0
M  END
