piperidine-amides-21479-covalent
     RDKit          3D

 23 25  0  0  0  0  0  0  0  0999 V2000
    6.9770   -3.4050   19.4480 C   0  0  0  0  0  0  0  0  0  0  0  0
    6.3600   -4.3140   20.4260 C   0  0  0  0  0  0  0  0  0  0  0  0
    5.3750   -4.9710   19.9990 O   0  0  0  0  0  0  0  0  0  0  0  0
    6.8710   -4.4640   21.7250 N   0  0  0  0  0  0  0  0  0  0  0  0
    6.5360   -5.5880   22.5730 C   0  0  0  0  0  0  0  0  0  0  0  0
    6.3040   -5.0990   23.9990 C   0  0  0  0  0  0  0  0  0  0  0  0
    5.6910   -3.7170   24.0420 C   0  0  0  0  0  0  0  0  0  0  0  0
    5.2470   -3.2130   25.4070 C   0  0  0  0  0  0  0  0  0  0  0  0
    4.4730   -2.2400   25.3660 O   0  0  0  0  0  0  0  0  0  0  0  0
    5.5440   -3.6800   26.7340 N   0  0  0  0  0  0  0  0  0  0  0  0
    4.6380   -4.4890   27.4930 C   0  0  0  0  0  0  0  0  0  0  0  0
    5.4970   -4.7940   28.6730 C   0  0  0  0  0  0  0  0  0  0  0  0
    6.6470   -4.1000   28.5990 C   0  0  0  0  0  0  0  0  0  0  0  0
    6.7180   -3.2750   27.4900 C   0  0  1  0  0  0  0  0  0  0  0  0
    7.6020   -3.4900   26.5790 C   0  0  0  0  0  0  0  0  0  0  0  0
    7.8400   -2.5960   25.6440 N   0  0  0  0  0  0  0  0  0  0  0  0
    8.6780   -2.8080   24.6910 C   0  0  0  0  0  0  0  0  0  0  0  0
    9.3440   -3.9730   24.6250 C   0  0  0  0  0  0  0  0  0  0  0  0
    9.1540   -5.0600   25.6580 C   0  0  0  0  0  0  0  0  0  0  0  0
    9.7740   -6.2810   25.7100 O   0  0  0  0  0  0  0  0  0  0  0  0
    8.2360   -4.7470   26.6460 N   0  0  0  0  0  0  0  0  0  0  0  0
    6.5650   -2.6980   23.3690 C   0  0  0  0  0  0  0  0  0  0  0  0
    7.4800   -3.2730   22.3050 C   0  0  0  0  0  0  0  0  0  0  0  0
  1  2  1  0
  2  3  2  0
  2  4  1  0
  4  5  1  0
  5  6  1  0
  6  7  1  0
  7  8  1  0
  8  9  2  0
  8 10  1  0
 10 11  1  0
 11 12  1  0
 12 13  1  0
 10 14  1  0
 13 14  1  0
 14 15  1  6
 15 16  2  0
 16 17  1  0
 17 18  2  0
 18 19  1  0
 19 20  1  0
 15 21  1  0
 19 21  2  0
  7 22  1  0
  4 23  1  0
 22 23  1  0
M  END
