piperidine-amides-35608-covalent
     RDKit          3D

 35 38  0  0  0  0  0  0  0  0999 V2000
    7.0700   -3.3250   19.3070 C   0  0  0  0  0  0  0  0  0  0  0  0
    6.4000   -4.1970   20.3080 C   0  0  0  0  0  0  0  0  0  0  0  0
    5.3670   -4.7660   19.9560 O   0  0  0  0  0  0  0  0  0  0  0  0
    6.9640   -4.3920   21.5710 N   0  0  0  0  0  0  0  0  0  0  0  0
    6.6800   -5.5760   22.3280 C   0  0  0  0  0  0  0  0  0  0  0  0
    5.9900   -5.1740   23.5960 C   0  0  0  0  0  0  0  0  0  0  0  0
    6.7440   -4.0150   24.2520 C   0  0  0  0  0  0  0  0  0  0  0  0
    5.8940   -3.5070   25.3520 C   0  0  0  0  0  0  0  0  0  0  0  0
    4.9760   -2.7430   25.0150 O   0  0  0  0  0  0  0  0  0  0  0  0
    6.0090   -3.8050   26.7400 N   0  0  0  0  0  0  0  0  0  0  0  0
    6.1020   -5.0920   27.2190 C   0  0  0  0  0  0  0  0  0  0  0  0
    5.8110   -3.7660   27.6590 C   0  0  0  0  0  0  0  0  0  0  0  0
    5.4960   -2.7200   28.3130 C   0  0  0  0  0  0  0  0  0  0  0  0
    5.2040   -3.2400   29.3690 C   0  0  0  0  0  0  0  0  0  0  0  0
    4.6140   -2.0630   30.5300 S   0  0  0  0  0  0  0  0  0  0  0  0
    4.1160   -2.7160   31.7780 O   0  0  0  0  0  0  0  0  0  0  0  0
    3.5000   -1.2720   29.9020 O   0  0  0  0  0  0  0  0  0  0  0  0
    5.8580   -0.8740   30.8170 N   0  0  0  0  0  0  0  0  0  0  0  0
    6.8510   -0.5410   29.8240 C   0  0  0  0  0  0  0  0  0  0  0  0
    6.7820    0.9670   29.6510 C   0  0  0  0  0  0  0  0  0  0  0  0
    5.8090    1.5330   30.1630 O   0  0  0  0  0  0  0  0  0  0  0  0
    5.0990    1.0150   31.2660 C   0  0  0  0  0  0  0  0  0  0  0  0
    5.6520   -0.1460   32.0460 C   0  0  0  0  0  0  0  0  0  0  0  0
    5.3460   -4.6560   29.4740 C   0  0  0  0  0  0  0  0  0  0  0  0
    5.8360   -5.8440   28.4750 C   0  0  0  0  0  0  0  0  0  0  0  0
    5.3620   -5.5330   29.7120 N   0  0  0  0  0  0  0  0  0  0  0  0
    4.6160   -4.3910   29.1870 C   0  0  0  0  0  0  0  0  0  0  0  0
    3.4400   -3.8890   29.7870 O   0  0  0  0  0  0  0  0  0  0  0  0
    4.9180   -3.5870   27.8040 C   0  0  2  0  0  0  0  0  0  0  0  0
    3.6700   -3.5940   26.9320 C   0  0  0  0  0  0  0  0  0  0  0  0
    2.5080   -4.1310   27.4580 C   0  0  0  0  0  0  0  0  0  0  0  0
    1.0420   -4.5510   26.6910 S   0  0  0  0  0  0  0  0  0  0  0  0
    0.8250   -3.4810   25.2780 C   0  0  0  0  0  0  0  0  0  0  0  0
    6.9680   -2.8090   23.3410 C   0  0  0  0  0  0  0  0  0  0  0  0
    7.7560   -3.3280   22.1600 C   0  0  0  0  0  0  0  0  0  0  0  0
  1  2  1  0
  2  3  2  0
  2  4  1  0
  4  5  1  0
  5  6  1  0
  6  7  1  0
  7  8  1  0
  8  9  2  0
  8 10  1  0
 10 11  1  0
 11 12  2  0
 12 13  1  0
 13 14  2  0
 15 14  1  0
 15 16  2  0
 15 17  2  0
 15 18  1  0
 18 19  1  0
 19 20  1  0
 20 21  1  0
 21 22  1  0
 18 23  1  0
 22 23  1  0
 14 24  1  0
 11 25  1  0
 24 25  2  0
 25 26  1  0
 26 27  1  0
 27 28  2  0
 10 29  1  0
 27 29  1  0
 29 30  1  6
 30 31  1  0
 31 32  1  0
 32 33  1  0
  7 34  1  0
  4 35  1  0
 34 35  1  0
M  END
