piperidine-amides-4574-covalent
     RDKit          3D

 25 26  0  0  0  0  0  0  0  0999 V2000
    7.1800   -3.1780   19.0820 C   0  0  0  0  0  0  0  0  0  0  0  0
    6.3600   -3.8270   20.1270 C   0  0  0  0  0  0  0  0  0  0  0  0
    5.2680   -4.3140   19.7760 O   0  0  0  0  0  0  0  0  0  0  0  0
    6.7960   -3.9390   21.4480 N   0  0  0  0  0  0  0  0  0  0  0  0
    5.9530   -4.6770   22.2910 C   0  0  0  0  0  0  0  0  0  0  0  0
    5.1510   -3.8560   23.1930 C   0  0  0  0  0  0  0  0  0  0  0  0
    5.9150   -2.7710   23.8300 C   0  0  0  0  0  0  0  0  0  0  0  0
    5.6590   -2.7750   25.2990 C   0  0  0  0  0  0  0  0  0  0  0  0
    4.6050   -3.3120   25.6970 O   0  0  0  0  0  0  0  0  0  0  0  0
    6.5410   -2.1790   26.2280 N   0  0  0  0  0  0  0  0  0  0  0  0
    7.6970   -2.8950   26.8010 C   0  0  0  0  0  0  0  0  0  0  0  0
    7.3380   -3.7870   27.9370 C   0  0  0  0  0  0  0  0  0  0  0  0
    8.2020   -4.8650   28.1300 N   0  0  0  0  0  0  0  0  0  0  0  0
    7.9990   -5.8990   27.1840 C   0  0  0  0  0  0  0  0  0  0  0  0
    7.0530   -6.7220   27.3160 O   0  0  0  0  0  0  0  0  0  0  0  0
    8.9400   -5.7600   26.1890 C   0  0  0  0  0  0  0  0  0  0  0  0
    8.4870   -5.2780   24.9960 O   0  0  0  0  0  0  0  0  0  0  0  0
    7.2130   -5.6860   24.4960 C   0  0  0  0  0  0  0  0  0  0  0  0
    7.1640   -6.2090   23.2340 C   0  0  0  0  0  0  0  0  0  0  0  0
    5.9820   -6.6440   22.6890 C   0  0  0  0  0  0  0  0  0  0  0  0
    4.7890   -6.5810   23.3740 C   0  0  0  0  0  0  0  0  0  0  0  0
    4.7920   -6.0530   24.6580 C   0  0  0  0  0  0  0  0  0  0  0  0
    6.0620   -5.5870   25.2360 C   0  0  0  0  0  0  0  0  0  0  0  0
    7.3720   -2.8250   23.5180 C   0  0  0  0  0  0  0  0  0  0  0  0
    7.6680   -2.9280   22.0390 C   0  0  0  0  0  0  0  0  0  0  0  0
  1  2  1  0
  2  3  2  0
  2  4  1  0
  4  5  1  0
  5  6  1  0
  6  7  1  0
  7  8  1  0
  8  9  2  0
  8 10  1  0
 10 11  1  0
 11 12  1  0
 12 13  1  0
 13 14  1  0
 14 15  2  0
 14 16  1  0
 16 17  1  0
 17 18  1  0
 18 19  2  0
 19 20  1  0
 20 21  2  0
 21 22  1  0
 18 23  1  0
 22 23  2  0
  7 24  1  0
  4 25  1  0
 24 25  1  0
M  END
