piperidine-amides-35005-covalent
     RDKit          3D

 28 30  0  0  0  0  0  0  0  0999 V2000
    7.0470   -3.3300   19.3240 C   0  0  0  0  0  0  0  0  0  0  0  0
    6.3730   -4.1990   20.3240 C   0  0  0  0  0  0  0  0  0  0  0  0
    5.3640   -4.8010   19.9620 O   0  0  0  0  0  0  0  0  0  0  0  0
    6.9110   -4.3430   21.6060 N   0  0  0  0  0  0  0  0  0  0  0  0
    6.6310   -5.4890   22.4310 C   0  0  0  0  0  0  0  0  0  0  0  0
    5.8360   -5.0460   23.6320 C   0  0  0  0  0  0  0  0  0  0  0  0
    6.5230   -3.8460   24.2880 C   0  0  0  0  0  0  0  0  0  0  0  0
    5.6440   -3.3440   25.3810 C   0  0  0  0  0  0  0  0  0  0  0  0
    4.8700   -2.4170   25.1390 O   0  0  0  0  0  0  0  0  0  0  0  0
    5.6340   -3.8970   26.6900 N   0  0  0  0  0  0  0  0  0  0  0  0
    4.3670   -4.3260   27.2600 C   0  0  0  0  0  0  0  0  0  0  0  0
    4.3510   -4.3810   28.8070 C   0  0  0  0  0  0  0  0  0  0  0  0
    5.5010   -5.1360   29.3070 N   0  0  0  0  0  0  0  0  0  0  0  0
    5.2620   -6.8210   29.0370 S   0  0  0  0  0  0  0  0  0  0  0  0
    5.1690   -6.9720   27.5550 O   0  0  0  0  0  0  0  0  0  0  0  0
    6.4900   -7.5280   29.5140 O   0  0  0  0  0  0  0  0  0  0  0  0
    3.7630   -7.4490   29.8990 C   0  0  0  0  0  0  0  0  0  0  0  0
    2.8150   -7.6420   28.9650 C   0  0  0  0  0  0  0  0  0  0  0  0
    1.6410   -8.1030   29.3520 C   0  0  0  0  0  0  0  0  0  0  0  0
    0.3450   -8.3880   28.2040 Cl  0  0  0  0  0  0  0  0  0  0  0  0
    1.3180   -8.4170   30.7580 C   0  0  0  0  0  0  0  0  0  0  0  0
    2.4560   -8.1620   31.7150 C   0  0  0  0  0  0  0  0  0  0  0  0
    3.8800   -7.6250   31.4160 C   0  0  0  0  0  0  0  0  0  0  0  0
    5.1980   -7.3280   32.5300 Cl  0  0  0  0  0  0  0  0  0  0  0  0
    6.6500   -4.7390   28.5750 C   0  0  0  0  0  0  0  0  0  0  0  0
    6.3940   -3.4810   27.8310 C   0  0  0  0  0  0  0  0  0  0  0  0
    6.9590   -2.7750   23.3670 C   0  0  0  0  0  0  0  0  0  0  0  0
    7.7100   -3.2900   22.1970 C   0  0  0  0  0  0  0  0  0  0  0  0
  1  2  1  0
  2  3  2  0
  2  4  1  0
  4  5  1  0
  5  6  1  0
  6  7  1  0
  7  8  1  0
  8  9  2  0
  8 10  1  0
 10 11  1  0
 11 12  1  0
 12 13  1  0
 13 14  1  0
 14 15  2  0
 14 16  2  0
 14 17  1  0
 17 18  2  0
 18 19  1  0
 19 20  1  0
 19 21  2  0
 21 22  1  0
 17 23  1  0
 22 23  2  0
 23 24  1  0
 13 25  1  0
 10 26  1  0
 25 26  1  0
  7 27  1  0
  4 28  1  0
 27 28  1  0
M  END
