piperidine-amides-25747-covalent
     RDKit          3D

 25 27  0  0  0  0  0  0  0  0999 V2000
    7.0870   -3.3310   19.3440 C   0  0  0  0  0  0  0  0  0  0  0  0
    6.3500   -4.1450   20.3420 C   0  0  0  0  0  0  0  0  0  0  0  0
    5.3450   -4.7360   19.9510 O   0  0  0  0  0  0  0  0  0  0  0  0
    6.8380   -4.2490   21.6510 N   0  0  0  0  0  0  0  0  0  0  0  0
    6.6520   -5.4500   22.4250 C   0  0  0  0  0  0  0  0  0  0  0  0
    6.0110   -5.0770   23.7330 C   0  0  0  0  0  0  0  0  0  0  0  0
    6.0640   -3.5560   23.8700 C   0  0  0  0  0  0  0  0  0  0  0  0
    5.6970   -3.1540   25.2400 C   0  0  0  0  0  0  0  0  0  0  0  0
    4.4990   -3.0220   25.5260 O   0  0  0  0  0  0  0  0  0  0  0  0
    6.6730   -2.9150   26.2290 N   0  0  0  0  0  0  0  0  0  0  0  0
    6.5470   -1.6700   26.9640 C   0  0  0  0  0  0  0  0  0  0  0  0
    7.2150   -1.6940   28.3150 C   0  0  0  0  0  0  0  0  0  0  0  0
    7.2160   -0.6550   29.1790 C   0  0  0  0  0  0  0  0  0  0  0  0
    6.5780    0.4650   28.7910 C   0  0  0  0  0  0  0  0  0  0  0  0
    6.5770    1.5280   29.6730 O   0  0  0  0  0  0  0  0  0  0  0  0
    6.3910    1.1260   30.9780 C   0  0  0  0  0  0  0  0  0  0  0  0
    5.9100    0.6030   27.5190 C   0  0  0  0  0  0  0  0  0  0  0  0
    5.8090   -0.4510   26.4410 C   0  0  0  0  0  0  0  0  0  0  0  0
    7.0290   -4.0360   27.0470 C   0  0  1  0  0  0  0  0  0  0  0  0
    6.0070   -5.1190   27.1580 C   0  0  0  0  0  0  0  0  0  0  0  0
    8.3110   -4.7840   26.8540 C   0  0  0  0  0  0  0  0  0  0  0  0
    8.0120   -6.0690   27.1790 C   0  0  0  0  0  0  0  0  0  0  0  0
    8.9850   -5.4850   28.1410 C   0  0  0  0  0  0  0  0  0  0  0  0
    7.4540   -3.0400   23.5480 C   0  0  0  0  0  0  0  0  0  0  0  0
    7.7050   -3.2070   22.2010 C   0  0  0  0  0  0  0  0  0  0  0  0
  1  2  1  0
  2  3  2  0
  2  4  1  0
  4  5  1  0
  5  6  1  0
  6  7  1  0
  7  8  1  0
  8  9  2  0
  8 10  1  0
 10 11  1  0
 11 12  2  0
 12 13  1  0
 13 14  2  0
 14 15  1  0
 15 16  1  0
 14 17  1  0
 11 18  1  0
 17 18  2  0
 10 19  1  0
 19 20  1  6
 19 21  1  0
 21 22  1  0
 21 23  1  0
 22 23  1  0
  7 24  1  0
  4 25  1  0
 24 25  1  0
M  END
