piperidine-amides-5147-covalent
     RDKit          3D

 22 23  0  0  0  0  0  0  0  0999 V2000
    7.1130   -3.2770   19.2100 C   0  0  0  0  0  0  0  0  0  0  0  0
    6.3920   -4.0510   20.2480 C   0  0  0  0  0  0  0  0  0  0  0  0
    5.3210   -4.5870   19.9030 O   0  0  0  0  0  0  0  0  0  0  0  0
    6.9370   -4.1980   21.5340 N   0  0  0  0  0  0  0  0  0  0  0  0
    7.5830   -3.0900   22.1500 C   0  0  0  0  0  0  0  0  0  0  0  0
    6.9510   -2.7070   23.4040 C   0  0  0  0  0  0  0  0  0  0  0  0
    6.6220   -3.8520   24.2770 C   0  0  0  0  0  0  0  0  0  0  0  0
    5.8360   -3.3620   25.4330 C   0  0  0  0  0  0  0  0  0  0  0  0
    4.7400   -2.8190   25.1960 O   0  0  0  0  0  0  0  0  0  0  0  0
    6.2960   -3.4840   26.7670 N   0  0  0  0  0  0  0  0  0  0  0  0
    6.8640   -4.7400   27.3260 C   0  0  0  0  0  0  0  0  0  0  0  0
    5.8550   -5.7940   27.6000 C   0  0  0  0  0  0  0  0  0  0  0  0
    4.4470   -5.5210   27.3200 C   0  0  0  0  0  0  0  0  0  0  0  0
    3.7760   -4.6330   28.1690 C   0  0  0  0  0  0  0  0  0  0  0  0
    3.2700   -5.0410   29.3970 C   0  0  0  0  0  0  0  0  0  0  0  0
    2.7980   -6.6910   29.4680 S   0  0  0  0  0  0  0  0  0  0  0  0
    3.4660   -7.3750   30.5960 O   0  0  0  0  0  0  0  0  0  0  0  0
    1.3190   -6.7380   29.5480 O   0  0  0  0  0  0  0  0  0  0  0  0
    3.3350   -7.4600   27.9970 C   0  0  0  0  0  0  0  0  0  0  0  0
    3.7470   -6.6570   26.9750 C   0  0  0  0  0  0  0  0  0  0  0  0
    5.9730   -4.9940   23.5650 C   0  0  0  0  0  0  0  0  0  0  0  0
    6.5980   -5.3360   22.3540 C   0  0  0  0  0  0  0  0  0  0  0  0
  1  2  1  0
  2  3  2  0
  2  4  1  0
  4  5  1  0
  5  6  1  0
  6  7  1  0
  7  8  1  0
  8  9  2  0
  8 10  1  0
 10 11  1  0
 11 12  1  0
 12 13  1  0
 13 14  1  0
 14 15  1  0
 16 15  1  0
 16 17  2  0
 16 18  2  0
 16 19  1  0
 13 20  1  0
 19 20  1  0
  7 21  1  0
  4 22  1  0
 21 22  1  0
M  END
