piperidine-amides-25479-covalent
     RDKit          3D

 25 27  0  0  0  0  0  0  0  0999 V2000
    7.0640   -3.3090   19.2440 C   0  0  0  0  0  0  0  0  0  0  0  0
    6.3520   -4.1260   20.2630 C   0  0  0  0  0  0  0  0  0  0  0  0
    5.2980   -4.6530   19.9150 O   0  0  0  0  0  0  0  0  0  0  0  0
    6.8940   -4.3190   21.5310 N   0  0  0  0  0  0  0  0  0  0  0  0
    6.4380   -5.4010   22.3620 C   0  0  0  0  0  0  0  0  0  0  0  0
    5.6060   -4.8240   23.4730 C   0  0  0  0  0  0  0  0  0  0  0  0
    6.4480   -3.7860   24.2080 C   0  0  0  0  0  0  0  0  0  0  0  0
    5.7360   -3.3230   25.4190 C   0  0  0  0  0  0  0  0  0  0  0  0
    4.5180   -3.1100   25.3460 O   0  0  0  0  0  0  0  0  0  0  0  0
    6.4010   -3.1300   26.6530 N   0  0  0  0  0  0  0  0  0  0  0  0
    6.4340   -4.2640   27.5490 C   0  0  0  0  0  0  0  0  0  0  0  0
    6.3780   -1.8190   27.2320 C   0  0  0  0  0  0  0  0  0  0  0  0
    7.0460   -1.6190   28.4240 C   0  0  0  0  0  0  0  0  0  0  0  0
    7.0890   -0.3890   29.0950 C   0  0  0  0  0  0  0  0  0  0  0  0
    6.4780    0.8230   28.6910 C   0  0  0  0  0  0  0  0  0  0  0  0
    6.3730    2.0860   29.1430 O   0  0  0  0  0  0  0  0  0  0  0  0
    5.5980    2.6690   28.1550 C   0  0  0  0  0  0  0  0  0  0  0  0
    5.2070    4.1080   28.2350 C   0  0  0  0  0  0  0  0  0  0  0  0
    3.7190    3.9930   28.0400 C   0  0  0  0  0  0  0  0  0  0  0  0
    5.2650    4.5260   29.6830 C   0  0  0  0  0  0  0  0  0  0  0  0
    5.1550    1.9540   27.0680 N   0  0  0  0  0  0  0  0  0  0  0  0
    5.7440    0.7250   27.4320 C   0  0  0  0  0  0  0  0  0  0  0  0
    5.7180   -0.5730   26.7510 C   0  0  0  0  0  0  0  0  0  0  0  0
    6.7900   -2.6520   23.2820 C   0  0  0  0  0  0  0  0  0  0  0  0
    7.6270   -3.2550   22.1920 C   0  0  0  0  0  0  0  0  0  0  0  0
  1  2  1  0
  2  3  2  0
  2  4  1  0
  4  5  1  0
  5  6  1  0
  6  7  1  0
  7  8  1  0
  8  9  2  0
  8 10  1  0
 10 11  1  0
 10 12  1  0
 12 13  2  0
 13 14  1  0
 14 15  2  0
 15 16  1  0
 16 17  1  0
 17 18  1  0
 18 19  1  0
 18 20  1  0
 17 21  2  0
 15 22  1  0
 21 22  1  0
 12 23  1  0
 22 23  2  0
  7 24  1  0
  4 25  1  0
 24 25  1  0
M  END
