piperidine-amides-34895-covalent
     RDKit          3D

 32 34  0  0  0  0  0  0  0  0999 V2000
    7.0210   -3.3560   19.3570 C   0  0  0  0  0  0  0  0  0  0  0  0
    6.3820   -4.2410   20.3670 C   0  0  0  0  0  0  0  0  0  0  0  0
    5.3920   -4.8660   19.9870 O   0  0  0  0  0  0  0  0  0  0  0  0
    6.9090   -4.3890   21.6650 N   0  0  0  0  0  0  0  0  0  0  0  0
    6.6240   -5.5490   22.4550 C   0  0  0  0  0  0  0  0  0  0  0  0
    5.8150   -5.1380   23.6580 C   0  0  0  0  0  0  0  0  0  0  0  0
    6.3560   -3.8400   24.2840 C   0  0  0  0  0  0  0  0  0  0  0  0
    5.3380   -3.3630   25.2740 C   0  0  0  0  0  0  0  0  0  0  0  0
    4.4440   -2.6140   24.8740 O   0  0  0  0  0  0  0  0  0  0  0  0
    5.3560   -3.7470   26.6430 N   0  0  0  0  0  0  0  0  0  0  0  0
    6.0500   -5.0430   26.8240 C   0  0  0  0  0  0  0  0  0  0  0  0
    5.9430   -5.6430   28.4150 C   0  0  0  0  0  0  0  0  0  0  0  0
    6.2780   -6.7550   29.5650 C   0  0  0  0  0  0  0  0  0  0  0  0
    5.5860   -5.9140   30.0620 C   0  0  0  0  0  0  0  0  0  0  0  0
    5.6980   -5.5620   28.9580 C   0  0  0  0  0  0  0  0  0  0  0  0
    6.2770   -5.8460   27.6520 C   0  0  0  0  0  0  0  0  0  0  0  0
    5.5050   -4.8390   28.0100 N   0  0  0  0  0  0  0  0  0  0  0  0
    4.2360   -5.1620   28.4140 C   0  0  0  0  0  0  0  0  0  0  0  0
    3.3920   -5.9350   27.6680 O   0  0  0  0  0  0  0  0  0  0  0  0
    3.7720   -4.6860   29.6290 O   0  0  0  0  0  0  0  0  0  0  0  0
    3.0440   -3.4580   29.7080 C   0  0  0  0  0  0  0  0  0  0  0  0
    2.6100   -2.9530   28.3680 C   0  0  0  0  0  0  0  0  0  0  0  0
    3.9330   -2.4110   30.3480 C   0  0  0  0  0  0  0  0  0  0  0  0
    1.8320   -3.5960   30.5880 C   0  0  0  0  0  0  0  0  0  0  0  0
    6.0030   -3.7620   28.7370 C   0  0  0  0  0  0  0  0  0  0  0  0
    5.4970   -2.8090   27.7790 C   0  0  1  0  0  0  0  0  0  0  0  0
    6.1390   -1.6070   27.6460 C   0  0  0  0  0  0  0  0  0  0  0  0
    6.6280   -1.2100   26.2800 C   0  0  0  0  0  0  0  0  0  0  0  0
    5.1200   -0.6060   28.0890 C   0  0  0  0  0  0  0  0  0  0  0  0
    7.1910   -1.4030   28.7060 C   0  0  0  0  0  0  0  0  0  0  0  0
    6.7490   -2.7250   23.3400 C   0  0  0  0  0  0  0  0  0  0  0  0
    7.6680   -3.3050   22.2550 C   0  0  0  0  0  0  0  0  0  0  0  0
  1  2  1  0
  2  3  2  0
  2  4  1  0
  4  5  1  0
  5  6  1  0
  6  7  1  0
  7  8  1  0
  8  9  2  0
  8 10  1  0
 10 11  1  0
 11 12  2  0
 12 13  1  0
 13 14  2  0
 14 15  1  0
 11 16  1  0
 15 16  2  0
 16 17  1  0
 17 18  1  0
 18 19  2  0
 18 20  1  0
 21 20  1  0
 21 22  1  0
 21 23  1  0
 21 24  1  0
 17 25  1  0
 10 26  1  0
 25 26  1  0
 26 27  1  6
 27 28  1  0
 27 29  1  0
 27 30  1  0
  7 31  1  0
  4 32  1  0
 31 32  1  0
M  END
