piperidine-amides-11209-covalent
     RDKit          3D

 20 21  0  0  0  0  0  0  0  0999 V2000
    7.1140   -3.2660   19.2200 C   0  0  0  0  0  0  0  0  0  0  0  0
    6.3530   -4.0030   20.2310 C   0  0  0  0  0  0  0  0  0  0  0  0
    5.3000   -4.5680   19.8980 O   0  0  0  0  0  0  0  0  0  0  0  0
    6.8250   -4.1150   21.5490 N   0  0  0  0  0  0  0  0  0  0  0  0
    7.7140   -3.1110   22.1000 C   0  0  0  0  0  0  0  0  0  0  0  0
    7.4290   -3.0550   23.5720 C   0  0  0  0  0  0  0  0  0  0  0  0
    6.1190   -3.7050   23.8990 C   0  0  0  0  0  0  0  0  0  0  0  0
    5.7320   -3.5620   25.3180 C   0  0  0  0  0  0  0  0  0  0  0  0
    4.5070   -3.5120   25.6410 O   0  0  0  0  0  0  0  0  0  0  0  0
    6.6770   -3.4630   26.3580 N   0  0  0  0  0  0  0  0  0  0  0  0
    7.0860   -2.1180   26.7940 C   0  0  2  0  0  0  0  0  0  0  0  0
    7.4690   -2.1590   28.2010 C   0  0  0  0  0  0  0  0  0  0  0  0
    6.6620   -1.0210   28.3500 C   0  0  2  0  0  0  0  0  0  0  0  0
    5.7120   -0.9960   29.4570 N   0  0  0  0  0  0  0  0  0  0  0  0
    6.4310   -0.1190   30.4350 C   0  0  0  0  0  0  0  0  0  0  0  0
    5.9900    0.1110   31.7580 N   0  0  0  0  0  0  0  0  0  0  0  0
    7.5980    0.5640   30.1670 O   0  0  0  0  0  0  0  0  0  0  0  0
    6.1460   -0.9790   26.9330 C   0  0  0  0  0  0  0  0  0  0  0  0
    6.1700   -5.1480   23.5380 C   0  0  0  0  0  0  0  0  0  0  0  0
    6.5240   -5.3470   22.2280 C   0  0  0  0  0  0  0  0  0  0  0  0
  1  2  1  0
  2  3  2  0
  2  4  1  0
  4  5  1  0
  5  6  1  0
  6  7  1  0
  7  8  1  0
  8  9  2  0
  8 10  1  0
 11 10  1  1
 11 12  1  0
 12 13  1  0
 13 14  1  1
 14 15  1  0
 15 16  1  0
 15 17  2  0
 11 18  1  0
 13 18  1  0
  7 19  1  0
  4 20  1  0
 19 20  1  0
M  END
