piperidine-amides-3582-covalent
     RDKit          3D

 19 19  0  0  0  0  0  0  0  0999 V2000
    7.1190   -3.2550   19.1920 C   0  0  0  0  0  0  0  0  0  0  0  0
    6.3590   -3.9880   20.2180 C   0  0  0  0  0  0  0  0  0  0  0  0
    5.2760   -4.5150   19.8720 O   0  0  0  0  0  0  0  0  0  0  0  0
    6.8730   -4.1280   21.5250 N   0  0  0  0  0  0  0  0  0  0  0  0
    6.4830   -5.2640   22.2740 C   0  0  0  0  0  0  0  0  0  0  0  0
    5.6870   -4.9180   23.4380 C   0  0  0  0  0  0  0  0  0  0  0  0
    5.8160   -3.5080   23.8570 C   0  0  0  0  0  0  0  0  0  0  0  0
    5.3110   -3.2610   25.2550 C   0  0  0  0  0  0  0  0  0  0  0  0
    4.1050   -2.9970   25.4120 O   0  0  0  0  0  0  0  0  0  0  0  0
    6.1360   -3.3090   26.3970 N   0  0  0  0  0  0  0  0  0  0  0  0
    6.6010   -4.4370   27.1100 C   0  0  0  0  0  0  0  0  0  0  0  0
    6.1030   -4.8050   28.4200 C   0  0  0  0  0  0  0  0  0  0  0  0
    6.2790   -5.6780   26.3450 C   0  0  0  0  0  0  0  0  0  0  0  0
    8.0240   -4.2490   27.3900 C   0  0  0  0  0  0  0  0  0  0  0  0
    8.9190   -4.8670   26.5400 N   0  0  0  0  0  0  0  0  0  0  0  0
    9.3430   -6.1490   26.8200 C   0  0  0  0  0  0  0  0  0  0  0  0
    8.5300   -4.7380   25.1410 C   0  0  0  0  0  0  0  0  0  0  0  0
    7.2520   -3.0160   23.6570 C   0  0  0  0  0  0  0  0  0  0  0  0
    7.5940   -3.0580   22.1840 C   0  0  0  0  0  0  0  0  0  0  0  0
  1  2  1  0
  2  3  2  0
  2  4  1  0
  4  5  1  0
  5  6  1  0
  6  7  1  0
  7  8  1  0
  8  9  2  0
  8 10  1  0
 11 10  1  0
 11 12  1  0
 11 13  1  0
 11 14  1  0
 14 15  1  0
 15 16  1  0
 15 17  1  0
  7 18  1  0
  4 19  1  0
 18 19  1  0
M  END
