piperidine-amides-30820-covalent
     RDKit          3D

 26 27  0  0  0  0  0  0  0  0999 V2000
    7.1020   -3.2810   19.1770 C   0  0  0  0  0  0  0  0  0  0  0  0
    6.3120   -4.0430   20.1440 C   0  0  0  0  0  0  0  0  0  0  0  0
    5.2020   -4.4910   19.8350 O   0  0  0  0  0  0  0  0  0  0  0  0
    6.8280   -4.3190   21.3970 N   0  0  0  0  0  0  0  0  0  0  0  0
    7.4810   -3.2910   22.1260 C   0  0  0  0  0  0  0  0  0  0  0  0
    6.3600   -2.6590   22.9030 C   0  0  0  0  0  0  0  0  0  0  0  0
    5.5180   -3.6660   23.6430 C   0  0  0  0  0  0  0  0  0  0  0  0
    5.3610   -3.2480   25.0380 C   0  0  0  0  0  0  0  0  0  0  0  0
    4.2770   -2.7560   25.4590 O   0  0  0  0  0  0  0  0  0  0  0  0
    6.4020   -3.3860   25.9510 N   0  0  0  0  0  0  0  0  0  0  0  0
    6.2510   -4.4450   26.9830 C   0  0  0  0  0  0  0  0  0  0  0  0
    4.9050   -5.0220   27.0560 C   0  0  0  0  0  0  0  0  0  0  0  0
    3.8680   -4.3170   26.9580 O   0  0  0  0  0  0  0  0  0  0  0  0
    4.7170   -6.3780   27.2530 O   0  0  0  0  0  0  0  0  0  0  0  0
    4.8000   -7.0060   28.5220 C   0  0  0  0  0  0  0  0  0  0  0  0
    6.1010   -6.8140   29.2560 C   0  0  0  0  0  0  0  0  0  0  0  0
    7.4380   -2.3710   26.1550 C   0  0  0  0  0  0  0  0  0  0  0  0
    8.5820   -2.3620   25.1610 C   0  0  0  0  0  0  0  0  0  0  0  0
    9.8410   -2.0870   25.6120 C   0  0  0  0  0  0  0  0  0  0  0  0
   11.0180   -2.0070   24.8720 C   0  0  0  0  0  0  0  0  0  0  0  0
   11.0010   -2.2290   23.4160 C   0  0  0  0  0  0  0  0  0  0  0  0
   12.4720   -2.1130   22.4560 Cl  0  0  0  0  0  0  0  0  0  0  0  0
    9.6210   -2.5450   22.8860 C   0  0  0  0  0  0  0  0  0  0  0  0
    8.3250   -2.6370   23.7020 C   0  0  0  0  0  0  0  0  0  0  0  0
    6.0460   -5.0640   23.5160 C   0  0  0  0  0  0  0  0  0  0  0  0
    6.2740   -5.4160   22.0990 C   0  0  0  0  0  0  0  0  0  0  0  0
  1  2  1  0
  2  3  2  0
  2  4  1  0
  4  5  1  0
  5  6  1  0
  6  7  1  0
  7  8  1  0
  8  9  2  0
  8 10  1  0
 10 11  1  0
 11 12  1  0
 12 13  2  0
 12 14  1  0
 14 15  1  0
 15 16  1  0
 10 17  1  0
 17 18  1  0
 18 19  2  0
 19 20  1  0
 20 21  2  0
 21 22  1  0
 21 23  1  0
 18 24  1  0
 23 24  2  0
  7 25  1  0
  4 26  1  0
 25 26  1  0
M  END
