piperidine-amides-14816-covalent
     RDKit          3D

 22 23  0  0  0  0  0  0  0  0999 V2000
    7.1450   -3.2670   19.2130 C   0  0  0  0  0  0  0  0  0  0  0  0
    6.3410   -3.9820   20.2000 C   0  0  0  0  0  0  0  0  0  0  0  0
    5.2540   -4.4650   19.8470 O   0  0  0  0  0  0  0  0  0  0  0  0
    6.8330   -4.1570   21.5090 N   0  0  0  0  0  0  0  0  0  0  0  0
    7.7270   -3.1830   22.0760 C   0  0  0  0  0  0  0  0  0  0  0  0
    7.1440   -2.6410   23.3350 C   0  0  0  0  0  0  0  0  0  0  0  0
    6.7500   -3.8290   24.1680 C   0  0  0  0  0  0  0  0  0  0  0  0
    5.9510   -3.3190   25.3150 C   0  0  0  0  0  0  0  0  0  0  0  0
    4.7370   -3.1760   25.1430 O   0  0  0  0  0  0  0  0  0  0  0  0
    6.6540   -3.0380   26.4740 N   0  0  0  0  0  0  0  0  0  0  0  0
    6.5310   -3.8470   27.6290 C   0  0  0  0  0  0  0  0  0  0  0  0
    5.6000   -3.5050   28.5960 C   0  0  0  0  0  0  0  0  0  0  0  0
    4.4410   -3.9590   28.6740 O   0  0  0  0  0  0  0  0  0  0  0  0
    5.9920   -2.5880   29.5390 O   0  0  0  0  0  0  0  0  0  0  0  0
    6.6620   -1.3850   29.4080 C   0  0  0  0  0  0  0  0  0  0  0  0
    7.9410   -1.6920   28.9540 C   0  0  0  0  0  0  0  0  0  0  0  0
    6.1200   -0.5550   28.2000 C   0  0  0  0  0  0  0  0  0  0  0  0
    7.8580   -4.3930   27.9720 C   0  0  0  0  0  0  0  0  0  0  0  0
    7.7920   -5.7680   27.4790 C   0  0  0  0  0  0  0  0  0  0  0  0
    6.4150   -5.3220   27.2010 C   0  0  0  0  0  0  0  0  0  0  0  0
    5.9650   -4.8900   23.5120 C   0  0  0  0  0  0  0  0  0  0  0  0
    6.4890   -5.3050   22.3120 C   0  0  0  0  0  0  0  0  0  0  0  0
  1  2  1  0
  2  3  2  0
  2  4  1  0
  4  5  1  0
  5  6  1  0
  6  7  1  0
  7  8  1  0
  8  9  2  0
  8 10  1  0
 10 11  1  0
 11 12  1  0
 12 13  2  0
 12 14  1  0
 14 15  1  0
 15 16  1  0
 15 17  1  0
 11 18  1  0
 18 19  1  0
 11 20  1  0
 19 20  1  0
  7 21  1  0
  4 22  1  0
 21 22  1  0
M  END
