piperidine-amides-13194-covalent
     RDKit          3D

 19 20  0  0  0  0  0  0  0  0999 V2000
    7.1380   -3.2760   19.1610 C   0  0  0  0  0  0  0  0  0  0  0  0
    6.3210   -3.9660   20.1820 C   0  0  0  0  0  0  0  0  0  0  0  0
    5.2210   -4.4090   19.8180 O   0  0  0  0  0  0  0  0  0  0  0  0
    6.8040   -4.1600   21.4770 N   0  0  0  0  0  0  0  0  0  0  0  0
    7.5920   -3.1410   22.0970 C   0  0  0  0  0  0  0  0  0  0  0  0
    7.2000   -2.8040   23.4640 C   0  0  0  0  0  0  0  0  0  0  0  0
    6.5130   -3.8800   24.1970 C   0  0  0  0  0  0  0  0  0  0  0  0
    5.6940   -3.3190   25.2940 C   0  0  0  0  0  0  0  0  0  0  0  0
    4.5010   -3.0570   25.0610 O   0  0  0  0  0  0  0  0  0  0  0  0
    6.2250   -3.0810   26.5770 N   0  0  0  0  0  0  0  0  0  0  0  0
    5.3720   -3.1650   27.7810 C   0  0  1  0  0  0  0  0  0  0  0  0
    6.1000   -3.4800   28.9840 C   0  0  0  0  0  0  0  0  0  0  0  0
    5.5510   -2.2800   29.5130 C   0  0  2  0  0  0  0  0  0  0  0  0
    4.7370   -2.4630   30.4740 O   0  0  0  0  0  0  0  0  0  0  0  0
    4.3780   -1.2760   31.1200 C   0  0  0  0  0  0  0  0  0  0  0  0
    3.7970   -1.3080   32.3690 C   0  0  0  0  0  0  0  0  0  0  0  0
    4.7800   -1.8850   28.2570 C   0  0  0  0  0  0  0  0  0  0  0  0
    5.7560   -4.8850   23.3870 C   0  0  0  0  0  0  0  0  0  0  0  0
    6.4360   -5.2850   22.2810 C   0  0  0  0  0  0  0  0  0  0  0  0
  1  2  1  0
  2  3  2  0
  2  4  1  0
  4  5  1  0
  5  6  1  0
  6  7  1  0
  7  8  1  0
  8  9  2  0
  8 10  1  0
 11 10  1  6
 11 12  1  0
 12 13  1  0
 13 14  1  1
 14 15  1  0
 15 16  1  0
 11 17  1  0
 13 17  1  0
  7 18  1  0
  4 19  1  0
 18 19  1  0
M  END
