piperidine-amides-33933-covalent
     RDKit          3D

 30 32  0  0  0  0  0  0  0  0999 V2000
    7.0690   -3.3520   19.3740 C   0  0  0  0  0  0  0  0  0  0  0  0
    6.4150   -4.2040   20.3790 C   0  0  0  0  0  0  0  0  0  0  0  0
    5.4060   -4.8500   19.9910 O   0  0  0  0  0  0  0  0  0  0  0  0
    6.9350   -4.3240   21.7020 N   0  0  0  0  0  0  0  0  0  0  0  0
    6.5290   -5.4410   22.4850 C   0  0  0  0  0  0  0  0  0  0  0  0
    6.1080   -5.0720   23.8400 C   0  0  0  0  0  0  0  0  0  0  0  0
    6.0750   -3.6120   24.0780 C   0  0  0  0  0  0  0  0  0  0  0  0
    5.4380   -3.2260   25.3940 C   0  0  0  0  0  0  0  0  0  0  0  0
    4.2150   -3.0070   25.3770 O   0  0  0  0  0  0  0  0  0  0  0  0
    6.1070   -3.0890   26.6370 N   0  0  0  0  0  0  0  0  0  0  0  0
    6.2360   -4.1410   27.5830 C   0  0  0  0  0  0  0  0  0  0  0  0
    5.2820   -4.4660   28.6310 C   0  0  0  0  0  0  0  0  0  0  0  0
    4.1260   -3.5410   29.0270 C   0  0  0  0  0  0  0  0  0  0  0  0
    3.7910   -2.3150   28.5050 C   0  0  0  0  0  0  0  0  0  0  0  0
    3.5040   -4.3590   30.1120 N   0  0  0  0  0  0  0  0  0  0  0  0
    4.0750   -5.5390   30.4010 N   0  0  0  0  0  0  0  0  0  0  0  0
    3.8500   -6.6340   31.3280 C   0  0  0  0  0  0  0  0  0  0  0  0
    3.3210   -7.7400   30.4750 C   0  0  0  0  0  0  0  0  0  0  0  0
    5.1850   -5.6150   29.4830 C   0  0  0  0  0  0  0  0  0  0  0  0
    6.0720   -6.8390   29.5280 C   0  0  0  0  0  0  0  0  0  0  0  0
    6.2270   -1.7930   27.2250 C   0  0  0  0  0  0  0  0  0  0  0  0
    6.9420   -1.6730   28.5740 C   0  0  0  0  0  0  0  0  0  0  0  0
    7.0550   -0.3450   29.2070 C   0  0  0  0  0  0  0  0  0  0  0  0
    6.5270    0.7900   28.5970 C   0  0  0  0  0  0  0  0  0  0  0  0
    6.7210    1.9660   29.3410 F   0  0  0  0  0  0  0  0  0  0  0  0
    5.8850    0.7170   27.3790 C   0  0  0  0  0  0  0  0  0  0  0  0
    5.3730    1.8510   26.7950 F   0  0  0  0  0  0  0  0  0  0  0  0
    5.7400   -0.6240   26.6840 C   0  0  0  0  0  0  0  0  0  0  0  0
    7.4060   -3.0090   23.7550 C   0  0  0  0  0  0  0  0  0  0  0  0
    7.6780   -3.2280   22.2700 C   0  0  0  0  0  0  0  0  0  0  0  0
  1  2  1  0
  2  3  2  0
  2  4  1  0
  4  5  1  0
  5  6  1  0
  6  7  1  0
  7  8  1  0
  8  9  2  0
  8 10  1  0
 10 11  1  0
 11 12  1  0
 12 13  1  0
 13 14  1  0
 13 15  2  0
 15 16  1  0
 16 17  1  0
 17 18  1  0
 12 19  2  0
 16 19  1  0
 19 20  1  0
 10 21  1  0
 21 22  2  0
 22 23  1  0
 23 24  2  0
 24 25  1  0
 24 26  1  0
 26 27  1  0
 21 28  1  0
 26 28  2  0
  7 29  1  0
  4 30  1  0
 29 30  1  0
M  END
