piperidine-amides-4815-covalent
     RDKit          3D

 24 26  0  0  0  0  0  0  0  0999 V2000
    7.0760   -3.3630   19.3060 C   0  0  0  0  0  0  0  0  0  0  0  0
    6.3630   -4.1510   20.3300 C   0  0  0  0  0  0  0  0  0  0  0  0
    5.3250   -4.7260   19.9520 O   0  0  0  0  0  0  0  0  0  0  0  0
    6.8770   -4.2820   21.6330 N   0  0  0  0  0  0  0  0  0  0  0  0
    7.6730   -3.2460   22.2120 C   0  0  0  0  0  0  0  0  0  0  0  0
    7.2510   -2.9030   23.5600 C   0  0  0  0  0  0  0  0  0  0  0  0
    5.9960   -3.5710   23.9470 C   0  0  0  0  0  0  0  0  0  0  0  0
    5.6460   -3.2230   25.3430 C   0  0  0  0  0  0  0  0  0  0  0  0
    4.4510   -3.2810   25.6850 O   0  0  0  0  0  0  0  0  0  0  0  0
    6.6380   -2.8300   26.2480 N   0  0  0  0  0  0  0  0  0  0  0  0
    6.5320   -1.6130   27.0830 C   0  0  0  0  0  0  0  0  0  0  0  0
    7.0340   -1.5060   28.4820 C   0  0  0  0  0  0  0  0  0  0  0  0
    6.9250   -0.2970   29.3030 C   0  0  0  0  0  0  0  0  0  0  0  0
    6.3210    0.8450   28.7930 C   0  0  0  0  0  0  0  0  0  0  0  0
    6.1870    2.0110   29.5360 C   0  0  0  0  0  0  0  0  0  0  0  0
    7.3380    2.8720   29.4180 N   0  0  0  0  0  0  0  0  0  0  0  0
    8.2860    3.0590   30.3760 C   0  0  0  0  0  0  0  0  0  0  0  0
    9.1530    3.9320   29.8310 C   0  0  0  0  0  0  0  0  0  0  0  0
    8.7970    4.3000   28.5860 C   0  0  0  0  0  0  0  0  0  0  0  0
    7.6640    3.6160   28.3720 N   0  0  0  0  0  0  0  0  0  0  0  0
    5.8240    0.8470   27.5050 C   0  0  0  0  0  0  0  0  0  0  0  0
    5.8950   -0.3230   26.6130 C   0  0  0  0  0  0  0  0  0  0  0  0
    6.0100   -5.0570   23.7690 C   0  0  0  0  0  0  0  0  0  0  0  0
    6.6090   -5.4540   22.4410 C   0  0  0  0  0  0  0  0  0  0  0  0
  1  2  1  0
  2  3  2  0
  2  4  1  0
  4  5  1  0
  5  6  1  0
  6  7  1  0
  7  8  1  0
  8  9  2  0
  8 10  1  0
 10 11  1  0
 11 12  2  0
 12 13  1  0
 13 14  2  0
 14 15  1  0
 15 16  1  0
 16 17  1  0
 17 18  2  0
 18 19  1  0
 16 20  1  0
 19 20  2  0
 14 21  1  0
 11 22  1  0
 21 22  2  0
  7 23  1  0
  4 24  1  0
 23 24  1  0
M  END
