piperidine-amides-216-covalent
     RDKit          3D

 25 26  0  0  0  0  0  0  0  0999 V2000
    7.0750   -3.3870   19.2400 C   0  0  0  0  0  0  0  0  0  0  0  0
    6.4080   -4.1230   20.2860 C   0  0  0  0  0  0  0  0  0  0  0  0
    5.3480   -4.7470   19.9630 O   0  0  0  0  0  0  0  0  0  0  0  0
    6.9150   -4.2300   21.6040 N   0  0  0  0  0  0  0  0  0  0  0  0
    6.6390   -5.4500   22.3810 C   0  0  0  0  0  0  0  0  0  0  0  0
    5.7780   -4.8600   23.5720 C   0  0  0  0  0  0  0  0  0  0  0  0
    6.5430   -3.6870   24.1710 C   0  0  0  0  0  0  0  0  0  0  0  0
    5.6700   -2.9350   25.2610 C   0  0  0  0  0  0  0  0  0  0  0  0
    5.0230   -2.0550   24.7170 O   0  0  0  0  0  0  0  0  0  0  0  0
    5.8130   -3.4170   26.4300 N   0  0  0  0  0  0  0  0  0  0  0  0
    5.7560   -3.8210   27.7270 C   0  0  2  0  0  0  0  0  0  0  0  0
    6.4740   -4.3950   28.7250 C   0  0  0  0  0  0  0  0  0  0  0  0
    6.4140   -5.7930   28.6740 C   0  0  0  0  0  0  0  0  0  0  0  0
    6.1210   -6.4740   29.8780 O   0  0  0  0  0  0  0  0  0  0  0  0
    5.8040   -7.8060   29.6770 C   0  0  0  0  0  0  0  0  0  0  0  0
    6.1080   -6.2170   27.2880 C   0  0  0  0  0  0  0  0  0  0  0  0
    7.4750   -5.9100   27.1310 C   0  0  0  0  0  0  0  0  0  0  0  0
    7.8570   -5.8190   28.4770 C   0  0  0  0  0  0  0  0  0  0  0  0
    4.5400   -4.6560   27.7740 C   0  0  0  0  0  0  0  0  0  0  0  0
    3.7760   -4.7070   26.6260 O   0  0  0  0  0  0  0  0  0  0  0  0
    4.0440   -5.3720   28.8230 O   0  0  0  0  0  0  0  0  0  0  0  0
    3.5560   -6.6880   28.8080 C   0  0  0  0  0  0  0  0  0  0  0  0
    2.2490   -6.7820   28.4070 C   0  0  0  0  0  0  0  0  0  0  0  0
    7.0280   -2.6500   23.1710 C   0  0  0  0  0  0  0  0  0  0  0  0
    7.7420   -3.2060   22.1830 C   0  0  0  0  0  0  0  0  0  0  0  0
  1  2  1  0
  2  3  2  0
  2  4  1  0
  4  5  1  0
  5  6  1  0
  6  7  1  0
  7  8  1  0
  8  9  2  0
  8 10  1  0
 10 11  1  0
 11 12  1  6
 12 13  1  0
 13 14  1  0
 14 15  1  0
 13 16  1  0
 16 17  1  0
 13 18  1  0
 17 18  1  0
 11 19  1  0
 19 20  2  0
 19 21  1  0
 21 22  1  0
 22 23  1  0
  7 24  1  0
  4 25  1  0
 24 25  1  0
M  END
