piperidine-amides-5452-covalent
     RDKit          3D

 20 21  0  0  0  0  0  0  0  0999 V2000
    7.0370   -3.3330   19.3340 C   0  0  0  0  0  0  0  0  0  0  0  0
    6.3640   -4.1470   20.3500 C   0  0  0  0  0  0  0  0  0  0  0  0
    5.4110   -4.8660   19.9930 O   0  0  0  0  0  0  0  0  0  0  0  0
    6.7930   -4.1570   21.6960 N   0  0  0  0  0  0  0  0  0  0  0  0
    7.7380   -3.1670   22.1830 C   0  0  0  0  0  0  0  0  0  0  0  0
    7.4450   -2.9850   23.6360 C   0  0  0  0  0  0  0  0  0  0  0  0
    6.1140   -3.5610   23.9680 C   0  0  0  0  0  0  0  0  0  0  0  0
    5.6430   -3.2040   25.3290 C   0  0  0  0  0  0  0  0  0  0  0  0
    4.4060   -3.0760   25.5570 O   0  0  0  0  0  0  0  0  0  0  0  0
    6.5110   -2.9880   26.4200 N   0  0  0  0  0  0  0  0  0  0  0  0
    6.4930   -1.7130   27.1740 C   0  0  0  0  0  0  0  0  0  0  0  0
    5.8970   -0.4900   26.5900 C   0  0  0  0  0  0  0  0  0  0  0  0
    5.8950    0.7490   27.3780 C   0  0  0  0  0  0  0  0  0  0  0  0
    6.4980    0.7480   28.7550 C   0  0  0  0  0  0  0  0  0  0  0  0
    6.4200    1.9740   29.3660 O   0  0  0  0  0  0  0  0  0  0  0  0
    7.1260   -0.4710   29.4070 C   0  0  0  0  0  0  0  0  0  0  0  0
    7.6230   -0.3830   30.6030 O   0  0  0  0  0  0  0  0  0  0  0  0
    7.0810   -1.6770   28.5380 C   0  0  0  0  0  0  0  0  0  0  0  0
    6.1490   -5.0620   23.7380 C   0  0  0  0  0  0  0  0  0  0  0  0
    6.6230   -5.3880   22.4460 C   0  0  0  0  0  0  0  0  0  0  0  0
  1  2  1  0
  2  3  2  0
  2  4  1  0
  4  5  1  0
  5  6  1  0
  6  7  1  0
  7  8  1  0
  8  9  2  0
  8 10  1  0
 10 11  1  0
 11 12  2  0
 12 13  1  0
 13 14  2  0
 14 15  1  0
 14 16  1  0
 16 17  1  0
 11 18  1  0
 16 18  2  0
  7 19  1  0
  4 20  1  0
 19 20  1  0
M  END
