piperidine-amides-23647-covalent
     RDKit          3D

 22 23  0  0  0  0  0  0  0  0999 V2000
    7.0930   -3.3550   19.3210 C   0  0  0  0  0  0  0  0  0  0  0  0
    6.4330   -4.2100   20.3180 C   0  0  0  0  0  0  0  0  0  0  0  0
    5.3740   -4.7840   19.9690 O   0  0  0  0  0  0  0  0  0  0  0  0
    7.0210   -4.4180   21.5900 N   0  0  0  0  0  0  0  0  0  0  0  0
    6.5370   -5.4800   22.3910 C   0  0  0  0  0  0  0  0  0  0  0  0
    5.8970   -5.0630   23.6440 C   0  0  0  0  0  0  0  0  0  0  0  0
    6.3780   -3.8070   24.2830 C   0  0  0  0  0  0  0  0  0  0  0  0
    5.3980   -3.2710   25.2890 C   0  0  0  0  0  0  0  0  0  0  0  0
    4.5280   -2.4810   24.8970 O   0  0  0  0  0  0  0  0  0  0  0  0
    5.4080   -3.6210   26.6580 N   0  0  0  0  0  0  0  0  0  0  0  0
    6.4360   -3.4260   27.5570 C   0  0  0  0  0  0  0  0  0  0  0  0
    6.8570   -4.5860   28.3370 C   0  0  0  0  0  0  0  0  0  0  0  0
    5.6190   -4.9600   29.0890 C   0  0  0  0  0  0  0  0  0  0  0  0
    4.6230   -5.2490   28.2050 C   0  0  1  0  0  0  0  0  0  0  0  0
    3.6210   -5.4240   29.3600 C   0  0  0  0  0  0  0  0  0  0  0  0
    3.5790   -7.1370   29.5090 S   0  0  0  0  0  0  0  0  0  0  0  0
    2.7240   -7.7230   28.3550 N   0  0  0  0  0  0  0  0  0  0  0  0
    4.9750   -7.6790   29.4330 O   0  0  0  0  0  0  0  0  0  0  0  0
    3.0060   -7.4430   30.8470 O   0  0  0  0  0  0  0  0  0  0  0  0
    4.2350   -3.9830   27.4020 C   0  0  0  0  0  0  0  0  0  0  0  0
    6.7300   -2.7450   23.2490 C   0  0  0  0  0  0  0  0  0  0  0  0
    7.7060   -3.3600   22.2880 C   0  0  0  0  0  0  0  0  0  0  0  0
  1  2  1  0
  2  3  2  0
  2  4  1  0
  4  5  1  0
  5  6  1  0
  6  7  1  0
  7  8  1  0
  8  9  2  0
  8 10  1  0
 10 11  1  0
 11 12  1  0
 12 13  1  0
 13 14  1  0
 14 15  1  1
 15 16  1  0
 16 17  1  0
 16 18  2  0
 16 19  2  0
 10 20  1  0
 14 20  1  0
  7 21  1  0
  4 22  1  0
 21 22  1  0
M  END
