piperidine-amides-10385-covalent
     RDKit          3D

 24 26  0  0  0  0  0  0  0  0999 V2000
    7.0730   -3.2790   19.2280 C   0  0  0  0  0  0  0  0  0  0  0  0
    6.3460   -4.0290   20.2640 C   0  0  0  0  0  0  0  0  0  0  0  0
    5.2900   -4.6130   19.9010 O   0  0  0  0  0  0  0  0  0  0  0  0
    6.8390   -4.1150   21.5660 N   0  0  0  0  0  0  0  0  0  0  0  0
    7.7390   -3.1070   22.1000 C   0  0  0  0  0  0  0  0  0  0  0  0
    7.5690   -3.0060   23.5870 C   0  0  0  0  0  0  0  0  0  0  0  0
    6.2590   -3.5840   24.0450 C   0  0  0  0  0  0  0  0  0  0  0  0
    6.0980   -3.3750   25.4990 C   0  0  0  0  0  0  0  0  0  0  0  0
    4.9280   -3.3630   25.9470 O   0  0  0  0  0  0  0  0  0  0  0  0
    7.1890   -3.1640   26.3840 N   0  0  0  0  0  0  0  0  0  0  0  0
    7.5990   -4.1190   27.3970 C   0  0  2  0  0  0  0  0  0  0  0  0
    8.5560   -5.1520   26.7990 C   0  0  0  0  0  0  0  0  0  0  0  0
    6.4830   -4.8100   28.0850 C   0  0  0  0  0  0  0  0  0  0  0  0
    6.5790   -6.1600   28.3310 C   0  0  0  0  0  0  0  0  0  0  0  0
    5.5770   -6.8720   28.9650 C   0  0  0  0  0  0  0  0  0  0  0  0
    4.4190   -6.2650   29.3920 C   0  0  0  0  0  0  0  0  0  0  0  0
    4.2260   -4.9160   29.1970 C   0  0  0  0  0  0  0  0  0  0  0  0
    2.9470   -4.2800   29.6790 C   0  0  0  0  0  0  0  0  0  0  0  0
    2.6140   -2.8910   29.5440 N   0  0  0  0  0  0  0  0  0  0  0  0
    3.5520   -2.0350   28.9090 C   0  0  0  0  0  0  0  0  0  0  0  0
    4.8410   -2.6770   28.4230 C   0  0  0  0  0  0  0  0  0  0  0  0
    5.2030   -4.1470   28.5610 C   0  0  0  0  0  0  0  0  0  0  0  0
    6.1080   -5.0240   23.6970 C   0  0  0  0  0  0  0  0  0  0  0  0
    6.6160   -5.3280   22.3060 C   0  0  0  0  0  0  0  0  0  0  0  0
  1  2  1  0
  2  3  2  0
  2  4  1  0
  4  5  1  0
  5  6  1  0
  6  7  1  0
  7  8  1  0
  8  9  2  0
  8 10  1  0
 10 11  1  0
 11 12  1  6
 11 13  1  0
 13 14  2  0
 14 15  1  0
 15 16  2  0
 16 17  1  0
 17 18  1  0
 18 19  2  0
 19 20  1  0
 20 21  2  0
 13 22  1  0
 17 22  2  0
 21 22  1  0
  7 23  1  0
  4 24  1  0
 23 24  1  0
M  END
