piperidine-amides-13199-covalent
     RDKit          3D

 19 19  0  0  0  0  0  0  0  0999 V2000
    7.1540   -3.2600   19.0810 C   0  0  0  0  0  0  0  0  0  0  0  0
    6.3810   -3.9550   20.1360 C   0  0  0  0  0  0  0  0  0  0  0  0
    5.2680   -4.4140   19.8250 O   0  0  0  0  0  0  0  0  0  0  0  0
    6.9220   -4.1320   21.4060 N   0  0  0  0  0  0  0  0  0  0  0  0
    7.6520   -3.0550   21.9730 C   0  0  0  0  0  0  0  0  0  0  0  0
    7.1830   -2.6680   23.2900 C   0  0  0  0  0  0  0  0  0  0  0  0
    6.5800   -3.7730   24.0560 C   0  0  0  0  0  0  0  0  0  0  0  0
    5.8470   -3.2200   25.2030 C   0  0  0  0  0  0  0  0  0  0  0  0
    4.7990   -2.5800   25.0000 O   0  0  0  0  0  0  0  0  0  0  0  0
    6.3180   -3.4280   26.4950 N   0  0  0  0  0  0  0  0  0  0  0  0
    5.6730   -4.4210   27.3560 C   0  0  1  0  0  0  0  0  0  0  0  0
    5.9540   -5.8240   26.9660 C   0  0  0  0  0  0  0  0  0  0  0  0
    4.8530   -6.7800   27.0460 C   0  0  0  0  0  0  0  0  0  0  0  0
    6.1570   -4.1350   28.6530 C   0  0  0  0  0  0  0  0  0  0  0  0
    6.8990   -5.1690   29.1160 F   0  0  0  0  0  0  0  0  0  0  0  0
    5.0120   -3.9850   29.3700 F   0  0  0  0  0  0  0  0  0  0  0  0
    6.8160   -2.9340   28.7540 F   0  0  0  0  0  0  0  0  0  0  0  0
    5.7390   -4.7330   23.2740 C   0  0  0  0  0  0  0  0  0  0  0  0
    6.4070   -5.2010   22.1900 C   0  0  0  0  0  0  0  0  0  0  0  0
  1  2  1  0
  2  3  2  0
  2  4  1  0
  4  5  1  0
  5  6  1  0
  6  7  1  0
  7  8  1  0
  8  9  2  0
  8 10  1  0
 10 11  1  0
 11 12  1  6
 12 13  1  0
 11 14  1  0
 14 15  1  0
 14 16  1  0
 14 17  1  0
  7 18  1  0
  4 19  1  0
 18 19  1  0
M  END
