piperidine-amides-11570-covalent
     RDKit          3D

 22 24  0  0  0  0  0  0  0  0999 V2000
    7.0880   -3.3440   19.2830 C   0  0  0  0  0  0  0  0  0  0  0  0
    6.3550   -4.1180   20.2820 C   0  0  0  0  0  0  0  0  0  0  0  0
    5.3290   -4.7250   19.9460 O   0  0  0  0  0  0  0  0  0  0  0  0
    6.8290   -4.2270   21.5960 N   0  0  0  0  0  0  0  0  0  0  0  0
    7.7040   -3.2410   22.1900 C   0  0  0  0  0  0  0  0  0  0  0  0
    6.9520   -2.6950   23.3680 C   0  0  0  0  0  0  0  0  0  0  0  0
    6.4900   -3.8000   24.2590 C   0  0  0  0  0  0  0  0  0  0  0  0
    5.6750   -3.2980   25.4000 C   0  0  0  0  0  0  0  0  0  0  0  0
    4.4210   -3.1680   25.2700 O   0  0  0  0  0  0  0  0  0  0  0  0
    6.2170   -2.9450   26.6590 N   0  0  0  0  0  0  0  0  0  0  0  0
    6.6950   -1.5600   26.9110 C   0  0  2  0  0  0  0  0  0  0  0  0
    7.0100   -1.4610   28.3070 C   0  0  0  0  0  0  0  0  0  0  0  0
    6.5610   -0.1830   28.9030 C   0  0  0  0  0  0  0  0  0  0  0  0
    5.6890    1.1910   28.5910 C   0  0  0  0  0  0  0  0  0  0  0  0
    5.4440    2.3620   29.5270 C   0  0  0  0  0  0  0  0  0  0  0  0
    6.1590    1.6710   30.3460 C   0  0  0  0  0  0  0  0  0  0  0  0
    6.3780    0.6170   29.5000 C   0  0  0  0  0  0  0  0  0  0  0  0
    5.8750    0.4170   28.0390 C   0  0  0  0  0  0  0  0  0  0  0  0
    5.8520   -0.4990   26.8030 C   0  0  1  0  0  0  0  0  0  0  0  0
    6.1990    0.1540   25.6430 O   0  0  0  0  0  0  0  0  0  0  0  0
    5.7160   -4.8960   23.5680 C   0  0  0  0  0  0  0  0  0  0  0  0
    6.5240   -5.3920   22.3920 C   0  0  0  0  0  0  0  0  0  0  0  0
  1  2  1  0
  2  3  2  0
  2  4  1  0
  4  5  1  0
  5  6  1  0
  6  7  1  0
  7  8  1  0
  8  9  2  0
  8 10  1  0
 11 10  1  1
 11 12  1  0
 12 13  1  0
 13 14  1  0
 14 15  2  0
 15 16  1  0
 16 17  2  0
 13 18  2  0
 17 18  1  0
 11 19  1  0
 18 19  1  0
 19 20  1  6
  7 21  1  0
  4 22  1  0
 21 22  1  0
M  END
