piperidine-amides-26090-covalent
     RDKit          3D

 25 27  0  0  0  0  0  0  0  0999 V2000
    7.0720   -3.3740   19.4310 C   0  0  0  0  0  0  0  0  0  0  0  0
    6.3620   -4.2230   20.3850 C   0  0  0  0  0  0  0  0  0  0  0  0
    5.3560   -4.8330   19.9840 O   0  0  0  0  0  0  0  0  0  0  0  0
    6.8080   -4.4300   21.7110 N   0  0  0  0  0  0  0  0  0  0  0  0
    6.4770   -5.6040   22.4600 C   0  0  0  0  0  0  0  0  0  0  0  0
    5.7160   -5.0740   23.6480 C   0  0  0  0  0  0  0  0  0  0  0  0
    6.4050   -3.8980   24.3100 C   0  0  0  0  0  0  0  0  0  0  0  0
    5.6460   -3.3430   25.5040 C   0  0  0  0  0  0  0  0  0  0  0  0
    4.6960   -2.5390   25.2740 O   0  0  0  0  0  0  0  0  0  0  0  0
    5.8570   -3.6240   26.9140 N   0  0  0  0  0  0  0  0  0  0  0  0
    5.4380   -2.6930   27.9300 C   0  0  0  0  0  0  0  0  0  0  0  0
    4.3080   -3.3880   28.5400 C   0  0  0  0  0  0  0  0  0  0  0  0
    4.7300   -4.4710   29.1900 N   0  0  0  0  0  0  0  0  0  0  0  0
    4.3420   -5.1340   30.4660 C   0  0  0  0  0  0  0  0  0  0  0  0
    3.2670   -4.7130   31.4420 C   0  0  0  0  0  0  0  0  0  0  0  0
    3.6040   -5.2840   32.6440 O   0  0  0  0  0  0  0  0  0  0  0  0
    2.1430   -3.9110   31.1430 N   0  0  0  0  0  0  0  0  0  0  0  0
    0.9730   -4.5090   30.9200 C   0  0  0  0  0  0  0  0  0  0  0  0
    5.2720   -6.3560   30.5870 C   0  0  0  0  0  0  0  0  0  0  0  0
    5.0030   -5.3260   29.7930 C   0  0  0  0  0  0  0  0  0  0  0  0
    5.8150   -5.4400   28.7960 C   0  0  0  0  0  0  0  0  0  0  0  0
    6.2410   -4.8430   27.4930 C   0  0  1  0  0  0  0  0  0  0  0  0
    6.1680   -5.9900   26.5180 C   0  0  0  0  0  0  0  0  0  0  0  0
    6.6840   -2.8510   23.2000 C   0  0  0  0  0  0  0  0  0  0  0  0
    7.4790   -3.3300   22.4120 C   0  0  0  0  0  0  0  0  0  0  0  0
  1  2  1  0
  2  3  2  0
  2  4  1  0
  4  5  1  0
  5  6  1  0
  6  7  1  0
  7  8  1  0
  8  9  2  0
  8 10  1  0
 10 11  1  0
 11 12  1  0
 12 13  1  0
 13 14  1  0
 14 15  1  0
 15 16  2  0
 15 17  1  0
 17 18  1  0
 14 19  2  0
 19 20  1  0
 13 21  1  0
 20 21  2  0
 10 22  1  0
 21 22  1  0
 22 23  1  6
  7 24  1  0
  4 25  1  0
 24 25  1  0
M  END
