piperidine-amides-33565-covalent
     RDKit          3D

 30 32  0  0  0  0  0  0  0  0999 V2000
    7.1170   -3.2610   19.1530 C   0  0  0  0  0  0  0  0  0  0  0  0
    6.3540   -3.9920   20.1780 C   0  0  0  0  0  0  0  0  0  0  0  0
    5.2390   -4.4410   19.8350 O   0  0  0  0  0  0  0  0  0  0  0  0
    6.8680   -4.2520   21.4670 N   0  0  0  0  0  0  0  0  0  0  0  0
    7.5250   -3.1870   22.1600 C   0  0  0  0  0  0  0  0  0  0  0  0
    6.9660   -2.8160   23.4640 C   0  0  0  0  0  0  0  0  0  0  0  0
    6.4290   -3.9350   24.2690 C   0  0  0  0  0  0  0  0  0  0  0  0
    5.6450   -3.4630   25.4710 C   0  0  0  0  0  0  0  0  0  0  0  0
    4.4140   -3.3120   25.3410 O   0  0  0  0  0  0  0  0  0  0  0  0
    6.2240   -3.1830   26.7410 N   0  0  0  0  0  0  0  0  0  0  0  0
    6.2060   -4.0380   27.8880 C   0  0  0  0  0  0  0  0  0  0  0  0
    6.0000   -5.4880   27.8190 C   0  0  0  0  0  0  0  0  0  0  0  0
    5.3740   -5.8560   26.4680 C   0  0  0  0  0  0  0  0  0  0  0  0
    6.4060   -1.7850   27.0310 C   0  0  1  0  0  0  0  0  0  0  0  0
    5.3720   -0.9160   26.3050 C   0  0  0  0  0  0  0  0  0  0  0  0
    6.1960   -0.3500   25.1860 C   0  0  0  0  0  0  0  0  0  0  0  0
    5.1790    0.5260   24.4700 C   0  0  0  0  0  0  0  0  0  0  0  0
    3.7540    0.6900   24.8800 C   0  0  0  0  0  0  0  0  0  0  0  0
    3.1590    0.0500   25.9890 N   0  0  0  0  0  0  0  0  0  0  0  0
    3.9400   -0.7610   26.7250 C   0  0  0  0  0  0  0  0  0  0  0  0
    6.3840   -1.3040   28.4960 C   0  0  0  0  0  0  0  0  0  0  0  0
    7.6330   -1.0070   29.2460 C   0  0  0  0  0  0  0  0  0  0  0  0
    7.7150   -0.5430   30.5640 C   0  0  0  0  0  0  0  0  0  0  0  0
    6.5920   -0.3120   31.3250 C   0  0  0  0  0  0  0  0  0  0  0  0
    6.6700    0.1480   32.6240 F   0  0  0  0  0  0  0  0  0  0  0  0
    5.2840   -0.6010   30.6480 C   0  0  0  0  0  0  0  0  0  0  0  0
    4.0230   -0.4570   31.2090 C   0  0  0  0  0  0  0  0  0  0  0  0
    5.2070   -1.1050   29.2040 C   0  0  0  0  0  0  0  0  0  0  0  0
    5.6590   -4.8870   23.4520 C   0  0  0  0  0  0  0  0  0  0  0  0
    6.3870   -5.3440   22.2570 C   0  0  0  0  0  0  0  0  0  0  0  0
  1  2  1  0
  2  3  2  0
  2  4  1  0
  4  5  1  0
  5  6  1  0
  6  7  1  0
  7  8  1  0
  8  9  2  0
  8 10  1  0
 10 11  1  0
 11 12  1  0
 12 13  1  0
 14 10  1  1
 14 15  1  0
 15 16  2  0
 16 17  1  0
 17 18  2  0
 18 19  1  0
 15 20  1  0
 19 20  2  0
 14 21  1  0
 21 22  2  0
 22 23  1  0
 23 24  2  0
 24 25  1  0
 24 26  1  0
 26 27  1  0
 21 28  1  0
 26 28  2  0
  7 29  1  0
  4 30  1  0
 29 30  1  0
M  END
