piperidine-amides-29404-covalent
     RDKit          3D

 24 26  0  0  0  0  0  0  0  0999 V2000
    7.0900   -3.3400   19.3170 C   0  0  0  0  0  0  0  0  0  0  0  0
    6.3570   -4.1340   20.2930 C   0  0  0  0  0  0  0  0  0  0  0  0
    5.3110   -4.7010   19.9350 O   0  0  0  0  0  0  0  0  0  0  0  0
    6.8780   -4.2900   21.5960 N   0  0  0  0  0  0  0  0  0  0  0  0
    6.6350   -5.5070   22.3150 C   0  0  0  0  0  0  0  0  0  0  0  0
    5.9300   -5.1850   23.5970 C   0  0  0  0  0  0  0  0  0  0  0  0
    6.6960   -4.0450   24.2190 C   0  0  0  0  0  0  0  0  0  0  0  0
    5.9540   -3.5430   25.4130 C   0  0  0  0  0  0  0  0  0  0  0  0
    4.9550   -2.8570   25.1950 O   0  0  0  0  0  0  0  0  0  0  0  0
    6.4390   -3.9030   26.6590 N   0  0  0  0  0  0  0  0  0  0  0  0
    7.0660   -5.1500   26.8560 C   0  0  0  0  0  0  0  0  0  0  0  0
    6.9840   -5.3630   28.2210 C   0  0  0  0  0  0  0  0  0  0  0  0
    6.0840   -4.4390   28.7200 C   0  0  0  0  0  0  0  0  0  0  0  0
    5.7210   -3.4190   27.8370 C   0  0  1  0  0  0  0  0  0  0  0  0
    6.2780   -2.1790   28.4600 C   0  0  0  0  0  0  0  0  0  0  0  0
    5.4020   -1.1460   29.5440 S   0  0  0  0  0  0  0  0  0  0  0  0
    3.7480   -0.8560   28.9490 C   0  0  0  0  0  0  0  0  0  0  0  0
    2.7660   -1.4240   29.7880 N   0  0  0  0  0  0  0  0  0  0  0  0
    1.5690   -1.1800   29.2910 N   0  0  0  0  0  0  0  0  0  0  0  0
    1.3540   -0.4550   28.0960 C   0  0  0  0  0  0  0  0  0  0  0  0
   -0.0070   -0.1800   27.5280 C   0  0  0  0  0  0  0  0  0  0  0  0
    2.9970   -0.0790   27.6280 S   0  0  0  0  0  0  0  0  0  0  0  0
    6.9260   -2.9020   23.3300 C   0  0  0  0  0  0  0  0  0  0  0  0
    7.6700   -3.2580   22.2400 C   0  0  0  0  0  0  0  0  0  0  0  0
  1  2  1  0
  2  3  2  0
  2  4  1  0
  4  5  1  0
  5  6  1  0
  6  7  1  0
  7  8  1  0
  8  9  2  0
  8 10  1  0
 10 11  1  0
 11 12  1  0
 12 13  1  0
 10 14  1  0
 13 14  1  0
 14 15  1  1
 15 16  1  0
 16 17  1  0
 17 18  2  0
 18 19  1  0
 19 20  2  0
 20 21  1  0
 17 22  1  0
 20 22  1  0
  7 23  1  0
  4 24  1  0
 23 24  1  0
M  END
