piperidine-amides-14961-covalent
     RDKit          3D

 21 22  0  0  0  0  0  0  0  0999 V2000
    7.0140   -3.3360   19.3530 C   0  0  0  0  0  0  0  0  0  0  0  0
    6.3480   -4.1720   20.3510 C   0  0  0  0  0  0  0  0  0  0  0  0
    5.3760   -4.8490   19.9810 O   0  0  0  0  0  0  0  0  0  0  0  0
    6.8280   -4.2380   21.6890 N   0  0  0  0  0  0  0  0  0  0  0  0
    6.6560   -5.4580   22.4330 C   0  0  0  0  0  0  0  0  0  0  0  0
    6.0140   -5.1540   23.7580 C   0  0  0  0  0  0  0  0  0  0  0  0
    6.0200   -3.6510   23.8980 C   0  0  0  0  0  0  0  0  0  0  0  0
    5.6520   -3.2440   25.2970 C   0  0  0  0  0  0  0  0  0  0  0  0
    4.4570   -3.2980   25.5990 O   0  0  0  0  0  0  0  0  0  0  0  0
    6.6800   -2.8310   26.1320 N   0  0  0  0  0  0  0  0  0  0  0  0
    6.5910   -1.7020   27.0030 C   0  0  0  0  0  0  0  0  0  0  0  0
    7.0210   -1.6220   28.3360 C   0  0  0  0  0  0  0  0  0  0  0  0
    6.9180   -0.5030   29.1400 C   0  0  0  0  0  0  0  0  0  0  0  0
    6.3710    0.7280   28.7620 C   0  0  0  0  0  0  0  0  0  0  0  0
    5.8800    0.7430   27.3470 C   0  0  0  0  0  0  0  0  0  0  0  0
    5.2340    1.9740   26.6730 C   0  0  0  0  0  0  0  0  0  0  0  0
    3.8480    1.7210   26.2060 C   0  0  0  0  0  0  0  0  0  0  0  0
    2.7970    2.6520   26.4800 N   0  0  0  0  0  0  0  0  0  0  0  0
    5.9770   -0.4290   26.4740 C   0  0  0  0  0  0  0  0  0  0  0  0
    7.2750   -2.9810   23.5450 C   0  0  0  0  0  0  0  0  0  0  0  0
    7.6910   -3.2200   22.2580 C   0  0  0  0  0  0  0  0  0  0  0  0
  1  2  1  0
  2  3  2  0
  2  4  1  0
  4  5  1  0
  5  6  1  0
  6  7  1  0
  7  8  1  0
  8  9  2  0
  8 10  1  0
 10 11  1  0
 11 12  2  0
 12 13  1  0
 13 14  2  0
 14 15  1  0
 15 16  1  0
 16 17  1  0
 17 18  3  0
 11 19  1  0
 15 19  2  0
  7 20  1  0
  4 21  1  0
 20 21  1  0
M  END
