piperidine-amides-11286-covalent
     RDKit          3D

 18 18  0  0  0  0  0  0  0  0999 V2000
    7.1360   -3.2890   19.2130 C   0  0  0  0  0  0  0  0  0  0  0  0
    6.3290   -3.9810   20.2210 C   0  0  0  0  0  0  0  0  0  0  0  0
    5.2750   -4.5450   19.8820 O   0  0  0  0  0  0  0  0  0  0  0  0
    6.7550   -4.0570   21.5510 N   0  0  0  0  0  0  0  0  0  0  0  0
    7.7230   -3.1120   22.0730 C   0  0  0  0  0  0  0  0  0  0  0  0
    7.4980   -3.0550   23.5510 C   0  0  0  0  0  0  0  0  0  0  0  0
    6.1470   -3.5840   23.9100 C   0  0  0  0  0  0  0  0  0  0  0  0
    5.8200   -3.3660   25.3350 C   0  0  0  0  0  0  0  0  0  0  0  0
    4.6130   -3.2590   25.7040 O   0  0  0  0  0  0  0  0  0  0  0  0
    6.8230   -3.2570   26.3230 N   0  0  0  0  0  0  0  0  0  0  0  0
    7.3600   -4.4670   26.9830 C   0  0  2  0  0  0  0  0  0  0  0  0
    6.2850   -5.4640   27.1510 C   0  0  0  0  0  0  0  0  0  0  0  0
    6.3570   -6.2590   28.3900 C   0  0  0  0  0  0  0  0  0  0  0  0
    7.9110   -4.1560   28.3320 C   0  0  0  0  0  0  0  0  0  0  0  0
    7.8700   -2.6360   28.3500 C   0  0  0  0  0  0  0  0  0  0  0  0
    6.6670   -2.0210   28.9590 C   0  0  0  0  0  0  0  0  0  0  0  0
    6.0570   -5.0480   23.5340 C   0  0  0  0  0  0  0  0  0  0  0  0
    6.5570   -5.3100   22.2460 C   0  0  0  0  0  0  0  0  0  0  0  0
  1  2  1  0
  2  3  2  0
  2  4  1  0
  4  5  1  0
  5  6  1  0
  6  7  1  0
  7  8  1  0
  8  9  2  0
  8 10  1  0
 10 11  1  0
 11 12  1  1
 12 13  1  0
 11 14  1  0
 14 15  1  0
 15 16  2  3
  7 17  1  0
  4 18  1  0
 17 18  1  0
M  END
