piperidine-amides-6318-covalent
     RDKit          3D

 25 27  0  0  0  0  0  0  0  0999 V2000
    7.0880   -3.3420   19.3890 C   0  0  0  0  0  0  0  0  0  0  0  0
    6.3670   -4.1740   20.3620 C   0  0  0  0  0  0  0  0  0  0  0  0
    5.3910   -4.8600   19.9900 O   0  0  0  0  0  0  0  0  0  0  0  0
    6.7950   -4.2320   21.6970 N   0  0  0  0  0  0  0  0  0  0  0  0
    6.6660   -5.4860   22.4130 C   0  0  0  0  0  0  0  0  0  0  0  0
    6.0040   -5.1510   23.7530 C   0  0  0  0  0  0  0  0  0  0  0  0
    6.0480   -3.6460   23.8650 C   0  0  0  0  0  0  0  0  0  0  0  0
    5.5410   -3.1810   25.1730 C   0  0  0  0  0  0  0  0  0  0  0  0
    4.3070   -3.1550   25.3490 O   0  0  0  0  0  0  0  0  0  0  0  0
    6.4380   -2.7890   26.1870 N   0  0  0  0  0  0  0  0  0  0  0  0
    6.3610   -1.4930   26.8120 C   0  0  0  0  0  0  0  0  0  0  0  0
    6.0710   -0.2170   26.0530 C   0  0  0  0  0  0  0  0  0  0  0  0
    6.0180    0.9980   26.7090 C   0  0  0  0  0  0  0  0  0  0  0  0
    6.2440    1.0270   28.0680 C   0  0  0  0  0  0  0  0  0  0  0  0
    6.5040   -0.1470   28.7400 C   0  0  0  0  0  0  0  0  0  0  0  0
    6.5700   -1.3660   28.2650 C   0  0  0  0  0  0  0  0  0  0  0  0
    6.8300   -2.5060   29.2160 C   0  0  0  0  0  0  0  0  0  0  0  0
    7.6220   -1.2730   29.7860 C   0  0  0  0  0  0  0  0  0  0  0  0
    6.7360   -0.1010   29.9890 N   0  0  0  0  0  0  0  0  0  0  0  0
    5.4700    0.0400   31.0680 S   0  0  0  0  0  0  0  0  0  0  0  0
    6.3720    0.3010   32.4940 C   0  0  0  0  0  0  0  0  0  0  0  0
    4.6430    1.2600   30.7650 O   0  0  0  0  0  0  0  0  0  0  0  0
    4.6630   -1.2250   31.1330 O   0  0  0  0  0  0  0  0  0  0  0  0
    7.4530   -3.1610   23.6140 C   0  0  0  0  0  0  0  0  0  0  0  0
    7.6800   -3.2120   22.2330 C   0  0  0  0  0  0  0  0  0  0  0  0
  1  2  1  0
  2  3  2  0
  2  4  1  0
  4  5  1  0
  5  6  1  0
  6  7  1  0
  7  8  1  0
  8  9  2  0
  8 10  1  0
 10 11  1  0
 11 12  2  0
 12 13  1  0
 13 14  2  0
 14 15  1  0
 11 16  1  0
 15 16  2  0
 16 17  1  0
 17 18  1  0
 15 19  1  0
 18 19  1  0
 19 20  1  0
 20 21  1  0
 20 22  2  0
 20 23  2  0
  7 24  1  0
  4 25  1  0
 24 25  1  0
M  END
