piperidine-amides-2014-covalent
     RDKit          3D

 22 24  0  0  0  0  0  0  0  0999 V2000
    7.0410   -3.3160   19.2930 C   0  0  0  0  0  0  0  0  0  0  0  0
    6.3690   -4.1500   20.3230 C   0  0  0  0  0  0  0  0  0  0  0  0
    5.3640   -4.7610   19.9630 O   0  0  0  0  0  0  0  0  0  0  0  0
    6.9040   -4.2560   21.6210 N   0  0  0  0  0  0  0  0  0  0  0  0
    7.6550   -3.1780   22.2350 C   0  0  0  0  0  0  0  0  0  0  0  0
    7.1980   -2.9410   23.6600 C   0  0  0  0  0  0  0  0  0  0  0  0
    5.8890   -3.6970   23.8990 C   0  0  0  0  0  0  0  0  0  0  0  0
    5.3270   -3.4050   25.2420 C   0  0  0  0  0  0  0  0  0  0  0  0
    4.1010   -3.4300   25.3740 O   0  0  0  0  0  0  0  0  0  0  0  0
    6.1020   -3.1020   26.3780 N   0  0  0  0  0  0  0  0  0  0  0  0
    6.4560   -1.7210   26.5930 C   0  0  1  0  0  0  0  0  0  0  0  0
    5.3700   -0.8510   27.0810 C   0  0  0  0  0  0  0  0  0  0  0  0
    6.2110   -0.2460   27.9330 C   0  0  1  0  0  0  0  0  0  0  0  0
    6.0750   -0.1640   29.2680 C   0  0  0  0  0  0  0  0  0  0  0  0
    4.9590   -0.3300   30.1430 N   0  0  0  0  0  0  0  0  0  0  0  0
    5.2840   -0.1590   31.3970 N   0  0  0  0  0  0  0  0  0  0  0  0
    6.7140    0.1400   31.3700 C   0  0  0  0  0  0  0  0  0  0  0  0
    7.7340    0.4380   32.4530 C   0  0  0  0  0  0  0  0  0  0  0  0
    7.1650    0.1350   30.0680 O   0  0  0  0  0  0  0  0  0  0  0  0
    7.2480   -1.3400   27.8400 C   0  0  0  0  0  0  0  0  0  0  0  0
    6.0220   -5.1490   23.6880 C   0  0  0  0  0  0  0  0  0  0  0  0
    6.5980   -5.4530   22.3530 C   0  0  0  0  0  0  0  0  0  0  0  0
  1  2  1  0
  2  3  2  0
  2  4  1  0
  4  5  1  0
  5  6  1  0
  6  7  1  0
  7  8  1  0
  8  9  2  0
  8 10  1  0
 11 10  1  1
 11 12  1  0
 12 13  1  0
 13 14  1  1
 14 15  2  0
 15 16  1  0
 16 17  2  0
 17 18  1  0
 14 19  1  0
 17 19  1  0
 11 20  1  0
 13 20  1  0
  7 21  1  0
  4 22  1  0
 21 22  1  0
M  END
