piperidine-amides-23780-covalent
     RDKit          3D

 24 26  0  0  0  0  0  0  0  0999 V2000
    6.9980   -3.3810   19.3980 C   0  0  0  0  0  0  0  0  0  0  0  0
    6.3460   -4.2770   20.3730 C   0  0  0  0  0  0  0  0  0  0  0  0
    5.3340   -4.8970   19.9750 O   0  0  0  0  0  0  0  0  0  0  0  0
    6.8530   -4.4730   21.6830 N   0  0  0  0  0  0  0  0  0  0  0  0
    6.3530   -5.5590   22.4550 C   0  0  0  0  0  0  0  0  0  0  0  0
    5.8160   -5.1910   23.7790 C   0  0  0  0  0  0  0  0  0  0  0  0
    6.3340   -3.9300   24.3630 C   0  0  0  0  0  0  0  0  0  0  0  0
    5.4030   -3.3600   25.4300 C   0  0  0  0  0  0  0  0  0  0  0  0
    4.3830   -2.7810   25.0230 O   0  0  0  0  0  0  0  0  0  0  0  0
    5.5780   -3.4350   26.8600 N   0  0  0  0  0  0  0  0  0  0  0  0
    4.7370   -4.0510   27.7810 C   0  0  0  0  0  0  0  0  0  0  0  0
    5.3280   -5.0890   28.5950 C   0  0  0  0  0  0  0  0  0  0  0  0
    6.7550   -4.6230   28.8760 C   0  0  0  0  0  0  0  0  0  0  0  0
    7.5810   -4.4930   27.7920 C   0  0  0  0  0  0  0  0  0  0  0  0
    6.8750   -3.1590   27.4590 C   0  0  1  0  0  0  0  0  0  0  0  0
    7.6130   -2.9350   26.2580 C   0  0  0  0  0  0  0  0  0  0  0  0
    8.1290   -4.3070   26.1640 C   0  0  0  0  0  0  0  0  0  0  0  0
    8.9650   -4.6920   25.0620 C   0  0  0  0  0  0  0  0  0  0  0  0
    9.2510   -3.5800   24.0310 C   0  0  0  0  0  0  0  0  0  0  0  0
    8.6930   -2.1410   24.1820 C   0  0  0  0  0  0  0  0  0  0  0  0
    9.0310   -1.2270   23.1980 F   0  0  0  0  0  0  0  0  0  0  0  0
    7.8540   -1.9360   25.3810 C   0  0  0  0  0  0  0  0  0  0  0  0
    6.5810   -2.9100   23.2910 C   0  0  0  0  0  0  0  0  0  0  0  0
    7.4870   -3.3900   22.3620 C   0  0  0  0  0  0  0  0  0  0  0  0
  1  2  1  0
  2  3  2  0
  2  4  1  0
  4  5  1  0
  5  6  1  0
  6  7  1  0
  7  8  1  0
  8  9  2  0
  8 10  1  0
 10 11  1  0
 11 12  1  0
 12 13  1  0
 13 14  1  0
 10 15  1  0
 14 15  1  0
 15 16  1  6
 16 17  2  0
 17 18  1  0
 18 19  2  0
 19 20  1  0
 20 21  1  0
 16 22  1  0
 20 22  2  0
  7 23  1  0
  4 24  1  0
 23 24  1  0
M  END
