piperidine-amides-17158-covalent
     RDKit          3D

 20 21  0  0  0  0  0  0  0  0999 V2000
    7.0980   -3.3610   19.3220 C   0  0  0  0  0  0  0  0  0  0  0  0
    6.4330   -4.2070   20.3200 C   0  0  0  0  0  0  0  0  0  0  0  0
    5.3630   -4.7590   19.9650 O   0  0  0  0  0  0  0  0  0  0  0  0
    7.0190   -4.4480   21.5890 N   0  0  0  0  0  0  0  0  0  0  0  0
    6.5370   -5.5380   22.3520 C   0  0  0  0  0  0  0  0  0  0  0  0
    5.9210   -5.1580   23.6230 C   0  0  0  0  0  0  0  0  0  0  0  0
    6.4350   -3.9350   24.2860 C   0  0  0  0  0  0  0  0  0  0  0  0
    5.4200   -3.4510   25.2830 C   0  0  0  0  0  0  0  0  0  0  0  0
    4.4930   -2.7230   24.8970 O   0  0  0  0  0  0  0  0  0  0  0  0
    5.4900   -3.7960   26.6400 N   0  0  0  0  0  0  0  0  0  0  0  0
    4.5680   -3.5460   27.6450 C   0  0  0  0  0  0  0  0  0  0  0  0
    4.9380   -4.0350   28.9540 C   0  0  1  0  0  0  0  0  0  0  0  0
    3.6590   -4.5280   29.6580 C   0  0  0  0  0  0  0  0  0  0  0  0
    5.6770   -5.0660   28.9960 O   0  0  0  0  0  0  0  0  0  0  0  0
    6.8410   -4.9080   28.2370 C   0  0  1  0  0  0  0  0  0  0  0  0
    6.9480   -5.9580   27.1480 C   0  0  0  0  0  0  0  0  0  0  0  0
    5.6620   -6.5760   27.5980 C   0  0  0  0  0  0  0  0  0  0  0  0
    6.7610   -3.8640   27.1830 C   0  0  0  0  0  0  0  0  0  0  0  0
    6.8180   -2.8190   23.3390 C   0  0  0  0  0  0  0  0  0  0  0  0
    7.7300   -3.3960   22.2810 C   0  0  0  0  0  0  0  0  0  0  0  0
  1  2  1  0
  2  3  2  0
  2  4  1  0
  4  5  1  0
  5  6  1  0
  6  7  1  0
  7  8  1  0
  8  9  2  0
  8 10  1  0
 10 11  1  0
 11 12  1  0
 12 13  1  1
 12 14  1  0
 14 15  1  0
 15 16  1  6
 16 17  1  0
 10 18  1  0
 15 18  1  0
  7 19  1  0
  4 20  1  0
 19 20  1  0
M  END
