piperidine-amides-35680-covalent
     RDKit          3D

 44 48  0  0  0  0  0  0  0  0999 V2000
    7.1180   -3.2960   19.2680 C   0  0  0  0  0  0  0  0  0  0  0  0
    6.3550   -4.0500   20.2930 C   0  0  0  0  0  0  0  0  0  0  0  0
    5.3130   -4.5830   19.9120 O   0  0  0  0  0  0  0  0  0  0  0  0
    6.8460   -4.1800   21.6010 N   0  0  0  0  0  0  0  0  0  0  0  0
    6.6370   -5.3920   22.3530 C   0  0  0  0  0  0  0  0  0  0  0  0
    6.1600   -5.0610   23.7460 C   0  0  0  0  0  0  0  0  0  0  0  0
    6.0330   -3.5440   23.9120 C   0  0  0  0  0  0  0  0  0  0  0  0
    5.4970   -3.1940   25.2550 C   0  0  0  0  0  0  0  0  0  0  0  0
    4.2740   -3.0500   25.3780 O   0  0  0  0  0  0  0  0  0  0  0  0
    6.3120   -2.9770   26.3840 N   0  0  0  0  0  0  0  0  0  0  0  0
    6.0890   -3.7270   27.6210 C   0  0  0  0  0  0  0  0  0  0  0  0
    5.6450   -5.1590   27.3500 C   0  0  0  0  0  0  0  0  0  0  0  0
    4.9590   -5.5310   26.2260 C   0  0  0  0  0  0  0  0  0  0  0  0
    3.6210   -5.9940   26.1590 N   0  0  0  0  0  0  0  0  0  0  0  0
    2.6990   -5.3060   25.2700 C   0  0  0  0  0  0  0  0  0  0  0  0
    2.0540   -6.1360   24.4000 C   0  0  0  0  0  0  0  0  0  0  0  0
    1.8540   -7.6210   24.5830 C   0  0  0  0  0  0  0  0  0  0  0  0
    2.7300   -8.5000   23.9860 O   0  0  0  0  0  0  0  0  0  0  0  0
    2.0930   -7.4810   26.0540 C   0  0  0  0  0  0  0  0  0  0  0  0
    3.5890   -7.4360   26.1360 C   0  0  0  0  0  0  0  0  0  0  0  0
    6.6380   -1.5720   26.5170 C   0  0  0  0  0  0  0  0  0  0  0  0
    5.4410   -0.6620   26.5460 C   0  0  0  0  0  0  0  0  0  0  0  0
    4.0950   -0.9900   27.0660 C   0  0  0  0  0  0  0  0  0  0  0  0
    3.4310    0.0960   26.8770 N   0  0  0  0  0  0  0  0  0  0  0  0
    2.1670    0.1340   27.2450 C   0  0  0  0  0  0  0  0  0  0  0  0
    1.8410   -0.7500   28.4400 C   0  0  0  0  0  0  0  0  0  0  0  0
    0.5250   -0.7590   28.8820 C   0  0  0  0  0  0  0  0  0  0  0  0
   -0.5410    0.0700   28.2090 C   0  0  0  0  0  0  0  0  0  0  0  0
   -0.1570    0.9370   27.0170 C   0  0  0  0  0  0  0  0  0  0  0  0
    1.2870    0.9220   26.5640 C   0  0  0  0  0  0  0  0  0  0  0  0
    4.0530    1.1420   26.3140 N   0  0  0  0  0  0  0  0  0  0  0  0
    5.4420    0.6540   26.0730 C   0  0  0  0  0  0  0  0  0  0  0  0
    6.6050    1.4540   25.4400 C   0  0  0  0  0  0  0  0  0  0  0  0
    7.2110    1.0720   24.1370 C   0  0  0  0  0  0  0  0  0  0  0  0
    8.3490    1.8550   23.5260 C   0  0  0  0  0  0  0  0  0  0  0  0
    8.9190    3.0580   24.2130 C   0  0  0  0  0  0  0  0  0  0  0  0
    9.8760    3.7380   23.7460 O   0  0  0  0  0  0  0  0  0  0  0  0
   10.1190    5.1100   23.8710 C   0  0  0  0  0  0  0  0  0  0  0  0
   11.1610    5.5050   22.8120 C   0  0  0  0  0  0  0  0  0  0  0  0
   10.7600    5.3400   25.2480 C   0  0  0  0  0  0  0  0  0  0  0  0
    8.3360    3.4060   25.4310 C   0  0  0  0  0  0  0  0  0  0  0  0
    7.1710    2.5790   26.0240 C   0  0  0  0  0  0  0  0  0  0  0  0
    7.3190   -2.8570   23.5850 C   0  0  0  0  0  0  0  0  0  0  0  0
    7.6700   -3.1250   22.1540 C   0  0  0  0  0  0  0  0  0  0  0  0
  1  2  1  0
  2  3  2  0
  2  4  1  0
  4  5  1  0
  5  6  1  0
  6  7  1  0
  7  8  1  0
  8  9  2  0
  8 10  1  0
 10 11  1  0
 11 12  1  0
 12 13  1  0
 13 14  1  0
 14 15  1  0
 15 16  1  0
 16 17  1  0
 17 18  1  0
 17 19  1  0
 14 20  1  0
 19 20  1  0
 10 21  1  0
 21 22  1  0
 22 23  2  0
 23 24  1  0
 24 25  1  0
 25 26  2  0
 26 27  1  0
 27 28  2  0
 28 29  1  0
 25 30  1  0
 29 30  2  0
 24 31  1  0
 22 32  1  0
 31 32  2  0
 32 33  1  0
 33 34  2  0
 34 35  1  0
 35 36  2  0
 36 37  1  0
 37 38  1  0
 38 39  1  0
 38 40  1  0
 36 41  1  0
 33 42  1  0
 41 42  2  0
  7 43  1  0
  4 44  1  0
 43 44  1  0
M  END
