piperidine-amides-4971-covalent
     RDKit          3D

 23 25  0  0  0  0  0  0  0  0999 V2000
    7.0600   -3.3390   19.2680 C   0  0  0  0  0  0  0  0  0  0  0  0
    6.3800   -4.1490   20.3040 C   0  0  0  0  0  0  0  0  0  0  0  0
    5.3370   -4.7340   19.9490 O   0  0  0  0  0  0  0  0  0  0  0  0
    6.9220   -4.2890   21.5920 N   0  0  0  0  0  0  0  0  0  0  0  0
    7.7190   -3.2540   22.1730 C   0  0  0  0  0  0  0  0  0  0  0  0
    7.3320   -2.9650   23.5400 C   0  0  0  0  0  0  0  0  0  0  0  0
    6.0620   -3.6180   23.8940 C   0  0  0  0  0  0  0  0  0  0  0  0
    5.6800   -3.2830   25.2760 C   0  0  0  0  0  0  0  0  0  0  0  0
    4.4770   -3.3920   25.6040 O   0  0  0  0  0  0  0  0  0  0  0  0
    6.6350   -2.8250   26.1900 N   0  0  0  0  0  0  0  0  0  0  0  0
    6.2590   -2.3580   27.5270 C   0  0  0  0  0  0  0  0  0  0  0  0
    5.2010   -3.1070   28.2630 C   0  0  0  0  0  0  0  0  0  0  0  0
    5.4130   -4.5300   28.5220 C   0  0  0  0  0  0  0  0  0  0  0  0
    4.4660   -5.2610   29.1950 C   0  0  0  0  0  0  0  0  0  0  0  0
    3.2980   -4.6790   29.6450 C   0  0  0  0  0  0  0  0  0  0  0  0
    3.0970   -3.3540   29.4090 C   0  0  0  0  0  0  0  0  0  0  0  0
    1.8650   -2.9080   29.9280 O   0  0  0  0  0  0  0  0  0  0  0  0
    1.3520   -3.4150   31.1260 C   0  0  0  0  0  0  0  0  0  0  0  0
    4.0000   -2.5470   28.7370 C   0  0  0  0  0  0  0  0  0  0  0  0
    6.9400   -1.1030   28.1420 C   0  0  0  0  0  0  0  0  0  0  0  0
    5.8380   -0.8530   27.4100 C   0  0  0  0  0  0  0  0  0  0  0  0
    6.0470   -5.0950   23.6840 C   0  0  0  0  0  0  0  0  0  0  0  0
    6.6830   -5.4860   22.3780 C   0  0  0  0  0  0  0  0  0  0  0  0
  1  2  1  0
  2  3  2  0
  2  4  1  0
  4  5  1  0
  5  6  1  0
  6  7  1  0
  7  8  1  0
  8  9  2  0
  8 10  1  0
 10 11  1  0
 11 12  1  0
 12 13  2  0
 13 14  1  0
 14 15  2  0
 15 16  1  0
 16 17  1  0
 17 18  1  0
 12 19  1  0
 16 19  2  0
 11 20  1  0
 11 21  1  0
 20 21  1  0
  7 22  1  0
  4 23  1  0
 22 23  1  0
M  END
