piperidine-amides-27649-covalent
     RDKit          3D

 26 28  0  0  0  0  0  0  0  0999 V2000
    7.0170   -3.3880   19.4210 C   0  0  0  0  0  0  0  0  0  0  0  0
    6.3920   -4.2670   20.4150 C   0  0  0  0  0  0  0  0  0  0  0  0
    5.4090   -4.9410   20.0040 O   0  0  0  0  0  0  0  0  0  0  0  0
    6.9010   -4.3720   21.7250 N   0  0  0  0  0  0  0  0  0  0  0  0
    6.6150   -5.5510   22.5330 C   0  0  0  0  0  0  0  0  0  0  0  0
    6.1590   -5.1430   23.9270 C   0  0  0  0  0  0  0  0  0  0  0  0
    6.1700   -3.6520   24.1090 C   0  0  0  0  0  0  0  0  0  0  0  0
    5.7140   -3.1590   25.4450 C   0  0  0  0  0  0  0  0  0  0  0  0
    5.4810   -1.9430   25.4930 O   0  0  0  0  0  0  0  0  0  0  0  0
    5.4820   -3.8980   26.6400 N   0  0  0  0  0  0  0  0  0  0  0  0
    4.2640   -4.6120   26.8290 C   0  0  0  0  0  0  0  0  0  0  0  0
    3.8160   -4.7250   28.2890 C   0  0  0  0  0  0  0  0  0  0  0  0
    4.6210   -4.8940   29.3610 C   0  0  0  0  0  0  0  0  0  0  0  0
    5.7910   -5.5220   29.2180 C   0  0  0  0  0  0  0  0  0  0  0  0
    6.6420   -4.8850   28.3950 C   0  0  0  0  0  0  0  0  0  0  0  0
    6.2710   -3.6730   27.7820 C   0  0  2  0  0  0  0  0  0  0  0  0
    5.9490   -2.5720   28.5710 C   0  0  1  0  0  0  0  0  0  0  0  0
    6.9130   -1.4230   28.4100 C   0  0  0  0  0  0  0  0  0  0  0  0
    4.6370   -2.1690   28.5620 C   0  0  0  0  0  0  0  0  0  0  0  0
    3.7530   -2.0810   27.3290 C   0  0  0  0  0  0  0  0  0  0  0  0
    2.2960   -1.6260   27.3350 C   0  0  0  0  0  0  0  0  0  0  0  0
    1.7040   -1.2610   28.5320 C   0  0  0  0  0  0  0  0  0  0  0  0
    2.5370   -1.3260   29.8020 C   0  0  0  0  0  0  0  0  0  0  0  0
    3.9830   -1.7880   29.7090 C   0  0  0  0  0  0  0  0  0  0  0  0
    7.4780   -3.1030   23.6820 C   0  0  0  0  0  0  0  0  0  0  0  0
    7.7090   -3.2950   22.2400 C   0  0  0  0  0  0  0  0  0  0  0  0
  1  2  1  0
  2  3  2  0
  2  4  1  0
  4  5  1  0
  5  6  1  0
  6  7  1  0
  7  8  1  0
  8  9  2  0
  8 10  1  0
 10 11  1  0
 11 12  1  0
 12 13  1  0
 13 14  1  0
 14 15  1  0
 10 16  1  0
 16 15  1  1
 16 17  1  0
 17 18  1  6
 17 19  1  0
 19 20  2  0
 20 21  1  0
 21 22  2  0
 22 23  1  0
 19 24  1  0
 23 24  2  0
  7 25  1  0
  4 26  1  0
 25 26  1  0
M  END
