piperidine-amides-7426-covalent
     RDKit          3D

 19 20  0  0  0  0  0  0  0  0999 V2000
    7.1510   -3.2870   19.2160 C   0  0  0  0  0  0  0  0  0  0  0  0
    6.3410   -3.9870   20.2140 C   0  0  0  0  0  0  0  0  0  0  0  0
    5.2350   -4.4470   19.8380 O   0  0  0  0  0  0  0  0  0  0  0  0
    6.8390   -4.1660   21.4980 N   0  0  0  0  0  0  0  0  0  0  0  0
    7.6850   -3.1750   22.1180 C   0  0  0  0  0  0  0  0  0  0  0  0
    6.9960   -2.7060   23.3560 C   0  0  0  0  0  0  0  0  0  0  0  0
    6.4900   -3.8720   24.1540 C   0  0  0  0  0  0  0  0  0  0  0  0
    5.8320   -3.3370   25.3620 C   0  0  0  0  0  0  0  0  0  0  0  0
    4.5850   -3.3820   25.4430 O   0  0  0  0  0  0  0  0  0  0  0  0
    6.5710   -2.7630   26.4030 N   0  0  0  0  0  0  0  0  0  0  0  0
    6.2500   -2.9840   27.7870 C   0  0  0  0  0  0  0  0  0  0  0  0
    5.7360   -4.3760   28.1130 C   0  0  0  0  0  0  0  0  0  0  0  0
    4.3770   -4.8630   27.7280 N   0  0  0  0  0  0  0  0  0  0  0  0
    4.1840   -6.1010   28.1550 C   0  0  0  0  0  0  0  0  0  0  0  0
    5.2700   -6.5760   28.8190 C   0  0  0  0  0  0  0  0  0  0  0  0
    5.4480   -7.8070   29.4190 C   0  0  0  0  0  0  0  0  0  0  0  0
    6.6490   -5.6260   29.0060 S   0  0  0  0  0  0  0  0  0  0  0  0
    5.6130   -4.7340   23.3070 C   0  0  0  0  0  0  0  0  0  0  0  0
    6.3770   -5.2560   22.2910 C   0  0  0  0  0  0  0  0  0  0  0  0
  1  2  1  0
  2  3  2  0
  2  4  1  0
  4  5  1  0
  5  6  1  0
  6  7  1  0
  7  8  1  0
  8  9  2  0
  8 10  1  0
 10 11  1  0
 11 12  1  0
 12 13  2  0
 13 14  1  0
 14 15  2  0
 15 16  1  0
 12 17  1  0
 15 17  1  0
  7 18  1  0
  4 19  1  0
 18 19  1  0
M  END
