piperidine-amides-19562-covalent
     RDKit          3D

 22 24  0  0  0  0  0  0  0  0999 V2000
    7.0900   -3.3690   19.4800 C   0  0  0  0  0  0  0  0  0  0  0  0
    6.2980   -4.2050   20.3550 C   0  0  0  0  0  0  0  0  0  0  0  0
    5.2310   -4.7110   19.9090 O   0  0  0  0  0  0  0  0  0  0  0  0
    6.6790   -4.5140   21.6650 N   0  0  0  0  0  0  0  0  0  0  0  0
    5.9120   -5.5800   22.3460 C   0  0  0  0  0  0  0  0  0  0  0  0
    5.7020   -5.0070   23.8180 C   0  0  0  0  0  0  0  0  0  0  0  0
    5.5520   -3.4990   23.6980 C   0  0  0  0  0  0  0  0  0  0  0  0
    4.7030   -2.6960   24.8140 C   0  0  0  0  0  0  0  0  0  0  0  0
    4.1950   -1.7750   24.2370 O   0  0  0  0  0  0  0  0  0  0  0  0
    4.6990   -3.1050   26.0270 N   0  0  0  0  0  0  0  0  0  0  0  0
    4.2500   -3.5480   27.2570 C   0  0  0  0  0  0  0  0  0  0  0  0
    4.9210   -3.7750   28.3870 C   0  0  0  0  0  0  0  0  0  0  0  0
    6.0880   -3.6630   27.7260 C   0  0  0  0  0  0  0  0  0  0  0  0
    5.8950   -2.5780   26.7290 C   0  0  1  0  0  0  0  0  0  0  0  0
    7.0530   -2.7690   25.7350 C   0  0  0  0  0  0  0  0  0  0  0  0
    6.9960   -4.0360   25.2420 C   0  0  0  0  0  0  0  0  0  0  0  0
    8.0740   -3.9940   24.4430 C   0  0  0  0  0  0  0  0  0  0  0  0
    7.8020   -5.4560   24.0770 C   0  0  0  0  0  0  0  0  0  0  0  0
    8.7930   -2.8890   24.3400 N   0  0  0  0  0  0  0  0  0  0  0  0
    8.1740   -2.0190   25.1700 O   0  0  0  0  0  0  0  0  0  0  0  0
    6.6730   -2.7400   23.0320 C   0  0  0  0  0  0  0  0  0  0  0  0
    7.5070   -3.6100   22.3880 C   0  0  0  0  0  0  0  0  0  0  0  0
  1  2  1  0
  2  3  2  0
  2  4  1  0
  4  5  1  0
  5  6  1  0
  6  7  1  0
  7  8  1  0
  8  9  2  0
  8 10  1  0
 10 11  1  0
 11 12  1  0
 12 13  1  0
 10 14  1  0
 13 14  1  0
 14 15  1  6
 15 16  2  0
 16 17  1  0
 17 18  1  0
 17 19  2  0
 15 20  1  0
 19 20  1  0
  7 21  1  0
  4 22  1  0
 21 22  1  0
M  END
