piperidine-amides-2681-covalent
     RDKit          3D

 25 27  0  0  0  0  0  0  0  0999 V2000
    7.1010   -3.3330   19.3210 C   0  0  0  0  0  0  0  0  0  0  0  0
    6.4110   -4.1740   20.2880 C   0  0  0  0  0  0  0  0  0  0  0  0
    5.3830   -4.7740   19.9660 O   0  0  0  0  0  0  0  0  0  0  0  0
    6.9640   -4.3490   21.6010 N   0  0  0  0  0  0  0  0  0  0  0  0
    6.5410   -5.4550   22.4070 C   0  0  0  0  0  0  0  0  0  0  0  0
    5.7580   -4.9450   23.5850 C   0  0  0  0  0  0  0  0  0  0  0  0
    6.5580   -3.8440   24.2750 C   0  0  0  0  0  0  0  0  0  0  0  0
    5.7790   -3.2690   25.4020 C   0  0  0  0  0  0  0  0  0  0  0  0
    4.5530   -3.0480   25.3230 O   0  0  0  0  0  0  0  0  0  0  0  0
    6.4570   -2.9670   26.6010 N   0  0  0  0  0  0  0  0  0  0  0  0
    6.3820   -1.6430   27.1700 C   0  0  0  0  0  0  0  0  0  0  0  0
    7.0020   -1.5620   28.5340 C   0  0  0  0  0  0  0  0  0  0  0  0
    7.0070   -0.3720   29.2130 C   0  0  0  0  0  0  0  0  0  0  0  0
    6.4170    0.7210   28.5730 C   0  0  0  0  0  0  0  0  0  0  0  0
    6.2680    1.9980   28.9740 C   0  0  0  0  0  0  0  0  0  0  0  0
    5.5980    2.8000   27.9980 C   0  0  0  0  0  0  0  0  0  0  0  0
    5.3330    1.9610   26.9610 N   0  0  0  0  0  0  0  0  0  0  0  0
    4.6650    2.2750   25.7200 C   0  0  0  0  0  0  0  0  0  0  0  0
    4.8680    3.5990   25.3840 C   0  0  0  0  0  0  0  0  0  0  0  0
    4.4350    4.4090   26.4200 O   0  0  0  0  0  0  0  0  0  0  0  0
    3.1330    4.1020   26.8290 C   0  0  0  0  0  0  0  0  0  0  0  0
    5.8260    0.7080   27.3050 C   0  0  0  0  0  0  0  0  0  0  0  0
    5.8110   -0.4910   26.5970 C   0  0  0  0  0  0  0  0  0  0  0  0
    6.9120   -2.7300   23.3410 C   0  0  0  0  0  0  0  0  0  0  0  0
    7.6670   -3.2570   22.1790 C   0  0  0  0  0  0  0  0  0  0  0  0
  1  2  1  0
  2  3  2  0
  2  4  1  0
  4  5  1  0
  5  6  1  0
  6  7  1  0
  7  8  1  0
  8  9  2  0
  8 10  1  0
 10 11  1  0
 11 12  2  0
 12 13  1  0
 13 14  2  0
 14 15  1  0
 15 16  2  0
 16 17  1  0
 17 18  1  0
 18 19  1  0
 19 20  1  0
 20 21  1  0
 14 22  1  0
 17 22  1  0
 11 23  1  0
 22 23  2  0
  7 24  1  0
  4 25  1  0
 24 25  1  0
M  END
