piperidine-amides-9286-covalent
     RDKit          3D

 19 19  0  0  0  0  0  0  0  0999 V2000
    7.0910   -3.2730   19.2140 C   0  0  0  0  0  0  0  0  0  0  0  0
    6.3340   -4.0020   20.2380 C   0  0  0  0  0  0  0  0  0  0  0  0
    5.3120   -4.6260   19.9080 O   0  0  0  0  0  0  0  0  0  0  0  0
    6.7590   -4.0480   21.5740 N   0  0  0  0  0  0  0  0  0  0  0  0
    7.7060   -3.0820   22.0970 C   0  0  0  0  0  0  0  0  0  0  0  0
    7.4760   -3.0250   23.5790 C   0  0  0  0  0  0  0  0  0  0  0  0
    6.1260   -3.5480   23.9600 C   0  0  0  0  0  0  0  0  0  0  0  0
    5.8160   -3.3570   25.4030 C   0  0  0  0  0  0  0  0  0  0  0  0
    4.6250   -3.4850   25.8200 O   0  0  0  0  0  0  0  0  0  0  0  0
    6.8040   -2.9870   26.3570 N   0  0  0  0  0  0  0  0  0  0  0  0
    7.2910   -3.8980   27.4300 C   0  0  1  0  0  0  0  0  0  0  0  0
    6.7520   -5.2760   27.2530 C   0  0  0  0  0  0  0  0  0  0  0  0
    6.5420   -6.0470   28.4990 C   0  0  0  0  0  0  0  0  0  0  0  0
    8.8040   -3.8220   27.5170 C   0  0  0  0  0  0  0  0  0  0  0  0
    9.3300   -5.2220   27.7180 C   0  0  0  0  0  0  0  0  0  0  0  0
    9.6080   -5.8060   26.3880 C   0  0  0  0  0  0  0  0  0  0  0  0
    8.7630   -5.4820   25.3750 O   0  0  0  0  0  0  0  0  0  0  0  0
    5.9940   -5.0040   23.5530 C   0  0  0  0  0  0  0  0  0  0  0  0
    6.5590   -5.2830   22.2970 C   0  0  0  0  0  0  0  0  0  0  0  0
  1  2  1  0
  2  3  2  0
  2  4  1  0
  4  5  1  0
  5  6  1  0
  6  7  1  0
  7  8  1  0
  8  9  2  0
  8 10  1  0
 10 11  1  0
 11 12  1  6
 12 13  1  0
 11 14  1  0
 14 15  1  0
 15 16  1  0
 16 17  1  0
  7 18  1  0
  4 19  1  0
 18 19  1  0
M  END
