piperidine-amides-1038-covalent
     RDKit          3D

 24 26  0  0  0  0  0  0  0  0999 V2000
    7.1620   -3.2710   19.2170 C   0  0  0  0  0  0  0  0  0  0  0  0
    6.4020   -4.0570   20.2220 C   0  0  0  0  0  0  0  0  0  0  0  0
    5.3170   -4.5670   19.8970 O   0  0  0  0  0  0  0  0  0  0  0  0
    6.9650   -4.2430   21.4980 N   0  0  0  0  0  0  0  0  0  0  0  0
    6.5220   -5.3140   22.3410 C   0  0  0  0  0  0  0  0  0  0  0  0
    5.6360   -4.6470   23.3990 C   0  0  0  0  0  0  0  0  0  0  0  0
    6.4820   -3.7150   24.2160 C   0  0  0  0  0  0  0  0  0  0  0  0
    5.7480   -3.2600   25.4140 C   0  0  0  0  0  0  0  0  0  0  0  0
    4.5510   -3.0090   25.2460 O   0  0  0  0  0  0  0  0  0  0  0  0
    6.3910   -3.1290   26.6490 N   0  0  0  0  0  0  0  0  0  0  0  0
    5.8160   -3.4670   27.8990 C   0  0  2  0  0  0  0  0  0  0  0  0
    5.5390   -2.5030   28.8510 C   0  0  0  0  0  0  0  0  0  0  0  0
    4.1970   -2.4410   29.3250 C   0  0  0  0  0  0  0  0  0  0  0  0
    3.7610   -1.5380   30.2730 C   0  0  0  0  0  0  0  0  0  0  0  0
    2.4360   -1.6240   30.6080 F   0  0  0  0  0  0  0  0  0  0  0  0
    4.6780   -0.5600   30.8660 C   0  0  0  0  0  0  0  0  0  0  0  0
    6.1210   -0.5480   30.4260 C   0  0  0  0  0  0  0  0  0  0  0  0
    6.4460   -1.6060   29.3710 C   0  0  0  0  0  0  0  0  0  0  0  0
    7.7690   -1.5680   28.9890 F   0  0  0  0  0  0  0  0  0  0  0  0
    6.2800   -4.6340   28.4820 C   0  0  0  0  0  0  0  0  0  0  0  0
    5.5010   -5.4700   29.2070 C   0  0  0  0  0  0  0  0  0  0  0  0
    6.0670   -5.7770   27.7160 C   0  0  0  0  0  0  0  0  0  0  0  0
    6.9720   -2.6320   23.3580 C   0  0  0  0  0  0  0  0  0  0  0  0
    7.6970   -3.1800   22.1270 C   0  0  0  0  0  0  0  0  0  0  0  0
  1  2  1  0
  2  3  2  0
  2  4  1  0
  4  5  1  0
  5  6  1  0
  6  7  1  0
  7  8  1  0
  8  9  2  0
  8 10  1  0
 11 10  1  6
 11 12  1  0
 12 13  2  0
 13 14  1  0
 14 15  1  0
 14 16  2  0
 16 17  1  0
 12 18  1  0
 17 18  2  0
 18 19  1  0
 11 20  1  0
 20 21  1  0
 20 22  1  0
 21 22  1  0
  7 23  1  0
  4 24  1  0
 23 24  1  0
M  END
