piperidine-amides-7108-covalent
     RDKit          3D

 21 22  0  0  0  0  0  0  0  0999 V2000
    7.0850   -3.3210   19.2980 C   0  0  0  0  0  0  0  0  0  0  0  0
    6.4050   -4.1700   20.2890 C   0  0  0  0  0  0  0  0  0  0  0  0
    5.3800   -4.8140   19.9700 O   0  0  0  0  0  0  0  0  0  0  0  0
    6.9290   -4.2990   21.5840 N   0  0  0  0  0  0  0  0  0  0  0  0
    6.5460   -5.4250   22.4030 C   0  0  0  0  0  0  0  0  0  0  0  0
    5.7060   -4.8560   23.5590 C   0  0  0  0  0  0  0  0  0  0  0  0
    6.5590   -3.7920   24.2210 C   0  0  0  0  0  0  0  0  0  0  0  0
    5.8730   -3.2610   25.4140 C   0  0  0  0  0  0  0  0  0  0  0  0
    4.6360   -3.4200   25.5160 O   0  0  0  0  0  0  0  0  0  0  0  0
    6.6460   -2.5840   26.3840 N   0  0  0  0  0  0  0  0  0  0  0  0
    6.0260   -1.6630   27.2890 C   0  0  2  0  0  0  0  0  0  0  0  0
    5.6610   -0.4160   26.5290 C   0  0  0  0  0  0  0  0  0  0  0  0
    5.4470    0.7000   27.2760 C   0  0  0  0  0  0  0  0  0  0  0  0
    6.2680    0.9120   28.3560 C   0  0  0  0  0  0  0  0  0  0  0  0
    6.6650   -0.2230   29.1360 N   0  0  0  0  0  0  0  0  0  0  0  0
    7.1900   -0.0770   30.4080 C   0  0  0  0  0  0  0  0  0  0  0  0
    6.2580   -0.0190   31.4150 C   0  0  0  0  0  0  0  0  0  0  0  0
    8.4770    0.0360   30.8100 O   0  0  0  0  0  0  0  0  0  0  0  0
    6.9840   -1.2590   28.3270 C   0  0  0  0  0  0  0  0  0  0  0  0
    6.9580   -2.6910   23.3060 C   0  0  0  0  0  0  0  0  0  0  0  0
    7.7460   -3.2590   22.1850 C   0  0  0  0  0  0  0  0  0  0  0  0
  1  2  1  0
  2  3  2  0
  2  4  1  0
  4  5  1  0
  5  6  1  0
  6  7  1  0
  7  8  1  0
  8  9  2  0
  8 10  1  0
 11 10  1  6
 11 12  1  0
 12 13  1  0
 13 14  1  0
 14 15  1  0
 15 16  1  0
 16 17  1  0
 16 18  2  0
 11 19  1  0
 15 19  1  0
  7 20  1  0
  4 21  1  0
 20 21  1  0
M  END
