piperidine-amides-27613-covalent
     RDKit          3D

 26 29  0  0  0  0  0  0  0  0999 V2000
    7.0360   -3.3750   19.3850 C   0  0  0  0  0  0  0  0  0  0  0  0
    6.4200   -4.2500   20.3880 C   0  0  0  0  0  0  0  0  0  0  0  0
    5.4160   -4.9090   20.0000 O   0  0  0  0  0  0  0  0  0  0  0  0
    6.9720   -4.3500   21.6760 N   0  0  0  0  0  0  0  0  0  0  0  0
    6.7230   -5.4780   22.5420 C   0  0  0  0  0  0  0  0  0  0  0  0
    6.8790   -4.9970   23.9710 C   0  0  0  0  0  0  0  0  0  0  0  0
    6.2140   -3.6620   24.1940 C   0  0  0  0  0  0  0  0  0  0  0  0
    6.2140   -3.0970   25.5870 C   0  0  0  0  0  0  0  0  0  0  0  0
    5.9620   -1.8850   25.6630 O   0  0  0  0  0  0  0  0  0  0  0  0
    6.3810   -3.7800   26.8270 N   0  0  0  0  0  0  0  0  0  0  0  0
    6.8760   -5.0970   26.7690 C   0  0  2  0  0  0  0  0  0  0  0  0
    5.5430   -5.6270   26.2870 C   0  0  0  0  0  0  0  0  0  0  0  0
    4.6150   -4.6720   26.6140 C   0  0  0  0  0  0  0  0  0  0  0  0
    5.1600   -3.8700   27.6040 C   0  0  1  0  0  0  0  0  0  0  0  0
    5.1880   -4.7020   28.7390 C   0  0  0  0  0  0  0  0  0  0  0  0
    4.1540   -4.6670   29.6550 C   0  0  0  0  0  0  0  0  0  0  0  0
    4.1490   -5.4920   30.7050 N   0  0  0  0  0  0  0  0  0  0  0  0
    5.1550   -6.3740   30.8770 C   0  0  0  0  0  0  0  0  0  0  0  0
    5.1070   -7.3210   32.0550 C   0  0  0  0  0  0  0  0  0  0  0  0
    3.7560   -7.9520   31.7150 C   0  0  0  0  0  0  0  0  0  0  0  0
    5.3040   -6.8100   33.3150 C   0  0  0  0  0  0  0  0  0  0  0  0
    6.1770   -6.4050   29.9920 N   0  0  0  0  0  0  0  0  0  0  0  0
    6.2480   -5.5900   28.9120 C   0  0  0  0  0  0  0  0  0  0  0  0
    7.2730   -5.6130   27.9940 C   0  0  0  0  0  0  0  0  0  0  0  0
    6.8730   -2.6380   23.2740 C   0  0  0  0  0  0  0  0  0  0  0  0
    7.7900   -3.3120   22.2670 C   0  0  0  0  0  0  0  0  0  0  0  0
  1  2  1  0
  2  3  2  0
  2  4  1  0
  4  5  1  0
  5  6  1  0
  6  7  1  0
  7  8  1  0
  8  9  2  0
  8 10  1  0
 10 11  1  0
 11 12  1  1
 12 13  1  0
 10 14  1  0
 14 13  1  6
 14 15  1  0
 15 16  1  0
 16 17  2  0
 17 18  1  0
 18 19  1  0
 19 20  1  0
 19 21  1  0
 18 22  2  0
 15 23  2  0
 22 23  1  0
 11 24  1  0
 23 24  1  0
  7 25  1  0
  4 26  1  0
 25 26  1  0
M  END
