piperidine-amides-13138-covalent
     RDKit          3D

 20 21  0  0  0  0  0  0  0  0999 V2000
    7.1450   -3.2870   19.1890 C   0  0  0  0  0  0  0  0  0  0  0  0
    6.3610   -4.0050   20.2160 C   0  0  0  0  0  0  0  0  0  0  0  0
    5.2750   -4.5060   19.8640 O   0  0  0  0  0  0  0  0  0  0  0  0
    6.8710   -4.1450   21.5120 N   0  0  0  0  0  0  0  0  0  0  0  0
    7.6990   -3.1220   22.0540 C   0  0  0  0  0  0  0  0  0  0  0  0
    7.3740   -2.7980   23.4270 C   0  0  0  0  0  0  0  0  0  0  0  0
    6.1310   -3.4190   23.9180 C   0  0  0  0  0  0  0  0  0  0  0  0
    6.0280   -3.1060   25.3600 C   0  0  0  0  0  0  0  0  0  0  0  0
    4.8950   -3.0680   25.8820 O   0  0  0  0  0  0  0  0  0  0  0  0
    7.2080   -2.8320   26.0940 N   0  0  0  0  0  0  0  0  0  0  0  0
    7.2470   -2.6930   27.5640 C   0  0  0  0  0  0  0  0  0  0  0  0
    7.6810   -3.9370   28.2430 C   0  0  0  0  0  0  0  0  0  0  0  0
    7.4390   -5.1490   27.5980 N   0  0  0  0  0  0  0  0  0  0  0  0
    8.1890   -5.4270   26.3960 C   0  0  0  0  0  0  0  0  0  0  0  0
    9.3930   -5.9870   26.7260 C   0  0  0  0  0  0  0  0  0  0  0  0
    6.5710   -6.1100   28.2530 C   0  0  0  0  0  0  0  0  0  0  0  0
    5.6080   -6.4770   27.6560 C   0  0  0  0  0  0  0  0  0  0  0  0
    5.2480   -5.6790   28.8520 C   0  0  0  0  0  0  0  0  0  0  0  0
    5.9230   -4.8600   23.5670 C   0  0  0  0  0  0  0  0  0  0  0  0
    6.4960   -5.2530   22.3470 C   0  0  0  0  0  0  0  0  0  0  0  0
  1  2  1  0
  2  3  2  0
  2  4  1  0
  4  5  1  0
  5  6  1  0
  6  7  1  0
  7  8  1  0
  8  9  2  0
  8 10  1  0
 10 11  1  0
 11 12  1  0
 12 13  1  0
 13 14  1  0
 14 15  1  0
 13 16  1  0
 16 17  1  0
 16 18  1  0
 17 18  1  0
  7 19  1  0
  4 20  1  0
 19 20  1  0
M  END
