piperidine-amides-31511-covalent
     RDKit          3D

 28 31  0  0  0  0  0  0  0  0999 V2000
    7.0330   -3.4070   19.3290 C   0  0  0  0  0  0  0  0  0  0  0  0
    6.3710   -4.1960   20.3440 C   0  0  0  0  0  0  0  0  0  0  0  0
    5.3630   -4.8740   19.9860 O   0  0  0  0  0  0  0  0  0  0  0  0
    6.8260   -4.2840   21.6780 N   0  0  0  0  0  0  0  0  0  0  0  0
    6.6280   -5.5890   22.3690 C   0  0  0  0  0  0  0  0  0  0  0  0
    5.7140   -5.1940   23.6080 C   0  0  0  0  0  0  0  0  0  0  0  0
    5.8570   -3.7030   23.7330 C   0  0  0  0  0  0  0  0  0  0  0  0
    4.8950   -3.0130   24.8090 C   0  0  0  0  0  0  0  0  0  0  0  0
    3.8640   -2.6770   24.2750 O   0  0  0  0  0  0  0  0  0  0  0  0
    5.4100   -2.9900   25.9520 N   0  0  0  0  0  0  0  0  0  0  0  0
    6.1860   -2.9540   26.9630 C   0  0  0  0  0  0  0  0  0  0  0  0
    6.6630   -4.0080   27.5850 C   0  0  0  0  0  0  0  0  0  0  0  0
    7.2910   -4.8660   26.6760 C   0  0  0  0  0  0  0  0  0  0  0  0
    7.9770   -6.0680   26.8280 C   0  0  0  0  0  0  0  0  0  0  0  0
    7.8850   -6.2890   28.2710 C   0  0  0  0  0  0  0  0  0  0  0  0
    7.2590   -5.4560   29.2090 N   0  0  0  0  0  0  0  0  0  0  0  0
    6.5640   -4.2630   29.1120 C   0  0  0  0  0  0  0  0  0  0  0  0
    6.0160   -3.2430   28.5760 N   0  0  0  0  0  0  0  0  0  0  0  0
    5.3080   -2.3380   29.4060 C   0  0  0  0  0  0  0  0  0  0  0  0
    3.9330   -2.8760   29.7430 C   0  0  1  0  0  0  0  0  0  0  0  0
    2.9830   -2.3130   29.1640 O   0  0  0  0  0  0  0  0  0  0  0  0
    2.3960   -1.3930   30.0270 C   0  0  0  0  0  0  0  0  0  0  0  0
    1.2990   -0.9270   29.3440 C   0  0  0  0  0  0  0  0  0  0  0  0
    4.3910   -4.1400   29.0590 C   0  0  0  0  0  0  0  0  0  0  0  0
    5.1150   -3.9430   27.9000 C   0  0  1  0  0  0  0  0  0  0  0  0
    4.3960   -3.3960   26.8480 C   0  0  0  0  0  0  0  0  0  0  0  0
    7.2190   -3.1630   23.6510 C   0  0  0  0  0  0  0  0  0  0  0  0
    7.6650   -3.2460   22.2360 C   0  0  0  0  0  0  0  0  0  0  0  0
  1  2  1  0
  2  3  2  0
  2  4  1  0
  4  5  1  0
  5  6  1  0
  6  7  1  0
  7  8  1  0
  8  9  2  0
  8 10  1  0
 10 11  1  0
 11 12  1  0
 12 13  1  0
 13 14  2  0
 14 15  1  0
 15 16  2  0
 12 17  2  0
 16 17  1  0
 17 18  1  0
 18 19  1  0
 19 20  1  0
 20 21  1  6
 21 22  1  0
 22 23  1  0
 20 24  1  0
 18 25  1  0
 25 24  1  1
 10 26  1  0
 25 26  1  0
  7 27  1  0
  4 28  1  0
 27 28  1  0
M  END
