piperidine-amides-8247-covalent
     RDKit          3D

 25 26  0  0  0  0  0  0  0  0999 V2000
    7.0870   -3.3290   19.3020 C   0  0  0  0  0  0  0  0  0  0  0  0
    6.3980   -4.1640   20.2850 C   0  0  0  0  0  0  0  0  0  0  0  0
    5.3350   -4.7100   19.9400 O   0  0  0  0  0  0  0  0  0  0  0  0
    6.9540   -4.3980   21.5660 N   0  0  0  0  0  0  0  0  0  0  0  0
    6.3030   -5.3880   22.3600 C   0  0  0  0  0  0  0  0  0  0  0  0
    5.4480   -4.6630   23.3560 C   0  0  0  0  0  0  0  0  0  0  0  0
    6.4100   -3.8620   24.2020 C   0  0  0  0  0  0  0  0  0  0  0  0
    5.7220   -3.2650   25.3870 C   0  0  0  0  0  0  0  0  0  0  0  0
    4.5320   -2.9980   25.2450 O   0  0  0  0  0  0  0  0  0  0  0  0
    6.4620   -3.0630   26.5510 N   0  0  0  0  0  0  0  0  0  0  0  0
    6.4960   -1.8010   27.2300 C   0  0  0  0  0  0  0  0  0  0  0  0
    7.0710   -1.6730   28.4810 C   0  0  0  0  0  0  0  0  0  0  0  0
    7.1030   -0.4770   29.1600 C   0  0  0  0  0  0  0  0  0  0  0  0
    6.5760    0.7410   28.6950 C   0  0  0  0  0  0  0  0  0  0  0  0
    5.9330    0.6920   27.3280 C   0  0  0  0  0  0  0  0  0  0  0  0
    5.9040   -0.6560   26.5770 C   0  0  0  0  0  0  0  0  0  0  0  0
    5.3450   -0.5940   25.4460 O   0  0  0  0  0  0  0  0  0  0  0  0
    4.7800    0.6150   25.1140 C   0  0  0  0  0  0  0  0  0  0  0  0
    5.7210    1.6460   24.5570 C   0  0  0  0  0  0  0  0  0  0  0  0
    5.0020    3.0180   24.6340 C   0  0  0  0  0  0  0  0  0  0  0  0
    5.5330    4.0150   23.8660 O   0  0  0  0  0  0  0  0  0  0  0  0
    3.8870    3.2670   25.4140 O   0  0  0  0  0  0  0  0  0  0  0  0
    2.6720    2.6460   25.0410 C   0  0  0  0  0  0  0  0  0  0  0  0
    6.9590   -2.7490   23.3690 C   0  0  0  0  0  0  0  0  0  0  0  0
    7.6770   -3.3010   22.1730 C   0  0  0  0  0  0  0  0  0  0  0  0
  1  2  1  0
  2  3  2  0
  2  4  1  0
  4  5  1  0
  5  6  1  0
  6  7  1  0
  7  8  1  0
  8  9  2  0
  8 10  1  0
 10 11  1  0
 11 12  2  0
 12 13  1  0
 13 14  2  0
 14 15  1  0
 11 16  1  0
 15 16  2  0
 16 17  1  0
 17 18  1  0
 18 19  1  0
 19 20  1  0
 20 21  2  0
 20 22  1  0
 22 23  1  0
  7 24  1  0
  4 25  1  0
 24 25  1  0
M  END
