piperidine-amides-1229-covalent
     RDKit          3D

 23 24  0  0  0  0  0  0  0  0999 V2000
    7.2150   -4.0210   19.6270 C   0  0  0  0  0  0  0  0  0  0  0  0
    5.9990   -3.8860   20.3100 C   0  0  0  0  0  0  0  0  0  0  0  0
    4.9860   -3.9720   19.6050 O   0  0  0  0  0  0  0  0  0  0  0  0
    6.1520   -3.7970   21.6840 N   0  0  0  0  0  0  0  0  0  0  0  0
    7.3260   -3.0360   22.0990 C   0  0  0  0  0  0  0  0  0  0  0  0
    7.2060   -2.7780   23.5850 C   0  0  0  0  0  0  0  0  0  0  0  0
    5.8890   -3.3440   23.9200 C   0  0  0  0  0  0  0  0  0  0  0  0
    5.4930   -3.0340   25.2800 C   0  0  0  0  0  0  0  0  0  0  0  0
    4.3690   -2.5540   25.4430 O   0  0  0  0  0  0  0  0  0  0  0  0
    6.3890   -3.2880   26.2930 N   0  0  0  0  0  0  0  0  0  0  0  0
    6.0520   -3.8210   27.5360 C   0  0  0  0  0  0  0  0  0  0  0  0
    6.2580   -3.1380   28.6790 C   0  0  0  0  0  0  0  0  0  0  0  0
    5.6610   -1.8720   28.8420 C   0  0  1  0  0  0  0  0  0  0  0  0
    4.2940   -1.8170   29.0020 C   0  0  0  0  0  0  0  0  0  0  0  0
    3.4840   -3.0610   29.0980 C   0  0  0  0  0  0  0  0  0  0  0  0
    6.1470   -1.3040   30.0920 N   0  0  0  0  0  0  0  0  0  0  0  0
    7.4050   -0.6580   29.8030 C   0  0  0  0  0  0  0  0  0  0  0  0
    7.6530    0.3770   30.8890 C   0  0  0  0  0  0  0  0  0  0  0  0
    6.5900    0.3350   31.7410 C   0  0  0  0  0  0  0  0  0  0  0  0
    5.6230   -0.6910   31.2780 C   0  0  0  0  0  0  0  0  0  0  0  0
    4.6210   -0.7770   32.0150 O   0  0  0  0  0  0  0  0  0  0  0  0
    5.7760   -4.8150   23.7100 C   0  0  0  0  0  0  0  0  0  0  0  0
    5.9830   -5.0440   22.3900 C   0  0  0  0  0  0  0  0  0  0  0  0
  1  2  1  0
  2  3  2  0
  2  4  1  0
  4  5  1  0
  5  6  1  0
  6  7  1  0
  7  8  1  0
  8  9  2  0
  8 10  1  0
 10 11  1  0
 11 12  1  0
 13 12  1  1
 13 14  1  0
 14 15  1  0
 13 16  1  0
 16 17  1  0
 17 18  1  0
 18 19  1  0
 16 20  1  0
 19 20  1  0
 20 21  2  0
  7 22  1  0
  4 23  1  0
 22 23  1  0
M  END
