piperidine-amides-27447-covalent
     RDKit          3D

 21 23  0  0  0  0  0  0  0  0999 V2000
    7.0830   -3.3790   19.4210 C   0  0  0  0  0  0  0  0  0  0  0  0
    6.3830   -4.2250   20.3870 C   0  0  0  0  0  0  0  0  0  0  0  0
    5.3330   -4.7760   19.9650 O   0  0  0  0  0  0  0  0  0  0  0  0
    6.9040   -4.4430   21.6700 N   0  0  0  0  0  0  0  0  0  0  0  0
    6.5020   -5.5810   22.4520 C   0  0  0  0  0  0  0  0  0  0  0  0
    5.6290   -5.0760   23.5730 C   0  0  0  0  0  0  0  0  0  0  0  0
    6.2340   -3.9120   24.3290 C   0  0  0  0  0  0  0  0  0  0  0  0
    5.2830   -3.3810   25.3640 C   0  0  0  0  0  0  0  0  0  0  0  0
    4.3250   -2.7040   24.9520 O   0  0  0  0  0  0  0  0  0  0  0  0
    5.4030   -3.5950   26.7680 N   0  0  0  0  0  0  0  0  0  0  0  0
    6.6140   -3.4530   27.3660 C   0  0  0  0  0  0  0  0  0  0  0  0
    6.8060   -4.7340   28.1650 C   0  0  0  0  0  0  0  0  0  0  0  0
    5.5380   -5.0780   28.8170 N   0  0  0  0  0  0  0  0  0  0  0  0
    5.6900   -6.2490   29.7920 N   0  0  0  0  0  0  0  0  0  0  0  0
    4.4560   -6.2050   30.1230 C   0  0  0  0  0  0  0  0  0  0  0  0
    4.6810   -5.3490   29.2970 C   0  0  0  0  0  0  0  0  0  0  0  0
    6.5160   -5.5690   28.8950 Br  0  0  0  0  0  0  0  0  0  0  0  0
    4.1980   -4.4600   28.6600 C   0  0  0  0  0  0  0  0  0  0  0  0
    4.3620   -3.4420   27.7070 C   0  0  0  0  0  0  0  0  0  0  0  0
    6.6270   -2.7470   23.4200 C   0  0  0  0  0  0  0  0  0  0  0  0
    7.5260   -3.2990   22.3380 C   0  0  0  0  0  0  0  0  0  0  0  0
  1  2  1  0
  2  3  2  0
  2  4  1  0
  4  5  1  0
  5  6  1  0
  6  7  1  0
  7  8  1  0
  8  9  2  0
  8 10  1  0
 10 11  1  0
 11 12  1  0
 12 13  1  0
 13 14  1  0
 14 15  2  0
 15 16  1  0
 16 17  1  0
 13 18  1  0
 16 18  2  0
 10 19  1  0
 18 19  1  0
  7 20  1  0
  4 21  1  0
 20 21  1  0
M  END
