piperidine-amides-11883-covalent
     RDKit          3D

 27 29  0  0  0  0  0  0  0  0999 V2000
    7.0270   -3.3520   19.3660 C   0  0  0  0  0  0  0  0  0  0  0  0
    6.3740   -4.1870   20.3720 C   0  0  0  0  0  0  0  0  0  0  0  0
    5.4330   -4.8990   20.0080 O   0  0  0  0  0  0  0  0  0  0  0  0
    6.8260   -4.2250   21.7510 N   0  0  0  0  0  0  0  0  0  0  0  0
    7.7380   -3.1980   22.2470 C   0  0  0  0  0  0  0  0  0  0  0  0
    7.4180   -2.8490   23.6740 C   0  0  0  0  0  0  0  0  0  0  0  0
    6.1780   -3.6450   23.9910 C   0  0  0  0  0  0  0  0  0  0  0  0
    5.4510   -3.2410   25.2500 C   0  0  0  0  0  0  0  0  0  0  0  0
    4.2140   -3.1850   25.1920 O   0  0  0  0  0  0  0  0  0  0  0  0
    6.0770   -2.9120   26.5340 N   0  0  0  0  0  0  0  0  0  0  0  0
    6.6370   -1.5680   26.7680 C   0  0  0  0  0  0  0  0  0  0  0  0
    7.8060   -2.0270   26.5810 C   0  0  0  0  0  0  0  0  0  0  0  0
    6.5330   -2.8220   26.5650 N   0  0  0  0  0  0  0  0  0  0  0  0
    5.2900   -1.9790   26.8480 N   0  0  0  0  0  0  0  0  0  0  0  0
    3.8780   -2.3780   26.9550 C   0  0  0  0  0  0  0  0  0  0  0  0
    3.0640   -1.5020   26.2330 C   0  0  0  0  0  0  0  0  0  0  0  0
    1.7070   -1.6770   26.1950 C   0  0  0  0  0  0  0  0  0  0  0  0
    1.1430   -2.7960   26.9270 C   0  0  0  0  0  0  0  0  0  0  0  0
    1.8560   -3.7140   27.6690 C   0  0  0  0  0  0  0  0  0  0  0  0
    1.3950   -4.8000   28.3920 C   0  0  0  0  0  0  0  0  0  0  0  0
    0.8480   -5.7270   27.5630 F   0  0  0  0  0  0  0  0  0  0  0  0
    0.4190   -4.3560   29.2590 F   0  0  0  0  0  0  0  0  0  0  0  0
    2.4140   -5.3410   29.1800 F   0  0  0  0  0  0  0  0  0  0  0  0
    3.3660   -3.4440   27.6550 C   0  0  0  0  0  0  0  0  0  0  0  0
    5.7970   -0.6670   27.0130 C   0  0  0  0  0  0  0  0  0  0  0  0
    6.4180   -5.1380   23.8740 C   0  0  0  0  0  0  0  0  0  0  0  0
    6.6450   -5.4430   22.5190 C   0  0  0  0  0  0  0  0  0  0  0  0
  1  2  1  0
  2  3  2  0
  2  4  1  0
  4  5  1  0
  5  6  1  0
  6  7  1  0
  7  8  1  0
  8  9  2  0
  8 10  1  0
 10 11  1  0
 11 12  1  0
 12 13  2  0
 13 14  1  0
 14 15  1  0
 15 16  2  0
 16 17  1  0
 17 18  2  0
 18 19  1  0
 19 20  1  0
 20 21  1  0
 20 22  1  0
 20 23  1  0
 15 24  1  0
 19 24  2  0
 11 25  2  0
 14 25  1  0
  7 26  1  0
  4 27  1  0
 26 27  1  0
M  END
