piperidine-amides-8435-covalent
     RDKit          3D

 24 25  0  0  0  0  0  0  0  0999 V2000
    7.0860   -3.3470   19.2970 C   0  0  0  0  0  0  0  0  0  0  0  0
    6.4410   -4.1980   20.2990 C   0  0  0  0  0  0  0  0  0  0  0  0
    5.3950   -4.7910   19.9730 O   0  0  0  0  0  0  0  0  0  0  0  0
    7.0340   -4.3800   21.5780 N   0  0  0  0  0  0  0  0  0  0  0  0
    7.6840   -3.2580   22.1860 C   0  0  0  0  0  0  0  0  0  0  0  0
    6.7750   -2.7220   23.2440 C   0  0  0  0  0  0  0  0  0  0  0  0
    6.5520   -3.8360   24.2390 C   0  0  0  0  0  0  0  0  0  0  0  0
    5.7620   -3.2950   25.3850 C   0  0  0  0  0  0  0  0  0  0  0  0
    4.5730   -3.0620   25.1710 O   0  0  0  0  0  0  0  0  0  0  0  0
    6.4090   -3.1030   26.5920 N   0  0  0  0  0  0  0  0  0  0  0  0
    6.4450   -1.8510   27.2530 C   0  0  0  0  0  0  0  0  0  0  0  0
    6.9430   -1.5470   28.5390 C   0  0  0  0  0  0  0  0  0  0  0  0
    6.9830   -0.3350   29.2040 C   0  0  0  0  0  0  0  0  0  0  0  0
    6.5230    0.8810   28.7270 C   0  0  0  0  0  0  0  0  0  0  0  0
    5.9620    0.7520   27.3670 C   0  0  0  0  0  0  0  0  0  0  0  0
    5.3940    1.9780   26.6310 C   0  0  0  0  0  0  0  0  0  0  0  0
    3.9500    2.1660   26.8840 C   0  0  0  0  0  0  0  0  0  0  0  0
    3.5120    3.0300   27.6870 O   0  0  0  0  0  0  0  0  0  0  0  0
    2.9650    1.3750   26.2210 N   0  0  0  0  0  0  0  0  0  0  0  0
    2.5890    1.9480   24.9570 C   0  0  0  0  0  0  0  0  0  0  0  0
    2.8060   -0.0180   26.5470 C   0  0  0  0  0  0  0  0  0  0  0  0
    5.9300   -0.5670   26.6660 C   0  0  0  0  0  0  0  0  0  0  0  0
    5.7460   -4.9130   23.5660 C   0  0  0  0  0  0  0  0  0  0  0  0
    6.4900   -5.4470   22.3700 C   0  0  0  0  0  0  0  0  0  0  0  0
  1  2  1  0
  2  3  2  0
  2  4  1  0
  4  5  1  0
  5  6  1  0
  6  7  1  0
  7  8  1  0
  8  9  2  0
  8 10  1  0
 10 11  1  0
 11 12  2  0
 12 13  1  0
 13 14  2  0
 14 15  1  0
 15 16  1  0
 16 17  1  0
 17 18  2  0
 17 19  1  0
 19 20  1  0
 19 21  1  0
 11 22  1  0
 15 22  2  0
  7 23  1  0
  4 24  1  0
 23 24  1  0
M  END
