piperidine-amides-18932-covalent
     RDKit          3D

 22 23  0  0  0  0  0  0  0  0999 V2000
    7.1980   -3.2870   19.3200 C   0  0  0  0  0  0  0  0  0  0  0  0
    6.4500   -4.0720   20.2740 C   0  0  0  0  0  0  0  0  0  0  0  0
    5.3430   -4.5840   19.9040 O   0  0  0  0  0  0  0  0  0  0  0  0
    6.9370   -4.3290   21.5670 N   0  0  0  0  0  0  0  0  0  0  0  0
    7.8430   -3.3290   22.1890 C   0  0  0  0  0  0  0  0  0  0  0  0
    6.8390   -2.6770   23.1960 C   0  0  0  0  0  0  0  0  0  0  0  0
    6.4190   -3.8100   24.0980 C   0  0  0  0  0  0  0  0  0  0  0  0
    5.5350   -3.2650   25.2880 C   0  0  0  0  0  0  0  0  0  0  0  0
    4.5640   -2.6510   24.8830 O   0  0  0  0  0  0  0  0  0  0  0  0
    6.1010   -3.6380   26.3520 N   0  0  0  0  0  0  0  0  0  0  0  0
    6.6580   -4.4470   27.2910 C   0  0  0  0  0  0  0  0  0  0  0  0
    6.2580   -5.4690   28.1010 C   0  0  0  0  0  0  0  0  0  0  0  0
    5.2580   -6.3290   27.5860 C   0  0  0  0  0  0  0  0  0  0  0  0
    6.4370   -2.4520   27.1890 C   0  0  0  0  0  0  0  0  0  0  0  0
    5.1170   -1.6820   27.3130 C   0  0  0  0  0  0  0  0  0  0  0  0
    5.5460   -0.3330   27.2670 C   0  0  0  0  0  0  0  0  0  0  0  0
    4.8130    0.9240   27.3340 C   0  0  0  0  0  0  0  0  0  0  0  0
    3.3820    0.3090   27.4700 C   0  0  0  0  0  0  0  0  0  0  0  0
    2.9280   -1.1680   27.5190 C   0  0  0  0  0  0  0  0  0  0  0  0
    3.8180   -2.1310   27.4370 C   0  0  0  0  0  0  0  0  0  0  0  0
    5.7660   -5.0070   23.4120 C   0  0  0  0  0  0  0  0  0  0  0  0
    6.4630   -5.4440   22.3370 C   0  0  0  0  0  0  0  0  0  0  0  0
  1  2  1  0
  2  3  2  0
  2  4  1  0
  4  5  1  0
  5  6  1  0
  6  7  1  0
  7  8  1  0
  8  9  2  0
  8 10  1  0
 10 11  1  0
 11 12  1  0
 12 13  3  0
 10 14  1  0
 14 15  1  0
 15 16  2  0
 16 17  1  0
 17 18  2  0
 18 19  1  0
 15 20  1  0
 19 20  2  0
  7 21  1  0
  4 22  1  0
 21 22  1  0
M  END
