piperidine-amides-32344-covalent
     RDKit          3D

 28 30  0  0  0  0  0  0  0  0999 V2000
    7.1180   -3.3430   19.2880 C   0  0  0  0  0  0  0  0  0  0  0  0
    6.4330   -4.1990   20.2910 C   0  0  0  0  0  0  0  0  0  0  0  0
    5.3850   -4.7910   19.9700 O   0  0  0  0  0  0  0  0  0  0  0  0
    7.0250   -4.3610   21.5600 N   0  0  0  0  0  0  0  0  0  0  0  0
    6.6320   -5.4350   22.4250 C   0  0  0  0  0  0  0  0  0  0  0  0
    5.7300   -4.8060   23.4960 C   0  0  0  0  0  0  0  0  0  0  0  0
    6.4720   -3.6670   24.1440 C   0  0  0  0  0  0  0  0  0  0  0  0
    5.6630   -3.0030   25.1900 C   0  0  0  0  0  0  0  0  0  0  0  0
    4.4960   -2.7270   24.8930 O   0  0  0  0  0  0  0  0  0  0  0  0
    6.2180   -2.7340   26.4340 N   0  0  0  0  0  0  0  0  0  0  0  0
    7.3280   -3.4380   26.8470 C   0  0  0  0  0  0  0  0  0  0  0  0
    6.9110   -4.4750   27.6160 C   0  0  0  0  0  0  0  0  0  0  0  0
    5.6080   -4.2250   28.0860 C   0  0  2  0  0  0  0  0  0  0  0  0
    5.5730   -4.2990   29.4170 C   0  0  0  0  0  0  0  0  0  0  0  0
    5.4930   -5.5760   29.7630 N   0  0  0  0  0  0  0  0  0  0  0  0
    6.2660   -6.4380   29.0930 C   0  0  0  0  0  0  0  0  0  0  0  0
    6.5680   -7.6120   29.6340 O   0  0  0  0  0  0  0  0  0  0  0  0
    6.6990   -6.1100   27.8010 O   0  0  0  0  0  0  0  0  0  0  0  0
    7.8860   -5.3710   27.4340 C   0  0  0  0  0  0  0  0  0  0  0  0
    7.9160   -5.2660   25.9030 C   0  0  0  0  0  0  0  0  0  0  0  0
    8.8590   -6.1320   27.9340 C   0  0  0  0  0  0  0  0  0  0  0  0
    8.2630   -4.0100   28.0250 C   0  0  0  0  0  0  0  0  0  0  0  0
    4.2380   -6.1360   29.6320 C   0  0  0  0  0  0  0  0  0  0  0  0
    3.8310   -5.7780   28.3760 C   0  0  0  0  0  0  0  0  0  0  0  0
    4.5120   -4.8900   27.6690 O   0  0  0  0  0  0  0  0  0  0  0  0
    5.3260   -2.9190   27.5800 C   0  0  0  0  0  0  0  0  0  0  0  0
    7.0060   -2.6380   23.2160 C   0  0  0  0  0  0  0  0  0  0  0  0
    7.8390   -3.3160   22.1470 C   0  0  0  0  0  0  0  0  0  0  0  0
  1  2  1  0
  2  3  2  0
  2  4  1  0
  4  5  1  0
  5  6  1  0
  6  7  1  0
  7  8  1  0
  8  9  2  0
  8 10  1  0
 10 11  1  0
 11 12  1  0
 13 12  1  6
 13 14  1  0
 14 15  1  0
 15 16  1  0
 16 17  2  0
 16 18  1  0
 19 18  1  0
 19 20  1  0
 19 21  1  0
 19 22  1  0
 15 23  1  0
 23 24  1  0
 13 25  1  0
 24 25  1  0
 10 26  1  0
 13 26  1  0
  7 27  1  0
  4 28  1  0
 27 28  1  0
M  END
