piperidine-amides-32648-covalent
     RDKit          3D

 26 28  0  0  0  0  0  0  0  0999 V2000
    7.0090   -3.3520   19.4370 C   0  0  0  0  0  0  0  0  0  0  0  0
    6.3400   -4.2570   20.4170 C   0  0  0  0  0  0  0  0  0  0  0  0
    5.4010   -4.9610   20.0030 O   0  0  0  0  0  0  0  0  0  0  0  0
    6.7820   -4.3330   21.7660 N   0  0  0  0  0  0  0  0  0  0  0  0
    6.6120   -5.5360   22.5600 C   0  0  0  0  0  0  0  0  0  0  0  0
    5.9630   -5.1940   23.9250 C   0  0  0  0  0  0  0  0  0  0  0  0
    5.8190   -3.7100   24.0380 C   0  0  0  0  0  0  0  0  0  0  0  0
    5.1600   -3.1400   25.2830 C   0  0  0  0  0  0  0  0  0  0  0  0
    4.5480   -2.0950   25.0920 O   0  0  0  0  0  0  0  0  0  0  0  0
    5.1970   -3.7250   26.5750 N   0  0  0  0  0  0  0  0  0  0  0  0
    4.9860   -3.0490   27.8070 C   0  0  0  0  0  0  0  0  0  0  0  0
    5.6470   -3.4240   28.9640 C   0  0  0  0  0  0  0  0  0  0  0  0
    6.4660   -4.5550   28.9390 C   0  0  0  0  0  0  0  0  0  0  0  0
    6.2570   -5.3850   27.8880 C   0  0  1  0  0  0  0  0  0  0  0  0
    5.3080   -6.2850   27.6530 O   0  0  0  0  0  0  0  0  0  0  0  0
    4.8240   -6.7400   28.7830 C   0  0  0  0  0  0  0  0  0  0  0  0
    5.8310   -6.9290   29.8960 C   0  0  0  0  0  0  0  0  0  0  0  0
    5.2850   -7.4410   31.2120 C   0  0  0  0  0  0  0  0  0  0  0  0
    3.9480   -7.7220   31.3830 C   0  0  0  0  0  0  0  0  0  0  0  0
    3.5060   -8.3010   32.9790 Cl  0  0  0  0  0  0  0  0  0  0  0  0
    2.8420   -7.5950   30.3820 C   0  0  0  0  0  0  0  0  0  0  0  0
    1.1910   -8.0190   30.8170 Cl  0  0  0  0  0  0  0  0  0  0  0  0
    3.3950   -7.0710   29.0440 C   0  0  0  0  0  0  0  0  0  0  0  0
    6.2850   -4.5870   26.6340 C   0  0  0  0  0  0  0  0  0  0  0  0
    7.0840   -2.9700   23.7270 C   0  0  0  0  0  0  0  0  0  0  0  0
    7.6220   -3.2840   22.3470 C   0  0  0  0  0  0  0  0  0  0  0  0
  1  2  1  0
  2  3  2  0
  2  4  1  0
  4  5  1  0
  5  6  1  0
  6  7  1  0
  7  8  1  0
  8  9  2  0
  8 10  1  0
 10 11  1  0
 11 12  1  0
 12 13  1  0
 13 14  1  0
 14 15  1  1
 15 16  1  0
 16 17  2  0
 17 18  1  0
 18 19  2  0
 19 20  1  0
 19 21  1  0
 21 22  1  0
 16 23  1  0
 21 23  2  0
 10 24  1  0
 14 24  1  0
  7 25  1  0
  4 26  1  0
 25 26  1  0
M  END
