piperidine-amides-19081-covalent
     RDKit          3D

 22 24  0  0  0  0  0  0  0  0999 V2000
    7.1540   -3.3820   19.5000 C   0  0  0  0  0  0  0  0  0  0  0  0
    6.4270   -4.2180   20.4240 C   0  0  0  0  0  0  0  0  0  0  0  0
    5.4070   -4.8450   19.9890 O   0  0  0  0  0  0  0  0  0  0  0  0
    6.8410   -4.3940   21.7620 N   0  0  0  0  0  0  0  0  0  0  0  0
    6.4650   -5.6380   22.4520 C   0  0  0  0  0  0  0  0  0  0  0  0
    5.4690   -5.0090   23.4940 C   0  0  0  0  0  0  0  0  0  0  0  0
    6.2860   -4.0100   24.2880 C   0  0  0  0  0  0  0  0  0  0  0  0
    5.4050   -3.3550   25.4630 C   0  0  0  0  0  0  0  0  0  0  0  0
    4.4860   -2.7480   24.9400 O   0  0  0  0  0  0  0  0  0  0  0  0
    5.8240   -3.5950   26.6640 N   0  0  0  0  0  0  0  0  0  0  0  0
    6.4030   -3.9250   27.8260 C   0  0  0  0  0  0  0  0  0  0  0  0
    6.7520   -5.0490   28.4930 C   0  0  0  0  0  0  0  0  0  0  0  0
    5.5860   -5.1880   29.1740 C   0  0  0  0  0  0  0  0  0  0  0  0
    5.1660   -6.1520   30.1200 C   0  0  0  0  0  0  0  0  0  0  0  0
    5.8190   -7.3910   30.7330 C   0  0  0  0  0  0  0  0  0  0  0  0
    3.8140   -6.1340   30.7780 C   0  0  0  0  0  0  0  0  0  0  0  0
    2.7000   -5.2650   30.6650 C   0  0  0  0  0  0  0  0  0  0  0  0
    3.2910   -4.2570   29.5880 C   0  0  0  0  0  0  0  0  0  0  0  0
    4.6660   -4.1030   28.7840 C   0  0  0  0  0  0  0  0  0  0  0  0
    5.0520   -3.1390   27.8340 C   0  0  0  0  0  0  0  0  0  0  0  0
    6.9980   -2.9330   23.4630 C   0  0  0  0  0  0  0  0  0  0  0  0
    7.7120   -3.4570   22.4320 C   0  0  0  0  0  0  0  0  0  0  0  0
  1  2  1  0
  2  3  2  0
  2  4  1  0
  4  5  1  0
  5  6  1  0
  6  7  1  0
  7  8  1  0
  8  9  2  0
  8 10  1  0
 10 11  1  0
 11 12  1  0
 12 13  1  0
 13 14  2  0
 14 15  1  0
 14 16  1  0
 16 17  2  0
 17 18  1  0
 13 19  1  0
 18 19  2  0
 10 20  1  0
 19 20  1  0
  7 21  1  0
  4 22  1  0
 21 22  1  0
M  END
