piperidine-amides-33232-covalent
     RDKit          3D

 30 32  0  0  0  0  0  0  0  0999 V2000
    7.0770   -3.3550   19.3400 C   0  0  0  0  0  0  0  0  0  0  0  0
    6.4380   -4.2090   20.3540 C   0  0  0  0  0  0  0  0  0  0  0  0
    5.3990   -4.8160   19.9860 O   0  0  0  0  0  0  0  0  0  0  0  0
    6.9950   -4.3900   21.6550 N   0  0  0  0  0  0  0  0  0  0  0  0
    7.6980   -3.2900   22.2590 C   0  0  0  0  0  0  0  0  0  0  0  0
    7.2560   -2.9450   23.6080 C   0  0  0  0  0  0  0  0  0  0  0  0
    5.9940   -3.6050   23.9630 C   0  0  0  0  0  0  0  0  0  0  0  0
    5.4120   -3.1520   25.2710 C   0  0  0  0  0  0  0  0  0  0  0  0
    4.2530   -2.7020   25.2500 O   0  0  0  0  0  0  0  0  0  0  0  0
    6.0640   -3.1960   26.5150 N   0  0  0  0  0  0  0  0  0  0  0  0
    6.0400   -4.3660   27.3360 C   0  0  0  0  0  0  0  0  0  0  0  0
    4.8200   -4.8790   27.9140 C   0  0  0  0  0  0  0  0  0  0  0  0
    4.1510   -5.6380   27.1470 O   0  0  0  0  0  0  0  0  0  0  0  0
    4.2950   -4.6660   29.1340 N   0  0  0  0  0  0  0  0  0  0  0  0
    3.5430   -5.6940   29.8180 C   0  0  0  0  0  0  0  0  0  0  0  0
    3.0110   -5.3540   31.0490 C   0  0  0  0  0  0  0  0  0  0  0  0
    2.1710   -6.3980   31.8870 C   0  0  0  0  0  0  0  0  0  0  0  0
    1.9470   -7.8140   31.3160 C   0  0  0  0  0  0  0  0  0  0  0  0
    2.6060   -7.9960   29.9560 C   0  0  0  0  0  0  0  0  0  0  0  0
    3.3730   -7.0070   29.2170 C   0  0  0  0  0  0  0  0  0  0  0  0
    6.2520   -1.9380   27.1920 C   0  0  0  0  0  0  0  0  0  0  0  0
    6.9660   -1.8580   28.5590 C   0  0  0  0  0  0  0  0  0  0  0  0
    7.1200   -0.5140   29.2210 C   0  0  0  0  0  0  0  0  0  0  0  0
    7.7670   -0.4400   30.4500 C   0  0  0  0  0  0  0  0  0  0  0  0
    6.6300    0.6340   28.6170 C   0  0  0  0  0  0  0  0  0  0  0  0
    5.9440    0.5470   27.2920 C   0  0  0  0  0  0  0  0  0  0  0  0
    5.4070    1.5960   26.5600 C   0  0  0  0  0  0  0  0  0  0  0  0
    5.7750   -0.7870   26.6000 C   0  0  0  0  0  0  0  0  0  0  0  0
    6.0940   -5.0660   23.7960 C   0  0  0  0  0  0  0  0  0  0  0  0
    6.6710   -5.5080   22.5030 C   0  0  0  0  0  0  0  0  0  0  0  0
  1  2  1  0
  2  3  2  0
  2  4  1  0
  4  5  1  0
  5  6  1  0
  6  7  1  0
  7  8  1  0
  8  9  2  0
  8 10  1  0
 10 11  1  0
 11 12  1  0
 12 13  2  0
 12 14  1  0
 14 15  1  0
 15 16  2  0
 16 17  1  0
 17 18  2  0
 18 19  1  0
 15 20  1  0
 19 20  2  0
 10 21  1  0
 21 22  2  0
 22 23  1  0
 23 24  1  0
 23 25  2  0
 25 26  1  0
 26 27  1  0
 21 28  1  0
 26 28  2  0
  7 29  1  0
  4 30  1  0
 29 30  1  0
M  END
