piperidine-amides-24756-covalent
     RDKit          3D

 23 23  0  0  0  0  0  0  0  0999 V2000
    7.0670   -3.2730   19.2390 C   0  0  0  0  0  0  0  0  0  0  0  0
    6.3470   -4.0570   20.2580 C   0  0  0  0  0  0  0  0  0  0  0  0
    5.3300   -4.7070   19.9400 O   0  0  0  0  0  0  0  0  0  0  0  0
    6.7960   -4.1340   21.5860 N   0  0  0  0  0  0  0  0  0  0  0  0
    7.6760   -3.1080   22.1310 C   0  0  0  0  0  0  0  0  0  0  0  0
    7.4740   -3.0560   23.6550 C   0  0  0  0  0  0  0  0  0  0  0  0
    6.0800   -3.5820   23.8940 C   0  0  0  0  0  0  0  0  0  0  0  0
    5.5100   -3.2760   25.2290 C   0  0  0  0  0  0  0  0  0  0  0  0
    4.2680   -3.3200   25.3130 O   0  0  0  0  0  0  0  0  0  0  0  0
    6.3180   -2.9610   26.3630 N   0  0  0  0  0  0  0  0  0  0  0  0
    6.2020   -3.7530   27.5660 C   0  0  0  0  0  0  0  0  0  0  0  0
    6.0770   -5.2060   27.1360 C   0  0  0  0  0  0  0  0  0  0  0  0
    5.6550   -6.5310   27.3750 O   0  0  0  0  0  0  0  0  0  0  0  0
    5.5170   -5.0100   28.4340 O   0  0  0  0  0  0  0  0  0  0  0  0
    5.0690   -6.0890   29.2130 C   0  0  0  0  0  0  0  0  0  0  0  0
    6.1130   -6.9170   29.5280 C   0  0  0  0  0  0  0  0  0  0  0  0
    6.6500   -1.7590   27.1350 C   0  0  0  0  0  0  0  0  0  0  0  0
    5.4000   -1.2010   27.3580 C   0  0  0  0  0  0  0  0  0  0  0  0
    5.1720   -1.0470   28.7140 F   0  0  0  0  0  0  0  0  0  0  0  0
    4.3760   -1.9030   26.7570 F   0  0  0  0  0  0  0  0  0  0  0  0
    5.4570    0.1090   26.8790 F   0  0  0  0  0  0  0  0  0  0  0  0
    6.1180   -5.1000   23.7150 C   0  0  0  0  0  0  0  0  0  0  0  0
    6.6670   -5.3630   22.3380 C   0  0  0  0  0  0  0  0  0  0  0  0
  1  2  1  0
  2  3  2  0
  2  4  1  0
  4  5  1  0
  5  6  1  0
  6  7  1  0
  7  8  1  0
  8  9  2  0
  8 10  1  0
 10 11  1  0
 11 12  1  0
 12 13  2  0
 12 14  1  0
 14 15  1  0
 15 16  1  0
 10 17  1  0
 17 18  1  0
 18 19  1  0
 18 20  1  0
 18 21  1  0
  7 22  1  0
  4 23  1  0
 22 23  1  0
M  END
