piperidine-amides-2675-covalent
     RDKit          3D

 25 26  0  0  0  0  0  0  0  0999 V2000
    7.0760   -3.2710   19.2100 C   0  0  0  0  0  0  0  0  0  0  0  0
    6.3280   -4.0430   20.2400 C   0  0  0  0  0  0  0  0  0  0  0  0
    5.2770   -4.5680   19.8870 O   0  0  0  0  0  0  0  0  0  0  0  0
    6.8440   -4.1880   21.5300 N   0  0  0  0  0  0  0  0  0  0  0  0
    7.6370   -3.1560   22.1530 C   0  0  0  0  0  0  0  0  0  0  0  0
    6.9440   -2.6570   23.3860 C   0  0  0  0  0  0  0  0  0  0  0  0
    6.5520   -3.8580   24.2420 C   0  0  0  0  0  0  0  0  0  0  0  0
    5.7580   -3.3590   25.3870 C   0  0  0  0  0  0  0  0  0  0  0  0
    4.5270   -3.4790   25.3660 O   0  0  0  0  0  0  0  0  0  0  0  0
    6.3650   -2.7370   26.4940 N   0  0  0  0  0  0  0  0  0  0  0  0
    6.3960   -1.2960   26.4700 C   0  0  0  0  0  0  0  0  0  0  0  0
    6.5530   -0.7630   27.8820 C   0  0  0  0  0  0  0  0  0  0  0  0
    7.1280   -1.3770   28.9630 C   0  0  0  0  0  0  0  0  0  0  0  0
    7.2180   -0.7890   30.1860 C   0  0  0  0  0  0  0  0  0  0  0  0
    6.7350    0.4620   30.4410 C   0  0  0  0  0  0  0  0  0  0  0  0
    6.1580    1.1620   29.5040 N   0  0  0  0  0  0  0  0  0  0  0  0
    6.0150    0.6170   28.1440 C   0  0  0  0  0  0  0  0  0  0  0  0
    5.4190    1.3190   27.1220 O   0  0  0  0  0  0  0  0  0  0  0  0
    5.0720    2.6530   27.3710 C   0  0  0  0  0  0  0  0  0  0  0  0
    5.2610    3.5000   26.1380 C   0  0  0  0  0  0  0  0  0  0  0  0
    6.3230    4.3500   26.2680 F   0  0  0  0  0  0  0  0  0  0  0  0
    5.2800    2.8870   24.9370 F   0  0  0  0  0  0  0  0  0  0  0  0
    4.1800    4.3950   25.9110 F   0  0  0  0  0  0  0  0  0  0  0  0
    5.8740   -4.9580   23.5270 C   0  0  0  0  0  0  0  0  0  0  0  0
    6.5430   -5.3830   22.2670 C   0  0  0  0  0  0  0  0  0  0  0  0
  1  2  1  0
  2  3  2  0
  2  4  1  0
  4  5  1  0
  5  6  1  0
  6  7  1  0
  7  8  1  0
  8  9  2  0
  8 10  1  0
 10 11  1  0
 11 12  1  0
 12 13  2  0
 13 14  1  0
 14 15  2  0
 15 16  1  0
 12 17  1  0
 16 17  2  0
 17 18  1  0
 18 19  1  0
 19 20  1  0
 20 21  1  0
 20 22  1  0
 20 23  1  0
  7 24  1  0
  4 25  1  0
 24 25  1  0
M  END
