piperidine-amides-27266-covalent
     RDKit          3D

 26 28  0  0  0  0  0  0  0  0999 V2000
    7.1420   -3.3250   19.1990 C   0  0  0  0  0  0  0  0  0  0  0  0
    6.3510   -4.0700   20.1720 C   0  0  0  0  0  0  0  0  0  0  0  0
    5.2130   -4.4690   19.8320 O   0  0  0  0  0  0  0  0  0  0  0  0
    6.9090   -4.3680   21.3960 N   0  0  0  0  0  0  0  0  0  0  0  0
    6.4640   -5.5250   22.1300 C   0  0  0  0  0  0  0  0  0  0  0  0
    5.6150   -5.0200   23.2580 C   0  0  0  0  0  0  0  0  0  0  0  0
    6.3510   -3.9320   23.9810 C   0  0  0  0  0  0  0  0  0  0  0  0
    5.6350   -3.4990   25.1720 C   0  0  0  0  0  0  0  0  0  0  0  0
    4.5470   -2.8920   25.0810 O   0  0  0  0  0  0  0  0  0  0  0  0
    6.1770   -3.7820   26.4020 N   0  0  0  0  0  0  0  0  0  0  0  0
    5.4950   -3.3930   27.6090 C   0  0  0  0  0  0  0  0  0  0  0  0
    5.7400   -4.4590   28.6530 C   0  0  0  0  0  0  0  0  0  0  0  0
    6.4490   -5.6030   28.3850 C   0  0  0  0  0  0  0  0  0  0  0  0
    7.2990   -5.6800   27.2810 C   0  0  0  0  0  0  0  0  0  0  0  0
    7.3600   -4.5950   26.3920 C   0  0  1  0  0  0  0  0  0  0  0  0
    7.9920   -4.7990   25.1930 C   0  0  0  0  0  0  0  0  0  0  0  0
    9.1380   -4.0270   25.0330 C   0  0  0  0  0  0  0  0  0  0  0  0
   10.4390   -4.5200   25.6570 C   0  0  0  0  0  0  0  0  0  0  0  0
   11.6330   -3.5780   25.4120 C   0  0  0  0  0  0  0  0  0  0  0  0
   11.5700   -2.2970   24.6390 C   0  0  0  0  0  0  0  0  0  0  0  0
   12.7510   -1.3760   24.3860 C   0  0  0  0  0  0  0  0  0  0  0  0
   12.8370   -0.4650   23.3360 N   0  0  0  0  0  0  0  0  0  0  0  0
   10.2730   -1.9530   24.1120 C   0  0  0  0  0  0  0  0  0  0  0  0
    9.0660   -2.8320   24.3220 C   0  0  0  0  0  0  0  0  0  0  0  0
    6.6350   -2.7770   23.0930 C   0  0  0  0  0  0  0  0  0  0  0  0
    7.6180   -3.2950   22.0600 C   0  0  0  0  0  0  0  0  0  0  0  0
  1  2  1  0
  2  3  2  0
  2  4  1  0
  4  5  1  0
  5  6  1  0
  6  7  1  0
  7  8  1  0
  8  9  2  0
  8 10  1  0
 10 11  1  0
 11 12  1  0
 12 13  1  0
 13 14  1  0
 10 15  1  0
 14 15  1  0
 15 16  1  6
 16 17  1  0
 17 18  2  0
 18 19  1  0
 19 20  2  0
 20 21  1  0
 21 22  3  0
 20 23  1  0
 17 24  1  0
 23 24  2  0
  7 25  1  0
  4 26  1  0
 25 26  1  0
M  END
