piperidine-amides-13835-covalent
     RDKit          3D

 26 29  0  0  0  0  0  0  0  0999 V2000
    7.1130   -3.3550   19.3540 C   0  0  0  0  0  0  0  0  0  0  0  0
    6.3730   -4.1870   20.3330 C   0  0  0  0  0  0  0  0  0  0  0  0
    5.3450   -4.7820   19.9660 O   0  0  0  0  0  0  0  0  0  0  0  0
    6.8980   -4.3220   21.6350 N   0  0  0  0  0  0  0  0  0  0  0  0
    7.6950   -3.2850   22.2450 C   0  0  0  0  0  0  0  0  0  0  0  0
    6.8380   -2.6830   23.3590 C   0  0  0  0  0  0  0  0  0  0  0  0
    6.4350   -3.8000   24.2620 C   0  0  0  0  0  0  0  0  0  0  0  0
    5.6740   -3.3190   25.4470 C   0  0  0  0  0  0  0  0  0  0  0  0
    4.4440   -3.3930   25.3530 O   0  0  0  0  0  0  0  0  0  0  0  0
    6.3180   -2.8100   26.5860 N   0  0  0  0  0  0  0  0  0  0  0  0
    6.6980   -1.4500   26.8020 C   0  0  1  0  0  0  0  0  0  0  0  0
    5.8970   -0.3510   26.5760 C   0  0  0  0  0  0  0  0  0  0  0  0
    5.6160    0.5460   27.6380 C   0  0  0  0  0  0  0  0  0  0  0  0
    6.3200    1.7230   27.6660 C   0  0  0  0  0  0  0  0  0  0  0  0
    5.0680    2.4050   27.5960 C   0  0  0  0  0  0  0  0  0  0  0  0
    4.2800    1.0770   27.5490 C   0  0  0  0  0  0  0  0  0  0  0  0
    5.8170   -0.0030   28.9290 O   0  0  0  0  0  0  0  0  0  0  0  0
    7.0500   -0.5680   29.4230 C   0  0  0  0  0  0  0  0  0  0  0  0
    6.5090    0.2160   30.4720 C   0  0  0  0  0  0  0  0  0  0  0  0
    7.7200   -0.4490   30.6820 C   0  0  0  0  0  0  0  0  0  0  0  0
    6.6840   -0.3110   29.4980 C   0  0  0  0  0  0  0  0  0  0  0  0
    7.6040   -1.1390   28.9120 F   0  0  0  0  0  0  0  0  0  0  0  0
    6.0140   -0.4300   28.2460 C   0  0  0  0  0  0  0  0  0  0  0  0
    7.2210   -1.1940   28.1990 C   0  0  0  0  0  0  0  0  0  0  0  0
    5.6820   -4.9150   23.5950 C   0  0  0  0  0  0  0  0  0  0  0  0
    6.5580   -5.4510   22.4600 C   0  0  0  0  0  0  0  0  0  0  0  0
  1  2  1  0
  2  3  2  0
  2  4  1  0
  4  5  1  0
  5  6  1  0
  6  7  1  0
  7  8  1  0
  8  9  2  0
  8 10  1  0
 11 10  1  1
 11 12  1  0
 12 13  1  0
 13 14  1  0
 14 15  1  0
 13 16  1  0
 15 16  1  0
 13 17  1  0
 17 18  1  0
 18 19  2  0
 19 20  1  0
 20 21  2  0
 21 22  1  0
 21 23  1  0
 11 24  1  0
 18 24  1  0
 23 24  2  0
  7 25  1  0
  4 26  1  0
 25 26  1  0
M  END
