piperidine-amides-11304-covalent
     RDKit          3D

 18 18  0  0  0  0  0  0  0  0999 V2000
    7.1160   -3.2870   19.2270 C   0  0  0  0  0  0  0  0  0  0  0  0
    6.3070   -4.0200   20.2040 C   0  0  0  0  0  0  0  0  0  0  0  0
    5.2210   -4.5010   19.8540 O   0  0  0  0  0  0  0  0  0  0  0  0
    6.7520   -4.2480   21.5110 N   0  0  0  0  0  0  0  0  0  0  0  0
    6.4900   -5.4960   22.1820 C   0  0  0  0  0  0  0  0  0  0  0  0
    5.8490   -5.1410   23.5010 C   0  0  0  0  0  0  0  0  0  0  0  0
    5.9540   -3.6750   23.8240 C   0  0  0  0  0  0  0  0  0  0  0  0
    5.7000   -3.3530   25.2510 C   0  0  0  0  0  0  0  0  0  0  0  0
    4.6580   -2.7070   25.5720 O   0  0  0  0  0  0  0  0  0  0  0  0
    6.5670   -3.7330   26.3000 N   0  0  0  0  0  0  0  0  0  0  0  0
    6.9060   -5.1610   26.4980 C   0  0  0  0  0  0  0  0  0  0  0  0
    6.7560   -5.4980   27.9290 C   0  0  0  0  0  0  0  0  0  0  0  0
    5.6240   -5.4340   28.4790 O   0  0  0  0  0  0  0  0  0  0  0  0
    4.8960   -6.5650   28.5800 C   0  0  0  0  0  0  0  0  0  0  0  0
    3.3870   -6.5210   28.5090 C   0  0  0  0  0  0  0  0  0  0  0  0
    2.4860   -7.5800   29.1010 C   0  0  0  0  0  0  0  0  0  0  0  0
    7.3030   -3.1780   23.4540 C   0  0  0  0  0  0  0  0  0  0  0  0
    7.5160   -3.2050   22.1150 C   0  0  0  0  0  0  0  0  0  0  0  0
  1  2  1  0
  2  3  2  0
  2  4  1  0
  4  5  1  0
  5  6  1  0
  6  7  1  0
  7  8  1  0
  8  9  2  0
  8 10  1  0
 10 11  1  0
 11 12  1  0
 12 13  1  0
 13 14  1  0
 14 15  1  0
 15 16  2  3
  7 17  1  0
  4 18  1  0
 17 18  1  0
M  END
