piperidine-amides-25217-covalent
     RDKit          3D

 25 27  0  0  0  0  0  0  0  0999 V2000
    6.9760   -3.3840   19.4340 C   0  0  0  0  0  0  0  0  0  0  0  0
    6.3570   -4.2950   20.4370 C   0  0  0  0  0  0  0  0  0  0  0  0
    5.4350   -4.9910   20.0140 O   0  0  0  0  0  0  0  0  0  0  0  0
    6.8300   -4.3730   21.7670 N   0  0  0  0  0  0  0  0  0  0  0  0
    6.6490   -5.5660   22.5840 C   0  0  0  0  0  0  0  0  0  0  0  0
    6.0020   -5.2230   23.9150 C   0  0  0  0  0  0  0  0  0  0  0  0
    5.9580   -3.7060   24.0330 C   0  0  0  0  0  0  0  0  0  0  0  0
    5.2340   -3.2280   25.2640 C   0  0  0  0  0  0  0  0  0  0  0  0
    4.4450   -2.2980   25.0960 O   0  0  0  0  0  0  0  0  0  0  0  0
    5.3420   -3.7260   26.5930 N   0  0  0  0  0  0  0  0  0  0  0  0
    4.2350   -3.4500   27.5070 C   0  0  0  0  0  0  0  0  0  0  0  0
    4.6480   -3.4040   28.9930 C   0  0  0  0  0  0  0  0  0  0  0  0
    5.5220   -4.5280   29.3200 N   0  0  0  0  0  0  0  0  0  0  0  0
    4.6310   -5.7020   29.2990 C   0  0  0  0  0  0  0  0  0  0  0  0
    4.2820   -6.0630   28.0320 C   0  0  0  0  0  0  0  0  0  0  0  0
    3.4250   -7.1210   27.7900 C   0  0  0  0  0  0  0  0  0  0  0  0
    2.8780   -7.8630   28.7700 N   0  0  0  0  0  0  0  0  0  0  0  0
    3.2970   -7.4470   30.1020 C   0  0  0  0  0  0  0  0  0  0  0  0
    3.1820   -7.7110   31.5710 C   0  0  0  0  0  0  0  0  0  0  0  0
    2.2110   -7.4590   32.4860 N   0  0  0  0  0  0  0  0  0  0  0  0
    4.1960   -6.3520   30.5760 C   0  0  0  0  0  0  0  0  0  0  0  0
    6.6000   -4.5740   28.3920 C   0  0  0  0  0  0  0  0  0  0  0  0
    6.4530   -3.4480   27.4170 C   0  0  0  0  0  0  0  0  0  0  0  0
    7.2260   -3.0230   23.7030 C   0  0  0  0  0  0  0  0  0  0  0  0
    7.6890   -3.3270   22.3180 C   0  0  0  0  0  0  0  0  0  0  0  0
  1  2  1  0
  2  3  2  0
  2  4  1  0
  4  5  1  0
  5  6  1  0
  6  7  1  0
  7  8  1  0
  8  9  2  0
  8 10  1  0
 10 11  1  0
 11 12  1  0
 12 13  1  0
 13 14  1  0
 14 15  2  0
 15 16  1  0
 16 17  2  0
 17 18  1  0
 18 19  1  0
 19 20  3  0
 14 21  1  0
 18 21  2  0
 13 22  1  0
 10 23  1  0
 22 23  1  0
  7 24  1  0
  4 25  1  0
 24 25  1  0
M  END
