piperidine-amides-24730-covalent
     RDKit          3D

 24 25  0  0  0  0  0  0  0  0999 V2000
    7.0610   -3.3550   19.3400 C   0  0  0  0  0  0  0  0  0  0  0  0
    6.4170   -4.2390   20.3220 C   0  0  0  0  0  0  0  0  0  0  0  0
    5.3900   -4.8710   19.9930 O   0  0  0  0  0  0  0  0  0  0  0  0
    6.9760   -4.4270   21.5980 N   0  0  0  0  0  0  0  0  0  0  0  0
    6.6370   -5.6160   22.3260 C   0  0  0  0  0  0  0  0  0  0  0  0
    5.7240   -5.1530   23.4670 C   0  0  0  0  0  0  0  0  0  0  0  0
    6.4390   -4.0710   24.2670 C   0  0  0  0  0  0  0  0  0  0  0  0
    5.4680   -3.5330   25.2510 C   0  0  0  0  0  0  0  0  0  0  0  0
    4.6090   -2.7310   24.8410 O   0  0  0  0  0  0  0  0  0  0  0  0
    5.5030   -3.9130   26.6150 N   0  0  0  0  0  0  0  0  0  0  0  0
    6.7750   -4.1670   27.1160 C   0  0  0  0  0  0  0  0  0  0  0  0
    6.7300   -5.0190   28.3560 C   0  0  2  0  0  0  0  0  0  0  0  0
    7.0230   -6.3340   28.3940 C   0  0  0  0  0  0  0  0  0  0  0  0
    6.3080   -7.0330   29.3500 C   0  0  0  0  0  0  0  0  0  0  0  0
    5.3330   -5.0470   28.6940 N   0  0  0  0  0  0  0  0  0  0  0  0
    4.7170   -5.9950   27.8810 C   0  0  0  0  0  0  0  0  0  0  0  0
    3.7090   -6.7050   28.4930 C   0  0  0  0  0  0  0  0  0  0  0  0
    4.9370   -6.3380   26.5860 O   0  0  0  0  0  0  0  0  0  0  0  0
    4.7360   -3.8980   28.9520 C   0  0  0  0  0  0  0  0  0  0  0  0
    4.8420   -3.1310   27.6500 C   0  0  1  0  0  0  0  0  0  0  0  0
    5.6160   -1.8540   27.7720 C   0  0  0  0  0  0  0  0  0  0  0  0
    4.1630   -1.6560   27.8200 C   0  0  0  0  0  0  0  0  0  0  0  0
    6.8420   -2.9300   23.3600 C   0  0  0  0  0  0  0  0  0  0  0  0
    7.5700   -3.3280   22.2770 C   0  0  0  0  0  0  0  0  0  0  0  0
  1  2  1  0
  2  3  2  0
  2  4  1  0
  4  5  1  0
  5  6  1  0
  6  7  1  0
  7  8  1  0
  8  9  2  0
  8 10  1  0
 10 11  1  0
 11 12  1  0
 12 13  1  6
 13 14  1  0
 12 15  1  0
 15 16  1  0
 16 17  1  0
 16 18  2  0
 15 19  1  0
 10 20  1  0
 19 20  1  0
 20 21  1  1
 21 22  1  0
  7 23  1  0
  4 24  1  0
 23 24  1  0
M  END
