piperidine-amides-30660-covalent
     RDKit          3D

 27 29  0  0  0  0  0  0  0  0999 V2000
    7.0300   -3.3580   19.4160 C   0  0  0  0  0  0  0  0  0  0  0  0
    6.3930   -4.2160   20.4190 C   0  0  0  0  0  0  0  0  0  0  0  0
    5.4600   -4.9460   20.0240 O   0  0  0  0  0  0  0  0  0  0  0  0
    6.8230   -4.2750   21.7800 N   0  0  0  0  0  0  0  0  0  0  0  0
    7.6420   -3.2220   22.4020 C   0  0  0  0  0  0  0  0  0  0  0  0
    7.1290   -2.9500   23.8190 C   0  0  0  0  0  0  0  0  0  0  0  0
    5.8950   -3.7580   24.0810 C   0  0  0  0  0  0  0  0  0  0  0  0
    5.0560   -3.5490   25.3330 C   0  0  0  0  0  0  0  0  0  0  0  0
    3.8420   -3.8610   25.2230 O   0  0  0  0  0  0  0  0  0  0  0  0
    5.3470   -3.0410   26.6490 N   0  0  0  0  0  0  0  0  0  0  0  0
    6.6340   -3.1080   27.2070 C   0  0  0  0  0  0  0  0  0  0  0  0
    6.6220   -4.2650   28.1810 C   0  0  0  0  0  0  0  0  0  0  0  0
    5.4990   -4.3740   29.1140 C   0  0  0  0  0  0  0  0  0  0  0  0
    5.4500   -5.6160   29.9620 C   0  0  0  0  0  0  0  0  0  0  0  0
    6.6230   -6.3150   29.9270 O   0  0  0  0  0  0  0  0  0  0  0  0
    4.3340   -6.1110   30.7180 N   0  0  0  0  0  0  0  0  0  0  0  0
    4.8050   -7.2590   31.4980 C   0  0  0  0  0  0  0  0  0  0  0  0
    4.6620   -6.9360   32.9370 C   0  0  1  0  0  0  0  0  0  0  0  0
    5.6070   -7.6830   33.5850 C   0  0  0  0  0  0  0  0  0  0  0  0
    4.5610   -5.7500   33.2900 O   0  0  0  0  0  0  0  0  0  0  0  0
    3.4140   -5.1600   32.8070 C   0  0  1  0  0  0  0  0  0  0  0  0
    3.0050   -3.8030   33.3400 C   0  0  0  0  0  0  0  0  0  0  0  0
    3.5570   -5.0230   31.3150 C   0  0  0  0  0  0  0  0  0  0  0  0
    4.4800   -4.3860   28.0390 C   0  0  0  0  0  0  0  0  0  0  0  0
    4.3410   -3.2590   27.6350 C   0  0  0  0  0  0  0  0  0  0  0  0
    6.0700   -5.1960   23.8080 C   0  0  0  0  0  0  0  0  0  0  0  0
    6.6130   -5.4580   22.5650 C   0  0  0  0  0  0  0  0  0  0  0  0
  1  2  1  0
  2  3  2  0
  2  4  1  0
  4  5  1  0
  5  6  1  0
  6  7  1  0
  7  8  1  0
  8  9  2  0
  8 10  1  0
 10 11  1  0
 11 12  1  0
 12 13  1  0
 13 14  1  0
 14 15  2  0
 14 16  1  0
 16 17  1  0
 17 18  1  0
 18 19  1  1
 18 20  1  0
 20 21  1  0
 21 22  1  1
 16 23  1  0
 21 23  1  0
 13 24  1  0
 10 25  1  0
 24 25  1  0
  7 26  1  0
  4 27  1  0
 26 27  1  0
M  END
