piperidine-amides-4138-covalent
     RDKit          3D

 27 29  0  0  0  0  0  0  0  0999 V2000
    7.1160   -3.3020   19.2510 C   0  0  0  0  0  0  0  0  0  0  0  0
    6.3870   -4.0930   20.2490 C   0  0  0  0  0  0  0  0  0  0  0  0
    5.2950   -4.5980   19.9000 O   0  0  0  0  0  0  0  0  0  0  0  0
    6.9350   -4.3360   21.5280 N   0  0  0  0  0  0  0  0  0  0  0  0
    7.6120   -3.2500   22.1560 C   0  0  0  0  0  0  0  0  0  0  0  0
    7.1050   -2.8670   23.4650 C   0  0  0  0  0  0  0  0  0  0  0  0
    6.4670   -3.9430   24.2470 C   0  0  0  0  0  0  0  0  0  0  0  0
    5.7480   -3.3580   25.4210 C   0  0  0  0  0  0  0  0  0  0  0  0
    4.5090   -3.2380   25.3750 O   0  0  0  0  0  0  0  0  0  0  0  0
    6.4330   -2.9320   26.5750 N   0  0  0  0  0  0  0  0  0  0  0  0
    6.3560   -1.6570   27.1840 C   0  0  0  0  0  0  0  0  0  0  0  0
    5.7520   -0.4370   26.6220 C   0  0  0  0  0  0  0  0  0  0  0  0
    5.7710    0.8530   27.4750 C   0  0  0  0  0  0  0  0  0  0  0  0
    6.3530    0.7940   28.7190 C   0  0  0  0  0  0  0  0  0  0  0  0
    6.3640    1.9640   29.4970 N   0  0  0  0  0  0  0  0  0  0  0  0
    5.9590    1.7980   30.8450 C   0  0  0  0  0  0  0  0  0  0  0  0
    5.2780    3.0480   31.3240 C   0  0  2  0  0  0  0  0  0  0  0  0
    4.2680    2.1310   32.0270 C   0  0  0  0  0  0  0  0  0  0  0  0
    4.6400    3.7480   30.2870 O   0  0  0  0  0  0  0  0  0  0  0  0
    5.3920    4.0680   29.1230 C   0  0  1  0  0  0  0  0  0  0  0  0
    5.9410    5.4770   29.2550 C   0  0  0  0  0  0  0  0  0  0  0  0
    6.5620    3.1740   28.8110 C   0  0  0  0  0  0  0  0  0  0  0  0
    6.9640   -0.4240   29.2860 C   0  0  0  0  0  0  0  0  0  0  0  0
    7.5190   -0.3640   30.5460 F   0  0  0  0  0  0  0  0  0  0  0  0
    6.9550   -1.5830   28.5330 C   0  0  0  0  0  0  0  0  0  0  0  0
    5.6310   -4.8880   23.4590 C   0  0  0  0  0  0  0  0  0  0  0  0
    6.4150   -5.4240   22.2930 C   0  0  0  0  0  0  0  0  0  0  0  0
  1  2  1  0
  2  3  2  0
  2  4  1  0
  4  5  1  0
  5  6  1  0
  6  7  1  0
  7  8  1  0
  8  9  2  0
  8 10  1  0
 10 11  1  0
 11 12  2  0
 12 13  1  0
 13 14  2  0
 14 15  1  0
 15 16  1  0
 16 17  1  0
 17 18  1  1
 17 19  1  0
 19 20  1  0
 20 21  1  1
 15 22  1  0
 20 22  1  0
 14 23  1  0
 23 24  1  0
 11 25  1  0
 23 25  2  0
  7 26  1  0
  4 27  1  0
 26 27  1  0
M  END
