piperidine-amides-23522-covalent
     RDKit          3D

 24 25  0  0  0  0  0  0  0  0999 V2000
    7.1430   -3.3130   19.1840 C   0  0  0  0  0  0  0  0  0  0  0  0
    6.4190   -4.0790   20.2080 C   0  0  0  0  0  0  0  0  0  0  0  0
    5.3060   -4.5590   19.8900 O   0  0  0  0  0  0  0  0  0  0  0  0
    7.0040   -4.3170   21.4670 N   0  0  0  0  0  0  0  0  0  0  0  0
    7.6930   -3.2270   22.0690 C   0  0  0  0  0  0  0  0  0  0  0  0
    7.1000   -2.7490   23.2960 C   0  0  0  0  0  0  0  0  0  0  0  0
    6.4570   -3.7800   24.1270 C   0  0  0  0  0  0  0  0  0  0  0  0
    5.6360   -3.1250   25.1650 C   0  0  0  0  0  0  0  0  0  0  0  0
    4.5150   -2.6460   24.9080 O   0  0  0  0  0  0  0  0  0  0  0  0
    6.1600   -3.0910   26.4410 N   0  0  0  0  0  0  0  0  0  0  0  0
    6.6190   -4.2580   27.1070 C   0  0  0  0  0  0  0  0  0  0  0  0
    8.0200   -4.6390   27.0170 C   0  0  0  0  0  0  0  0  0  0  0  0
    8.3190   -5.4310   25.7370 C   0  0  0  0  0  0  0  0  0  0  0  0
    8.6920   -5.3370   28.1020 C   0  0  0  0  0  0  0  0  0  0  0  0
    6.2480   -1.7940   27.1570 C   0  0  0  0  0  0  0  0  0  0  0  0
    5.2860   -0.7880   26.5460 C   0  0  0  0  0  0  0  0  0  0  0  0
    5.4260    0.5070   27.3680 C   0  0  0  0  0  0  0  0  0  0  0  0
    6.3240    0.7180   28.5310 C   0  0  0  0  0  0  0  0  0  0  0  0
    6.3490    2.0590   29.2510 C   0  0  0  0  0  0  0  0  0  0  0  0
    7.1940   -0.4000   28.9690 C   0  0  0  0  0  0  0  0  0  0  0  0
    7.1390   -1.6810   28.2330 C   0  0  0  0  0  0  0  0  0  0  0  0
    7.9260   -2.7290   28.5830 C   0  0  0  0  0  0  0  0  0  0  0  0
    5.7250   -4.8750   23.4210 C   0  0  0  0  0  0  0  0  0  0  0  0
    6.5170   -5.4040   22.2600 C   0  0  0  0  0  0  0  0  0  0  0  0
  1  2  1  0
  2  3  2  0
  2  4  1  0
  4  5  1  0
  5  6  1  0
  6  7  1  0
  7  8  1  0
  8  9  2  0
  8 10  1  0
 10 11  1  0
 11 12  1  0
 12 13  1  0
 12 14  1  0
 10 15  1  0
 15 16  2  0
 16 17  1  0
 17 18  2  0
 18 19  1  0
 18 20  1  0
 15 21  1  0
 20 21  2  0
 21 22  1  0
  7 23  1  0
  4 24  1  0
 23 24  1  0
M  END
