piperidine-amides-14064-covalent
     RDKit          3D

 25 27  0  0  0  0  0  0  0  0999 V2000
    7.0590   -3.3230   19.3220 C   0  0  0  0  0  0  0  0  0  0  0  0
    6.3540   -4.1710   20.3250 C   0  0  0  0  0  0  0  0  0  0  0  0
    5.3580   -4.8220   19.9700 O   0  0  0  0  0  0  0  0  0  0  0  0
    6.8590   -4.2400   21.6400 N   0  0  0  0  0  0  0  0  0  0  0  0
    6.7160   -5.4530   22.4260 C   0  0  0  0  0  0  0  0  0  0  0  0
    6.0180   -5.1090   23.7510 C   0  0  0  0  0  0  0  0  0  0  0  0
    6.1490   -3.6410   23.9810 C   0  0  0  0  0  0  0  0  0  0  0  0
    5.6990   -3.2100   25.3180 C   0  0  0  0  0  0  0  0  0  0  0  0
    4.5140   -3.4230   25.5990 O   0  0  0  0  0  0  0  0  0  0  0  0
    6.5990   -2.5850   26.1820 N   0  0  0  0  0  0  0  0  0  0  0  0
    6.3970   -1.3410   26.8360 C   0  0  0  0  0  0  0  0  0  0  0  0
    5.7790   -0.2030   26.3560 C   0  0  0  0  0  0  0  0  0  0  0  0
    5.6270    1.0130   27.1220 C   0  0  0  0  0  0  0  0  0  0  0  0
    4.9940    2.1050   26.5820 C   0  0  0  0  0  0  0  0  0  0  0  0
    4.3820    2.0020   25.2550 C   0  0  0  0  0  0  0  0  0  0  0  0
    3.7300    3.2630   24.8080 C   0  0  0  0  0  0  0  0  0  0  0  0
    4.0300    4.1270   26.0330 C   0  0  0  0  0  0  0  0  0  0  0  0
    3.6500    5.4430   26.1820 C   0  0  0  0  0  0  0  0  0  0  0  0
    4.7600    3.3760   26.9970 O   0  0  0  0  0  0  0  0  0  0  0  0
    6.1300    1.0680   28.4310 C   0  0  0  0  0  0  0  0  0  0  0  0
    6.7980   -0.1670   28.9450 C   0  0  0  0  0  0  0  0  0  0  0  0
    6.8380   -1.1830   28.0980 C   0  0  0  0  0  0  0  0  0  0  0  0
    7.5440   -1.8860   29.2310 C   0  0  0  0  0  0  0  0  0  0  0  0
    7.4960   -3.1010   23.6610 C   0  0  0  0  0  0  0  0  0  0  0  0
    7.6950   -3.1700   22.1620 C   0  0  0  0  0  0  0  0  0  0  0  0
  1  2  1  0
  2  3  2  0
  2  4  1  0
  4  5  1  0
  5  6  1  0
  6  7  1  0
  7  8  1  0
  8  9  2  0
  8 10  1  0
 10 11  1  0
 11 12  2  0
 12 13  1  0
 13 14  1  0
 14 15  2  0
 15 16  1  0
 16 17  2  0
 17 18  1  0
 14 19  1  0
 17 19  1  0
 13 20  2  0
 20 21  1  0
 11 22  1  0
 21 22  2  0
 22 23  1  0
  7 24  1  0
  4 25  1  0
 24 25  1  0
M  END
