piperidine-amides-2791-covalent
     RDKit          3D

 24 26  0  0  0  0  0  0  0  0999 V2000
    7.0880   -3.3080   19.2420 C   0  0  0  0  0  0  0  0  0  0  0  0
    6.3640   -4.0720   20.2540 C   0  0  0  0  0  0  0  0  0  0  0  0
    5.3360   -4.6740   19.9380 O   0  0  0  0  0  0  0  0  0  0  0  0
    6.8690   -4.1700   21.5980 N   0  0  0  0  0  0  0  0  0  0  0  0
    6.6570   -5.3810   22.3550 C   0  0  0  0  0  0  0  0  0  0  0  0
    6.0600   -5.0440   23.6910 C   0  0  0  0  0  0  0  0  0  0  0  0
    6.1910   -3.5390   23.8370 C   0  0  0  0  0  0  0  0  0  0  0  0
    5.7450   -3.0740   25.1730 C   0  0  0  0  0  0  0  0  0  0  0  0
    4.5530   -3.1340   25.5230 O   0  0  0  0  0  0  0  0  0  0  0  0
    6.7020   -2.5310   26.0620 N   0  0  0  0  0  0  0  0  0  0  0  0
    6.2890   -2.1920   27.4030 C   0  0  0  0  0  0  0  0  0  0  0  0
    5.4380   -3.3220   27.8970 C   0  0  0  0  0  0  0  0  0  0  0  0
    4.0430   -3.2730   27.8490 C   0  0  0  0  0  0  0  0  0  0  0  0
    3.2390   -4.3830   28.3250 N   0  0  0  0  0  0  0  0  0  0  0  0
    3.9740   -5.4960   28.8270 C   0  0  0  0  0  0  0  0  0  0  0  0
    3.2750   -6.5950   29.2940 C   0  0  0  0  0  0  0  0  0  0  0  0
    1.9090   -6.4630   29.2090 F   0  0  0  0  0  0  0  0  0  0  0  0
    4.0210   -7.7280   29.8020 C   0  0  0  0  0  0  0  0  0  0  0  0
    5.3870   -7.7230   29.8280 C   0  0  0  0  0  0  0  0  0  0  0  0
    6.0290   -6.6240   29.3620 C   0  0  0  0  0  0  0  0  0  0  0  0
    5.3430   -5.5320   28.8710 C   0  0  0  0  0  0  0  0  0  0  0  0
    6.0880   -4.4060   28.3950 C   0  0  0  0  0  0  0  0  0  0  0  0
    7.5830   -3.0640   23.5040 C   0  0  0  0  0  0  0  0  0  0  0  0
    7.7320   -3.1290   22.1250 C   0  0  0  0  0  0  0  0  0  0  0  0
  1  2  1  0
  2  3  2  0
  2  4  1  0
  4  5  1  0
  5  6  1  0
  6  7  1  0
  7  8  1  0
  8  9  2  0
  8 10  1  0
 10 11  1  0
 11 12  1  0
 12 13  2  0
 13 14  1  0
 14 15  2  0
 15 16  1  0
 16 17  1  0
 16 18  2  0
 18 19  1  0
 19 20  2  0
 15 21  1  0
 20 21  1  0
 12 22  1  0
 21 22  2  0
  7 23  1  0
  4 24  1  0
 23 24  1  0
M  END
