piperidine-amides-27905-covalent
     RDKit          3D

 26 29  0  0  0  0  0  0  0  0999 V2000
    7.0830   -3.3460   19.3260 C   0  0  0  0  0  0  0  0  0  0  0  0
    6.4210   -4.2030   20.3350 C   0  0  0  0  0  0  0  0  0  0  0  0
    5.3810   -4.7930   19.9690 O   0  0  0  0  0  0  0  0  0  0  0  0
    6.9850   -4.3700   21.6090 N   0  0  0  0  0  0  0  0  0  0  0  0
    6.5880   -5.4570   22.4350 C   0  0  0  0  0  0  0  0  0  0  0  0
    6.0710   -5.0590   23.7550 C   0  0  0  0  0  0  0  0  0  0  0  0
    6.4730   -3.7270   24.2930 C   0  0  0  0  0  0  0  0  0  0  0  0
    5.3870   -3.1700   25.1410 C   0  0  0  0  0  0  0  0  0  0  0  0
    4.4910   -2.5320   24.5740 O   0  0  0  0  0  0  0  0  0  0  0  0
    5.3140   -3.3420   26.5350 N   0  0  0  0  0  0  0  0  0  0  0  0
    6.4340   -3.4140   27.4210 C   0  0  1  0  0  0  0  0  0  0  0  0
    6.2850   -2.1280   28.1030 C   0  0  0  0  0  0  0  0  0  0  0  0
    4.8760   -1.8870   28.0140 C   0  0  0  0  0  0  0  0  0  0  0  0
    4.2760   -3.0140   27.4670 C   0  0  2  0  0  0  0  0  0  0  0  0
    4.1890   -4.1940   28.1610 C   0  0  0  0  0  0  0  0  0  0  0  0
    5.2870   -4.4460   28.9300 C   0  0  1  0  0  0  0  0  0  0  0  0
    5.2070   -3.2970   29.7310 O   0  0  0  0  0  0  0  0  0  0  0  0
    4.9630   -5.5300   29.6770 C   0  0  0  0  0  0  0  0  0  0  0  0
    3.7520   -5.6390   30.3370 C   0  0  0  0  0  0  0  0  0  0  0  0
    3.5170   -6.7860   31.1060 N   0  0  0  0  0  0  0  0  0  0  0  0
    4.3620   -7.8430   31.2860 C   0  0  0  0  0  0  0  0  0  0  0  0
    5.5520   -7.8420   30.6800 N   0  0  0  0  0  0  0  0  0  0  0  0
    5.8630   -6.7710   29.9190 C   0  0  0  0  0  0  0  0  0  0  0  0
    6.4910   -4.5120   28.2670 C   0  0  0  0  0  0  0  0  0  0  0  0
    6.8840   -2.7410   23.1930 C   0  0  0  0  0  0  0  0  0  0  0  0
    7.7450   -3.3300   22.2610 C   0  0  0  0  0  0  0  0  0  0  0  0
  1  2  1  0
  2  3  2  0
  2  4  1  0
  4  5  1  0
  5  6  1  0
  6  7  1  0
  7  8  1  0
  8  9  2  0
  8 10  1  0
 10 11  1  0
 11 12  1  1
 12 13  1  0
 10 14  1  0
 14 13  1  1
 14 15  1  0
 15 16  1  0
 16 17  1  1
 16 18  1  0
 18 19  2  0
 19 20  1  0
 20 21  2  0
 21 22  1  0
 18 23  1  0
 22 23  2  0
 11 24  1  0
 16 24  1  0
  7 25  1  0
  4 26  1  0
 25 26  1  0
M  END
