piperidine-amides-4464-covalent
     RDKit          3D

 25 26  0  0  0  0  0  0  0  0999 V2000
    7.1400   -3.2970   19.2510 C   0  0  0  0  0  0  0  0  0  0  0  0
    6.3580   -4.0330   20.2520 C   0  0  0  0  0  0  0  0  0  0  0  0
    5.2650   -4.5220   19.8770 O   0  0  0  0  0  0  0  0  0  0  0  0
    6.8590   -4.2280   21.5590 N   0  0  0  0  0  0  0  0  0  0  0  0
    6.4080   -5.3370   22.3140 C   0  0  0  0  0  0  0  0  0  0  0  0
    6.0050   -5.0060   23.6770 C   0  0  0  0  0  0  0  0  0  0  0  0
    6.5710   -3.7590   24.2590 C   0  0  0  0  0  0  0  0  0  0  0  0
    5.7620   -3.3230   25.4560 C   0  0  0  0  0  0  0  0  0  0  0  0
    4.5560   -3.0560   25.2900 O   0  0  0  0  0  0  0  0  0  0  0  0
    6.3140   -3.1960   26.7600 N   0  0  0  0  0  0  0  0  0  0  0  0
    6.2860   -4.0980   27.8730 C   0  0  2  0  0  0  0  0  0  0  0  0
    5.9480   -5.5290   27.7510 C   0  0  0  0  0  0  0  0  0  0  0  0
    4.4270   -5.7410   27.6130 C   0  0  0  0  0  0  0  0  0  0  0  0
    3.8950   -4.7220   26.8560 O   0  0  0  0  0  0  0  0  0  0  0  0
    3.7340   -6.6680   28.0880 O   0  0  0  0  0  0  0  0  0  0  0  0
    4.1260   -7.6030   28.9530 C   0  0  0  0  0  0  0  0  0  0  0  0
    5.3810   -3.5160   28.9820 C   0  0  0  0  0  0  0  0  0  0  0  0
    4.2890   -4.3500   29.5850 C   0  0  0  0  0  0  0  0  0  0  0  0
    3.5680   -3.5050   30.6570 C   0  0  0  0  0  0  0  0  0  0  0  0
    3.7750   -2.0880   31.1550 C   0  0  0  0  0  0  0  0  0  0  0  0
    4.9030   -1.3360   30.4860 C   0  0  0  0  0  0  0  0  0  0  0  0
    5.3400    0.4630   30.9590 Br  0  0  0  0  0  0  0  0  0  0  0  0
    5.6680   -2.1010   29.4080 C   0  0  0  0  0  0  0  0  0  0  0  0
    6.7090   -2.6900   23.2220 C   0  0  0  0  0  0  0  0  0  0  0  0
    7.5810   -3.1860   22.2570 C   0  0  0  0  0  0  0  0  0  0  0  0
  1  2  1  0
  2  3  2  0
  2  4  1  0
  4  5  1  0
  5  6  1  0
  6  7  1  0
  7  8  1  0
  8  9  2  0
  8 10  1  0
 10 11  1  0
 11 12  1  6
 12 13  1  0
 13 14  2  0
 13 15  1  0
 15 16  1  0
 11 17  1  0
 17 18  2  0
 18 19  1  0
 19 20  2  0
 20 21  1  0
 21 22  1  0
 17 23  1  0
 21 23  2  0
  7 24  1  0
  4 25  1  0
 24 25  1  0
M  END
