piperidine-amides-11855-covalent
     RDKit          3D

 26 28  0  0  0  0  0  0  0  0999 V2000
    7.0850   -3.3200   19.3170 C   0  0  0  0  0  0  0  0  0  0  0  0
    6.3730   -4.1460   20.2820 C   0  0  0  0  0  0  0  0  0  0  0  0
    5.3490   -4.7430   19.9540 O   0  0  0  0  0  0  0  0  0  0  0  0
    6.9050   -4.3060   21.6020 N   0  0  0  0  0  0  0  0  0  0  0  0
    7.6510   -3.2340   22.2100 C   0  0  0  0  0  0  0  0  0  0  0  0
    6.8720   -2.6600   23.3510 C   0  0  0  0  0  0  0  0  0  0  0  0
    6.5810   -3.8070   24.2860 C   0  0  0  0  0  0  0  0  0  0  0  0
    5.7900   -3.3180   25.4510 C   0  0  0  0  0  0  0  0  0  0  0  0
    4.5470   -3.4200   25.4860 O   0  0  0  0  0  0  0  0  0  0  0  0
    6.4500   -2.6980   26.5460 N   0  0  0  0  0  0  0  0  0  0  0  0
    6.3120   -1.2590   26.6550 C   0  0  0  0  0  0  0  0  0  0  0  0
    6.8310   -1.8280   27.8820 C   0  0  0  0  0  0  0  0  0  0  0  0
    6.0600   -0.9180   28.5180 N   0  0  0  0  0  0  0  0  0  0  0  0
    5.3660    0.0850   27.9440 N   0  0  0  0  0  0  0  0  0  0  0  0
    4.5640    1.0130   28.7430 C   0  0  0  0  0  0  0  0  0  0  0  0
    3.2050    1.0450   28.3630 C   0  0  0  0  0  0  0  0  0  0  0  0
    2.2900    1.8550   28.9980 C   0  0  0  0  0  0  0  0  0  0  0  0
    2.7890    2.6750   30.0780 C   0  0  0  0  0  0  0  0  0  0  0  0
    4.1020    2.6470   30.4510 C   0  0  0  0  0  0  0  0  0  0  0  0
    4.9880    1.8220   29.7910 C   0  0  0  0  0  0  0  0  0  0  0  0
    5.8910    0.1170   26.7290 C   0  0  0  0  0  0  0  0  0  0  0  0
    5.8200    1.5990   26.7950 C   0  0  0  0  0  0  0  0  0  0  0  0
    4.6090    2.2710   26.7190 C   0  0  0  0  0  0  0  0  0  0  0  0
    6.5710    2.1580   27.9550 C   0  0  0  0  0  0  0  0  0  0  0  0
    5.7760   -4.8880   23.5940 C   0  0  0  0  0  0  0  0  0  0  0  0
    6.5660   -5.4490   22.4060 C   0  0  0  0  0  0  0  0  0  0  0  0
  1  2  1  0
  2  3  2  0
  2  4  1  0
  4  5  1  0
  5  6  1  0
  6  7  1  0
  7  8  1  0
  8  9  2  0
  8 10  1  0
 10 11  1  0
 11 12  1  0
 12 13  2  0
 13 14  1  0
 14 15  1  0
 15 16  2  0
 16 17  1  0
 17 18  2  0
 18 19  1  0
 15 20  1  0
 19 20  2  0
 11 21  2  0
 14 21  1  0
 21 22  1  0
 22 23  1  0
 22 24  1  0
  7 25  1  0
  4 26  1  0
 25 26  1  0
M  END
