piperidine-amides-35300-covalent
     RDKit          3D

 32 34  0  0  0  0  0  0  0  0999 V2000
    7.0300   -3.3090   19.3450 C   0  0  0  0  0  0  0  0  0  0  0  0
    6.3670   -4.1530   20.3750 C   0  0  0  0  0  0  0  0  0  0  0  0
    5.4240   -4.8480   19.9860 O   0  0  0  0  0  0  0  0  0  0  0  0
    6.8220   -4.1690   21.7060 N   0  0  0  0  0  0  0  0  0  0  0  0
    6.6190   -5.3110   22.5540 C   0  0  0  0  0  0  0  0  0  0  0  0
    5.9360   -4.8900   23.8370 C   0  0  0  0  0  0  0  0  0  0  0  0
    5.8910   -3.3530   23.9540 C   0  0  0  0  0  0  0  0  0  0  0  0
    5.1380   -3.0100   25.2140 C   0  0  0  0  0  0  0  0  0  0  0  0
    4.0000   -3.4790   25.3050 O   0  0  0  0  0  0  0  0  0  0  0  0
    5.5650   -2.1950   26.3160 N   0  0  0  0  0  0  0  0  0  0  0  0
    5.4890   -2.7310   27.6510 C   0  0  0  0  0  0  0  0  0  0  0  0
    6.5290   -3.7310   27.4910 C   0  0  0  0  0  0  0  0  0  0  0  0
    6.8680   -4.7240   28.3390 C   0  0  0  0  0  0  0  0  0  0  0  0
    7.8420   -5.5570   28.0180 C   0  0  0  0  0  0  0  0  0  0  0  0
    8.4870   -5.4070   26.8490 C   0  0  0  0  0  0  0  0  0  0  0  0
    9.7190   -6.3990   26.3300 Cl  0  0  0  0  0  0  0  0  0  0  0  0
    8.1560   -4.4590   26.0650 N   0  0  0  0  0  0  0  0  0  0  0  0
    7.2220   -3.6450   26.3520 N   0  0  0  0  0  0  0  0  0  0  0  0
    6.5280   -1.1520   26.6420 C   0  0  2  0  0  0  0  0  0  0  0  0
    7.2410   -1.5140   27.9450 C   0  0  0  0  0  0  0  0  0  0  0  0
    6.7030   -0.3980   28.7950 C   0  0  0  0  0  0  0  0  0  0  0  0
    5.9810    0.5220   28.0350 N   0  0  0  0  0  0  0  0  0  0  0  0
    5.7990    1.8280   28.4150 C   0  0  0  0  0  0  0  0  0  0  0  0
    6.5630    2.8240   27.7920 O   0  0  0  0  0  0  0  0  0  0  0  0
    4.9690    2.1580   29.2980 O   0  0  0  0  0  0  0  0  0  0  0  0
    3.7440    2.7420   28.9580 C   0  0  0  0  0  0  0  0  0  0  0  0
    2.8050    1.7140   28.3450 C   0  0  0  0  0  0  0  0  0  0  0  0
    3.0090    3.3290   30.1600 C   0  0  0  0  0  0  0  0  0  0  0  0
    3.9360    3.8790   27.9530 C   0  0  0  0  0  0  0  0  0  0  0  0
    5.8920    0.1150   26.6560 C   0  0  0  0  0  0  0  0  0  0  0  0
    7.2570   -2.8020   23.6940 C   0  0  0  0  0  0  0  0  0  0  0  0
    7.6920   -3.0930   22.2410 C   0  0  0  0  0  0  0  0  0  0  0  0
  1  2  1  0
  2  3  2  0
  2  4  1  0
  4  5  1  0
  5  6  1  0
  6  7  1  0
  7  8  1  0
  8  9  2  0
  8 10  1  0
 10 11  1  0
 11 12  1  0
 12 13  2  0
 13 14  1  0
 14 15  2  0
 15 16  1  0
 15 17  1  0
 12 18  1  0
 17 18  2  0
 19 10  1  1
 19 20  1  0
 20 21  1  0
 21 22  1  0
 22 23  1  0
 23 24  2  0
 23 25  1  0
 26 25  1  0
 26 27  1  0
 26 28  1  0
 26 29  1  0
 19 30  1  0
 22 30  1  0
  7 31  1  0
  4 32  1  0
 31 32  1  0
M  END
