piperidine-amides-12431-covalent
     RDKit          3D

 24 25  0  0  0  0  0  0  0  0999 V2000
    7.0380   -3.3130   19.2950 C   0  0  0  0  0  0  0  0  0  0  0  0
    6.3250   -4.1030   20.2950 C   0  0  0  0  0  0  0  0  0  0  0  0
    5.3320   -4.7470   19.9530 O   0  0  0  0  0  0  0  0  0  0  0  0
    6.7800   -4.1850   21.6590 N   0  0  0  0  0  0  0  0  0  0  0  0
    7.6280   -3.1400   22.1960 C   0  0  0  0  0  0  0  0  0  0  0  0
    7.3670   -2.9780   23.6630 C   0  0  0  0  0  0  0  0  0  0  0  0
    6.0810   -3.7210   23.9480 C   0  0  0  0  0  0  0  0  0  0  0  0
    5.5970   -3.4400   25.3320 C   0  0  0  0  0  0  0  0  0  0  0  0
    4.3870   -3.4670   25.6090 O   0  0  0  0  0  0  0  0  0  0  0  0
    6.5390   -3.1270   26.3450 N   0  0  0  0  0  0  0  0  0  0  0  0
    6.2150   -3.3060   27.7560 C   0  0  2  0  0  0  0  0  0  0  0  0
    6.3950   -4.7480   28.1750 C   0  0  0  0  0  0  0  0  0  0  0  0
    4.8050   -2.9030   28.0120 C   0  0  0  0  0  0  0  0  0  0  0  0
    4.2220   -1.8740   27.2820 C   0  0  0  0  0  0  0  0  0  0  0  0
    2.9090   -1.5280   27.5420 C   0  0  0  0  0  0  0  0  0  0  0  0
    2.1160   -2.2200   28.5690 C   0  0  0  0  0  0  0  0  0  0  0  0
    0.8050   -1.9220   28.8700 C   0  0  0  0  0  0  0  0  0  0  0  0
    2.7460   -3.2160   29.2500 C   0  0  0  0  0  0  0  0  0  0  0  0
    2.1530   -3.9920   30.2700 N   0  0  0  0  0  0  0  0  0  0  0  0
    2.7650   -5.0300   30.6950 O   0  0  0  0  0  0  0  0  0  0  0  0
    0.8740   -3.8440   30.7300 O   0  0  0  0  0  0  0  0  0  0  0  0
    4.0680   -3.5400   28.9650 C   0  0  0  0  0  0  0  0  0  0  0  0
    6.0960   -5.1430   23.6580 C   0  0  0  0  0  0  0  0  0  0  0  0
    6.6580   -5.4100   22.4130 C   0  0  0  0  0  0  0  0  0  0  0  0
  1  2  1  0
  2  3  2  0
  2  4  1  0
  4  5  1  0
  5  6  1  0
  6  7  1  0
  7  8  1  0
  8  9  2  0
  8 10  1  0
 10 11  1  0
 11 12  1  6
 11 13  1  0
 13 14  2  0
 14 15  1  0
 15 16  2  0
 16 17  1  0
 16 18  1  0
 18 19  1  0
 19 20  2  0
 19 21  1  0
 13 22  1  0
 18 22  2  0
  7 23  1  0
  4 24  1  0
 23 24  1  0
M  CHG  2  19   1  21  -1
M  END
