piperidine-amides-13084-covalent
     RDKit          3D

 20 20  0  0  0  0  0  0  0  0999 V2000
    7.1270   -3.2330   19.1620 C   0  0  0  0  0  0  0  0  0  0  0  0
    6.3610   -3.9690   20.1940 C   0  0  0  0  0  0  0  0  0  0  0  0
    5.2770   -4.4730   19.8500 O   0  0  0  0  0  0  0  0  0  0  0  0
    6.8680   -4.1210   21.4880 N   0  0  0  0  0  0  0  0  0  0  0  0
    6.4110   -5.2050   22.2910 C   0  0  0  0  0  0  0  0  0  0  0  0
    5.8530   -4.7750   23.5720 C   0  0  0  0  0  0  0  0  0  0  0  0
    6.5890   -3.6510   24.2080 C   0  0  0  0  0  0  0  0  0  0  0  0
    5.8280   -3.1080   25.3700 C   0  0  0  0  0  0  0  0  0  0  0  0
    4.8310   -2.3870   25.1520 O   0  0  0  0  0  0  0  0  0  0  0  0
    6.2090   -3.4180   26.6880 N   0  0  0  0  0  0  0  0  0  0  0  0
    6.3170   -4.8350   27.0790 C   0  0  2  0  0  0  0  0  0  0  0  0
    6.4070   -5.0240   28.5440 C   0  0  0  0  0  0  0  0  0  0  0  0
    6.0080   -6.3080   29.1180 C   0  0  0  0  0  0  0  0  0  0  0  0
    7.4800   -5.2630   26.3680 C   0  0  0  0  0  0  0  0  0  0  0  0
    7.2960   -5.6390   25.2080 O   0  0  0  0  0  0  0  0  0  0  0  0
    8.7580   -5.2830   26.8760 N   0  0  0  0  0  0  0  0  0  0  0  0
    9.6000   -6.0400   26.0380 C   0  0  0  0  0  0  0  0  0  0  0  0
    8.7560   -5.4880   28.1810 C   0  0  0  0  0  0  0  0  0  0  0  0
    7.0670   -2.5890   23.2680 C   0  0  0  0  0  0  0  0  0  0  0  0
    7.6540   -3.1080   22.1490 C   0  0  0  0  0  0  0  0  0  0  0  0
  1  2  1  0
  2  3  2  0
  2  4  1  0
  4  5  1  0
  5  6  1  0
  6  7  1  0
  7  8  1  0
  8  9  2  0
  8 10  1  0
 10 11  1  0
 11 12  1  1
 12 13  1  0
 11 14  1  0
 14 15  2  0
 14 16  1  0
 16 17  1  0
 16 18  1  0
  7 19  1  0
  4 20  1  0
 19 20  1  0
M  END
