piperidine-amides-28149-covalent
     RDKit          3D

 25 27  0  0  0  0  0  0  0  0999 V2000
    7.0750   -3.3420   19.3180 C   0  0  0  0  0  0  0  0  0  0  0  0
    6.4050   -4.1800   20.3400 C   0  0  0  0  0  0  0  0  0  0  0  0
    5.3920   -4.8150   19.9750 O   0  0  0  0  0  0  0  0  0  0  0  0
    6.9390   -4.2700   21.6360 N   0  0  0  0  0  0  0  0  0  0  0  0
    6.6940   -5.4430   22.4190 C   0  0  0  0  0  0  0  0  0  0  0  0
    6.1350   -5.1110   23.7230 C   0  0  0  0  0  0  0  0  0  0  0  0
    6.1850   -3.6600   23.9550 C   0  0  0  0  0  0  0  0  0  0  0  0
    5.6750   -3.2410   25.2840 C   0  0  0  0  0  0  0  0  0  0  0  0
    4.8750   -2.2920   25.3060 O   0  0  0  0  0  0  0  0  0  0  0  0
    6.0140   -3.8630   26.4910 N   0  0  0  0  0  0  0  0  0  0  0  0
    6.3730   -3.0560   27.6530 C   0  0  0  0  0  0  0  0  0  0  0  0
    6.7260   -3.9140   28.8150 C   0  0  0  0  0  0  0  0  0  0  0  0
    6.1180   -5.2150   28.9780 C   0  0  0  0  0  0  0  0  0  0  0  0
    4.9670   -5.2800   29.7350 C   0  0  0  0  0  0  0  0  0  0  0  0
    4.7450   -6.3670   30.5650 C   0  0  0  0  0  0  0  0  0  0  0  0
    3.7670   -6.1910   31.5030 C   0  0  0  0  0  0  0  0  0  0  0  0
    2.6870   -7.0400   31.5280 F   0  0  0  0  0  0  0  0  0  0  0  0
    4.4000   -6.3360   32.7620 F   0  0  0  0  0  0  0  0  0  0  0  0
    3.3350   -4.9040   31.4780 F   0  0  0  0  0  0  0  0  0  0  0  0
    5.0620   -7.6090   30.0140 N   0  0  0  0  0  0  0  0  0  0  0  0
    5.8590   -7.1890   30.9920 N   0  0  0  0  0  0  0  0  0  0  0  0
    5.8190   -5.6980   27.7700 C   0  0  0  0  0  0  0  0  0  0  0  0
    5.0890   -4.9170   26.9270 C   0  0  0  0  0  0  0  0  0  0  0  0
    7.5610   -3.1600   23.6520 C   0  0  0  0  0  0  0  0  0  0  0  0
    7.7770   -3.2020   22.1840 C   0  0  0  0  0  0  0  0  0  0  0  0
  1  2  1  0
  2  3  2  0
  2  4  1  0
  4  5  1  0
  5  6  1  0
  6  7  1  0
  7  8  1  0
  8  9  2  0
  8 10  1  0
 10 11  1  0
 11 12  1  0
 12 13  1  0
 13 14  1  0
 15 14  1  0
 15 16  1  0
 16 17  1  0
 16 18  1  0
 16 19  1  0
 15 20  1  0
 15 21  1  0
 20 21  2  0
 13 22  1  0
 10 23  1  0
 22 23  1  0
  7 24  1  0
  4 25  1  0
 24 25  1  0
M  END
