piperidine-amides-12908-covalent
     RDKit          3D

 21 22  0  0  0  0  0  0  0  0999 V2000
    7.1210   -3.3290   19.2920 C   0  0  0  0  0  0  0  0  0  0  0  0
    6.3640   -4.1060   20.2940 C   0  0  0  0  0  0  0  0  0  0  0  0
    5.2930   -4.6140   19.9120 O   0  0  0  0  0  0  0  0  0  0  0  0
    6.8810   -4.2980   21.5860 N   0  0  0  0  0  0  0  0  0  0  0  0
    6.4590   -5.4000   22.3770 C   0  0  0  0  0  0  0  0  0  0  0  0
    6.0230   -5.0190   23.7250 C   0  0  0  0  0  0  0  0  0  0  0  0
    6.6160   -3.7700   24.2700 C   0  0  0  0  0  0  0  0  0  0  0  0
    5.7800   -3.2840   25.3870 C   0  0  0  0  0  0  0  0  0  0  0  0
    4.5720   -3.0690   25.1670 O   0  0  0  0  0  0  0  0  0  0  0  0
    6.3130   -3.0660   26.6630 N   0  0  0  0  0  0  0  0  0  0  0  0
    6.3440   -1.7090   27.2530 C   0  0  0  0  0  0  0  0  0  0  0  0
    6.8730   -1.5470   28.6060 C   0  0  0  0  0  0  0  0  0  0  0  0
    6.9100   -0.2600   29.2320 C   0  0  0  0  0  0  0  0  0  0  0  0
    7.5300   -0.0470   30.8570 Cl  0  0  0  0  0  0  0  0  0  0  0  0
    6.4470    0.8470   28.5570 C   0  0  0  0  0  0  0  0  0  0  0  0
    5.9150    0.8800   27.2620 C   0  0  0  0  0  0  0  0  0  0  0  0
    5.5340    2.1140   26.8300 C   0  0  0  0  0  0  0  0  0  0  0  0
    5.7410    2.5150   25.4940 N   0  0  0  0  0  0  0  0  0  0  0  0
    5.8670   -0.4770   26.5850 C   0  0  0  0  0  0  0  0  0  0  0  0
    6.9180   -2.7020   23.2930 C   0  0  0  0  0  0  0  0  0  0  0  0
    7.6280   -3.2410   22.2300 C   0  0  0  0  0  0  0  0  0  0  0  0
  1  2  1  0
  2  3  2  0
  2  4  1  0
  4  5  1  0
  5  6  1  0
  6  7  1  0
  7  8  1  0
  8  9  2  0
  8 10  1  0
 10 11  1  0
 11 12  2  0
 12 13  1  0
 13 14  1  0
 13 15  2  0
 15 16  1  0
 16 17  1  0
 17 18  3  0
 11 19  1  0
 16 19  2  0
  7 20  1  0
  4 21  1  0
 20 21  1  0
M  END
