piperidine-amides-11858-covalent
     RDKit          3D

 27 29  0  0  0  0  0  0  0  0999 V2000
    6.7630   -5.6720   20.3660 C   0  0  0  0  0  0  0  0  0  0  0  0
    5.4980   -5.1290   20.8590 C   0  0  0  0  0  0  0  0  0  0  0  0
    4.9410   -4.5150   19.9110 O   0  0  0  0  0  0  0  0  0  0  0  0
    4.9310   -5.3250   22.2910 N   0  0  0  0  0  0  0  0  0  0  0  0
    3.5420   -5.1250   22.7380 C   0  0  0  0  0  0  0  0  0  0  0  0
    3.2230   -5.3120   24.2000 C   0  0  0  0  0  0  0  0  0  0  0  0
    4.2240   -4.5770   25.0250 C   0  0  0  0  0  0  0  0  0  0  0  0
    4.0100   -3.0550   24.9140 C   0  0  0  0  0  0  0  0  0  0  0  0
    3.9320   -2.4970   23.7980 O   0  0  0  0  0  0  0  0  0  0  0  0
    3.8720   -2.2180   26.1170 N   0  0  0  0  0  0  0  0  0  0  0  0
    3.8440   -0.7210   26.0550 C   0  0  0  0  0  0  0  0  0  0  0  0
    4.3460   -0.1380   27.4040 C   0  0  0  0  0  0  0  0  0  0  0  0
    5.0810    0.2370   28.6120 C   0  0  0  0  0  0  0  0  0  0  0  0
    6.3650   -0.1130   29.1130 C   0  0  0  0  0  0  0  0  0  0  0  0
    7.1160   -0.9250   28.4090 C   0  0  0  0  0  0  0  0  0  0  0  0
    6.5290   -1.3270   27.2150 C   0  0  0  0  0  0  0  0  0  0  0  0
    7.1300   -2.1010   26.3860 N   0  0  0  0  0  0  0  0  0  0  0  0
    6.4500   -3.1060   25.7150 C   0  0  0  0  0  0  0  0  0  0  0  0
    5.6330   -3.9480   26.2710 O   0  0  0  0  0  0  0  0  0  0  0  0
    6.6330   -3.2160   24.3660 C   0  0  0  0  0  0  0  0  0  0  0  0
    7.6240   -2.4620   23.7540 C   0  0  0  0  0  0  0  0  0  0  0  0
    8.1120   -3.2240   22.6330 C   0  0  0  0  0  0  0  0  0  0  0  0
    7.3920   -4.4000   22.6350 C   0  0  0  0  0  0  0  0  0  0  0  0
    6.8680   -4.5940   23.8790 C   0  0  0  0  0  0  0  0  0  0  0  0
    5.2910   -0.9360   26.8400 C   0  0  0  0  0  0  0  0  0  0  0  0
    5.6110   -5.0440   24.5990 C   0  0  0  0  0  0  0  0  0  0  0  0
    5.6770   -5.9520   23.3390 C   0  0  0  0  0  0  0  0  0  0  0  0
  1  2  1  0
  2  3  2  0
  2  4  1  0
  4  5  1  0
  5  6  1  0
  6  7  1  0
  7  8  1  0
  8  9  2  0
  8 10  1  0
 10 11  1  0
 11 12  1  0
 12 13  2  0
 13 14  1  0
 14 15  2  0
 15 16  1  0
 16 17  1  0
 17 18  1  0
 18 19  2  0
 18 20  1  0
 20 21  1  0
 21 22  1  0
 22 23  1  0
 20 24  1  0
 23 24  1  0
 12 25  1  0
 16 25  2  0
  7 26  1  0
  4 27  1  0
 26 27  1  0
M  END
