piperidine-amides-21665-covalent
     RDKit          3D

 23 25  0  0  0  0  0  0  0  0999 V2000
    7.1430   -3.3660   19.3650 C   0  0  0  0  0  0  0  0  0  0  0  0
    6.4340   -4.1900   20.3370 C   0  0  0  0  0  0  0  0  0  0  0  0
    5.3440   -4.6910   19.9470 O   0  0  0  0  0  0  0  0  0  0  0  0
    6.9950   -4.4430   21.5930 N   0  0  0  0  0  0  0  0  0  0  0  0
    6.6820   -5.6180   22.3490 C   0  0  0  0  0  0  0  0  0  0  0  0
    5.9740   -5.1640   23.5900 C   0  0  0  0  0  0  0  0  0  0  0  0
    6.6370   -3.9910   24.2860 C   0  0  0  0  0  0  0  0  0  0  0  0
    5.6910   -3.4560   25.2760 C   0  0  0  0  0  0  0  0  0  0  0  0
    5.0320   -2.4470   24.9440 O   0  0  0  0  0  0  0  0  0  0  0  0
    5.4270   -3.9810   26.5500 N   0  0  0  0  0  0  0  0  0  0  0  0
    4.1970   -3.5710   27.2110 C   0  0  0  0  0  0  0  0  0  0  0  0
    3.8300   -4.4980   28.3760 C   0  0  0  0  0  0  0  0  0  0  0  0
    4.7290   -5.3780   28.8320 C   0  0  0  0  0  0  0  0  0  0  0  0
    5.9290   -5.0270   28.4450 C   0  0  2  0  0  0  0  0  0  0  0  0
    6.1830   -3.7440   28.7000 C   0  0  0  0  0  0  0  0  0  0  0  0
    5.5450   -2.5670   28.8940 N   0  0  0  0  0  0  0  0  0  0  0  0
    6.5030   -1.6500   29.0650 C   0  0  0  0  0  0  0  0  0  0  0  0
    7.7220   -2.2570   28.9830 C   0  0  0  0  0  0  0  0  0  0  0  0
    7.4660   -3.5850   28.7610 N   0  0  0  0  0  0  0  0  0  0  0  0
    8.1300   -4.8410   28.5840 C   0  0  0  0  0  0  0  0  0  0  0  0
    6.0190   -5.1650   27.0830 C   0  0  0  0  0  0  0  0  0  0  0  0
    7.0040   -2.8380   23.3270 C   0  0  0  0  0  0  0  0  0  0  0  0
    7.8510   -3.4650   22.2540 C   0  0  0  0  0  0  0  0  0  0  0  0
  1  2  1  0
  2  3  2  0
  2  4  1  0
  4  5  1  0
  5  6  1  0
  6  7  1  0
  7  8  1  0
  8  9  2  0
  8 10  1  0
 10 11  1  0
 11 12  1  0
 12 13  1  0
 13 14  1  0
 14 15  1  6
 15 16  2  0
 16 17  1  0
 17 18  2  0
 15 19  1  0
 18 19  1  0
 19 20  1  0
 10 21  1  0
 14 21  1  0
  7 22  1  0
  4 23  1  0
 22 23  1  0
M  END
