piperidine-amides-4717-covalent
     RDKit          3D

 24 25  0  0  0  0  0  0  0  0999 V2000
    7.1470   -3.3200   19.3150 C   0  0  0  0  0  0  0  0  0  0  0  0
    6.3600   -4.0650   20.3190 C   0  0  0  0  0  0  0  0  0  0  0  0
    5.3050   -4.5980   19.9110 O   0  0  0  0  0  0  0  0  0  0  0  0
    6.8210   -4.1950   21.6390 N   0  0  0  0  0  0  0  0  0  0  0  0
    6.5090   -5.3570   22.4050 C   0  0  0  0  0  0  0  0  0  0  0  0
    5.9840   -5.0150   23.7210 C   0  0  0  0  0  0  0  0  0  0  0  0
    6.1100   -3.5710   23.9980 C   0  0  0  0  0  0  0  0  0  0  0  0
    5.6360   -3.2440   25.3670 C   0  0  0  0  0  0  0  0  0  0  0  0
    4.4060   -3.1260   25.5160 O   0  0  0  0  0  0  0  0  0  0  0  0
    6.4930   -3.0630   26.4740 N   0  0  0  0  0  0  0  0  0  0  0  0
    6.2330   -3.6890   27.7960 C   0  0  0  0  0  0  0  0  0  0  0  0
    5.5110   -2.7700   28.7310 C   0  0  0  0  0  0  0  0  0  0  0  0
    6.0580   -1.5540   29.3040 C   0  0  0  0  0  0  0  0  0  0  0  0
    7.3460   -1.2770   28.9180 F   0  0  0  0  0  0  0  0  0  0  0  0
    5.3130   -0.7870   30.1470 C   0  0  0  0  0  0  0  0  0  0  0  0
    5.8390    0.3560   30.6800 F   0  0  0  0  0  0  0  0  0  0  0  0
    4.0290   -1.1700   30.4600 C   0  0  0  0  0  0  0  0  0  0  0  0
    3.3700   -0.3070   31.3310 F   0  0  0  0  0  0  0  0  0  0  0  0
    3.4390   -2.3050   29.9610 C   0  0  0  0  0  0  0  0  0  0  0  0
    2.1690   -2.5510   30.3600 F   0  0  0  0  0  0  0  0  0  0  0  0
    4.0850   -3.1670   29.0970 C   0  0  0  0  0  0  0  0  0  0  0  0
    3.3570   -4.2630   28.6870 F   0  0  0  0  0  0  0  0  0  0  0  0
    7.4170   -3.0000   23.6070 C   0  0  0  0  0  0  0  0  0  0  0  0
    7.6410   -3.1400   22.2280 C   0  0  0  0  0  0  0  0  0  0  0  0
  1  2  1  0
  2  3  2  0
  2  4  1  0
  4  5  1  0
  5  6  1  0
  6  7  1  0
  7  8  1  0
  8  9  2  0
  8 10  1  0
 10 11  1  0
 11 12  1  0
 12 13  2  0
 13 14  1  0
 13 15  1  0
 15 16  1  0
 15 17  2  0
 17 18  1  0
 17 19  1  0
 19 20  1  0
 12 21  1  0
 19 21  2  0
 21 22  1  0
  7 23  1  0
  4 24  1  0
 23 24  1  0
M  END
