piperidine-amides-25599-covalent
     RDKit          3D

 25 26  0  0  0  0  0  0  0  0999 V2000
    7.0320   -3.3240   19.3180 C   0  0  0  0  0  0  0  0  0  0  0  0
    6.3750   -4.1620   20.3590 C   0  0  0  0  0  0  0  0  0  0  0  0
    5.4080   -4.8270   19.9840 O   0  0  0  0  0  0  0  0  0  0  0  0
    6.8680   -4.2130   21.6750 N   0  0  0  0  0  0  0  0  0  0  0  0
    6.7170   -5.4270   22.4420 C   0  0  0  0  0  0  0  0  0  0  0  0
    6.0950   -5.1070   23.7690 C   0  0  0  0  0  0  0  0  0  0  0  0
    6.1240   -3.5940   23.9600 C   0  0  0  0  0  0  0  0  0  0  0  0
    5.4770   -3.2270   25.2560 C   0  0  0  0  0  0  0  0  0  0  0  0
    4.2660   -2.9820   25.2310 O   0  0  0  0  0  0  0  0  0  0  0  0
    6.1410   -3.1360   26.5080 N   0  0  0  0  0  0  0  0  0  0  0  0
    5.9760   -4.2780   27.4120 C   0  0  0  0  0  0  0  0  0  0  0  0
    5.7580   -5.5720   26.6500 C   0  0  0  0  0  0  0  0  0  0  0  0
    4.5400   -6.2040   26.5890 C   0  0  0  0  0  0  0  0  0  0  0  0
    4.0470   -7.0990   25.6050 N   0  0  0  0  0  0  0  0  0  0  0  0
    6.2310   -1.8360   27.1500 C   0  0  0  0  0  0  0  0  0  0  0  0
    6.1940   -0.7170   26.3780 C   0  0  0  0  0  0  0  0  0  0  0  0
    6.2640    0.7270   26.8450 C   0  0  0  0  0  0  0  0  0  0  0  0
    6.4030    0.8870   28.3370 C   0  0  0  0  0  0  0  0  0  0  0  0
    6.4450   -0.3400   29.2050 C   0  0  0  0  0  0  0  0  0  0  0  0
    6.3420   -1.6580   28.5240 C   0  0  0  0  0  0  0  0  0  0  0  0
    6.3140   -2.8780   29.0880 N   0  0  0  0  0  0  0  0  0  0  0  0
    7.2960   -3.6750   28.9110 O   0  0  0  0  0  0  0  0  0  0  0  0
    5.1820   -3.3740   29.6700 O   0  0  0  0  0  0  0  0  0  0  0  0
    7.4880   -3.0380   23.6950 C   0  0  0  0  0  0  0  0  0  0  0  0
    7.7020   -3.1210   22.1870 C   0  0  0  0  0  0  0  0  0  0  0  0
  1  2  1  0
  2  3  2  0
  2  4  1  0
  4  5  1  0
  5  6  1  0
  6  7  1  0
  7  8  1  0
  8  9  2  0
  8 10  1  0
 10 11  1  0
 11 12  1  0
 12 13  1  0
 13 14  3  0
 10 15  1  0
 15 16  2  0
 16 17  1  0
 17 18  2  0
 18 19  1  0
 15 20  1  0
 19 20  2  0
 20 21  1  0
 21 22  2  0
 21 23  1  0
  7 24  1  0
  4 25  1  0
 24 25  1  0
M  CHG  2  21   1  23  -1
M  END
