piperidine-amides-27732-covalent
     RDKit          3D

 26 28  0  0  0  0  0  0  0  0999 V2000
    7.0870   -3.2790   19.2720 C   0  0  0  0  0  0  0  0  0  0  0  0
    6.3600   -4.0620   20.3010 C   0  0  0  0  0  0  0  0  0  0  0  0
    5.3210   -4.6380   19.9200 O   0  0  0  0  0  0  0  0  0  0  0  0
    6.8490   -4.1760   21.6170 N   0  0  0  0  0  0  0  0  0  0  0  0
    6.4770   -5.2810   22.4320 C   0  0  0  0  0  0  0  0  0  0  0  0
    6.0010   -4.9200   23.7830 C   0  0  0  0  0  0  0  0  0  0  0  0
    6.3850   -3.5830   24.3210 C   0  0  0  0  0  0  0  0  0  0  0  0
    5.2470   -3.0250   25.1190 C   0  0  0  0  0  0  0  0  0  0  0  0
    4.2460   -2.6580   24.4890 O   0  0  0  0  0  0  0  0  0  0  0  0
    5.2360   -2.8990   26.5290 N   0  0  0  0  0  0  0  0  0  0  0  0
    4.0050   -3.0710   27.2870 C   0  0  0  0  0  0  0  0  0  0  0  0
    4.1810   -4.1900   28.2450 C   0  0  0  0  0  0  0  0  0  0  0  0
    5.4440   -4.2910   28.9210 C   0  0  0  0  0  0  0  0  0  0  0  0
    5.5250   -5.3170   29.8300 C   0  0  0  0  0  0  0  0  0  0  0  0
    4.3040   -5.4260   30.5100 N   0  0  0  0  0  0  0  0  0  0  0  0
    6.4840   -6.0720   30.0340 O   0  0  0  0  0  0  0  0  0  0  0  0
    5.4440   -2.9310   29.6600 C   0  0  0  0  0  0  0  0  0  0  0  0
    4.3900   -2.5510   30.4580 C   0  0  0  0  0  0  0  0  0  0  0  0
    4.3770   -1.3390   31.1150 C   0  0  0  0  0  0  0  0  0  0  0  0
    5.3870   -0.4190   31.0370 C   0  0  0  0  0  0  0  0  0  0  0  0
    6.4670   -0.7640   30.2430 C   0  0  0  0  0  0  0  0  0  0  0  0
    6.4920   -2.0500   29.5390 C   0  0  0  0  0  0  0  0  0  0  0  0
    6.5760   -4.3790   28.1790 C   0  0  0  0  0  0  0  0  0  0  0  0
    6.4440   -3.2600   27.1600 C   0  0  0  0  0  0  0  0  0  0  0  0
    6.8980   -2.5890   23.3610 C   0  0  0  0  0  0  0  0  0  0  0  0
    7.7010   -3.1780   22.2260 C   0  0  0  0  0  0  0  0  0  0  0  0
  1  2  1  0
  2  3  2  0
  2  4  1  0
  4  5  1  0
  5  6  1  0
  6  7  1  0
  7  8  1  0
  8  9  2  0
  8 10  1  0
 10 11  1  0
 11 12  1  0
 12 13  1  0
 13 14  1  0
 14 15  1  0
 14 16  2  0
 13 17  1  0
 17 18  2  0
 18 19  1  0
 19 20  2  0
 20 21  1  0
 17 22  1  0
 21 22  2  0
 13 23  1  0
 10 24  1  0
 23 24  1  0
  7 25  1  0
  4 26  1  0
 25 26  1  0
M  END
