piperidine-amides-8175-covalent
     RDKit          3D

 25 26  0  0  0  0  0  0  0  0999 V2000
    7.0550   -3.2700   19.3010 C   0  0  0  0  0  0  0  0  0  0  0  0
    6.3440   -4.0650   20.3010 C   0  0  0  0  0  0  0  0  0  0  0  0
    5.3180   -4.6660   19.9300 O   0  0  0  0  0  0  0  0  0  0  0  0
    6.8290   -4.1940   21.6330 N   0  0  0  0  0  0  0  0  0  0  0  0
    6.5270   -5.4010   22.3390 C   0  0  0  0  0  0  0  0  0  0  0  0
    6.1530   -5.1130   23.7790 C   0  0  0  0  0  0  0  0  0  0  0  0
    5.9060   -3.6250   23.9310 C   0  0  0  0  0  0  0  0  0  0  0  0
    5.3490   -3.2600   25.2940 C   0  0  0  0  0  0  0  0  0  0  0  0
    4.4930   -2.3790   25.2820 O   0  0  0  0  0  0  0  0  0  0  0  0
    5.8050   -3.8980   26.4570 N   0  0  0  0  0  0  0  0  0  0  0  0
    4.9430   -4.6100   27.3900 C   0  0  2  0  0  0  0  0  0  0  0  0
    5.6530   -5.1200   28.4580 C   0  0  0  0  0  0  0  0  0  0  0  0
    6.8440   -5.0130   27.9780 C   0  0  0  0  0  0  0  0  0  0  0  0
    7.2040   -5.9290   27.0280 C   0  0  0  0  0  0  0  0  0  0  0  0
    8.5270   -5.7850   26.3980 C   0  0  0  0  0  0  0  0  0  0  0  0
    9.4240   -4.6630   26.8160 C   0  0  0  0  0  0  0  0  0  0  0  0
   11.0700   -4.4940   25.9390 Br  0  0  0  0  0  0  0  0  0  0  0  0
    8.9230   -3.7810   27.8670 C   0  0  0  0  0  0  0  0  0  0  0  0
    7.6100   -4.0120   28.3990 C   0  0  0  0  0  0  0  0  0  0  0  0
    4.4010   -5.7720   26.6820 C   0  0  0  0  0  0  0  0  0  0  0  0
    4.9940   -6.2720   25.6960 O   0  0  0  0  0  0  0  0  0  0  0  0
    3.2260   -6.3500   27.0610 O   0  0  0  0  0  0  0  0  0  0  0  0
    3.0370   -7.6940   27.3330 C   0  0  0  0  0  0  0  0  0  0  0  0
    7.2130   -2.9370   23.6750 C   0  0  0  0  0  0  0  0  0  0  0  0
    7.5700   -3.0940   22.2190 C   0  0  0  0  0  0  0  0  0  0  0  0
  1  2  1  0
  2  3  2  0
  2  4  1  0
  4  5  1  0
  5  6  1  0
  6  7  1  0
  7  8  1  0
  8  9  2  0
  8 10  1  0
 10 11  1  0
 11 12  1  1
 12 13  1  0
 13 14  2  0
 14 15  1  0
 15 16  2  0
 16 17  1  0
 16 18  1  0
 13 19  1  0
 18 19  2  0
 11 20  1  0
 20 21  2  0
 20 22  1  0
 22 23  1  0
  7 24  1  0
  4 25  1  0
 24 25  1  0
M  END
