piperidine-amides-12458-covalent
     RDKit          3D

 23 24  0  0  0  0  0  0  0  0999 V2000
    7.1200   -3.2630   19.2610 C   0  0  0  0  0  0  0  0  0  0  0  0
    6.3530   -4.0250   20.2410 C   0  0  0  0  0  0  0  0  0  0  0  0
    5.3090   -4.5850   19.9030 O   0  0  0  0  0  0  0  0  0  0  0  0
    6.8340   -4.1700   21.5870 N   0  0  0  0  0  0  0  0  0  0  0  0
    7.7440   -3.1800   22.1280 C   0  0  0  0  0  0  0  0  0  0  0  0
    7.4310   -2.9540   23.5690 C   0  0  0  0  0  0  0  0  0  0  0  0
    6.0930   -3.6290   23.7850 C   0  0  0  0  0  0  0  0  0  0  0  0
    5.5240   -3.2730   25.1020 C   0  0  0  0  0  0  0  0  0  0  0  0
    4.3280   -2.9540   25.2380 O   0  0  0  0  0  0  0  0  0  0  0  0
    6.3520   -3.3120   26.2340 N   0  0  0  0  0  0  0  0  0  0  0  0
    5.9230   -4.1330   27.3340 C   0  0  0  0  0  0  0  0  0  0  0  0
    6.2200   -3.3880   28.5950 C   0  0  0  0  0  0  0  0  0  0  0  0
    5.6050   -2.1660   28.8170 C   0  0  2  0  0  0  0  0  0  0  0  0
    6.0620   -1.4870   29.7610 O   0  0  0  0  0  0  0  0  0  0  0  0
    7.1270   -0.6320   29.4900 C   0  0  0  0  0  0  0  0  0  0  0  0
    8.0940   -0.4710   30.4530 C   0  0  0  0  0  0  0  0  0  0  0  0
    4.0960   -2.0670   28.8750 C   0  0  0  0  0  0  0  0  0  0  0  0
    3.7020   -0.8910   28.2780 C   0  0  0  0  0  0  0  0  0  0  0  0
    2.9950   -0.0650   29.1360 C   0  0  0  0  0  0  0  0  0  0  0  0
    2.9060   -0.7200   30.3650 C   0  0  0  0  0  0  0  0  0  0  0  0
    3.6190   -1.9970   30.2140 C   0  0  0  0  0  0  0  0  0  0  0  0
    6.1580   -5.1290   23.5900 C   0  0  0  0  0  0  0  0  0  0  0  0
    6.6190   -5.4030   22.3020 C   0  0  0  0  0  0  0  0  0  0  0  0
  1  2  1  0
  2  3  2  0
  2  4  1  0
  4  5  1  0
  5  6  1  0
  6  7  1  0
  7  8  1  0
  8  9  2  0
  8 10  1  0
 10 11  1  0
 11 12  1  0
 13 12  1  1
 13 14  1  0
 14 15  1  0
 15 16  1  0
 13 17  1  0
 17 18  1  0
 18 19  1  0
 19 20  1  0
 17 21  1  0
 20 21  1  0
  7 22  1  0
  4 23  1  0
 22 23  1  0
M  END
