piperidine-amides-34091-covalent
     RDKit          3D

 30 32  0  0  0  0  0  0  0  0999 V2000
    7.1050   -3.3000   19.2620 C   0  0  0  0  0  0  0  0  0  0  0  0
    6.3940   -4.1300   20.2420 C   0  0  0  0  0  0  0  0  0  0  0  0
    5.3440   -4.7310   19.9440 O   0  0  0  0  0  0  0  0  0  0  0  0
    6.9390   -4.2890   21.5140 N   0  0  0  0  0  0  0  0  0  0  0  0
    6.6480   -5.4970   22.2440 C   0  0  0  0  0  0  0  0  0  0  0  0
    5.7960   -5.0560   23.4320 C   0  0  0  0  0  0  0  0  0  0  0  0
    6.6190   -4.0030   24.1340 C   0  0  0  0  0  0  0  0  0  0  0  0
    5.8140   -3.3880   25.1940 C   0  0  0  0  0  0  0  0  0  0  0  0
    4.9380   -2.5560   24.8790 O   0  0  0  0  0  0  0  0  0  0  0  0
    6.0270   -3.7610   26.5260 N   0  0  0  0  0  0  0  0  0  0  0  0
    6.3970   -2.7710   27.4700 C   0  0  0  0  0  0  0  0  0  0  0  0
    6.6520   -3.4700   28.7880 C   0  0  0  0  0  0  0  0  0  0  0  0
    5.7420   -4.3760   29.2070 C   0  0  0  0  0  0  0  0  0  0  0  0
    4.6050   -3.7770   29.7300 C   0  0  0  0  0  0  0  0  0  0  0  0
    3.8750   -2.9990   28.8420 C   0  0  0  0  0  0  0  0  0  0  0  0
    2.7420   -2.4720   29.4340 C   0  0  0  0  0  0  0  0  0  0  0  0
    2.1990   -2.9230   30.6070 N   0  0  0  0  0  0  0  0  0  0  0  0
    2.2040   -1.9140   31.4980 C   0  0  0  0  0  0  0  0  0  0  0  0
    1.2170   -1.1900   31.6550 O   0  0  0  0  0  0  0  0  0  0  0  0
    3.2580   -1.5960   32.2980 O   0  0  0  0  0  0  0  0  0  0  0  0
    3.9110   -0.4570   31.8880 C   0  0  0  0  0  0  0  0  0  0  0  0
    4.4930    0.2960   33.0470 C   0  0  0  0  0  0  0  0  0  0  0  0
    3.4350    0.9700   32.1380 C   0  0  0  0  0  0  0  0  0  0  0  0
    5.0300   -0.6140   30.9700 C   0  0  0  0  0  0  0  0  0  0  0  0
    2.4920   -4.2500   31.0390 C   0  0  0  0  0  0  0  0  0  0  0  0
    3.7490   -4.7960   30.4180 C   0  0  0  0  0  0  0  0  0  0  0  0
    5.4700   -5.3870   28.3860 C   0  0  0  0  0  0  0  0  0  0  0  0
    5.2720   -4.8970   26.9600 C   0  0  0  0  0  0  0  0  0  0  0  0
    7.1380   -2.8840   23.3070 C   0  0  0  0  0  0  0  0  0  0  0  0
    7.7080   -3.2480   22.1420 C   0  0  0  0  0  0  0  0  0  0  0  0
  1  2  1  0
  2  3  2  0
  2  4  1  0
  4  5  1  0
  5  6  1  0
  6  7  1  0
  7  8  1  0
  8  9  2  0
  8 10  1  0
 10 11  1  0
 11 12  1  0
 12 13  1  0
 13 14  1  0
 14 15  1  0
 15 16  1  0
 16 17  1  0
 17 18  1  0
 18 19  2  0
 18 20  1  0
 21 20  1  0
 21 22  1  0
 21 23  1  0
 21 24  1  0
 17 25  1  0
 14 26  1  0
 25 26  1  0
 13 27  1  0
 10 28  1  0
 27 28  1  0
  7 29  1  0
  4 30  1  0
 29 30  1  0
M  END
