piperidine-amides-29277-covalent
     RDKit          3D

 27 30  0  0  0  0  0  0  0  0999 V2000
    7.0460   -3.3610   19.4040 C   0  0  0  0  0  0  0  0  0  0  0  0
    6.4190   -4.2540   20.3740 C   0  0  0  0  0  0  0  0  0  0  0  0
    5.4070   -4.8790   19.9990 O   0  0  0  0  0  0  0  0  0  0  0  0
    6.9820   -4.4390   21.6740 N   0  0  0  0  0  0  0  0  0  0  0  0
    7.6730   -3.3660   22.3250 C   0  0  0  0  0  0  0  0  0  0  0  0
    6.7650   -2.7370   23.3410 C   0  0  0  0  0  0  0  0  0  0  0  0
    6.3240   -3.7890   24.3480 C   0  0  0  0  0  0  0  0  0  0  0  0
    5.2840   -3.1780   25.2610 C   0  0  0  0  0  0  0  0  0  0  0  0
    4.3640   -2.6300   24.6690 O   0  0  0  0  0  0  0  0  0  0  0  0
    5.3410   -3.2360   26.6650 N   0  0  0  0  0  0  0  0  0  0  0  0
    6.4780   -3.3950   27.4190 C   0  0  0  0  0  0  0  0  0  0  0  0
    6.4940   -4.5280   28.2970 C   0  0  0  0  0  0  0  0  0  0  0  0
    5.3330   -4.6910   29.0150 C   0  0  0  0  0  0  0  0  0  0  0  0
    5.1530   -5.5240   30.0990 C   0  0  0  0  0  0  0  0  0  0  0  0
    5.8960   -6.6570   30.5410 N   0  0  0  0  0  0  0  0  0  0  0  0
    5.2150   -7.0910   31.7460 C   0  0  0  0  0  0  0  0  0  0  0  0
    5.6150   -8.2800   32.6450 C   0  0  0  0  0  0  0  0  0  0  0  0
    4.7410   -8.5160   33.8280 C   0  0  0  0  0  0  0  0  0  0  0  0
    3.5710   -7.6020   34.0470 C   0  0  0  0  0  0  0  0  0  0  0  0
    3.2890   -6.4480   33.0680 C   0  0  0  0  0  0  0  0  0  0  0  0
    4.0660   -6.1950   31.9710 C   0  0  0  0  0  0  0  0  0  0  0  0
    4.0660   -5.2750   30.9620 C   0  0  0  0  0  0  0  0  0  0  0  0
    3.0420   -4.1750   30.8400 C   0  0  0  0  0  0  0  0  0  0  0  0
    4.1630   -4.6470   28.1130 C   0  0  0  0  0  0  0  0  0  0  0  0
    4.1430   -3.2920   27.4660 C   0  0  0  0  0  0  0  0  0  0  0  0
    5.7470   -5.0320   23.6600 C   0  0  0  0  0  0  0  0  0  0  0  0
    6.6550   -5.5430   22.5260 C   0  0  0  0  0  0  0  0  0  0  0  0
  1  2  1  0
  2  3  2  0
  2  4  1  0
  4  5  1  0
  5  6  1  0
  6  7  1  0
  7  8  1  0
  8  9  2  0
  8 10  1  0
 10 11  1  0
 11 12  1  0
 12 13  1  0
 13 14  1  0
 14 15  1  0
 15 16  1  0
 16 17  2  0
 17 18  1  0
 18 19  2  0
 19 20  1  0
 16 21  1  0
 20 21  2  0
 14 22  2  0
 21 22  1  0
 22 23  1  0
 13 24  1  0
 10 25  1  0
 24 25  1  0
  7 26  1  0
  4 27  1  0
 26 27  1  0
M  END
