piperidine-amides-24962-covalent
     RDKit          3D

 25 27  0  0  0  0  0  0  0  0999 V2000
    7.0940   -3.2850   19.2420 C   0  0  0  0  0  0  0  0  0  0  0  0
    6.3620   -4.0790   20.2390 C   0  0  0  0  0  0  0  0  0  0  0  0
    5.2990   -4.6500   19.9240 O   0  0  0  0  0  0  0  0  0  0  0  0
    6.8760   -4.2590   21.5310 N   0  0  0  0  0  0  0  0  0  0  0  0
    7.6160   -3.1950   22.1680 C   0  0  0  0  0  0  0  0  0  0  0  0
    6.7350   -2.6900   23.3070 C   0  0  0  0  0  0  0  0  0  0  0  0
    6.5380   -3.8690   24.2370 C   0  0  0  0  0  0  0  0  0  0  0  0
    5.8060   -3.4380   25.4450 C   0  0  0  0  0  0  0  0  0  0  0  0
    4.5680   -3.5980   25.4810 O   0  0  0  0  0  0  0  0  0  0  0  0
    6.5090   -2.8390   26.5190 N   0  0  0  0  0  0  0  0  0  0  0  0
    6.9730   -1.5070   26.3000 C   0  0  0  0  0  0  0  0  0  0  0  0
    6.1190   -3.1100   27.8870 C   0  0  0  0  0  0  0  0  0  0  0  0
    6.2470   -4.4350   28.1950 C   0  0  0  0  0  0  0  0  0  0  0  0
    5.4360   -4.9280   29.1830 C   0  0  0  0  0  0  0  0  0  0  0  0
    4.1740   -4.3100   29.4720 C   0  0  0  0  0  0  0  0  0  0  0  0
    3.4660   -4.8830   30.4790 C   0  0  0  0  0  0  0  0  0  0  0  0
    4.1840   -6.0260   31.0430 C   0  0  0  0  0  0  0  0  0  0  0  0
    3.0890   -6.2550   32.0020 C   0  0  0  0  0  0  0  0  0  0  0  0
    3.1440   -7.3980   33.0210 C   0  0  0  0  0  0  0  0  0  0  0  0
    4.5020   -7.9800   32.6310 C   0  0  0  0  0  0  0  0  0  0  0  0
    5.4800   -7.6410   31.6500 C   0  0  0  0  0  0  0  0  0  0  0  0
    5.2760   -6.6150   30.8410 C   0  0  0  0  0  0  0  0  0  0  0  0
    6.0510   -6.0950   29.8340 N   0  0  0  0  0  0  0  0  0  0  0  0
    5.7570   -4.9810   23.5570 C   0  0  0  0  0  0  0  0  0  0  0  0
    6.4550   -5.4040   22.2880 C   0  0  0  0  0  0  0  0  0  0  0  0
  1  2  1  0
  2  3  2  0
  2  4  1  0
  4  5  1  0
  5  6  1  0
  6  7  1  0
  7  8  1  0
  8  9  2  0
  8 10  1  0
 10 11  1  0
 10 12  1  0
 12 13  1  0
 13 14  1  0
 14 15  2  0
 15 16  1  0
 16 17  2  0
 17 18  1  0
 18 19  2  0
 19 20  1  0
 20 21  2  0
 17 22  1  0
 21 22  1  0
 14 23  1  0
 22 23  2  0
  7 24  1  0
  4 25  1  0
 24 25  1  0
M  END
