piperidine-amides-2605-covalent
     RDKit          3D

 25 26  0  0  0  0  0  0  0  0999 V2000
    7.0830   -3.2720   19.2180 C   0  0  0  0  0  0  0  0  0  0  0  0
    6.3570   -4.0630   20.2470 C   0  0  0  0  0  0  0  0  0  0  0  0
    5.2970   -4.5800   19.8970 O   0  0  0  0  0  0  0  0  0  0  0  0
    6.8920   -4.2470   21.5280 N   0  0  0  0  0  0  0  0  0  0  0  0
    6.6340   -5.4310   22.3010 C   0  0  0  0  0  0  0  0  0  0  0  0
    6.2740   -5.0630   23.7170 C   0  0  0  0  0  0  0  0  0  0  0  0
    5.8960   -3.5820   23.8290 C   0  0  0  0  0  0  0  0  0  0  0  0
    5.7070   -3.3000   25.2580 C   0  0  0  0  0  0  0  0  0  0  0  0
    4.6910   -2.6990   25.6340 O   0  0  0  0  0  0  0  0  0  0  0  0
    6.6700   -3.7150   26.1930 N   0  0  0  0  0  0  0  0  0  0  0  0
    6.2800   -3.8460   27.5710 C   0  0  0  0  0  0  0  0  0  0  0  0
    6.2610   -5.3220   27.8920 C   0  0  0  0  0  0  0  0  0  0  0  0
    7.5210   -5.6060   28.4120 F   0  0  0  0  0  0  0  0  0  0  0  0
    6.1630   -6.0320   26.7080 F   0  0  0  0  0  0  0  0  0  0  0  0
    5.3320   -5.9340   28.6970 C   0  0  0  0  0  0  0  0  0  0  0  0
    4.8910   -7.2560   28.6240 C   0  0  0  0  0  0  0  0  0  0  0  0
    3.9470   -7.6350   29.5480 C   0  0  0  0  0  0  0  0  0  0  0  0
    3.5400   -6.5770   30.4820 C   0  0  0  0  0  0  0  0  0  0  0  0
    2.5520   -6.6290   31.6040 C   0  0  0  0  0  0  0  0  0  0  0  0
    3.9500   -5.1810   30.6210 C   0  0  0  0  0  0  0  0  0  0  0  0
    3.4940   -4.2640   31.5470 O   0  0  0  0  0  0  0  0  0  0  0  0
    3.4050   -2.9030   31.2130 C   0  0  0  0  0  0  0  0  0  0  0  0
    4.9900   -4.8600   29.5650 C   0  0  0  0  0  0  0  0  0  0  0  0
    6.7950   -2.6040   23.1740 C   0  0  0  0  0  0  0  0  0  0  0  0
    7.6850   -3.2110   22.1590 C   0  0  0  0  0  0  0  0  0  0  0  0
  1  2  1  0
  2  3  2  0
  2  4  1  0
  4  5  1  0
  5  6  1  0
  6  7  1  0
  7  8  1  0
  8  9  2  0
  8 10  1  0
 10 11  1  0
 11 12  1  0
 12 13  1  0
 12 14  1  0
 12 15  1  0
 15 16  2  0
 16 17  1  0
 17 18  2  0
 18 19  1  0
 18 20  1  0
 20 21  1  0
 21 22  1  0
 15 23  1  0
 20 23  2  0
  7 24  1  0
  4 25  1  0
 24 25  1  0
M  END
