piperidine-amides-11559-covalent
     RDKit          3D

 21 22  0  0  0  0  0  0  0  0999 V2000
    7.0930   -3.3490   19.3540 C   0  0  0  0  0  0  0  0  0  0  0  0
    6.3530   -4.1430   20.3350 C   0  0  0  0  0  0  0  0  0  0  0  0
    5.3480   -4.7670   19.9630 O   0  0  0  0  0  0  0  0  0  0  0  0
    6.7850   -4.2570   21.6720 N   0  0  0  0  0  0  0  0  0  0  0  0
    6.6790   -5.5100   22.3870 C   0  0  0  0  0  0  0  0  0  0  0  0
    6.1000   -5.1590   23.7330 C   0  0  0  0  0  0  0  0  0  0  0  0
    6.0880   -3.6780   23.9440 C   0  0  0  0  0  0  0  0  0  0  0  0
    5.6550   -3.2680   25.3070 C   0  0  0  0  0  0  0  0  0  0  0  0
    4.4210   -3.2120   25.6020 O   0  0  0  0  0  0  0  0  0  0  0  0
    6.5680   -2.9300   26.3240 N   0  0  0  0  0  0  0  0  0  0  0  0
    6.4980   -1.6620   27.0840 C   0  0  0  0  0  0  0  0  0  0  0  0
    7.0530   -1.6640   28.4440 C   0  0  0  0  0  0  0  0  0  0  0  0
    7.0170   -0.4500   29.2480 C   0  0  0  0  0  0  0  0  0  0  0  0
    6.4100    0.8060   28.6880 C   0  0  0  0  0  0  0  0  0  0  0  0
    6.4020    1.9360   29.4990 F   0  0  0  0  0  0  0  0  0  0  0  0
    5.8210    0.8670   27.2870 C   0  0  0  0  0  0  0  0  0  0  0  0
    4.9750    2.6550   26.5240 I   0  0  0  0  0  0  0  0  0  0  0  0
    5.9010   -0.4180   26.5330 C   0  0  0  0  0  0  0  0  0  0  0  0
    5.3890   -0.4330   25.2680 F   0  0  0  0  0  0  0  0  0  0  0  0
    7.4500   -3.1300   23.5960 C   0  0  0  0  0  0  0  0  0  0  0  0
    7.6210   -3.1960   22.2070 C   0  0  0  0  0  0  0  0  0  0  0  0
  1  2  1  0
  2  3  2  0
  2  4  1  0
  4  5  1  0
  5  6  1  0
  6  7  1  0
  7  8  1  0
  8  9  2  0
  8 10  1  0
 10 11  1  0
 11 12  2  0
 12 13  1  0
 13 14  2  0
 14 15  1  0
 14 16  1  0
 16 17  1  0
 11 18  1  0
 16 18  2  0
 18 19  1  0
  7 20  1  0
  4 21  1  0
 20 21  1  0
M  END
