piperidine-amides-30947-covalent
     RDKit          3D

 27 28  0  0  0  0  0  0  0  0999 V2000
    7.0360   -3.3800   19.3940 C   0  0  0  0  0  0  0  0  0  0  0  0
    6.4010   -4.2500   20.3870 C   0  0  0  0  0  0  0  0  0  0  0  0
    5.4370   -4.9450   20.0150 O   0  0  0  0  0  0  0  0  0  0  0  0
    6.8860   -4.3390   21.7150 N   0  0  0  0  0  0  0  0  0  0  0  0
    7.7430   -3.2950   22.2860 C   0  0  0  0  0  0  0  0  0  0  0  0
    7.2370   -2.9680   23.6700 C   0  0  0  0  0  0  0  0  0  0  0  0
    5.9580   -3.6890   23.9240 C   0  0  0  0  0  0  0  0  0  0  0  0
    5.2090   -3.2480   25.1480 C   0  0  0  0  0  0  0  0  0  0  0  0
    4.3390   -2.3510   25.0010 O   0  0  0  0  0  0  0  0  0  0  0  0
    5.3340   -3.6920   26.4880 N   0  0  0  0  0  0  0  0  0  0  0  0
    6.5370   -3.2980   27.1570 C   0  0  0  0  0  0  0  0  0  0  0  0
    6.7320   -4.3490   28.1800 C   0  0  0  0  0  0  0  0  0  0  0  0
    5.5410   -4.4140   28.9560 C   0  0  0  0  0  0  0  0  0  0  0  0
    5.5490   -5.6570   29.8140 C   0  0  0  0  0  0  0  0  0  0  0  0
    5.1800   -3.1990   29.7470 C   0  0  0  0  0  0  0  0  0  0  0  0
    4.1830   -4.4940   28.2510 C   0  0  2  0  0  0  0  0  0  0  0  0
    3.9530   -5.7970   27.7310 N   0  0  0  0  0  0  0  0  0  0  0  0
    2.6510   -6.1500   27.7800 C   0  0  0  0  0  0  0  0  0  0  0  0
    1.8700   -5.7540   28.7100 O   0  0  0  0  0  0  0  0  0  0  0  0
    2.2800   -6.8830   26.8480 O   0  0  0  0  0  0  0  0  0  0  0  0
    1.4810   -7.9530   27.2020 C   0  0  0  0  0  0  0  0  0  0  0  0
    1.5480   -9.2140   26.3530 C   0  0  0  0  0  0  0  0  0  0  0  0
    1.8830   -8.3120   28.5990 C   0  0  0  0  0  0  0  0  0  0  0  0
    0.0570   -7.5080   27.3350 C   0  0  0  0  0  0  0  0  0  0  0  0
    4.1030   -3.5510   27.2430 C   0  0  0  0  0  0  0  0  0  0  0  0
    6.0430   -5.1470   23.7640 C   0  0  0  0  0  0  0  0  0  0  0  0
    6.6040   -5.4820   22.5460 C   0  0  0  0  0  0  0  0  0  0  0  0
  1  2  1  0
  2  3  2  0
  2  4  1  0
  4  5  1  0
  5  6  1  0
  6  7  1  0
  7  8  1  0
  8  9  2  0
  8 10  1  0
 10 11  1  0
 11 12  1  0
 12 13  1  0
 13 14  1  0
 13 15  1  0
 13 16  1  0
 16 17  1  6
 17 18  1  0
 18 19  2  0
 18 20  1  0
 21 20  1  0
 21 22  1  0
 21 23  1  0
 21 24  1  0
 10 25  1  0
 16 25  1  0
  7 26  1  0
  4 27  1  0
 26 27  1  0
M  END
