piperidine-amides-3848-covalent
     RDKit          3D

 21 23  0  0  0  0  0  0  0  0999 V2000
    7.1480   -3.2820   19.2080 C   0  0  0  0  0  0  0  0  0  0  0  0
    6.4160   -4.0490   20.2270 C   0  0  0  0  0  0  0  0  0  0  0  0
    5.3130   -4.5440   19.8880 O   0  0  0  0  0  0  0  0  0  0  0  0
    6.9690   -4.2740   21.5120 N   0  0  0  0  0  0  0  0  0  0  0  0
    6.4160   -5.3230   22.2770 C   0  0  0  0  0  0  0  0  0  0  0  0
    5.8790   -4.8940   23.5710 C   0  0  0  0  0  0  0  0  0  0  0  0
    6.5260   -3.7170   24.2130 C   0  0  0  0  0  0  0  0  0  0  0  0
    5.7330   -3.2550   25.3980 C   0  0  0  0  0  0  0  0  0  0  0  0
    4.6730   -2.6330   25.2040 O   0  0  0  0  0  0  0  0  0  0  0  0
    6.1430   -3.5080   26.7190 N   0  0  0  0  0  0  0  0  0  0  0  0
    5.7170   -4.5580   27.5750 C   0  0  1  0  0  0  0  0  0  0  0  0
    5.9980   -4.5890   28.9520 C   0  0  0  0  0  0  0  0  0  0  0  0
    4.4910   -4.6150   29.2630 C   0  0  1  0  0  0  0  0  0  0  0  0
    4.2830   -3.4960   30.1920 N   0  0  0  0  0  0  0  0  0  0  0  0
    4.1620   -2.2360   29.5300 C   0  0  0  0  0  0  0  0  0  0  0  0
    2.7120   -1.8490   29.8760 C   0  0  0  0  0  0  0  0  0  0  0  0
    2.8960   -2.1200   31.3420 C   0  0  0  0  0  0  0  0  0  0  0  0
    3.2220   -3.5710   30.9870 C   0  0  0  0  0  0  0  0  0  0  0  0
    4.2410   -4.4600   27.7410 C   0  0  0  0  0  0  0  0  0  0  0  0
    6.7930   -2.6060   23.2310 C   0  0  0  0  0  0  0  0  0  0  0  0
    7.6760   -3.1920   22.1330 C   0  0  0  0  0  0  0  0  0  0  0  0
  1  2  1  0
  2  3  2  0
  2  4  1  0
  4  5  1  0
  5  6  1  0
  6  7  1  0
  7  8  1  0
  8  9  2  0
  8 10  1  0
 11 10  1  1
 11 12  1  0
 12 13  1  0
 13 14  1  1
 14 15  1  0
 15 16  1  0
 16 17  1  0
 14 18  1  0
 17 18  1  0
 11 19  1  0
 13 19  1  0
  7 20  1  0
  4 21  1  0
 20 21  1  0
M  END
