piperidine-amides-23457-covalent
     RDKit          3D

 24 26  0  0  0  0  0  0  0  0999 V2000
    7.1010   -3.3660   19.2910 C   0  0  0  0  0  0  0  0  0  0  0  0
    6.3760   -4.1420   20.3040 C   0  0  0  0  0  0  0  0  0  0  0  0
    5.3160   -4.7010   19.9350 O   0  0  0  0  0  0  0  0  0  0  0  0
    6.8980   -4.2960   21.6150 N   0  0  0  0  0  0  0  0  0  0  0  0
    6.4950   -5.4080   22.3990 C   0  0  0  0  0  0  0  0  0  0  0  0
    6.3870   -5.1310   23.8350 C   0  0  0  0  0  0  0  0  0  0  0  0
    6.6800   -3.7450   24.2850 C   0  0  0  0  0  0  0  0  0  0  0  0
    5.6410   -3.2610   25.2600 C   0  0  0  0  0  0  0  0  0  0  0  0
    4.7700   -2.4660   24.8700 O   0  0  0  0  0  0  0  0  0  0  0  0
    5.5810   -3.6850   26.6030 N   0  0  0  0  0  0  0  0  0  0  0  0
    4.8540   -4.7240   27.1370 C   0  0  0  0  0  0  0  0  0  0  0  0
    5.4870   -5.4240   28.2470 C   0  0  0  0  0  0  0  0  0  0  0  0
    5.5760   -4.5190   29.4890 C   0  0  0  0  0  0  0  0  0  0  0  0
    4.6510   -3.4990   29.6300 C   0  0  0  0  0  0  0  0  0  0  0  0
    5.6280   -2.3210   29.7430 C   0  0  0  0  0  0  0  0  0  0  0  0
    4.9570   -0.9630   29.9220 C   0  0  0  0  0  0  0  0  0  0  0  0
    3.3920   -0.9540   29.9660 C   0  0  0  0  0  0  0  0  0  0  0  0
    2.8460    0.3190   30.1330 O   0  0  0  0  0  0  0  0  0  0  0  0
    2.5540   -2.2030   29.8420 C   0  0  0  0  0  0  0  0  0  0  0  0
    3.3140   -3.4650   29.6720 C   0  0  0  0  0  0  0  0  0  0  0  0
    6.6460   -4.2810   28.4780 C   0  0  0  0  0  0  0  0  0  0  0  0
    6.3520   -3.0900   27.6050 C   0  0  0  0  0  0  0  0  0  0  0  0
    6.8580   -2.7500   23.1940 C   0  0  0  0  0  0  0  0  0  0  0  0
    7.6810   -3.2570   22.2220 C   0  0  0  0  0  0  0  0  0  0  0  0
  1  2  1  0
  2  3  2  0
  2  4  1  0
  4  5  1  0
  5  6  1  0
  6  7  1  0
  7  8  1  0
  8  9  2  0
  8 10  1  0
 10 11  1  0
 11 12  1  0
 12 13  1  0
 13 14  1  0
 14 15  2  0
 15 16  1  0
 16 17  2  0
 17 18  1  0
 17 19  1  0
 14 20  1  0
 19 20  2  0
 13 21  1  0
 10 22  1  0
 21 22  1  0
  7 23  1  0
  4 24  1  0
 23 24  1  0
M  END
