piperidine-amides-14085-covalent
     RDKit          3D

 25 26  0  0  0  0  0  0  0  0999 V2000
    7.0490   -3.3680   19.3550 C   0  0  0  0  0  0  0  0  0  0  0  0
    6.3740   -4.2640   20.3320 C   0  0  0  0  0  0  0  0  0  0  0  0
    5.3500   -4.8690   19.9800 O   0  0  0  0  0  0  0  0  0  0  0  0
    6.9490   -4.4490   21.6110 N   0  0  0  0  0  0  0  0  0  0  0  0
    6.6580   -5.5860   22.4480 C   0  0  0  0  0  0  0  0  0  0  0  0
    5.7690   -5.1030   23.6090 C   0  0  0  0  0  0  0  0  0  0  0  0
    6.4280   -3.9530   24.3070 C   0  0  0  0  0  0  0  0  0  0  0  0
    5.5240   -3.3070   25.2960 C   0  0  0  0  0  0  0  0  0  0  0  0
    4.3170   -3.3550   25.0360 O   0  0  0  0  0  0  0  0  0  0  0  0
    6.0120   -2.6870   26.4540 N   0  0  0  0  0  0  0  0  0  0  0  0
    6.1900   -1.2880   26.6930 C   0  0  0  0  0  0  0  0  0  0  0  0
    6.4960   -0.5220   25.5590 C   0  0  0  0  0  0  0  0  0  0  0  0
    7.4870   -1.0870   24.6920 O   0  0  0  0  0  0  0  0  0  0  0  0
    5.7620    0.7260   25.3250 N   0  0  0  0  0  0  0  0  0  0  0  0
    6.3170    1.8660   24.7240 C   0  0  0  0  0  0  0  0  0  0  0  0
    6.2930    1.7340   23.3500 C   0  0  0  0  0  0  0  0  0  0  0  0
    7.2110    0.7070   22.7720 C   0  0  0  0  0  0  0  0  0  0  0  0
    8.7160    0.8770   23.0510 C   0  0  0  0  0  0  0  0  0  0  0  0
    5.0970   -0.6530   27.2700 C   0  0  0  0  0  0  0  0  0  0  0  0
    5.5410    0.5920   27.7010 C   0  0  0  0  0  0  0  0  0  0  0  0
    6.2100    0.7760   29.0100 C   0  0  0  0  0  0  0  0  0  0  0  0
    6.7880   -0.6290   28.9830 C   0  0  0  0  0  0  0  0  0  0  0  0
    7.0500   -1.2740   27.7980 C   0  0  0  0  0  0  0  0  0  0  0  0
    6.8770   -2.8570   23.3890 C   0  0  0  0  0  0  0  0  0  0  0  0
    7.6870   -3.3780   22.2390 C   0  0  0  0  0  0  0  0  0  0  0  0
  1  2  1  0
  2  3  2  0
  2  4  1  0
  4  5  1  0
  5  6  1  0
  6  7  1  0
  7  8  1  0
  8  9  2  0
  8 10  1  0
 10 11  1  0
 11 12  1  0
 12 13  2  0
 12 14  1  0
 14 15  1  0
 15 16  1  0
 16 17  1  0
 17 18  1  0
 11 19  1  0
 19 20  1  0
 20 21  1  0
 21 22  1  0
 11 23  1  0
 22 23  1  0
  7 24  1  0
  4 25  1  0
 24 25  1  0
M  END
