piperidine-amides-10295-covalent
     RDKit          3D

 24 26  0  0  0  0  0  0  0  0999 V2000
    7.1120   -3.2790   19.2050 C   0  0  0  0  0  0  0  0  0  0  0  0
    6.2920   -3.9930   20.1860 C   0  0  0  0  0  0  0  0  0  0  0  0
    5.1760   -4.4160   19.8070 O   0  0  0  0  0  0  0  0  0  0  0  0
    6.7760   -4.2290   21.4590 N   0  0  0  0  0  0  0  0  0  0  0  0
    6.4130   -5.4390   22.1690 C   0  0  0  0  0  0  0  0  0  0  0  0
    5.7470   -5.0350   23.4540 C   0  0  0  0  0  0  0  0  0  0  0  0
    6.5670   -3.9750   24.1290 C   0  0  0  0  0  0  0  0  0  0  0  0
    5.9260   -3.4560   25.3460 C   0  0  0  0  0  0  0  0  0  0  0  0
    4.7140   -3.1340   25.3230 O   0  0  0  0  0  0  0  0  0  0  0  0
    6.6670   -3.3280   26.5270 N   0  0  0  0  0  0  0  0  0  0  0  0
    7.9700   -3.9390   26.5680 C   0  0  0  0  0  0  0  0  0  0  0  0
    9.0230   -3.1130   25.8330 C   0  0  0  0  0  0  0  0  0  0  0  0
    8.7630   -1.8650   25.0910 N   0  0  0  0  0  0  0  0  0  0  0  0
    9.9300   -1.3920   24.5990 C   0  0  0  0  0  0  0  0  0  0  0  0
   10.2130   -0.2780   23.8640 C   0  0  0  0  0  0  0  0  0  0  0  0
   11.5170    0.0110   23.4760 C   0  0  0  0  0  0  0  0  0  0  0  0
   12.5290   -0.8770   23.8660 C   0  0  0  0  0  0  0  0  0  0  0  0
   12.2970   -2.0310   24.6160 C   0  0  0  0  0  0  0  0  0  0  0  0
   13.4360   -2.9310   25.0110 C   0  0  0  0  0  0  0  0  0  0  0  0
   10.9680   -2.2120   24.9340 C   0  0  0  0  0  0  0  0  0  0  0  0
   10.3990   -3.2850   25.6840 N   0  0  0  0  0  0  0  0  0  0  0  0
   11.1410   -4.3470   26.1930 C   0  0  0  0  0  0  0  0  0  0  0  0
    6.7990   -2.8300   23.1940 C   0  0  0  0  0  0  0  0  0  0  0  0
    7.5960   -3.2360   22.1610 C   0  0  0  0  0  0  0  0  0  0  0  0
  1  2  1  0
  2  3  2  0
  2  4  1  0
  4  5  1  0
  5  6  1  0
  6  7  1  0
  7  8  1  0
  8  9  2  0
  8 10  1  0
 10 11  1  0
 11 12  1  0
 12 13  2  0
 13 14  1  0
 14 15  2  0
 15 16  1  0
 16 17  2  0
 17 18  1  0
 18 19  1  0
 14 20  1  0
 18 20  2  0
 12 21  1  0
 20 21  1  0
 21 22  1  0
  7 23  1  0
  4 24  1  0
 23 24  1  0
M  END
