piperidine-amides-28079-covalent
     RDKit          3D

 26 28  0  0  0  0  0  0  0  0999 V2000
    7.0060   -3.3730   19.3550 C   0  0  0  0  0  0  0  0  0  0  0  0
    6.3720   -4.2320   20.3860 C   0  0  0  0  0  0  0  0  0  0  0  0
    5.3940   -4.9020   19.9980 O   0  0  0  0  0  0  0  0  0  0  0  0
    6.8730   -4.3150   21.7030 N   0  0  0  0  0  0  0  0  0  0  0  0
    6.5330   -5.4180   22.5400 C   0  0  0  0  0  0  0  0  0  0  0  0
    6.0250   -5.0610   23.8850 C   0  0  0  0  0  0  0  0  0  0  0  0
    6.3700   -3.7160   24.4370 C   0  0  0  0  0  0  0  0  0  0  0  0
    5.2650   -3.2290   25.3450 C   0  0  0  0  0  0  0  0  0  0  0  0
    4.3000   -2.7030   24.7710 O   0  0  0  0  0  0  0  0  0  0  0  0
    5.2230   -3.3230   26.7810 N   0  0  0  0  0  0  0  0  0  0  0  0
    4.0140   -3.5740   27.5660 C   0  0  0  0  0  0  0  0  0  0  0  0
    4.3590   -4.0730   28.9440 C   0  0  0  0  0  0  0  0  0  0  0  0
    5.5060   -4.8620   29.1970 N   0  0  0  0  0  0  0  0  0  0  0  0
    5.3650   -6.1390   29.8590 C   0  0  0  0  0  0  0  0  0  0  0  0
    4.2440   -6.7890   29.3840 C   0  0  0  0  0  0  0  0  0  0  0  0
    3.2940   -7.2980   30.2480 C   0  0  0  0  0  0  0  0  0  0  0  0
    2.1950   -7.9370   29.7700 C   0  0  0  0  0  0  0  0  0  0  0  0
    2.0200   -8.0820   28.4270 C   0  0  0  0  0  0  0  0  0  0  0  0
    2.9290   -7.6000   27.5260 C   0  0  0  0  0  0  0  0  0  0  0  0
    2.7040   -7.7770   26.1940 O   0  0  0  0  0  0  0  0  0  0  0  0
    2.1190   -8.9760   25.7230 C   0  0  0  0  0  0  0  0  0  0  0  0
    4.0460   -6.9510   28.0210 C   0  0  0  0  0  0  0  0  0  0  0  0
    6.6240   -4.6490   28.3720 C   0  0  0  0  0  0  0  0  0  0  0  0
    6.4370   -3.4470   27.4650 C   0  0  0  0  0  0  0  0  0  0  0  0
    6.7700   -2.6910   23.4510 C   0  0  0  0  0  0  0  0  0  0  0  0
    7.6210   -3.2440   22.3280 C   0  0  0  0  0  0  0  0  0  0  0  0
  1  2  1  0
  2  3  2  0
  2  4  1  0
  4  5  1  0
  5  6  1  0
  6  7  1  0
  7  8  1  0
  8  9  2  0
  8 10  1  0
 10 11  1  0
 11 12  1  0
 12 13  1  0
 13 14  1  0
 14 15  1  0
 15 16  2  0
 16 17  1  0
 17 18  2  0
 18 19  1  0
 19 20  1  0
 20 21  1  0
 15 22  1  0
 19 22  2  0
 13 23  1  0
 10 24  1  0
 23 24  1  0
  7 25  1  0
  4 26  1  0
 25 26  1  0
M  END
