piperidine-amides-24012-covalent
     RDKit          3D

 24 26  0  0  0  0  0  0  0  0999 V2000
    7.0580   -3.3680   19.3810 C   0  0  0  0  0  0  0  0  0  0  0  0
    6.4140   -4.2480   20.3710 C   0  0  0  0  0  0  0  0  0  0  0  0
    5.3830   -4.8500   19.9870 O   0  0  0  0  0  0  0  0  0  0  0  0
    6.9670   -4.4530   21.6670 N   0  0  0  0  0  0  0  0  0  0  0  0
    6.4840   -5.5290   22.4560 C   0  0  0  0  0  0  0  0  0  0  0  0
    5.9390   -5.1320   23.7600 C   0  0  0  0  0  0  0  0  0  0  0  0
    6.4800   -3.8980   24.3870 C   0  0  0  0  0  0  0  0  0  0  0  0
    5.6180   -3.4210   25.5490 C   0  0  0  0  0  0  0  0  0  0  0  0
    4.6890   -2.6460   25.2710 O   0  0  0  0  0  0  0  0  0  0  0  0
    5.7640   -3.7910   26.9330 N   0  0  0  0  0  0  0  0  0  0  0  0
    6.2240   -5.0530   27.4490 C   0  0  0  0  0  0  0  0  0  0  0  0
    5.5510   -5.7910   28.4530 C   0  0  0  0  0  0  0  0  0  0  0  0
    4.8640   -4.9890   29.1830 N   0  0  0  0  0  0  0  0  0  0  0  0
    4.6100   -3.6580   29.0660 C   0  0  0  0  0  0  0  0  0  0  0  0
    3.8080   -3.3590   30.1510 N   0  0  0  0  0  0  0  0  0  0  0  0
    3.5930   -4.5010   30.9020 N   0  0  0  0  0  0  0  0  0  0  0  0
    4.2510   -5.5120   30.3050 C   0  0  0  0  0  0  0  0  0  0  0  0
    4.4730   -7.0230   30.5640 C   0  0  0  0  0  0  0  0  0  0  0  0
    3.6660   -7.4430   29.3770 C   0  0  0  0  0  0  0  0  0  0  0  0
    5.9320   -7.4620   30.3190 C   0  0  0  0  0  0  0  0  0  0  0  0
    3.9560   -7.6040   31.8420 C   0  0  0  0  0  0  0  0  0  0  0  0
    5.1630   -2.9700   27.9710 C   0  0  0  0  0  0  0  0  0  0  0  0
    6.6430   -2.7780   23.3450 C   0  0  0  0  0  0  0  0  0  0  0  0
    7.5910   -3.2890   22.3170 C   0  0  0  0  0  0  0  0  0  0  0  0
  1  2  1  0
  2  3  2  0
  2  4  1  0
  4  5  1  0
  5  6  1  0
  6  7  1  0
  7  8  1  0
  8  9  2  0
  8 10  1  0
 10 11  1  0
 11 12  1  0
 12 13  1  0
 13 14  1  0
 14 15  2  0
 15 16  1  0
 13 17  1  0
 16 17  2  0
 17 18  1  0
 18 19  1  0
 18 20  1  0
 18 21  1  0
 10 22  1  0
 14 22  1  0
  7 23  1  0
  4 24  1  0
 23 24  1  0
M  END
