piperidine-amides-24463-covalent
     RDKit          3D

 24 26  0  0  0  0  0  0  0  0999 V2000
    7.0750   -3.3430   19.4120 C   0  0  0  0  0  0  0  0  0  0  0  0
    6.3570   -4.1900   20.3710 C   0  0  0  0  0  0  0  0  0  0  0  0
    5.3660   -4.8500   19.9870 O   0  0  0  0  0  0  0  0  0  0  0  0
    6.7930   -4.3060   21.7040 N   0  0  0  0  0  0  0  0  0  0  0  0
    6.5770   -5.5680   22.3770 C   0  0  0  0  0  0  0  0  0  0  0  0
    6.2380   -5.2660   23.8450 C   0  0  0  0  0  0  0  0  0  0  0  0
    6.0400   -3.7710   23.9490 C   0  0  0  0  0  0  0  0  0  0  0  0
    5.5150   -3.3830   25.2830 C   0  0  0  0  0  0  0  0  0  0  0  0
    4.2780   -3.3420   25.3970 O   0  0  0  0  0  0  0  0  0  0  0  0
    6.3600   -3.0310   26.3700 N   0  0  0  0  0  0  0  0  0  0  0  0
    6.1750   -3.5770   27.7030 C   0  0  0  0  0  0  0  0  0  0  0  0
    5.0740   -4.6170   27.7640 C   0  0  0  0  0  0  0  0  0  0  0  0
    3.7480   -4.4620   27.3780 C   0  0  0  0  0  0  0  0  0  0  0  0
    2.8060   -5.4710   27.4780 C   0  0  0  0  0  0  0  0  0  0  0  0
    3.1220   -6.7180   27.9770 C   0  0  0  0  0  0  0  0  0  0  0  0
    2.1330   -7.6780   28.0540 F   0  0  0  0  0  0  0  0  0  0  0  0
    4.3750   -7.0110   28.3900 C   0  0  0  0  0  0  0  0  0  0  0  0
    5.4720   -5.9840   28.3240 C   0  0  0  0  0  0  0  0  0  0  0  0
    6.7420   -6.3450   28.7720 F   0  0  0  0  0  0  0  0  0  0  0  0
    6.8780   -1.6870   26.5090 C   0  0  0  0  0  0  0  0  0  0  0  0
    5.8360   -0.6760   26.8720 C   0  0  0  0  0  0  0  0  0  0  0  0
    6.7880   -1.1050   27.9060 C   0  0  0  0  0  0  0  0  0  0  0  0
    7.3310   -3.0960   23.6210 C   0  0  0  0  0  0  0  0  0  0  0  0
    7.5810   -3.2500   22.2850 C   0  0  0  0  0  0  0  0  0  0  0  0
  1  2  1  0
  2  3  2  0
  2  4  1  0
  4  5  1  0
  5  6  1  0
  6  7  1  0
  7  8  1  0
  8  9  2  0
  8 10  1  0
 10 11  1  0
 11 12  1  0
 12 13  2  0
 13 14  1  0
 14 15  2  0
 15 16  1  0
 15 17  1  0
 12 18  1  0
 17 18  2  0
 18 19  1  0
 10 20  1  0
 20 21  1  0
 20 22  1  0
 21 22  1  0
  7 23  1  0
  4 24  1  0
 23 24  1  0
M  END
