piperidine-amides-23686-covalent
     RDKit          3D

 23 25  0  0  0  0  0  0  0  0999 V2000
    7.1310   -3.3180   19.2490 C   0  0  0  0  0  0  0  0  0  0  0  0
    6.4250   -4.1120   20.2620 C   0  0  0  0  0  0  0  0  0  0  0  0
    5.3460   -4.6610   19.9290 O   0  0  0  0  0  0  0  0  0  0  0  0
    6.9980   -4.2860   21.5420 N   0  0  0  0  0  0  0  0  0  0  0  0
    6.6810   -5.4730   22.2750 C   0  0  0  0  0  0  0  0  0  0  0  0
    6.1940   -5.1810   23.6070 C   0  0  0  0  0  0  0  0  0  0  0  0
    6.2280   -3.7390   23.8680 C   0  0  0  0  0  0  0  0  0  0  0  0
    5.6780   -3.3040   25.1700 C   0  0  0  0  0  0  0  0  0  0  0  0
    4.9000   -2.3380   25.1880 O   0  0  0  0  0  0  0  0  0  0  0  0
    5.9550   -3.9250   26.3770 N   0  0  0  0  0  0  0  0  0  0  0  0
    6.7240   -5.0940   26.6220 C   0  0  0  0  0  0  0  0  0  0  0  0
    6.4520   -5.6710   27.9130 C   0  0  0  0  0  0  0  0  0  0  0  0
    5.0620   -5.0410   28.0320 C   0  0  1  0  0  0  0  0  0  0  0  0
    4.6100   -4.5060   29.1970 C   0  0  0  0  0  0  0  0  0  0  0  0
    4.4370   -5.8640   29.9020 C   0  0  0  0  0  0  0  0  0  0  0  0
    3.5620   -5.6840   30.9760 F   0  0  0  0  0  0  0  0  0  0  0  0
    5.6400   -6.4400   30.2740 F   0  0  0  0  0  0  0  0  0  0  0  0
    3.8680   -6.7560   29.0500 F   0  0  0  0  0  0  0  0  0  0  0  0
    3.9140   -3.4340   29.2100 N   0  0  0  0  0  0  0  0  0  0  0  0
    5.2780   -3.2840   29.3620 N   0  0  0  0  0  0  0  0  0  0  0  0
    5.0440   -3.6840   27.4730 C   0  0  0  0  0  0  0  0  0  0  0  0
    7.6360   -3.2320   23.6430 C   0  0  0  0  0  0  0  0  0  0  0  0
    7.8020   -3.2290   22.1510 C   0  0  0  0  0  0  0  0  0  0  0  0
  1  2  1  0
  2  3  2  0
  2  4  1  0
  4  5  1  0
  5  6  1  0
  6  7  1  0
  7  8  1  0
  8  9  2  0
  8 10  1  0
 10 11  1  0
 11 12  1  0
 12 13  1  0
 13 14  1  1
 14 15  1  0
 15 16  1  0
 15 17  1  0
 15 18  1  0
 14 19  1  0
 14 20  1  0
 19 20  2  0
 10 21  1  0
 13 21  1  0
  7 22  1  0
  4 23  1  0
 22 23  1  0
M  END
