piperidine-amides-30561-covalent
     RDKit          3D

 23 25  0  0  0  0  0  0  0  0999 V2000
    7.0680   -3.3840   19.4360 C   0  0  0  0  0  0  0  0  0  0  0  0
    6.3660   -4.2390   20.3930 C   0  0  0  0  0  0  0  0  0  0  0  0
    5.3750   -4.8760   19.9930 O   0  0  0  0  0  0  0  0  0  0  0  0
    6.8100   -4.4020   21.7260 N   0  0  0  0  0  0  0  0  0  0  0  0
    6.6730   -5.6670   22.4190 C   0  0  0  0  0  0  0  0  0  0  0  0
    6.2210   -5.3090   23.8090 C   0  0  0  0  0  0  0  0  0  0  0  0
    6.1930   -3.8230   23.9710 C   0  0  0  0  0  0  0  0  0  0  0  0
    5.7070   -3.3260   25.2940 C   0  0  0  0  0  0  0  0  0  0  0  0
    4.8610   -2.3870   25.3150 O   0  0  0  0  0  0  0  0  0  0  0  0
    6.0740   -3.8290   26.5670 N   0  0  0  0  0  0  0  0  0  0  0  0
    5.6110   -5.2100   26.8820 C   0  0  0  0  0  0  0  0  0  0  0  0
    5.6310   -5.4530   28.3330 C   0  0  0  0  0  0  0  0  0  0  0  0
    4.9280   -4.3840   28.9680 C   0  0  0  0  0  0  0  0  0  0  0  0
    3.8030   -4.6810   29.9280 C   0  0  0  0  0  0  0  0  0  0  0  0
    3.0920   -3.4900   30.5580 C   0  0  0  0  0  0  0  0  0  0  0  0
    3.5720   -2.1330   30.1670 C   0  0  0  0  0  0  0  0  0  0  0  0
    2.7560   -0.5700   30.9000 Br  0  0  0  0  0  0  0  0  0  0  0  0
    4.6110   -2.0630   29.2690 C   0  0  0  0  0  0  0  0  0  0  0  0
    5.2750   -3.1370   28.6770 C   0  0  0  0  0  0  0  0  0  0  0  0
    6.3760   -3.0210   27.7040 C   0  0  2  0  0  0  0  0  0  0  0  0
    6.7660   -1.5720   27.4000 C   0  0  0  0  0  0  0  0  0  0  0  0
    7.5670   -3.3090   23.5320 C   0  0  0  0  0  0  0  0  0  0  0  0
    7.5880   -3.2910   22.3150 C   0  0  0  0  0  0  0  0  0  0  0  0
  1  2  1  0
  2  3  2  0
  2  4  1  0
  4  5  1  0
  5  6  1  0
  6  7  1  0
  7  8  1  0
  8  9  2  0
  8 10  1  0
 10 11  1  0
 11 12  1  0
 12 13  1  0
 13 14  2  0
 14 15  1  0
 15 16  2  0
 16 17  1  0
 16 18  1  0
 13 19  1  0
 18 19  2  0
 10 20  1  0
 19 20  1  0
 20 21  1  6
  7 22  1  0
  4 23  1  0
 22 23  1  0
M  END
