piperidine-amides-30866-covalent
     RDKit          3D

 28 30  0  0  0  0  0  0  0  0999 V2000
    7.0410   -3.3450   19.3500 C   0  0  0  0  0  0  0  0  0  0  0  0
    6.3800   -4.1800   20.3580 C   0  0  0  0  0  0  0  0  0  0  0  0
    5.4080   -4.8700   19.9960 O   0  0  0  0  0  0  0  0  0  0  0  0
    6.8350   -4.2580   21.6970 N   0  0  0  0  0  0  0  0  0  0  0  0
    6.7010   -5.4790   22.4700 C   0  0  0  0  0  0  0  0  0  0  0  0
    6.0950   -5.0980   23.8030 C   0  0  0  0  0  0  0  0  0  0  0  0
    6.1240   -3.6160   24.0250 C   0  0  0  0  0  0  0  0  0  0  0  0
    5.5310   -3.1840   25.3230 C   0  0  0  0  0  0  0  0  0  0  0  0
    4.2960   -2.9210   25.3600 O   0  0  0  0  0  0  0  0  0  0  0  0
    6.2190   -3.0340   26.5560 N   0  0  0  0  0  0  0  0  0  0  0  0
    6.1350   -4.1710   27.5040 C   0  0  0  0  0  0  0  0  0  0  0  0
    4.8600   -4.1410   28.2420 C   0  0  0  0  0  0  0  0  0  0  0  0
    4.4730   -5.3600   28.9720 C   0  0  0  0  0  0  0  0  0  0  0  0
    3.1850   -5.3710   29.7330 C   0  0  0  0  0  0  0  0  0  0  0  0
    2.3480   -4.1150   29.7110 C   0  0  0  0  0  0  0  0  0  0  0  0
    1.0750   -4.0480   30.4320 N   0  0  0  0  0  0  0  0  0  0  0  0
    0.8050   -4.9100   31.3690 O   0  0  0  0  0  0  0  0  0  0  0  0
    0.0960   -3.1680   30.0360 O   0  0  0  0  0  0  0  0  0  0  0  0
    2.8810   -2.9710   28.9270 C   0  0  0  0  0  0  0  0  0  0  0  0
    4.0750   -3.0070   28.2390 C   0  0  0  0  0  0  0  0  0  0  0  0
    6.3320   -1.7670   27.2070 C   0  0  0  0  0  0  0  0  0  0  0  0
    5.7700   -0.5090   26.5040 C   0  0  0  0  0  0  0  0  0  0  0  0
    5.9160    0.7880   27.2810 C   0  0  0  0  0  0  0  0  0  0  0  0
    6.5850    0.5030   28.5530 C   0  0  0  0  0  0  0  0  0  0  0  0
    7.0510   -0.3590   29.1930 C   0  0  0  0  0  0  0  0  0  0  0  0
    6.9360   -1.6650   28.4810 C   0  0  0  0  0  0  0  0  0  0  0  0
    7.4800   -3.0460   23.7030 C   0  0  0  0  0  0  0  0  0  0  0  0
    7.6850   -3.1950   22.1970 C   0  0  0  0  0  0  0  0  0  0  0  0
  1  2  1  0
  2  3  2  0
  2  4  1  0
  4  5  1  0
  5  6  1  0
  6  7  1  0
  7  8  1  0
  8  9  2  0
  8 10  1  0
 10 11  1  0
 11 12  1  0
 12 13  2  0
 13 14  1  0
 14 15  2  0
 15 16  1  0
 16 17  2  0
 16 18  1  0
 15 19  1  0
 12 20  1  0
 19 20  2  0
 10 21  1  0
 21 22  2  0
 22 23  1  0
 23 24  2  0
 24 25  1  0
 21 26  1  0
 25 26  2  0
  7 27  1  0
  4 28  1  0
 27 28  1  0
M  CHG  2  16   1  18  -1
M  END
