piperidine-amides-27252-covalent
     RDKit          3D

 26 29  0  0  0  0  0  0  0  0999 V2000
    7.0530   -3.3620   19.3460 C   0  0  0  0  0  0  0  0  0  0  0  0
    6.4210   -4.2500   20.3240 C   0  0  0  0  0  0  0  0  0  0  0  0
    5.3530   -4.8030   19.9650 O   0  0  0  0  0  0  0  0  0  0  0  0
    7.0260   -4.5070   21.5600 N   0  0  0  0  0  0  0  0  0  0  0  0
    6.6480   -5.6650   22.3080 C   0  0  0  0  0  0  0  0  0  0  0  0
    5.5510   -5.2400   23.2440 C   0  0  0  0  0  0  0  0  0  0  0  0
    5.8540   -3.9850   24.0300 C   0  0  0  0  0  0  0  0  0  0  0  0
    4.5650   -3.5080   24.6460 C   0  0  0  0  0  0  0  0  0  0  0  0
    3.4940   -3.9060   24.1740 O   0  0  0  0  0  0  0  0  0  0  0  0
    4.5140   -2.6360   25.7360 N   0  0  0  0  0  0  0  0  0  0  0  0
    3.6830   -2.9110   26.9000 C   0  0  0  0  0  0  0  0  0  0  0  0
    4.3160   -4.0600   27.6450 C   0  0  0  0  0  0  0  0  0  0  0  0
    5.3880   -4.5930   27.0470 C   0  0  0  0  0  0  0  0  0  0  0  0
    6.2240   -3.6940   26.4180 C   0  0  2  0  0  0  0  0  0  0  0  0
    7.0700   -3.4740   27.2010 C   0  0  0  0  0  0  0  0  0  0  0  0
    7.1240   -2.2870   27.8780 C   0  0  0  0  0  0  0  0  0  0  0  0
    8.0820   -2.1250   28.7620 C   0  0  0  0  0  0  0  0  0  0  0  0
    9.0080   -3.2640   28.9470 C   0  0  0  0  0  0  0  0  0  0  0  0
    8.8460   -4.5040   28.1470 C   0  0  0  0  0  0  0  0  0  0  0  0
    9.5270   -5.7110   28.0670 N   0  0  0  0  0  0  0  0  0  0  0  0
    8.8850   -6.4390   27.0710 C   0  0  0  0  0  0  0  0  0  0  0  0
    7.7700   -5.6490   26.5720 C   0  0  0  0  0  0  0  0  0  0  0  0
    7.7980   -4.4810   27.2580 C   0  0  0  0  0  0  0  0  0  0  0  0
    5.8120   -2.4930   26.0760 C   0  0  0  0  0  0  0  0  0  0  0  0
    6.4740   -2.8820   23.1920 C   0  0  0  0  0  0  0  0  0  0  0  0
    7.6010   -3.4110   22.2990 C   0  0  0  0  0  0  0  0  0  0  0  0
  1  2  1  0
  2  3  2  0
  2  4  1  0
  4  5  1  0
  5  6  1  0
  6  7  1  0
  7  8  1  0
  8  9  2  0
  8 10  1  0
 10 11  1  0
 11 12  1  0
 12 13  1  0
 13 14  1  0
 14 15  1  1
 15 16  2  0
 16 17  1  0
 17 18  2  0
 18 19  1  0
 19 20  1  0
 20 21  1  0
 21 22  2  0
 15 23  1  0
 19 23  2  0
 22 23  1  0
 10 24  1  0
 14 24  1  0
  7 25  1  0
  4 26  1  0
 25 26  1  0
M  END
