piperidine-amides-14505-covalent
     RDKit          3D

 23 24  0  0  0  0  0  0  0  0999 V2000
    7.1680   -3.2740   19.2000 C   0  0  0  0  0  0  0  0  0  0  0  0
    6.3370   -3.9490   20.2050 C   0  0  0  0  0  0  0  0  0  0  0  0
    5.2710   -4.4810   19.8520 O   0  0  0  0  0  0  0  0  0  0  0  0
    6.7690   -4.0140   21.5450 N   0  0  0  0  0  0  0  0  0  0  0  0
    7.5140   -2.9180   22.0880 C   0  0  0  0  0  0  0  0  0  0  0  0
    6.8130   -2.4170   23.3060 C   0  0  0  0  0  0  0  0  0  0  0  0
    6.6090   -3.6250   24.1820 C   0  0  0  0  0  0  0  0  0  0  0  0
    5.8150   -3.2120   25.3830 C   0  0  0  0  0  0  0  0  0  0  0  0
    4.6090   -3.0540   25.2070 O   0  0  0  0  0  0  0  0  0  0  0  0
    6.4780   -3.0310   26.5920 N   0  0  0  0  0  0  0  0  0  0  0  0
    6.2580   -3.8960   27.7060 C   0  0  0  0  0  0  0  0  0  0  0  0
    5.7540   -5.1580   27.3570 C   0  0  0  0  0  0  0  0  0  0  0  0
    5.5440   -6.0990   28.3360 C   0  0  0  0  0  0  0  0  0  0  0  0
    6.3400   -6.7440   29.2180 C   0  0  0  0  0  0  0  0  0  0  0  0
    5.7940   -7.6770   30.1150 N   0  0  0  0  0  0  0  0  0  0  0  0
    4.4950   -7.6480   29.7920 N   0  0  0  0  0  0  0  0  0  0  0  0
    4.1680   -6.7310   28.7180 C   0  0  0  0  0  0  0  0  0  0  0  0
    2.7650   -6.4650   28.1150 C   0  0  0  0  0  0  0  0  0  0  0  0
    1.8340   -7.3660   28.5800 F   0  0  0  0  0  0  0  0  0  0  0  0
    2.3640   -5.1670   28.4750 F   0  0  0  0  0  0  0  0  0  0  0  0
    2.7490   -6.4430   26.7210 F   0  0  0  0  0  0  0  0  0  0  0  0
    5.8520   -4.7570   23.5700 C   0  0  0  0  0  0  0  0  0  0  0  0
    6.4570   -5.1960   22.2660 C   0  0  0  0  0  0  0  0  0  0  0  0
  1  2  1  0
  2  3  2  0
  2  4  1  0
  4  5  1  0
  5  6  1  0
  6  7  1  0
  7  8  1  0
  8  9  2  0
  8 10  1  0
 10 11  1  0
 11 12  1  0
 12 13  1  0
 13 14  2  0
 14 15  1  0
 15 16  1  0
 13 17  1  0
 16 17  2  0
 17 18  1  0
 18 19  1  0
 18 20  1  0
 18 21  1  0
  7 22  1  0
  4 23  1  0
 22 23  1  0
M  END
