piperidine-amides-1271-covalent
     RDKit          3D

 23 25  0  0  0  0  0  0  0  0999 V2000
    7.1390   -3.2660   19.2310 C   0  0  0  0  0  0  0  0  0  0  0  0
    6.3610   -4.0490   20.2280 C   0  0  0  0  0  0  0  0  0  0  0  0
    5.2780   -4.5490   19.8860 O   0  0  0  0  0  0  0  0  0  0  0  0
    6.8990   -4.2520   21.5140 N   0  0  0  0  0  0  0  0  0  0  0  0
    7.7170   -3.2870   22.2070 C   0  0  0  0  0  0  0  0  0  0  0  0
    6.9160   -2.7790   23.4070 C   0  0  0  0  0  0  0  0  0  0  0  0
    6.4790   -3.9540   24.2330 C   0  0  0  0  0  0  0  0  0  0  0  0
    5.4900   -3.5610   25.2470 C   0  0  0  0  0  0  0  0  0  0  0  0
    4.4350   -3.0770   24.8290 O   0  0  0  0  0  0  0  0  0  0  0  0
    5.7660   -3.7320   26.5980 N   0  0  0  0  0  0  0  0  0  0  0  0
    5.0530   -4.5390   27.5170 C   0  0  2  0  0  0  0  0  0  0  0  0
    4.6420   -3.9360   28.6940 C   0  0  0  0  0  0  0  0  0  0  0  0
    5.0290   -2.6360   29.0680 C   0  0  0  0  0  0  0  0  0  0  0  0
    4.5940   -2.0780   30.2440 C   0  0  0  0  0  0  0  0  0  0  0  0
    3.7000   -2.8530   31.1420 C   0  0  0  0  0  0  0  0  0  0  0  0
    3.1750   -2.3010   32.4690 C   0  0  0  0  0  0  0  0  0  0  0  0
    3.3460   -4.1050   30.7480 C   0  0  0  0  0  0  0  0  0  0  0  0
    3.8140   -4.6120   29.5570 C   0  0  0  0  0  0  0  0  0  0  0  0
    5.5470   -5.9210   27.7410 C   0  0  0  0  0  0  0  0  0  0  0  0
    6.0560   -5.0180   28.6100 C   0  0  0  0  0  0  0  0  0  0  0  0
    7.0680   -5.9300   28.1510 C   0  0  0  0  0  0  0  0  0  0  0  0
    5.8230   -5.0850   23.4940 C   0  0  0  0  0  0  0  0  0  0  0  0
    6.5750   -5.4550   22.2450 C   0  0  0  0  0  0  0  0  0  0  0  0
  1  2  1  0
  2  3  2  0
  2  4  1  0
  4  5  1  0
  5  6  1  0
  6  7  1  0
  7  8  1  0
  8  9  2  0
  8 10  1  0
 11 10  1  1
 11 12  1  0
 12 13  2  0
 13 14  1  0
 14 15  2  0
 15 16  1  0
 15 17  1  0
 12 18  1  0
 17 18  2  0
 11 19  1  0
 19 20  1  0
 19 21  1  0
 20 21  1  0
  7 22  1  0
  4 23  1  0
 22 23  1  0
M  END
