piperidine-amides-12782-covalent
     RDKit          3D

 22 23  0  0  0  0  0  0  0  0999 V2000
    7.1420   -3.2460   19.1780 C   0  0  0  0  0  0  0  0  0  0  0  0
    6.3730   -3.9860   20.2030 C   0  0  0  0  0  0  0  0  0  0  0  0
    5.2780   -4.4660   19.8520 O   0  0  0  0  0  0  0  0  0  0  0  0
    6.8970   -4.1830   21.4830 N   0  0  0  0  0  0  0  0  0  0  0  0
    7.6110   -3.1300   22.1330 C   0  0  0  0  0  0  0  0  0  0  0  0
    7.1760   -2.8440   23.4970 C   0  0  0  0  0  0  0  0  0  0  0  0
    6.4720   -3.9610   24.1670 C   0  0  0  0  0  0  0  0  0  0  0  0
    5.7320   -3.4740   25.3510 C   0  0  0  0  0  0  0  0  0  0  0  0
    5.2910   -2.3090   25.3660 O   0  0  0  0  0  0  0  0  0  0  0  0
    5.5030   -4.3330   26.4360 N   0  0  0  0  0  0  0  0  0  0  0  0
    6.0610   -4.1520   27.7870 C   0  0  0  0  0  0  0  0  0  0  0  0
    6.2600   -5.4800   28.4440 C   0  0  0  0  0  0  0  0  0  0  0  0
    5.4230   -5.7770   29.6000 C   0  0  0  0  0  0  0  0  0  0  0  0
    5.8950   -6.9100   30.3630 N   0  0  0  0  0  0  0  0  0  0  0  0
    5.2870   -7.4060   31.5300 C   0  0  0  0  0  0  0  0  0  0  0  0
    4.1560   -6.8040   32.0130 C   0  0  0  0  0  0  0  0  0  0  0  0
    3.6850   -5.7420   31.3140 C   0  0  0  0  0  0  0  0  0  0  0  0
    2.5200   -5.1850   31.8740 O   0  0  0  0  0  0  0  0  0  0  0  0
    1.3740   -4.9720   31.1070 C   0  0  0  0  0  0  0  0  0  0  0  0
    4.3050   -5.2390   30.1320 N   0  0  0  0  0  0  0  0  0  0  0  0
    5.6510   -4.8390   23.3000 C   0  0  0  0  0  0  0  0  0  0  0  0
    6.4500   -5.3050   22.2620 C   0  0  0  0  0  0  0  0  0  0  0  0
  1  2  1  0
  2  3  2  0
  2  4  1  0
  4  5  1  0
  5  6  1  0
  6  7  1  0
  7  8  1  0
  8  9  2  0
  8 10  1  0
 10 11  1  0
 11 12  1  0
 12 13  1  0
 13 14  2  0
 14 15  1  0
 15 16  2  0
 16 17  1  0
 17 18  1  0
 18 19  1  0
 13 20  1  0
 17 20  2  0
  7 21  1  0
  4 22  1  0
 21 22  1  0
M  END
