piperidine-amides-2919-covalent
     RDKit          3D

 24 25  0  0  0  0  0  0  0  0999 V2000
    7.1280   -3.3000   19.2280 C   0  0  0  0  0  0  0  0  0  0  0  0
    6.4020   -4.0760   20.2220 C   0  0  0  0  0  0  0  0  0  0  0  0
    5.3380   -4.6120   19.9210 O   0  0  0  0  0  0  0  0  0  0  0  0
    6.9660   -4.2700   21.5280 N   0  0  0  0  0  0  0  0  0  0  0  0
    6.5820   -5.4080   22.2970 C   0  0  0  0  0  0  0  0  0  0  0  0
    5.8300   -4.9580   23.5170 C   0  0  0  0  0  0  0  0  0  0  0  0
    6.3430   -3.6040   24.0230 C   0  0  0  0  0  0  0  0  0  0  0  0
    5.1930   -2.9650   24.7030 C   0  0  0  0  0  0  0  0  0  0  0  0
    4.1840   -3.6000   25.0410 O   0  0  0  0  0  0  0  0  0  0  0  0
    5.2290   -1.5820   24.9840 N   0  0  0  0  0  0  0  0  0  0  0  0
    4.8680   -1.2400   26.3280 C   0  0  0  0  0  0  0  0  0  0  0  0
    5.7250   -2.1660   27.0430 C   0  0  0  0  0  0  0  0  0  0  0  0
    5.4650   -3.5070   27.0350 C   0  0  0  0  0  0  0  0  0  0  0  0
    6.3020   -4.3900   27.6700 C   0  0  0  0  0  0  0  0  0  0  0  0
    5.8900   -6.2390   27.6190 Br  0  0  0  0  0  0  0  0  0  0  0  0
    7.4210   -3.9680   28.3310 C   0  0  0  0  0  0  0  0  0  0  0  0
    8.1350   -4.8060   28.8310 O   0  0  0  0  0  0  0  0  0  0  0  0
    8.7970   -5.7400   28.0710 C   0  0  0  0  0  0  0  0  0  0  0  0
    7.7060   -2.6390   28.4030 C   0  0  0  0  0  0  0  0  0  0  0  0
    8.7740   -2.1220   29.0760 O   0  0  0  0  0  0  0  0  0  0  0  0
    8.4310   -1.0580   29.9480 C   0  0  0  0  0  0  0  0  0  0  0  0
    6.7990   -1.7110   27.7090 C   0  0  0  0  0  0  0  0  0  0  0  0
    6.9210   -2.6550   23.0860 C   0  0  0  0  0  0  0  0  0  0  0  0
    7.7580   -3.2760   22.1910 C   0  0  0  0  0  0  0  0  0  0  0  0
  1  2  1  0
  2  3  2  0
  2  4  1  0
  4  5  1  0
  5  6  1  0
  6  7  1  0
  7  8  1  0
  8  9  2  0
  8 10  1  0
 10 11  1  0
 11 12  1  0
 12 13  2  0
 13 14  1  0
 14 15  1  0
 14 16  2  0
 16 17  1  0
 17 18  1  0
 16 19  1  0
 19 20  1  0
 20 21  1  0
 12 22  1  0
 19 22  2  0
  7 23  1  0
  4 24  1  0
 23 24  1  0
M  END
