piperidine-amides-33481-covalent
     RDKit          3D

 30 34  0  0  0  0  0  0  0  0999 V2000
    7.0930   -3.3530   19.2700 C   0  0  0  0  0  0  0  0  0  0  0  0
    6.4500   -4.1880   20.2960 C   0  0  0  0  0  0  0  0  0  0  0  0
    5.3840   -4.7690   19.9690 O   0  0  0  0  0  0  0  0  0  0  0  0
    7.0560   -4.3730   21.5620 N   0  0  0  0  0  0  0  0  0  0  0  0
    6.7600   -5.5770   22.2760 C   0  0  0  0  0  0  0  0  0  0  0  0
    6.1550   -5.2730   23.5460 C   0  0  0  0  0  0  0  0  0  0  0  0
    6.1380   -3.8240   23.7150 C   0  0  0  0  0  0  0  0  0  0  0  0
    5.5480   -3.4020   25.0000 C   0  0  0  0  0  0  0  0  0  0  0  0
    4.5410   -2.6760   24.9830 O   0  0  0  0  0  0  0  0  0  0  0  0
    6.0620   -3.7800   26.2280 N   0  0  0  0  0  0  0  0  0  0  0  0
    5.8980   -5.0280   26.8680 C   0  0  0  0  0  0  0  0  0  0  0  0
    6.0050   -4.6630   28.2210 C   0  0  2  0  0  0  0  0  0  0  0  0
    5.2330   -5.4270   29.2460 C   0  0  0  0  0  0  0  0  0  0  0  0
    4.0780   -4.7110   29.6330 C   0  0  0  0  0  0  0  0  0  0  0  0
    4.6900   -3.2530   29.4340 C   0  0  0  0  0  0  0  0  0  0  0  0
    5.0880   -3.5500   28.0810 C   0  0  2  0  0  0  0  0  0  0  0  0
    3.5970   -3.8870   27.8270 C   0  0  0  0  0  0  0  0  0  0  0  0
    2.5690   -3.0320   28.2670 N   0  0  0  0  0  0  0  0  0  0  0  0
    1.4310   -3.7380   27.8300 C   0  0  0  0  0  0  0  0  0  0  0  0
   -0.0120   -3.2960   28.0330 C   0  0  0  0  0  0  0  0  0  0  0  0
   -0.3270   -2.4520   29.2700 C   0  0  0  0  0  0  0  0  0  0  0  0
   -1.6080   -2.0770   29.4240 N   0  0  0  0  0  0  0  0  0  0  0  0
   -2.6700   -2.4480   28.4660 C   0  0  0  0  0  0  0  0  0  0  0  0
   -2.2920   -3.2230   27.3590 C   0  0  0  0  0  0  0  0  0  0  0  0
   -1.0370   -3.6380   27.1290 N   0  0  0  0  0  0  0  0  0  0  0  0
    1.7980   -4.8920   27.1890 N   0  0  0  0  0  0  0  0  0  0  0  0
    3.1090   -5.0070   27.1730 O   0  0  0  0  0  0  0  0  0  0  0  0
    5.8220   -2.7570   27.2440 C   0  0  0  0  0  0  0  0  0  0  0  0
    7.4960   -3.2460   23.5410 C   0  0  0  0  0  0  0  0  0  0  0  0
    7.8140   -3.2950   22.1890 C   0  0  0  0  0  0  0  0  0  0  0  0
  1  2  1  0
  2  3  2  0
  2  4  1  0
  4  5  1  0
  5  6  1  0
  6  7  1  0
  7  8  1  0
  8  9  2  0
  8 10  1  0
 10 11  1  0
 12 11  1  6
 12 13  1  0
 13 14  1  0
 14 15  1  0
 12 16  1  0
 15 16  1  0
 16 17  1  6
 17 18  2  0
 18 19  1  0
 19 20  1  0
 20 21  2  0
 21 22  1  0
 22 23  2  0
 23 24  1  0
 20 25  1  0
 24 25  2  0
 19 26  2  0
 17 27  1  0
 26 27  1  0
 10 28  1  0
 16 28  1  0
  7 29  1  0
  4 30  1  0
 29 30  1  0
M  END
