piperidine-amides-27813-covalent
     RDKit          3D

 25 25  0  0  0  0  0  0  0  0999 V2000
    7.0930   -3.2720   19.1220 C   0  0  0  0  0  0  0  0  0  0  0  0
    6.3410   -3.9870   20.1780 C   0  0  0  0  0  0  0  0  0  0  0  0
    5.2480   -4.4800   19.8490 O   0  0  0  0  0  0  0  0  0  0  0  0
    6.8630   -4.1470   21.4650 N   0  0  0  0  0  0  0  0  0  0  0  0
    7.6150   -3.1010   22.0770 C   0  0  0  0  0  0  0  0  0  0  0  0
    7.1950   -2.7450   23.4310 C   0  0  0  0  0  0  0  0  0  0  0  0
    6.6260   -3.8470   24.2490 C   0  0  0  0  0  0  0  0  0  0  0  0
    5.8200   -3.2700   25.3530 C   0  0  0  0  0  0  0  0  0  0  0  0
    4.6240   -2.9950   25.1240 O   0  0  0  0  0  0  0  0  0  0  0  0
    6.3720   -3.0450   26.6350 N   0  0  0  0  0  0  0  0  0  0  0  0
    6.2160   -4.0830   27.6820 C   0  0  0  0  0  0  0  0  0  0  0  0
    7.4750   -4.3740   28.3990 C   0  0  0  0  0  0  0  0  0  0  0  0
    8.4860   -4.7680   27.8010 O   0  0  0  0  0  0  0  0  0  0  0  0
    8.3620   -4.7930   26.5190 C   0  0  0  0  0  0  0  0  0  0  0  0
    9.1550   -5.5200   25.7190 C   0  0  0  0  0  0  0  0  0  0  0  0
    9.7950   -6.5450   26.3060 O   0  0  0  0  0  0  0  0  0  0  0  0
    6.5520   -1.6700   27.1120 C   0  0  0  0  0  0  0  0  0  0  0  0
    5.7920   -1.4240   28.2250 C   0  0  0  0  0  0  0  0  0  0  0  0
    5.2050   -0.1440   28.3630 N   0  0  0  0  0  0  0  0  0  0  0  0
    5.3130    0.4640   29.6520 C   0  0  0  0  0  0  0  0  0  0  0  0
    5.3420   -0.5270   30.5980 C   0  0  0  0  0  0  0  0  0  0  0  0
    3.9540   -0.1600   27.6870 C   0  0  0  0  0  0  0  0  0  0  0  0
    3.5390    1.2150   27.3270 C   0  0  0  0  0  0  0  0  0  0  0  0
    5.7910   -4.8330   23.4950 C   0  0  0  0  0  0  0  0  0  0  0  0
    6.5160   -5.2910   22.2680 C   0  0  0  0  0  0  0  0  0  0  0  0
  1  2  1  0
  2  3  2  0
  2  4  1  0
  4  5  1  0
  5  6  1  0
  6  7  1  0
  7  8  1  0
  8  9  2  0
  8 10  1  0
 10 11  1  0
 11 12  1  0
 12 13  1  0
 13 14  1  0
 14 15  1  0
 15 16  1  0
 10 17  1  0
 17 18  1  0
 18 19  1  0
 19 20  1  0
 20 21  1  0
 19 22  1  0
 22 23  1  0
  7 24  1  0
  4 25  1  0
 24 25  1  0
M  END
