piperidine-amides-33492-covalent
     RDKit          3D

 30 33  0  0  0  0  0  0  0  0999 V2000
    7.0750   -3.3540   19.3370 C   0  0  0  0  0  0  0  0  0  0  0  0
    6.4390   -4.2030   20.3560 C   0  0  0  0  0  0  0  0  0  0  0  0
    5.4200   -4.8480   19.9910 O   0  0  0  0  0  0  0  0  0  0  0  0
    6.9940   -4.3210   21.6630 N   0  0  0  0  0  0  0  0  0  0  0  0
    6.6300   -5.4390   22.4700 C   0  0  0  0  0  0  0  0  0  0  0  0
    6.1380   -5.0440   23.7850 C   0  0  0  0  0  0  0  0  0  0  0  0
    6.1680   -3.5840   23.9530 C   0  0  0  0  0  0  0  0  0  0  0  0
    5.5670   -3.0580   25.2260 C   0  0  0  0  0  0  0  0  0  0  0  0
    4.4330   -2.5610   25.1290 O   0  0  0  0  0  0  0  0  0  0  0  0
    6.1670   -3.0800   26.5050 N   0  0  0  0  0  0  0  0  0  0  0  0
    5.9770   -4.1570   27.4170 C   0  0  0  0  0  0  0  0  0  0  0  0
    4.6680   -4.3920   28.0460 C   0  0  0  0  0  0  0  0  0  0  0  0
    3.5730   -4.0980   27.0080 C   0  0  0  0  0  0  0  0  0  0  0  0
    2.3310   -4.4590   27.4820 C   0  0  0  0  0  0  0  0  0  0  0  0
    2.0820   -3.8380   28.6800 O   0  0  0  0  0  0  0  0  0  0  0  0
    3.0020   -2.8340   28.9310 C   0  0  0  0  0  0  0  0  0  0  0  0
    4.3460   -3.4630   29.1690 C   0  0  0  0  0  0  0  0  0  0  0  0
    6.2710   -1.7840   27.1530 C   0  0  0  0  0  0  0  0  0  0  0  0
    6.9730   -1.8150   28.4810 C   0  0  0  0  0  0  0  0  0  0  0  0
    7.0920   -0.5060   29.2020 C   0  0  0  0  0  0  0  0  0  0  0  0
    6.5130    0.7590   28.5740 C   0  0  0  0  0  0  0  0  0  0  0  0
    5.8370    0.6810   27.2430 C   0  0  0  0  0  0  0  0  0  0  0  0
    5.2450    1.7460   26.5090 N   0  0  0  0  0  0  0  0  0  0  0  0
    4.4570    1.5870   25.3210 C   0  0  0  0  0  0  0  0  0  0  0  0
    4.0460    2.7690   24.8720 C   0  0  0  0  0  0  0  0  0  0  0  0
    4.5850    3.7600   25.8030 C   0  0  0  0  0  0  0  0  0  0  0  0
    5.2950    3.1040   26.7650 N   0  0  0  0  0  0  0  0  0  0  0  0
    5.7730   -0.5880   26.6410 C   0  0  0  0  0  0  0  0  0  0  0  0
    7.5730   -3.1190   23.6990 C   0  0  0  0  0  0  0  0  0  0  0  0
    7.7820   -3.2130   22.1960 C   0  0  0  0  0  0  0  0  0  0  0  0
  1  2  1  0
  2  3  2  0
  2  4  1  0
  4  5  1  0
  5  6  1  0
  6  7  1  0
  7  8  1  0
  8  9  2  0
  8 10  1  0
 10 11  1  0
 11 12  1  0
 12 13  1  0
 13 14  1  0
 14 15  1  0
 15 16  1  0
 12 17  1  0
 16 17  1  0
 10 18  1  0
 18 19  2  0
 19 20  1  0
 20 21  2  0
 21 22  1  0
 22 23  1  0
 23 24  1  0
 24 25  2  0
 25 26  1  0
 23 27  1  0
 26 27  2  0
 18 28  1  0
 22 28  2  0
  7 29  1  0
  4 30  1  0
 29 30  1  0
M  END
