piperidine-amides-23492-covalent
     RDKit          3D

 24 26  0  0  0  0  0  0  0  0999 V2000
    7.0000   -3.3890   19.4160 C   0  0  0  0  0  0  0  0  0  0  0  0
    6.3710   -4.2640   20.4220 C   0  0  0  0  0  0  0  0  0  0  0  0
    5.4080   -4.9570   20.0110 O   0  0  0  0  0  0  0  0  0  0  0  0
    6.8590   -4.3510   21.7650 N   0  0  0  0  0  0  0  0  0  0  0  0
    6.5190   -5.4950   22.5520 C   0  0  0  0  0  0  0  0  0  0  0  0
    5.9480   -5.1400   23.8510 C   0  0  0  0  0  0  0  0  0  0  0  0
    6.0350   -3.6890   24.0790 C   0  0  0  0  0  0  0  0  0  0  0  0
    5.3920   -3.1360   25.3540 C   0  0  0  0  0  0  0  0  0  0  0  0
    4.9010   -2.0030   25.2710 O   0  0  0  0  0  0  0  0  0  0  0  0
    5.2640   -3.7720   26.6310 N   0  0  0  0  0  0  0  0  0  0  0  0
    6.1310   -4.6640   27.1600 C   0  0  0  0  0  0  0  0  0  0  0  0
    5.8730   -5.3570   28.3810 C   0  0  0  0  0  0  0  0  0  0  0  0
    4.9570   -4.8730   29.2120 N   0  0  0  0  0  0  0  0  0  0  0  0
    4.4990   -5.5480   30.3940 C   0  0  0  0  0  0  0  0  0  0  0  0
    5.3830   -6.5240   30.8580 C   0  0  0  0  0  0  0  0  0  0  0  0
    4.6670   -7.0400   32.1020 C   0  0  0  0  0  0  0  0  0  0  0  0
    5.4930   -8.0970   32.7450 C   0  0  0  0  0  0  0  0  0  0  0  0
    3.3110   -6.5230   32.5850 C   0  0  0  0  0  0  0  0  0  0  0  0
    2.5920   -5.4460   31.8420 C   0  0  0  0  0  0  0  0  0  0  0  0
    3.2880   -5.0260   30.7490 N   0  0  0  0  0  0  0  0  0  0  0  0
    4.7720   -3.5530   29.1170 C   0  0  0  0  0  0  0  0  0  0  0  0
    4.6190   -3.0140   27.6670 C   0  0  0  0  0  0  0  0  0  0  0  0
    7.4440   -3.2560   23.7960 C   0  0  0  0  0  0  0  0  0  0  0  0
    7.5300   -3.2080   22.3890 C   0  0  0  0  0  0  0  0  0  0  0  0
  1  2  1  0
  2  3  2  0
  2  4  1  0
  4  5  1  0
  5  6  1  0
  6  7  1  0
  7  8  1  0
  8  9  2  0
  8 10  1  0
 10 11  1  0
 11 12  1  0
 12 13  1  0
 13 14  1  0
 14 15  2  0
 15 16  1  0
 16 17  1  0
 16 18  2  0
 18 19  1  0
 14 20  1  0
 19 20  2  0
 13 21  1  0
 10 22  1  0
 21 22  1  0
  7 23  1  0
  4 24  1  0
 23 24  1  0
M  END
