piperidine-amides-21496-covalent
     RDKit          3D

 23 25  0  0  0  0  0  0  0  0999 V2000
    7.0520   -3.3050   19.2550 C   0  0  0  0  0  0  0  0  0  0  0  0
    6.3190   -4.0690   20.2740 C   0  0  0  0  0  0  0  0  0  0  0  0
    5.2690   -4.6480   19.9060 O   0  0  0  0  0  0  0  0  0  0  0  0
    6.8040   -4.1650   21.5760 N   0  0  0  0  0  0  0  0  0  0  0  0
    7.6830   -3.1410   22.1050 C   0  0  0  0  0  0  0  0  0  0  0  0
    7.1850   -2.7020   23.4410 C   0  0  0  0  0  0  0  0  0  0  0  0
    6.8430   -3.8790   24.3010 C   0  0  0  0  0  0  0  0  0  0  0  0
    6.1450   -3.3890   25.5040 C   0  0  0  0  0  0  0  0  0  0  0  0
    4.8980   -3.2390   25.4650 O   0  0  0  0  0  0  0  0  0  0  0  0
    6.8490   -3.0790   26.6840 N   0  0  0  0  0  0  0  0  0  0  0  0
    6.6930   -1.7930   27.3290 C   0  0  0  0  0  0  0  0  0  0  0  0
    5.9390   -0.6700   26.6360 C   0  0  0  0  0  0  0  0  0  0  0  0
    5.7810    0.5550   27.2540 C   0  0  0  0  0  0  0  0  0  0  0  0
    6.3070    0.7800   28.5190 C   0  0  0  0  0  0  0  0  0  0  0  0
    6.1640    1.9720   29.1470 F   0  0  0  0  0  0  0  0  0  0  0  0
    7.0020   -0.2440   29.1620 C   0  0  0  0  0  0  0  0  0  0  0  0
    7.1870   -1.4820   28.5840 C   0  0  0  0  0  0  0  0  0  0  0  0
    7.4520   -4.0820   27.5090 C   0  0  0  0  0  0  0  0  0  0  0  0
    6.4610   -4.7860   28.3940 C   0  0  0  0  0  0  0  0  0  0  0  0
    7.2120   -5.9110   27.7540 C   0  0  0  0  0  0  0  0  0  0  0  0
    8.1220   -5.1220   26.8320 C   0  0  0  0  0  0  0  0  0  0  0  0
    5.9560   -4.8560   23.5750 C   0  0  0  0  0  0  0  0  0  0  0  0
    6.5310   -5.3370   22.4180 C   0  0  0  0  0  0  0  0  0  0  0  0
  1  2  1  0
  2  3  2  0
  2  4  1  0
  4  5  1  0
  5  6  1  0
  6  7  1  0
  7  8  1  0
  8  9  2  0
  8 10  1  0
 10 11  1  0
 11 12  2  0
 12 13  1  0
 13 14  2  0
 14 15  1  0
 14 16  1  0
 11 17  1  0
 16 17  2  0
 10 18  1  0
 18 19  1  0
 19 20  1  0
 18 21  1  0
 20 21  1  0
  7 22  1  0
  4 23  1  0
 22 23  1  0
M  END
