piperidine-amides-5394-covalent
     RDKit          3D

 20 21  0  0  0  0  0  0  0  0999 V2000
    7.1470   -3.2660   19.1360 C   0  0  0  0  0  0  0  0  0  0  0  0
    6.3800   -3.9840   20.1560 C   0  0  0  0  0  0  0  0  0  0  0  0
    5.2870   -4.4960   19.8600 O   0  0  0  0  0  0  0  0  0  0  0  0
    6.8840   -4.1560   21.4440 N   0  0  0  0  0  0  0  0  0  0  0  0
    7.7780   -3.1910   22.0450 C   0  0  0  0  0  0  0  0  0  0  0  0
    7.0260   -2.6370   23.2090 C   0  0  0  0  0  0  0  0  0  0  0  0
    6.4910   -3.7360   24.0650 C   0  0  0  0  0  0  0  0  0  0  0  0
    5.7720   -3.2060   25.2320 C   0  0  0  0  0  0  0  0  0  0  0  0
    4.5100   -3.0740   25.2220 O   0  0  0  0  0  0  0  0  0  0  0  0
    6.4550   -2.8310   26.3920 N   0  0  0  0  0  0  0  0  0  0  0  0
    6.2550   -3.6420   27.5950 C   0  0  0  0  0  0  0  0  0  0  0  0
    7.4380   -4.4750   27.8020 C   0  0  0  0  0  0  0  0  0  0  0  0
    7.2260   -5.5820   28.7360 C   0  0  0  0  0  0  0  0  0  0  0  0
    8.5810   -3.6370   28.3100 C   0  0  0  0  0  0  0  0  0  0  0  0
    7.9770   -5.2090   26.6540 C   0  0  0  0  0  0  0  0  0  0  0  0
    8.8470   -4.4250   25.8140 C   0  0  0  0  0  0  0  0  0  0  0  0
    9.7870   -5.1650   26.3700 C   0  0  0  0  0  0  0  0  0  0  0  0
    9.0020   -6.0710   27.1000 C   0  0  0  0  0  0  0  0  0  0  0  0
    5.5720   -4.7150   23.3190 C   0  0  0  0  0  0  0  0  0  0  0  0
    6.4430   -5.2990   22.2040 C   0  0  0  0  0  0  0  0  0  0  0  0
  1  2  1  0
  2  3  2  0
  2  4  1  0
  4  5  1  0
  5  6  1  0
  6  7  1  0
  7  8  1  0
  8  9  2  0
  8 10  1  0
 10 11  1  0
 12 11  1  0
 12 13  1  0
 12 14  1  0
 12 15  1  0
 15 16  1  0
 16 17  1  0
 15 18  1  0
 17 18  1  0
  7 19  1  0
  4 20  1  0
 19 20  1  0
M  END
