piperidine-amides-28129-covalent
     RDKit          3D

 26 27  0  0  0  0  0  0  0  0999 V2000
    7.1390   -3.3100   19.1940 C   0  0  0  0  0  0  0  0  0  0  0  0
    6.3610   -4.0290   20.2220 C   0  0  0  0  0  0  0  0  0  0  0  0
    5.2610   -4.4940   19.8670 O   0  0  0  0  0  0  0  0  0  0  0  0
    6.8850   -4.2240   21.4980 N   0  0  0  0  0  0  0  0  0  0  0  0
    6.4950   -5.3440   22.2800 C   0  0  0  0  0  0  0  0  0  0  0  0
    5.9820   -4.9990   23.6110 C   0  0  0  0  0  0  0  0  0  0  0  0
    6.5720   -3.7870   24.2380 C   0  0  0  0  0  0  0  0  0  0  0  0
    5.7320   -3.3760   25.3800 C   0  0  0  0  0  0  0  0  0  0  0  0
    4.5390   -3.0830   25.1580 O   0  0  0  0  0  0  0  0  0  0  0  0
    6.2570   -3.3100   26.6790 N   0  0  0  0  0  0  0  0  0  0  0  0
    6.7550   -4.5380   27.3550 C   0  0  0  0  0  0  0  0  0  0  0  0
    5.7870   -5.6570   27.3430 C   0  0  0  0  0  0  0  0  0  0  0  0
    4.8200   -5.8240   28.3650 N   0  0  0  0  0  0  0  0  0  0  0  0
    4.8000   -7.0910   29.0550 C   0  0  0  0  0  0  0  0  0  0  0  0
    5.9910   -7.2030   29.7380 C   0  0  0  0  0  0  0  0  0  0  0  0
    4.1420   -4.6510   28.8910 C   0  0  0  0  0  0  0  0  0  0  0  0
    3.2520   -4.9520   29.8730 C   0  0  0  0  0  0  0  0  0  0  0  0
    6.4460   -2.0060   27.2980 C   0  0  0  0  0  0  0  0  0  0  0  0
    5.4030   -1.2050   26.9300 C   0  0  0  0  0  0  0  0  0  0  0  0
    5.6120   -0.2310   25.9390 C   0  0  0  0  0  0  0  0  0  0  0  0
    4.5950    0.7190   25.4200 C   0  0  0  0  0  0  0  0  0  0  0  0
    3.2310    0.5880   26.0440 C   0  0  0  0  0  0  0  0  0  0  0  0
    3.1230   -0.4820   27.0890 C   0  0  0  0  0  0  0  0  0  0  0  0
    4.1660   -1.3310   27.5030 C   0  0  0  0  0  0  0  0  0  0  0  0
    6.9120   -2.7320   23.2890 C   0  0  0  0  0  0  0  0  0  0  0  0
    7.7200   -3.2300   22.1590 C   0  0  0  0  0  0  0  0  0  0  0  0
  1  2  1  0
  2  3  2  0
  2  4  1  0
  4  5  1  0
  5  6  1  0
  6  7  1  0
  7  8  1  0
  8  9  2  0
  8 10  1  0
 10 11  1  0
 11 12  1  0
 12 13  1  0
 13 14  1  0
 14 15  1  0
 13 16  1  0
 16 17  1  0
 10 18  1  0
 18 19  1  0
 19 20  2  0
 20 21  1  0
 21 22  2  0
 22 23  1  0
 19 24  1  0
 23 24  2  0
  7 25  1  0
  4 26  1  0
 25 26  1  0
M  END
