piperidine-amides-30992-covalent
     RDKit          3D

 27 29  0  0  0  0  0  0  0  0999 V2000
    7.1330   -3.3440   19.2790 C   0  0  0  0  0  0  0  0  0  0  0  0
    6.4460   -4.1650   20.2700 C   0  0  0  0  0  0  0  0  0  0  0  0
    5.3900   -4.7510   19.9640 O   0  0  0  0  0  0  0  0  0  0  0  0
    7.0090   -4.3420   21.5400 N   0  0  0  0  0  0  0  0  0  0  0  0
    7.7860   -3.2930   22.1470 C   0  0  0  0  0  0  0  0  0  0  0  0
    6.9240   -2.7860   23.2520 C   0  0  0  0  0  0  0  0  0  0  0  0
    6.5800   -3.8840   24.2040 C   0  0  0  0  0  0  0  0  0  0  0  0
    5.8180   -3.3450   25.3440 C   0  0  0  0  0  0  0  0  0  0  0  0
    4.9850   -2.4150   25.1660 O   0  0  0  0  0  0  0  0  0  0  0  0
    5.9410   -3.8250   26.6490 N   0  0  0  0  0  0  0  0  0  0  0  0
    6.3840   -2.9270   27.6940 C   0  0  0  0  0  0  0  0  0  0  0  0
    6.6740   -3.7890   28.8540 C   0  0  0  0  0  0  0  0  0  0  0  0
    6.0840   -4.8870   28.9640 O   0  0  0  0  0  0  0  0  0  0  0  0
    4.8440   -4.9290   28.4710 C   0  0  2  0  0  0  0  0  0  0  0  0
    3.8240   -6.0120   28.7680 C   0  0  0  0  0  0  0  0  0  0  0  0
    3.2860   -6.0220   30.2000 C   0  0  0  0  0  0  0  0  0  0  0  0
    3.7460   -5.0550   31.1520 F   0  0  0  0  0  0  0  0  0  0  0  0
    2.2780   -7.0710   30.5240 C   0  0  0  0  0  0  0  0  0  0  0  0
    1.8480   -7.9770   29.6060 C   0  0  0  0  0  0  0  0  0  0  0  0
    0.9150   -8.8730   30.0710 F   0  0  0  0  0  0  0  0  0  0  0  0
    2.3620   -7.9290   28.3200 C   0  0  0  0  0  0  0  0  0  0  0  0
    3.3870   -6.9340   27.8350 C   0  0  0  0  0  0  0  0  0  0  0  0
    3.7530   -7.0260   26.6310 O   0  0  0  0  0  0  0  0  0  0  0  0
    3.1150   -7.8000   25.6630 C   0  0  0  0  0  0  0  0  0  0  0  0
    4.8900   -4.7290   27.0090 C   0  0  0  0  0  0  0  0  0  0  0  0
    5.8520   -5.0040   23.5140 C   0  0  0  0  0  0  0  0  0  0  0  0
    6.5540   -5.4590   22.2940 C   0  0  0  0  0  0  0  0  0  0  0  0
  1  2  1  0
  2  3  2  0
  2  4  1  0
  4  5  1  0
  5  6  1  0
  6  7  1  0
  7  8  1  0
  8  9  2  0
  8 10  1  0
 10 11  1  0
 11 12  1  0
 12 13  1  0
 13 14  1  0
 14 15  1  6
 15 16  2  0
 16 17  1  0
 16 18  1  0
 18 19  2  0
 19 20  1  0
 19 21  1  0
 15 22  1  0
 21 22  2  0
 22 23  1  0
 23 24  1  0
 10 25  1  0
 14 25  1  0
  7 26  1  0
  4 27  1  0
 26 27  1  0
M  END
