piperidine-amides-6743-covalent
     RDKit          3D

 23 25  0  0  0  0  0  0  0  0999 V2000
    7.0460   -3.3200   19.3680 C   0  0  0  0  0  0  0  0  0  0  0  0
    6.3680   -4.1830   20.3520 C   0  0  0  0  0  0  0  0  0  0  0  0
    5.4080   -4.9030   19.9930 O   0  0  0  0  0  0  0  0  0  0  0  0
    6.8070   -4.2340   21.6860 N   0  0  0  0  0  0  0  0  0  0  0  0
    7.6740   -3.1830   22.1950 C   0  0  0  0  0  0  0  0  0  0  0  0
    7.4580   -3.0700   23.7110 C   0  0  0  0  0  0  0  0  0  0  0  0
    6.0590   -3.5790   23.9530 C   0  0  0  0  0  0  0  0  0  0  0  0
    5.5340   -3.2820   25.3080 C   0  0  0  0  0  0  0  0  0  0  0  0
    4.2940   -3.3010   25.4530 O   0  0  0  0  0  0  0  0  0  0  0  0
    6.3840   -2.9930   26.4000 N   0  0  0  0  0  0  0  0  0  0  0  0
    6.8160   -1.6460   26.6570 C   0  0  1  0  0  0  0  0  0  0  0  0
    5.7170   -0.6590   26.3470 C   0  0  0  0  0  0  0  0  0  0  0  0
    5.5700    0.2730   27.4130 C   0  0  0  0  0  0  0  0  0  0  0  0
    4.2410    0.2710   27.8100 C   0  0  0  0  0  0  0  0  0  0  0  0
    6.1160    1.4840   27.0310 C   0  0  0  0  0  0  0  0  0  0  0  0
    6.5090   -0.1520   28.4330 C   0  0  0  0  0  0  0  0  0  0  0  0
    6.9090    0.2190   29.7290 C   0  0  0  0  0  0  0  0  0  0  0  0
    5.9750    1.2410   29.6500 C   0  0  0  0  0  0  0  0  0  0  0  0
    5.2620    1.1710   28.2630 C   0  0  0  0  0  0  0  0  0  0  0  0
    5.9450   -0.1100   27.4880 C   0  0  0  0  0  0  0  0  0  0  0  0
    7.0040   -1.0980   27.8510 C   0  0  0  0  0  0  0  0  0  0  0  0
    6.0790   -5.0920   23.7850 C   0  0  0  0  0  0  0  0  0  0  0  0
    6.6630   -5.4600   22.4410 C   0  0  0  0  0  0  0  0  0  0  0  0
  1  2  1  0
  2  3  2  0
  2  4  1  0
  4  5  1  0
  5  6  1  0
  6  7  1  0
  7  8  1  0
  8  9  2  0
  8 10  1  0
 11 10  1  1
 11 12  1  0
 12 13  1  0
 13 14  1  0
 13 15  1  0
 13 16  1  0
 16 17  1  0
 17 18  2  0
 18 19  1  0
 19 20  2  0
 11 21  1  0
 16 21  2  0
 20 21  1  0
  7 22  1  0
  4 23  1  0
 22 23  1  0
M  END
