piperidine-amides-32251-covalent
     RDKit          3D

 29 31  0  0  0  0  0  0  0  0999 V2000
    7.1340   -3.3070   19.2880 C   0  0  0  0  0  0  0  0  0  0  0  0
    6.3410   -4.0870   20.2730 C   0  0  0  0  0  0  0  0  0  0  0  0
    5.2660   -4.5960   19.9050 O   0  0  0  0  0  0  0  0  0  0  0  0
    6.8540   -4.2740   21.5780 N   0  0  0  0  0  0  0  0  0  0  0  0
    6.5110   -5.4320   22.3700 C   0  0  0  0  0  0  0  0  0  0  0  0
    6.6070   -5.0140   23.8510 C   0  0  0  0  0  0  0  0  0  0  0  0
    6.0180   -3.6460   23.9990 C   0  0  0  0  0  0  0  0  0  0  0  0
    5.5150   -3.3490   25.3600 C   0  0  0  0  0  0  0  0  0  0  0  0
    4.3020   -3.1260   25.4360 O   0  0  0  0  0  0  0  0  0  0  0  0
    6.3620   -3.3150   26.4780 N   0  0  0  0  0  0  0  0  0  0  0  0
    6.5920   -2.1040   27.1960 C   0  0  0  0  0  0  0  0  0  0  0  0
    6.6870   -4.5360   27.1640 C   0  0  0  0  0  0  0  0  0  0  0  0
    5.7720   -5.5840   27.0990 C   0  0  0  0  0  0  0  0  0  0  0  0
    5.3180   -6.2330   28.2260 C   0  0  0  0  0  0  0  0  0  0  0  0
    4.0930   -7.0600   28.1730 C   0  0  0  0  0  0  0  0  0  0  0  0
    3.5630   -7.7880   29.3990 C   0  0  0  0  0  0  0  0  0  0  0  0
    4.4090   -7.5780   30.6460 C   0  0  0  0  0  0  0  0  0  0  0  0
    5.5580   -6.8150   30.7320 C   0  0  0  0  0  0  0  0  0  0  0  0
    6.1010   -6.8150   32.0020 O   0  0  0  0  0  0  0  0  0  0  0  0
    5.3650   -7.2700   33.1160 C   0  0  0  0  0  0  0  0  0  0  0  0
    4.0480   -6.5270   33.3400 C   0  0  0  0  0  0  0  0  0  0  0  0
    3.6750   -5.6680   32.2600 C   0  0  0  0  0  0  0  0  0  0  0  0
    2.3350   -5.1080   32.8370 C   0  0  0  0  0  0  0  0  0  0  0  0
    1.6100   -5.3520   34.1110 C   0  0  0  0  0  0  0  0  0  0  0  0
    2.2060   -6.2920   35.0720 C   0  0  0  0  0  0  0  0  0  0  0  0
    3.4710   -6.8550   34.5940 C   0  0  0  0  0  0  0  0  0  0  0  0
    6.0160   -6.1150   29.4410 C   0  0  0  0  0  0  0  0  0  0  0  0
    6.8310   -2.5760   23.3510 C   0  0  0  0  0  0  0  0  0  0  0  0
    7.5440   -3.1810   22.1810 C   0  0  0  0  0  0  0  0  0  0  0  0
  1  2  1  0
  2  3  2  0
  2  4  1  0
  4  5  1  0
  5  6  1  0
  6  7  1  0
  7  8  1  0
  8  9  2  0
  8 10  1  0
 10 11  1  0
 10 12  1  0
 12 13  1  0
 13 14  1  0
 14 15  2  0
 15 16  1  0
 16 17  2  0
 17 18  1  0
 18 19  1  0
 19 20  1  0
 20 21  1  0
 21 22  2  0
 22 23  1  0
 23 24  2  0
 24 25  1  0
 21 26  1  0
 25 26  2  0
 14 27  1  0
 18 27  2  0
  7 28  1  0
  4 29  1  0
 28 29  1  0
M  END
