piperidine-amides-12357-covalent
     RDKit          3D

 24 26  0  0  0  0  0  0  0  0999 V2000
    7.0620   -3.3520   19.2810 C   0  0  0  0  0  0  0  0  0  0  0  0
    6.3820   -4.1710   20.2790 C   0  0  0  0  0  0  0  0  0  0  0  0
    5.3660   -4.7880   19.9690 O   0  0  0  0  0  0  0  0  0  0  0  0
    6.9300   -4.3050   21.6010 N   0  0  0  0  0  0  0  0  0  0  0  0
    7.7300   -3.2480   22.1660 C   0  0  0  0  0  0  0  0  0  0  0  0
    7.0430   -2.6740   23.3610 C   0  0  0  0  0  0  0  0  0  0  0  0
    6.5180   -3.8230   24.1940 C   0  0  0  0  0  0  0  0  0  0  0  0
    5.7410   -3.2650   25.3270 C   0  0  0  0  0  0  0  0  0  0  0  0
    4.4980   -3.1610   25.3060 O   0  0  0  0  0  0  0  0  0  0  0  0
    6.4540   -2.8330   26.4600 N   0  0  0  0  0  0  0  0  0  0  0  0
    6.3300   -1.4650   26.9150 C   0  0  0  0  0  0  0  0  0  0  0  0
    6.3490   -0.3790   25.9030 C   0  0  0  0  0  0  0  0  0  0  0  0
    6.2390    0.9410   26.3170 C   0  0  0  0  0  0  0  0  0  0  0  0
    6.1120    1.2530   27.6790 C   0  0  0  0  0  0  0  0  0  0  0  0
    6.0080    2.5980   28.0580 O   0  0  0  0  0  0  0  0  0  0  0  0
    4.8220    3.0590   28.6720 C   0  0  0  0  0  0  0  0  0  0  0  0
    6.0790    0.2800   28.6310 C   0  0  0  0  0  0  0  0  0  0  0  0
    5.9390    0.5300   29.9670 C   0  0  0  0  0  0  0  0  0  0  0  0
    5.8830   -0.4180   30.9360 C   0  0  0  0  0  0  0  0  0  0  0  0
    5.9760   -1.7650   30.5830 N   0  0  0  0  0  0  0  0  0  0  0  0
    6.1280   -2.0360   29.2890 C   0  0  0  0  0  0  0  0  0  0  0  0
    6.1880   -1.0790   28.2240 C   0  0  0  0  0  0  0  0  0  0  0  0
    5.6990   -4.8460   23.4230 C   0  0  0  0  0  0  0  0  0  0  0  0
    6.5310   -5.3890   22.4500 C   0  0  0  0  0  0  0  0  0  0  0  0
  1  2  1  0
  2  3  2  0
  2  4  1  0
  4  5  1  0
  5  6  1  0
  6  7  1  0
  7  8  1  0
  8  9  2  0
  8 10  1  0
 10 11  1  0
 11 12  2  0
 12 13  1  0
 13 14  2  0
 14 15  1  0
 15 16  1  0
 14 17  1  0
 17 18  1  0
 18 19  2  0
 19 20  1  0
 20 21  2  0
 11 22  1  0
 17 22  2  0
 21 22  1  0
  7 23  1  0
  4 24  1  0
 23 24  1  0
M  END
