piperidine-amides-4657-covalent
     RDKit          3D

 24 26  0  0  0  0  0  0  0  0999 V2000
    7.0750   -3.3580   19.3000 C   0  0  0  0  0  0  0  0  0  0  0  0
    6.3820   -4.1560   20.3330 C   0  0  0  0  0  0  0  0  0  0  0  0
    5.3480   -4.7490   19.9610 O   0  0  0  0  0  0  0  0  0  0  0  0
    6.9010   -4.2840   21.6380 N   0  0  0  0  0  0  0  0  0  0  0  0
    7.6860   -3.2370   22.2250 C   0  0  0  0  0  0  0  0  0  0  0  0
    7.3230   -2.9710   23.6110 C   0  0  0  0  0  0  0  0  0  0  0  0
    6.0800   -3.6650   23.9740 C   0  0  0  0  0  0  0  0  0  0  0  0
    5.6070   -3.3230   25.3370 C   0  0  0  0  0  0  0  0  0  0  0  0
    4.3950   -3.4890   25.5590 O   0  0  0  0  0  0  0  0  0  0  0  0
    6.4300   -2.8100   26.3540 N   0  0  0  0  0  0  0  0  0  0  0  0
    5.8460   -1.8660   27.3310 C   0  0  0  0  0  0  0  0  0  0  0  0
    5.2530   -2.4040   28.5950 C   0  0  0  0  0  0  0  0  0  0  0  0
    5.1890   -3.8530   28.7560 C   0  0  0  0  0  0  0  0  0  0  0  0
    6.3260   -4.6240   28.7620 C   0  0  0  0  0  0  0  0  0  0  0  0
    6.2940   -5.9970   28.9110 C   0  0  0  0  0  0  0  0  0  0  0  0
    5.0820   -6.6040   29.0580 C   0  0  0  0  0  0  0  0  0  0  0  0
    4.9790   -7.9590   29.2170 F   0  0  0  0  0  0  0  0  0  0  0  0
    3.9440   -5.8580   29.0540 C   0  0  0  0  0  0  0  0  0  0  0  0
    3.9860   -4.5060   28.9070 C   0  0  0  0  0  0  0  0  0  0  0  0
    2.7700   -3.8450   28.9180 F   0  0  0  0  0  0  0  0  0  0  0  0
    6.0620   -0.3320   27.0690 C   0  0  0  0  0  0  0  0  0  0  0  0
    6.9590   -0.9350   27.8670 C   0  0  0  0  0  0  0  0  0  0  0  0
    6.1230   -5.1420   23.7790 C   0  0  0  0  0  0  0  0  0  0  0  0
    6.6770   -5.4880   22.4180 C   0  0  0  0  0  0  0  0  0  0  0  0
  1  2  1  0
  2  3  2  0
  2  4  1  0
  4  5  1  0
  5  6  1  0
  6  7  1  0
  7  8  1  0
  8  9  2  0
  8 10  1  0
 11 10  1  0
 11 12  1  0
 12 13  1  0
 13 14  2  0
 14 15  1  0
 15 16  2  0
 16 17  1  0
 16 18  1  0
 13 19  1  0
 18 19  2  0
 19 20  1  0
 11 21  1  0
 11 22  1  0
 21 22  1  0
  7 23  1  0
  4 24  1  0
 23 24  1  0
M  END
