piperidine-amides-1879-covalent
     RDKit          3D

 20 22  0  0  0  0  0  0  0  0999 V2000
    7.1100   -3.2660   19.2210 C   0  0  0  0  0  0  0  0  0  0  0  0
    6.3490   -4.0520   20.2290 C   0  0  0  0  0  0  0  0  0  0  0  0
    5.2760   -4.5330   19.8700 O   0  0  0  0  0  0  0  0  0  0  0  0
    6.8780   -4.2660   21.5000 N   0  0  0  0  0  0  0  0  0  0  0  0
    6.5450   -5.4300   22.2730 C   0  0  0  0  0  0  0  0  0  0  0  0
    5.7200   -5.0060   23.4530 C   0  0  0  0  0  0  0  0  0  0  0  0
    6.3860   -3.8250   24.1760 C   0  0  0  0  0  0  0  0  0  0  0  0
    5.3740   -3.2850   25.1090 C   0  0  0  0  0  0  0  0  0  0  0  0
    4.4060   -3.9740   25.4460 O   0  0  0  0  0  0  0  0  0  0  0  0
    5.4860   -1.9790   25.6130 N   0  0  0  0  0  0  0  0  0  0  0  0
    5.5630   -1.8020   27.0370 C   0  0  0  0  0  0  0  0  0  0  0  0
    7.0170   -1.8060   27.3050 C   0  0  0  0  0  0  0  0  0  0  0  0
    7.9010   -2.3780   26.4260 C   0  0  0  0  0  0  0  0  0  0  0  0
    8.0040   -3.4800   27.0490 C   0  0  0  0  0  0  0  0  0  0  0  0
    8.4540   -4.7270   26.8700 C   0  0  0  0  0  0  0  0  0  0  0  0
    8.6990   -6.0640   27.3100 C   0  0  0  0  0  0  0  0  0  0  0  0
    9.1050   -5.6640   25.9160 C   0  0  0  0  0  0  0  0  0  0  0  0
    7.3910   -2.9780   28.3090 C   0  0  0  0  0  0  0  0  0  0  0  0
    6.9500   -2.7540   23.3190 C   0  0  0  0  0  0  0  0  0  0  0  0
    7.6670   -3.2350   22.1140 C   0  0  0  0  0  0  0  0  0  0  0  0
  1  2  1  0
  2  3  2  0
  2  4  1  0
  4  5  1  0
  5  6  1  0
  6  7  1  0
  7  8  1  0
  8  9  2  0
  8 10  1  0
 10 11  1  0
 11 12  1  0
 12 13  1  0
 13 14  1  0
 14 15  2  3
 15 16  1  0
 15 17  1  0
 16 17  1  0
 12 18  1  0
 14 18  1  0
  7 19  1  0
  4 20  1  0
 19 20  1  0
M  END
