piperidine-amides-34261-covalent
     RDKit          3D

 26 27  0  0  0  0  0  0  0  0999 V2000
    7.1950   -3.3030   19.2180 C   0  0  0  0  0  0  0  0  0  0  0  0
    6.4160   -4.0610   20.1960 C   0  0  0  0  0  0  0  0  0  0  0  0
    5.2970   -4.5270   19.8880 O   0  0  0  0  0  0  0  0  0  0  0  0
    6.9630   -4.3350   21.4480 N   0  0  0  0  0  0  0  0  0  0  0  0
    7.7620   -3.3240   22.1020 C   0  0  0  0  0  0  0  0  0  0  0  0
    6.8200   -2.6540   23.0850 C   0  0  0  0  0  0  0  0  0  0  0  0
    6.3630   -3.7430   24.0280 C   0  0  0  0  0  0  0  0  0  0  0  0
    5.4950   -3.1410   25.0270 C   0  0  0  0  0  0  0  0  0  0  0  0
    4.5140   -2.4990   24.6100 O   0  0  0  0  0  0  0  0  0  0  0  0
    5.7550   -3.2790   26.4020 N   0  0  0  0  0  0  0  0  0  0  0  0
    6.0720   -4.6200   26.9260 C   0  0  2  0  0  0  0  0  0  0  0  0
    4.8170   -5.4180   26.7830 C   0  0  0  0  0  0  0  0  0  0  0  0
    4.9170   -6.7290   27.1380 C   0  0  0  0  0  0  0  0  0  0  0  0
    6.5350   -4.7490   28.3150 C   0  0  0  0  0  0  0  0  0  0  0  0
    5.6730   -5.4560   29.1610 O   0  0  0  0  0  0  0  0  0  0  0  0
    4.9510   -2.8100   27.5250 C   0  0  2  0  0  0  0  0  0  0  0  0
    3.8360   -2.3440   26.8650 C   0  0  0  0  0  0  0  0  0  0  0  0
    5.6020   -1.6790   28.3150 C   0  0  0  0  0  0  0  0  0  0  0  0
    5.1080   -0.2740   28.5010 C   0  0  0  0  0  0  0  0  0  0  0  0
    5.7420    0.8670   29.2860 C   0  0  0  0  0  0  0  0  0  0  0  0
    6.9840    0.2150   29.8170 C   0  0  0  0  0  0  0  0  0  0  0  0
    7.3860   -1.1140   29.5990 C   0  0  0  0  0  0  0  0  0  0  0  0
    6.7040   -2.0060   28.8760 C   0  0  0  0  0  0  0  0  0  0  0  0
    7.1580   -3.7890   28.5440 Br  0  0  0  0  0  0  0  0  0  0  0  0
    5.5970   -4.8620   23.3360 C   0  0  0  0  0  0  0  0  0  0  0  0
    6.4230   -5.4160   22.2090 C   0  0  0  0  0  0  0  0  0  0  0  0
  1  2  1  0
  2  3  2  0
  2  4  1  0
  4  5  1  0
  5  6  1  0
  6  7  1  0
  7  8  1  0
  8  9  2  0
  8 10  1  0
 10 11  1  0
 11 12  1  1
 12 13  1  0
 11 14  1  0
 14 15  1  0
 10 16  1  0
 16 17  1  6
 16 18  1  0
 18 19  2  0
 19 20  1  0
 20 21  2  0
 21 22  1  0
 18 23  1  0
 22 23  2  0
 23 24  1  0
  7 25  1  0
  4 26  1  0
 25 26  1  0
M  END
