piperidine-amides-765-covalent
     RDKit          3D

 25 26  0  0  0  0  0  0  0  0999 V2000
    7.1880   -3.2700   19.3020 C   0  0  0  0  0  0  0  0  0  0  0  0
    6.4280   -4.0310   20.2650 C   0  0  0  0  0  0  0  0  0  0  0  0
    5.3410   -4.5860   19.9010 O   0  0  0  0  0  0  0  0  0  0  0  0
    6.8900   -4.2070   21.5760 N   0  0  0  0  0  0  0  0  0  0  0  0
    6.5740   -5.4640   22.2820 C   0  0  0  0  0  0  0  0  0  0  0  0
    5.6390   -4.8890   23.4080 C   0  0  0  0  0  0  0  0  0  0  0  0
    6.4960   -3.8790   24.1430 C   0  0  0  0  0  0  0  0  0  0  0  0
    5.8010   -3.3680   25.4680 C   0  0  0  0  0  0  0  0  0  0  0  0
    5.0360   -2.4310   25.2680 O   0  0  0  0  0  0  0  0  0  0  0  0
    6.2480   -4.1110   26.3850 N   0  0  0  0  0  0  0  0  0  0  0  0
    6.7550   -4.9640   27.3130 C   0  0  0  0  0  0  0  0  0  0  0  0
    6.4760   -6.0060   28.1290 C   0  0  0  0  0  0  0  0  0  0  0  0
    5.5350   -5.8110   29.1670 C   0  0  0  0  0  0  0  0  0  0  0  0
    5.4910   -6.8190   30.2570 C   0  0  0  0  0  0  0  0  0  0  0  0
    4.4480   -6.5830   31.3730 C   0  0  0  0  0  0  0  0  0  0  0  0
    3.6480   -5.4360   31.2390 C   0  0  0  0  0  0  0  0  0  0  0  0
    2.4690   -5.2620   32.5940 S   0  0  0  0  0  0  0  0  0  0  0  0
    3.0920   -5.7180   33.8480 O   0  0  0  0  0  0  0  0  0  0  0  0
    1.2470   -6.0520   32.2480 O   0  0  0  0  0  0  0  0  0  0  0  0
    2.0450   -3.5760   32.8230 N   0  0  0  0  0  0  0  0  0  0  0  0
    3.0010   -2.6610   32.2230 C   0  0  0  0  0  0  0  0  0  0  0  0
    3.7340   -4.4530   30.1240 C   0  0  0  0  0  0  0  0  0  0  0  0
    4.7300   -4.5600   28.9390 C   0  0  0  0  0  0  0  0  0  0  0  0
    6.8920   -2.7190   23.2200 C   0  0  0  0  0  0  0  0  0  0  0  0
    7.7050   -3.2020   22.2380 C   0  0  0  0  0  0  0  0  0  0  0  0
  1  2  1  0
  2  3  2  0
  2  4  1  0
  4  5  1  0
  5  6  1  0
  6  7  1  0
  7  8  1  0
  8  9  2  0
  8 10  1  0
 10 11  1  0
 11 12  1  0
 12 13  1  0
 13 14  2  0
 14 15  1  0
 15 16  2  0
 16 17  1  0
 17 18  2  0
 17 19  2  0
 17 20  1  0
 20 21  1  0
 16 22  1  0
 13 23  1  0
 22 23  2  0
  7 24  1  0
  4 25  1  0
 24 25  1  0
M  END
