piperidine-amides-5037-covalent
     RDKit          3D

 22 23  0  0  0  0  0  0  0  0999 V2000
    7.0740   -3.2450   19.2050 C   0  0  0  0  0  0  0  0  0  0  0  0
    6.2920   -4.0010   20.2140 C   0  0  0  0  0  0  0  0  0  0  0  0
    5.2110   -4.4830   19.8360 O   0  0  0  0  0  0  0  0  0  0  0  0
    6.7650   -4.2120   21.5110 N   0  0  0  0  0  0  0  0  0  0  0  0
    6.3410   -5.3800   22.2140 C   0  0  0  0  0  0  0  0  0  0  0  0
    5.7730   -5.1090   23.5370 C   0  0  0  0  0  0  0  0  0  0  0  0
    6.3870   -3.9490   24.2140 C   0  0  0  0  0  0  0  0  0  0  0  0
    5.6470   -3.5630   25.4530 C   0  0  0  0  0  0  0  0  0  0  0  0
    4.4240   -3.3060   25.4130 O   0  0  0  0  0  0  0  0  0  0  0  0
    6.3110   -3.5080   26.6860 N   0  0  0  0  0  0  0  0  0  0  0  0
    7.3050   -4.5330   27.0250 C   0  0  0  0  0  0  0  0  0  0  0  0
    8.5930   -4.2040   26.3770 C   0  0  0  0  0  0  0  0  0  0  0  0
    9.7130   -5.0710   26.6830 C   0  0  0  0  0  0  0  0  0  0  0  0
   11.0550   -4.4780   25.8450 S   0  0  0  0  0  0  0  0  0  0  0  0
   10.3070   -3.1290   25.0680 C   0  0  0  0  0  0  0  0  0  0  0  0
   10.8420   -2.1750   24.2080 C   0  0  0  0  0  0  0  0  0  0  0  0
   12.0030   -1.5890   24.5870 F   0  0  0  0  0  0  0  0  0  0  0  0
    9.8900   -1.2060   23.9970 F   0  0  0  0  0  0  0  0  0  0  0  0
   11.0750   -2.7220   22.9580 F   0  0  0  0  0  0  0  0  0  0  0  0
    8.8940   -3.1610   25.5110 C   0  0  0  0  0  0  0  0  0  0  0  0
    6.6820   -2.7850   23.3130 C   0  0  0  0  0  0  0  0  0  0  0  0
    7.4570   -3.2050   22.2700 C   0  0  0  0  0  0  0  0  0  0  0  0
  1  2  1  0
  2  3  2  0
  2  4  1  0
  4  5  1  0
  5  6  1  0
  6  7  1  0
  7  8  1  0
  8  9  2  0
  8 10  1  0
 10 11  1  0
 11 12  1  0
 12 13  2  0
 13 14  1  0
 14 15  1  0
 15 16  1  0
 16 17  1  0
 16 18  1  0
 16 19  1  0
 12 20  1  0
 15 20  2  0
  7 21  1  0
  4 22  1  0
 21 22  1  0
M  END
