piperidine-amides-4963-covalent
     RDKit          3D

 23 24  0  0  0  0  0  0  0  0999 V2000
    7.1330   -3.2390   19.1590 C   0  0  0  0  0  0  0  0  0  0  0  0
    6.3490   -3.9770   20.1740 C   0  0  0  0  0  0  0  0  0  0  0  0
    5.2470   -4.4340   19.8230 O   0  0  0  0  0  0  0  0  0  0  0  0
    6.8560   -4.1960   21.4540 N   0  0  0  0  0  0  0  0  0  0  0  0
    7.6100   -3.1730   22.1070 C   0  0  0  0  0  0  0  0  0  0  0  0
    7.1540   -2.8250   23.4510 C   0  0  0  0  0  0  0  0  0  0  0  0
    6.5630   -3.9460   24.2070 C   0  0  0  0  0  0  0  0  0  0  0  0
    5.8890   -3.4470   25.4280 C   0  0  0  0  0  0  0  0  0  0  0  0
    4.7030   -3.7810   25.6090 O   0  0  0  0  0  0  0  0  0  0  0  0
    6.5630   -2.6310   26.3590 N   0  0  0  0  0  0  0  0  0  0  0  0
    6.2460   -2.6150   27.8080 C   0  0  0  0  0  0  0  0  0  0  0  0
    5.0960   -1.6870   28.0770 C   0  0  0  0  0  0  0  0  0  0  0  0
    4.2170   -1.4160   26.9470 C   0  0  0  0  0  0  0  0  0  0  0  0
    3.1210   -0.6010   26.9860 C   0  0  0  0  0  0  0  0  0  0  0  0
    2.7950    0.0250   28.1610 C   0  0  0  0  0  0  0  0  0  0  0  0
    3.6550   -0.2350   29.2810 N   0  0  0  0  0  0  0  0  0  0  0  0
    4.7450   -1.0410   29.2510 C   0  0  0  0  0  0  0  0  0  0  0  0
    5.5140   -1.2140   30.4120 O   0  0  0  0  0  0  0  0  0  0  0  0
    5.8990   -0.0980   31.1610 C   0  0  0  0  0  0  0  0  0  0  0  0
    6.9530    0.5580   30.6020 C   0  0  0  0  0  0  0  0  0  0  0  0
    8.1470   -0.0250   31.0120 C   0  0  0  0  0  0  0  0  0  0  0  0
    5.6950   -4.8570   23.4350 C   0  0  0  0  0  0  0  0  0  0  0  0
    6.4650   -5.3540   22.2410 C   0  0  0  0  0  0  0  0  0  0  0  0
  1  2  1  0
  2  3  2  0
  2  4  1  0
  4  5  1  0
  5  6  1  0
  6  7  1  0
  7  8  1  0
  8  9  2  0
  8 10  1  0
 10 11  1  0
 11 12  1  0
 12 13  2  0
 13 14  1  0
 14 15  2  0
 15 16  1  0
 12 17  1  0
 16 17  2  0
 17 18  1  0
 18 19  1  0
 19 20  1  0
 20 21  1  0
  7 22  1  0
  4 23  1  0
 22 23  1  0
M  END
