piperidine-amides-25299-covalent
     RDKit          3D

 25 27  0  0  0  0  0  0  0  0999 V2000
    7.0980   -3.3530   19.3230 C   0  0  0  0  0  0  0  0  0  0  0  0
    6.3770   -4.1670   20.3290 C   0  0  0  0  0  0  0  0  0  0  0  0
    5.3470   -4.7250   19.9530 O   0  0  0  0  0  0  0  0  0  0  0  0
    6.9030   -4.3190   21.6180 N   0  0  0  0  0  0  0  0  0  0  0  0
    6.4990   -5.3880   22.4800 C   0  0  0  0  0  0  0  0  0  0  0  0
    5.7060   -4.8010   23.6160 C   0  0  0  0  0  0  0  0  0  0  0  0
    6.5190   -3.7090   24.3340 C   0  0  0  0  0  0  0  0  0  0  0  0
    5.6780   -3.1530   25.4270 C   0  0  0  0  0  0  0  0  0  0  0  0
    4.5570   -2.7210   25.1310 O   0  0  0  0  0  0  0  0  0  0  0  0
    6.1020   -3.0920   26.7830 N   0  0  0  0  0  0  0  0  0  0  0  0
    6.3250   -1.8030   27.3850 C   0  0  0  0  0  0  0  0  0  0  0  0
    5.7970   -0.5790   26.6610 C   0  0  0  0  0  0  0  0  0  0  0  0
    5.9280    0.7080   27.1560 C   0  0  0  0  0  0  0  0  0  0  0  0
    6.5650    0.8800   28.3560 C   0  0  0  0  0  0  0  0  0  0  0  0
    7.0620   -0.1870   29.0450 C   0  0  0  0  0  0  0  0  0  0  0  0
    6.9590   -1.5920   28.5720 C   0  0  0  0  0  0  0  0  0  0  0  0
    5.5040   -3.9740   27.7360 C   0  0  1  0  0  0  0  0  0  0  0  0
    4.6470   -3.1450   28.4740 O   0  0  0  0  0  0  0  0  0  0  0  0
    3.4420   -3.7710   28.6710 C   0  0  0  0  0  0  0  0  0  0  0  0
    2.3240   -3.3650   29.3970 O   0  0  0  0  0  0  0  0  0  0  0  0
    3.5150   -5.0180   27.9540 C   0  0  0  0  0  0  0  0  0  0  0  0
    4.8610   -5.1630   27.3300 C   0  0  0  0  0  0  0  0  0  0  0  0
    5.5310   -6.2050   26.4890 C   0  0  0  0  0  0  0  0  0  0  0  0
    6.9050   -2.6310   23.3520 C   0  0  0  0  0  0  0  0  0  0  0  0
    7.6900   -3.2700   22.2410 C   0  0  0  0  0  0  0  0  0  0  0  0
  1  2  1  0
  2  3  2  0
  2  4  1  0
  4  5  1  0
  5  6  1  0
  6  7  1  0
  7  8  1  0
  8  9  2  0
  8 10  1  0
 10 11  1  0
 11 12  2  0
 12 13  1  0
 13 14  2  0
 14 15  1  0
 11 16  1  0
 15 16  2  0
 17 10  1  6
 17 18  1  0
 18 19  1  0
 19 20  2  0
 19 21  1  0
 17 22  1  0
 21 22  2  0
 22 23  1  0
  7 24  1  0
  4 25  1  0
 24 25  1  0
M  END
