piperidine-amides-12239-covalent
     RDKit          3D

 25 26  0  0  0  0  0  0  0  0999 V2000
    7.0930   -3.2910   19.1790 C   0  0  0  0  0  0  0  0  0  0  0  0
    6.3430   -4.0380   20.1860 C   0  0  0  0  0  0  0  0  0  0  0  0
    5.2760   -4.5670   19.8900 O   0  0  0  0  0  0  0  0  0  0  0  0
    6.8800   -4.2100   21.5060 N   0  0  0  0  0  0  0  0  0  0  0  0
    7.6830   -3.1730   22.0930 C   0  0  0  0  0  0  0  0  0  0  0  0
    7.0670   -2.6980   23.3730 C   0  0  0  0  0  0  0  0  0  0  0  0
    6.7690   -3.9020   24.2510 C   0  0  0  0  0  0  0  0  0  0  0  0
    6.1110   -3.4370   25.4940 C   0  0  0  0  0  0  0  0  0  0  0  0
    4.8910   -3.1600   25.5470 O   0  0  0  0  0  0  0  0  0  0  0  0
    6.9220   -3.3120   26.6460 N   0  0  0  0  0  0  0  0  0  0  0  0
    7.1910   -1.9960   27.1660 C   0  0  0  0  0  0  0  0  0  0  0  0
    6.3520   -1.8480   28.4110 C   0  0  0  0  0  0  0  0  0  0  0  0
    6.4290   -0.7390   29.2430 C   0  0  0  0  0  0  0  0  0  0  0  0
    5.6280   -0.6290   30.4000 C   0  0  0  0  0  0  0  0  0  0  0  0
    4.7330   -1.6210   30.7550 C   0  0  0  0  0  0  0  0  0  0  0  0
    4.0190   -1.5480   31.7680 O   0  0  0  0  0  0  0  0  0  0  0  0
    3.7910   -0.4950   32.6300 C   0  0  0  0  0  0  0  0  0  0  0  0
    4.2730   -0.7980   33.8870 C   0  0  0  0  0  0  0  0  0  0  0  0
    3.9830   -2.0340   34.4260 C   0  0  0  0  0  0  0  0  0  0  0  0
    4.8270   -2.5890   35.1800 O   0  0  0  0  0  0  0  0  0  0  0  0
    4.2310   -3.6100   35.8780 C   0  0  0  0  0  0  0  0  0  0  0  0
    4.6960   -2.6940   29.9030 C   0  0  0  0  0  0  0  0  0  0  0  0
    5.4610   -2.8260   28.7760 C   0  0  0  0  0  0  0  0  0  0  0  0
    5.8630   -4.8920   23.5610 C   0  0  0  0  0  0  0  0  0  0  0  0
    6.4470   -5.3260   22.2610 C   0  0  0  0  0  0  0  0  0  0  0  0
  1  2  1  0
  2  3  2  0
  2  4  1  0
  4  5  1  0
  5  6  1  0
  6  7  1  0
  7  8  1  0
  8  9  2  0
  8 10  1  0
 10 11  1  0
 11 12  1  0
 12 13  2  0
 13 14  1  0
 14 15  2  0
 15 16  1  0
 16 17  1  0
 17 18  1  0
 18 19  1  0
 19 20  1  0
 20 21  1  0
 15 22  1  0
 12 23  1  0
 22 23  2  0
  7 24  1  0
  4 25  1  0
 24 25  1  0
M  END
