piperidine-amides-10501-covalent
     RDKit          3D

 24 26  0  0  0  0  0  0  0  0999 V2000
    7.1200   -3.2660   19.2480 C   0  0  0  0  0  0  0  0  0  0  0  0
    6.3920   -4.0310   20.2620 C   0  0  0  0  0  0  0  0  0  0  0  0
    5.3110   -4.5590   19.8960 O   0  0  0  0  0  0  0  0  0  0  0  0
    6.9140   -4.1930   21.5510 N   0  0  0  0  0  0  0  0  0  0  0  0
    6.6990   -5.4210   22.2780 C   0  0  0  0  0  0  0  0  0  0  0  0
    5.9840   -5.1050   23.5640 C   0  0  0  0  0  0  0  0  0  0  0  0
    6.0820   -3.6490   23.9470 C   0  0  0  0  0  0  0  0  0  0  0  0
    5.7580   -3.5260   25.3810 C   0  0  0  0  0  0  0  0  0  0  0  0
    4.7070   -4.0820   25.7500 O   0  0  0  0  0  0  0  0  0  0  0  0
    6.5330   -2.8350   26.3290 N   0  0  0  0  0  0  0  0  0  0  0  0
    5.8890   -2.1720   27.4370 C   0  0  1  0  0  0  0  0  0  0  0  0
    4.4010   -2.5210   27.3230 C   0  0  0  0  0  0  0  0  0  0  0  0
    3.7290   -3.3000   28.2460 C   0  0  0  0  0  0  0  0  0  0  0  0
    2.3960   -3.5710   28.0850 C   0  0  0  0  0  0  0  0  0  0  0  0
    1.6500   -3.1100   27.0260 C   0  0  0  0  0  0  0  0  0  0  0  0
   -0.1980   -3.5150   26.8380 Br  0  0  0  0  0  0  0  0  0  0  0  0
    2.3100   -2.3350   26.0990 C   0  0  0  0  0  0  0  0  0  0  0  0
    3.6620   -2.0430   26.2430 C   0  0  0  0  0  0  0  0  0  0  0  0
    6.4790   -2.3230   28.7090 C   0  0  0  0  0  0  0  0  0  0  0  0
    5.2630   -1.4390   28.6410 C   0  0  0  0  0  0  0  0  0  0  0  0
    6.2050   -0.3990   29.0370 C   0  0  0  0  0  0  0  0  0  0  0  0
    7.4450   -1.3260   29.0570 C   0  0  0  0  0  0  0  0  0  0  0  0
    7.3940   -3.0470   23.6200 C   0  0  0  0  0  0  0  0  0  0  0  0
    7.7030   -3.1420   22.1460 C   0  0  0  0  0  0  0  0  0  0  0  0
  1  2  1  0
  2  3  2  0
  2  4  1  0
  4  5  1  0
  5  6  1  0
  6  7  1  0
  7  8  1  0
  8  9  2  0
  8 10  1  0
 11 10  1  6
 11 12  1  0
 12 13  2  0
 13 14  1  0
 14 15  2  0
 15 16  1  0
 15 17  1  0
 12 18  1  0
 17 18  2  0
 11 19  1  0
 19 20  1  0
 20 21  1  0
 19 22  1  0
 21 22  1  0
  7 23  1  0
  4 24  1  0
 23 24  1  0
M  END
