piperidine-amides-27780-covalent
     RDKit          3D

 26 28  0  0  0  0  0  0  0  0999 V2000
    7.0930   -3.3200   19.1970 C   0  0  0  0  0  0  0  0  0  0  0  0
    6.3930   -4.1010   20.2430 C   0  0  0  0  0  0  0  0  0  0  0  0
    5.3160   -4.6340   19.9140 O   0  0  0  0  0  0  0  0  0  0  0  0
    6.9580   -4.2730   21.5140 N   0  0  0  0  0  0  0  0  0  0  0  0
    7.6940   -3.2160   22.1270 C   0  0  0  0  0  0  0  0  0  0  0  0
    7.2190   -2.8010   23.4420 C   0  0  0  0  0  0  0  0  0  0  0  0
    6.4930   -3.8170   24.2300 C   0  0  0  0  0  0  0  0  0  0  0  0
    5.6660   -3.0970   25.2170 C   0  0  0  0  0  0  0  0  0  0  0  0
    4.6060   -2.5960   24.8030 O   0  0  0  0  0  0  0  0  0  0  0  0
    6.0050   -2.9660   26.5700 N   0  0  0  0  0  0  0  0  0  0  0  0
    6.1060   -1.5650   27.1180 C   0  0  0  0  0  0  0  0  0  0  0  0
    5.5470   -0.4570   26.3120 C   0  0  0  0  0  0  0  0  0  0  0  0
    5.6620    0.8770   26.8910 C   0  0  0  0  0  0  0  0  0  0  0  0
    6.2620    1.0490   28.1150 C   0  0  0  0  0  0  0  0  0  0  0  0
    6.7760    0.0040   28.8420 C   0  0  0  0  0  0  0  0  0  0  0  0
    6.7160   -1.2730   28.3860 C   0  0  0  0  0  0  0  0  0  0  0  0
    7.2340   -2.1860   29.1590 C   0  0  0  0  0  0  0  0  0  0  0  0
    5.3050   -3.9960   27.4130 C   0  0  0  0  0  0  0  0  0  0  0  0
    6.1170   -4.6200   28.3430 C   0  0  0  0  0  0  0  0  0  0  0  0
    5.3760   -5.0070   29.5580 C   0  0  0  0  0  0  0  0  0  0  0  0
    4.4330   -5.4840   29.1040 N   0  0  0  0  0  0  0  0  0  0  0  0
    4.6710   -6.7220   28.4360 C   0  0  0  0  0  0  0  0  0  0  0  0
    3.5010   -4.4500   28.7240 C   0  0  0  0  0  0  0  0  0  0  0  0
    4.1870   -3.4580   27.9700 C   0  0  0  0  0  0  0  0  0  0  0  0
    5.8270   -4.8790   23.4710 C   0  0  0  0  0  0  0  0  0  0  0  0
    6.6470   -5.4140   22.3560 C   0  0  0  0  0  0  0  0  0  0  0  0
  1  2  1  0
  2  3  2  0
  2  4  1  0
  4  5  1  0
  5  6  1  0
  6  7  1  0
  7  8  1  0
  8  9  2  0
  8 10  1  0
 10 11  1  0
 11 12  2  0
 12 13  1  0
 13 14  2  0
 14 15  1  0
 11 16  1  0
 15 16  2  0
 16 17  1  0
 10 18  1  0
 18 19  1  0
 19 20  1  0
 20 21  1  0
 21 22  1  0
 21 23  1  0
 18 24  1  0
 23 24  1  0
  7 25  1  0
  4 26  1  0
 25 26  1  0
M  END
