piperidine-amides-12351-covalent
     RDKit          3D

 24 26  0  0  0  0  0  0  0  0999 V2000
    7.0730   -3.3260   19.3040 C   0  0  0  0  0  0  0  0  0  0  0  0
    6.3560   -4.1580   20.2670 C   0  0  0  0  0  0  0  0  0  0  0  0
    5.3270   -4.7470   19.9440 O   0  0  0  0  0  0  0  0  0  0  0  0
    6.8840   -4.3320   21.5820 N   0  0  0  0  0  0  0  0  0  0  0  0
    7.7210   -3.2980   22.1410 C   0  0  0  0  0  0  0  0  0  0  0  0
    7.0400   -2.6780   23.3090 C   0  0  0  0  0  0  0  0  0  0  0  0
    6.5740   -3.8180   24.1830 C   0  0  0  0  0  0  0  0  0  0  0  0
    5.9740   -3.2040   25.3910 C   0  0  0  0  0  0  0  0  0  0  0  0
    4.7860   -3.3550   25.7410 O   0  0  0  0  0  0  0  0  0  0  0  0
    6.8670   -2.4010   26.1390 N   0  0  0  0  0  0  0  0  0  0  0  0
    6.3790   -1.3810   27.0330 C   0  0  0  0  0  0  0  0  0  0  0  0
    6.9460   -1.7110   28.3810 C   0  0  0  0  0  0  0  0  0  0  0  0
    6.3270   -0.6490   28.8370 N   0  0  0  0  0  0  0  0  0  0  0  0
    5.6280    0.0470   27.9640 N   0  0  0  0  0  0  0  0  0  0  0  0
    4.9080    1.2430   28.3740 C   0  0  0  0  0  0  0  0  0  0  0  0
    5.7620    2.3500   28.5440 C   0  0  0  0  0  0  0  0  0  0  0  0
    5.2800    3.5780   28.9330 C   0  0  0  0  0  0  0  0  0  0  0  0
    3.8590    3.6520   29.1500 C   0  0  0  0  0  0  0  0  0  0  0  0
    3.4290    4.8910   29.5340 F   0  0  0  0  0  0  0  0  0  0  0  0
    3.0100    2.5940   28.9910 C   0  0  0  0  0  0  0  0  0  0  0  0
    3.5410    1.3750   28.5990 C   0  0  0  0  0  0  0  0  0  0  0  0
    5.5700   -0.3470   26.6430 C   0  0  0  0  0  0  0  0  0  0  0  0
    5.7470   -4.8170   23.5330 C   0  0  0  0  0  0  0  0  0  0  0  0
    6.4130   -5.3800   22.4540 C   0  0  0  0  0  0  0  0  0  0  0  0
  1  2  1  0
  2  3  2  0
  2  4  1  0
  4  5  1  0
  5  6  1  0
  6  7  1  0
  7  8  1  0
  8  9  2  0
  8 10  1  0
 10 11  1  0
 11 12  1  0
 12 13  2  0
 13 14  1  0
 14 15  1  0
 15 16  2  0
 16 17  1  0
 17 18  2  0
 18 19  1  0
 18 20  1  0
 15 21  1  0
 20 21  2  0
 11 22  2  0
 14 22  1  0
  7 23  1  0
  4 24  1  0
 23 24  1  0
M  END
