piperidine-amides-19371-covalent
     RDKit          3D

 21 22  0  0  0  0  0  0  0  0999 V2000
    6.9900   -3.4080   19.3770 C   0  0  0  0  0  0  0  0  0  0  0  0
    6.3570   -4.2150   20.4050 C   0  0  0  0  0  0  0  0  0  0  0  0
    5.4130   -4.9680   20.0110 O   0  0  0  0  0  0  0  0  0  0  0  0
    6.7400   -4.2520   21.7760 N   0  0  0  0  0  0  0  0  0  0  0  0
    6.7460   -5.6150   22.3830 C   0  0  0  0  0  0  0  0  0  0  0  0
    6.3290   -5.3760   23.8950 C   0  0  0  0  0  0  0  0  0  0  0  0
    6.2300   -3.8910   24.0800 C   0  0  0  0  0  0  0  0  0  0  0  0
    5.3430   -3.3820   25.3230 C   0  0  0  0  0  0  0  0  0  0  0  0
    4.3270   -2.9050   24.8460 O   0  0  0  0  0  0  0  0  0  0  0  0
    5.8270   -3.5630   26.5090 N   0  0  0  0  0  0  0  0  0  0  0  0
    6.4700   -3.7240   27.6780 C   0  0  0  0  0  0  0  0  0  0  0  0
    6.7690   -4.7450   28.5270 C   0  0  0  0  0  0  0  0  0  0  0  0
    5.5670   -5.0370   29.0970 C   0  0  2  0  0  0  0  0  0  0  0  0
    5.6890   -6.0690   30.0290 O   0  0  0  0  0  0  0  0  0  0  0  0
    4.6940   -5.4820   28.0530 C   0  0  0  0  0  0  0  0  0  0  0  0
    5.4510   -5.9450   26.9790 F   0  0  0  0  0  0  0  0  0  0  0  0
    3.8840   -6.4690   28.6000 F   0  0  0  0  0  0  0  0  0  0  0  0
    3.9680   -4.1120   27.9740 C   0  0  0  0  0  0  0  0  0  0  0  0
    5.0590   -3.2270   27.7250 C   0  0  0  0  0  0  0  0  0  0  0  0
    7.5200   -3.1640   23.7930 C   0  0  0  0  0  0  0  0  0  0  0  0
    7.6750   -3.2260   22.2660 C   0  0  0  0  0  0  0  0  0  0  0  0
  1  2  1  0
  2  3  2  0
  2  4  1  0
  4  5  1  0
  5  6  1  0
  6  7  1  0
  7  8  1  0
  8  9  2  0
  8 10  1  0
 10 11  1  0
 11 12  1  0
 12 13  1  0
 13 14  1  1
 13 15  1  0
 15 16  1  0
 15 17  1  0
 15 18  1  0
 10 19  1  0
 18 19  1  0
  7 20  1  0
  4 21  1  0
 20 21  1  0
M  END
