piperidine-amides-33278-covalent
     RDKit          3D

 29 31  0  0  0  0  0  0  0  0999 V2000
    7.1430   -3.3580   19.3260 C   0  0  0  0  0  0  0  0  0  0  0  0
    6.4200   -4.1690   20.3060 C   0  0  0  0  0  0  0  0  0  0  0  0
    5.3350   -4.6750   19.9390 O   0  0  0  0  0  0  0  0  0  0  0  0
    6.9860   -4.4160   21.5830 N   0  0  0  0  0  0  0  0  0  0  0  0
    6.4720   -5.5020   22.3210 C   0  0  0  0  0  0  0  0  0  0  0  0
    5.8560   -5.1100   23.5940 C   0  0  0  0  0  0  0  0  0  0  0  0
    6.4710   -3.9770   24.3370 C   0  0  0  0  0  0  0  0  0  0  0  0
    5.5680   -3.5710   25.4700 C   0  0  0  0  0  0  0  0  0  0  0  0
    4.6740   -2.7300   25.2780 O   0  0  0  0  0  0  0  0  0  0  0  0
    5.7350   -4.1480   26.7390 N   0  0  0  0  0  0  0  0  0  0  0  0
    6.9310   -4.6130   27.1740 C   0  0  0  0  0  0  0  0  0  0  0  0
    7.0050   -5.6370   28.1460 C   0  0  0  0  0  0  0  0  0  0  0  0
    6.1440   -4.9780   29.2110 C   0  0  0  0  0  0  0  0  0  0  0  0
    4.8040   -4.8700   28.8720 C   0  0  0  0  0  0  0  0  0  0  0  0
    4.9750   -3.6540   27.9070 C   0  0  2  0  0  0  0  0  0  0  0  0
    3.5360   -3.7730   27.4340 C   0  0  0  0  0  0  0  0  0  0  0  0
    2.9590   -3.6550   28.8540 C   0  0  0  0  0  0  0  0  0  0  0  0
    3.5030   -2.6160   29.7840 C   0  0  0  0  0  0  0  0  0  0  0  0
    4.5750   -1.8320   29.3270 N   0  0  0  0  0  0  0  0  0  0  0  0
    5.1760   -1.0220   30.2090 C   0  0  0  0  0  0  0  0  0  0  0  0
    6.4300   -0.9710   30.1790 O   0  0  0  0  0  0  0  0  0  0  0  0
    4.5400   -0.2380   31.1300 O   0  0  0  0  0  0  0  0  0  0  0  0
    4.2720   -0.6250   32.4710 C   0  0  0  0  0  0  0  0  0  0  0  0
    2.9330   -0.0380   32.7490 C   0  0  0  0  0  0  0  0  0  0  0  0
    5.1960   -0.3180   33.4540 C   0  0  0  0  0  0  0  0  0  0  0  0
    3.7150   -2.0110   32.7510 C   0  0  0  0  0  0  0  0  0  0  0  0
    5.4840   -2.4460   28.4170 C   0  0  0  0  0  0  0  0  0  0  0  0
    6.8220   -2.8320   23.4310 C   0  0  0  0  0  0  0  0  0  0  0  0
    7.6220   -3.3270   22.2470 C   0  0  0  0  0  0  0  0  0  0  0  0
  1  2  1  0
  2  3  2  0
  2  4  1  0
  4  5  1  0
  5  6  1  0
  6  7  1  0
  7  8  1  0
  8  9  2  0
  8 10  1  0
 10 11  1  0
 11 12  1  0
 12 13  1  0
 13 14  1  0
 15 10  1  0
 15 14  1  1
 15 16  1  0
 16 17  1  0
 17 18  1  0
 18 19  1  0
 19 20  1  0
 20 21  2  0
 20 22  1  0
 23 22  1  0
 23 24  1  0
 23 25  1  0
 23 26  1  0
 15 27  1  0
 19 27  1  0
  7 28  1  0
  4 29  1  0
 28 29  1  0
M  END
