piperidine-amides-27161-covalent
     RDKit          3D

 25 26  0  0  0  0  0  0  0  0999 V2000
    7.2260   -4.1360   19.7380 C   0  0  0  0  0  0  0  0  0  0  0  0
    6.0840   -4.1220   20.4950 C   0  0  0  0  0  0  0  0  0  0  0  0
    5.0520   -4.2290   19.7810 O   0  0  0  0  0  0  0  0  0  0  0  0
    6.2640   -4.1170   21.8600 N   0  0  0  0  0  0  0  0  0  0  0  0
    6.1400   -5.3830   22.5720 C   0  0  0  0  0  0  0  0  0  0  0  0
    5.8670   -5.0530   24.0120 C   0  0  0  0  0  0  0  0  0  0  0  0
    5.8350   -3.5570   24.1250 C   0  0  0  0  0  0  0  0  0  0  0  0
    5.2290   -3.0240   25.3630 C   0  0  0  0  0  0  0  0  0  0  0  0
    4.5750   -1.9810   25.2230 O   0  0  0  0  0  0  0  0  0  0  0  0
    5.2850   -3.5600   26.6560 N   0  0  0  0  0  0  0  0  0  0  0  0
    4.0970   -4.0440   27.2960 C   0  0  0  0  0  0  0  0  0  0  0  0
    4.4770   -4.7650   28.5770 C   0  0  0  0  0  0  0  0  0  0  0  0
    5.6860   -4.5630   29.1220 C   0  0  0  0  0  0  0  0  0  0  0  0
    6.6860   -4.3240   28.2970 C   0  0  0  0  0  0  0  0  0  0  0  0
    6.4270   -3.2810   27.4120 C   0  0  2  0  0  0  0  0  0  0  0  0
    6.4440   -1.9990   27.9470 C   0  0  0  0  0  0  0  0  0  0  0  0
    5.3400   -1.4840   28.5950 C   0  0  0  0  0  0  0  0  0  0  0  0
    4.1660   -1.0860   27.9400 O   0  0  0  0  0  0  0  0  0  0  0  0
    5.5100   -1.3940   29.9350 O   0  0  0  0  0  0  0  0  0  0  0  0
    6.2500   -0.2790   30.2540 C   0  0  0  0  0  0  0  0  0  0  0  0
    5.8880    0.7860   29.2200 C   0  0  0  0  0  0  0  0  0  0  0  0
    7.6070   -0.4970   30.3590 C   0  0  0  0  0  0  0  0  0  0  0  0
    5.9590    0.0560   31.5620 C   0  0  0  0  0  0  0  0  0  0  0  0
    7.1390   -2.9570   23.7830 C   0  0  0  0  0  0  0  0  0  0  0  0
    7.3410   -3.2630   22.3280 C   0  0  0  0  0  0  0  0  0  0  0  0
  1  2  1  0
  2  3  2  0
  2  4  1  0
  4  5  1  0
  5  6  1  0
  6  7  1  0
  7  8  1  0
  8  9  2  0
  8 10  1  0
 10 11  1  0
 11 12  1  0
 12 13  1  0
 13 14  1  0
 10 15  1  0
 14 15  1  0
 15 16  1  1
 16 17  1  0
 17 18  2  0
 17 19  1  0
 20 19  1  0
 20 21  1  0
 20 22  1  0
 20 23  1  0
  7 24  1  0
  4 25  1  0
 24 25  1  0
M  END
