piperidine-amides-17239-covalent
     RDKit          3D

 20 21  0  0  0  0  0  0  0  0999 V2000
    7.1430   -3.3320   19.2350 C   0  0  0  0  0  0  0  0  0  0  0  0
    6.4300   -4.1330   20.2380 C   0  0  0  0  0  0  0  0  0  0  0  0
    5.3160   -4.6090   19.9110 O   0  0  0  0  0  0  0  0  0  0  0  0
    7.0290   -4.4140   21.4820 N   0  0  0  0  0  0  0  0  0  0  0  0
    6.5120   -5.4980   22.2270 C   0  0  0  0  0  0  0  0  0  0  0  0
    5.9220   -5.0930   23.4920 C   0  0  0  0  0  0  0  0  0  0  0  0
    6.5920   -3.9590   24.1620 C   0  0  0  0  0  0  0  0  0  0  0  0
    5.7460   -3.4610   25.2710 C   0  0  0  0  0  0  0  0  0  0  0  0
    4.7370   -2.7760   25.0180 O   0  0  0  0  0  0  0  0  0  0  0  0
    6.0540   -3.7540   26.5890 N   0  0  0  0  0  0  0  0  0  0  0  0
    5.1480   -3.8540   27.6360 C   0  0  0  0  0  0  0  0  0  0  0  0
    5.4120   -4.9230   28.5420 C   0  0  0  0  0  0  0  0  0  0  0  0
    6.8980   -4.7730   28.8610 C   0  0  0  0  0  0  0  0  0  0  0  0
    7.8340   -4.9900   27.8630 C   0  0  0  0  0  0  0  0  0  0  0  0
    7.4510   -3.7440   27.0210 C   0  0  1  0  0  0  0  0  0  0  0  0
    8.3530   -4.2530   25.9320 C   0  0  0  0  0  0  0  0  0  0  0  0
    7.9630   -2.3580   27.4940 C   0  0  0  0  0  0  0  0  0  0  0  0
    8.4490   -2.5440   28.7800 O   0  0  0  0  0  0  0  0  0  0  0  0
    6.9970   -2.8140   23.2730 C   0  0  0  0  0  0  0  0  0  0  0  0
    7.8110   -3.3980   22.1530 C   0  0  0  0  0  0  0  0  0  0  0  0
  1  2  1  0
  2  3  2  0
  2  4  1  0
  4  5  1  0
  5  6  1  0
  6  7  1  0
  7  8  1  0
  8  9  2  0
  8 10  1  0
 10 11  1  0
 11 12  1  0
 12 13  1  0
 13 14  1  0
 10 15  1  0
 14 15  1  0
 15 16  1  6
 15 17  1  0
 17 18  1  0
  7 19  1  0
  4 20  1  0
 19 20  1  0
M  END
