piperidine-amides-29875-covalent
     RDKit          3D

 27 29  0  0  0  0  0  0  0  0999 V2000
    7.0430   -3.3450   19.3400 C   0  0  0  0  0  0  0  0  0  0  0  0
    6.3800   -4.1770   20.3380 C   0  0  0  0  0  0  0  0  0  0  0  0
    5.4080   -4.8570   19.9950 O   0  0  0  0  0  0  0  0  0  0  0  0
    6.8730   -4.2490   21.6920 N   0  0  0  0  0  0  0  0  0  0  0  0
    7.7220   -3.2040   22.2380 C   0  0  0  0  0  0  0  0  0  0  0  0
    7.4730   -3.0070   23.7140 C   0  0  0  0  0  0  0  0  0  0  0  0
    6.0420   -3.4420   23.9530 C   0  0  0  0  0  0  0  0  0  0  0  0
    5.4340   -3.0160   25.2730 C   0  0  0  0  0  0  0  0  0  0  0  0
    4.2160   -2.7790   25.3300 O   0  0  0  0  0  0  0  0  0  0  0  0
    6.1660   -2.8700   26.5010 N   0  0  0  0  0  0  0  0  0  0  0  0
    6.8810   -3.9960   26.7920 C   0  0  0  0  0  0  0  0  0  0  0  0
    5.7610   -4.5230   27.6310 C   0  0  1  0  0  0  0  0  0  0  0  0
    5.9560   -5.8010   27.9470 C   0  0  0  0  0  0  0  0  0  0  0  0
    7.1460   -5.7930   27.3460 C   0  0  0  0  0  0  0  0  0  0  0  0
    8.2570   -5.9200   28.0530 C   0  0  0  0  0  0  0  0  0  0  0  0
    9.4750   -5.8530   27.3770 C   0  0  0  0  0  0  0  0  0  0  0  0
    9.6260   -5.6740   26.0600 C   0  0  0  0  0  0  0  0  0  0  0  0
    8.4990   -5.5450   25.3280 C   0  0  0  0  0  0  0  0  0  0  0  0
    7.2710   -5.6050   25.9730 C   0  0  0  0  0  0  0  0  0  0  0  0
    5.4030   -3.6010   28.5660 C   0  0  2  0  0  0  0  0  0  0  0  0
    4.1440   -3.7190   29.1320 C   0  0  0  0  0  0  0  0  0  0  0  0
    3.1740   -4.6220   28.8000 O   0  0  0  0  0  0  0  0  0  0  0  0
    3.9180   -2.8090   30.1290 O   0  0  0  0  0  0  0  0  0  0  0  0
    3.1580   -3.0550   31.3140 C   0  0  0  0  0  0  0  0  0  0  0  0
    5.3340   -2.4120   27.6100 C   0  0  0  0  0  0  0  0  0  0  0  0
    5.7910   -4.9140   23.7350 C   0  0  0  0  0  0  0  0  0  0  0  0
    6.5500   -5.3820   22.5060 C   0  0  0  0  0  0  0  0  0  0  0  0
  1  2  1  0
  2  3  2  0
  2  4  1  0
  4  5  1  0
  5  6  1  0
  6  7  1  0
  7  8  1  0
  8  9  2  0
  8 10  1  0
 10 11  1  0
 11 12  1  0
 12 13  1  1
 13 14  1  0
 14 15  2  0
 15 16  1  0
 16 17  2  0
 17 18  1  0
 14 19  1  0
 18 19  2  0
 12 20  1  0
 20 21  1  6
 21 22  2  0
 21 23  1  0
 23 24  1  0
 10 25  1  0
 20 25  1  0
  7 26  1  0
  4 27  1  0
 26 27  1  0
M  END
