piperidine-amides-21741-covalent
     RDKit          3D

 23 25  0  0  0  0  0  0  0  0999 V2000
    7.0420   -3.3680   19.3540 C   0  0  0  0  0  0  0  0  0  0  0  0
    6.4070   -4.2390   20.3500 C   0  0  0  0  0  0  0  0  0  0  0  0
    5.3670   -4.8410   19.9770 O   0  0  0  0  0  0  0  0  0  0  0  0
    6.9730   -4.4170   21.6200 N   0  0  0  0  0  0  0  0  0  0  0  0
    6.7260   -5.6130   22.4100 C   0  0  0  0  0  0  0  0  0  0  0  0
    6.1990   -5.2160   23.7660 C   0  0  0  0  0  0  0  0  0  0  0  0
    6.1230   -3.7210   23.8780 C   0  0  0  0  0  0  0  0  0  0  0  0
    5.5940   -3.2450   25.1720 C   0  0  0  0  0  0  0  0  0  0  0  0
    4.8360   -2.2560   25.1130 O   0  0  0  0  0  0  0  0  0  0  0  0
    5.8390   -3.7680   26.4470 N   0  0  0  0  0  0  0  0  0  0  0  0
    4.8290   -4.6580   26.9310 C   0  0  0  0  0  0  0  0  0  0  0  0
    5.2470   -5.2170   28.2600 C   0  0  0  0  0  0  0  0  0  0  0  0
    6.3900   -4.7870   28.7940 C   0  0  0  0  0  0  0  0  0  0  0  0
    6.7060   -3.4560   28.6660 C   0  0  2  0  0  0  0  0  0  0  0  0
    6.0720   -2.4730   29.4110 C   0  0  0  0  0  0  0  0  0  0  0  0
    6.7650   -1.4050   29.8600 C   0  0  0  0  0  0  0  0  0  0  0  0
    5.9210   -0.6330   30.5410 N   0  0  0  0  0  0  0  0  0  0  0  0
    6.2760    0.5260   31.1380 C   0  0  0  0  0  0  0  0  0  0  0  0
    4.7130   -1.2500   30.4890 N   0  0  0  0  0  0  0  0  0  0  0  0
    4.7760   -2.4070   29.7860 N   0  0  0  0  0  0  0  0  0  0  0  0
    6.3770   -2.8210   27.3420 C   0  0  0  0  0  0  0  0  0  0  0  0
    7.4360   -3.0950   23.6030 C   0  0  0  0  0  0  0  0  0  0  0  0
    7.7370   -3.2740   22.1480 C   0  0  0  0  0  0  0  0  0  0  0  0
  1  2  1  0
  2  3  2  0
  2  4  1  0
  4  5  1  0
  5  6  1  0
  6  7  1  0
  7  8  1  0
  8  9  2  0
  8 10  1  0
 10 11  1  0
 11 12  1  0
 12 13  1  0
 13 14  1  0
 14 15  1  1
 15 16  2  0
 16 17  1  0
 17 18  1  0
 17 19  1  0
 15 20  1  0
 19 20  2  0
 10 21  1  0
 14 21  1  0
  7 22  1  0
  4 23  1  0
 22 23  1  0
M  END
