piperidine-amides-12678-covalent
     RDKit          3D

 22 23  0  0  0  0  0  0  0  0999 V2000
    7.1570   -3.2670   19.2010 C   0  0  0  0  0  0  0  0  0  0  0  0
    6.4170   -4.0440   20.2180 C   0  0  0  0  0  0  0  0  0  0  0  0
    5.3090   -4.5030   19.8750 O   0  0  0  0  0  0  0  0  0  0  0  0
    6.9850   -4.2970   21.4740 N   0  0  0  0  0  0  0  0  0  0  0  0
    7.6790   -3.2560   22.1650 C   0  0  0  0  0  0  0  0  0  0  0  0
    7.0270   -2.8590   23.4050 C   0  0  0  0  0  0  0  0  0  0  0  0
    5.7700   -3.5830   23.6670 C   0  0  0  0  0  0  0  0  0  0  0  0
    5.2670   -3.2410   25.0120 C   0  0  0  0  0  0  0  0  0  0  0  0
    4.0450   -3.0900   25.1720 O   0  0  0  0  0  0  0  0  0  0  0  0
    6.1420   -3.0820   26.0760 N   0  0  0  0  0  0  0  0  0  0  0  0
    6.9130   -4.1950   26.6380 C   0  0  2  0  0  0  0  0  0  0  0  0
    6.0870   -5.4130   26.8960 C   0  0  0  0  0  0  0  0  0  0  0  0
    5.1290   -5.4560   28.0020 C   0  0  0  0  0  0  0  0  0  0  0  0
    6.2590   -6.3920   27.9740 C   0  0  0  0  0  0  0  0  0  0  0  0
    7.5390   -3.7330   27.8210 C   0  0  0  0  0  0  0  0  0  0  0  0
    8.1370   -4.7260   28.4710 C   0  0  0  0  0  0  0  0  0  0  0  0
    9.3280   -4.1290   28.8510 O   0  0  0  0  0  0  0  0  0  0  0  0
    8.0390   -2.2870   27.6160 C   0  0  0  0  0  0  0  0  0  0  0  0
    7.0980   -1.8150   28.4450 C   0  0  0  0  0  0  0  0  0  0  0  0
    6.5750   -3.0480   28.5710 C   0  0  0  0  0  0  0  0  0  0  0  0
    5.8270   -5.0540   23.4710 C   0  0  0  0  0  0  0  0  0  0  0  0
    6.6270   -5.4670   22.2620 C   0  0  0  0  0  0  0  0  0  0  0  0
  1  2  1  0
  2  3  2  0
  2  4  1  0
  4  5  1  0
  5  6  1  0
  6  7  1  0
  7  8  1  0
  8  9  2  0
  8 10  1  0
 11 10  1  1
 11 12  1  0
 12 13  1  0
 12 14  1  0
 11 15  1  0
 15 16  1  0
 16 17  1  0
 15 18  1  0
 18 19  1  0
 15 20  1  0
 19 20  1  0
  7 21  1  0
  4 22  1  0
 21 22  1  0
M  END
