piperidine-amides-33542-covalent
     RDKit          3D

 29 32  0  0  0  0  0  0  0  0999 V2000
    7.1230   -3.3470   19.3000 C   0  0  0  0  0  0  0  0  0  0  0  0
    6.3890   -4.1230   20.3050 C   0  0  0  0  0  0  0  0  0  0  0  0
    5.3180   -4.6590   19.9300 O   0  0  0  0  0  0  0  0  0  0  0  0
    6.9090   -4.3000   21.6110 N   0  0  0  0  0  0  0  0  0  0  0  0
    6.5250   -5.4620   22.3340 C   0  0  0  0  0  0  0  0  0  0  0  0
    6.1850   -5.1860   23.7270 C   0  0  0  0  0  0  0  0  0  0  0  0
    6.2090   -3.7490   24.0860 C   0  0  0  0  0  0  0  0  0  0  0  0
    5.7590   -3.5150   25.4970 C   0  0  0  0  0  0  0  0  0  0  0  0
    4.7260   -4.0880   25.8850 O   0  0  0  0  0  0  0  0  0  0  0  0
    6.4170   -2.6450   26.3930 N   0  0  0  0  0  0  0  0  0  0  0  0
    6.9780   -3.0490   27.6260 C   0  0  0  0  0  0  0  0  0  0  0  0
    6.6760   -2.1990   28.7780 C   0  0  0  0  0  0  0  0  0  0  0  0
    7.9120   -1.4910   29.2640 C   0  0  0  0  0  0  0  0  0  0  0  0
    7.9230   -0.6280   30.3210 C   0  0  0  0  0  0  0  0  0  0  0  0
    6.5960   -0.3530   31.0610 C   0  0  0  0  0  0  0  0  0  0  0  0
    6.7060    0.5440   32.1250 F   0  0  0  0  0  0  0  0  0  0  0  0
    5.3400   -1.0630   30.5770 C   0  0  0  0  0  0  0  0  0  0  0  0
    5.3500   -2.0490   29.3710 C   0  0  0  0  0  0  0  0  0  0  0  0
    6.0650   -1.2670   26.5530 C   0  0  0  0  0  0  0  0  0  0  0  0
    5.1970   -0.8310   25.5580 N   0  0  0  0  0  0  0  0  0  0  0  0
    4.8660    0.4630   25.7290 C   0  0  0  0  0  0  0  0  0  0  0  0
    3.9170    1.1790   24.7650 C   0  0  0  0  0  0  0  0  0  0  0  0
    3.6530    2.6050   25.0950 C   0  0  0  0  0  0  0  0  0  0  0  0
    4.2120    3.2720   26.1900 C   0  0  0  0  0  0  0  0  0  0  0  0
    5.0720    2.6120   27.0590 C   0  0  0  0  0  0  0  0  0  0  0  0
    5.4130    1.1590   26.8260 C   0  0  0  0  0  0  0  0  0  0  0  0
    6.4230    0.0230   27.6750 S   0  0  0  0  0  0  0  0  0  0  0  0
    7.5230   -3.1420   23.7120 C   0  0  0  0  0  0  0  0  0  0  0  0
    7.6790   -3.2380   22.2050 C   0  0  0  0  0  0  0  0  0  0  0  0
  1  2  1  0
  2  3  2  0
  2  4  1  0
  4  5  1  0
  5  6  1  0
  6  7  1  0
  7  8  1  0
  8  9  2  0
  8 10  1  0
 10 11  1  0
 11 12  1  0
 12 13  2  0
 13 14  1  0
 14 15  2  0
 15 16  1  0
 15 17  1  0
 12 18  1  0
 17 18  2  0
 10 19  1  0
 19 20  2  0
 20 21  1  0
 21 22  2  0
 22 23  1  0
 23 24  2  0
 24 25  1  0
 21 26  1  0
 25 26  2  0
 19 27  1  0
 26 27  1  0
  7 28  1  0
  4 29  1  0
 28 29  1  0
M  END
