piperidine-amides-6593-covalent
     RDKit          3D

 24 26  0  0  0  0  0  0  0  0999 V2000
    7.0670   -3.3250   19.3060 C   0  0  0  0  0  0  0  0  0  0  0  0
    6.3870   -4.1550   20.3120 C   0  0  0  0  0  0  0  0  0  0  0  0
    5.3950   -4.8450   19.9840 O   0  0  0  0  0  0  0  0  0  0  0  0
    6.8630   -4.2160   21.6290 N   0  0  0  0  0  0  0  0  0  0  0  0
    7.7450   -3.1660   22.1210 C   0  0  0  0  0  0  0  0  0  0  0  0
    7.6350   -3.1410   23.6420 C   0  0  0  0  0  0  0  0  0  0  0  0
    6.2140   -3.5500   23.9130 C   0  0  0  0  0  0  0  0  0  0  0  0
    5.7820   -3.2230   25.2750 C   0  0  0  0  0  0  0  0  0  0  0  0
    4.6380   -3.5950   25.6180 O   0  0  0  0  0  0  0  0  0  0  0  0
    6.6210   -2.4910   26.1510 N   0  0  0  0  0  0  0  0  0  0  0  0
    5.9990   -1.8100   27.2480 C   0  0  0  0  0  0  0  0  0  0  0  0
    5.3130   -2.9490   27.9890 C   0  0  0  0  0  0  0  0  0  0  0  0
    5.9390   -4.1220   28.3980 C   0  0  0  0  0  0  0  0  0  0  0  0
    5.3390   -5.1690   29.0610 C   0  0  0  0  0  0  0  0  0  0  0  0
    3.9990   -5.1000   29.3750 C   0  0  0  0  0  0  0  0  0  0  0  0
    3.2450   -4.0240   29.0510 C   0  0  0  0  0  0  0  0  0  0  0  0
    3.8160   -2.8340   28.3240 C   0  0  0  0  0  0  0  0  0  0  0  0
    3.0530   -1.7590   27.9990 F   0  0  0  0  0  0  0  0  0  0  0  0
    7.0320   -1.3160   28.1560 C   0  0  0  0  0  0  0  0  0  0  0  0
    6.6160   -0.2470   29.1470 C   0  0  0  0  0  0  0  0  0  0  0  0
    6.0530    0.2980   27.8530 C   0  0  0  0  0  0  0  0  0  0  0  0
    5.3430   -0.6600   27.1120 C   0  0  0  0  0  0  0  0  0  0  0  0
    6.1300   -5.0610   23.7410 C   0  0  0  0  0  0  0  0  0  0  0  0
    6.6970   -5.4350   22.3960 C   0  0  0  0  0  0  0  0  0  0  0  0
  1  2  1  0
  2  3  2  0
  2  4  1  0
  4  5  1  0
  5  6  1  0
  6  7  1  0
  7  8  1  0
  8  9  2  0
  8 10  1  0
 11 10  1  0
 11 12  1  0
 12 13  2  0
 13 14  1  0
 14 15  2  0
 15 16  1  0
 12 17  1  0
 16 17  2  0
 17 18  1  0
 11 19  1  0
 19 20  1  0
 20 21  1  0
 11 22  1  0
 21 22  1  0
  7 23  1  0
  4 24  1  0
 23 24  1  0
M  END
