piperidine-amides-30777-covalent
     RDKit          3D

 27 28  0  0  0  0  0  0  0  0999 V2000
    7.1160   -3.2650   19.1640 C   0  0  0  0  0  0  0  0  0  0  0  0
    6.3550   -3.9860   20.1900 C   0  0  0  0  0  0  0  0  0  0  0  0
    5.2950   -4.5540   19.8820 O   0  0  0  0  0  0  0  0  0  0  0  0
    6.8290   -4.0820   21.5030 N   0  0  0  0  0  0  0  0  0  0  0  0
    7.7140   -3.0780   22.0550 C   0  0  0  0  0  0  0  0  0  0  0  0
    7.0200   -2.5490   23.2720 C   0  0  0  0  0  0  0  0  0  0  0  0
    6.7020   -3.6710   24.1980 C   0  0  0  0  0  0  0  0  0  0  0  0
    5.8430   -3.2300   25.3180 C   0  0  0  0  0  0  0  0  0  0  0  0
    4.6520   -2.8650   25.0940 O   0  0  0  0  0  0  0  0  0  0  0  0
    6.2720   -3.2120   26.6610 N   0  0  0  0  0  0  0  0  0  0  0  0
    6.4990   -1.9030   27.3290 C   0  0  0  0  0  0  0  0  0  0  0  0
    5.2530   -1.5120   28.0370 C   0  0  0  0  0  0  0  0  0  0  0  0
    4.8300   -0.1070   27.8870 C   0  0  0  0  0  0  0  0  0  0  0  0
    4.6760    0.4000   29.0160 O   0  0  0  0  0  0  0  0  0  0  0  0
    3.6760    1.3700   29.0760 C   0  0  0  0  0  0  0  0  0  0  0  0
    2.9090    1.5940   30.3690 C   0  0  0  0  0  0  0  0  0  0  0  0
    1.8640    2.6740   30.2810 C   0  0  0  0  0  0  0  0  0  0  0  0
    1.6340    3.3910   29.1180 C   0  0  0  0  0  0  0  0  0  0  0  0
    0.6850    4.3650   29.0480 F   0  0  0  0  0  0  0  0  0  0  0  0
    2.3720    3.1360   27.9670 C   0  0  0  0  0  0  0  0  0  0  0  0
    3.4330    2.0840   27.9530 C   0  0  0  0  0  0  0  0  0  0  0  0
    5.8980   -4.3540   27.5000 C   0  0  0  0  0  0  0  0  0  0  0  0
    6.4970   -4.2610   28.8730 C   0  0  0  0  0  0  0  0  0  0  0  0
    6.2220   -5.3790   29.6570 O   0  0  0  0  0  0  0  0  0  0  0  0
    6.3930   -6.6960   29.2080 C   0  0  0  0  0  0  0  0  0  0  0  0
    6.0790   -4.8660   23.5840 C   0  0  0  0  0  0  0  0  0  0  0  0
    6.5250   -5.2090   22.3280 C   0  0  0  0  0  0  0  0  0  0  0  0
  1  2  1  0
  2  3  2  0
  2  4  1  0
  4  5  1  0
  5  6  1  0
  6  7  1  0
  7  8  1  0
  8  9  2  0
  8 10  1  0
 10 11  1  0
 11 12  1  0
 12 13  1  0
 13 14  1  0
 14 15  1  0
 15 16  2  0
 16 17  1  0
 17 18  2  0
 18 19  1  0
 18 20  1  0
 15 21  1  0
 20 21  2  0
 10 22  1  0
 22 23  1  0
 23 24  1  0
 24 25  1  0
  7 26  1  0
  4 27  1  0
 26 27  1  0
M  END
