piperidine-amides-14239-covalent
     RDKit          3D

 24 25  0  0  0  0  0  0  0  0999 V2000
    7.2060   -3.9140   19.5660 C   0  0  0  0  0  0  0  0  0  0  0  0
    5.9780   -3.8250   20.2590 C   0  0  0  0  0  0  0  0  0  0  0  0
    4.9620   -3.9510   19.5700 O   0  0  0  0  0  0  0  0  0  0  0  0
    6.1160   -3.7240   21.6350 N   0  0  0  0  0  0  0  0  0  0  0  0
    7.3280   -3.0360   22.0560 C   0  0  0  0  0  0  0  0  0  0  0  0
    7.2860   -2.8110   23.5550 C   0  0  0  0  0  0  0  0  0  0  0  0
    5.9780   -3.3200   24.0120 C   0  0  0  0  0  0  0  0  0  0  0  0
    5.7820   -3.1230   25.4350 C   0  0  0  0  0  0  0  0  0  0  0  0
    5.0460   -2.1960   25.7850 O   0  0  0  0  0  0  0  0  0  0  0  0
    6.4280   -4.0030   26.2880 N   0  0  0  0  0  0  0  0  0  0  0  0
    7.7020   -3.9100   26.8780 C   0  0  0  0  0  0  0  0  0  0  0  0
    7.8590   -4.4540   28.1040 C   0  0  0  0  0  0  0  0  0  0  0  0
    6.7000   -5.0420   28.6400 C   0  0  0  0  0  0  0  0  0  0  0  0
    6.6750   -6.3680   28.9500 C   0  0  0  0  0  0  0  0  0  0  0  0
    5.5020   -7.0780   29.4980 C   0  0  0  0  0  0  0  0  0  0  0  0
    4.1980   -6.3450   29.7630 C   0  0  0  0  0  0  0  0  0  0  0  0
    3.0010   -6.9360   30.2940 N   0  0  0  0  0  0  0  0  0  0  0  0
    1.9590   -6.9070   29.6110 O   0  0  0  0  0  0  0  0  0  0  0  0
    2.8710   -7.1090   31.6420 O   0  0  0  0  0  0  0  0  0  0  0  0
    4.3860   -4.8740   29.3700 C   0  0  0  0  0  0  0  0  0  0  0  0
    5.5520   -4.2950   28.8540 C   0  0  0  0  0  0  0  0  0  0  0  0
    5.5160   -2.4220   28.4510 Br  0  0  0  0  0  0  0  0  0  0  0  0
    5.7500   -4.7600   23.7580 C   0  0  0  0  0  0  0  0  0  0  0  0
    5.8740   -5.0000   22.2880 C   0  0  0  0  0  0  0  0  0  0  0  0
  1  2  1  0
  2  3  2  0
  2  4  1  0
  4  5  1  0
  5  6  1  0
  6  7  1  0
  7  8  1  0
  8  9  2  0
  8 10  1  0
 10 11  1  0
 11 12  1  0
 12 13  1  0
 13 14  2  0
 14 15  1  0
 15 16  2  0
 16 17  1  0
 17 18  2  0
 17 19  1  0
 16 20  1  0
 13 21  1  0
 20 21  2  0
 21 22  1  0
  7 23  1  0
  4 24  1  0
 23 24  1  0
M  CHG  2  17   1  19  -1
M  END
