piperidine-amides-24645-covalent
     RDKit          3D

 24 26  0  0  0  0  0  0  0  0999 V2000
    7.0900   -3.3450   19.2960 C   0  0  0  0  0  0  0  0  0  0  0  0
    6.4190   -4.1960   20.2850 C   0  0  0  0  0  0  0  0  0  0  0  0
    5.3770   -4.8160   19.9770 O   0  0  0  0  0  0  0  0  0  0  0  0
    6.9760   -4.3660   21.5570 N   0  0  0  0  0  0  0  0  0  0  0  0
    6.6380   -5.5280   22.3370 C   0  0  0  0  0  0  0  0  0  0  0  0
    5.8390   -5.0000   23.5330 C   0  0  0  0  0  0  0  0  0  0  0  0
    6.6580   -3.8920   24.1720 C   0  0  0  0  0  0  0  0  0  0  0  0
    5.8930   -3.2910   25.2780 C   0  0  0  0  0  0  0  0  0  0  0  0
    5.2180   -2.2740   25.0440 O   0  0  0  0  0  0  0  0  0  0  0  0
    5.8900   -3.8740   26.5530 N   0  0  0  0  0  0  0  0  0  0  0  0
    4.6050   -4.0550   27.1550 C   0  0  0  0  0  0  0  0  0  0  0  0
    4.6760   -5.2270   28.1010 C   0  0  0  0  0  0  0  0  0  0  0  0
    5.4180   -5.0170   29.1810 C   0  0  0  0  0  0  0  0  0  0  0  0
    6.5920   -4.6380   28.6590 C   0  0  0  0  0  0  0  0  0  0  0  0
    6.3620   -3.5080   27.8710 C   0  0  0  0  0  0  0  0  0  0  0  0
    4.9680   -4.0180   29.8520 O   0  0  0  0  0  0  0  0  0  0  0  0
    4.0120   -4.5770   30.6750 C   0  0  0  0  0  0  0  0  0  0  0  0
    3.3670   -3.6480   31.6900 C   0  0  0  0  0  0  0  0  0  0  0  0
    2.5600   -4.2930   30.5100 C   0  0  0  0  0  0  0  0  0  0  0  0
    4.3070   -5.8620   30.9190 N   0  0  0  0  0  0  0  0  0  0  0  0
    5.3960   -6.1130   29.9870 C   0  0  0  0  0  0  0  0  0  0  0  0
    6.1790   -7.2600   30.0290 O   0  0  0  0  0  0  0  0  0  0  0  0
    6.9900   -2.7920   23.2010 C   0  0  0  0  0  0  0  0  0  0  0  0
    7.7650   -3.3340   22.1870 C   0  0  0  0  0  0  0  0  0  0  0  0
  1  2  1  0
  2  3  2  0
  2  4  1  0
  4  5  1  0
  5  6  1  0
  6  7  1  0
  7  8  1  0
  8  9  2  0
  8 10  1  0
 10 11  1  0
 11 12  1  0
 12 13  1  0
 13 14  1  0
 10 15  1  0
 14 15  1  0
 13 16  1  0
 16 17  1  0
 17 18  1  0
 17 19  1  0
 17 20  1  0
 13 21  1  0
 20 21  1  0
 21 22  2  0
  7 23  1  0
  4 24  1  0
 23 24  1  0
M  END
