piperidine-amides-12647-covalent
     RDKit          3D

 23 24  0  0  0  0  0  0  0  0999 V2000
    7.1840   -3.2370   19.1420 C   0  0  0  0  0  0  0  0  0  0  0  0
    6.3530   -3.8950   20.1700 C   0  0  0  0  0  0  0  0  0  0  0  0
    5.2600   -4.3770   19.8110 O   0  0  0  0  0  0  0  0  0  0  0  0
    6.8220   -4.0090   21.4790 N   0  0  0  0  0  0  0  0  0  0  0  0
    7.6690   -2.9900   22.0160 C   0  0  0  0  0  0  0  0  0  0  0  0
    7.3880   -2.5940   23.3990 C   0  0  0  0  0  0  0  0  0  0  0  0
    6.7690   -3.6370   24.2430 C   0  0  0  0  0  0  0  0  0  0  0  0
    6.2630   -3.0430   25.5140 C   0  0  0  0  0  0  0  0  0  0  0  0
    5.0240   -2.9190   25.6630 O   0  0  0  0  0  0  0  0  0  0  0  0
    7.1800   -2.6120   26.5090 N   0  0  0  0  0  0  0  0  0  0  0  0
    7.2350   -3.1210   27.9100 C   0  0  0  0  0  0  0  0  0  0  0  0
    6.9850   -4.5830   28.0540 C   0  0  0  0  0  0  0  0  0  0  0  0
    5.6710   -5.0530   27.7660 N   0  0  0  0  0  0  0  0  0  0  0  0
    5.3030   -5.3920   26.4090 C   0  0  0  0  0  0  0  0  0  0  0  0
    4.1160   -5.3030   25.9470 O   0  0  0  0  0  0  0  0  0  0  0  0
    6.4620   -5.8110   25.7990 C   0  0  0  0  0  0  0  0  0  0  0  0
    7.6960   -5.4460   26.2330 C   0  0  0  0  0  0  0  0  0  0  0  0
    8.5730   -6.0440   25.4330 C   0  0  0  0  0  0  0  0  0  0  0  0
    7.9170   -6.7940   24.4710 C   0  0  0  0  0  0  0  0  0  0  0  0
    6.5910   -6.6320   24.7230 N   0  0  0  0  0  0  0  0  0  0  0  0
    5.7450   -7.2850   23.9140 C   0  0  0  0  0  0  0  0  0  0  0  0
    5.7030   -4.3710   23.4700 C   0  0  0  0  0  0  0  0  0  0  0  0
    6.3880   -5.0620   22.3520 C   0  0  0  0  0  0  0  0  0  0  0  0
  1  2  1  0
  2  3  2  0
  2  4  1  0
  4  5  1  0
  5  6  1  0
  6  7  1  0
  7  8  1  0
  8  9  2  0
  8 10  1  0
 10 11  1  0
 11 12  1  0
 12 13  1  0
 13 14  1  0
 14 15  2  0
 14 16  1  0
 16 17  2  0
 17 18  1  0
 18 19  2  0
 16 20  1  0
 19 20  1  0
 20 21  1  0
  7 22  1  0
  4 23  1  0
 22 23  1  0
M  END
