piperidine-amides-2381-covalent
     RDKit          3D

 26 28  0  0  0  0  0  0  0  0999 V2000
    7.0590   -3.3050   19.3120 C   0  0  0  0  0  0  0  0  0  0  0  0
    6.3500   -4.1450   20.3060 C   0  0  0  0  0  0  0  0  0  0  0  0
    5.3300   -4.7190   19.9380 O   0  0  0  0  0  0  0  0  0  0  0  0
    6.8710   -4.2950   21.5880 N   0  0  0  0  0  0  0  0  0  0  0  0
    7.6510   -3.2650   22.2320 C   0  0  0  0  0  0  0  0  0  0  0  0
    6.9150   -2.7630   23.4410 C   0  0  0  0  0  0  0  0  0  0  0  0
    6.4960   -3.9640   24.2770 C   0  0  0  0  0  0  0  0  0  0  0  0
    5.7280   -3.4630   25.4420 C   0  0  0  0  0  0  0  0  0  0  0  0
    4.4930   -3.3630   25.3980 O   0  0  0  0  0  0  0  0  0  0  0  0
    6.3900   -3.1010   26.6240 N   0  0  0  0  0  0  0  0  0  0  0  0
    5.8870   -2.0090   27.4130 C   0  0  0  0  0  0  0  0  0  0  0  0
    4.3890   -2.0540   27.6470 C   0  0  0  0  0  0  0  0  0  0  0  0
    3.6280   -2.7660   28.5800 C   0  0  0  0  0  0  0  0  0  0  0  0
    2.2680   -2.7380   28.7130 C   0  0  0  0  0  0  0  0  0  0  0  0
    1.4330   -2.0070   27.9490 C   0  0  0  0  0  0  0  0  0  0  0  0
    0.0760   -1.9820   28.0820 O   0  0  0  0  0  0  0  0  0  0  0  0
   -0.5280   -2.7760   29.0060 C   0  0  0  0  0  0  0  0  0  0  0  0
   -1.9190   -2.6540   28.9070 F   0  0  0  0  0  0  0  0  0  0  0  0
   -0.2210   -4.1120   28.7160 F   0  0  0  0  0  0  0  0  0  0  0  0
   -0.1230   -2.5080   30.2960 F   0  0  0  0  0  0  0  0  0  0  0  0
    1.9260   -1.1750   26.9090 C   0  0  0  0  0  0  0  0  0  0  0  0
    3.4150   -1.2050   26.7640 C   0  0  0  0  0  0  0  0  0  0  0  0
    6.1530   -0.5960   26.8720 C   0  0  0  0  0  0  0  0  0  0  0  0
    6.8500   -0.9520   27.9930 C   0  0  0  0  0  0  0  0  0  0  0  0
    5.8210   -5.0650   23.5470 C   0  0  0  0  0  0  0  0  0  0  0  0
    6.5770   -5.4940   22.3420 C   0  0  0  0  0  0  0  0  0  0  0  0
  1  2  1  0
  2  3  2  0
  2  4  1  0
  4  5  1  0
  5  6  1  0
  6  7  1  0
  7  8  1  0
  8  9  2  0
  8 10  1  0
 11 10  1  0
 11 12  1  0
 12 13  2  0
 13 14  1  0
 14 15  2  0
 15 16  1  0
 16 17  1  0
 17 18  1  0
 17 19  1  0
 17 20  1  0
 15 21  1  0
 12 22  1  0
 21 22  2  0
 11 23  1  0
 11 24  1  0
 23 24  1  0
  7 25  1  0
  4 26  1  0
 25 26  1  0
M  END
