piperidine-amides-32991-covalent
     RDKit          3D

 28 30  0  0  0  0  0  0  0  0999 V2000
    7.0850   -3.3280   19.3340 C   0  0  0  0  0  0  0  0  0  0  0  0
    6.3940   -4.1940   20.3240 C   0  0  0  0  0  0  0  0  0  0  0  0
    5.3730   -4.8130   19.9750 O   0  0  0  0  0  0  0  0  0  0  0  0
    6.9420   -4.3300   21.6180 N   0  0  0  0  0  0  0  0  0  0  0  0
    7.7400   -3.2950   22.2240 C   0  0  0  0  0  0  0  0  0  0  0  0
    6.9190   -2.7300   23.3760 C   0  0  0  0  0  0  0  0  0  0  0  0
    6.5350   -3.8620   24.2730 C   0  0  0  0  0  0  0  0  0  0  0  0
    5.7480   -3.3620   25.4240 C   0  0  0  0  0  0  0  0  0  0  0  0
    4.5230   -3.4560   25.3060 O   0  0  0  0  0  0  0  0  0  0  0  0
    6.3460   -2.7880   26.5560 N   0  0  0  0  0  0  0  0  0  0  0  0
    6.2350   -3.3030   27.8820 C   0  0  0  0  0  0  0  0  0  0  0  0
    5.8340   -4.5760   28.1920 C   0  0  0  0  0  0  0  0  0  0  0  0
    4.5040   -4.7240   28.6240 C   0  0  0  0  0  0  0  0  0  0  0  0
    4.0660   -5.9380   29.0940 C   0  0  0  0  0  0  0  0  0  0  0  0
    2.9440   -6.2420   29.7320 O   0  0  0  0  0  0  0  0  0  0  0  0
    4.8720   -7.0170   28.8940 O   0  0  0  0  0  0  0  0  0  0  0  0
    6.1370   -7.1650   29.5360 C   0  0  0  0  0  0  0  0  0  0  0  0
    6.2780   -1.3360   26.7250 C   0  0  0  0  0  0  0  0  0  0  0  0
    6.4510   -0.6660   27.9670 N   0  0  0  0  0  0  0  0  0  0  0  0
    6.3420    0.7470   27.9390 C   0  0  0  0  0  0  0  0  0  0  0  0
    6.4880    1.4680   29.0470 C   0  0  0  0  0  0  0  0  0  0  0  0
    6.3760    2.9260   28.9940 C   0  0  0  0  0  0  0  0  0  0  0  0
    6.0850    3.3670   27.5360 C   0  0  0  0  0  0  0  0  0  0  0  0
    5.8980    2.7800   26.2660 C   0  0  0  0  0  0  0  0  0  0  0  0
    6.0850    1.3030   26.7230 C   0  0  0  0  0  0  0  0  0  0  0  0
    5.9780    0.0020   25.6070 S   0  0  0  0  0  0  0  0  0  0  0  0
    5.7970   -4.9870   23.5980 C   0  0  0  0  0  0  0  0  0  0  0  0
    6.6500   -5.4850   22.4320 C   0  0  0  0  0  0  0  0  0  0  0  0
  1  2  1  0
  2  3  2  0
  2  4  1  0
  4  5  1  0
  5  6  1  0
  6  7  1  0
  7  8  1  0
  8  9  2  0
  8 10  1  0
 10 11  1  0
 11 12  1  0
 12 13  1  0
 13 14  1  0
 14 15  2  0
 14 16  1  0
 16 17  1  0
 10 18  1  0
 18 19  2  0
 19 20  1  0
 20 21  2  0
 21 22  1  0
 22 23  2  0
 23 24  1  0
 20 25  1  0
 24 25  2  0
 18 26  1  0
 25 26  1  0
  7 27  1  0
  4 28  1  0
 27 28  1  0
M  END
