piperidine-amides-2662-covalent
     RDKit          3D

 25 26  0  0  0  0  0  0  0  0999 V2000
    7.1230   -3.2420   19.1850 C   0  0  0  0  0  0  0  0  0  0  0  0
    6.3480   -4.0010   20.2050 C   0  0  0  0  0  0  0  0  0  0  0  0
    5.2770   -4.4880   19.8550 O   0  0  0  0  0  0  0  0  0  0  0  0
    6.8590   -4.1780   21.4890 N   0  0  0  0  0  0  0  0  0  0  0  0
    6.5920   -5.3720   22.2470 C   0  0  0  0  0  0  0  0  0  0  0  0
    5.8100   -5.0000   23.4740 C   0  0  0  0  0  0  0  0  0  0  0  0
    6.5300   -3.8590   24.1900 C   0  0  0  0  0  0  0  0  0  0  0  0
    5.6860   -3.4520   25.3310 C   0  0  0  0  0  0  0  0  0  0  0  0
    4.5320   -3.0530   25.1180 O   0  0  0  0  0  0  0  0  0  0  0  0
    6.1710   -3.5050   26.6540 N   0  0  0  0  0  0  0  0  0  0  0  0
    6.0450   -4.7380   27.4160 C   0  0  1  0  0  0  0  0  0  0  0  0
    6.6130   -4.4430   28.7770 C   0  0  0  0  0  0  0  0  0  0  0  0
    5.6630   -3.7910   29.5380 O   0  0  0  0  0  0  0  0  0  0  0  0
    4.6640   -5.1800   27.6330 C   0  0  0  0  0  0  0  0  0  0  0  0
    3.6880   -5.0120   26.6880 O   0  0  0  0  0  0  0  0  0  0  0  0
    4.2610   -5.7970   28.8070 O   0  0  0  0  0  0  0  0  0  0  0  0
    4.3960   -7.2070   28.9690 C   0  0  0  0  0  0  0  0  0  0  0  0
    3.9920   -7.5670   30.2260 C   0  0  0  0  0  0  0  0  0  0  0  0
    2.6790   -8.0750   30.7850 C   0  0  0  0  0  0  0  0  0  0  0  0
    2.7370   -8.3310   32.2580 C   0  0  0  0  0  0  0  0  0  0  0  0
    4.0030   -8.0820   33.0310 C   0  0  0  0  0  0  0  0  0  0  0  0
    5.2230   -7.5770   32.3330 C   0  0  0  0  0  0  0  0  0  0  0  0
    5.3200   -7.2760   30.8700 C   0  0  0  0  0  0  0  0  0  0  0  0
    6.9530   -2.7250   23.3370 C   0  0  0  0  0  0  0  0  0  0  0  0
    7.6710   -3.1550   22.1160 C   0  0  0  0  0  0  0  0  0  0  0  0
  1  2  1  0
  2  3  2  0
  2  4  1  0
  4  5  1  0
  5  6  1  0
  6  7  1  0
  7  8  1  0
  8  9  2  0
  8 10  1  0
 10 11  1  0
 11 12  1  1
 12 13  1  0
 11 14  1  0
 14 15  2  0
 14 16  1  0
 16 17  1  0
 17 18  1  0
 18 19  2  0
 19 20  1  0
 20 21  2  0
 21 22  1  0
 18 23  1  0
 22 23  2  0
  7 24  1  0
  4 25  1  0
 24 25  1  0
M  END
