piperidine-amides-30024-covalent
     RDKit          3D

 27 28  0  0  0  0  0  0  0  0999 V2000
    7.1050   -3.3140   19.2670 C   0  0  0  0  0  0  0  0  0  0  0  0
    6.3340   -4.0370   20.2680 C   0  0  0  0  0  0  0  0  0  0  0  0
    5.3040   -4.6170   19.9220 O   0  0  0  0  0  0  0  0  0  0  0  0
    6.7950   -4.1300   21.6320 N   0  0  0  0  0  0  0  0  0  0  0  0
    6.6410   -5.3870   22.3330 C   0  0  0  0  0  0  0  0  0  0  0  0
    6.4910   -5.1540   23.8140 C   0  0  0  0  0  0  0  0  0  0  0  0
    6.1020   -3.7030   23.9640 C   0  0  0  0  0  0  0  0  0  0  0  0
    5.5530   -3.3290   25.3100 C   0  0  0  0  0  0  0  0  0  0  0  0
    4.3990   -2.8720   25.4050 O   0  0  0  0  0  0  0  0  0  0  0  0
    6.2960   -3.4510   26.5160 N   0  0  0  0  0  0  0  0  0  0  0  0
    6.4540   -2.1690   27.2020 C   0  0  0  0  0  0  0  0  0  0  0  0
    6.7220   -2.3580   28.6720 C   0  0  0  0  0  0  0  0  0  0  0  0
    7.4090   -1.3670   29.3420 C   0  0  0  0  0  0  0  0  0  0  0  0
    6.0210   -4.7030   27.3430 C   0  0  1  0  0  0  0  0  0  0  0  0
    6.6360   -4.6100   28.5770 C   0  0  0  0  0  0  0  0  0  0  0  0
    4.8200   -5.3390   27.3260 C   0  0  0  0  0  0  0  0  0  0  0  0
    3.9320   -5.2370   28.2350 O   0  0  0  0  0  0  0  0  0  0  0  0
    4.7380   -6.0820   26.2000 N   0  0  0  0  0  0  0  0  0  0  0  0
    3.7130   -7.0420   25.8650 C   0  0  0  0  0  0  0  0  0  0  0  0
    3.0120   -7.6920   26.8660 C   0  0  0  0  0  0  0  0  0  0  0  0
    2.0230   -8.6150   26.5270 C   0  0  0  0  0  0  0  0  0  0  0  0
    1.7830   -8.8460   25.1020 C   0  0  0  0  0  0  0  0  0  0  0  0
    2.4960   -8.1850   24.1320 C   0  0  0  0  0  0  0  0  0  0  0  0
    3.4670   -7.2770   24.5070 C   0  0  0  0  0  0  0  0  0  0  0  0
    4.2480   -6.5560   23.4610 C   0  0  0  0  0  0  0  0  0  0  0  0
    7.2090   -2.7890   23.5840 C   0  0  0  0  0  0  0  0  0  0  0  0
    7.6670   -3.1050   22.1730 C   0  0  0  0  0  0  0  0  0  0  0  0
  1  2  1  0
  2  3  2  0
  2  4  1  0
  4  5  1  0
  5  6  1  0
  6  7  1  0
  7  8  1  0
  8  9  2  0
  8 10  1  0
 10 11  1  0
 11 12  1  0
 12 13  1  0
 10 14  1  0
 14 15  1  1
 14 16  1  0
 16 17  2  0
 16 18  1  0
 18 19  1  0
 19 20  2  0
 20 21  1  0
 21 22  2  0
 22 23  1  0
 19 24  1  0
 23 24  2  0
 24 25  1  0
  7 26  1  0
  4 27  1  0
 26 27  1  0
M  END
