piperidine-amides-5080-covalent
     RDKit          3D

 22 23  0  0  0  0  0  0  0  0999 V2000
    7.0760   -3.2940   19.2170 C   0  0  0  0  0  0  0  0  0  0  0  0
    6.3570   -4.0530   20.2700 C   0  0  0  0  0  0  0  0  0  0  0  0
    5.3010   -4.6100   19.9100 O   0  0  0  0  0  0  0  0  0  0  0  0
    6.8560   -4.1810   21.5800 N   0  0  0  0  0  0  0  0  0  0  0  0
    7.6880   -3.1650   22.1350 C   0  0  0  0  0  0  0  0  0  0  0  0
    7.3590   -2.8970   23.5210 C   0  0  0  0  0  0  0  0  0  0  0  0
    6.0490   -3.4650   23.8930 C   0  0  0  0  0  0  0  0  0  0  0  0
    5.6640   -3.0700   25.2690 C   0  0  0  0  0  0  0  0  0  0  0  0
    4.5310   -2.5820   25.4290 O   0  0  0  0  0  0  0  0  0  0  0  0
    6.5430   -3.2130   26.3560 N   0  0  0  0  0  0  0  0  0  0  0  0
    6.1410   -3.6290   27.7210 C   0  0  0  0  0  0  0  0  0  0  0  0
    5.5480   -5.0040   27.8270 C   0  0  0  0  0  0  0  0  0  0  0  0
    4.9250   -5.1400   29.0230 F   0  0  0  0  0  0  0  0  0  0  0  0
    6.5670   -5.9630   27.7840 F   0  0  0  0  0  0  0  0  0  0  0  0
    4.6010   -5.4220   26.7950 C   0  0  0  0  0  0  0  0  0  0  0  0
    4.6050   -6.6980   26.3260 C   0  0  0  0  0  0  0  0  0  0  0  0
    3.7320   -7.1360   25.3510 C   0  0  0  0  0  0  0  0  0  0  0  0
    2.8230   -6.2610   24.8320 C   0  0  0  0  0  0  0  0  0  0  0  0
    2.8000   -4.9720   25.2930 C   0  0  0  0  0  0  0  0  0  0  0  0
    3.6770   -4.5590   26.2630 C   0  0  0  0  0  0  0  0  0  0  0  0
    5.9980   -4.9600   23.6700 C   0  0  0  0  0  0  0  0  0  0  0  0
    6.6540   -5.3710   22.3910 C   0  0  0  0  0  0  0  0  0  0  0  0
  1  2  1  0
  2  3  2  0
  2  4  1  0
  4  5  1  0
  5  6  1  0
  6  7  1  0
  7  8  1  0
  8  9  2  0
  8 10  1  0
 10 11  1  0
 11 12  1  0
 12 13  1  0
 12 14  1  0
 12 15  1  0
 15 16  2  0
 16 17  1  0
 17 18  2  0
 18 19  1  0
 15 20  1  0
 19 20  2  0
  7 21  1  0
  4 22  1  0
 21 22  1  0
M  END
