piperidine-amides-7313-covalent
     RDKit          3D

 20 21  0  0  0  0  0  0  0  0999 V2000
    7.1060   -3.2720   19.1800 C   0  0  0  0  0  0  0  0  0  0  0  0
    6.3700   -4.0150   20.2080 C   0  0  0  0  0  0  0  0  0  0  0  0
    5.2740   -4.5260   19.8670 O   0  0  0  0  0  0  0  0  0  0  0  0
    6.9160   -4.1750   21.4810 N   0  0  0  0  0  0  0  0  0  0  0  0
    7.6970   -3.1220   22.0860 C   0  0  0  0  0  0  0  0  0  0  0  0
    6.9470   -2.6330   23.2830 C   0  0  0  0  0  0  0  0  0  0  0  0
    6.5510   -3.7840   24.1600 C   0  0  0  0  0  0  0  0  0  0  0  0
    5.8380   -3.2690   25.3460 C   0  0  0  0  0  0  0  0  0  0  0  0
    4.8090   -2.5840   25.1660 O   0  0  0  0  0  0  0  0  0  0  0  0
    6.2530   -3.5300   26.6650 N   0  0  0  0  0  0  0  0  0  0  0  0
    5.9320   -4.8010   27.2540 C   0  0  0  0  0  0  0  0  0  0  0  0
    6.4090   -4.9710   28.6890 C   0  0  0  0  0  0  0  0  0  0  0  0
    5.3970   -5.8320   29.3360 N   0  0  0  0  0  0  0  0  0  0  0  0
    5.2550   -7.0830   28.9610 C   0  0  0  0  0  0  0  0  0  0  0  0
    3.9520   -7.5440   29.0250 C   0  0  0  0  0  0  0  0  0  0  0  0
    3.2830   -6.4620   29.3880 O   0  0  0  0  0  0  0  0  0  0  0  0
    4.1360   -5.4950   29.5780 C   0  0  0  0  0  0  0  0  0  0  0  0
    3.6780   -4.2530   30.0020 O   0  0  0  0  0  0  0  0  0  0  0  0
    5.7440   -4.7600   23.3640 C   0  0  0  0  0  0  0  0  0  0  0  0
    6.4780   -5.2500   22.3090 C   0  0  0  0  0  0  0  0  0  0  0  0
  1  2  1  0
  2  3  2  0
  2  4  1  0
  4  5  1  0
  5  6  1  0
  6  7  1  0
  7  8  1  0
  8  9  2  0
  8 10  1  0
 10 11  1  0
 11 12  1  0
 12 13  1  0
 13 14  1  0
 14 15  1  0
 15 16  1  0
 13 17  1  0
 16 17  1  0
 17 18  2  0
  7 19  1  0
  4 20  1  0
 19 20  1  0
M  END
