piperidine-amides-35037-covalent
     RDKit          3D

 33 36  0  0  0  0  0  0  0  0999 V2000
    7.0610   -3.3470   19.3520 C   0  0  0  0  0  0  0  0  0  0  0  0
    6.3830   -4.2370   20.3310 C   0  0  0  0  0  0  0  0  0  0  0  0
    5.3500   -4.7890   19.9580 O   0  0  0  0  0  0  0  0  0  0  0  0
    6.9260   -4.4660   21.5950 N   0  0  0  0  0  0  0  0  0  0  0  0
    6.3550   -5.4730   22.4510 C   0  0  0  0  0  0  0  0  0  0  0  0
    5.6390   -4.7970   23.5960 C   0  0  0  0  0  0  0  0  0  0  0  0
    6.5530   -3.7110   24.1840 C   0  0  0  0  0  0  0  0  0  0  0  0
    5.9190   -2.9720   25.2910 C   0  0  0  0  0  0  0  0  0  0  0  0
    4.7120   -3.0870   25.5680 O   0  0  0  0  0  0  0  0  0  0  0  0
    6.7990   -2.1250   25.9940 N   0  0  0  0  0  0  0  0  0  0  0  0
    8.0900   -2.6440   26.2560 C   0  0  0  0  0  0  0  0  0  0  0  0
    7.8170   -3.8890   27.0130 C   0  0  0  0  0  0  0  0  0  0  0  0
    6.7970   -3.7750   27.9410 C   0  0  0  0  0  0  0  0  0  0  0  0
    6.4180   -4.7540   28.6870 C   0  0  0  0  0  0  0  0  0  0  0  0
    7.0990   -5.8140   28.4620 C   0  0  0  0  0  0  0  0  0  0  0  0
    6.6810   -6.8620   29.2710 F   0  0  0  0  0  0  0  0  0  0  0  0
    8.2160   -6.1390   27.5290 C   0  0  0  0  0  0  0  0  0  0  0  0
    8.7070   -5.0440   26.6180 C   0  0  0  0  0  0  0  0  0  0  0  0
    9.7220   -5.3310   25.7590 O   0  0  0  0  0  0  0  0  0  0  0  0
    6.4710   -1.0620   26.9010 C   0  0  0  0  0  0  0  0  0  0  0  0
    6.9170   -1.2500   28.1250 N   0  0  0  0  0  0  0  0  0  0  0  0
    6.8470   -0.4340   29.3790 C   0  0  0  0  0  0  0  0  0  0  0  0
    6.0760    0.7220   28.7960 C   0  0  0  0  0  0  0  0  0  0  0  0
    5.5430    0.9880   27.4220 C   0  0  0  0  0  0  0  0  0  0  0  0
    5.7130    0.0700   26.3320 C   0  0  0  0  0  0  0  0  0  0  0  0
    5.2070    0.2830   24.9190 C   0  0  0  0  0  0  0  0  0  0  0  0
    5.0710   -0.8380   24.1270 N   0  0  0  0  0  0  0  0  0  0  0  0
    4.5920   -0.7830   22.7250 C   0  0  0  0  0  0  0  0  0  0  0  0
    4.2640    0.6100   22.2390 C   0  0  0  0  0  0  0  0  0  0  0  0
    4.4410    1.7960   23.1820 C   0  0  0  0  0  0  0  0  0  0  0  0
    4.8850    1.5540   24.4110 N   0  0  0  0  0  0  0  0  0  0  0  0
    6.9290   -2.7550   23.0710 C   0  0  0  0  0  0  0  0  0  0  0  0
    7.7320   -3.4710   22.2710 C   0  0  0  0  0  0  0  0  0  0  0  0
  1  2  1  0
  2  3  2  0
  2  4  1  0
  4  5  1  0
  5  6  1  0
  6  7  1  0
  7  8  1  0
  8  9  2  0
  8 10  1  0
 10 11  1  0
 11 12  1  0
 12 13  2  0
 13 14  1  0
 14 15  2  0
 15 16  1  0
 15 17  1  0
 12 18  1  0
 17 18  2  0
 18 19  1  0
 10 20  1  0
 20 21  2  0
 21 22  1  0
 22 23  2  0
 23 24  1  0
 20 25  1  0
 24 25  2  0
 25 26  1  0
 26 27  2  0
 27 28  1  0
 28 29  2  0
 29 30  1  0
 26 31  1  0
 30 31  2  0
  7 32  1  0
  4 33  1  0
 32 33  1  0
M  END
