piperidine-amides-5071-covalent
     RDKit          3D

 22 23  0  0  0  0  0  0  0  0999 V2000
    7.0350   -3.3480   19.3220 C   0  0  0  0  0  0  0  0  0  0  0  0
    6.3830   -4.1850   20.3540 C   0  0  0  0  0  0  0  0  0  0  0  0
    5.3800   -4.8260   19.9820 O   0  0  0  0  0  0  0  0  0  0  0  0
    6.9020   -4.2870   21.6640 N   0  0  0  0  0  0  0  0  0  0  0  0
    7.6660   -3.2210   22.2340 C   0  0  0  0  0  0  0  0  0  0  0  0
    7.2790   -2.9360   23.6110 C   0  0  0  0  0  0  0  0  0  0  0  0
    6.0530   -3.6500   23.9950 C   0  0  0  0  0  0  0  0  0  0  0  0
    5.6220   -3.2560   25.3630 C   0  0  0  0  0  0  0  0  0  0  0  0
    4.4030   -3.2550   25.6060 O   0  0  0  0  0  0  0  0  0  0  0  0
    6.5440   -2.8840   26.3550 N   0  0  0  0  0  0  0  0  0  0  0  0
    6.4570   -1.5970   27.0770 C   0  0  0  0  0  0  0  0  0  0  0  0
    5.7560   -0.4480   26.4910 C   0  0  0  0  0  0  0  0  0  0  0  0
    5.6720    0.8020   27.2030 C   0  0  0  0  0  0  0  0  0  0  0  0
    4.8320    2.1790   26.5090 Cl  0  0  0  0  0  0  0  0  0  0  0  0
    6.2520    0.9430   28.4500 C   0  0  0  0  0  0  0  0  0  0  0  0
    6.9590   -0.0330   29.1600 C   0  0  0  0  0  0  0  0  0  0  0  0
    7.4260    0.4000   30.3680 C   0  0  0  0  0  0  0  0  0  0  0  0
    7.4970   -0.3900   31.5210 N   0  0  0  0  0  0  0  0  0  0  0  0
    7.8090    1.7520   30.2690 O   0  0  0  0  0  0  0  0  0  0  0  0
    7.0400   -1.3370   28.4090 C   0  0  0  0  0  0  0  0  0  0  0  0
    6.0670   -5.1170   23.7480 C   0  0  0  0  0  0  0  0  0  0  0  0
    6.5990   -5.4430   22.4810 C   0  0  0  0  0  0  0  0  0  0  0  0
  1  2  1  0
  2  3  2  0
  2  4  1  0
  4  5  1  0
  5  6  1  0
  6  7  1  0
  7  8  1  0
  8  9  2  0
  8 10  1  0
 10 11  1  0
 11 12  2  0
 12 13  1  0
 13 14  1  0
 13 15  2  0
 15 16  1  0
 16 17  1  0
 17 18  1  0
 17 19  2  0
 11 20  1  0
 16 20  2  0
  7 21  1  0
  4 22  1  0
 21 22  1  0
M  END
