piperidine-amides-30581-covalent
     RDKit          3D

 23 25  0  0  0  0  0  0  0  0999 V2000
    7.0910   -3.3070   19.2310 C   0  0  0  0  0  0  0  0  0  0  0  0
    6.2720   -4.0500   20.1830 C   0  0  0  0  0  0  0  0  0  0  0  0
    5.1790   -4.5030   19.8370 O   0  0  0  0  0  0  0  0  0  0  0  0
    6.7250   -4.3240   21.4660 N   0  0  0  0  0  0  0  0  0  0  0  0
    6.2960   -5.4920   22.1950 C   0  0  0  0  0  0  0  0  0  0  0  0
    5.4830   -4.9440   23.3430 C   0  0  0  0  0  0  0  0  0  0  0  0
    6.1280   -3.7380   24.0070 C   0  0  0  0  0  0  0  0  0  0  0  0
    5.2970   -3.1590   25.1030 C   0  0  0  0  0  0  0  0  0  0  0  0
    4.3430   -2.3650   24.8830 O   0  0  0  0  0  0  0  0  0  0  0  0
    5.5570   -3.5010   26.4310 N   0  0  0  0  0  0  0  0  0  0  0  0
    4.9000   -2.8990   27.6020 C   0  0  0  0  0  0  0  0  0  0  0  0
    4.6800   -3.9900   28.5700 C   0  0  0  0  0  0  0  0  0  0  0  0
    5.9080   -4.5910   29.0700 C   0  0  0  0  0  0  0  0  0  0  0  0
    6.8200   -4.9950   28.0010 C   0  0  0  0  0  0  0  0  0  0  0  0
    7.9310   -5.9430   28.2590 C   0  0  0  0  0  0  0  0  0  0  0  0
    8.6840   -6.1200   27.0500 C   0  0  0  0  0  0  0  0  0  0  0  0
    9.6790   -6.6130   26.3640 C   0  0  0  0  0  0  0  0  0  0  0  0
    8.4950   -5.5840   25.7270 C   0  0  0  0  0  0  0  0  0  0  0  0
    7.4430   -4.6880   25.4240 C   0  0  0  0  0  0  0  0  0  0  0  0
    7.3210   -4.0320   23.6500 Br  0  0  0  0  0  0  0  0  0  0  0  0
    6.6190   -4.4130   26.6380 C   0  0  0  0  0  0  0  0  0  0  0  0
    6.5250   -2.7000   22.9250 C   0  0  0  0  0  0  0  0  0  0  0  0
    7.3420   -3.1950   22.1760 C   0  0  0  0  0  0  0  0  0  0  0  0
  1  2  1  0
  2  3  2  0
  2  4  1  0
  4  5  1  0
  5  6  1  0
  6  7  1  0
  7  8  1  0
  8  9  2  0
  8 10  1  0
 10 11  1  0
 11 12  1  0
 12 13  1  0
 13 14  1  0
 14 15  2  0
 15 16  1  0
 16 17  1  0
 16 18  2  0
 18 19  1  0
 19 20  1  0
 10 21  1  0
 14 21  1  0
 19 21  2  0
  7 22  1  0
  4 23  1  0
 22 23  1  0
M  END
