piperidine-amides-12447-covalent
     RDKit          3D

 23 25  0  0  0  0  0  0  0  0999 V2000
    7.0510   -3.3220   19.2800 C   0  0  0  0  0  0  0  0  0  0  0  0
    6.3610   -4.1190   20.2880 C   0  0  0  0  0  0  0  0  0  0  0  0
    5.3520   -4.7480   19.9630 O   0  0  0  0  0  0  0  0  0  0  0  0
    6.8750   -4.2180   21.6350 N   0  0  0  0  0  0  0  0  0  0  0  0
    7.6430   -3.1180   22.2010 C   0  0  0  0  0  0  0  0  0  0  0  0
    7.3880   -2.9140   23.6820 C   0  0  0  0  0  0  0  0  0  0  0  0
    6.0870   -3.6090   24.0410 C   0  0  0  0  0  0  0  0  0  0  0  0
    5.5760   -3.2550   25.3990 C   0  0  0  0  0  0  0  0  0  0  0  0
    4.3540   -3.1460   25.6020 O   0  0  0  0  0  0  0  0  0  0  0  0
    6.4570   -3.0340   26.4910 N   0  0  0  0  0  0  0  0  0  0  0  0
    6.2030   -3.7560   27.7310 C   0  0  0  0  0  0  0  0  0  0  0  0
    5.6090   -2.8220   28.7600 C   0  0  0  0  0  0  0  0  0  0  0  0
    4.2790   -2.8680   29.1620 N   0  0  0  0  0  0  0  0  0  0  0  0
    4.1720   -1.9010   30.0730 C   0  0  0  0  0  0  0  0  0  0  0  0
    3.1360   -1.3850   30.8890 C   0  0  0  0  0  0  0  0  0  0  0  0
    3.2520   -0.3210   31.8140 C   0  0  0  0  0  0  0  0  0  0  0  0
    4.5340    0.3650   32.0070 N   0  0  0  0  0  0  0  0  0  0  0  0
    5.4830   -0.2100   31.1670 C   0  0  0  0  0  0  0  0  0  0  0  0
    5.2550   -1.2260   30.3220 C   0  0  0  0  0  0  0  0  0  0  0  0
    6.2220   -1.8140   29.4660 N   0  0  0  0  0  0  0  0  0  0  0  0
    7.5520   -1.2260   29.5540 C   0  0  0  0  0  0  0  0  0  0  0  0
    6.0710   -5.0570   23.7420 C   0  0  0  0  0  0  0  0  0  0  0  0
    6.5560   -5.3750   22.4040 C   0  0  0  0  0  0  0  0  0  0  0  0
  1  2  1  0
  2  3  2  0
  2  4  1  0
  4  5  1  0
  5  6  1  0
  6  7  1  0
  7  8  1  0
  8  9  2  0
  8 10  1  0
 10 11  1  0
 11 12  1  0
 12 13  2  0
 13 14  1  0
 14 15  2  0
 15 16  1  0
 16 17  2  0
 17 18  1  0
 14 19  1  0
 18 19  2  0
 12 20  1  0
 19 20  1  0
 20 21  1  0
  7 22  1  0
  4 23  1  0
 22 23  1  0
M  END
