piperidine-amides-98-covalent
     RDKit          3D

 21 23  0  0  0  0  0  0  0  0999 V2000
    7.1670   -3.2880   19.3570 C   0  0  0  0  0  0  0  0  0  0  0  0
    6.3480   -4.0080   20.3110 C   0  0  0  0  0  0  0  0  0  0  0  0
    5.3060   -4.6030   19.9010 O   0  0  0  0  0  0  0  0  0  0  0  0
    6.6910   -4.0960   21.6690 N   0  0  0  0  0  0  0  0  0  0  0  0
    7.6450   -3.0790   22.1800 C   0  0  0  0  0  0  0  0  0  0  0  0
    7.6380   -3.4140   23.7130 C   0  0  0  0  0  0  0  0  0  0  0  0
    6.1970   -3.7310   24.0050 C   0  0  0  0  0  0  0  0  0  0  0  0
    5.7510   -3.4100   25.4980 C   0  0  0  0  0  0  0  0  0  0  0  0
    5.1680   -4.3520   26.0020 O   0  0  0  0  0  0  0  0  0  0  0  0
    6.1130   -2.2300   25.7650 N   0  0  0  0  0  0  0  0  0  0  0  0
    6.4660   -0.9460   25.9960 C   0  0  0  0  0  0  0  0  0  0  0  0
    6.0950    0.3520   25.7180 C   0  0  0  0  0  0  0  0  0  0  0  0
    6.1370    1.2900   26.8490 N   0  0  0  0  0  0  0  0  0  0  0  0
    6.6310    2.5270   26.7590 C   0  0  0  0  0  0  0  0  0  0  0  0
    6.4890    3.1330   28.0730 C   0  0  0  0  0  0  0  0  0  0  0  0
    5.9210    2.1790   28.8120 N   0  0  0  0  0  0  0  0  0  0  0  0
    5.7100    1.0670   28.0680 N   0  0  0  0  0  0  0  0  0  0  0  0
    4.9370    0.5590   24.7670 C   0  0  0  0  0  0  0  0  0  0  0  0
    6.0550    0.8850   24.1740 C   0  0  0  0  0  0  0  0  0  0  0  0
    5.8080   -5.1320   23.5900 C   0  0  0  0  0  0  0  0  0  0  0  0
    6.6210   -5.3970   22.3210 C   0  0  0  0  0  0  0  0  0  0  0  0
  1  2  1  0
  2  3  2  0
  2  4  1  0
  4  5  1  0
  5  6  1  0
  6  7  1  0
  7  8  1  0
  8  9  2  0
  8 10  1  0
 10 11  1  0
 12 11  1  0
 12 13  1  0
 13 14  1  0
 14 15  2  0
 15 16  1  0
 13 17  1  0
 16 17  2  0
 12 18  1  0
 12 19  1  0
 18 19  1  0
  7 20  1  0
  4 21  1  0
 20 21  1  0
M  END
