piperidine-amides-19776-covalent
     RDKit          3D

 22 24  0  0  0  0  0  0  0  0999 V2000
    7.0710   -3.3260   19.2920 C   0  0  0  0  0  0  0  0  0  0  0  0
    6.3140   -4.1170   20.2930 C   0  0  0  0  0  0  0  0  0  0  0  0
    5.2700   -4.6340   19.9120 O   0  0  0  0  0  0  0  0  0  0  0  0
    6.8230   -4.2990   21.5840 N   0  0  0  0  0  0  0  0  0  0  0  0
    6.5420   -5.4860   22.3550 C   0  0  0  0  0  0  0  0  0  0  0  0
    5.7320   -5.0990   23.5590 C   0  0  0  0  0  0  0  0  0  0  0  0
    6.4940   -4.0130   24.3100 C   0  0  0  0  0  0  0  0  0  0  0  0
    5.6910   -3.6390   25.5160 C   0  0  0  0  0  0  0  0  0  0  0  0
    4.5040   -3.3310   25.3420 O   0  0  0  0  0  0  0  0  0  0  0  0
    6.2100   -3.6020   26.8500 N   0  0  0  0  0  0  0  0  0  0  0  0
    5.8160   -2.5470   27.7040 C   0  0  0  0  0  0  0  0  0  0  0  0
    5.5750   -3.3480   28.9250 C   0  0  0  0  0  0  0  0  0  0  0  0
    5.4850   -4.6990   28.7980 C   0  0  1  0  0  0  0  0  0  0  0  0
    4.2480   -5.2160   28.5770 C   0  0  0  0  0  0  0  0  0  0  0  0
    3.4690   -4.9360   29.6740 C   0  0  0  0  0  0  0  0  0  0  0  0
    3.0470   -6.0750   30.5810 C   0  0  0  0  0  0  0  0  0  0  0  0
    2.2040   -6.6340   29.4870 C   0  0  0  0  0  0  0  0  0  0  0  0
    3.2200   -7.5020   28.8070 C   0  0  0  0  0  0  0  0  0  0  0  0
    4.2580   -6.5720   28.2570 C   0  0  0  0  0  0  0  0  0  0  0  0
    6.4760   -4.7110   27.8340 C   0  0  0  0  0  0  0  0  0  0  0  0
    6.9240   -2.8670   23.4770 C   0  0  0  0  0  0  0  0  0  0  0  0
    7.6120   -3.2530   22.2150 C   0  0  0  0  0  0  0  0  0  0  0  0
  1  2  1  0
  2  3  2  0
  2  4  1  0
  4  5  1  0
  5  6  1  0
  6  7  1  0
  7  8  1  0
  8  9  2  0
  8 10  1  0
 10 11  1  0
 11 12  1  0
 12 13  1  0
 13 14  1  6
 14 15  1  0
 15 16  1  0
 16 17  1  0
 17 18  1  0
 14 19  1  0
 18 19  1  0
 10 20  1  0
 13 20  1  0
  7 21  1  0
  4 22  1  0
 21 22  1  0
M  END
