piperidine-amides-11372-covalent
     RDKit          3D

 28 28  0  0  0  0  0  0  0  0999 V2000
    7.1900   -3.3040   19.1570 C   0  0  0  0  0  0  0  0  0  0  0  0
    6.4070   -4.0030   20.1720 C   0  0  0  0  0  0  0  0  0  0  0  0
    5.3090   -4.5000   19.8710 O   0  0  0  0  0  0  0  0  0  0  0  0
    6.9320   -4.1630   21.4580 N   0  0  0  0  0  0  0  0  0  0  0  0
    7.8200   -3.1840   22.0290 C   0  0  0  0  0  0  0  0  0  0  0  0
    7.0600   -2.6290   23.1850 C   0  0  0  0  0  0  0  0  0  0  0  0
    6.6850   -3.6880   24.1690 C   0  0  0  0  0  0  0  0  0  0  0  0
    6.0300   -3.0560   25.3260 C   0  0  0  0  0  0  0  0  0  0  0  0
    4.7800   -2.8300   25.3090 O   0  0  0  0  0  0  0  0  0  0  0  0
    6.7590   -2.6740   26.4710 N   0  0  0  0  0  0  0  0  0  0  0  0
    6.0600   -2.6600   27.7660 C   0  0  0  0  0  0  0  0  0  0  0  0
    6.6610   -3.6660   28.6620 C   0  0  0  0  0  0  0  0  0  0  0  0
    6.6630   -4.6280   29.4680 O   0  0  0  0  0  0  0  0  0  0  0  0
    5.3440   -3.9190   28.7350 N   0  0  0  0  0  0  0  0  0  0  0  0
    4.9380   -5.2100   29.1420 C   0  0  1  0  0  0  0  0  0  0  0  0
    3.5230   -5.4370   28.6550 C   0  0  0  0  0  0  0  0  0  0  0  0
    3.0930   -4.6110   27.6660 O   0  0  0  0  0  0  0  0  0  0  0  0
    2.7900   -6.4510   29.2600 O   0  0  0  0  0  0  0  0  0  0  0  0
    2.9790   -7.8330   28.9480 C   0  0  0  0  0  0  0  0  0  0  0  0
    5.8000   -6.4080   28.6270 C   0  0  2  0  0  0  0  0  0  0  0  0
    5.7770   -7.4900   29.4710 C   0  0  0  0  0  0  0  0  0  0  0  0
    7.1510   -6.0730   28.7040 O   0  0  0  0  0  0  0  0  0  0  0  0
    7.7490   -5.4310   27.6300 C   0  0  0  0  0  0  0  0  0  0  0  0
    6.8000   -5.1660   26.4950 C   0  0  0  0  0  0  0  0  0  0  0  0
    8.3730   -4.1440   28.1000 C   0  0  0  0  0  0  0  0  0  0  0  0
    8.9380   -6.1250   27.0840 C   0  0  0  0  0  0  0  0  0  0  0  0
    5.8470   -4.7590   23.5300 C   0  0  0  0  0  0  0  0  0  0  0  0
    6.4040   -5.2270   22.2420 C   0  0  0  0  0  0  0  0  0  0  0  0
  1  2  1  0
  2  3  2  0
  2  4  1  0
  4  5  1  0
  5  6  1  0
  6  7  1  0
  7  8  1  0
  8  9  2  0
  8 10  1  0
 10 11  1  0
 11 12  1  0
 12 13  2  0
 12 14  1  0
 15 14  1  6
 15 16  1  0
 16 17  2  0
 16 18  1  0
 18 19  1  0
 15 20  1  0
 20 21  1  1
 20 22  1  0
 23 22  1  0
 23 24  1  0
 23 25  1  0
 23 26  1  0
  7 27  1  0
  4 28  1  0
 27 28  1  0
M  END
