piperidine-amides-21580-covalent
     RDKit          3D

 23 24  0  0  0  0  0  0  0  0999 V2000
    7.0300   -3.3050   19.3290 C   0  0  0  0  0  0  0  0  0  0  0  0
    6.3560   -4.1210   20.3470 C   0  0  0  0  0  0  0  0  0  0  0  0
    5.3330   -4.7480   19.9550 O   0  0  0  0  0  0  0  0  0  0  0  0
    6.8480   -4.2300   21.6620 N   0  0  0  0  0  0  0  0  0  0  0  0
    6.7240   -5.4760   22.3820 C   0  0  0  0  0  0  0  0  0  0  0  0
    6.1470   -5.1670   23.7320 C   0  0  0  0  0  0  0  0  0  0  0  0
    6.0410   -3.6850   23.9260 C   0  0  0  0  0  0  0  0  0  0  0  0
    5.6060   -3.3800   25.3170 C   0  0  0  0  0  0  0  0  0  0  0  0
    4.3820   -3.4800   25.5510 O   0  0  0  0  0  0  0  0  0  0  0  0
    6.4440   -2.9740   26.3810 N   0  0  0  0  0  0  0  0  0  0  0  0
    6.9040   -1.6040   26.3660 C   0  0  0  0  0  0  0  0  0  0  0  0
    6.3060   -3.6340   27.6760 C   0  0  2  0  0  0  0  0  0  0  0  0
    5.8280   -4.9330   27.6030 C   0  0  0  0  0  0  0  0  0  0  0  0
    5.4850   -2.7770   28.5880 C   0  0  0  0  0  0  0  0  0  0  0  0
    4.1910   -3.1610   28.3380 C   0  0  0  0  0  0  0  0  0  0  0  0
    3.1620   -2.5680   29.0090 C   0  0  0  0  0  0  0  0  0  0  0  0
    3.3960   -1.5850   29.9370 C   0  0  0  0  0  0  0  0  0  0  0  0
    4.7890   -1.0880   30.2850 C   0  0  0  0  0  0  0  0  0  0  0  0
    5.8950   -1.8080   29.4850 C   0  0  0  0  0  0  0  0  0  0  0  0
    7.1250   -1.6100   29.5580 O   0  0  0  0  0  0  0  0  0  0  0  0
    7.8260   -0.6900   30.3230 C   0  0  0  0  0  0  0  0  0  0  0  0
    7.3430   -3.0010   23.6120 C   0  0  0  0  0  0  0  0  0  0  0  0
    7.6930   -3.1880   22.2820 C   0  0  0  0  0  0  0  0  0  0  0  0
  1  2  1  0
  2  3  2  0
  2  4  1  0
  4  5  1  0
  5  6  1  0
  6  7  1  0
  7  8  1  0
  8  9  2  0
  8 10  1  0
 10 11  1  0
 10 12  1  0
 12 13  1  6
 12 14  1  0
 14 15  2  0
 15 16  1  0
 16 17  2  0
 17 18  1  0
 14 19  1  0
 18 19  2  0
 19 20  1  0
 20 21  1  0
  7 22  1  0
  4 23  1  0
 22 23  1  0
M  END
