piperidine-amides-518-covalent
     RDKit          3D

 27 29  0  0  0  0  0  0  0  0999 V2000
    7.0730   -3.3600   19.2570 C   0  0  0  0  0  0  0  0  0  0  0  0
    6.3250   -4.0300   20.2990 C   0  0  0  0  0  0  0  0  0  0  0  0
    5.2920   -4.6670   19.9290 O   0  0  0  0  0  0  0  0  0  0  0  0
    6.7010   -4.0600   21.6650 N   0  0  0  0  0  0  0  0  0  0  0  0
    7.7160   -3.0640   22.1240 C   0  0  0  0  0  0  0  0  0  0  0  0
    7.0790   -2.4510   23.4400 C   0  0  0  0  0  0  0  0  0  0  0  0
    5.9270   -3.3560   23.8060 C   0  0  0  0  0  0  0  0  0  0  0  0
    4.9920   -2.8460   25.0090 C   0  0  0  0  0  0  0  0  0  0  0  0
    3.8270   -3.0600   24.7190 O   0  0  0  0  0  0  0  0  0  0  0  0
    5.6530   -2.3560   25.9890 N   0  0  0  0  0  0  0  0  0  0  0  0
    6.2920   -1.8990   27.1030 C   0  0  0  0  0  0  0  0  0  0  0  0
    6.0030   -1.3940   28.3400 C   0  0  0  0  0  0  0  0  0  0  0  0
    5.1550   -2.1690   29.1430 C   0  0  0  0  0  0  0  0  0  0  0  0
    4.6870   -1.8420   30.5280 C   0  0  0  0  0  0  0  0  0  0  0  0
    5.2640   -0.4690   31.0450 C   0  0  0  0  0  0  0  0  0  0  0  0
    4.9610    0.2800   32.6170 Cl  0  0  0  0  0  0  0  0  0  0  0  0
    6.0880    0.1380   30.0820 C   0  0  0  0  0  0  0  0  0  0  0  0
    6.4410   -0.2790   28.8200 C   0  0  0  0  0  0  0  0  0  0  0  0
    6.9880   -3.0950   27.4090 C   0  0  0  0  0  0  0  0  0  0  0  0
    7.6970   -3.1680   26.0770 C   0  0  0  0  0  0  0  0  0  0  0  0
    8.4850   -4.1850   25.8710 C   0  0  0  0  0  0  0  0  0  0  0  0
    8.6350   -5.1160   26.8430 C   0  0  0  0  0  0  0  0  0  0  0  0
    9.6760   -6.3610   26.4010 Cl  0  0  0  0  0  0  0  0  0  0  0  0
    8.0160   -5.0830   28.0760 C   0  0  0  0  0  0  0  0  0  0  0  0
    7.1640   -4.0370   28.3680 C   0  0  0  0  0  0  0  0  0  0  0  0
    6.1510   -4.8300   23.8040 C   0  0  0  0  0  0  0  0  0  0  0  0
    6.4920   -5.2780   22.4160 C   0  0  0  0  0  0  0  0  0  0  0  0
  1  2  1  0
  2  3  2  0
  2  4  1  0
  4  5  1  0
  5  6  1  0
  6  7  1  0
  7  8  1  0
  8  9  2  0
  8 10  1  0
 10 11  1  0
 11 12  1  0
 12 13  2  0
 13 14  1  0
 14 15  2  0
 15 16  1  0
 15 17  1  0
 12 18  1  0
 17 18  2  0
 11 19  1  0
 19 20  2  0
 20 21  1  0
 21 22  2  0
 22 23  1  0
 22 24  1  0
 19 25  1  0
 24 25  2  0
  7 26  1  0
  4 27  1  0
 26 27  1  0
M  END
