piperidine-amides-25790-covalent
     RDKit          3D

 25 27  0  0  0  0  0  0  0  0999 V2000
    7.0530   -3.3370   19.3500 C   0  0  0  0  0  0  0  0  0  0  0  0
    6.3930   -4.2300   20.3350 C   0  0  0  0  0  0  0  0  0  0  0  0
    5.3680   -4.8010   19.9670 O   0  0  0  0  0  0  0  0  0  0  0  0
    6.9580   -4.4430   21.6000 N   0  0  0  0  0  0  0  0  0  0  0  0
    6.6270   -5.5990   22.3730 C   0  0  0  0  0  0  0  0  0  0  0  0
    5.7150   -5.1740   23.4870 C   0  0  0  0  0  0  0  0  0  0  0  0
    6.2660   -3.9300   24.1930 C   0  0  0  0  0  0  0  0  0  0  0  0
    5.1790   -3.3620   25.0330 C   0  0  0  0  0  0  0  0  0  0  0  0
    4.1670   -2.9060   24.5070 O   0  0  0  0  0  0  0  0  0  0  0  0
    5.3070   -3.3430   26.4240 N   0  0  0  0  0  0  0  0  0  0  0  0
    4.2420   -3.8930   27.2390 C   0  0  0  0  0  0  0  0  0  0  0  0
    4.7980   -4.5340   28.5090 C   0  0  0  0  0  0  0  0  0  0  0  0
    5.3090   -3.7990   29.5240 C   0  0  0  0  0  0  0  0  0  0  0  0
    5.7750   -2.6140   29.1130 C   0  0  1  0  0  0  0  0  0  0  0  0
    4.7560   -1.9850   28.4320 O   0  0  0  0  0  0  0  0  0  0  0  0
    6.1110   -1.6680   30.0430 C   0  0  0  0  0  0  0  0  0  0  0  0
    7.4180   -0.9590   30.3390 C   0  0  0  0  0  0  0  0  0  0  0  0
    7.3070    0.0200   31.4610 C   0  0  0  0  0  0  0  0  0  0  0  0
    5.9960    0.2260   32.1730 C   0  0  0  0  0  0  0  0  0  0  0  0
    4.7890   -0.5520   31.7600 C   0  0  0  0  0  0  0  0  0  0  0  0
    4.7440   -1.5640   30.6610 C   0  0  0  0  0  0  0  0  0  0  0  0
    6.8010   -2.8600   28.3380 C   0  0  0  0  0  0  0  0  0  0  0  0
    6.4570   -3.5560   27.1160 C   0  0  0  0  0  0  0  0  0  0  0  0
    6.7490   -2.8490   23.2260 C   0  0  0  0  0  0  0  0  0  0  0  0
    7.6370   -3.3810   22.3190 C   0  0  0  0  0  0  0  0  0  0  0  0
  1  2  1  0
  2  3  2  0
  2  4  1  0
  4  5  1  0
  5  6  1  0
  6  7  1  0
  7  8  1  0
  8  9  2  0
  8 10  1  0
 10 11  1  0
 11 12  1  0
 12 13  1  0
 13 14  1  0
 14 15  1  6
 14 16  1  0
 16 17  2  0
 17 18  1  0
 18 19  2  0
 19 20  1  0
 16 21  1  0
 20 21  2  0
 14 22  1  0
 10 23  1  0
 22 23  1  0
  7 24  1  0
  4 25  1  0
 24 25  1  0
M  END
