piperidine-amides-27039-covalent
     RDKit          3D

 24 24  0  0  0  0  0  0  0  0999 V2000
    7.1220   -3.3020   19.2400 C   0  0  0  0  0  0  0  0  0  0  0  0
    6.3460   -4.0300   20.2410 C   0  0  0  0  0  0  0  0  0  0  0  0
    5.2450   -4.5090   19.8650 O   0  0  0  0  0  0  0  0  0  0  0  0
    6.8620   -4.2090   21.5200 N   0  0  0  0  0  0  0  0  0  0  0  0
    7.7030   -3.2240   22.1450 C   0  0  0  0  0  0  0  0  0  0  0  0
    7.0670   -2.8220   23.4400 C   0  0  0  0  0  0  0  0  0  0  0  0
    6.6240   -4.0040   24.2670 C   0  0  0  0  0  0  0  0  0  0  0  0
    5.7700   -3.5350   25.3740 C   0  0  0  0  0  0  0  0  0  0  0  0
    4.5380   -3.4350   25.1690 O   0  0  0  0  0  0  0  0  0  0  0  0
    6.2770   -3.1930   26.6360 N   0  0  0  0  0  0  0  0  0  0  0  0
    6.3940   -1.7890   26.9840 C   0  0  0  0  0  0  0  0  0  0  0  0
    5.0750   -1.0180   26.8390 C   0  0  0  0  0  0  0  0  0  0  0  0
    4.0020   -1.8320   26.5350 F   0  0  0  0  0  0  0  0  0  0  0  0
    4.6220   -0.4150   28.0260 F   0  0  0  0  0  0  0  0  0  0  0  0
    5.1630   -0.0740   25.8540 F   0  0  0  0  0  0  0  0  0  0  0  0
    6.6620   -4.1130   27.6610 C   0  0  0  0  0  0  0  0  0  0  0  0
    5.7300   -4.2140   28.6670 C   0  0  0  0  0  0  0  0  0  0  0  0
    6.8410   -5.3220   27.0310 C   0  0  0  0  0  0  0  0  0  0  0  0
    7.9350   -3.8620   28.0430 C   0  0  0  0  0  0  0  0  0  0  0  0
    8.7100   -4.9720   28.4120 O   0  0  0  0  0  0  0  0  0  0  0  0
    8.2970   -2.6560   28.0200 O   0  0  0  0  0  0  0  0  0  0  0  0
    7.9280   -1.7420   29.0360 C   0  0  0  0  0  0  0  0  0  0  0  0
    5.7880   -5.0080   23.4590 C   0  0  0  0  0  0  0  0  0  0  0  0
    6.5840   -5.4250   22.2290 C   0  0  0  0  0  0  0  0  0  0  0  0
  1  2  1  0
  2  3  2  0
  2  4  1  0
  4  5  1  0
  5  6  1  0
  6  7  1  0
  7  8  1  0
  8  9  2  0
  8 10  1  0
 10 11  1  0
 11 12  1  0
 12 13  1  0
 12 14  1  0
 12 15  1  0
 10 16  1  0
 16 17  1  0
 16 18  1  0
 16 19  1  0
 19 20  2  0
 19 21  1  0
 21 22  1  0
  7 23  1  0
  4 24  1  0
 23 24  1  0
M  END
