piperidine-amides-32394-covalent
     RDKit          3D

 24 26  0  0  0  0  0  0  0  0999 V2000
    7.0630   -3.3650   19.3990 C   0  0  0  0  0  0  0  0  0  0  0  0
    6.3240   -4.2290   20.3570 C   0  0  0  0  0  0  0  0  0  0  0  0
    5.3000   -4.8050   19.9630 O   0  0  0  0  0  0  0  0  0  0  0  0
    6.8210   -4.4320   21.6680 N   0  0  0  0  0  0  0  0  0  0  0  0
    6.4220   -5.5640   22.4570 C   0  0  0  0  0  0  0  0  0  0  0  0
    5.3170   -5.0730   23.4090 C   0  0  0  0  0  0  0  0  0  0  0  0
    5.9000   -4.0120   24.2860 C   0  0  0  0  0  0  0  0  0  0  0  0
    4.9370   -3.4710   25.3310 C   0  0  0  0  0  0  0  0  0  0  0  0
    3.7670   -3.2860   25.0100 O   0  0  0  0  0  0  0  0  0  0  0  0
    5.4650   -3.2130   26.5960 N   0  0  0  0  0  0  0  0  0  0  0  0
    4.9810   -3.6840   27.8180 C   0  0  0  0  0  0  0  0  0  0  0  0
    5.9500   -4.3960   28.3360 C   0  0  0  0  0  0  0  0  0  0  0  0
    7.0070   -4.1680   27.4470 C   0  0  0  0  0  0  0  0  0  0  0  0
    8.3600   -4.7030   27.6520 C   0  0  0  0  0  0  0  0  0  0  0  0
    9.4910   -4.4170   26.6490 C   0  0  0  0  0  0  0  0  0  0  0  0
   10.6680   -4.9040   26.8750 N   0  0  0  0  0  0  0  0  0  0  0  0
   10.6570   -5.0440   28.0970 O   0  0  0  0  0  0  0  0  0  0  0  0
   11.7690   -4.4950   26.1980 O   0  0  0  0  0  0  0  0  0  0  0  0
    9.0410   -3.6150   25.5940 C   0  0  0  0  0  0  0  0  0  0  0  0
    7.8960   -3.7900   26.4170 C   0  0  0  0  0  0  0  0  0  0  0  0
    8.1330   -4.8650   27.9820 Br  0  0  0  0  0  0  0  0  0  0  0  0
    6.7960   -3.3530   26.2380 C   0  0  0  0  0  0  0  0  0  0  0  0
    6.5360   -2.8810   23.5200 C   0  0  0  0  0  0  0  0  0  0  0  0
    7.4440   -3.3400   22.3790 C   0  0  0  0  0  0  0  0  0  0  0  0
  1  2  1  0
  2  3  2  0
  2  4  1  0
  4  5  1  0
  5  6  1  0
  6  7  1  0
  7  8  1  0
  8  9  2  0
  8 10  1  0
 10 11  1  0
 11 12  1  0
 12 13  1  0
 13 14  1  0
 14 15  2  0
 15 16  1  0
 16 17  2  0
 16 18  1  0
 15 19  1  0
 19 20  2  0
 20 21  1  0
 10 22  1  0
 13 22  2  0
 20 22  1  0
  7 23  1  0
  4 24  1  0
 23 24  1  0
M  CHG  2  16   1  18  -1
M  END
