piperidine-amides-4362-covalent
     RDKit          3D

 26 27  0  0  0  0  0  0  0  0999 V2000
    7.0600   -3.3230   19.3290 C   0  0  0  0  0  0  0  0  0  0  0  0
    6.3640   -4.1410   20.3370 C   0  0  0  0  0  0  0  0  0  0  0  0
    5.3400   -4.7590   19.9540 O   0  0  0  0  0  0  0  0  0  0  0  0
    6.8420   -4.2770   21.6680 N   0  0  0  0  0  0  0  0  0  0  0  0
    7.6600   -3.2480   22.2190 C   0  0  0  0  0  0  0  0  0  0  0  0
    7.2990   -2.9460   23.5820 C   0  0  0  0  0  0  0  0  0  0  0  0
    6.1050   -3.6990   23.9870 C   0  0  0  0  0  0  0  0  0  0  0  0
    5.6170   -3.3130   25.3530 C   0  0  0  0  0  0  0  0  0  0  0  0
    4.3990   -3.3850   25.5930 O   0  0  0  0  0  0  0  0  0  0  0  0
    6.4780   -2.8630   26.3740 N   0  0  0  0  0  0  0  0  0  0  0  0
    6.4180   -1.6330   27.0730 C   0  0  0  0  0  0  0  0  0  0  0  0
    5.8180   -0.3690   26.5970 C   0  0  0  0  0  0  0  0  0  0  0  0
    5.8510    0.8820   27.5260 C   0  0  0  0  0  0  0  0  0  0  0  0
    6.4490    0.7410   28.7620 C   0  0  0  0  0  0  0  0  0  0  0  0
    6.2710    2.1590   29.3290 C   0  0  0  0  0  0  0  0  0  0  0  0
    7.3790    2.7200   29.9560 O   0  0  0  0  0  0  0  0  0  0  0  0
    4.9880    2.7750   29.1760 N   0  0  0  0  0  0  0  0  0  0  0  0
    4.1510    2.3630   30.3130 C   0  0  0  0  0  0  0  0  0  0  0  0
    3.7890    3.8250   30.6160 C   0  0  0  0  0  0  0  0  0  0  0  0
    3.5950    4.6560   29.7070 O   0  0  0  0  0  0  0  0  0  0  0  0
    3.6670    4.2480   31.9280 O   0  0  0  0  0  0  0  0  0  0  0  0
    4.7320    4.6970   32.7110 C   0  0  0  0  0  0  0  0  0  0  0  0
    7.0300   -0.3470   29.3150 C   0  0  0  0  0  0  0  0  0  0  0  0
    7.0250   -1.5950   28.4560 C   0  0  0  0  0  0  0  0  0  0  0  0
    6.3190   -5.1720   23.8030 C   0  0  0  0  0  0  0  0  0  0  0  0
    6.5720   -5.4790   22.4480 C   0  0  0  0  0  0  0  0  0  0  0  0
  1  2  1  0
  2  3  2  0
  2  4  1  0
  4  5  1  0
  5  6  1  0
  6  7  1  0
  7  8  1  0
  8  9  2  0
  8 10  1  0
 10 11  1  0
 11 12  2  0
 12 13  1  0
 13 14  2  0
 14 15  1  0
 15 16  2  0
 15 17  1  0
 17 18  1  0
 18 19  1  0
 19 20  2  0
 19 21  1  0
 21 22  1  0
 14 23  1  0
 11 24  1  0
 23 24  2  0
  7 25  1  0
  4 26  1  0
 25 26  1  0
M  END
