piperidine-amides-25042-covalent
     RDKit          3D

 20 21  0  0  0  0  0  0  0  0999 V2000
    7.1710   -3.3180   19.2640 C   0  0  0  0  0  0  0  0  0  0  0  0
    6.4350   -4.1190   20.2700 C   0  0  0  0  0  0  0  0  0  0  0  0
    5.3690   -4.6350   19.9250 O   0  0  0  0  0  0  0  0  0  0  0  0
    7.0060   -4.3010   21.5270 N   0  0  0  0  0  0  0  0  0  0  0  0
    6.6050   -5.3620   22.4070 C   0  0  0  0  0  0  0  0  0  0  0  0
    5.7760   -4.7790   23.5130 C   0  0  0  0  0  0  0  0  0  0  0  0
    6.4710   -3.5500   24.1290 C   0  0  0  0  0  0  0  0  0  0  0  0
    5.5020   -2.9460   25.0250 C   0  0  0  0  0  0  0  0  0  0  0  0
    4.4520   -2.4750   24.5810 O   0  0  0  0  0  0  0  0  0  0  0  0
    5.7760   -2.9300   26.3690 N   0  0  0  0  0  0  0  0  0  0  0  0
    5.8520   -4.2320   26.9880 C   0  0  0  0  0  0  0  0  0  0  0  0
    6.0520   -1.7310   27.0960 C   0  0  0  0  0  0  0  0  0  0  0  0
    5.9190   -0.3770   26.5060 N   0  0  0  0  0  0  0  0  0  0  0  0
    6.2380    0.7310   27.4030 C   0  0  0  0  0  0  0  0  0  0  0  0
    6.6150    0.3980   28.6450 C   0  0  0  0  0  0  0  0  0  0  0  0
    6.6840   -0.9050   29.0240 C   0  0  0  0  0  0  0  0  0  0  0  0
    6.4370   -2.2750   28.4120 C   0  0  0  0  0  0  0  0  0  0  0  0
    6.4870   -4.1200   28.8700 Br  0  0  0  0  0  0  0  0  0  0  0  0
    6.9690   -2.5540   23.1540 C   0  0  0  0  0  0  0  0  0  0  0  0
    7.7590   -3.1980   22.0910 C   0  0  0  0  0  0  0  0  0  0  0  0
  1  2  1  0
  2  3  2  0
  2  4  1  0
  4  5  1  0
  5  6  1  0
  6  7  1  0
  7  8  1  0
  8  9  2  0
  8 10  1  0
 10 11  1  0
 10 12  1  0
 12 13  2  0
 13 14  1  0
 14 15  2  0
 15 16  1  0
 12 17  1  0
 16 17  2  0
 17 18  1  0
  7 19  1  0
  4 20  1  0
 19 20  1  0
M  END
