piperidine-amides-10362-covalent
     RDKit          3D

 24 25  0  0  0  0  0  0  0  0999 V2000
    7.0750   -3.2780   19.2620 C   0  0  0  0  0  0  0  0  0  0  0  0
    6.3550   -4.0470   20.2850 C   0  0  0  0  0  0  0  0  0  0  0  0
    5.2940   -4.6140   19.9080 O   0  0  0  0  0  0  0  0  0  0  0  0
    6.8570   -4.1740   21.5880 N   0  0  0  0  0  0  0  0  0  0  0  0
    6.6710   -5.4070   22.3240 C   0  0  0  0  0  0  0  0  0  0  0  0
    6.1080   -5.0480   23.6660 C   0  0  0  0  0  0  0  0  0  0  0  0
    6.0280   -3.5560   23.8020 C   0  0  0  0  0  0  0  0  0  0  0  0
    5.6150   -3.1590   25.1640 C   0  0  0  0  0  0  0  0  0  0  0  0
    4.5690   -2.4860   25.2810 O   0  0  0  0  0  0  0  0  0  0  0  0
    6.3110   -3.4940   26.3310 N   0  0  0  0  0  0  0  0  0  0  0  0
    5.7160   -4.4000   27.2790 C   0  0  1  0  0  0  0  0  0  0  0  0
    5.8890   -5.8570   26.8820 C   0  0  0  0  0  0  0  0  0  0  0  0
    6.1660   -4.2270   28.6580 C   0  0  1  0  0  0  0  0  0  0  0  0
    6.1100   -2.8990   29.1560 O   0  0  0  0  0  0  0  0  0  0  0  0
    5.5920   -5.1250   29.5240 C   0  0  0  0  0  0  0  0  0  0  0  0
    6.1570   -6.3450   29.8150 C   0  0  0  0  0  0  0  0  0  0  0  0
    5.6020   -7.2550   30.6860 C   0  0  0  0  0  0  0  0  0  0  0  0
    4.4180   -7.0660   31.3700 C   0  0  0  0  0  0  0  0  0  0  0  0
    3.8450   -8.0850   32.3210 C   0  0  0  0  0  0  0  0  0  0  0  0
    3.7980   -5.8710   31.1170 C   0  0  0  0  0  0  0  0  0  0  0  0
    2.6120   -5.6580   31.7830 F   0  0  0  0  0  0  0  0  0  0  0  0
    4.4010   -4.8610   30.1620 C   0  0  0  0  0  0  0  0  0  0  0  0
    7.3550   -2.9280   23.4930 C   0  0  0  0  0  0  0  0  0  0  0  0
    7.7450   -3.1610   22.1910 C   0  0  0  0  0  0  0  0  0  0  0  0
  1  2  1  0
  2  3  2  0
  2  4  1  0
  4  5  1  0
  5  6  1  0
  6  7  1  0
  7  8  1  0
  8  9  2  0
  8 10  1  0
 10 11  1  0
 11 12  1  6
 11 13  1  0
 13 14  1  1
 13 15  1  0
 15 16  2  0
 16 17  1  0
 17 18  2  0
 18 19  1  0
 18 20  1  0
 20 21  1  0
 15 22  1  0
 20 22  2  0
  7 23  1  0
  4 24  1  0
 23 24  1  0
M  END
