piperidine-amides-28155-covalent
     RDKit          3D

 26 28  0  0  0  0  0  0  0  0999 V2000
    7.0630   -3.3530   19.3550 C   0  0  0  0  0  0  0  0  0  0  0  0
    6.4150   -4.2180   20.3650 C   0  0  0  0  0  0  0  0  0  0  0  0
    5.4050   -4.8510   19.9850 O   0  0  0  0  0  0  0  0  0  0  0  0
    6.9500   -4.3460   21.6600 N   0  0  0  0  0  0  0  0  0  0  0  0
    6.5540   -5.4140   22.5080 C   0  0  0  0  0  0  0  0  0  0  0  0
    6.0080   -5.0040   23.8180 C   0  0  0  0  0  0  0  0  0  0  0  0
    6.4200   -3.6740   24.3640 C   0  0  0  0  0  0  0  0  0  0  0  0
    5.3540   -3.1290   25.2700 C   0  0  0  0  0  0  0  0  0  0  0  0
    4.4190   -2.5070   24.7470 O   0  0  0  0  0  0  0  0  0  0  0  0
    5.3570   -3.3010   26.6830 N   0  0  0  0  0  0  0  0  0  0  0  0
    5.2880   -2.1860   27.6250 C   0  0  0  0  0  0  0  0  0  0  0  0
    5.3370   -2.8000   28.9660 C   0  0  0  0  0  0  0  0  0  0  0  0
    4.8100   -4.0920   29.0930 N   0  0  0  0  0  0  0  0  0  0  0  0
    3.3710   -4.2430   28.9260 C   0  0  0  0  0  0  0  0  0  0  0  0
    2.5240   -3.3530   29.2670 O   0  0  0  0  0  0  0  0  0  0  0  0
    3.1530   -5.4720   28.3580 C   0  0  0  0  0  0  0  0  0  0  0  0
    3.9480   -6.5280   28.6600 C   0  0  0  0  0  0  0  0  0  0  0  0
    3.9680   -7.5580   27.7950 C   0  0  0  0  0  0  0  0  0  0  0  0
    3.1800   -7.5130   26.6600 C   0  0  0  0  0  0  0  0  0  0  0  0
    3.5370   -8.0260   25.3580 O   0  0  0  0  0  0  0  0  0  0  0  0
    1.9780   -6.9350   26.9270 N   0  0  0  0  0  0  0  0  0  0  0  0
    2.1270   -5.6960   27.4460 C   0  0  0  0  0  0  0  0  0  0  0  0
    5.7250   -4.9450   28.4040 C   0  0  0  0  0  0  0  0  0  0  0  0
    6.2290   -4.2580   27.2040 C   0  0  0  0  0  0  0  0  0  0  0  0
    6.7820   -2.6670   23.3270 C   0  0  0  0  0  0  0  0  0  0  0  0
    7.6780   -3.2660   22.2850 C   0  0  0  0  0  0  0  0  0  0  0  0
  1  2  1  0
  2  3  2  0
  2  4  1  0
  4  5  1  0
  5  6  1  0
  6  7  1  0
  7  8  1  0
  8  9  2  0
  8 10  1  0
 10 11  1  0
 11 12  1  0
 12 13  1  0
 13 14  1  0
 14 15  2  0
 14 16  1  0
 16 17  1  0
 17 18  2  0
 18 19  1  0
 19 20  2  0
 19 21  1  0
 16 22  2  0
 21 22  1  0
 13 23  1  0
 10 24  1  0
 23 24  1  0
  7 25  1  0
  4 26  1  0
 25 26  1  0
M  END
