piperidine-amides-29028-covalent
     RDKit          3D

 25 27  0  0  0  0  0  0  0  0999 V2000
    7.0510   -3.3580   19.3550 C   0  0  0  0  0  0  0  0  0  0  0  0
    6.4130   -4.2250   20.3390 C   0  0  0  0  0  0  0  0  0  0  0  0
    5.3870   -4.8380   19.9850 O   0  0  0  0  0  0  0  0  0  0  0  0
    6.9830   -4.4060   21.6300 N   0  0  0  0  0  0  0  0  0  0  0  0
    6.5270   -5.5090   22.4040 C   0  0  0  0  0  0  0  0  0  0  0  0
    5.6940   -4.9550   23.5200 C   0  0  0  0  0  0  0  0  0  0  0  0
    6.5840   -4.0650   24.3720 C   0  0  0  0  0  0  0  0  0  0  0  0
    5.7830   -3.6400   25.6000 C   0  0  0  0  0  0  0  0  0  0  0  0
    4.5850   -3.5090   25.3570 O   0  0  0  0  0  0  0  0  0  0  0  0
    6.3180   -3.3870   26.9010 N   0  0  0  0  0  0  0  0  0  0  0  0
    5.4380   -2.7240   27.8090 C   0  0  0  0  0  0  0  0  0  0  0  0
    4.2780   -3.4360   28.2400 C   0  0  0  0  0  0  0  0  0  0  0  0
    4.6690   -4.8000   28.6600 N   0  0  0  0  0  0  0  0  0  0  0  0
    3.9550   -5.7170   29.4660 C   0  0  0  0  0  0  0  0  0  0  0  0
    3.7710   -7.0160   29.0130 C   0  0  0  0  0  0  0  0  0  0  0  0
    3.0020   -7.9490   29.8950 C   0  0  0  0  0  0  0  0  0  0  0  0
    2.4320   -7.5120   31.2570 C   0  0  0  0  0  0  0  0  0  0  0  0
    2.6680   -6.1130   31.6750 C   0  0  0  0  0  0  0  0  0  0  0  0
    2.0780   -5.4790   33.1940 Cl  0  0  0  0  0  0  0  0  0  0  0  0
    3.4500   -5.3000   30.6860 C   0  0  0  0  0  0  0  0  0  0  0  0
    3.6860   -4.0980   30.9700 O   0  0  0  0  0  0  0  0  0  0  0  0
    6.0190   -5.1570   28.4550 C   0  0  0  0  0  0  0  0  0  0  0  0
    6.5930   -3.9740   28.2080 C   0  0  0  0  0  0  0  0  0  0  0  0
    6.9390   -2.8580   23.5450 C   0  0  0  0  0  0  0  0  0  0  0  0
    7.6110   -3.2610   22.2520 C   0  0  0  0  0  0  0  0  0  0  0  0
  1  2  1  0
  2  3  2  0
  2  4  1  0
  4  5  1  0
  5  6  1  0
  6  7  1  0
  7  8  1  0
  8  9  2  0
  8 10  1  0
 10 11  1  0
 11 12  1  0
 12 13  1  0
 13 14  1  0
 14 15  2  0
 15 16  1  0
 16 17  2  0
 17 18  1  0
 18 19  1  0
 14 20  1  0
 18 20  2  0
 20 21  1  0
 13 22  1  0
 10 23  1  0
 22 23  1  0
  7 24  1  0
  4 25  1  0
 24 25  1  0
M  END
