piperidine-amides-32959-covalent
     RDKit          3D

 28 30  0  0  0  0  0  0  0  0999 V2000
    7.0340   -3.3500   19.3890 C   0  0  0  0  0  0  0  0  0  0  0  0
    6.3380   -4.2390   20.3660 C   0  0  0  0  0  0  0  0  0  0  0  0
    5.3600   -4.8940   19.9850 O   0  0  0  0  0  0  0  0  0  0  0  0
    6.8260   -4.3450   21.6900 N   0  0  0  0  0  0  0  0  0  0  0  0
    6.7310   -5.5910   22.4410 C   0  0  0  0  0  0  0  0  0  0  0  0
    6.2230   -5.3130   23.8740 C   0  0  0  0  0  0  0  0  0  0  0  0
    6.1610   -3.8400   24.0420 C   0  0  0  0  0  0  0  0  0  0  0  0
    5.7080   -3.3020   25.3520 C   0  0  0  0  0  0  0  0  0  0  0  0
    5.6300   -2.0760   25.3840 O   0  0  0  0  0  0  0  0  0  0  0  0
    5.3410   -4.0760   26.4670 N   0  0  0  0  0  0  0  0  0  0  0  0
    6.0970   -5.0170   27.1730 C   0  0  0  0  0  0  0  0  0  0  0  0
    5.6210   -5.7920   28.1790 C   0  0  0  0  0  0  0  0  0  0  0  0
    4.5090   -5.0160   28.7060 N   0  0  0  0  0  0  0  0  0  0  0  0
    3.2070   -5.5290   28.7930 C   0  0  0  0  0  0  0  0  0  0  0  0
    2.1490   -5.0450   28.0420 O   0  0  0  0  0  0  0  0  0  0  0  0
    3.0240   -6.5710   29.6820 C   0  0  0  0  0  0  0  0  0  0  0  0
    2.2890   -7.5710   29.1100 F   0  0  0  0  0  0  0  0  0  0  0  0
    4.2190   -7.0640   30.1560 F   0  0  0  0  0  0  0  0  0  0  0  0
    2.3400   -6.0440   30.7850 F   0  0  0  0  0  0  0  0  0  0  0  0
    4.6880   -3.6760   28.6870 C   0  0  0  0  0  0  0  0  0  0  0  0
    6.0490   -3.2360   29.1850 C   0  0  0  0  0  0  0  0  0  0  0  0
    5.8920   -1.8290   29.7730 C   0  0  0  0  0  0  0  0  0  0  0  0
    4.7060   -1.4890   30.4040 C   0  0  0  0  0  0  0  0  0  0  0  0
    3.7860   -2.5830   30.8120 C   0  0  0  0  0  0  0  0  0  0  0  0
    3.5830   -2.9100   29.3460 C   0  0  0  0  0  0  0  0  0  0  0  0
    4.5130   -3.3450   27.3850 C   0  0  0  0  0  0  0  0  0  0  0  0
    7.4310   -3.1440   23.6950 C   0  0  0  0  0  0  0  0  0  0  0  0
    7.6770   -3.2850   22.2230 C   0  0  0  0  0  0  0  0  0  0  0  0
  1  2  1  0
  2  3  2  0
  2  4  1  0
  4  5  1  0
  5  6  1  0
  6  7  1  0
  7  8  1  0
  8  9  2  0
  8 10  1  0
 10 11  1  0
 11 12  1  0
 12 13  1  0
 13 14  1  0
 14 15  2  0
 14 16  1  0
 16 17  1  0
 16 18  1  0
 16 19  1  0
 20 13  1  0
 20 21  1  0
 21 22  1  0
 22 23  1  0
 23 24  1  0
 20 25  1  0
 24 25  1  0
 10 26  1  0
 20 26  1  0
  7 27  1  0
  4 28  1  0
 27 28  1  0
M  END
