piperidine-amides-8919-covalent
     RDKit          3D

 22 23  0  0  0  0  0  0  0  0999 V2000
    7.1030   -3.2980   19.2500 C   0  0  0  0  0  0  0  0  0  0  0  0
    6.4040   -4.0970   20.2550 C   0  0  0  0  0  0  0  0  0  0  0  0
    5.3390   -4.6490   19.9250 O   0  0  0  0  0  0  0  0  0  0  0  0
    6.9680   -4.2760   21.5410 N   0  0  0  0  0  0  0  0  0  0  0  0
    7.6530   -3.1780   22.1530 C   0  0  0  0  0  0  0  0  0  0  0  0
    6.8140   -2.6790   23.2850 C   0  0  0  0  0  0  0  0  0  0  0  0
    6.6300   -3.8350   24.2460 C   0  0  0  0  0  0  0  0  0  0  0  0
    5.8720   -3.3390   25.4360 C   0  0  0  0  0  0  0  0  0  0  0  0
    4.6830   -3.0710   25.2530 O   0  0  0  0  0  0  0  0  0  0  0  0
    6.5470   -3.2130   26.6450 N   0  0  0  0  0  0  0  0  0  0  0  0
    6.4620   -4.1920   27.6760 C   0  0  0  0  0  0  0  0  0  0  0  0
    6.4330   -5.5180   27.2310 C   0  0  0  0  0  0  0  0  0  0  0  0
    5.2610   -6.2260   27.3520 C   0  0  0  0  0  0  0  0  0  0  0  0
    4.4850   -6.4780   26.2310 C   0  0  0  0  0  0  0  0  0  0  0  0
    3.2210   -7.2400   26.4020 C   0  0  0  0  0  0  0  0  0  0  0  0
    2.7280   -7.7650   27.7570 C   0  0  0  0  0  0  0  0  0  0  0  0
    3.5850   -7.4770   28.9240 C   0  0  0  0  0  0  0  0  0  0  0  0
    4.8330   -6.6950   28.5910 C   0  0  0  0  0  0  0  0  0  0  0  0
    5.6760   -6.4290   29.8590 C   0  0  0  0  0  0  0  0  0  0  0  0
    5.7580   -7.4600   30.7650 C   0  0  0  0  0  0  0  0  0  0  0  0
    5.8020   -4.8740   23.5420 C   0  0  0  0  0  0  0  0  0  0  0  0
    6.4830   -5.3960   22.3000 C   0  0  0  0  0  0  0  0  0  0  0  0
  1  2  1  0
  2  3  2  0
  2  4  1  0
  4  5  1  0
  5  6  1  0
  6  7  1  0
  7  8  1  0
  8  9  2  0
  8 10  1  0
 10 11  1  0
 11 12  1  0
 12 13  1  0
 13 14  2  0
 14 15  1  0
 15 16  2  0
 16 17  1  0
 13 18  1  0
 17 18  2  0
 18 19  1  0
 19 20  1  0
  7 21  1  0
  4 22  1  0
 21 22  1  0
M  END
