piperidine-amides-30057-covalent
     RDKit          3D

 26 28  0  0  0  0  0  0  0  0999 V2000
    7.0640   -3.3650   19.2920 C   0  0  0  0  0  0  0  0  0  0  0  0
    6.3370   -4.1530   20.2790 C   0  0  0  0  0  0  0  0  0  0  0  0
    5.3180   -4.7540   19.9530 O   0  0  0  0  0  0  0  0  0  0  0  0
    6.8430   -4.2730   21.6140 N   0  0  0  0  0  0  0  0  0  0  0  0
    7.7120   -3.2650   22.1620 C   0  0  0  0  0  0  0  0  0  0  0  0
    7.1080   -2.6860   23.4000 C   0  0  0  0  0  0  0  0  0  0  0  0
    6.7810   -3.8150   24.3610 C   0  0  0  0  0  0  0  0  0  0  0  0
    5.9680   -3.2330   25.4640 C   0  0  0  0  0  0  0  0  0  0  0  0
    4.7470   -3.0000   25.3490 O   0  0  0  0  0  0  0  0  0  0  0  0
    6.6200   -2.9300   26.6840 N   0  0  0  0  0  0  0  0  0  0  0  0
    6.5090   -1.6070   27.2550 C   0  0  0  0  0  0  0  0  0  0  0  0
    7.0150   -1.3550   28.6460 C   0  0  0  0  0  0  0  0  0  0  0  0
    6.9140   -0.1160   29.2290 C   0  0  0  0  0  0  0  0  0  0  0  0
    7.5040    0.1400   30.8630 Cl  0  0  0  0  0  0  0  0  0  0  0  0
    6.3320    0.9320   28.5090 C   0  0  0  0  0  0  0  0  0  0  0  0
    5.8340    0.8330   27.2250 C   0  0  0  0  0  0  0  0  0  0  0  0
    5.8850   -0.4350   26.5100 C   0  0  0  0  0  0  0  0  0  0  0  0
    5.4200   -0.6550   25.2320 C   0  0  0  0  0  0  0  0  0  0  0  0
    4.6620    0.3900   24.8360 N   0  0  0  0  0  0  0  0  0  0  0  0
    6.9050   -3.9660   27.6500 C   0  0  0  0  0  0  0  0  0  0  0  0
    8.0920   -4.6710   27.5650 C   0  0  0  0  0  0  0  0  0  0  0  0
    7.7340   -6.0460   27.7760 C   0  0  0  0  0  0  0  0  0  0  0  0
    6.3750   -6.1910   27.9210 C   0  0  0  0  0  0  0  0  0  0  0  0
    5.7800   -4.9420   27.7580 C   0  0  0  0  0  0  0  0  0  0  0  0
    5.9530   -4.9100   23.7040 C   0  0  0  0  0  0  0  0  0  0  0  0
    6.5820   -5.4380   22.4050 C   0  0  0  0  0  0  0  0  0  0  0  0
  1  2  1  0
  2  3  2  0
  2  4  1  0
  4  5  1  0
  5  6  1  0
  6  7  1  0
  7  8  1  0
  8  9  2  0
  8 10  1  0
 10 11  1  0
 11 12  2  0
 12 13  1  0
 13 14  1  0
 13 15  2  0
 15 16  1  0
 11 17  1  0
 16 17  2  0
 17 18  1  0
 18 19  3  0
 10 20  1  0
 20 21  1  0
 21 22  1  0
 22 23  1  0
 20 24  1  0
 23 24  1  0
  7 25  1  0
  4 26  1  0
 25 26  1  0
M  END
