piperidine-amides-2182-covalent
     RDKit          3D

 30 32  0  0  0  0  0  0  0  0999 V2000
    7.0500   -3.3580   19.3620 C   0  0  0  0  0  0  0  0  0  0  0  0
    6.3430   -4.1850   20.3740 C   0  0  0  0  0  0  0  0  0  0  0  0
    5.3640   -4.8150   19.9760 O   0  0  0  0  0  0  0  0  0  0  0  0
    6.8150   -4.2590   21.6950 N   0  0  0  0  0  0  0  0  0  0  0  0
    7.6890   -3.2510   22.2620 C   0  0  0  0  0  0  0  0  0  0  0  0
    7.3300   -2.9990   23.7040 C   0  0  0  0  0  0  0  0  0  0  0  0
    5.9790   -3.6470   23.9930 C   0  0  0  0  0  0  0  0  0  0  0  0
    5.4450   -3.1650   25.2930 C   0  0  0  0  0  0  0  0  0  0  0  0
    4.2710   -2.7860   25.3310 O   0  0  0  0  0  0  0  0  0  0  0  0
    6.2040   -3.1350   26.4800 N   0  0  0  0  0  0  0  0  0  0  0  0
    6.5760   -1.8670   27.0830 C   0  0  0  0  0  0  0  0  0  0  0  0
    5.7100   -0.7530   26.5660 C   0  0  0  0  0  0  0  0  0  0  0  0
    5.5570    0.3380   27.3640 C   0  0  0  0  0  0  0  0  0  0  0  0
    5.7150    0.3000   28.7710 N   0  0  0  0  0  0  0  0  0  0  0  0
    4.8080    1.0500   29.6080 C   0  0  0  0  0  0  0  0  0  0  0  0
    4.4210    2.2790   29.1100 O   0  0  0  0  0  0  0  0  0  0  0  0
    4.3610    0.5800   30.8080 C   0  0  0  0  0  0  0  0  0  0  0  0
    4.5200   -0.8890   31.2670 C   0  0  0  0  0  0  0  0  0  0  0  0
    3.9860   -1.2970   32.6270 C   0  0  0  0  0  0  0  0  0  0  0  0
    3.3210   -0.2630   33.4810 C   0  0  0  0  0  0  0  0  0  0  0  0
    2.8360   -0.6470   34.7210 O   0  0  0  0  0  0  0  0  0  0  0  0
    3.4040   -1.6520   35.5130 C   0  0  0  0  0  0  0  0  0  0  0  0
    3.1670    1.1450   33.0410 C   0  0  0  0  0  0  0  0  0  0  0  0
    2.5450    2.0940   33.8430 O   0  0  0  0  0  0  0  0  0  0  0  0
    1.2160    2.5030   33.6070 C   0  0  0  0  0  0  0  0  0  0  0  0
    3.7270    1.4550   31.6820 C   0  0  0  0  0  0  0  0  0  0  0  0
    6.8070   -0.5600   29.0970 C   0  0  0  0  0  0  0  0  0  0  0  0
    6.6420   -1.7950   28.4860 C   0  0  0  0  0  0  0  0  0  0  0  0
    6.0950   -5.1320   23.8340 C   0  0  0  0  0  0  0  0  0  0  0  0
    6.6630   -5.5090   22.4570 C   0  0  0  0  0  0  0  0  0  0  0  0
  1  2  1  0
  2  3  2  0
  2  4  1  0
  4  5  1  0
  5  6  1  0
  6  7  1  0
  7  8  1  0
  8  9  2  0
  8 10  1  0
 10 11  1  0
 11 12  1  0
 12 13  1  0
 13 14  1  0
 14 15  1  0
 15 16  2  0
 15 17  1  0
 17 18  2  0
 18 19  1  0
 19 20  2  0
 20 21  1  0
 21 22  1  0
 20 23  1  0
 23 24  1  0
 24 25  1  0
 17 26  1  0
 23 26  2  0
 14 27  1  0
 11 28  1  0
 27 28  1  0
  7 29  1  0
  4 30  1  0
 29 30  1  0
M  END
