piperidine-amides-14713-covalent
     RDKit          3D

 22 24  0  0  0  0  0  0  0  0999 V2000
    7.0380   -3.3300   19.3230 C   0  0  0  0  0  0  0  0  0  0  0  0
    6.3780   -4.1740   20.3180 C   0  0  0  0  0  0  0  0  0  0  0  0
    5.3650   -4.8060   19.9680 O   0  0  0  0  0  0  0  0  0  0  0  0
    6.9080   -4.2990   21.6290 N   0  0  0  0  0  0  0  0  0  0  0  0
    7.7010   -3.2360   22.1920 C   0  0  0  0  0  0  0  0  0  0  0  0
    6.9720   -2.6350   23.3510 C   0  0  0  0  0  0  0  0  0  0  0  0
    6.5920   -3.7950   24.2280 C   0  0  0  0  0  0  0  0  0  0  0  0
    5.6950   -3.3170   25.3310 C   0  0  0  0  0  0  0  0  0  0  0  0
    4.4900   -3.3050   25.0890 O   0  0  0  0  0  0  0  0  0  0  0  0
    6.2650   -2.9170   26.5390 N   0  0  0  0  0  0  0  0  0  0  0  0
    6.6960   -1.5720   26.7500 C   0  0  1  0  0  0  0  0  0  0  0  0
    5.7460   -0.5480   26.7550 C   0  0  0  0  0  0  0  0  0  0  0  0
    6.0470    0.5560   27.5580 C   0  0  0  0  0  0  0  0  0  0  0  0
    6.3180    1.2230   28.7280 O   0  0  0  0  0  0  0  0  0  0  0  0
    5.9610   -0.5180   28.5340 N   0  0  0  0  0  0  0  0  0  0  0  0
    5.6680   -0.0970   29.8530 C   0  0  1  0  0  0  0  0  0  0  0  0
    4.4940    0.7450   30.0550 C   0  0  0  0  0  0  0  0  0  0  0  0
    4.5100   -0.7990   30.2340 C   0  0  2  0  0  0  0  0  0  0  0  0
    4.2220   -1.2220   31.6240 C   0  0  0  0  0  0  0  0  0  0  0  0
    6.9910   -1.4680   28.2100 C   0  0  0  0  0  0  0  0  0  0  0  0
    5.9230   -4.9340   23.5690 C   0  0  0  0  0  0  0  0  0  0  0  0
    6.6040   -5.4270   22.4780 C   0  0  0  0  0  0  0  0  0  0  0  0
  1  2  1  0
  2  3  2  0
  2  4  1  0
  4  5  1  0
  5  6  1  0
  6  7  1  0
  7  8  1  0
  8  9  2  0
  8 10  1  0
 11 10  1  1
 11 12  1  0
 12 13  1  0
 13 14  2  0
 13 15  1  0
 16 15  1  6
 16 17  1  0
 16 18  1  0
 17 18  1  0
 18 19  1  1
 11 20  1  0
 15 20  1  0
  7 21  1  0
  4 22  1  0
 21 22  1  0
M  END
