piperidine-amides-2636-covalent
     RDKit          3D

 25 27  0  0  0  0  0  0  0  0999 V2000
    7.0640   -3.2690   19.2670 C   0  0  0  0  0  0  0  0  0  0  0  0
    6.3310   -4.0580   20.2950 C   0  0  0  0  0  0  0  0  0  0  0  0
    5.3220   -4.6550   19.9230 O   0  0  0  0  0  0  0  0  0  0  0  0
    6.8040   -4.1400   21.6120 N   0  0  0  0  0  0  0  0  0  0  0  0
    7.7130   -3.1560   22.1710 C   0  0  0  0  0  0  0  0  0  0  0  0
    7.3710   -2.9000   23.6100 C   0  0  0  0  0  0  0  0  0  0  0  0
    6.0570   -3.6050   23.9210 C   0  0  0  0  0  0  0  0  0  0  0  0
    5.6410   -3.2780   25.3010 C   0  0  0  0  0  0  0  0  0  0  0  0
    4.4470   -3.3950   25.5940 O   0  0  0  0  0  0  0  0  0  0  0  0
    6.5540   -2.8420   26.2830 N   0  0  0  0  0  0  0  0  0  0  0  0
    6.5690   -1.4450   26.6550 C   0  0  0  0  0  0  0  0  0  0  0  0
    5.4640   -1.2180   27.6690 C   0  0  0  0  0  0  0  0  0  0  0  0
    4.8690   -1.9710   28.6110 C   0  0  0  0  0  0  0  0  0  0  0  0
    3.9610   -1.1560   29.1670 C   0  0  0  0  0  0  0  0  0  0  0  0
    3.1010   -1.4670   30.1890 C   0  0  0  0  0  0  0  0  0  0  0  0
    3.3580   -1.7020   31.6690 C   0  0  0  0  0  0  0  0  0  0  0  0
    2.0880   -2.0240   32.4080 C   0  0  0  0  0  0  0  0  0  0  0  0
    0.7910   -2.0700   31.6380 C   0  0  0  0  0  0  0  0  0  0  0  0
    0.7370   -1.8080   30.1780 C   0  0  0  0  0  0  0  0  0  0  0  0
    1.8810   -1.4800   29.3010 C   0  0  0  0  0  0  0  0  0  0  0  0
    1.8260   -1.1680   27.5750 Cl  0  0  0  0  0  0  0  0  0  0  0  0
    3.9560    0.1160   28.5990 O   0  0  0  0  0  0  0  0  0  0  0  0
    4.8760    0.1360   27.6570 N   0  0  0  0  0  0  0  0  0  0  0  0
    6.0150   -5.0580   23.6270 C   0  0  0  0  0  0  0  0  0  0  0  0
    6.6690   -5.3900   22.3310 C   0  0  0  0  0  0  0  0  0  0  0  0
  1  2  1  0
  2  3  2  0
  2  4  1  0
  4  5  1  0
  5  6  1  0
  6  7  1  0
  7  8  1  0
  8  9  2  0
  8 10  1  0
 10 11  1  0
 11 12  1  0
 12 13  1  0
 13 14  2  0
 14 15  1  0
 15 16  2  0
 16 17  1  0
 17 18  2  0
 18 19  1  0
 15 20  1  0
 19 20  2  0
 20 21  1  0
 14 22  1  0
 12 23  2  0
 22 23  1  0
  7 24  1  0
  4 25  1  0
 24 25  1  0
M  END
