piperidine-amides-29619-covalent
     RDKit          3D

 27 30  0  0  0  0  0  0  0  0999 V2000
    7.0420   -3.3720   19.3540 C   0  0  0  0  0  0  0  0  0  0  0  0
    6.3930   -4.2400   20.3280 C   0  0  0  0  0  0  0  0  0  0  0  0
    5.3820   -4.8590   19.9920 O   0  0  0  0  0  0  0  0  0  0  0  0
    6.9570   -4.4270   21.6460 N   0  0  0  0  0  0  0  0  0  0  0  0
    7.6740   -3.3650   22.3000 C   0  0  0  0  0  0  0  0  0  0  0  0
    6.8650   -2.8160   23.4440 C   0  0  0  0  0  0  0  0  0  0  0  0
    6.2990   -3.9410   24.3140 C   0  0  0  0  0  0  0  0  0  0  0  0
    5.2980   -3.3560   25.2680 C   0  0  0  0  0  0  0  0  0  0  0  0
    4.3830   -2.6360   24.8460 O   0  0  0  0  0  0  0  0  0  0  0  0
    5.3500   -3.5870   26.6700 N   0  0  0  0  0  0  0  0  0  0  0  0
    6.5170   -3.2240   27.3220 C   0  0  0  0  0  0  0  0  0  0  0  0
    6.6750   -4.3610   28.3000 C   0  0  0  0  0  0  0  0  0  0  0  0
    5.6530   -4.5030   29.1600 C   0  0  0  0  0  0  0  0  0  0  0  0
    5.5430   -5.7650   29.7570 C   0  0  0  0  0  0  0  0  0  0  0  0
    6.2950   -6.9010   29.4810 N   0  0  0  0  0  0  0  0  0  0  0  0
    5.7960   -7.8520   30.3360 N   0  0  0  0  0  0  0  0  0  0  0  0
    4.7920   -7.2970   31.0800 C   0  0  0  0  0  0  0  0  0  0  0  0
    3.8930   -7.7230   32.1130 C   0  0  0  0  0  0  0  0  0  0  0  0
    2.9890   -6.8200   32.6320 C   0  0  0  0  0  0  0  0  0  0  0  0
    2.8520   -5.4830   32.2380 C   0  0  0  0  0  0  0  0  0  0  0  0
    1.9170   -4.6190   32.8070 C   0  0  0  0  0  0  0  0  0  0  0  0
    3.8250   -5.1960   31.1810 N   0  0  0  0  0  0  0  0  0  0  0  0
    4.6970   -6.0590   30.6820 N   0  0  0  0  0  0  0  0  0  0  0  0
    4.3900   -4.2950   28.6920 C   0  0  0  0  0  0  0  0  0  0  0  0
    4.1810   -3.6880   27.4470 C   0  0  0  0  0  0  0  0  0  0  0  0
    5.6050   -5.0160   23.5090 C   0  0  0  0  0  0  0  0  0  0  0  0
    6.4850   -5.5130   22.4110 C   0  0  0  0  0  0  0  0  0  0  0  0
  1  2  1  0
  2  3  2  0
  2  4  1  0
  4  5  1  0
  5  6  1  0
  6  7  1  0
  7  8  1  0
  8  9  2  0
  8 10  1  0
 10 11  1  0
 11 12  1  0
 12 13  1  0
 13 14  1  0
 14 15  2  0
 15 16  1  0
 16 17  2  0
 17 18  1  0
 18 19  2  0
 19 20  1  0
 20 21  1  0
 20 22  2  0
 14 23  1  0
 17 23  1  0
 22 23  1  0
 13 24  1  0
 10 25  1  0
 24 25  1  0
  7 26  1  0
  4 27  1  0
 26 27  1  0
M  END
