piperidine-amides-35677-covalent
     RDKit          3D

 39 41  0  0  0  0  0  0  0  0999 V2000
    7.1390   -3.2890   19.2110 C   0  0  0  0  0  0  0  0  0  0  0  0
    6.3390   -4.0390   20.2080 C   0  0  0  0  0  0  0  0  0  0  0  0
    5.2490   -4.4760   19.8490 O   0  0  0  0  0  0  0  0  0  0  0  0
    6.8680   -4.2770   21.4680 N   0  0  0  0  0  0  0  0  0  0  0  0
    7.6420   -3.2820   22.1580 C   0  0  0  0  0  0  0  0  0  0  0  0
    6.8480   -2.7780   23.3160 C   0  0  0  0  0  0  0  0  0  0  0  0
    6.4590   -3.9590   24.2040 C   0  0  0  0  0  0  0  0  0  0  0  0
    5.6840   -3.4410   25.3520 C   0  0  0  0  0  0  0  0  0  0  0  0
    4.4900   -3.1630   25.1820 O   0  0  0  0  0  0  0  0  0  0  0  0
    6.2610   -3.2510   26.6310 N   0  0  0  0  0  0  0  0  0  0  0  0
    6.2890   -4.3760   27.5600 C   0  0  0  0  0  0  0  0  0  0  0  0
    4.9700   -4.4850   28.2530 C   0  0  0  0  0  0  0  0  0  0  0  0
    3.9590   -5.1500   27.5950 O   0  0  0  0  0  0  0  0  0  0  0  0
    4.9290   -3.8400   29.5800 N   0  0  0  0  0  0  0  0  0  0  0  0
    3.5740   -4.0670   30.1130 C   0  0  0  0  0  0  0  0  0  0  0  0
    3.3310   -5.3340   30.6460 C   0  0  0  0  0  0  0  0  0  0  0  0
    2.1420   -5.8420   31.2250 C   0  0  0  0  0  0  0  0  0  0  0  0
    2.1860   -7.4510   31.7820 S   0  0  0  0  0  0  0  0  0  0  0  0
    1.4980   -7.4950   33.1180 O   0  0  0  0  0  0  0  0  0  0  0  0
    3.5900   -7.9650   31.9070 O   0  0  0  0  0  0  0  0  0  0  0  0
    1.2380   -8.4370   30.6950 N   0  0  0  0  0  0  0  0  0  0  0  0
    0.7100   -9.6510   31.3400 C   0  0  0  0  0  0  0  0  0  0  0  0
    0.4540  -10.8650   30.5000 C   0  0  0  0  0  0  0  0  0  0  0  0
    1.6720   -8.5780   29.3570 C   0  0  0  0  0  0  0  0  0  0  0  0
    1.4590   -7.2870   28.6400 C   0  0  0  0  0  0  0  0  0  0  0  0
    1.0080   -4.8470   31.2490 C   0  0  0  0  0  0  0  0  0  0  0  0
    1.1830   -3.4790   30.7040 C   0  0  0  0  0  0  0  0  0  0  0  0
    2.4350   -3.0380   30.1290 C   0  0  0  0  0  0  0  0  0  0  0  0
    2.6160   -1.4080   29.4930 Cl  0  0  0  0  0  0  0  0  0  0  0  0
    6.2960   -1.9780   27.3450 C   0  0  0  0  0  0  0  0  0  0  0  0
    6.1110   -0.8450   26.5750 C   0  0  0  0  0  0  0  0  0  0  0  0
    6.5890   -0.8450   25.1400 C   0  0  0  0  0  0  0  0  0  0  0  0
    6.4170    0.3640   24.2400 C   0  0  0  0  0  0  0  0  0  0  0  0
    5.7550    1.5760   24.8160 C   0  0  0  0  0  0  0  0  0  0  0  0
    5.3300    1.5680   26.1040 C   0  0  0  0  0  0  0  0  0  0  0  0
    5.4980    0.3360   27.0340 C   0  0  0  0  0  0  0  0  0  0  0  0
    4.8900    0.4920   28.6880 Cl  0  0  0  0  0  0  0  0  0  0  0  0
    5.6290   -4.9290   23.4030 C   0  0  0  0  0  0  0  0  0  0  0  0
    6.4260   -5.4340   22.2160 C   0  0  0  0  0  0  0  0  0  0  0  0
  1  2  1  0
  2  3  2  0
  2  4  1  0
  4  5  1  0
  5  6  1  0
  6  7  1  0
  7  8  1  0
  8  9  2  0
  8 10  1  0
 10 11  1  0
 11 12  1  0
 12 13  2  0
 12 14  1  0
 14 15  1  0
 15 16  2  0
 16 17  1  0
 17 18  1  0
 18 19  2  0
 18 20  2  0
 18 21  1  0
 21 22  1  0
 22 23  1  0
 21 24  1  0
 24 25  1  0
 17 26  2  0
 26 27  1  0
 15 28  1  0
 27 28  2  0
 28 29  1  0
 10 30  1  0
 30 31  1  0
 31 32  2  0
 32 33  1  0
 33 34  2  0
 34 35  1  0
 31 36  1  0
 35 36  2  0
 36 37  1  0
  7 38  1  0
  4 39  1  0
 38 39  1  0
M  END
