piperidine-amides-32618-covalent
     RDKit          3D

 29 31  0  0  0  0  0  0  0  0999 V2000
    7.0960   -3.2860   19.2640 C   0  0  0  0  0  0  0  0  0  0  0  0
    6.3540   -4.0750   20.2860 C   0  0  0  0  0  0  0  0  0  0  0  0
    5.3360   -4.7000   19.9410 O   0  0  0  0  0  0  0  0  0  0  0  0
    6.8560   -4.1260   21.6090 N   0  0  0  0  0  0  0  0  0  0  0  0
    7.7270   -3.0800   22.1170 C   0  0  0  0  0  0  0  0  0  0  0  0
    7.6300   -3.0460   23.6500 C   0  0  0  0  0  0  0  0  0  0  0  0
    6.2660   -3.5220   24.0070 C   0  0  0  0  0  0  0  0  0  0  0  0
    5.9080   -3.3880   25.4430 C   0  0  0  0  0  0  0  0  0  0  0  0
    4.6910   -3.3590   25.6760 O   0  0  0  0  0  0  0  0  0  0  0  0
    6.8950   -3.2870   26.4460 N   0  0  0  0  0  0  0  0  0  0  0  0
    7.4460   -4.3770   27.1790 C   0  0  0  0  0  0  0  0  0  0  0  0
    6.7700   -5.5520   27.4180 C   0  0  0  0  0  0  0  0  0  0  0  0
    5.9640   -5.7010   28.5600 C   0  0  0  0  0  0  0  0  0  0  0  0
    6.1550   -6.7280   29.4370 C   0  0  0  0  0  0  0  0  0  0  0  0
    5.2970   -6.8690   30.6230 C   0  0  0  0  0  0  0  0  0  0  0  0
    4.1680   -5.8900   30.9200 C   0  0  0  0  0  0  0  0  0  0  0  0
    4.0480   -4.7760   29.8620 C   0  0  0  0  0  0  0  0  0  0  0  0
    3.0250   -3.8810   30.1210 O   0  0  0  0  0  0  0  0  0  0  0  0
    3.4310   -3.0490   31.1400 C   0  0  0  0  0  0  0  0  0  0  0  0
    4.9880   -4.7360   28.6920 C   0  0  0  0  0  0  0  0  0  0  0  0
    7.2130   -1.8860   26.7030 C   0  0  0  0  0  0  0  0  0  0  0  0
    6.7200   -1.3790   27.8800 C   0  0  0  0  0  0  0  0  0  0  0  0
    7.9600   -1.4910   28.6320 C   0  0  0  0  0  0  0  0  0  0  0  0
    7.8700   -1.0700   29.8690 N   0  0  0  0  0  0  0  0  0  0  0  0
    6.5220   -0.6940   29.8690 N   0  0  0  0  0  0  0  0  0  0  0  0
    6.1210   -0.2010   31.0650 C   0  0  0  0  0  0  0  0  0  0  0  0
    5.7650   -0.8640   28.6710 C   0  0  0  0  0  0  0  0  0  0  0  0
    6.0560   -4.9790   23.6650 C   0  0  0  0  0  0  0  0  0  0  0  0
    6.5020   -5.2710   22.3860 C   0  0  0  0  0  0  0  0  0  0  0  0
  1  2  1  0
  2  3  2  0
  2  4  1  0
  4  5  1  0
  5  6  1  0
  6  7  1  0
  7  8  1  0
  8  9  2  0
  8 10  1  0
 10 11  1  0
 11 12  1  0
 12 13  1  0
 13 14  2  0
 14 15  1  0
 15 16  2  0
 16 17  1  0
 17 18  1  0
 18 19  1  0
 13 20  1  0
 17 20  2  0
 10 21  1  0
 21 22  1  0
 22 23  1  0
 23 24  2  0
 24 25  1  0
 25 26  1  0
 22 27  2  0
 25 27  1  0
  7 28  1  0
  4 29  1  0
 28 29  1  0
M  END
