piperidine-amides-6891-covalent
     RDKit          3D

 23 25  0  0  0  0  0  0  0  0999 V2000
    7.0630   -3.3380   19.3110 C   0  0  0  0  0  0  0  0  0  0  0  0
    6.3900   -4.1850   20.3110 C   0  0  0  0  0  0  0  0  0  0  0  0
    5.3860   -4.8570   19.9850 O   0  0  0  0  0  0  0  0  0  0  0  0
    6.8930   -4.2770   21.6130 N   0  0  0  0  0  0  0  0  0  0  0  0
    7.7220   -3.1900   22.1020 C   0  0  0  0  0  0  0  0  0  0  0  0
    7.5960   -3.1630   23.6220 C   0  0  0  0  0  0  0  0  0  0  0  0
    6.1750   -3.5710   23.9200 C   0  0  0  0  0  0  0  0  0  0  0  0
    5.8550   -3.2550   25.3230 C   0  0  0  0  0  0  0  0  0  0  0  0
    4.6920   -3.4570   25.7350 O   0  0  0  0  0  0  0  0  0  0  0  0
    6.8900   -2.7360   26.1390 N   0  0  0  0  0  0  0  0  0  0  0  0
    6.6920   -1.6030   27.0140 C   0  0  0  0  0  0  0  0  0  0  0  0
    7.3950   -1.6460   28.3470 C   0  0  0  0  0  0  0  0  0  0  0  0
    7.2710   -0.6290   29.2430 C   0  0  0  0  0  0  0  0  0  0  0  0
    6.4890    0.4510   28.9100 C   0  0  0  0  0  0  0  0  0  0  0  0
    5.8190    0.5380   27.6890 C   0  0  0  0  0  0  0  0  0  0  0  0
    5.8380   -0.4010   26.6790 C   0  0  0  0  0  0  0  0  0  0  0  0
    5.1720   -0.2990   25.5010 N   0  0  0  0  0  0  0  0  0  0  0  0
    5.9580    0.1820   24.5570 C   0  0  0  0  0  0  0  0  0  0  0  0
    5.1080    1.3760   24.2770 C   0  0  0  0  0  0  0  0  0  0  0  0
    4.5430    1.9790   25.5260 C   0  0  0  0  0  0  0  0  0  0  0  0
    4.0100    0.5850   25.4370 C   0  0  0  0  0  0  0  0  0  0  0  0
    6.0460   -5.0430   23.6650 C   0  0  0  0  0  0  0  0  0  0  0  0
    6.5200   -5.3880   22.4300 C   0  0  0  0  0  0  0  0  0  0  0  0
  1  2  1  0
  2  3  2  0
  2  4  1  0
  4  5  1  0
  5  6  1  0
  6  7  1  0
  7  8  1  0
  8  9  2  0
  8 10  1  0
 10 11  1  0
 11 12  2  0
 12 13  1  0
 13 14  2  0
 14 15  1  0
 11 16  1  0
 15 16  2  0
 16 17  1  0
 17 18  1  0
 18 19  1  0
 19 20  1  0
 17 21  1  0
 20 21  1  0
  7 22  1  0
  4 23  1  0
 22 23  1  0
M  END
