piperidine-amides-15462-covalent
     RDKit          3D

 18 19  0  0  0  0  0  0  0  0999 V2000
    7.0960   -3.2700   19.2710 C   0  0  0  0  0  0  0  0  0  0  0  0
    6.3390   -4.0550   20.2650 C   0  0  0  0  0  0  0  0  0  0  0  0
    5.3100   -4.6840   19.9260 O   0  0  0  0  0  0  0  0  0  0  0  0
    6.7830   -4.1370   21.5930 N   0  0  0  0  0  0  0  0  0  0  0  0
    6.6450   -5.3880   22.3110 C   0  0  0  0  0  0  0  0  0  0  0  0
    5.8310   -5.0800   23.5680 C   0  0  0  0  0  0  0  0  0  0  0  0
    5.9100   -3.5800   23.7380 C   0  0  0  0  0  0  0  0  0  0  0  0
    5.4240   -3.2250   25.0830 C   0  0  0  0  0  0  0  0  0  0  0  0
    4.9950   -4.1400   25.8040 O   0  0  0  0  0  0  0  0  0  0  0  0
    5.4170   -1.8890   25.5400 N   0  0  0  0  0  0  0  0  0  0  0  0
    6.6740   -1.2760   25.8480 C   0  0  0  0  0  0  0  0  0  0  0  0
    6.2490   -0.7990   27.1550 C   0  0  0  0  0  0  0  0  0  0  0  0
    6.4240    0.6060   27.1430 O   0  0  0  0  0  0  0  0  0  0  0  0
    6.5790   -1.4350   28.3210 C   0  0  0  0  0  0  0  0  0  0  0  0
    5.6240   -1.3600   29.3520 N   0  0  0  0  0  0  0  0  0  0  0  0
    4.8620   -1.2140   26.7500 C   0  0  0  0  0  0  0  0  0  0  0  0
    7.2950   -3.0520   23.5190 C   0  0  0  0  0  0  0  0  0  0  0  0
    7.6310   -3.1120   22.1890 C   0  0  0  0  0  0  0  0  0  0  0  0
  1  2  1  0
  2  3  2  0
  2  4  1  0
  4  5  1  0
  5  6  1  0
  6  7  1  0
  7  8  1  0
  8  9  2  0
  8 10  1  0
 10 11  1  0
 11 12  1  0
 12 13  1  0
 12 14  1  0
 14 15  3  0
 10 16  1  0
 12 16  1  0
  7 17  1  0
  4 18  1  0
 17 18  1  0
M  END
