piperidine-amides-17019-covalent
     RDKit          3D

 20 21  0  0  0  0  0  0  0  0999 V2000
    7.0810   -3.3720   19.3370 C   0  0  0  0  0  0  0  0  0  0  0  0
    6.4380   -4.2320   20.3380 C   0  0  0  0  0  0  0  0  0  0  0  0
    5.3800   -4.8070   19.9790 O   0  0  0  0  0  0  0  0  0  0  0  0
    7.0290   -4.4530   21.6110 N   0  0  0  0  0  0  0  0  0  0  0  0
    6.5350   -5.5150   22.4010 C   0  0  0  0  0  0  0  0  0  0  0  0
    5.9190   -5.0950   23.6640 C   0  0  0  0  0  0  0  0  0  0  0  0
    6.3570   -3.8080   24.2740 C   0  0  0  0  0  0  0  0  0  0  0  0
    5.2630   -3.2870   25.1670 C   0  0  0  0  0  0  0  0  0  0  0  0
    4.2590   -2.8020   24.6320 O   0  0  0  0  0  0  0  0  0  0  0  0
    5.3220   -3.3210   26.5720 N   0  0  0  0  0  0  0  0  0  0  0  0
    6.4520   -3.2410   27.3320 C   0  0  0  0  0  0  0  0  0  0  0  0
    6.7070   -4.3440   28.2580 C   0  0  0  0  0  0  0  0  0  0  0  0
    5.4660   -4.3850   29.0660 C   0  0  0  0  0  0  0  0  0  0  0  0
    4.3740   -4.6290   28.3020 C   0  0  1  0  0  0  0  0  0  0  0  0
    3.1980   -4.6990   29.0710 N   0  0  0  0  0  0  0  0  0  0  0  0
    1.9500   -4.9450   28.4560 C   0  0  0  0  0  0  0  0  0  0  0  0
    3.0760   -3.4570   29.8600 C   0  0  0  0  0  0  0  0  0  0  0  0
    4.1350   -3.5190   27.3380 C   0  0  0  0  0  0  0  0  0  0  0  0
    6.8190   -2.7330   23.3150 C   0  0  0  0  0  0  0  0  0  0  0  0
    7.7220   -3.3900   22.2960 C   0  0  0  0  0  0  0  0  0  0  0  0
  1  2  1  0
  2  3  2  0
  2  4  1  0
  4  5  1  0
  5  6  1  0
  6  7  1  0
  7  8  1  0
  8  9  2  0
  8 10  1  0
 10 11  1  0
 11 12  1  0
 12 13  1  0
 13 14  1  0
 14 15  1  1
 15 16  1  0
 15 17  1  0
 10 18  1  0
 14 18  1  0
  7 19  1  0
  4 20  1  0
 19 20  1  0
M  END
