piperidine-amides-32672-covalent
     RDKit          3D

 28 29  0  0  0  0  0  0  0  0999 V2000
    7.0860   -3.3770   19.3770 C   0  0  0  0  0  0  0  0  0  0  0  0
    6.3630   -4.2370   20.3470 C   0  0  0  0  0  0  0  0  0  0  0  0
    5.3340   -4.8230   19.9750 O   0  0  0  0  0  0  0  0  0  0  0  0
    6.9060   -4.4110   21.6390 N   0  0  0  0  0  0  0  0  0  0  0  0
    6.6860   -5.5910   22.4400 C   0  0  0  0  0  0  0  0  0  0  0  0
    5.8430   -5.1810   23.6600 C   0  0  0  0  0  0  0  0  0  0  0  0
    6.5240   -4.0570   24.3820 C   0  0  0  0  0  0  0  0  0  0  0  0
    5.6850   -3.4900   25.4760 C   0  0  0  0  0  0  0  0  0  0  0  0
    4.9260   -2.5850   25.1270 O   0  0  0  0  0  0  0  0  0  0  0  0
    5.7630   -3.9480   26.8130 N   0  0  0  0  0  0  0  0  0  0  0  0
    6.9140   -4.5460   27.3170 C   0  0  0  0  0  0  0  0  0  0  0  0
    6.9840   -5.5680   28.2070 C   0  0  0  0  0  0  0  0  0  0  0  0
    6.0820   -5.0820   29.2240 O   0  0  0  0  0  0  0  0  0  0  0  0
    4.9370   -4.5450   28.6670 C   0  0  0  0  0  0  0  0  0  0  0  0
    5.0200   -3.4030   27.8900 C   0  0  1  0  0  0  0  0  0  0  0  0
    5.4850   -2.2110   28.6590 C   0  0  0  0  0  0  0  0  0  0  0  0
    6.5660   -1.5190   28.1430 O   0  0  0  0  0  0  0  0  0  0  0  0
    3.7860   -2.9880   27.3860 C   0  0  0  0  0  0  0  0  0  0  0  0
    2.7940   -2.8700   28.4200 N   0  0  0  0  0  0  0  0  0  0  0  0
    1.4540   -3.2950   28.1960 C   0  0  0  0  0  0  0  0  0  0  0  0
    0.9260   -3.4570   26.9580 O   0  0  0  0  0  0  0  0  0  0  0  0
    0.6070   -3.5650   29.2630 O   0  0  0  0  0  0  0  0  0  0  0  0
    0.8080   -4.5330   30.2440 C   0  0  0  0  0  0  0  0  0  0  0  0
   -0.1390   -4.2440   31.3510 C   0  0  0  0  0  0  0  0  0  0  0  0
    2.1560   -4.7670   30.5290 C   0  0  0  0  0  0  0  0  0  0  0  0
    0.0740   -5.8630   30.0170 C   0  0  0  0  0  0  0  0  0  0  0  0
    6.8530   -2.8950   23.4880 C   0  0  0  0  0  0  0  0  0  0  0  0
    7.6350   -3.3340   22.2830 C   0  0  0  0  0  0  0  0  0  0  0  0
  1  2  1  0
  2  3  2  0
  2  4  1  0
  4  5  1  0
  5  6  1  0
  6  7  1  0
  7  8  1  0
  8  9  2  0
  8 10  1  0
 10 11  1  0
 11 12  1  0
 12 13  1  0
 13 14  1  0
 10 15  1  0
 14 15  1  0
 15 16  1  1
 16 17  1  0
 15 18  1  0
 18 19  1  0
 19 20  1  0
 20 21  2  0
 20 22  1  0
 23 22  1  0
 23 24  1  0
 23 25  1  0
 23 26  1  0
  7 27  1  0
  4 28  1  0
 27 28  1  0
M  END
