piperidine-amides-16148-covalent
     RDKit          3D

 19 20  0  0  0  0  0  0  0  0999 V2000
    7.1630   -3.3410   19.2970 C   0  0  0  0  0  0  0  0  0  0  0  0
    6.4030   -4.1520   20.2720 C   0  0  0  0  0  0  0  0  0  0  0  0
    5.3200   -4.6060   19.9130 O   0  0  0  0  0  0  0  0  0  0  0  0
    6.9780   -4.4240   21.5100 N   0  0  0  0  0  0  0  0  0  0  0  0
    6.6290   -5.5840   22.2740 C   0  0  0  0  0  0  0  0  0  0  0  0
    5.7990   -5.1550   23.4500 C   0  0  0  0  0  0  0  0  0  0  0  0
    6.4690   -3.9950   24.1970 C   0  0  0  0  0  0  0  0  0  0  0  0
    5.4750   -3.5020   25.1470 C   0  0  0  0  0  0  0  0  0  0  0  0
    4.6940   -2.6140   24.8080 O   0  0  0  0  0  0  0  0  0  0  0  0
    5.4320   -3.9710   26.4390 N   0  0  0  0  0  0  0  0  0  0  0  0
    6.7540   -4.0100   26.9230 C   0  0  0  0  0  0  0  0  0  0  0  0
    7.0970   -5.4010   27.4100 C   0  0  0  0  0  0  0  0  0  0  0  0
    6.7750   -5.7350   28.6620 C   0  0  0  0  0  0  0  0  0  0  0  0
    5.5160   -5.4000   28.9430 C   0  0  0  0  0  0  0  0  0  0  0  0
    5.3080   -4.0540   28.8500 C   0  0  1  0  0  0  0  0  0  0  0  0
    6.3030   -3.3200   29.3790 O   0  0  0  0  0  0  0  0  0  0  0  0
    4.9100   -3.3060   27.6120 C   0  0  0  0  0  0  0  0  0  0  0  0
    6.9140   -2.8810   23.3150 C   0  0  0  0  0  0  0  0  0  0  0  0
    7.7180   -3.3780   22.1760 C   0  0  0  0  0  0  0  0  0  0  0  0
  1  2  1  0
  2  3  2  0
  2  4  1  0
  4  5  1  0
  5  6  1  0
  6  7  1  0
  7  8  1  0
  8  9  2  0
  8 10  1  0
 10 11  1  0
 11 12  1  0
 12 13  1  0
 13 14  1  0
 14 15  1  0
 15 16  1  6
 10 17  1  0
 15 17  1  0
  7 18  1  0
  4 19  1  0
 18 19  1  0
M  END
