piperidine-amides-11974-covalent
     RDKit          3D

 26 27  0  0  0  0  0  0  0  0999 V2000
    7.0580   -3.3470   19.2830 C   0  0  0  0  0  0  0  0  0  0  0  0
    6.3590   -4.1470   20.2790 C   0  0  0  0  0  0  0  0  0  0  0  0
    5.3440   -4.7640   19.9630 O   0  0  0  0  0  0  0  0  0  0  0  0
    6.8830   -4.2690   21.6120 N   0  0  0  0  0  0  0  0  0  0  0  0
    7.7000   -3.2100   22.1580 C   0  0  0  0  0  0  0  0  0  0  0  0
    7.0270   -2.6060   23.3470 C   0  0  0  0  0  0  0  0  0  0  0  0
    6.5740   -3.7450   24.2350 C   0  0  0  0  0  0  0  0  0  0  0  0
    5.8360   -3.1540   25.3870 C   0  0  0  0  0  0  0  0  0  0  0  0
    4.6020   -2.9720   25.3730 O   0  0  0  0  0  0  0  0  0  0  0  0
    6.5810   -2.8040   26.5380 N   0  0  0  0  0  0  0  0  0  0  0  0
    6.4510   -1.4900   27.1480 C   0  0  0  0  0  0  0  0  0  0  0  0
    5.7790   -0.4700   26.2780 C   0  0  0  0  0  0  0  0  0  0  0  0
    5.5770    0.8210   26.7380 C   0  0  0  0  0  0  0  0  0  0  0  0
    6.0090    1.1670   28.0250 C   0  0  0  0  0  0  0  0  0  0  0  0
    5.8090    2.4490   28.5090 C   0  0  0  0  0  0  0  0  0  0  0  0
    5.5430    2.2700   29.8450 F   0  0  0  0  0  0  0  0  0  0  0  0
    4.5690    2.8710   27.9690 F   0  0  0  0  0  0  0  0  0  0  0  0
    6.7750    3.4850   28.1510 C   0  0  0  0  0  0  0  0  0  0  0  0
    7.7690    3.5060   29.1200 F   0  0  0  0  0  0  0  0  0  0  0  0
    6.0980    4.7360   28.2480 F   0  0  0  0  0  0  0  0  0  0  0  0
    7.3020    3.3480   26.8780 F   0  0  0  0  0  0  0  0  0  0  0  0
    6.6170    0.2200   28.7790 C   0  0  0  0  0  0  0  0  0  0  0  0
    6.8450   -1.0700   28.3850 C   0  0  0  0  0  0  0  0  0  0  0  0
    7.4620   -1.8520   29.3050 C   0  0  0  0  0  0  0  0  0  0  0  0
    5.8270   -4.8160   23.5880 C   0  0  0  0  0  0  0  0  0  0  0  0
    6.5030   -5.3390   22.4970 C   0  0  0  0  0  0  0  0  0  0  0  0
  1  2  1  0
  2  3  2  0
  2  4  1  0
  4  5  1  0
  5  6  1  0
  6  7  1  0
  7  8  1  0
  8  9  2  0
  8 10  1  0
 10 11  1  0
 11 12  2  0
 12 13  1  0
 13 14  2  0
 14 15  1  0
 15 16  1  0
 15 17  1  0
 15 18  1  0
 18 19  1  0
 18 20  1  0
 18 21  1  0
 14 22  1  0
 11 23  1  0
 22 23  2  0
 23 24  1  0
  7 25  1  0
  4 26  1  0
 25 26  1  0
M  END
