piperidine-amides-13083-covalent
     RDKit          3D

 20 20  0  0  0  0  0  0  0  0999 V2000
    7.1760   -3.2340   19.1070 C   0  0  0  0  0  0  0  0  0  0  0  0
    6.3850   -3.9610   20.1240 C   0  0  0  0  0  0  0  0  0  0  0  0
    5.2550   -4.3670   19.7970 O   0  0  0  0  0  0  0  0  0  0  0  0
    6.9230   -4.2300   21.3790 N   0  0  0  0  0  0  0  0  0  0  0  0
    7.6510   -3.2000   22.0460 C   0  0  0  0  0  0  0  0  0  0  0  0
    7.1670   -2.8900   23.3800 C   0  0  0  0  0  0  0  0  0  0  0  0
    6.5050   -3.9970   24.0920 C   0  0  0  0  0  0  0  0  0  0  0  0
    5.7190   -3.4570   25.1990 C   0  0  0  0  0  0  0  0  0  0  0  0
    4.5520   -3.0730   24.9940 O   0  0  0  0  0  0  0  0  0  0  0  0
    6.2870   -3.3800   26.4540 N   0  0  0  0  0  0  0  0  0  0  0  0
    5.7960   -4.1810   27.5710 C   0  0  1  0  0  0  0  0  0  0  0  0
    5.9870   -5.6640   27.4510 C   0  0  0  0  0  0  0  0  0  0  0  0
    6.3750   -3.6540   28.7900 C   0  0  0  0  0  0  0  0  0  0  0  0
    6.0930   -2.3410   29.1320 C   0  0  0  0  0  0  0  0  0  0  0  0
    7.0960   -1.4000   29.2960 C   0  0  0  0  0  0  0  0  0  0  0  0
    6.9580   -0.6130   30.4010 C   0  0  0  0  0  0  0  0  0  0  0  0
    6.8300    0.7340   30.2240 C   0  0  0  0  0  0  0  0  0  0  0  0
    5.8510    1.4580   29.6080 C   0  0  0  0  0  0  0  0  0  0  0  0
    5.6670   -4.8720   23.2090 C   0  0  0  0  0  0  0  0  0  0  0  0
    6.5350   -5.3860   22.1430 C   0  0  0  0  0  0  0  0  0  0  0  0
  1  2  1  0
  2  3  2  0
  2  4  1  0
  4  5  1  0
  5  6  1  0
  6  7  1  0
  7  8  1  0
  8  9  2  0
  8 10  1  0
 10 11  1  0
 11 12  1  6
 11 13  1  0
 13 14  1  0
 14 15  1  0
 15 16  1  0
 16 17  1  0
 17 18  2  3
  7 19  1  0
  4 20  1  0
 19 20  1  0
M  END
