piperidine-amides-15251-covalent
     RDKit          3D

 19 20  0  0  0  0  0  0  0  0999 V2000
    7.1130   -3.2670   19.2360 C   0  0  0  0  0  0  0  0  0  0  0  0
    6.3800   -4.0710   20.2270 C   0  0  0  0  0  0  0  0  0  0  0  0
    5.3140   -4.6430   19.9190 O   0  0  0  0  0  0  0  0  0  0  0  0
    6.8970   -4.2490   21.5120 N   0  0  0  0  0  0  0  0  0  0  0  0
    7.6640   -3.1860   22.1260 C   0  0  0  0  0  0  0  0  0  0  0  0
    6.7840   -2.6240   23.2370 C   0  0  0  0  0  0  0  0  0  0  0  0
    6.5420   -3.7880   24.1650 C   0  0  0  0  0  0  0  0  0  0  0  0
    5.8020   -3.3070   25.3470 C   0  0  0  0  0  0  0  0  0  0  0  0
    4.5530   -3.3070   25.3080 O   0  0  0  0  0  0  0  0  0  0  0  0
    6.5160   -2.8610   26.4800 N   0  0  0  0  0  0  0  0  0  0  0  0
    6.2600   -3.4360   27.7730 C   0  0  0  0  0  0  0  0  0  0  0  0
    6.1490   -2.2950   28.7700 C   0  0  0  0  0  0  0  0  0  0  0  0
    7.2520   -1.3860   28.9800 N   0  0  0  0  0  0  0  0  0  0  0  0
    6.8640   -0.4800   29.9210 N   0  0  0  0  0  0  0  0  0  0  0  0
    5.5760   -0.7590   30.3200 N   0  0  0  0  0  0  0  0  0  0  0  0
    5.2570   -1.8240   29.5950 N   0  0  0  0  0  0  0  0  0  0  0  0
    4.0150   -2.5680   29.5890 C   0  0  0  0  0  0  0  0  0  0  0  0
    5.8140   -4.8710   23.4430 C   0  0  0  0  0  0  0  0  0  0  0  0
    6.5020   -5.3480   22.3300 C   0  0  0  0  0  0  0  0  0  0  0  0
  1  2  1  0
  2  3  2  0
  2  4  1  0
  4  5  1  0
  5  6  1  0
  6  7  1  0
  7  8  1  0
  8  9  2  0
  8 10  1  0
 10 11  1  0
 11 12  1  0
 12 13  2  0
 13 14  1  0
 14 15  2  0
 12 16  1  0
 15 16  1  0
 16 17  1  0
  7 18  1  0
  4 19  1  0
 18 19  1  0
M  END
