piperidine-amides-13462-covalent
     RDKit          3D

 20 21  0  0  0  0  0  0  0  0999 V2000
    7.0870   -3.3090   19.2880 C   0  0  0  0  0  0  0  0  0  0  0  0
    6.3680   -4.1420   20.2890 C   0  0  0  0  0  0  0  0  0  0  0  0
    5.3370   -4.7510   19.9520 O   0  0  0  0  0  0  0  0  0  0  0  0
    6.9110   -4.2590   21.5800 N   0  0  0  0  0  0  0  0  0  0  0  0
    7.7350   -3.2340   22.1830 C   0  0  0  0  0  0  0  0  0  0  0  0
    6.9280   -2.6600   23.3370 C   0  0  0  0  0  0  0  0  0  0  0  0
    6.6570   -3.8020   24.2410 C   0  0  0  0  0  0  0  0  0  0  0  0
    5.9100   -3.3990   25.4500 C   0  0  0  0  0  0  0  0  0  0  0  0
    4.7730   -3.8720   25.5660 O   0  0  0  0  0  0  0  0  0  0  0  0
    6.4780   -2.5250   26.3850 N   0  0  0  0  0  0  0  0  0  0  0  0
    5.7450   -1.6080   27.1820 C   0  0  0  0  0  0  0  0  0  0  0  0
    4.4490   -1.9320   27.5290 C   0  0  0  0  0  0  0  0  0  0  0  0
    3.8640   -1.1730   28.5570 C   0  0  0  0  0  0  0  0  0  0  0  0
    2.5390   -0.8030   28.5070 C   0  0  0  0  0  0  0  0  0  0  0  0
    6.5800   -1.5190   28.4560 C   0  0  0  0  0  0  0  0  0  0  0  0
    6.8020   -0.0690   28.8580 C   0  0  0  0  0  0  0  0  0  0  0  0
    6.2390    0.6310   27.6760 C   0  0  0  0  0  0  0  0  0  0  0  0
    5.7800   -0.2560   26.7490 C   0  0  0  0  0  0  0  0  0  0  0  0
    5.9250   -4.9370   23.5970 C   0  0  0  0  0  0  0  0  0  0  0  0
    6.6240   -5.4450   22.3520 C   0  0  0  0  0  0  0  0  0  0  0  0
  1  2  1  0
  2  3  2  0
  2  4  1  0
  4  5  1  0
  5  6  1  0
  6  7  1  0
  7  8  1  0
  8  9  2  0
  8 10  1  0
 11 10  1  0
 11 12  1  0
 12 13  1  0
 13 14  2  3
 11 15  1  0
 15 16  1  0
 16 17  2  0
 11 18  1  0
 17 18  1  0
  7 19  1  0
  4 20  1  0
 19 20  1  0
M  END
