piperidine-amides-2807-covalent
     RDKit          3D

 24 25  0  0  0  0  0  0  0  0999 V2000
    7.0680   -3.2820   19.2830 C   0  0  0  0  0  0  0  0  0  0  0  0
    6.2980   -4.0690   20.2490 C   0  0  0  0  0  0  0  0  0  0  0  0
    5.2610   -4.6220   19.8990 O   0  0  0  0  0  0  0  0  0  0  0  0
    6.7640   -4.2410   21.5970 N   0  0  0  0  0  0  0  0  0  0  0  0
    6.4550   -5.4470   22.3270 C   0  0  0  0  0  0  0  0  0  0  0  0
    5.7380   -5.1530   23.6300 C   0  0  0  0  0  0  0  0  0  0  0  0
    5.8990   -3.6840   24.0050 C   0  0  0  0  0  0  0  0  0  0  0  0
    5.5850   -3.4260   25.4500 C   0  0  0  0  0  0  0  0  0  0  0  0
    4.4690   -2.9890   25.7850 O   0  0  0  0  0  0  0  0  0  0  0  0
    6.5460   -3.6610   26.4780 N   0  0  0  0  0  0  0  0  0  0  0  0
    6.7440   -5.0060   26.9990 C   0  0  0  0  0  0  0  0  0  0  0  0
    7.7130   -5.6330   26.0290 C   0  0  0  0  0  0  0  0  0  0  0  0
    7.3510   -4.9810   28.3540 C   0  0  0  0  0  0  0  0  0  0  0  0
    5.5070   -5.7920   27.0610 C   0  0  0  0  0  0  0  0  0  0  0  0
    4.9400   -6.1170   28.2850 C   0  0  0  0  0  0  0  0  0  0  0  0
    3.6020   -5.6770   28.6130 C   0  0  0  0  0  0  0  0  0  0  0  0
    3.0520   -5.9910   29.8080 C   0  0  0  0  0  0  0  0  0  0  0  0
    3.7750   -6.7320   30.7040 C   0  0  0  0  0  0  0  0  0  0  0  0
    3.1530   -7.0170   31.9100 O   0  0  0  0  0  0  0  0  0  0  0  0
    3.5920   -8.2220   32.4760 C   0  0  0  0  0  0  0  0  0  0  0  0
    5.1410   -7.1920   30.3890 C   0  0  0  0  0  0  0  0  0  0  0  0
    5.7260   -6.8730   29.1520 C   0  0  0  0  0  0  0  0  0  0  0  0
    7.2640   -3.1890   23.6720 C   0  0  0  0  0  0  0  0  0  0  0  0
    7.4710   -3.1740   22.2060 C   0  0  0  0  0  0  0  0  0  0  0  0
  1  2  1  0
  2  3  2  0
  2  4  1  0
  4  5  1  0
  5  6  1  0
  6  7  1  0
  7  8  1  0
  8  9  2  0
  8 10  1  0
 11 10  1  0
 11 12  1  0
 11 13  1  0
 11 14  1  0
 14 15  1  0
 15 16  2  0
 16 17  1  0
 17 18  2  0
 18 19  1  0
 19 20  1  0
 18 21  1  0
 15 22  1  0
 21 22  2  0
  7 23  1  0
  4 24  1  0
 23 24  1  0
M  END
