piperidine-amides-25354-covalent
     RDKit          3D

 23 25  0  0  0  0  0  0  0  0999 V2000
    7.0770   -3.3700   19.3660 C   0  0  0  0  0  0  0  0  0  0  0  0
    6.3760   -4.2100   20.3660 C   0  0  0  0  0  0  0  0  0  0  0  0
    5.3730   -4.8040   19.9790 O   0  0  0  0  0  0  0  0  0  0  0  0
    6.8940   -4.3410   21.6650 N   0  0  0  0  0  0  0  0  0  0  0  0
    6.7200   -5.5690   22.4140 C   0  0  0  0  0  0  0  0  0  0  0  0
    6.1330   -5.2710   23.7710 C   0  0  0  0  0  0  0  0  0  0  0  0
    6.0950   -3.7590   23.9690 C   0  0  0  0  0  0  0  0  0  0  0  0
    5.5360   -3.4440   25.3010 C   0  0  0  0  0  0  0  0  0  0  0  0
    4.4200   -2.9130   25.3460 O   0  0  0  0  0  0  0  0  0  0  0  0
    6.1950   -3.7060   26.5130 N   0  0  0  0  0  0  0  0  0  0  0  0
    6.4950   -2.5550   27.3350 C   0  0  0  0  0  0  0  0  0  0  0  0
    6.5860   -3.1970   28.6810 C   0  0  0  0  0  0  0  0  0  0  0  0
    5.8350   -4.2900   28.7390 C   0  0  0  0  0  0  0  0  0  0  0  0
    4.8170   -4.3710   29.6380 C   0  0  0  0  0  0  0  0  0  0  0  0
    3.6350   -4.5650   28.9880 C   0  0  0  0  0  0  0  0  0  0  0  0
    3.7350   -6.2550   29.0210 S   0  0  0  0  0  0  0  0  0  0  0  0
    3.0280   -6.7970   27.8220 O   0  0  0  0  0  0  0  0  0  0  0  0
    3.1210   -6.7370   30.3070 O   0  0  0  0  0  0  0  0  0  0  0  0
    5.4630   -6.6700   28.9800 C   0  0  0  0  0  0  0  0  0  0  0  0
    6.4650   -5.6250   28.5560 C   0  0  0  0  0  0  0  0  0  0  0  0
    5.7120   -4.8170   27.3420 C   0  0  0  0  0  0  0  0  0  0  0  0
    7.3410   -3.0610   23.6250 C   0  0  0  0  0  0  0  0  0  0  0  0
    7.7180   -3.2840   22.2080 C   0  0  0  0  0  0  0  0  0  0  0  0
  1  2  1  0
  2  3  2  0
  2  4  1  0
  4  5  1  0
  5  6  1  0
  6  7  1  0
  7  8  1  0
  8  9  2  0
  8 10  1  0
 10 11  1  0
 11 12  1  0
 13 12  1  0
 13 14  1  0
 14 15  1  0
 16 15  1  0
 16 17  2  0
 16 18  2  0
 16 19  1  0
 13 20  1  0
 19 20  1  0
 10 21  1  0
 13 21  1  0
  7 22  1  0
  4 23  1  0
 22 23  1  0
M  END
