piperidine-amides-30605-covalent
     RDKit          3D

 27 29  0  0  0  0  0  0  0  0999 V2000
    6.9890   -3.3750   19.4220 C   0  0  0  0  0  0  0  0  0  0  0  0
    6.3490   -4.2460   20.4160 C   0  0  0  0  0  0  0  0  0  0  0  0
    5.4350   -4.9910   20.0180 O   0  0  0  0  0  0  0  0  0  0  0  0
    6.7600   -4.2780   21.7720 N   0  0  0  0  0  0  0  0  0  0  0  0
    7.5910   -3.2220   22.3320 C   0  0  0  0  0  0  0  0  0  0  0  0
    7.2390   -3.0850   23.7980 C   0  0  0  0  0  0  0  0  0  0  0  0
    5.8970   -3.6860   24.1140 C   0  0  0  0  0  0  0  0  0  0  0  0
    5.2160   -3.1250   25.3590 C   0  0  0  0  0  0  0  0  0  0  0  0
    4.6540   -2.0060   25.2490 O   0  0  0  0  0  0  0  0  0  0  0  0
    5.0980   -3.6970   26.6720 N   0  0  0  0  0  0  0  0  0  0  0  0
    4.6400   -2.8450   27.8120 C   0  0  0  0  0  0  0  0  0  0  0  0
    5.2850   -3.2200   29.1210 C   0  0  0  0  0  0  0  0  0  0  0  0
    5.2780   -4.5470   29.2610 N   0  0  0  0  0  0  0  0  0  0  0  0
    4.1240   -5.3020   29.5860 C   0  0  0  0  0  0  0  0  0  0  0  0
    3.0720   -5.3560   28.9240 O   0  0  0  0  0  0  0  0  0  0  0  0
    4.3720   -6.0430   30.8780 C   0  0  0  0  0  0  0  0  0  0  0  0
    3.5300   -5.5610   32.0610 C   0  0  0  0  0  0  0  0  0  0  0  0
    3.7770   -6.3070   33.3390 C   0  0  0  0  0  0  0  0  0  0  0  0
    4.6710   -7.3400   33.4810 C   0  0  0  0  0  0  0  0  0  0  0  0
    4.8740   -8.0040   34.6540 F   0  0  0  0  0  0  0  0  0  0  0  0
    5.3980   -7.7170   32.3660 C   0  0  0  0  0  0  0  0  0  0  0  0
    5.2610   -7.0660   31.0240 C   0  0  0  0  0  0  0  0  0  0  0  0
    6.0320   -7.5080   29.9580 F   0  0  0  0  0  0  0  0  0  0  0  0
    5.9510   -5.2830   28.2580 C   0  0  0  0  0  0  0  0  0  0  0  0
    6.1170   -4.5960   26.9490 C   0  0  0  0  0  0  0  0  0  0  0  0
    6.0070   -5.1690   23.9290 C   0  0  0  0  0  0  0  0  0  0  0  0
    6.4280   -5.4630   22.5230 C   0  0  0  0  0  0  0  0  0  0  0  0
  1  2  1  0
  2  3  2  0
  2  4  1  0
  4  5  1  0
  5  6  1  0
  6  7  1  0
  7  8  1  0
  8  9  2  0
  8 10  1  0
 10 11  1  0
 11 12  1  0
 12 13  1  0
 13 14  1  0
 14 15  2  0
 14 16  1  0
 16 17  2  0
 17 18  1  0
 18 19  2  0
 19 20  1  0
 19 21  1  0
 16 22  1  0
 21 22  2  0
 22 23  1  0
 13 24  1  0
 10 25  1  0
 24 25  1  0
  7 26  1  0
  4 27  1  0
 26 27  1  0
M  END
