piperidine-amides-7098-covalent
     RDKit          3D

 22 23  0  0  0  0  0  0  0  0999 V2000
    7.0410   -3.3370   19.3170 C   0  0  0  0  0  0  0  0  0  0  0  0
    6.3680   -4.1760   20.3200 C   0  0  0  0  0  0  0  0  0  0  0  0
    5.3860   -4.8750   19.9860 O   0  0  0  0  0  0  0  0  0  0  0  0
    6.8440   -4.2360   21.6390 N   0  0  0  0  0  0  0  0  0  0  0  0
    7.6940   -3.1630   22.1400 C   0  0  0  0  0  0  0  0  0  0  0  0
    7.4280   -2.9740   23.6420 C   0  0  0  0  0  0  0  0  0  0  0  0
    6.0670   -3.5600   23.9190 C   0  0  0  0  0  0  0  0  0  0  0  0
    5.6500   -3.2510   25.3010 C   0  0  0  0  0  0  0  0  0  0  0  0
    4.4450   -3.3840   25.6000 O   0  0  0  0  0  0  0  0  0  0  0  0
    6.6200   -2.8250   26.2370 N   0  0  0  0  0  0  0  0  0  0  0  0
    6.5070   -1.6060   27.0050 C   0  0  0  0  0  0  0  0  0  0  0  0
    7.0490   -1.6200   28.4180 C   0  0  0  0  0  0  0  0  0  0  0  0
    6.9910   -0.5110   29.2080 C   0  0  0  0  0  0  0  0  0  0  0  0
    6.4270    0.6320   28.6960 C   0  0  0  0  0  0  0  0  0  0  0  0
    5.9090    0.6990   27.3970 C   0  0  0  0  0  0  0  0  0  0  0  0
    5.8920   -0.3380   26.4800 C   0  0  0  0  0  0  0  0  0  0  0  0
    5.3230   -0.2280   25.0710 C   0  0  0  0  0  0  0  0  0  0  0  0
    4.3370    0.2800   26.1100 C   0  0  0  0  0  0  0  0  0  0  0  0
    3.8090   -0.6690   27.1170 N   0  0  0  0  0  0  0  0  0  0  0  0
    4.0330    1.5020   25.9980 O   0  0  0  0  0  0  0  0  0  0  0  0
    6.0090   -5.0190   23.7060 C   0  0  0  0  0  0  0  0  0  0  0  0
    6.6160   -5.3960   22.4340 C   0  0  0  0  0  0  0  0  0  0  0  0
  1  2  1  0
  2  3  2  0
  2  4  1  0
  4  5  1  0
  5  6  1  0
  6  7  1  0
  7  8  1  0
  8  9  2  0
  8 10  1  0
 10 11  1  0
 11 12  2  0
 12 13  1  0
 13 14  2  0
 14 15  1  0
 11 16  1  0
 15 16  2  0
 16 17  1  0
 17 18  1  0
 18 19  1  0
 18 20  2  0
  7 21  1  0
  4 22  1  0
 21 22  1  0
M  END
