piperidine-amides-29782-covalent
     RDKit          3D

 27 29  0  0  0  0  0  0  0  0999 V2000
    7.0330   -3.3620   19.4490 C   0  0  0  0  0  0  0  0  0  0  0  0
    6.3750   -4.2590   20.3910 C   0  0  0  0  0  0  0  0  0  0  0  0
    5.4070   -4.9180   20.0030 O   0  0  0  0  0  0  0  0  0  0  0  0
    6.8650   -4.4230   21.7420 N   0  0  0  0  0  0  0  0  0  0  0  0
    7.6000   -3.3830   22.4230 C   0  0  0  0  0  0  0  0  0  0  0  0
    6.8000   -2.7900   23.5660 C   0  0  0  0  0  0  0  0  0  0  0  0
    6.1780   -3.8760   24.4570 C   0  0  0  0  0  0  0  0  0  0  0  0
    5.1650   -3.2550   25.4050 C   0  0  0  0  0  0  0  0  0  0  0  0
    4.2520   -2.5580   24.9430 O   0  0  0  0  0  0  0  0  0  0  0  0
    5.1980   -3.4180   26.8470 N   0  0  0  0  0  0  0  0  0  0  0  0
    6.4430   -3.6440   27.3740 C   0  0  0  0  0  0  0  0  0  0  0  0
    6.4220   -5.0780   27.8910 C   0  0  0  0  0  0  0  0  0  0  0  0
    5.4150   -5.4870   28.6250 N   0  0  0  0  0  0  0  0  0  0  0  0
    5.7610   -6.4820   29.4510 C   0  0  0  0  0  0  0  0  0  0  0  0
    4.8840   -7.0940   30.3530 C   0  0  0  0  0  0  0  0  0  0  0  0
    3.5980   -7.4600   29.9690 C   0  0  0  0  0  0  0  0  0  0  0  0
    2.7260   -8.0870   30.9550 C   0  0  0  0  0  0  0  0  0  0  0  0
    3.1170   -8.3330   32.2410 C   0  0  0  0  0  0  0  0  0  0  0  0
    4.3870   -7.9600   32.5720 C   0  0  0  0  0  0  0  0  0  0  0  0
    5.2480   -7.3600   31.6630 C   0  0  0  0  0  0  0  0  0  0  0  0
    5.1340   -4.4000   29.3340 C   0  0  0  0  0  0  0  0  0  0  0  0
    4.2000   -3.4690   28.9360 C   0  0  0  0  0  0  0  0  0  0  0  0
    4.4830   -2.6310   27.8320 C   0  0  1  0  0  0  0  0  0  0  0  0
    5.3230   -1.4250   28.1140 C   0  0  0  0  0  0  0  0  0  0  0  0
    4.6090   -0.0950   28.3910 C   0  0  0  0  0  0  0  0  0  0  0  0
    5.5960   -5.0120   23.6470 C   0  0  0  0  0  0  0  0  0  0  0  0
    6.4470   -5.5420   22.5320 C   0  0  0  0  0  0  0  0  0  0  0  0
  1  2  1  0
  2  3  2  0
  2  4  1  0
  4  5  1  0
  5  6  1  0
  6  7  1  0
  7  8  1  0
  8  9  2  0
  8 10  1  0
 10 11  1  0
 11 12  1  0
 12 13  1  0
 13 14  1  0
 14 15  1  0
 15 16  2  0
 16 17  1  0
 17 18  2  0
 18 19  1  0
 15 20  1  0
 19 20  2  0
 13 21  1  0
 21 22  1  0
 10 23  1  0
 22 23  1  0
 23 24  1  1
 24 25  1  0
  7 26  1  0
  4 27  1  0
 26 27  1  0
M  END
