piperidine-amides-11627-covalent
     RDKit          3D

 22 24  0  0  0  0  0  0  0  0999 V2000
    7.0960   -3.3410   19.2740 C   0  0  0  0  0  0  0  0  0  0  0  0
    6.3310   -4.1010   20.2530 C   0  0  0  0  0  0  0  0  0  0  0  0
    5.2790   -4.6410   19.9210 O   0  0  0  0  0  0  0  0  0  0  0  0
    6.8440   -4.2750   21.5790 N   0  0  0  0  0  0  0  0  0  0  0  0
    7.6890   -3.2590   22.1530 C   0  0  0  0  0  0  0  0  0  0  0  0
    7.0800   -2.7430   23.4170 C   0  0  0  0  0  0  0  0  0  0  0  0
    6.5220   -3.9270   24.1840 C   0  0  0  0  0  0  0  0  0  0  0  0
    5.7780   -3.3940   25.3510 C   0  0  0  0  0  0  0  0  0  0  0  0
    4.5350   -3.4340   25.4410 O   0  0  0  0  0  0  0  0  0  0  0  0
    6.5280   -2.8080   26.3900 N   0  0  0  0  0  0  0  0  0  0  0  0
    5.8660   -1.8530   27.2440 C   0  0  2  0  0  0  0  0  0  0  0  0
    6.0660   -0.5590   26.9380 C   0  0  0  0  0  0  0  0  0  0  0  0
    6.8490   -0.9550   28.0780 C   0  0  1  0  0  0  0  0  0  0  0  0
    6.5900   -0.5540   29.4000 C   0  0  0  0  0  0  0  0  0  0  0  0
    7.6530   -0.4930   30.3070 C   0  0  0  0  0  0  0  0  0  0  0  0
    7.4110   -0.0820   31.6560 C   0  0  0  0  0  0  0  0  0  0  0  0
    6.1920    0.2530   32.1060 C   0  0  0  0  0  0  0  0  0  0  0  0
    5.1400    0.1970   31.2370 C   0  0  0  0  0  0  0  0  0  0  0  0
    5.3040   -0.1970   29.8920 C   0  0  0  0  0  0  0  0  0  0  0  0
    3.7380   -0.2320   28.7790 Br  0  0  0  0  0  0  0  0  0  0  0  0
    5.7270   -4.8900   23.4370 C   0  0  0  0  0  0  0  0  0  0  0  0
    6.4840   -5.3990   22.3990 C   0  0  0  0  0  0  0  0  0  0  0  0
  1  2  1  0
  2  3  2  0
  2  4  1  0
  4  5  1  0
  5  6  1  0
  6  7  1  0
  7  8  1  0
  8  9  2  0
  8 10  1  0
 11 10  1  6
 11 12  1  0
 11 13  1  0
 12 13  1  0
 13 14  1  1
 14 15  2  0
 15 16  1  0
 16 17  2  0
 17 18  1  0
 14 19  1  0
 18 19  2  0
 19 20  1  0
  7 21  1  0
  4 22  1  0
 21 22  1  0
M  END
