piperidine-amides-5117-covalent
     RDKit          3D

 22 23  0  0  0  0  0  0  0  0999 V2000
    7.1210   -3.2810   19.2410 C   0  0  0  0  0  0  0  0  0  0  0  0
    6.3310   -4.0310   20.2420 C   0  0  0  0  0  0  0  0  0  0  0  0
    5.2480   -4.5090   19.8590 O   0  0  0  0  0  0  0  0  0  0  0  0
    6.8090   -4.2360   21.5430 N   0  0  0  0  0  0  0  0  0  0  0  0
    7.5410   -3.2030   22.2010 C   0  0  0  0  0  0  0  0  0  0  0  0
    7.1120   -2.9000   23.5740 C   0  0  0  0  0  0  0  0  0  0  0  0
    6.4300   -3.9980   24.3000 C   0  0  0  0  0  0  0  0  0  0  0  0
    5.6820   -3.4820   25.4850 C   0  0  0  0  0  0  0  0  0  0  0  0
    4.4620   -3.2700   25.3420 O   0  0  0  0  0  0  0  0  0  0  0  0
    6.3050   -3.2230   26.7340 N   0  0  0  0  0  0  0  0  0  0  0  0
    6.2400   -4.1360   27.9160 C   0  0  2  0  0  0  0  0  0  0  0  0
    5.9740   -5.5580   27.5300 C   0  0  0  0  0  0  0  0  0  0  0  0
    5.3030   -3.6440   28.9460 C   0  0  0  0  0  0  0  0  0  0  0  0
    4.2930   -4.4490   29.4260 C   0  0  0  0  0  0  0  0  0  0  0  0
    3.3650   -4.1110   30.3810 C   0  0  0  0  0  0  0  0  0  0  0  0
    2.1370   -5.2630   30.8850 Cl  0  0  0  0  0  0  0  0  0  0  0  0
    3.4420   -2.8650   30.9060 C   0  0  0  0  0  0  0  0  0  0  0  0
    4.4240   -2.0260   30.4650 C   0  0  0  0  0  0  0  0  0  0  0  0
    5.3400   -2.3860   29.5140 C   0  0  0  0  0  0  0  0  0  0  0  0
    6.5210   -1.1330   29.1030 Cl  0  0  0  0  0  0  0  0  0  0  0  0
    5.5500   -4.7940   23.3800 C   0  0  0  0  0  0  0  0  0  0  0  0
    6.4090   -5.3770   22.3260 C   0  0  0  0  0  0  0  0  0  0  0  0
  1  2  1  0
  2  3  2  0
  2  4  1  0
  4  5  1  0
  5  6  1  0
  6  7  1  0
  7  8  1  0
  8  9  2  0
  8 10  1  0
 10 11  1  0
 11 12  1  6
 11 13  1  0
 13 14  2  0
 14 15  1  0
 15 16  1  0
 15 17  2  0
 17 18  1  0
 13 19  1  0
 18 19  2  0
 19 20  1  0
  7 21  1  0
  4 22  1  0
 21 22  1  0
M  END
