piperidine-amides-30469-covalent
     RDKit          3D

 27 29  0  0  0  0  0  0  0  0999 V2000
    7.0490   -3.3960   19.4330 C   0  0  0  0  0  0  0  0  0  0  0  0
    6.3610   -4.2390   20.4150 C   0  0  0  0  0  0  0  0  0  0  0  0
    5.4090   -4.9350   20.0120 O   0  0  0  0  0  0  0  0  0  0  0  0
    6.7820   -4.3100   21.7650 N   0  0  0  0  0  0  0  0  0  0  0  0
    7.6840   -3.3120   22.3220 C   0  0  0  0  0  0  0  0  0  0  0  0
    7.2660   -3.0670   23.7500 C   0  0  0  0  0  0  0  0  0  0  0  0
    5.9830   -3.7710   24.0670 C   0  0  0  0  0  0  0  0  0  0  0  0
    5.2600   -3.2510   25.2860 C   0  0  0  0  0  0  0  0  0  0  0  0
    4.4740   -2.2850   25.1190 O   0  0  0  0  0  0  0  0  0  0  0  0
    5.3200   -3.7050   26.6380 N   0  0  0  0  0  0  0  0  0  0  0  0
    6.4780   -3.3730   27.3800 C   0  0  0  0  0  0  0  0  0  0  0  0
    6.7150   -4.5490   28.2580 C   0  0  0  0  0  0  0  0  0  0  0  0
    5.5840   -4.9090   29.0820 C   0  0  0  0  0  0  0  0  0  0  0  0
    5.7800   -6.3140   29.6140 C   0  0  0  0  0  0  0  0  0  0  0  0
    4.4640   -6.8060   30.1950 C   0  0  0  0  0  0  0  0  0  0  0  0
    4.5580   -6.7900   31.6790 C   0  0  0  0  0  0  0  0  0  0  0  0
    5.4900   -7.6110   32.2940 C   0  0  0  0  0  0  0  0  0  0  0  0
    5.7080   -7.7240   33.6560 C   0  0  0  0  0  0  0  0  0  0  0  0
    4.8710   -6.8880   34.5350 C   0  0  0  0  0  0  0  0  0  0  0  0
    5.0190   -6.9350   35.8870 F   0  0  0  0  0  0  0  0  0  0  0  0
    3.8470   -5.9820   33.8960 C   0  0  0  0  0  0  0  0  0  0  0  0
    3.5890   -5.8470   32.3980 C   0  0  0  0  0  0  0  0  0  0  0  0
    2.6800   -5.0460   31.8610 F   0  0  0  0  0  0  0  0  0  0  0  0
    4.3170   -4.7350   28.5260 C   0  0  0  0  0  0  0  0  0  0  0  0
    4.2830   -3.5790   27.5780 C   0  0  0  0  0  0  0  0  0  0  0  0
    6.1100   -5.2660   23.9040 C   0  0  0  0  0  0  0  0  0  0  0  0
    6.6150   -5.5570   22.4780 C   0  0  0  0  0  0  0  0  0  0  0  0
  1  2  1  0
  2  3  2  0
  2  4  1  0
  4  5  1  0
  5  6  1  0
  6  7  1  0
  7  8  1  0
  8  9  2  0
  8 10  1  0
 10 11  1  0
 11 12  1  0
 12 13  1  0
 13 14  1  0
 14 15  1  0
 15 16  1  0
 16 17  2  0
 17 18  1  0
 18 19  2  0
 19 20  1  0
 19 21  1  0
 16 22  1  0
 21 22  2  0
 22 23  1  0
 13 24  1  0
 10 25  1  0
 24 25  1  0
  7 26  1  0
  4 27  1  0
 26 27  1  0
M  END
