piperidine-amides-17192-covalent
     RDKit          3D

 20 21  0  0  0  0  0  0  0  0999 V2000
    7.0640   -3.3520   19.3470 C   0  0  0  0  0  0  0  0  0  0  0  0
    6.4070   -4.2050   20.3510 C   0  0  0  0  0  0  0  0  0  0  0  0
    5.3820   -4.8300   19.9790 O   0  0  0  0  0  0  0  0  0  0  0  0
    6.9470   -4.3430   21.6560 N   0  0  0  0  0  0  0  0  0  0  0  0
    6.6460   -5.5180   22.4090 C   0  0  0  0  0  0  0  0  0  0  0  0
    6.2180   -5.2250   23.7700 C   0  0  0  0  0  0  0  0  0  0  0  0
    6.1810   -3.7820   24.0440 C   0  0  0  0  0  0  0  0  0  0  0  0
    5.5850   -3.4450   25.3840 C   0  0  0  0  0  0  0  0  0  0  0  0
    4.4920   -2.8530   25.3960 O   0  0  0  0  0  0  0  0  0  0  0  0
    6.1510   -3.7540   26.6370 N   0  0  0  0  0  0  0  0  0  0  0  0
    6.0600   -2.9390   27.7340 C   0  0  0  0  0  0  0  0  0  0  0  0
    5.8560   -3.7420   28.8850 C   0  0  0  0  0  0  0  0  0  0  0  0
    5.2200   -5.0450   28.3520 C   0  0  2  0  0  0  0  0  0  0  0  0
    5.3660   -6.1000   29.2300 C   0  0  0  0  0  0  0  0  0  0  0  0
    5.0990   -7.1000   28.1120 C   0  0  0  0  0  0  0  0  0  0  0  0
    4.2460   -6.2550   30.2740 C   0  0  0  0  0  0  0  0  0  0  0  0
    6.6040   -6.3130   29.7790 O   0  0  0  0  0  0  0  0  0  0  0  0
    6.0630   -5.1150   27.1260 C   0  0  0  0  0  0  0  0  0  0  0  0
    7.4830   -3.0990   23.7310 C   0  0  0  0  0  0  0  0  0  0  0  0
    7.7350   -3.2620   22.2390 C   0  0  0  0  0  0  0  0  0  0  0  0
  1  2  1  0
  2  3  2  0
  2  4  1  0
  4  5  1  0
  5  6  1  0
  6  7  1  0
  7  8  1  0
  8  9  2  0
  8 10  1  0
 10 11  1  0
 11 12  1  0
 12 13  1  0
 13 14  1  1
 14 15  1  0
 14 16  1  0
 14 17  1  0
 10 18  1  0
 13 18  1  0
  7 19  1  0
  4 20  1  0
 19 20  1  0
M  END
