piperidine-amides-12457-covalent
     RDKit          3D

 23 23  0  0  0  0  0  0  0  0999 V2000
    7.1000   -3.2800   19.1530 C   0  0  0  0  0  0  0  0  0  0  0  0
    6.3380   -3.9850   20.1800 C   0  0  0  0  0  0  0  0  0  0  0  0
    5.2880   -4.5530   19.8850 O   0  0  0  0  0  0  0  0  0  0  0  0
    6.8440   -4.0610   21.5220 N   0  0  0  0  0  0  0  0  0  0  0  0
    7.7040   -3.0180   22.0160 C   0  0  0  0  0  0  0  0  0  0  0  0
    7.1120   -2.4010   23.2430 C   0  0  0  0  0  0  0  0  0  0  0  0
    6.6870   -3.5290   24.1650 C   0  0  0  0  0  0  0  0  0  0  0  0
    5.9840   -2.9180   25.3290 C   0  0  0  0  0  0  0  0  0  0  0  0
    4.7540   -2.6920   25.3240 O   0  0  0  0  0  0  0  0  0  0  0  0
    6.7450   -2.5970   26.4850 N   0  0  0  0  0  0  0  0  0  0  0  0
    6.7480   -3.5820   27.5340 C   0  0  0  0  0  0  0  0  0  0  0  0
    6.3330   -4.8280   26.8170 C   0  0  2  0  0  0  0  0  0  0  0  0
    5.4270   -5.7230   27.3720 C   0  0  0  0  0  0  0  0  0  0  0  0
    5.2890   -5.9840   28.7450 C   0  0  0  0  0  0  0  0  0  0  0  0
    4.7540   -4.8940   29.3950 C   0  0  0  0  0  0  0  0  0  0  0  0
    4.5390   -7.1350   28.8680 C   0  0  0  0  0  0  0  0  0  0  0  0
    6.4140   -6.4210   29.3600 C   0  0  0  0  0  0  0  0  0  0  0  0
    7.3830   -5.7060   26.3950 C   0  0  0  0  0  0  0  0  0  0  0  0
    7.6970   -5.6810   25.0500 O   0  0  0  0  0  0  0  0  0  0  0  0
    8.0190   -6.4600   27.1230 O   0  0  0  0  0  0  0  0  0  0  0  0
    9.3320   -6.1240   26.9840 C   0  0  0  0  0  0  0  0  0  0  0  0
    5.9080   -4.6020   23.5530 C   0  0  0  0  0  0  0  0  0  0  0  0
    6.4960   -5.1330   22.4130 C   0  0  0  0  0  0  0  0  0  0  0  0
  1  2  1  0
  2  3  2  0
  2  4  1  0
  4  5  1  0
  5  6  1  0
  6  7  1  0
  7  8  1  0
  8  9  2  0
  8 10  1  0
 10 11  1  0
 12 11  1  1
 12 13  1  0
 14 13  1  0
 14 15  1  0
 14 16  1  0
 14 17  1  0
 12 18  1  0
 18 19  2  0
 18 20  1  0
 20 21  1  0
  7 22  1  0
  4 23  1  0
 22 23  1  0
M  END
