piperidine-amides-29403-covalent
     RDKit          3D

 27 29  0  0  0  0  0  0  0  0999 V2000
    7.1340   -3.2970   19.2450 C   0  0  0  0  0  0  0  0  0  0  0  0
    6.3610   -4.0280   20.2450 C   0  0  0  0  0  0  0  0  0  0  0  0
    5.2960   -4.5600   19.8910 O   0  0  0  0  0  0  0  0  0  0  0  0
    6.8630   -4.1530   21.5660 N   0  0  0  0  0  0  0  0  0  0  0  0
    6.5450   -5.3290   22.3160 C   0  0  0  0  0  0  0  0  0  0  0  0
    5.7810   -4.9170   23.5410 C   0  0  0  0  0  0  0  0  0  0  0  0
    6.5730   -3.8220   24.2270 C   0  0  0  0  0  0  0  0  0  0  0  0
    5.7780   -3.2850   25.3800 C   0  0  0  0  0  0  0  0  0  0  0  0
    4.5810   -3.1130   25.1550 O   0  0  0  0  0  0  0  0  0  0  0  0
    6.3950   -3.0090   26.6040 N   0  0  0  0  0  0  0  0  0  0  0  0
    5.8670   -3.5880   27.7960 C   0  0  0  0  0  0  0  0  0  0  0  0
    6.3770   -4.7970   28.2770 C   0  0  0  0  0  0  0  0  0  0  0  0
    5.6250   -5.4210   29.2400 C   0  0  2  0  0  0  0  0  0  0  0  0
    5.6370   -6.7980   29.2780 C   0  0  0  0  0  0  0  0  0  0  0  0
    4.3090   -7.4860   29.2890 C   0  0  0  0  0  0  0  0  0  0  0  0
    2.9430   -6.7670   29.2530 C   0  0  0  0  0  0  0  0  0  0  0  0
    3.2320   -5.4070   28.7460 C   0  0  0  0  0  0  0  0  0  0  0  0
    4.3840   -4.9160   29.5730 C   0  0  0  0  0  0  0  0  0  0  0  0
    6.6260   -1.5770   26.8380 C   0  0  0  0  0  0  0  0  0  0  0  0
    6.3750   -1.1250   28.1200 C   0  0  0  0  0  0  0  0  0  0  0  0
    5.0960   -0.6780   28.4990 C   0  0  0  0  0  0  0  0  0  0  0  0
    4.7640   -0.1750   29.8930 C   0  0  0  0  0  0  0  0  0  0  0  0
    5.8280   -0.1430   30.9260 C   0  0  0  0  0  0  0  0  0  0  0  0
    7.1720   -0.6180   30.5050 C   0  0  0  0  0  0  0  0  0  0  0  0
    7.3960   -1.1060   29.0770 C   0  0  0  0  0  0  0  0  0  0  0  0
    6.9870   -2.6590   23.3830 C   0  0  0  0  0  0  0  0  0  0  0  0
    7.6830   -3.1190   22.1290 C   0  0  0  0  0  0  0  0  0  0  0  0
  1  2  1  0
  2  3  2  0
  2  4  1  0
  4  5  1  0
  5  6  1  0
  6  7  1  0
  7  8  1  0
  8  9  2  0
  8 10  1  0
 10 11  1  0
 11 12  1  0
 13 12  1  6
 13 14  1  0
 14 15  2  0
 15 16  1  0
 16 17  1  0
 13 18  1  0
 17 18  1  0
 10 19  1  0
 19 20  1  0
 20 21  2  0
 21 22  1  0
 22 23  2  0
 23 24  1  0
 20 25  1  0
 24 25  2  0
  7 26  1  0
  4 27  1  0
 26 27  1  0
M  END
