piperidine-amides-23588-covalent
     RDKit          3D

 24 26  0  0  0  0  0  0  0  0999 V2000
    7.0530   -3.4210   19.4310 C   0  0  0  0  0  0  0  0  0  0  0  0
    6.3950   -4.2790   20.4320 C   0  0  0  0  0  0  0  0  0  0  0  0
    5.4020   -4.9310   20.0110 O   0  0  0  0  0  0  0  0  0  0  0  0
    6.8910   -4.4130   21.7670 N   0  0  0  0  0  0  0  0  0  0  0  0
    6.4380   -5.4930   22.5830 C   0  0  0  0  0  0  0  0  0  0  0  0
    5.8980   -5.0600   23.8770 C   0  0  0  0  0  0  0  0  0  0  0  0
    5.9070   -3.5900   24.0450 C   0  0  0  0  0  0  0  0  0  0  0  0
    5.1990   -2.9960   25.2740 C   0  0  0  0  0  0  0  0  0  0  0  0
    4.4740   -2.0180   25.0720 O   0  0  0  0  0  0  0  0  0  0  0  0
    5.2710   -3.4640   26.6170 N   0  0  0  0  0  0  0  0  0  0  0  0
    5.0090   -2.7350   27.8130 C   0  0  0  0  0  0  0  0  0  0  0  0
    5.5200   -3.1980   29.1290 C   0  0  0  0  0  0  0  0  0  0  0  0
    5.3140   -4.7140   29.2600 C   0  0  0  0  0  0  0  0  0  0  0  0
    4.8330   -5.4140   30.4440 N   0  0  0  0  0  0  0  0  0  0  0  0
    4.7830   -6.8330   30.1360 C   0  0  0  0  0  0  0  0  0  0  0  0
    4.3590   -7.5440   31.1890 N   0  0  0  0  0  0  0  0  0  0  0  0
    2.9710   -7.8640   31.5130 C   0  0  0  0  0  0  0  0  0  0  0  0
    5.3960   -7.6410   32.0530 C   0  0  0  0  0  0  0  0  0  0  0  0
    5.1100   -7.4410   28.9580 N   0  0  0  0  0  0  0  0  0  0  0  0
    5.5410   -6.7620   27.8940 C   0  0  0  0  0  0  0  0  0  0  0  0
    5.6660   -5.2980   28.0100 C   0  0  0  0  0  0  0  0  0  0  0  0
    6.1250   -4.4650   26.8800 C   0  0  0  0  0  0  0  0  0  0  0  0
    7.3220   -3.0510   23.8010 C   0  0  0  0  0  0  0  0  0  0  0  0
    7.5980   -3.2360   22.3380 C   0  0  0  0  0  0  0  0  0  0  0  0
  1  2  1  0
  2  3  2  0
  2  4  1  0
  4  5  1  0
  5  6  1  0
  6  7  1  0
  7  8  1  0
  8  9  2  0
  8 10  1  0
 10 11  1  0
 11 12  1  0
 12 13  1  0
 13 14  2  0
 14 15  1  0
 15 16  1  0
 16 17  1  0
 16 18  1  0
 15 19  2  0
 19 20  1  0
 13 21  1  0
 20 21  2  0
 10 22  1  0
 21 22  1  0
  7 23  1  0
  4 24  1  0
 23 24  1  0
M  END
