piperidine-amides-12333-covalent
     RDKit          3D

 24 25  0  0  0  0  0  0  0  0999 V2000
    7.0460   -3.3610   19.3120 C   0  0  0  0  0  0  0  0  0  0  0  0
    6.3670   -4.1890   20.2920 C   0  0  0  0  0  0  0  0  0  0  0  0
    5.3560   -4.8100   19.9740 O   0  0  0  0  0  0  0  0  0  0  0  0
    6.9110   -4.3290   21.6080 N   0  0  0  0  0  0  0  0  0  0  0  0
    7.4970   -3.1720   22.2190 C   0  0  0  0  0  0  0  0  0  0  0  0
    7.5410   -3.2640   23.7250 C   0  0  0  0  0  0  0  0  0  0  0  0
    6.4420   -4.1500   24.3480 C   0  0  0  0  0  0  0  0  0  0  0  0
    5.6250   -3.3610   25.3180 C   0  0  0  0  0  0  0  0  0  0  0  0
    4.4710   -2.9860   25.0390 O   0  0  0  0  0  0  0  0  0  0  0  0
    6.1500   -3.0090   26.6100 N   0  0  0  0  0  0  0  0  0  0  0  0
    6.2190   -1.5830   26.9440 C   0  0  0  0  0  0  0  0  0  0  0  0
    7.1850   -1.3820   26.1920 C   0  0  0  0  0  0  0  0  0  0  0  0
    6.4520   -2.6420   26.4770 N   0  0  0  0  0  0  0  0  0  0  0  0
    5.2860   -2.5250   27.4860 N   0  0  0  0  0  0  0  0  0  0  0  0
    4.3770   -3.5590   27.9850 C   0  0  0  0  0  0  0  0  0  0  0  0
    5.1430   -4.2800   28.9130 C   0  0  0  0  0  0  0  0  0  0  0  0
    4.1540   -5.3270   29.9720 S   0  0  0  0  0  0  0  0  0  0  0  0
    2.9810   -5.8360   29.1980 O   0  0  0  0  0  0  0  0  0  0  0  0
    3.6690   -4.5520   31.1500 O   0  0  0  0  0  0  0  0  0  0  0  0
    5.1070   -6.7590   30.5490 C   0  0  0  0  0  0  0  0  0  0  0  0
    6.0590   -7.1240   29.5100 C   0  0  0  0  0  0  0  0  0  0  0  0
    5.3910   -1.2330   27.7290 C   0  0  0  0  0  0  0  0  0  0  0  0
    5.5130   -4.7430   23.2980 C   0  0  0  0  0  0  0  0  0  0  0  0
    6.3430   -5.3810   22.3990 C   0  0  0  0  0  0  0  0  0  0  0  0
  1  2  1  0
  2  3  2  0
  2  4  1  0
  4  5  1  0
  5  6  1  0
  6  7  1  0
  7  8  1  0
  8  9  2  0
  8 10  1  0
 10 11  1  0
 11 12  1  0
 12 13  2  0
 13 14  1  0
 14 15  1  0
 15 16  1  0
 17 16  1  0
 17 18  2  0
 17 19  2  0
 17 20  1  0
 20 21  1  0
 11 22  2  0
 14 22  1  0
  7 23  1  0
  4 24  1  0
 23 24  1  0
M  END
