piperidine-amides-5177-covalent
     RDKit          3D

 22 23  0  0  0  0  0  0  0  0999 V2000
    7.1090   -3.2670   19.1560 C   0  0  0  0  0  0  0  0  0  0  0  0
    6.3420   -3.9960   20.1950 C   0  0  0  0  0  0  0  0  0  0  0  0
    5.2490   -4.4720   19.8460 O   0  0  0  0  0  0  0  0  0  0  0  0
    6.8510   -4.1910   21.4830 N   0  0  0  0  0  0  0  0  0  0  0  0
    7.6040   -3.1610   22.1280 C   0  0  0  0  0  0  0  0  0  0  0  0
    7.1530   -2.7960   23.4730 C   0  0  0  0  0  0  0  0  0  0  0  0
    6.4950   -3.8820   24.2320 C   0  0  0  0  0  0  0  0  0  0  0  0
    5.7980   -3.3310   25.4250 C   0  0  0  0  0  0  0  0  0  0  0  0
    4.5870   -3.0590   25.3240 O   0  0  0  0  0  0  0  0  0  0  0  0
    6.4830   -3.1020   26.6390 N   0  0  0  0  0  0  0  0  0  0  0  0
    6.2440   -3.8380   27.9160 C   0  0  0  0  0  0  0  0  0  0  0  0
    5.9990   -5.3160   27.7890 C   0  0  0  0  0  0  0  0  0  0  0  0
    5.1340   -5.7930   26.7220 C   0  0  0  0  0  0  0  0  0  0  0  0
    4.0510   -6.5910   27.0160 C   0  0  0  0  0  0  0  0  0  0  0  0
    3.5960   -6.7600   28.3100 C   0  0  0  0  0  0  0  0  0  0  0  0
    2.5190   -7.5490   28.5760 C   0  0  0  0  0  0  0  0  0  0  0  0
    1.8680   -8.1890   27.5660 C   0  0  0  0  0  0  0  0  0  0  0  0
    2.2820   -8.0530   26.2730 C   0  0  0  0  0  0  0  0  0  0  0  0
    1.4750   -8.8550   24.9480 Cl  0  0  0  0  0  0  0  0  0  0  0  0
    3.3870   -7.2440   26.0070 C   0  0  0  0  0  0  0  0  0  0  0  0
    5.6310   -4.7850   23.4400 C   0  0  0  0  0  0  0  0  0  0  0  0
    6.4480   -5.3270   22.2970 C   0  0  0  0  0  0  0  0  0  0  0  0
  1  2  1  0
  2  3  2  0
  2  4  1  0
  4  5  1  0
  5  6  1  0
  6  7  1  0
  7  8  1  0
  8  9  2  0
  8 10  1  0
 10 11  1  0
 11 12  1  0
 12 13  1  0
 13 14  1  0
 14 15  2  0
 15 16  1  0
 16 17  2  0
 17 18  1  0
 18 19  1  0
 14 20  1  0
 18 20  2  0
  7 21  1  0
  4 22  1  0
 21 22  1  0
M  END
