piperidine-amides-35537-covalent
     RDKit          3D

 31 34  0  0  0  0  0  0  0  0999 V2000
    7.0420   -3.3170   19.3370 C   0  0  0  0  0  0  0  0  0  0  0  0
    6.3640   -4.1650   20.3540 C   0  0  0  0  0  0  0  0  0  0  0  0
    5.3950   -4.8220   19.9750 O   0  0  0  0  0  0  0  0  0  0  0  0
    6.8450   -4.2240   21.6630 N   0  0  0  0  0  0  0  0  0  0  0  0
    7.7490   -3.2160   22.1650 C   0  0  0  0  0  0  0  0  0  0  0  0
    7.5210   -3.0850   23.6280 C   0  0  0  0  0  0  0  0  0  0  0  0
    6.1160   -3.5990   23.9090 C   0  0  0  0  0  0  0  0  0  0  0  0
    5.6960   -3.1420   25.2570 C   0  0  0  0  0  0  0  0  0  0  0  0
    4.5970   -3.5100   25.6940 O   0  0  0  0  0  0  0  0  0  0  0  0
    6.4950   -2.2770   26.0420 N   0  0  0  0  0  0  0  0  0  0  0  0
    7.8780   -2.5890   26.2810 C   0  0  0  0  0  0  0  0  0  0  0  0
    7.9150   -3.9270   26.9100 C   0  0  0  0  0  0  0  0  0  0  0  0
    7.1100   -4.0610   28.0150 C   0  0  0  0  0  0  0  0  0  0  0  0
    7.0070   -5.1570   28.7060 C   0  0  0  0  0  0  0  0  0  0  0  0
    7.7400   -6.1450   28.2760 C   0  0  0  0  0  0  0  0  0  0  0  0
    8.6610   -6.1490   27.0990 C   0  0  0  0  0  0  0  0  0  0  0  0
    8.8310   -4.9270   26.2400 C   0  0  0  0  0  0  0  0  0  0  0  0
    6.2630   -0.8570   25.9900 C   0  0  0  0  0  0  0  0  0  0  0  0
    6.5840   -0.2510   24.8700 N   0  0  0  0  0  0  0  0  0  0  0  0
    6.3000    1.1530   25.0200 C   0  0  0  0  0  0  0  0  0  0  0  0
    6.4230    2.4070   24.2090 C   0  0  0  0  0  0  0  0  0  0  0  0
    5.6100    2.8140   22.9930 C   0  0  0  0  0  0  0  0  0  0  0  0
    5.9140    4.1180   22.3330 C   0  0  0  0  0  0  0  0  0  0  0  0
    7.0180    4.9710   22.9110 C   0  0  0  0  0  0  0  0  0  0  0  0
    7.3960    6.6330   22.0630 Br  0  0  0  0  0  0  0  0  0  0  0  0
    7.7270    4.5510   24.0230 C   0  0  0  0  0  0  0  0  0  0  0  0
    7.4220    3.2270   24.6950 C   0  0  0  0  0  0  0  0  0  0  0  0
    5.7260    1.7540   26.2490 C   0  0  0  0  0  0  0  0  0  0  0  0
    5.6300    0.2880   27.1270 S   0  0  0  0  0  0  0  0  0  0  0  0
    6.1260   -5.1140   23.7220 C   0  0  0  0  0  0  0  0  0  0  0  0
    6.6530   -5.4030   22.4870 C   0  0  0  0  0  0  0  0  0  0  0  0
  1  2  1  0
  2  3  2  0
  2  4  1  0
  4  5  1  0
  5  6  1  0
  6  7  1  0
  7  8  1  0
  8  9  2  0
  8 10  1  0
 10 11  1  0
 11 12  1  0
 12 13  2  0
 13 14  1  0
 14 15  2  0
 15 16  1  0
 12 17  1  0
 16 17  2  0
 10 18  1  0
 18 19  2  0
 19 20  1  0
 20 21  1  0
 21 22  2  0
 22 23  1  0
 23 24  2  0
 24 25  1  0
 24 26  1  0
 21 27  1  0
 26 27  2  0
 20 28  2  0
 18 29  1  0
 28 29  1  0
  7 30  1  0
  4 31  1  0
 30 31  1  0
M  END
