piperidine-amides-2962-covalent
     RDKit          3D

 23 24  0  0  0  0  0  0  0  0999 V2000
    7.0120   -3.3870   19.3370 C   0  0  0  0  0  0  0  0  0  0  0  0
    6.3450   -4.2630   20.2980 C   0  0  0  0  0  0  0  0  0  0  0  0
    5.3230   -4.8490   19.9700 O   0  0  0  0  0  0  0  0  0  0  0  0
    6.9010   -4.4980   21.6000 N   0  0  0  0  0  0  0  0  0  0  0  0
    7.5730   -3.4250   22.2710 C   0  0  0  0  0  0  0  0  0  0  0  0
    6.6630   -2.8740   23.3250 C   0  0  0  0  0  0  0  0  0  0  0  0
    6.2710   -4.0120   24.2700 C   0  0  0  0  0  0  0  0  0  0  0  0
    5.3720   -3.4980   25.3610 C   0  0  0  0  0  0  0  0  0  0  0  0
    4.1390   -3.4240   25.2090 O   0  0  0  0  0  0  0  0  0  0  0  0
    5.9210   -3.0630   26.6050 N   0  0  0  0  0  0  0  0  0  0  0  0
    6.4790   -1.7370   26.6220 C   0  0  2  0  0  0  0  0  0  0  0  0
    7.2630   -1.8640   25.3500 C   0  0  0  0  0  0  0  0  0  0  0  0
    8.4590   -2.5190   25.4220 C   0  0  0  0  0  0  0  0  0  0  0  0
    9.3830   -1.9070   25.9290 O   0  0  0  0  0  0  0  0  0  0  0  0
    8.7550   -3.8020   24.9840 O   0  0  0  0  0  0  0  0  0  0  0  0
    8.9360   -4.9520   25.7650 C   0  0  0  0  0  0  0  0  0  0  0  0
    7.3380   -1.7010   27.8590 C   0  0  0  0  0  0  0  0  0  0  0  0
    6.9340   -0.8670   28.9950 C   0  0  0  0  0  0  0  0  0  0  0  0
    6.2060    0.2770   28.7930 C   0  0  0  0  0  0  0  0  0  0  0  0
    5.3270    0.1880   27.7470 O   0  0  0  0  0  0  0  0  0  0  0  0
    5.7430   -0.5670   26.6320 C   0  0  0  0  0  0  0  0  0  0  0  0
    5.7010   -5.2060   23.5850 C   0  0  0  0  0  0  0  0  0  0  0  0
    6.4020   -5.5980   22.3520 C   0  0  0  0  0  0  0  0  0  0  0  0
  1  2  1  0
  2  3  2  0
  2  4  1  0
  4  5  1  0
  5  6  1  0
  6  7  1  0
  7  8  1  0
  8  9  2  0
  8 10  1  0
 11 10  1  0
 11 12  1  6
 12 13  1  0
 13 14  2  0
 13 15  1  0
 15 16  1  0
 11 17  1  0
 17 18  1  0
 18 19  1  0
 19 20  1  0
 11 21  1  0
 20 21  1  0
  7 22  1  0
  4 23  1  0
 22 23  1  0
M  END
