piperidine-amides-11386-covalent
     RDKit          3D

 22 24  0  0  0  0  0  0  0  0999 V2000
    7.1730   -3.2580   19.1410 C   0  0  0  0  0  0  0  0  0  0  0  0
    6.3910   -3.9670   20.1550 C   0  0  0  0  0  0  0  0  0  0  0  0
    5.3000   -4.4750   19.8570 O   0  0  0  0  0  0  0  0  0  0  0  0
    6.8910   -4.1260   21.4500 N   0  0  0  0  0  0  0  0  0  0  0  0
    7.8620   -3.2140   22.0090 C   0  0  0  0  0  0  0  0  0  0  0  0
    7.2070   -2.6220   23.2030 C   0  0  0  0  0  0  0  0  0  0  0  0
    6.7120   -3.6890   24.1110 C   0  0  0  0  0  0  0  0  0  0  0  0
    5.9930   -3.0530   25.2140 C   0  0  0  0  0  0  0  0  0  0  0  0
    4.7230   -3.0660   25.2780 O   0  0  0  0  0  0  0  0  0  0  0  0
    6.7110   -2.3940   26.2220 N   0  0  0  0  0  0  0  0  0  0  0  0
    6.6930   -2.9900   27.5570 C   0  0  0  0  0  0  0  0  0  0  0  0
    5.2960   -2.8190   27.9990 C   0  0  0  0  0  0  0  0  0  0  0  0
    4.3250   -3.9170   27.9360 C   0  0  1  0  0  0  0  0  0  0  0  0
    4.9820   -5.0960   27.3420 C   0  0  0  0  0  0  0  0  0  0  0  0
    5.9580   -5.3080   28.4310 C   0  0  0  0  0  0  0  0  0  0  0  0
    6.2260   -6.6940   28.4020 C   0  0  0  0  0  0  0  0  0  0  0  0
    7.4540   -6.2850   28.0240 C   0  0  0  0  0  0  0  0  0  0  0  0
    7.2700   -4.8930   28.1230 C   0  0  0  0  0  0  0  0  0  0  0  0
    5.3900   -4.7910   29.5480 C   0  0  0  0  0  0  0  0  0  0  0  0
    4.1640   -4.2740   29.1230 O   0  0  0  0  0  0  0  0  0  0  0  0
    5.8430   -4.7430   23.4710 C   0  0  0  0  0  0  0  0  0  0  0  0
    6.5140   -5.2780   22.2320 C   0  0  0  0  0  0  0  0  0  0  0  0
  1  2  1  0
  2  3  2  0
  2  4  1  0
  4  5  1  0
  5  6  1  0
  6  7  1  0
  7  8  1  0
  8  9  2  0
  8 10  1  0
 10 11  1  0
 11 12  1  0
 13 12  1  1
 13 14  1  0
 15 14  1  0
 15 16  1  0
 16 17  1  0
 15 18  1  0
 17 18  1  0
 15 19  1  0
 13 20  1  0
 19 20  1  0
  7 21  1  0
  4 22  1  0
 21 22  1  0
M  END
