piperidine-amides-29754-covalent
     RDKit          3D

 25 27  0  0  0  0  0  0  0  0999 V2000
    7.0220   -3.3650   19.4280 C   0  0  0  0  0  0  0  0  0  0  0  0
    6.3630   -4.2570   20.3760 C   0  0  0  0  0  0  0  0  0  0  0  0
    5.3970   -4.9240   19.9980 O   0  0  0  0  0  0  0  0  0  0  0  0
    6.8450   -4.4000   21.7300 N   0  0  0  0  0  0  0  0  0  0  0  0
    6.4470   -5.5290   22.5110 C   0  0  0  0  0  0  0  0  0  0  0  0
    5.5730   -5.0840   23.6580 C   0  0  0  0  0  0  0  0  0  0  0  0
    6.2230   -3.8930   24.3710 C   0  0  0  0  0  0  0  0  0  0  0  0
    5.2310   -3.2920   25.3530 C   0  0  0  0  0  0  0  0  0  0  0  0
    4.4340   -2.4170   24.9810 O   0  0  0  0  0  0  0  0  0  0  0  0
    5.1650   -3.7020   26.7330 N   0  0  0  0  0  0  0  0  0  0  0  0
    4.8080   -2.7150   27.7200 C   0  0  0  0  0  0  0  0  0  0  0  0
    4.8910   -3.3770   29.0780 C   0  0  0  0  0  0  0  0  0  0  0  0
    5.2460   -4.6530   29.2510 N   0  0  0  0  0  0  0  0  0  0  0  0
    4.1880   -5.4290   29.5690 C   0  0  2  0  0  0  0  0  0  0  0  0
    3.2080   -5.0720   30.4780 C   0  0  0  0  0  0  0  0  0  0  0  0
    3.3430   -6.1920   31.1530 C   0  0  1  0  0  0  0  0  0  0  0  0
    2.1550   -7.4170   31.3640 S   0  0  0  0  0  0  0  0  0  0  0  0
    0.7850   -6.4640   31.6730 C   0  0  0  0  0  0  0  0  0  0  0  0
    2.4660   -8.3580   32.4800 O   0  0  0  0  0  0  0  0  0  0  0  0
    1.8890   -8.1920   30.1220 O   0  0  0  0  0  0  0  0  0  0  0  0
    4.3350   -6.6590   30.3130 C   0  0  0  0  0  0  0  0  0  0  0  0
    5.9930   -5.3500   28.2680 C   0  0  0  0  0  0  0  0  0  0  0  0
    6.1870   -4.5280   27.1680 C   0  0  0  0  0  0  0  0  0  0  0  0
    6.8110   -2.8680   23.5050 C   0  0  0  0  0  0  0  0  0  0  0  0
    7.5540   -3.3560   22.4330 C   0  0  0  0  0  0  0  0  0  0  0  0
  1  2  1  0
  2  3  2  0
  2  4  1  0
  4  5  1  0
  5  6  1  0
  6  7  1  0
  7  8  1  0
  8  9  2  0
  8 10  1  0
 10 11  1  0
 11 12  1  0
 12 13  1  0
 14 13  1  1
 14 15  1  0
 15 16  1  0
 16 17  1  6
 17 18  1  0
 17 19  2  0
 17 20  2  0
 14 21  1  0
 16 21  1  0
 13 22  1  0
 10 23  1  0
 22 23  1  0
  7 24  1  0
  4 25  1  0
 24 25  1  0
M  END
