piperidine-amides-32333-covalent
     RDKit          3D

 28 31  0  0  0  0  0  0  0  0999 V2000
    7.0550   -3.3340   19.3520 C   0  0  0  0  0  0  0  0  0  0  0  0
    6.3540   -4.2190   20.3210 C   0  0  0  0  0  0  0  0  0  0  0  0
    5.3130   -4.7850   19.9600 O   0  0  0  0  0  0  0  0  0  0  0  0
    6.9010   -4.4570   21.6010 N   0  0  0  0  0  0  0  0  0  0  0  0
    6.5370   -5.6360   22.3300 C   0  0  0  0  0  0  0  0  0  0  0  0
    5.6070   -5.1430   23.4350 C   0  0  0  0  0  0  0  0  0  0  0  0
    6.4460   -4.3290   24.3570 C   0  0  0  0  0  0  0  0  0  0  0  0
    5.6920   -3.8970   25.5830 C   0  0  0  0  0  0  0  0  0  0  0  0
    4.5630   -3.4490   25.3460 O   0  0  0  0  0  0  0  0  0  0  0  0
    6.1950   -3.9550   26.9160 N   0  0  0  0  0  0  0  0  0  0  0  0
    6.4850   -2.7800   27.7140 C   0  0  0  0  0  0  0  0  0  0  0  0
    5.5010   -2.1200   28.3830 C   0  0  0  0  0  0  0  0  0  0  0  0
    4.5670   -3.1110   28.0710 O   0  0  0  0  0  0  0  0  0  0  0  0
    5.4540   -4.1170   27.8040 C   0  0  0  0  0  0  0  0  0  0  0  0
    4.5340   -4.2140   28.8560 C   0  0  0  0  0  0  0  0  0  0  0  0
    4.2040   -5.1740   29.8620 C   0  0  0  0  0  0  0  0  0  0  0  0
    4.9840   -6.3340   29.8280 C   0  0  0  0  0  0  0  0  0  0  0  0
    4.5370   -7.2440   30.9720 C   0  0  0  0  0  0  0  0  0  0  0  0
    5.3120   -7.6870   32.0120 C   0  0  0  0  0  0  0  0  0  0  0  0
    4.7020   -8.5360   33.0600 C   0  0  0  0  0  0  0  0  0  0  0  0
    3.2280   -8.7390   32.7080 C   0  0  0  0  0  0  0  0  0  0  0  0
    2.3920   -9.4830   33.5020 C   0  0  0  0  0  0  0  0  0  0  0  0
    1.5340  -10.2480   34.3460 N   0  0  0  0  0  0  0  0  0  0  0  0
    2.9290   -7.9000   31.2530 S   0  0  0  0  0  0  0  0  0  0  0  0
    5.9730   -6.3780   28.7840 C   0  0  0  0  0  0  0  0  0  0  0  0
    6.2860   -5.2780   27.7020 C   0  0  0  0  0  0  0  0  0  0  0  0
    6.9980   -3.0850   23.6600 C   0  0  0  0  0  0  0  0  0  0  0  0
    7.5960   -3.3870   22.3250 C   0  0  0  0  0  0  0  0  0  0  0  0
  1  2  1  0
  2  3  2  0
  2  4  1  0
  4  5  1  0
  5  6  1  0
  6  7  1  0
  7  8  1  0
  8  9  2  0
  8 10  1  0
 10 11  1  0
 11 12  1  0
 12 13  1  0
 13 14  1  0
 14 15  2  0
 15 16  1  0
 16 17  2  0
 17 18  1  0
 18 19  2  0
 19 20  1  0
 20 21  2  0
 21 22  1  0
 22 23  3  0
 18 24  1  0
 21 24  1  0
 17 25  1  0
 10 26  1  0
 14 26  1  0
 25 26  2  0
  7 27  1  0
  4 28  1  0
 27 28  1  0
M  END
