piperidine-amides-6712-covalent
     RDKit          3D

 23 24  0  0  0  0  0  0  0  0999 V2000
    7.1530   -3.3030   19.3080 C   0  0  0  0  0  0  0  0  0  0  0  0
    6.3970   -4.0940   20.2780 C   0  0  0  0  0  0  0  0  0  0  0  0
    5.3310   -4.6590   19.9350 O   0  0  0  0  0  0  0  0  0  0  0  0
    6.8990   -4.2690   21.5770 N   0  0  0  0  0  0  0  0  0  0  0  0
    7.6430   -3.1910   22.1770 C   0  0  0  0  0  0  0  0  0  0  0  0
    6.7580   -2.6660   23.3030 C   0  0  0  0  0  0  0  0  0  0  0  0
    6.5110   -3.8250   24.2420 C   0  0  0  0  0  0  0  0  0  0  0  0
    5.6490   -3.3580   25.3570 C   0  0  0  0  0  0  0  0  0  0  0  0
    4.5270   -2.9060   25.0470 O   0  0  0  0  0  0  0  0  0  0  0  0
    6.0700   -3.4020   26.7190 N   0  0  0  0  0  0  0  0  0  0  0  0
    6.1000   -4.6350   27.4760 C   0  0  0  0  0  0  0  0  0  0  0  0
    4.8020   -4.9110   28.2110 C   0  0  0  0  0  0  0  0  0  0  0  0
    4.0410   -3.8330   28.5860 C   0  0  0  0  0  0  0  0  0  0  0  0
    4.7280   -2.8790   29.3030 C   0  0  0  0  0  0  0  0  0  0  0  0
    4.1140   -2.3980   30.4650 C   0  0  0  0  0  0  0  0  0  0  0  0
    3.8480   -1.0600   30.6590 C   0  0  0  0  0  0  0  0  0  0  0  0
    3.9140   -5.6800   27.2420 C   0  0  0  0  0  0  0  0  0  0  0  0
    2.5730   -6.1320   27.7940 C   0  0  0  0  0  0  0  0  0  0  0  0
    2.6510   -6.3530   29.0350 O   0  0  0  0  0  0  0  0  0  0  0  0
    3.9020   -6.8910   29.3690 C   0  0  0  0  0  0  0  0  0  0  0  0
    4.8980   -5.8300   29.2300 C   0  0  0  0  0  0  0  0  0  0  0  0
    5.7850   -4.9340   23.5200 C   0  0  0  0  0  0  0  0  0  0  0  0
    6.3980   -5.3380   22.3650 C   0  0  0  0  0  0  0  0  0  0  0  0
  1  2  1  0
  2  3  2  0
  2  4  1  0
  4  5  1  0
  5  6  1  0
  6  7  1  0
  7  8  1  0
  8  9  2  0
  8 10  1  0
 10 11  1  0
 12 11  1  0
 12 13  1  0
 13 14  1  0
 14 15  1  0
 15 16  2  3
 12 17  1  0
 17 18  1  0
 18 19  1  0
 19 20  1  0
 12 21  1  0
 20 21  1  0
  7 22  1  0
  4 23  1  0
 22 23  1  0
M  END
