piperidine-amides-33394-covalent
     RDKit          3D

 25 26  0  0  0  0  0  0  0  0999 V2000
    7.1460   -3.3330   19.2610 C   0  0  0  0  0  0  0  0  0  0  0  0
    6.3970   -4.0930   20.2670 C   0  0  0  0  0  0  0  0  0  0  0  0
    5.2900   -4.5600   19.9010 O   0  0  0  0  0  0  0  0  0  0  0  0
    6.9520   -4.3480   21.5480 N   0  0  0  0  0  0  0  0  0  0  0  0
    6.4970   -5.4710   22.2810 C   0  0  0  0  0  0  0  0  0  0  0  0
    6.2130   -5.1680   23.6790 C   0  0  0  0  0  0  0  0  0  0  0  0
    5.8820   -3.7530   23.9680 C   0  0  0  0  0  0  0  0  0  0  0  0
    5.5630   -3.5110   25.4190 C   0  0  0  0  0  0  0  0  0  0  0  0
    4.4250   -3.0720   25.6730 O   0  0  0  0  0  0  0  0  0  0  0  0
    6.4180   -3.7520   26.5260 N   0  0  0  0  0  0  0  0  0  0  0  0
    6.2230   -3.0160   27.7290 C   0  0  0  0  0  0  0  0  0  0  0  0
    6.2900   -1.5600   27.8760 C   0  0  0  0  0  0  0  0  0  0  0  0
    6.6990   -1.2870   29.2930 C   0  0  0  0  0  0  0  0  0  0  0  0
    6.8600   -0.0520   29.8090 C   0  0  0  0  0  0  0  0  0  0  0  0
    6.6090    1.1670   28.9020 C   0  0  0  0  0  0  0  0  0  0  0  0
    6.1920    0.9300   27.4500 C   0  0  0  0  0  0  0  0  0  0  0  0
    6.0190   -0.5160   26.8910 C   0  0  0  0  0  0  0  0  0  0  0  0
    5.5010   -0.8350   25.0890 Br  0  0  0  0  0  0  0  0  0  0  0  0
    6.9280   -5.0560   26.9250 C   0  0  0  0  0  0  0  0  0  0  0  0
    7.3590   -5.3500   28.3580 C   0  0  0  0  0  0  0  0  0  0  0  0
    5.7580   -5.9710   26.7560 C   0  0  0  0  0  0  0  0  0  0  0  0
    8.0160   -5.6160   26.0130 C   0  0  0  0  0  0  0  0  0  0  0  0
    9.1470   -6.2460   26.5890 C   0  0  0  0  0  0  0  0  0  0  0  0
    6.7670   -2.7260   23.3350 C   0  0  0  0  0  0  0  0  0  0  0  0
    7.6340   -3.2910   22.2440 C   0  0  0  0  0  0  0  0  0  0  0  0
  1  2  1  0
  2  3  2  0
  2  4  1  0
  4  5  1  0
  5  6  1  0
  6  7  1  0
  7  8  1  0
  8  9  2  0
  8 10  1  0
 10 11  1  0
 11 12  1  0
 12 13  2  0
 13 14  1  0
 14 15  2  0
 15 16  1  0
 12 17  1  0
 16 17  2  0
 17 18  1  0
 19 10  1  0
 19 20  1  0
 19 21  1  0
 19 22  1  0
 22 23  1  0
  7 24  1  0
  4 25  1  0
 24 25  1  0
M  END
