piperidine-amides-23631-covalent
     RDKit          3D

 24 25  0  0  0  0  0  0  0  0999 V2000
    7.1020   -3.1920   19.1020 C   0  0  0  0  0  0  0  0  0  0  0  0
    6.2710   -3.8480   20.1340 C   0  0  0  0  0  0  0  0  0  0  0  0
    5.1780   -4.3260   19.7600 O   0  0  0  0  0  0  0  0  0  0  0  0
    6.6540   -4.0140   21.4780 N   0  0  0  0  0  0  0  0  0  0  0  0
    7.5650   -3.1200   22.1100 C   0  0  0  0  0  0  0  0  0  0  0  0
    7.1740   -2.8670   23.4760 C   0  0  0  0  0  0  0  0  0  0  0  0
    5.7770   -3.2760   23.7280 C   0  0  0  0  0  0  0  0  0  0  0  0
    5.2830   -2.8950   25.0970 C   0  0  0  0  0  0  0  0  0  0  0  0
    4.0540   -2.7920   25.2780 O   0  0  0  0  0  0  0  0  0  0  0  0
    6.1270   -2.6480   26.2010 N   0  0  0  0  0  0  0  0  0  0  0  0
    7.2020   -1.7370   26.3050 C   0  0  0  0  0  0  0  0  0  0  0  0
    6.0790   -3.6320   27.2550 C   0  0  0  0  0  0  0  0  0  0  0  0
    7.3360   -4.4480   27.3890 C   0  0  0  0  0  0  0  0  0  0  0  0
    8.2090   -4.8350   28.2570 C   0  0  0  0  0  0  0  0  0  0  0  0
    9.2660   -5.6730   27.5630 C   0  0  0  0  0  0  0  0  0  0  0  0
    9.1800   -5.9460   26.0610 C   0  0  0  0  0  0  0  0  0  0  0  0
    8.0310   -5.3980   25.1650 C   0  0  0  0  0  0  0  0  0  0  0  0
    7.8140   -5.5660   23.7980 N   0  0  0  0  0  0  0  0  0  0  0  0
    7.5990   -6.9360   23.6280 C   0  0  0  0  0  0  0  0  0  0  0  0
    6.2330   -7.5280   23.5050 C   0  0  0  0  0  0  0  0  0  0  0  0
    8.5420   -7.9600   23.5460 O   0  0  0  0  0  0  0  0  0  0  0  0
    7.1650   -4.6480   25.9880 C   0  0  0  0  0  0  0  0  0  0  0  0
    5.5030   -4.7300   23.4150 C   0  0  0  0  0  0  0  0  0  0  0  0
    6.1390   -5.1360   22.2130 C   0  0  0  0  0  0  0  0  0  0  0  0
  1  2  1  0
  2  3  2  0
  2  4  1  0
  4  5  1  0
  5  6  1  0
  6  7  1  0
  7  8  1  0
  8  9  2  0
  8 10  1  0
 10 11  1  0
 10 12  1  0
 12 13  1  0
 13 14  2  0
 14 15  1  0
 15 16  2  0
 16 17  1  0
 17 18  1  0
 18 19  1  0
 19 20  1  0
 19 21  2  0
 13 22  1  0
 17 22  2  0
  7 23  1  0
  4 24  1  0
 23 24  1  0
M  END
