piperidine-amides-25562-covalent
     RDKit          3D

 25 27  0  0  0  0  0  0  0  0999 V2000
    7.0630   -3.3540   19.4010 C   0  0  0  0  0  0  0  0  0  0  0  0
    6.3630   -4.1990   20.4010 C   0  0  0  0  0  0  0  0  0  0  0  0
    5.3950   -4.8460   19.9900 O   0  0  0  0  0  0  0  0  0  0  0  0
    6.8340   -4.2670   21.7250 N   0  0  0  0  0  0  0  0  0  0  0  0
    6.6850   -5.4680   22.5130 C   0  0  0  0  0  0  0  0  0  0  0  0
    6.0670   -5.1060   23.8370 C   0  0  0  0  0  0  0  0  0  0  0  0
    6.0420   -3.5830   23.9340 C   0  0  0  0  0  0  0  0  0  0  0  0
    5.5330   -3.1190   25.2580 C   0  0  0  0  0  0  0  0  0  0  0  0
    4.3680   -2.7060   25.2980 O   0  0  0  0  0  0  0  0  0  0  0  0
    6.2770   -3.1060   26.4630 N   0  0  0  0  0  0  0  0  0  0  0  0
    6.2270   -4.3130   27.2850 C   0  0  0  0  0  0  0  0  0  0  0  0
    4.9410   -4.3720   28.0430 C   0  0  0  0  0  0  0  0  0  0  0  0
    4.0180   -5.2970   27.3620 N   0  0  0  0  0  0  0  0  0  0  0  0
    2.8750   -5.4630   28.3230 C   0  0  0  0  0  0  0  0  0  0  0  0
    2.6960   -6.7760   28.5720 C   0  0  0  0  0  0  0  0  0  0  0  0
    3.7180   -7.4210   28.0300 C   0  0  0  0  0  0  0  0  0  0  0  0
    4.7670   -6.6020   27.3610 C   0  0  0  0  0  0  0  0  0  0  0  0
    6.3810   -1.8680   27.1720 C   0  0  0  0  0  0  0  0  0  0  0  0
    7.0090   -1.7540   28.5620 C   0  0  0  0  0  0  0  0  0  0  0  0
    7.0640   -0.4180   29.2300 C   0  0  0  0  0  0  0  0  0  0  0  0
    6.5160    0.7650   28.5510 C   0  0  0  0  0  0  0  0  0  0  0  0
    5.9140    0.6150   27.1950 C   0  0  0  0  0  0  0  0  0  0  0  0
    5.8680   -0.7190   26.5410 C   0  0  0  0  0  0  0  0  0  0  0  0
    7.4130   -3.0150   23.6150 C   0  0  0  0  0  0  0  0  0  0  0  0
    7.6940   -3.2090   22.2720 C   0  0  0  0  0  0  0  0  0  0  0  0
  1  2  1  0
  2  3  2  0
  2  4  1  0
  4  5  1  0
  5  6  1  0
  6  7  1  0
  7  8  1  0
  8  9  2  0
  8 10  1  0
 10 11  1  0
 11 12  1  0
 12 13  1  0
 13 14  1  0
 14 15  1  0
 15 16  1  0
 13 17  1  0
 16 17  1  0
 10 18  1  0
 18 19  2  0
 19 20  1  0
 20 21  2  0
 21 22  1  0
 18 23  1  0
 22 23  2  0
  7 24  1  0
  4 25  1  0
 24 25  1  0
M  END
