piperidine-amides-8101-covalent
     RDKit          3D

 26 27  0  0  0  0  0  0  0  0999 V2000
    7.1070   -3.3140   19.2950 C   0  0  0  0  0  0  0  0  0  0  0  0
    6.4170   -4.1280   20.2910 C   0  0  0  0  0  0  0  0  0  0  0  0
    5.3610   -4.6950   19.9480 O   0  0  0  0  0  0  0  0  0  0  0  0
    6.9770   -4.3100   21.5880 N   0  0  0  0  0  0  0  0  0  0  0  0
    6.4900   -5.3910   22.3800 C   0  0  0  0  0  0  0  0  0  0  0  0
    5.6690   -4.8170   23.4990 C   0  0  0  0  0  0  0  0  0  0  0  0
    6.5080   -3.7740   24.2220 C   0  0  0  0  0  0  0  0  0  0  0  0
    5.7530   -3.2840   25.4270 C   0  0  0  0  0  0  0  0  0  0  0  0
    4.5310   -3.2210   25.2980 O   0  0  0  0  0  0  0  0  0  0  0  0
    6.4540   -2.9310   26.5810 N   0  0  0  0  0  0  0  0  0  0  0  0
    6.3350   -3.6630   27.8110 C   0  0  0  0  0  0  0  0  0  0  0  0
    5.1800   -3.4150   28.5540 C   0  0  0  0  0  0  0  0  0  0  0  0
    4.3910   -2.3120   28.3050 C   0  0  0  0  0  0  0  0  0  0  0  0
    3.2310   -2.0010   29.0080 C   0  0  0  0  0  0  0  0  0  0  0  0
    2.8570   -2.9540   30.0930 C   0  0  0  0  0  0  0  0  0  0  0  0
    1.5730   -2.6240   30.8840 C   0  0  0  0  0  0  0  0  0  0  0  0
    3.6210   -4.0500   30.3570 C   0  0  0  0  0  0  0  0  0  0  0  0
    4.8560   -4.3210   29.5590 C   0  0  0  0  0  0  0  0  0  0  0  0
    5.4900   -5.3520   29.8780 O   0  0  0  0  0  0  0  0  0  0  0  0
    5.0360   -6.6530   29.9160 C   0  0  0  0  0  0  0  0  0  0  0  0
    4.4090   -6.8500   31.1230 C   0  0  0  0  0  0  0  0  0  0  0  0
    6.0230   -7.5690   29.7330 C   0  0  0  0  0  0  0  0  0  0  0  0
    3.9450   -7.0080   28.8970 C   0  0  0  0  0  0  0  0  0  0  0  0
    4.5650   -6.7860   27.5470 C   0  0  0  0  0  0  0  0  0  0  0  0
    6.7980   -2.6270   23.2670 C   0  0  0  0  0  0  0  0  0  0  0  0
    7.7060   -3.2160   22.1870 C   0  0  0  0  0  0  0  0  0  0  0  0
  1  2  1  0
  2  3  2  0
  2  4  1  0
  4  5  1  0
  5  6  1  0
  6  7  1  0
  7  8  1  0
  8  9  2  0
  8 10  1  0
 10 11  1  0
 11 12  1  0
 12 13  2  0
 13 14  1  0
 14 15  2  0
 15 16  1  0
 15 17  1  0
 12 18  1  0
 17 18  2  0
 18 19  1  0
 20 19  1  0
 20 21  1  0
 20 22  1  0
 20 23  1  0
 23 24  1  0
  7 25  1  0
  4 26  1  0
 25 26  1  0
M  END
