piperidine-amides-11535-covalent
     RDKit          3D

 23 24  0  0  0  0  0  0  0  0999 V2000
    7.1160   -3.3070   19.3040 C   0  0  0  0  0  0  0  0  0  0  0  0
    6.3490   -4.0460   20.3030 C   0  0  0  0  0  0  0  0  0  0  0  0
    5.3230   -4.6480   19.9300 O   0  0  0  0  0  0  0  0  0  0  0  0
    6.7690   -4.1370   21.6470 N   0  0  0  0  0  0  0  0  0  0  0  0
    7.6860   -3.1850   22.2590 C   0  0  0  0  0  0  0  0  0  0  0  0
    7.1020   -2.8330   23.6070 C   0  0  0  0  0  0  0  0  0  0  0  0
    5.8160   -3.5730   23.8260 C   0  0  0  0  0  0  0  0  0  0  0  0
    5.0620   -3.2460   25.0750 C   0  0  0  0  0  0  0  0  0  0  0  0
    3.8500   -3.5880   25.1520 O   0  0  0  0  0  0  0  0  0  0  0  0
    5.5520   -2.5600   26.2080 N   0  0  0  0  0  0  0  0  0  0  0  0
    6.4320   -3.2350   27.1650 C   0  0  0  0  0  0  0  0  0  0  0  0
    5.8700   -4.5210   27.6270 C   0  0  0  0  0  0  0  0  0  0  0  0
    4.8310   -4.5310   28.4810 N   0  0  0  0  0  0  0  0  0  0  0  0
    4.3730   -5.8040   28.8670 C   0  0  0  0  0  0  0  0  0  0  0  0
    3.2170   -5.8980   29.8290 C   0  0  0  0  0  0  0  0  0  0  0  0
    2.2860   -4.9080   29.6290 O   0  0  0  0  0  0  0  0  0  0  0  0
    3.1520   -6.8780   30.7690 O   0  0  0  0  0  0  0  0  0  0  0  0
    4.2670   -7.2450   31.5770 C   0  0  0  0  0  0  0  0  0  0  0  0
    5.5470   -7.4370   30.8430 C   0  0  0  0  0  0  0  0  0  0  0  0
    5.0650   -6.8550   28.3020 C   0  0  0  0  0  0  0  0  0  0  0  0
    6.2620   -6.1500   27.3180 S   0  0  0  0  0  0  0  0  0  0  0  0
    6.0250   -5.0650   23.7270 C   0  0  0  0  0  0  0  0  0  0  0  0
    6.5850   -5.3880   22.3540 C   0  0  0  0  0  0  0  0  0  0  0  0
  1  2  1  0
  2  3  2  0
  2  4  1  0
  4  5  1  0
  5  6  1  0
  6  7  1  0
  7  8  1  0
  8  9  2  0
  8 10  1  0
 10 11  1  0
 11 12  1  0
 12 13  2  0
 13 14  1  0
 14 15  1  0
 15 16  2  0
 15 17  1  0
 17 18  1  0
 18 19  1  0
 14 20  2  0
 12 21  1  0
 20 21  1  0
  7 22  1  0
  4 23  1  0
 22 23  1  0
M  END
