piperidine-amides-6442-covalent
     RDKit          3D

 20 21  0  0  0  0  0  0  0  0999 V2000
    7.0910   -3.3230   19.3120 C   0  0  0  0  0  0  0  0  0  0  0  0
    6.4020   -4.1820   20.2850 C   0  0  0  0  0  0  0  0  0  0  0  0
    5.3590   -4.7920   19.9670 O   0  0  0  0  0  0  0  0  0  0  0  0
    6.9430   -4.3650   21.5620 N   0  0  0  0  0  0  0  0  0  0  0  0
    7.7200   -3.3130   22.1810 C   0  0  0  0  0  0  0  0  0  0  0  0
    6.8180   -2.6890   23.2360 C   0  0  0  0  0  0  0  0  0  0  0  0
    6.6010   -3.7730   24.2570 C   0  0  0  0  0  0  0  0  0  0  0  0
    5.8190   -3.2560   25.3910 C   0  0  0  0  0  0  0  0  0  0  0  0
    4.5940   -3.0650   25.2340 O   0  0  0  0  0  0  0  0  0  0  0  0
    6.4660   -3.0000   26.6160 N   0  0  0  0  0  0  0  0  0  0  0  0
    6.4100   -1.6900   27.2040 C   0  0  0  0  0  0  0  0  0  0  0  0
    5.8240   -0.5330   26.4350 C   0  0  0  0  0  0  0  0  0  0  0  0
    5.8720    0.6760   27.2450 N   0  0  0  0  0  0  0  0  0  0  0  0
    6.3920    0.8220   28.5990 C   0  0  0  0  0  0  0  0  0  0  0  0
    6.9080   -0.2960   29.2140 C   0  0  0  0  0  0  0  0  0  0  0  0
    7.4200   -0.2260   30.5100 C   0  0  0  0  0  0  0  0  0  0  0  0
    6.5070   -0.0530   31.5020 O   0  0  0  0  0  0  0  0  0  0  0  0
    6.9360   -1.5090   28.5840 C   0  0  0  0  0  0  0  0  0  0  0  0
    5.8200   -4.9120   23.5940 C   0  0  0  0  0  0  0  0  0  0  0  0
    6.5660   -5.4730   22.4100 C   0  0  0  0  0  0  0  0  0  0  0  0
  1  2  1  0
  2  3  2  0
  2  4  1  0
  4  5  1  0
  5  6  1  0
  6  7  1  0
  7  8  1  0
  8  9  2  0
  8 10  1  0
 10 11  1  0
 11 12  2  0
 12 13  1  0
 13 14  2  0
 14 15  1  0
 15 16  1  0
 16 17  1  0
 11 18  1  0
 15 18  2  0
  7 19  1  0
  4 20  1  0
 19 20  1  0
M  END
