piperidine-amides-5510-covalent
     RDKit          3D

 20 21  0  0  0  0  0  0  0  0999 V2000
    7.0920   -3.2890   19.2600 C   0  0  0  0  0  0  0  0  0  0  0  0
    6.3540   -4.0580   20.2720 C   0  0  0  0  0  0  0  0  0  0  0  0
    5.3150   -4.6460   19.9240 O   0  0  0  0  0  0  0  0  0  0  0  0
    6.8060   -4.1950   21.6010 N   0  0  0  0  0  0  0  0  0  0  0  0
    6.6650   -5.4400   22.3290 C   0  0  0  0  0  0  0  0  0  0  0  0
    6.0530   -5.0840   23.6590 C   0  0  0  0  0  0  0  0  0  0  0  0
    6.0530   -3.6020   23.8840 C   0  0  0  0  0  0  0  0  0  0  0  0
    5.6640   -3.1940   25.2530 C   0  0  0  0  0  0  0  0  0  0  0  0
    4.4490   -2.9540   25.5230 O   0  0  0  0  0  0  0  0  0  0  0  0
    6.5920   -3.0450   26.2990 N   0  0  0  0  0  0  0  0  0  0  0  0
    6.1950   -3.2140   27.7160 C   0  0  0  0  0  0  0  0  0  0  0  0
    5.7130   -4.5990   27.9450 C   0  0  0  0  0  0  0  0  0  0  0  0
    6.5000   -5.5970   28.7240 C   0  0  0  0  0  0  0  0  0  0  0  0
    5.7210   -6.8450   28.7540 C   0  0  0  0  0  0  0  0  0  0  0  0
    4.5200   -6.4820   27.9800 C   0  0  0  0  0  0  0  0  0  0  0  0
    3.4050   -7.4280   27.7230 C   0  0  0  0  0  0  0  0  0  0  0  0
    2.1300   -6.7980   27.6480 N   0  0  0  0  0  0  0  0  0  0  0  0
    4.5930   -5.1280   27.5330 O   0  0  0  0  0  0  0  0  0  0  0  0
    7.4090   -3.0550   23.5070 C   0  0  0  0  0  0  0  0  0  0  0  0
    7.6730   -3.1540   22.1370 C   0  0  0  0  0  0  0  0  0  0  0  0
  1  2  1  0
  2  3  2  0
  2  4  1  0
  4  5  1  0
  5  6  1  0
  6  7  1  0
  7  8  1  0
  8  9  2  0
  8 10  1  0
 10 11  1  0
 11 12  1  0
 12 13  2  0
 13 14  1  0
 14 15  2  0
 15 16  1  0
 16 17  3  0
 12 18  1  0
 15 18  1  0
  7 19  1  0
  4 20  1  0
 19 20  1  0
M  END
