piperidine-amides-35124-covalent
     RDKit          3D

 29 32  0  0  0  0  0  0  0  0999 V2000
    7.1300   -3.2950   19.2120 C   0  0  0  0  0  0  0  0  0  0  0  0
    6.3990   -4.0930   20.2260 C   0  0  0  0  0  0  0  0  0  0  0  0
    5.3230   -4.5860   19.8980 O   0  0  0  0  0  0  0  0  0  0  0  0
    6.9850   -4.3000   21.4670 N   0  0  0  0  0  0  0  0  0  0  0  0
    6.6710   -5.4500   22.2730 C   0  0  0  0  0  0  0  0  0  0  0  0
    5.9530   -4.9870   23.5020 C   0  0  0  0  0  0  0  0  0  0  0  0
    6.7070   -3.8240   24.1560 C   0  0  0  0  0  0  0  0  0  0  0  0
    5.8920   -3.3640   25.2590 C   0  0  0  0  0  0  0  0  0  0  0  0
    4.6640   -3.2710   25.1370 O   0  0  0  0  0  0  0  0  0  0  0  0
    6.5000   -3.0360   26.4550 N   0  0  0  0  0  0  0  0  0  0  0  0
    6.1380   -3.9610   27.5050 C   0  0  0  0  0  0  0  0  0  0  0  0
    5.0370   -3.7980   28.2710 N   0  0  0  0  0  0  0  0  0  0  0  0
    4.6850   -4.6750   29.2240 C   0  0  0  0  0  0  0  0  0  0  0  0
    5.4930   -5.7740   29.4160 C   0  0  0  0  0  0  0  0  0  0  0  0
    6.6100   -5.9670   28.6670 C   0  0  0  0  0  0  0  0  0  0  0  0
    7.0400   -5.1350   27.6800 C   0  0  0  0  0  0  0  0  0  0  0  0
    8.6180   -5.4540   26.6370 Br  0  0  0  0  0  0  0  0  0  0  0  0
    6.4980   -1.8140   27.2380 C   0  0  0  0  0  0  0  0  0  0  0  0
    7.2650   -1.8950   28.5170 C   0  0  0  0  0  0  0  0  0  0  0  0
    7.2760   -0.6250   29.3630 C   0  0  0  0  0  0  0  0  0  0  0  0
    6.5440    0.6020   28.8820 C   0  0  0  0  0  0  0  0  0  0  0  0
    5.8180    0.5800   27.5910 C   0  0  0  0  0  0  0  0  0  0  0  0
    5.0630    1.7710   27.0410 C   0  0  0  0  0  0  0  0  0  0  0  0
    4.4170    1.7140   25.8770 N   0  0  0  0  0  0  0  0  0  0  0  0
    4.3950    0.6080   25.1180 C   0  0  0  0  0  0  0  0  0  0  0  0
    5.1330   -0.6200   25.6140 C   0  0  0  0  0  0  0  0  0  0  0  0
    5.8210   -0.6630   26.7940 C   0  0  0  0  0  0  0  0  0  0  0  0
    6.9730   -2.7200   23.1890 C   0  0  0  0  0  0  0  0  0  0  0  0
    7.8240   -3.2580   22.0670 C   0  0  0  0  0  0  0  0  0  0  0  0
  1  2  1  0
  2  3  2  0
  2  4  1  0
  4  5  1  0
  5  6  1  0
  6  7  1  0
  7  8  1  0
  8  9  2  0
  8 10  1  0
 10 11  1  0
 11 12  2  0
 12 13  1  0
 13 14  2  0
 14 15  1  0
 11 16  1  0
 15 16  2  0
 16 17  1  0
 10 18  1  0
 18 19  2  0
 19 20  1  0
 20 21  2  0
 21 22  1  0
 22 23  1  0
 23 24  2  0
 24 25  1  0
 25 26  2  0
 18 27  1  0
 22 27  2  0
 26 27  1  0
  7 28  1  0
  4 29  1  0
 28 29  1  0
M  END
