piperidine-amides-592-covalent
     RDKit          3D

 26 27  0  0  0  0  0  0  0  0999 V2000
    7.1890   -3.2910   19.3660 C   0  0  0  0  0  0  0  0  0  0  0  0
    6.4290   -4.0880   20.2980 C   0  0  0  0  0  0  0  0  0  0  0  0
    5.3260   -4.5840   19.9020 O   0  0  0  0  0  0  0  0  0  0  0  0
    6.8760   -4.3850   21.6030 N   0  0  0  0  0  0  0  0  0  0  0  0
    6.0460   -5.3300   22.3540 C   0  0  0  0  0  0  0  0  0  0  0  0
    5.0820   -4.3200   23.0970 C   0  0  0  0  0  0  0  0  0  0  0  0
    5.9190   -3.2350   23.7650 C   0  0  0  0  0  0  0  0  0  0  0  0
    4.9640   -2.2480   24.5870 C   0  0  0  0  0  0  0  0  0  0  0  0
    4.5710   -1.3540   23.8790 O   0  0  0  0  0  0  0  0  0  0  0  0
    4.8400   -2.6340   25.7710 N   0  0  0  0  0  0  0  0  0  0  0  0
    4.7560   -3.1100   27.0090 C   0  0  0  0  0  0  0  0  0  0  0  0
    5.3770   -4.0430   27.6590 C   0  0  0  0  0  0  0  0  0  0  0  0
    6.5410   -4.3330   27.0740 C   0  0  0  0  0  0  0  0  0  0  0  0
    7.4830   -5.2570   27.4400 C   0  0  0  0  0  0  0  0  0  0  0  0
    8.9370   -5.5080   26.5230 S   0  0  0  0  0  0  0  0  0  0  0  0
    9.9420   -5.9170   27.4640 O   0  0  0  0  0  0  0  0  0  0  0  0
    9.1910   -4.2320   25.7940 O   0  0  0  0  0  0  0  0  0  0  0  0
    8.7520   -6.7640   25.3340 N   0  0  0  0  0  0  0  0  0  0  0  0
    7.6600   -6.6170   24.3760 C   0  0  0  0  0  0  0  0  0  0  0  0
    6.9200   -5.9170   28.7210 C   0  0  0  0  0  0  0  0  0  0  0  0
    5.7810   -5.8720   29.5750 C   0  0  0  0  0  0  0  0  0  0  0  0
    5.4810   -6.5990   30.6980 F   0  0  0  0  0  0  0  0  0  0  0  0
    4.9350   -4.7700   28.8930 C   0  0  0  0  0  0  0  0  0  0  0  0
    3.3840   -4.3500   29.5930 Cl  0  0  0  0  0  0  0  0  0  0  0  0
    6.8640   -2.5440   22.8280 C   0  0  0  0  0  0  0  0  0  0  0  0
    7.7190   -3.4880   22.3330 C   0  0  0  0  0  0  0  0  0  0  0  0
  1  2  1  0
  2  3  2  0
  2  4  1  0
  4  5  1  0
  5  6  1  0
  6  7  1  0
  7  8  1  0
  8  9  2  0
  8 10  1  0
 10 11  1  0
 11 12  1  0
 12 13  2  0
 13 14  1  0
 14 15  1  0
 15 16  2  0
 15 17  2  0
 15 18  1  0
 18 19  1  0
 14 20  2  0
 20 21  1  0
 21 22  1  0
 12 23  1  0
 21 23  2  0
 23 24  1  0
  7 25  1  0
  4 26  1  0
 25 26  1  0
M  END
