piperidine-amides-34364-covalent
     RDKit          3D

 31 34  0  0  0  0  0  0  0  0999 V2000
    7.0100   -3.3430   19.3460 C   0  0  0  0  0  0  0  0  0  0  0  0
    6.3410   -4.2040   20.3360 C   0  0  0  0  0  0  0  0  0  0  0  0
    5.3640   -4.8990   19.9880 O   0  0  0  0  0  0  0  0  0  0  0  0
    6.8110   -4.2860   21.6560 N   0  0  0  0  0  0  0  0  0  0  0  0
    7.5930   -3.1950   22.2100 C   0  0  0  0  0  0  0  0  0  0  0  0
    7.3510   -3.1600   23.7220 C   0  0  0  0  0  0  0  0  0  0  0  0
    5.9510   -3.6200   23.9470 C   0  0  0  0  0  0  0  0  0  0  0  0
    5.4640   -3.3030   25.3160 C   0  0  0  0  0  0  0  0  0  0  0  0
    4.2290   -3.3360   25.4850 O   0  0  0  0  0  0  0  0  0  0  0  0
    6.3340   -2.9610   26.3980 N   0  0  0  0  0  0  0  0  0  0  0  0
    6.6620   -4.0040   27.3450 C   0  0  0  0  0  0  0  0  0  0  0  0
    5.4220   -4.5110   28.0420 C   0  0  0  0  0  0  0  0  0  0  0  0
    4.1690   -3.8380   28.1960 C   0  0  0  0  0  0  0  0  0  0  0  0
    3.0480   -4.3760   28.8680 C   0  0  0  0  0  0  0  0  0  0  0  0
    3.1740   -5.6250   29.4050 C   0  0  0  0  0  0  0  0  0  0  0  0
    4.2660   -6.2020   29.2660 C   0  0  0  0  0  0  0  0  0  0  0  0
    5.5600   -5.9160   28.6490 C   0  0  0  0  0  0  0  0  0  0  0  0
    4.5670   -7.4910   29.7540 C   0  0  0  0  0  0  0  0  0  0  0  0
    3.1580   -7.6700   30.3190 C   0  0  0  0  0  0  0  0  0  0  0  0
    2.4050   -6.5230   30.1110 O   0  0  0  0  0  0  0  0  0  0  0  0
    6.6110   -1.6440   26.9950 C   0  0  0  0  0  0  0  0  0  0  0  0
    5.6680   -0.6570   26.6570 C   0  0  0  0  0  0  0  0  0  0  0  0
    5.9270    0.5560   27.2410 C   0  0  0  0  0  0  0  0  0  0  0  0
    6.1650    0.5430   28.5840 N   0  0  0  0  0  0  0  0  0  0  0  0
    6.5420    1.8170   29.0640 C   0  0  0  0  0  0  0  0  0  0  0  0
    6.8970    1.8620   30.5360 C   0  0  0  0  0  0  0  0  0  0  0  0
    6.6140    3.0050   28.3240 O   0  0  0  0  0  0  0  0  0  0  0  0
    6.7060   -0.5950   29.1670 C   0  0  0  0  0  0  0  0  0  0  0  0
    6.7960   -1.7180   28.3840 C   0  0  0  0  0  0  0  0  0  0  0  0
    5.8390   -5.0820   23.6520 C   0  0  0  0  0  0  0  0  0  0  0  0
    6.5000   -5.4150   22.4840 C   0  0  0  0  0  0  0  0  0  0  0  0
  1  2  1  0
  2  3  2  0
  2  4  1  0
  4  5  1  0
  5  6  1  0
  6  7  1  0
  7  8  1  0
  8  9  2  0
  8 10  1  0
 10 11  1  0
 11 12  1  0
 12 13  2  0
 13 14  1  0
 14 15  2  0
 15 16  1  0
 12 17  1  0
 16 17  2  0
 16 18  1  0
 18 19  1  0
 15 20  1  0
 19 20  1  0
 10 21  1  0
 21 22  1  0
 22 23  1  0
 23 24  1  0
 24 25  1  0
 25 26  1  0
 25 27  2  0
 24 28  1  0
 21 29  1  0
 28 29  1  0
  7 30  1  0
  4 31  1  0
 30 31  1  0
M  END
