piperidine-amides-1618-covalent
     RDKit          3D

 21 22  0  0  0  0  0  0  0  0999 V2000
    7.1170   -3.2540   19.2170 C   0  0  0  0  0  0  0  0  0  0  0  0
    6.3390   -4.0280   20.2250 C   0  0  0  0  0  0  0  0  0  0  0  0
    5.2680   -4.5550   19.8820 O   0  0  0  0  0  0  0  0  0  0  0  0
    6.8520   -4.1970   21.5260 N   0  0  0  0  0  0  0  0  0  0  0  0
    6.6330   -5.4070   22.2860 C   0  0  0  0  0  0  0  0  0  0  0  0
    5.9340   -5.0080   23.5900 C   0  0  0  0  0  0  0  0  0  0  0  0
    5.8580   -3.5190   23.6080 C   0  0  0  0  0  0  0  0  0  0  0  0
    5.1460   -2.9670   24.7780 C   0  0  0  0  0  0  0  0  0  0  0  0
    4.0820   -2.3920   24.5640 O   0  0  0  0  0  0  0  0  0  0  0  0
    5.6550   -3.1150   26.0470 N   0  0  0  0  0  0  0  0  0  0  0  0
    5.3950   -4.1930   26.9020 C   0  0  1  0  0  0  0  0  0  0  0  0
    4.8210   -5.3940   26.5870 C   0  0  0  0  0  0  0  0  0  0  0  0
    6.7120   -4.6760   27.2570 C   0  0  0  0  0  0  0  0  0  0  0  0
    7.3200   -5.8700   26.7390 N   0  0  0  0  0  0  0  0  0  0  0  0
    8.5170   -6.3260   27.0530 C   0  0  0  0  0  0  0  0  0  0  0  0
    9.2420   -5.5630   27.9850 C   0  0  0  0  0  0  0  0  0  0  0  0
    8.7340   -4.2930   28.5930 C   0  0  0  0  0  0  0  0  0  0  0  0
    7.3800   -3.8880   28.1540 C   0  0  0  0  0  0  0  0  0  0  0  0
    6.8180   -2.7350   28.6510 C   0  0  0  0  0  0  0  0  0  0  0  0
    7.1780   -2.8540   23.4720 C   0  0  0  0  0  0  0  0  0  0  0  0
    7.7070   -3.1660   22.0920 C   0  0  0  0  0  0  0  0  0  0  0  0
  1  2  1  0
  2  3  2  0
  2  4  1  0
  4  5  1  0
  5  6  1  0
  6  7  1  0
  7  8  1  0
  8  9  2  0
  8 10  1  0
 10 11  1  0
 11 12  1  6
 11 13  1  0
 13 14  2  0
 14 15  1  0
 15 16  2  0
 16 17  1  0
 13 18  1  0
 17 18  2  0
 18 19  1  0
  7 20  1  0
  4 21  1  0
 20 21  1  0
M  END
