piperidine-amides-2960-covalent
     RDKit          3D

 23 25  0  0  0  0  0  0  0  0999 V2000
    7.0860   -3.3130   19.2540 C   0  0  0  0  0  0  0  0  0  0  0  0
    6.3700   -4.0980   20.2530 C   0  0  0  0  0  0  0  0  0  0  0  0
    5.3360   -4.6820   19.9400 O   0  0  0  0  0  0  0  0  0  0  0  0
    6.8950   -4.2450   21.5830 N   0  0  0  0  0  0  0  0  0  0  0  0
    7.6790   -3.1740   22.1730 C   0  0  0  0  0  0  0  0  0  0  0  0
    7.3810   -2.9780   23.6430 C   0  0  0  0  0  0  0  0  0  0  0  0
    6.0790   -3.6870   23.9560 C   0  0  0  0  0  0  0  0  0  0  0  0
    5.5770   -3.3600   25.3180 C   0  0  0  0  0  0  0  0  0  0  0  0
    4.3610   -3.4070   25.5870 O   0  0  0  0  0  0  0  0  0  0  0  0
    6.4810   -2.9820   26.3400 N   0  0  0  0  0  0  0  0  0  0  0  0
    6.1540   -3.3510   27.6990 C   0  0  0  0  0  0  0  0  0  0  0  0
    5.8870   -2.0830   28.4830 C   0  0  0  0  0  0  0  0  0  0  0  0
    5.7600   -1.9310   29.8440 N   0  0  0  0  0  0  0  0  0  0  0  0
    5.5270   -0.6260   30.2150 C   0  0  0  0  0  0  0  0  0  0  0  0
    5.3500   -0.0990   31.4860 C   0  0  0  0  0  0  0  0  0  0  0  0
    5.1320    1.2560   31.5190 C   0  0  0  0  0  0  0  0  0  0  0  0
    5.1060    2.0010   30.2650 C   0  0  0  0  0  0  0  0  0  0  0  0
    5.2860    1.4350   29.0150 C   0  0  0  0  0  0  0  0  0  0  0  0
    5.4970    0.0730   29.0950 N   0  0  0  0  0  0  0  0  0  0  0  0
    5.7090   -0.7410   27.9450 C   0  0  0  0  0  0  0  0  0  0  0  0
    5.7440   -0.1450   26.1390 Br  0  0  0  0  0  0  0  0  0  0  0  0
    6.0710   -5.1330   23.6420 C   0  0  0  0  0  0  0  0  0  0  0  0
    6.5760   -5.4240   22.3070 C   0  0  0  0  0  0  0  0  0  0  0  0
  1  2  1  0
  2  3  2  0
  2  4  1  0
  4  5  1  0
  5  6  1  0
  6  7  1  0
  7  8  1  0
  8  9  2  0
  8 10  1  0
 10 11  1  0
 11 12  1  0
 12 13  1  0
 13 14  2  0
 14 15  1  0
 15 16  2  0
 16 17  1  0
 17 18  2  0
 14 19  1  0
 18 19  1  0
 12 20  2  0
 19 20  1  0
 20 21  1  0
  7 22  1  0
  4 23  1  0
 22 23  1  0
M  END
