piperidine-amides-13774-covalent
     RDKit          3D

 27 29  0  0  0  0  0  0  0  0999 V2000
    7.0920   -3.3160   19.2970 C   0  0  0  0  0  0  0  0  0  0  0  0
    6.3900   -4.1710   20.2890 C   0  0  0  0  0  0  0  0  0  0  0  0
    5.3510   -4.7690   19.9600 O   0  0  0  0  0  0  0  0  0  0  0  0
    6.9600   -4.3280   21.5690 N   0  0  0  0  0  0  0  0  0  0  0  0
    7.7050   -3.2650   22.1980 C   0  0  0  0  0  0  0  0  0  0  0  0
    6.7820   -2.6790   23.2600 C   0  0  0  0  0  0  0  0  0  0  0  0
    6.5250   -3.7700   24.2350 C   0  0  0  0  0  0  0  0  0  0  0  0
    5.7370   -3.3120   25.3960 C   0  0  0  0  0  0  0  0  0  0  0  0
    4.5090   -3.2980   25.2640 O   0  0  0  0  0  0  0  0  0  0  0  0
    6.3820   -2.9140   26.5640 N   0  0  0  0  0  0  0  0  0  0  0  0
    6.3390   -1.6320   27.1590 C   0  0  0  0  0  0  0  0  0  0  0  0
    5.8120   -0.4270   26.7360 C   0  0  0  0  0  0  0  0  0  0  0  0
    5.8720    0.7620   27.4970 C   0  0  0  0  0  0  0  0  0  0  0  0
    6.4730    0.8160   28.7420 C   0  0  0  0  0  0  0  0  0  0  0  0
    6.5330    2.0680   29.5450 C   0  0  0  0  0  0  0  0  0  0  0  0
    5.3360    2.3310   30.4680 C   0  0  0  0  0  0  0  0  0  0  0  0
    5.6050    3.2770   31.5120 N   0  0  0  0  0  0  0  0  0  0  0  0
    5.9230    2.8540   32.8350 C   0  0  0  0  0  0  0  0  0  0  0  0
    4.8220    2.9920   33.6560 C   0  0  0  0  0  0  0  0  0  0  0  0
    3.6700    3.4990   33.2130 N   0  0  0  0  0  0  0  0  0  0  0  0
    2.5570    3.1170   34.0570 C   0  0  0  0  0  0  0  0  0  0  0  0
    3.5180    3.8180   31.8200 C   0  0  0  0  0  0  0  0  0  0  0  0
    4.7600    4.3230   31.5210 C   0  0  0  0  0  0  0  0  0  0  0  0
    7.0120   -0.3240   29.2190 C   0  0  0  0  0  0  0  0  0  0  0  0
    7.0010   -1.6340   28.5000 C   0  0  0  0  0  0  0  0  0  0  0  0
    5.8020   -4.9460   23.6040 C   0  0  0  0  0  0  0  0  0  0  0  0
    6.5160   -5.4410   22.3970 C   0  0  0  0  0  0  0  0  0  0  0  0
  1  2  1  0
  2  3  2  0
  2  4  1  0
  4  5  1  0
  5  6  1  0
  6  7  1  0
  7  8  1  0
  8  9  2  0
  8 10  1  0
 10 11  1  0
 11 12  2  0
 12 13  1  0
 13 14  2  0
 14 15  1  0
 15 16  1  0
 16 17  1  0
 17 18  1  0
 18 19  1  0
 19 20  1  0
 20 21  1  0
 20 22  1  0
 17 23  1  0
 22 23  1  0
 14 24  1  0
 11 25  1  0
 24 25  2  0
  7 26  1  0
  4 27  1  0
 26 27  1  0
M  END
