piperidine-amides-19294-covalent
     RDKit          3D

 22 24  0  0  0  0  0  0  0  0999 V2000
    6.9890   -3.3920   19.3870 C   0  0  0  0  0  0  0  0  0  0  0  0
    6.3440   -4.1870   20.4180 C   0  0  0  0  0  0  0  0  0  0  0  0
    5.4180   -4.9610   20.0140 O   0  0  0  0  0  0  0  0  0  0  0  0
    6.6980   -4.1810   21.8040 N   0  0  0  0  0  0  0  0  0  0  0  0
    6.6480   -5.5220   22.4470 C   0  0  0  0  0  0  0  0  0  0  0  0
    6.1120   -5.2030   23.9030 C   0  0  0  0  0  0  0  0  0  0  0  0
    6.0390   -3.7000   24.0250 C   0  0  0  0  0  0  0  0  0  0  0  0
    4.9360   -3.1540   25.0960 C   0  0  0  0  0  0  0  0  0  0  0  0
    3.9020   -3.0340   24.4800 O   0  0  0  0  0  0  0  0  0  0  0  0
    5.2990   -2.9550   26.3270 N   0  0  0  0  0  0  0  0  0  0  0  0
    5.3030   -2.4800   27.6100 C   0  0  0  0  0  0  0  0  0  0  0  0
    4.9030   -2.9320   28.8420 C   0  0  0  0  0  0  0  0  0  0  0  0
    4.9240   -4.3310   28.9150 C   0  0  0  0  0  0  0  0  0  0  0  0
    4.3300   -5.3150   29.8380 C   0  0  0  0  0  0  0  0  0  0  0  0
    5.0660   -6.6670   29.5200 C   0  0  0  0  0  0  0  0  0  0  0  0
    6.1290   -6.7940   28.4890 N   0  0  0  0  0  0  0  0  0  0  0  0
    6.0540   -5.9180   27.3830 C   0  0  0  0  0  0  0  0  0  0  0  0
    6.1830   -6.0060   26.1580 O   0  0  0  0  0  0  0  0  0  0  0  0
    5.7160   -4.6850   27.7710 C   0  0  0  0  0  0  0  0  0  0  0  0
    6.3360   -3.7700   26.7080 C   0  0  0  0  0  0  0  0  0  0  0  0
    7.3670   -3.0790   23.7440 C   0  0  0  0  0  0  0  0  0  0  0  0
    7.5320   -3.1220   22.3580 C   0  0  0  0  0  0  0  0  0  0  0  0
  1  2  1  0
  2  3  2  0
  2  4  1  0
  4  5  1  0
  5  6  1  0
  6  7  1  0
  7  8  1  0
  8  9  2  0
  8 10  1  0
 10 11  1  0
 11 12  1  0
 12 13  1  0
 13 14  1  0
 14 15  2  0
 15 16  1  0
 16 17  1  0
 17 18  2  0
 13 19  2  0
 17 19  1  0
 10 20  1  0
 19 20  1  0
  7 21  1  0
  4 22  1  0
 21 22  1  0
M  END
