piperidine-amides-2078-covalent
     RDKit          3D

 21 22  0  0  0  0  0  0  0  0999 V2000
    7.0310   -3.3470   19.3480 C   0  0  0  0  0  0  0  0  0  0  0  0
    6.3820   -4.2140   20.3690 C   0  0  0  0  0  0  0  0  0  0  0  0
    5.3970   -4.8480   19.9890 O   0  0  0  0  0  0  0  0  0  0  0  0
    6.9040   -4.3300   21.6740 N   0  0  0  0  0  0  0  0  0  0  0  0
    6.6220   -5.4910   22.4900 C   0  0  0  0  0  0  0  0  0  0  0  0
    6.0260   -5.0870   23.8270 C   0  0  0  0  0  0  0  0  0  0  0  0
    6.0300   -3.5630   23.9940 C   0  0  0  0  0  0  0  0  0  0  0  0
    5.6040   -3.2170   25.3770 C   0  0  0  0  0  0  0  0  0  0  0  0
    4.4140   -3.3770   25.6710 O   0  0  0  0  0  0  0  0  0  0  0  0
    6.4990   -2.7090   26.3480 N   0  0  0  0  0  0  0  0  0  0  0  0
    6.0610   -1.6650   27.2760 C   0  0  1  0  0  0  0  0  0  0  0  0
    4.9770   -2.3460   28.0910 C   0  0  0  0  0  0  0  0  0  0  0  0
    7.2220   -1.4530   28.2280 C   0  0  0  0  0  0  0  0  0  0  0  0
    6.6510   -0.5750   29.0720 C   0  0  0  0  0  0  0  0  0  0  0  0
    6.1240    0.5020   28.4850 C   0  0  0  0  0  0  0  0  0  0  0  0
    4.9240    0.4250   27.6040 C   0  0  0  0  0  0  0  0  0  0  0  0
    5.5820   -0.3950   26.5280 C   0  0  0  0  0  0  0  0  0  0  0  0
    6.4860    0.4080   25.8490 F   0  0  0  0  0  0  0  0  0  0  0  0
    4.6060   -0.7310   25.5970 F   0  0  0  0  0  0  0  0  0  0  0  0
    7.3110   -2.9450   23.6240 C   0  0  0  0  0  0  0  0  0  0  0  0
    7.6620   -3.2290   22.2110 C   0  0  0  0  0  0  0  0  0  0  0  0
  1  2  1  0
  2  3  2  0
  2  4  1  0
  4  5  1  0
  5  6  1  0
  6  7  1  0
  7  8  1  0
  8  9  2  0
  8 10  1  0
 11 10  1  0
 11 12  1  1
 11 13  1  0
 13 14  1  0
 14 15  1  0
 15 16  1  0
 11 17  1  0
 16 17  1  0
 17 18  1  0
 17 19  1  0
  7 20  1  0
  4 21  1  0
 20 21  1  0
M  END
