piperidine-amides-5073-covalent
     RDKit          3D

 22 24  0  0  0  0  0  0  0  0999 V2000
    7.1260   -3.2490   19.2140 C   0  0  0  0  0  0  0  0  0  0  0  0
    6.3600   -3.9940   20.2460 C   0  0  0  0  0  0  0  0  0  0  0  0
    5.2960   -4.5300   19.8760 O   0  0  0  0  0  0  0  0  0  0  0  0
    6.8330   -4.1220   21.5610 N   0  0  0  0  0  0  0  0  0  0  0  0
    6.5640   -5.3040   22.2920 C   0  0  0  0  0  0  0  0  0  0  0  0
    6.3480   -5.0170   23.7050 C   0  0  0  0  0  0  0  0  0  0  0  0
    6.1560   -3.5730   24.0040 C   0  0  0  0  0  0  0  0  0  0  0  0
    6.0190   -3.3300   25.4550 C   0  0  0  0  0  0  0  0  0  0  0  0
    4.8640   -3.2010   25.9090 O   0  0  0  0  0  0  0  0  0  0  0  0
    7.1600   -3.2240   26.2930 N   0  0  0  0  0  0  0  0  0  0  0  0
    7.5430   -4.2600   27.2850 C   0  0  0  0  0  0  0  0  0  0  0  0
    6.4440   -4.4870   28.2550 C   0  0  0  0  0  0  0  0  0  0  0  0
    5.8380   -5.7510   28.5100 C   0  0  0  0  0  0  0  0  0  0  0  0
    4.8540   -5.7080   29.4340 C   0  0  0  0  0  0  0  0  0  0  0  0
    4.0150   -6.6430   29.9870 C   0  0  0  0  0  0  0  0  0  0  0  0
    4.2910   -7.7920   29.8090 C   0  0  0  0  0  0  0  0  0  0  0  0
    4.7880   -7.2720   31.1080 C   0  0  0  0  0  0  0  0  0  0  0  0
    4.7900   -4.3490   29.8200 N   0  0  0  0  0  0  0  0  0  0  0  0
    5.7250   -3.7210   29.1110 N   0  0  0  0  0  0  0  0  0  0  0  0
    5.9650   -2.4040   29.2140 C   0  0  0  0  0  0  0  0  0  0  0  0
    7.2440   -2.6820   23.4450 C   0  0  0  0  0  0  0  0  0  0  0  0
    7.7830   -3.2010   22.1660 C   0  0  0  0  0  0  0  0  0  0  0  0
  1  2  1  0
  2  3  2  0
  2  4  1  0
  4  5  1  0
  5  6  1  0
  6  7  1  0
  7  8  1  0
  8  9  2  0
  8 10  1  0
 10 11  1  0
 11 12  1  0
 12 13  2  0
 13 14  1  0
 14 15  1  0
 15 16  1  0
 15 17  1  0
 16 17  1  0
 14 18  2  0
 12 19  1  0
 18 19  1  0
 19 20  1  0
  7 21  1  0
  4 22  1  0
 21 22  1  0
M  END
