piperidine-amides-25104-covalent
     RDKit          3D

 25 27  0  0  0  0  0  0  0  0999 V2000
    6.9830   -3.3530   19.3440 C   0  0  0  0  0  0  0  0  0  0  0  0
    6.3150   -4.2210   20.3520 C   0  0  0  0  0  0  0  0  0  0  0  0
    5.3450   -4.8650   19.9730 O   0  0  0  0  0  0  0  0  0  0  0  0
    6.8110   -4.3120   21.6590 N   0  0  0  0  0  0  0  0  0  0  0  0
    6.5780   -5.4730   22.4870 C   0  0  0  0  0  0  0  0  0  0  0  0
    5.8570   -5.0790   23.7620 C   0  0  0  0  0  0  0  0  0  0  0  0
    5.8860   -3.5560   23.9380 C   0  0  0  0  0  0  0  0  0  0  0  0
    5.3930   -3.1600   25.2880 C   0  0  0  0  0  0  0  0  0  0  0  0
    4.2370   -2.7370   25.3840 O   0  0  0  0  0  0  0  0  0  0  0  0
    6.1810   -3.2410   26.4570 N   0  0  0  0  0  0  0  0  0  0  0  0
    6.6760   -4.5600   26.8200 C   0  0  0  0  0  0  0  0  0  0  0  0
    6.6670   -2.0600   27.1340 C   0  0  0  0  0  0  0  0  0  0  0  0
    7.0500   -1.5850   28.2530 C   0  0  0  0  0  0  0  0  0  0  0  0
    7.4950   -0.4450   28.6520 C   0  0  0  0  0  0  0  0  0  0  0  0
    7.9650    0.2500   29.7370 C   0  0  0  0  0  0  0  0  0  0  0  0
    9.3660    0.7860   30.0170 C   0  0  0  0  0  0  0  0  0  0  0  0
    9.4440    1.4880   31.3510 C   0  0  0  0  0  0  0  0  0  0  0  0
    8.1990    1.5710   32.2020 C   0  0  0  0  0  0  0  0  0  0  0  0
    6.9080    0.9850   31.7620 C   0  0  0  0  0  0  0  0  0  0  0  0
    6.6600    0.2690   30.4910 C   0  0  0  0  0  0  0  0  0  0  0  0
    5.3670   -0.3550   29.9800 C   0  0  0  0  0  0  0  0  0  0  0  0
    7.2580   -1.6760   29.3320 N   0  0  0  0  0  0  0  0  0  0  0  0
    6.7610   -2.6360   28.4310 N   0  0  0  0  0  0  0  0  0  0  0  0
    7.2860   -3.0920   23.6980 C   0  0  0  0  0  0  0  0  0  0  0  0
    7.5850   -3.2360   22.2370 C   0  0  0  0  0  0  0  0  0  0  0  0
  1  2  1  0
  2  3  2  0
  2  4  1  0
  4  5  1  0
  5  6  1  0
  6  7  1  0
  7  8  1  0
  8  9  2  0
  8 10  1  0
 10 11  1  0
 10 12  1  0
 12 13  1  0
 13 14  2  0
 14 15  1  0
 15 16  2  0
 16 17  1  0
 17 18  2  0
 18 19  1  0
 15 20  1  0
 19 20  2  0
 20 21  1  0
 14 22  1  0
 12 23  2  0
 22 23  1  0
  7 24  1  0
  4 25  1  0
 24 25  1  0
M  END
