piperidine-amides-7027-covalent
     RDKit          3D

 22 23  0  0  0  0  0  0  0  0999 V2000
    7.0940   -3.3080   19.3390 C   0  0  0  0  0  0  0  0  0  0  0  0
    6.4000   -4.1550   20.3180 C   0  0  0  0  0  0  0  0  0  0  0  0
    5.3760   -4.7900   19.9740 O   0  0  0  0  0  0  0  0  0  0  0  0
    6.8980   -4.3080   21.6280 N   0  0  0  0  0  0  0  0  0  0  0  0
    7.7290   -3.2910   22.2310 C   0  0  0  0  0  0  0  0  0  0  0  0
    6.9130   -2.6410   23.3580 C   0  0  0  0  0  0  0  0  0  0  0  0
    6.2540   -3.7290   24.1960 C   0  0  0  0  0  0  0  0  0  0  0  0
    5.2830   -3.0960   25.1240 C   0  0  0  0  0  0  0  0  0  0  0  0
    4.5070   -2.2510   24.6380 O   0  0  0  0  0  0  0  0  0  0  0  0
    5.2040   -3.4150   26.5060 N   0  0  0  0  0  0  0  0  0  0  0  0
    5.9960   -4.4630   27.0450 C   0  0  0  0  0  0  0  0  0  0  0  0
    5.2440   -5.3330   28.0040 C   0  0  0  0  0  0  0  0  0  0  0  0
    4.6050   -4.7470   29.0510 C   0  0  0  0  0  0  0  0  0  0  0  0
    6.3180   -6.2070   28.6260 C   0  0  0  0  0  0  0  0  0  0  0  0
    4.3390   -6.2720   27.3680 C   0  0  0  0  0  0  0  0  0  0  0  0
    4.4480   -6.5450   26.0280 C   0  0  0  0  0  0  0  0  0  0  0  0
    3.7110   -7.4440   25.0160 C   0  0  0  0  0  0  0  0  0  0  0  0
    2.7120   -8.0120   26.0430 C   0  0  0  0  0  0  0  0  0  0  0  0
    2.6260   -7.6870   27.5010 C   0  0  0  0  0  0  0  0  0  0  0  0
    3.4150   -6.8550   28.0940 N   0  0  0  0  0  0  0  0  0  0  0  0
    5.5000   -4.7230   23.3290 C   0  0  0  0  0  0  0  0  0  0  0  0
    6.4180   -5.3560   22.4830 C   0  0  0  0  0  0  0  0  0  0  0  0
  1  2  1  0
  2  3  2  0
  2  4  1  0
  4  5  1  0
  5  6  1  0
  6  7  1  0
  7  8  1  0
  8  9  2  0
  8 10  1  0
 10 11  1  0
 12 11  1  0
 12 13  1  0
 12 14  1  0
 12 15  1  0
 15 16  2  0
 16 17  1  0
 17 18  2  0
 18 19  1  0
 15 20  1  0
 19 20  2  0
  7 21  1  0
  4 22  1  0
 21 22  1  0
M  END
