piperidine-amides-21552-covalent
     RDKit          3D

 22 24  0  0  0  0  0  0  0  0999 V2000
    7.0030   -3.3770   19.3980 C   0  0  0  0  0  0  0  0  0  0  0  0
    6.3490   -4.2570   20.3790 C   0  0  0  0  0  0  0  0  0  0  0  0
    5.3420   -4.8890   19.9780 O   0  0  0  0  0  0  0  0  0  0  0  0
    6.8590   -4.4070   21.6720 N   0  0  0  0  0  0  0  0  0  0  0  0
    6.6690   -5.6340   22.4250 C   0  0  0  0  0  0  0  0  0  0  0  0
    5.9090   -5.3350   23.6940 C   0  0  0  0  0  0  0  0  0  0  0  0
    5.8190   -3.8560   23.9350 C   0  0  0  0  0  0  0  0  0  0  0  0
    5.2790   -3.4830   25.2740 C   0  0  0  0  0  0  0  0  0  0  0  0
    4.5060   -2.5040   25.3090 O   0  0  0  0  0  0  0  0  0  0  0  0
    5.5480   -4.1200   26.5100 N   0  0  0  0  0  0  0  0  0  0  0  0
    6.8940   -4.3190   26.8120 C   0  0  0  0  0  0  0  0  0  0  0  0
    7.0930   -5.2440   28.0050 C   0  0  0  0  0  0  0  0  0  0  0  0
    6.0290   -5.5300   28.7850 C   0  0  0  0  0  0  0  0  0  0  0  0
    5.9600   -6.5140   29.7160 N   0  0  0  0  0  0  0  0  0  0  0  0
    4.7950   -6.6040   30.3460 C   0  0  0  0  0  0  0  0  0  0  0  0
    4.2780   -7.4270   31.3380 C   0  0  0  0  0  0  0  0  0  0  0  0
    3.1950   -6.8080   32.0310 N   0  0  0  0  0  0  0  0  0  0  0  0
    3.7640   -5.4000   29.7310 S   0  0  0  0  0  0  0  0  0  0  0  0
    4.9000   -4.7530   28.6090 C   0  0  0  0  0  0  0  0  0  0  0  0
    4.8360   -3.7220   27.6880 C   0  0  0  0  0  0  0  0  0  0  0  0
    7.2010   -3.2610   23.7440 C   0  0  0  0  0  0  0  0  0  0  0  0
    7.5740   -3.3060   22.2720 C   0  0  0  0  0  0  0  0  0  0  0  0
  1  2  1  0
  2  3  2  0
  2  4  1  0
  4  5  1  0
  5  6  1  0
  6  7  1  0
  7  8  1  0
  8  9  2  0
  8 10  1  0
 10 11  1  0
 11 12  1  0
 12 13  1  0
 13 14  1  0
 14 15  2  0
 15 16  1  0
 16 17  3  0
 15 18  1  0
 13 19  2  0
 18 19  1  0
 10 20  1  0
 19 20  1  0
  7 21  1  0
  4 22  1  0
 21 22  1  0
M  END
