piperidine-amides-11188-covalent
     RDKit          3D

 19 20  0  0  0  0  0  0  0  0999 V2000
    7.1490   -3.2690   19.1770 C   0  0  0  0  0  0  0  0  0  0  0  0
    6.3780   -3.9830   20.1990 C   0  0  0  0  0  0  0  0  0  0  0  0
    5.3070   -4.5260   19.8820 O   0  0  0  0  0  0  0  0  0  0  0  0
    6.8660   -4.0990   21.5050 N   0  0  0  0  0  0  0  0  0  0  0  0
    7.6970   -3.0650   22.0750 C   0  0  0  0  0  0  0  0  0  0  0  0
    6.9720   -2.6160   23.3000 C   0  0  0  0  0  0  0  0  0  0  0  0
    6.5580   -3.7850   24.1400 C   0  0  0  0  0  0  0  0  0  0  0  0
    5.8580   -3.3530   25.3660 C   0  0  0  0  0  0  0  0  0  0  0  0
    4.6770   -3.7510   25.5980 O   0  0  0  0  0  0  0  0  0  0  0  0
    6.4560   -2.4820   26.3070 N   0  0  0  0  0  0  0  0  0  0  0  0
    5.7390   -2.0620   27.5320 C   0  0  0  0  0  0  0  0  0  0  0  0
    6.3230   -0.7870   28.0170 C   0  0  0  0  0  0  0  0  0  0  0  0
    5.3070   -0.0990   28.6700 F   0  0  0  0  0  0  0  0  0  0  0  0
    7.2330   -1.0610   29.0490 F   0  0  0  0  0  0  0  0  0  0  0  0
    4.2560   -1.7960   27.2500 C   0  0  0  0  0  0  0  0  0  0  0  0
    4.0240   -2.6890   28.4030 C   0  0  0  0  0  0  0  0  0  0  0  0
    5.5070   -2.9110   28.6710 C   0  0  0  0  0  0  0  0  0  0  0  0
    5.6840   -4.7140   23.3620 C   0  0  0  0  0  0  0  0  0  0  0  0
    6.3650   -5.1970   22.2790 C   0  0  0  0  0  0  0  0  0  0  0  0
  1  2  1  0
  2  3  2  0
  2  4  1  0
  4  5  1  0
  5  6  1  0
  6  7  1  0
  7  8  1  0
  8  9  2  0
  8 10  1  0
 11 10  1  0
 11 12  1  0
 12 13  1  0
 12 14  1  0
 11 15  1  0
 15 16  1  0
 11 17  1  0
 16 17  1  0
  7 18  1  0
  4 19  1  0
 18 19  1  0
M  END
