piperidine-amides-26176-covalent
     RDKit          3D

 25 26  0  0  0  0  0  0  0  0999 V2000
    7.0920   -3.2870   19.2300 C   0  0  0  0  0  0  0  0  0  0  0  0
    6.3490   -4.0500   20.2400 C   0  0  0  0  0  0  0  0  0  0  0  0
    5.2960   -4.6140   19.9130 O   0  0  0  0  0  0  0  0  0  0  0  0
    6.8350   -4.1930   21.5470 N   0  0  0  0  0  0  0  0  0  0  0  0
    7.7140   -3.1910   22.1380 C   0  0  0  0  0  0  0  0  0  0  0  0
    7.2420   -2.9300   23.5490 C   0  0  0  0  0  0  0  0  0  0  0  0
    5.9620   -3.6450   23.8500 C   0  0  0  0  0  0  0  0  0  0  0  0
    5.4990   -3.4510   25.2460 C   0  0  0  0  0  0  0  0  0  0  0  0
    4.2620   -3.5080   25.5150 O   0  0  0  0  0  0  0  0  0  0  0  0
    6.3630   -3.1780   26.3210 N   0  0  0  0  0  0  0  0  0  0  0  0
    6.9230   -1.8100   26.4560 C   0  0  0  0  0  0  0  0  0  0  0  0
    5.9570   -0.7810   25.9950 C   0  0  0  0  0  0  0  0  0  0  0  0
    5.6720    0.3700   26.8610 C   0  0  0  0  0  0  0  0  0  0  0  0
    4.6960    1.4160   26.3930 C   0  0  0  0  0  0  0  0  0  0  0  0
    4.0230    1.2730   25.0430 C   0  0  0  0  0  0  0  0  0  0  0  0
    4.4410    0.0440   24.3170 C   0  0  0  0  0  0  0  0  0  0  0  0
    5.3360   -0.8820   24.7830 C   0  0  0  0  0  0  0  0  0  0  0  0
    6.6600   -4.1230   27.3540 C   0  0  1  0  0  0  0  0  0  0  0  0
    6.3090   -5.5590   27.0470 C   0  0  0  0  0  0  0  0  0  0  0  0
    8.0880   -4.1290   27.6990 C   0  0  2  0  0  0  0  0  0  0  0  0
    8.3840   -2.8290   28.4030 C   0  0  0  0  0  0  0  0  0  0  0  0
    8.7940   -4.5420   26.7240 O   0  0  0  0  0  0  0  0  0  0  0  0
    9.3620   -5.8160   26.8350 C   0  0  0  0  0  0  0  0  0  0  0  0
    5.9730   -5.0810   23.5340 C   0  0  0  0  0  0  0  0  0  0  0  0
    6.5450   -5.3600   22.3200 C   0  0  0  0  0  0  0  0  0  0  0  0
  1  2  1  0
  2  3  2  0
  2  4  1  0
  4  5  1  0
  5  6  1  0
  6  7  1  0
  7  8  1  0
  8  9  2  0
  8 10  1  0
 10 11  1  0
 11 12  1  0
 12 13  2  0
 13 14  1  0
 14 15  2  0
 15 16  1  0
 12 17  1  0
 16 17  2  0
 10 18  1  0
 18 19  1  6
 18 20  1  0
 20 21  1  6
 20 22  1  0
 22 23  1  0
  7 24  1  0
  4 25  1  0
 24 25  1  0
M  END
