piperidine-amides-34305-covalent
     RDKit          3D

 23 25  0  0  0  0  0  0  0  0999 V2000
    7.0690   -3.3420   19.4170 C   0  0  0  0  0  0  0  0  0  0  0  0
    6.4090   -4.2450   20.3680 C   0  0  0  0  0  0  0  0  0  0  0  0
    5.3990   -4.8880   20.0000 O   0  0  0  0  0  0  0  0  0  0  0  0
    6.9300   -4.4440   21.6650 N   0  0  0  0  0  0  0  0  0  0  0  0
    6.5320   -5.6190   22.3770 C   0  0  0  0  0  0  0  0  0  0  0  0
    5.5230   -5.1200   23.4150 C   0  0  0  0  0  0  0  0  0  0  0  0
    6.1920   -4.0450   24.2690 C   0  0  0  0  0  0  0  0  0  0  0  0
    5.1500   -3.4980   25.1910 C   0  0  0  0  0  0  0  0  0  0  0  0
    4.0590   -3.1770   24.6940 O   0  0  0  0  0  0  0  0  0  0  0  0
    5.3700   -3.3260   26.5850 N   0  0  0  0  0  0  0  0  0  0  0  0
    4.4490   -3.7170   27.6510 C   0  0  0  0  0  0  0  0  0  0  0  0
    5.2870   -4.4550   28.6500 C   0  0  0  0  0  0  0  0  0  0  0  0
    6.5190   -4.2940   28.2310 C   0  0  0  0  0  0  0  0  0  0  0  0
    6.4820   -3.1580   27.4410 C   0  0  2  0  0  0  0  0  0  0  0  0
    6.2670   -1.8980   28.0000 C   0  0  0  0  0  0  0  0  0  0  0  0
    5.3420   -1.0380   27.5800 C   0  0  0  0  0  0  0  0  0  0  0  0
    5.0230    0.3370   28.1090 C   0  0  0  0  0  0  0  0  0  0  0  0
    6.0720    0.4330   29.2580 C   0  0  0  0  0  0  0  0  0  0  0  0
    5.8880    2.2900   30.2340 I   0  0  0  0  0  0  0  0  0  0  0  0
    7.1830   -0.4540   29.8510 C   0  0  0  0  0  0  0  0  0  0  0  0
    7.0920   -1.6350   29.0140 C   0  0  0  0  0  0  0  0  0  0  0  0
    6.7370   -2.9130   23.4210 C   0  0  0  0  0  0  0  0  0  0  0  0
    7.5170   -3.3610   22.3800 C   0  0  0  0  0  0  0  0  0  0  0  0
  1  2  1  0
  2  3  2  0
  2  4  1  0
  4  5  1  0
  5  6  1  0
  6  7  1  0
  7  8  1  0
  8  9  2  0
  8 10  1  0
 10 11  1  0
 11 12  1  0
 12 13  1  0
 10 14  1  0
 13 14  1  0
 14 15  1  1
 15 16  2  0
 16 17  1  0
 17 18  2  0
 18 19  1  0
 18 20  1  0
 15 21  1  0
 20 21  2  0
  7 22  1  0
  4 23  1  0
 22 23  1  0
M  END
