piperidine-amides-25707-covalent
     RDKit          3D

 25 27  0  0  0  0  0  0  0  0999 V2000
    7.0480   -3.3390   19.3860 C   0  0  0  0  0  0  0  0  0  0  0  0
    6.3810   -4.2400   20.3580 C   0  0  0  0  0  0  0  0  0  0  0  0
    5.3660   -4.8140   19.9720 O   0  0  0  0  0  0  0  0  0  0  0  0
    6.9290   -4.4590   21.6310 N   0  0  0  0  0  0  0  0  0  0  0  0
    6.6220   -5.6490   22.3680 C   0  0  0  0  0  0  0  0  0  0  0  0
    5.7400   -5.2750   23.5260 C   0  0  0  0  0  0  0  0  0  0  0  0
    6.3480   -4.1080   24.3050 C   0  0  0  0  0  0  0  0  0  0  0  0
    5.3030   -3.6050   25.2480 C   0  0  0  0  0  0  0  0  0  0  0  0
    4.3100   -3.0270   24.8060 O   0  0  0  0  0  0  0  0  0  0  0  0
    5.4600   -3.7760   26.6330 N   0  0  0  0  0  0  0  0  0  0  0  0
    6.7880   -3.8450   26.9860 C   0  0  0  0  0  0  0  0  0  0  0  0
    7.0690   -5.2280   27.5050 C   0  0  0  0  0  0  0  0  0  0  0  0
    6.6240   -5.4680   28.7250 C   0  0  0  0  0  0  0  0  0  0  0  0
    5.3530   -5.0620   28.8330 C   0  0  0  0  0  0  0  0  0  0  0  0
    4.6420   -5.4760   29.9260 C   0  0  0  0  0  0  0  0  0  0  0  0
    3.2000   -5.1190   30.1900 C   0  0  0  0  0  0  0  0  0  0  0  0
    2.5570   -5.5850   31.3040 O   0  0  0  0  0  0  0  0  0  0  0  0
    2.8830   -6.8920   31.7030 C   0  0  0  0  0  0  0  0  0  0  0  0
    1.6720   -7.6300   32.2050 C   0  0  0  0  0  0  0  0  0  0  0  0
    3.2400   -7.6960   30.4680 C   0  0  0  0  0  0  0  0  0  0  0  0
    2.4680   -4.2690   29.2420 C   0  0  0  0  0  0  0  0  0  0  0  0
    3.2520   -3.8110   28.0320 C   0  0  0  0  0  0  0  0  0  0  0  0
    4.6720   -4.1780   27.7860 C   0  0  0  0  0  0  0  0  0  0  0  0
    6.7620   -2.9610   23.3750 C   0  0  0  0  0  0  0  0  0  0  0  0
    7.6040   -3.4090   22.3720 C   0  0  0  0  0  0  0  0  0  0  0  0
  1  2  1  0
  2  3  2  0
  2  4  1  0
  4  5  1  0
  5  6  1  0
  6  7  1  0
  7  8  1  0
  8  9  2  0
  8 10  1  0
 10 11  1  0
 11 12  1  0
 12 13  1  0
 13 14  1  0
 14 15  2  0
 15 16  1  0
 16 17  1  0
 17 18  1  0
 18 19  1  0
 18 20  1  0
 16 21  2  0
 21 22  1  0
 10 23  1  0
 14 23  1  0
 22 23  2  0
  7 24  1  0
  4 25  1  0
 24 25  1  0
M  END
