piperidine-amides-23811-covalent
     RDKit          3D

 24 26  0  0  0  0  0  0  0  0999 V2000
    7.1450   -3.3250   19.2450 C   0  0  0  0  0  0  0  0  0  0  0  0
    6.3830   -4.0790   20.2470 C   0  0  0  0  0  0  0  0  0  0  0  0
    5.2760   -4.5480   19.8900 O   0  0  0  0  0  0  0  0  0  0  0  0
    6.9210   -4.3260   21.5310 N   0  0  0  0  0  0  0  0  0  0  0  0
    6.4880   -5.4770   22.2380 C   0  0  0  0  0  0  0  0  0  0  0  0
    6.0670   -5.1770   23.5970 C   0  0  0  0  0  0  0  0  0  0  0  0
    6.7170   -3.9990   24.2000 C   0  0  0  0  0  0  0  0  0  0  0  0
    5.9320   -3.5460   25.3800 C   0  0  0  0  0  0  0  0  0  0  0  0
    4.9290   -2.8200   25.2270 O   0  0  0  0  0  0  0  0  0  0  0  0
    6.3040   -3.9430   26.6620 N   0  0  0  0  0  0  0  0  0  0  0  0
    6.9480   -5.1310   27.0270 C   0  0  0  0  0  0  0  0  0  0  0  0
    7.0450   -5.2410   28.4560 C   0  0  0  0  0  0  0  0  0  0  0  0
    6.0170   -4.1510   28.8700 C   0  0  0  0  0  0  0  0  0  0  0  0
    5.6380   -3.3630   27.7860 C   0  0  1  0  0  0  0  0  0  0  0  0
    6.3990   -2.1770   28.3920 C   0  0  0  0  0  0  0  0  0  0  0  0
    5.1450   -1.6250   29.0010 C   0  0  0  0  0  0  0  0  0  0  0  0
    5.6770   -1.1260   30.3240 C   0  0  0  0  0  0  0  0  0  0  0  0
    4.7810   -0.4650   31.3310 C   0  0  0  0  0  0  0  0  0  0  0  0
    3.3070   -0.3350   30.9270 C   0  0  0  0  0  0  0  0  0  0  0  0
    2.7960   -0.8610   29.5510 C   0  0  0  0  0  0  0  0  0  0  0  0
    1.4450   -0.6870   29.2940 F   0  0  0  0  0  0  0  0  0  0  0  0
    3.8220   -1.4970   28.6600 C   0  0  0  0  0  0  0  0  0  0  0  0
    6.9260   -2.8710   23.2460 C   0  0  0  0  0  0  0  0  0  0  0  0
    7.6970   -3.3220   22.2060 C   0  0  0  0  0  0  0  0  0  0  0  0
  1  2  1  0
  2  3  2  0
  2  4  1  0
  4  5  1  0
  5  6  1  0
  6  7  1  0
  7  8  1  0
  8  9  2  0
  8 10  1  0
 10 11  1  0
 11 12  1  0
 12 13  1  0
 10 14  1  0
 13 14  1  0
 14 15  1  1
 15 16  1  0
 16 17  2  0
 17 18  1  0
 18 19  2  0
 19 20  1  0
 20 21  1  0
 16 22  1  0
 20 22  2  0
  7 23  1  0
  4 24  1  0
 23 24  1  0
M  END
