piperidine-amides-33744-covalent
     RDKit          3D

 30 32  0  0  0  0  0  0  0  0999 V2000
    7.1120   -3.3050   19.2170 C   0  0  0  0  0  0  0  0  0  0  0  0
    6.3990   -4.0740   20.2510 C   0  0  0  0  0  0  0  0  0  0  0  0
    5.3100   -4.5920   19.9070 O   0  0  0  0  0  0  0  0  0  0  0  0
    6.9560   -4.2690   21.5410 N   0  0  0  0  0  0  0  0  0  0  0  0
    7.5650   -3.1550   22.1740 C   0  0  0  0  0  0  0  0  0  0  0  0
    6.9010   -2.7720   23.4040 C   0  0  0  0  0  0  0  0  0  0  0  0
    6.5610   -3.8900   24.3050 C   0  0  0  0  0  0  0  0  0  0  0  0
    5.7000   -3.4070   25.4310 C   0  0  0  0  0  0  0  0  0  0  0  0
    4.5190   -3.1060   25.1860 O   0  0  0  0  0  0  0  0  0  0  0  0
    6.1810   -3.2610   26.7460 N   0  0  0  0  0  0  0  0  0  0  0  0
    6.5120   -2.0320   27.3740 C   0  0  0  0  0  0  0  0  0  0  0  0
    6.7560   -4.4400   27.3930 C   0  0  0  0  0  0  0  0  0  0  0  0
    5.9060   -5.6070   27.9080 C   0  0  0  0  0  0  0  0  0  0  0  0
    6.6730   -6.5680   28.5150 O   0  0  0  0  0  0  0  0  0  0  0  0
    4.4690   -5.4540   27.6690 N   0  0  0  0  0  0  0  0  0  0  0  0
    3.9470   -6.7840   27.4810 C   0  0  0  0  0  0  0  0  0  0  0  0
    2.4640   -6.5670   27.1510 C   0  0  0  0  0  0  0  0  0  0  0  0
    1.8020   -5.6900   28.0620 N   0  0  0  0  0  0  0  0  0  0  0  0
    1.3680   -6.0610   29.2900 C   0  0  0  0  0  0  0  0  0  0  0  0
    0.3310   -4.9520   29.5160 C   0  0  0  0  0  0  0  0  0  0  0  0
    0.3960   -4.0150   30.6960 C   0  0  0  0  0  0  0  0  0  0  0  0
   -0.6910   -2.9740   30.7840 C   0  0  0  0  0  0  0  0  0  0  0  0
   -1.7710   -2.9200   29.7100 C   0  0  0  0  0  0  0  0  0  0  0  0
   -1.7200   -3.9080   28.5920 C   0  0  0  0  0  0  0  0  0  0  0  0
   -2.6870   -3.8940   27.5910 C   0  0  0  0  0  0  0  0  0  0  0  0
   -0.6820   -4.8400   28.5800 C   0  0  0  0  0  0  0  0  0  0  0  0
    2.4630   -4.4340   28.0270 C   0  0  0  0  0  0  0  0  0  0  0  0
    3.7760   -4.5300   28.4710 C   0  0  0  0  0  0  0  0  0  0  0  0
    5.7970   -4.9410   23.5090 C   0  0  0  0  0  0  0  0  0  0  0  0
    6.6030   -5.4280   22.3160 C   0  0  0  0  0  0  0  0  0  0  0  0
  1  2  1  0
  2  3  2  0
  2  4  1  0
  4  5  1  0
  5  6  1  0
  6  7  1  0
  7  8  1  0
  8  9  2  0
  8 10  1  0
 10 11  1  0
 10 12  1  0
 12 13  1  0
 13 14  2  0
 13 15  1  0
 15 16  1  0
 16 17  1  0
 17 18  1  0
 18 19  1  0
 19 20  1  0
 20 21  2  0
 21 22  1  0
 22 23  2  0
 23 24  1  0
 24 25  1  0
 20 26  1  0
 24 26  2  0
 18 27  1  0
 15 28  1  0
 27 28  1  0
  7 29  1  0
  4 30  1  0
 29 30  1  0
M  END
