piperidine-amides-1036-covalent
     RDKit          3D

 24 26  0  0  0  0  0  0  0  0999 V2000
    7.0510   -3.3240   19.3210 C   0  0  0  0  0  0  0  0  0  0  0  0
    6.3420   -4.1640   20.3220 C   0  0  0  0  0  0  0  0  0  0  0  0
    5.3430   -4.8110   19.9680 O   0  0  0  0  0  0  0  0  0  0  0  0
    6.8480   -4.2410   21.6380 N   0  0  0  0  0  0  0  0  0  0  0  0
    7.6660   -3.1750   22.1810 C   0  0  0  0  0  0  0  0  0  0  0  0
    7.5640   -3.2280   23.7080 C   0  0  0  0  0  0  0  0  0  0  0  0
    6.1930   -3.7060   24.0330 C   0  0  0  0  0  0  0  0  0  0  0  0
    5.6810   -3.2040   25.3320 C   0  0  0  0  0  0  0  0  0  0  0  0
    4.4710   -3.3510   25.5230 O   0  0  0  0  0  0  0  0  0  0  0  0
    6.5230   -2.5950   26.2690 N   0  0  0  0  0  0  0  0  0  0  0  0
    6.1240   -1.6480   27.2570 C   0  0  1  0  0  0  0  0  0  0  0  0
    6.8550   -1.4870   28.3970 C   0  0  0  0  0  0  0  0  0  0  0  0
    6.6780   -0.2960   29.0670 C   0  0  0  0  0  0  0  0  0  0  0  0
    5.9710    0.5460   28.1110 N   0  0  0  0  0  0  0  0  0  0  0  0
    5.3810    1.7420   28.3600 C   0  0  0  0  0  0  0  0  0  0  0  0
    5.2740    2.6690   27.4160 O   0  0  0  0  0  0  0  0  0  0  0  0
    4.8300    2.0550   29.7040 C   0  0  0  0  0  0  0  0  0  0  0  0
    3.2920    2.2350   29.7860 C   0  0  0  0  0  0  0  0  0  0  0  0
    3.1690    3.5380   30.5920 C   0  0  0  0  0  0  0  0  0  0  0  0
    4.4230    4.0170   30.8610 C   0  0  0  0  0  0  0  0  0  0  0  0
    5.4510    3.1300   30.3050 C   0  0  0  0  0  0  0  0  0  0  0  0
    5.7460   -0.2500   26.9380 C   0  0  0  0  0  0  0  0  0  0  0  0
    6.2030   -5.1590   23.8420 C   0  0  0  0  0  0  0  0  0  0  0  0
    6.6610   -5.4540   22.3970 C   0  0  0  0  0  0  0  0  0  0  0  0
  1  2  1  0
  2  3  2  0
  2  4  1  0
  4  5  1  0
  5  6  1  0
  6  7  1  0
  7  8  1  0
  8  9  2  0
  8 10  1  0
 11 10  1  6
 11 12  1  0
 12 13  1  0
 13 14  1  0
 14 15  1  0
 15 16  2  0
 15 17  1  0
 17 18  1  0
 18 19  1  0
 19 20  1  0
 17 21  1  0
 20 21  1  0
 11 22  1  0
 14 22  1  0
  7 23  1  0
  4 24  1  0
 23 24  1  0
M  END
