piperidine-amides-33554-covalent
     RDKit          3D

 30 33  0  0  0  0  0  0  0  0999 V2000
    7.1260   -3.3230   19.2470 C   0  0  0  0  0  0  0  0  0  0  0  0
    6.4260   -4.1380   20.2470 C   0  0  0  0  0  0  0  0  0  0  0  0
    5.3190   -4.6200   19.9160 O   0  0  0  0  0  0  0  0  0  0  0  0
    7.0260   -4.4290   21.4920 N   0  0  0  0  0  0  0  0  0  0  0  0
    6.5330   -5.5600   22.1730 C   0  0  0  0  0  0  0  0  0  0  0  0
    5.8600   -5.2220   23.4190 C   0  0  0  0  0  0  0  0  0  0  0  0
    6.4560   -4.1270   24.2190 C   0  0  0  0  0  0  0  0  0  0  0  0
    5.5070   -3.7730   25.3130 C   0  0  0  0  0  0  0  0  0  0  0  0
    4.6420   -2.8930   25.1250 O   0  0  0  0  0  0  0  0  0  0  0  0
    5.5680   -4.4220   26.5540 N   0  0  0  0  0  0  0  0  0  0  0  0
    6.6110   -5.2880   26.9540 C   0  0  0  0  0  0  0  0  0  0  0  0
    7.4640   -4.8040   27.9900 C   0  0  0  0  0  0  0  0  0  0  0  0
    6.9800   -3.3420   28.1140 C   0  0  0  0  0  0  0  0  0  0  0  0
    7.0310   -2.6690   26.8580 C   0  0  0  0  0  0  0  0  0  0  0  0
    8.4170   -3.2020   26.9460 C   0  0  0  0  0  0  0  0  0  0  0  0
    9.5110   -2.9520   26.0740 N   0  0  0  0  0  0  0  0  0  0  0  0
   10.4820   -3.7660   26.9240 C   0  0  0  0  0  0  0  0  0  0  0  0
   12.6200   -4.0940   26.8100 C   0  0  0  0  0  0  0  0  0  0  0  0
   13.3110   -4.4400   27.7860 C   0  0  0  0  0  0  0  0  0  0  0  0
   14.3150   -4.9290   27.7210 C   0  0  0  0  0  0  0  0  0  0  0  0
   14.8870   -5.4030   28.7090 C   0  0  0  0  0  0  0  0  0  0  0  0
   14.7850   -5.1600   26.8000 C   0  0  0  0  0  0  0  0  0  0  0  0
   14.1830   -4.7980   26.0370 C   0  0  0  0  0  0  0  0  0  0  0  0
   13.2370   -4.2980   25.9320 N   0  0  0  0  0  0  0  0  0  0  0  0
    9.7430   -4.3100   28.0010 N   0  0  0  0  0  0  0  0  0  0  0  0
    8.5250   -3.9780   28.0200 O   0  0  0  0  0  0  0  0  0  0  0  0
    5.7290   -3.2820   28.6480 C   0  0  0  0  0  0  0  0  0  0  0  0
    4.7860   -3.8720   27.6410 C   0  0  0  0  0  0  0  0  0  0  0  0
    6.8350   -2.9280   23.3920 C   0  0  0  0  0  0  0  0  0  0  0  0
    7.6500   -3.3560   22.1970 C   0  0  0  0  0  0  0  0  0  0  0  0
  1  2  1  0
  2  3  2  0
  2  4  1  0
  4  5  1  0
  5  6  1  0
  6  7  1  0
  7  8  1  0
  8  9  2  0
  8 10  1  0
 10 11  1  0
 11 12  1  0
 12 13  1  0
 13 14  1  0
 14 15  1  0
 15 16  2  0
 16 17  1  0
 17 18  1  0
 18 19  2  0
 19 20  1  0
 20 21  1  0
 20 22  2  0
 22 23  1  0
 18 24  1  0
 23 24  2  0
 17 25  2  0
 15 26  1  0
 25 26  1  0
 13 27  1  0
 10 28  1  0
 27 28  1  0
  7 29  1  0
  4 30  1  0
 29 30  1  0
M  END
