piperidine-amides-9318-covalent
     RDKit          3D

 19 20  0  0  0  0  0  0  0  0999 V2000
    7.1030   -3.2840   19.2170 C   0  0  0  0  0  0  0  0  0  0  0  0
    6.3580   -4.0200   20.2390 C   0  0  0  0  0  0  0  0  0  0  0  0
    5.3170   -4.6200   19.9150 O   0  0  0  0  0  0  0  0  0  0  0  0
    6.8280   -4.0990   21.5590 N   0  0  0  0  0  0  0  0  0  0  0  0
    7.7910   -3.1360   22.0730 C   0  0  0  0  0  0  0  0  0  0  0  0
    7.4780   -2.9620   23.5230 C   0  0  0  0  0  0  0  0  0  0  0  0
    6.1170   -3.4890   23.8310 C   0  0  0  0  0  0  0  0  0  0  0  0
    5.6650   -3.1510   25.1870 C   0  0  0  0  0  0  0  0  0  0  0  0
    4.4270   -3.1210   25.4670 O   0  0  0  0  0  0  0  0  0  0  0  0
    6.5550   -2.8430   26.2280 N   0  0  0  0  0  0  0  0  0  0  0  0
    6.1610   -3.1030   27.6170 C   0  0  0  0  0  0  0  0  0  0  0  0
    5.7430   -4.5130   27.7330 C   0  0  0  0  0  0  0  0  0  0  0  0
    4.9330   -5.3020   26.8030 C   0  0  0  0  0  0  0  0  0  0  0  0
    4.6930   -6.9040   27.3710 S   0  0  0  0  0  0  0  0  0  0  0  0
    5.6130   -6.6840   28.8450 C   0  0  0  0  0  0  0  0  0  0  0  0
    5.8080   -7.7590   29.8800 C   0  0  0  0  0  0  0  0  0  0  0  0
    6.1930   -5.2530   28.9600 C   0  0  0  0  0  0  0  0  0  0  0  0
    6.1100   -4.9810   23.5770 C   0  0  0  0  0  0  0  0  0  0  0  0
    6.5800   -5.3180   22.3020 C   0  0  0  0  0  0  0  0  0  0  0  0
  1  2  1  0
  2  3  2  0
  2  4  1  0
  4  5  1  0
  5  6  1  0
  6  7  1  0
  7  8  1  0
  8  9  2  0
  8 10  1  0
 10 11  1  0
 11 12  1  0
 12 13  2  0
 13 14  1  0
 14 15  1  0
 15 16  1  0
 12 17  1  0
 15 17  2  0
  7 18  1  0
  4 19  1  0
 18 19  1  0
M  END
