piperidine-amides-1408-covalent
     RDKit          3D

 22 24  0  0  0  0  0  0  0  0999 V2000
    7.0830   -3.3440   19.3220 C   0  0  0  0  0  0  0  0  0  0  0  0
    6.3990   -4.2150   20.3120 C   0  0  0  0  0  0  0  0  0  0  0  0
    5.3630   -4.8120   19.9750 O   0  0  0  0  0  0  0  0  0  0  0  0
    6.9800   -4.3840   21.5880 N   0  0  0  0  0  0  0  0  0  0  0  0
    7.6840   -3.3190   22.2420 C   0  0  0  0  0  0  0  0  0  0  0  0
    6.7280   -2.7790   23.3020 C   0  0  0  0  0  0  0  0  0  0  0  0
    6.3660   -3.9040   24.2270 C   0  0  0  0  0  0  0  0  0  0  0  0
    5.6530   -3.3790   25.4100 C   0  0  0  0  0  0  0  0  0  0  0  0
    4.4370   -3.2100   25.2750 O   0  0  0  0  0  0  0  0  0  0  0  0
    6.3200   -3.0860   26.6000 N   0  0  0  0  0  0  0  0  0  0  0  0
    6.0510   -1.9750   27.4360 C   0  0  0  0  0  0  0  0  0  0  0  0
    5.2480   -2.1420   28.5430 C   0  0  0  0  0  0  0  0  0  0  0  0
    5.5530   -1.3340   29.6530 C   0  0  0  0  0  0  0  0  0  0  0  0
    4.5240   -0.7440   30.3730 C   0  0  0  0  0  0  0  0  0  0  0  0
    4.8400    0.1130   31.5460 C   0  0  0  0  0  0  0  0  0  0  0  0
    6.2720    0.3650   31.9820 C   0  0  0  0  0  0  0  0  0  0  0  0
    7.2740   -0.3490   31.0920 C   0  0  0  0  0  0  0  0  0  0  0  0
    6.8750   -1.1300   30.0200 C   0  0  0  0  0  0  0  0  0  0  0  0
    5.9780   -0.6470   26.7970 C   0  0  0  0  0  0  0  0  0  0  0  0
    7.0180   -0.9550   27.8450 C   0  0  0  0  0  0  0  0  0  0  0  0
    5.6220   -4.9260   23.4630 C   0  0  0  0  0  0  0  0  0  0  0  0
    6.5880   -5.4920   22.4060 C   0  0  0  0  0  0  0  0  0  0  0  0
  1  2  1  0
  2  3  2  0
  2  4  1  0
  4  5  1  0
  5  6  1  0
  6  7  1  0
  7  8  1  0
  8  9  2  0
  8 10  1  0
 11 10  1  0
 11 12  1  0
 12 13  1  0
 13 14  2  0
 14 15  1  0
 15 16  2  0
 16 17  1  0
 13 18  1  0
 17 18  2  0
 11 19  1  0
 11 20  1  0
 19 20  1  0
  7 21  1  0
  4 22  1  0
 21 22  1  0
M  END
