piperidine-amides-3502-covalent
     RDKit          3D

 20 21  0  0  0  0  0  0  0  0999 V2000
    7.0880   -3.2800   19.2720 C   0  0  0  0  0  0  0  0  0  0  0  0
    6.3450   -4.0620   20.2560 C   0  0  0  0  0  0  0  0  0  0  0  0
    5.3250   -4.6660   19.9250 O   0  0  0  0  0  0  0  0  0  0  0  0
    6.8180   -4.1720   21.6080 N   0  0  0  0  0  0  0  0  0  0  0  0
    7.6970   -3.1590   22.1390 C   0  0  0  0  0  0  0  0  0  0  0  0
    7.3880   -2.9340   23.5850 C   0  0  0  0  0  0  0  0  0  0  0  0
    6.0750   -3.6390   23.8580 C   0  0  0  0  0  0  0  0  0  0  0  0
    5.5940   -3.3360   25.2320 C   0  0  0  0  0  0  0  0  0  0  0  0
    4.3860   -3.2000   25.5060 O   0  0  0  0  0  0  0  0  0  0  0  0
    6.5570   -3.1930   26.2500 N   0  0  0  0  0  0  0  0  0  0  0  0
    6.1330   -3.0690   27.6240 C   0  0  0  0  0  0  0  0  0  0  0  0
    6.3390   -4.3580   28.3910 C   0  0  0  0  0  0  0  0  0  0  0  0
    5.8920   -5.5750   27.9140 C   0  0  0  0  0  0  0  0  0  0  0  0
    5.0500   -6.3680   28.6830 C   0  0  0  0  0  0  0  0  0  0  0  0
    3.7640   -6.7480   28.4160 C   0  0  0  0  0  0  0  0  0  0  0  0
    3.1960   -7.5640   29.4460 C   0  0  0  0  0  0  0  0  0  0  0  0
    3.9100   -7.8960   30.5600 C   0  0  0  0  0  0  0  0  0  0  0  0
    5.4060   -7.1260   30.2740 S   0  0  0  0  0  0  0  0  0  0  0  0
    6.3200   -5.1340   23.6870 C   0  0  0  0  0  0  0  0  0  0  0  0
    6.4460   -5.3880   22.3140 C   0  0  0  0  0  0  0  0  0  0  0  0
  1  2  1  0
  2  3  2  0
  2  4  1  0
  4  5  1  0
  5  6  1  0
  6  7  1  0
  7  8  1  0
  8  9  2  0
  8 10  1  0
 10 11  1  0
 11 12  1  0
 12 13  1  0
 13 14  1  0
 14 15  2  0
 15 16  1  0
 16 17  2  0
 14 18  1  0
 17 18  1  0
  7 19  1  0
  4 20  1  0
 19 20  1  0
M  END
