piperidine-amides-27070-covalent
     RDKit          3D

 26 29  0  0  0  0  0  0  0  0999 V2000
    7.0570   -3.3400   19.3300 C   0  0  0  0  0  0  0  0  0  0  0  0
    6.3810   -4.1740   20.3270 C   0  0  0  0  0  0  0  0  0  0  0  0
    5.3310   -4.7550   19.9530 O   0  0  0  0  0  0  0  0  0  0  0  0
    6.9250   -4.3410   21.6030 N   0  0  0  0  0  0  0  0  0  0  0  0
    6.6540   -5.5280   22.3690 C   0  0  0  0  0  0  0  0  0  0  0  0
    5.8250   -5.1270   23.5560 C   0  0  0  0  0  0  0  0  0  0  0  0
    6.4550   -4.0160   24.3610 C   0  0  0  0  0  0  0  0  0  0  0  0
    5.5390   -3.5940   25.4570 C   0  0  0  0  0  0  0  0  0  0  0  0
    4.6920   -2.7090   25.2340 O   0  0  0  0  0  0  0  0  0  0  0  0
    5.6310   -4.1760   26.7310 N   0  0  0  0  0  0  0  0  0  0  0  0
    6.9420   -4.4230   27.1150 C   0  0  0  0  0  0  0  0  0  0  0  0
    7.0620   -5.4380   28.2070 C   0  0  0  0  0  0  0  0  0  0  0  0
    5.9630   -5.6150   28.9610 C   0  0  0  0  0  0  0  0  0  0  0  0
    5.6650   -6.4670   29.9310 N   0  0  0  0  0  0  0  0  0  0  0  0
    4.3990   -6.2430   30.3790 C   0  0  0  0  0  0  0  0  0  0  0  0
    3.8170   -5.1900   29.6810 N   0  0  0  0  0  0  0  0  0  0  0  0
    4.8810   -4.8510   28.7940 C   0  0  0  0  0  0  0  0  0  0  0  0
    4.7810   -3.8270   27.8440 C   0  0  2  0  0  0  0  0  0  0  0  0
    3.4770   -3.5640   27.4520 C   0  0  0  0  0  0  0  0  0  0  0  0
    2.9260   -2.1310   27.5580 C   0  0  0  0  0  0  0  0  0  0  0  0
    1.4720   -1.9970   27.0940 C   0  0  0  0  0  0  0  0  0  0  0  0
    0.6940   -3.1670   26.5950 C   0  0  0  0  0  0  0  0  0  0  0  0
    1.3630   -4.5070   26.5490 C   0  0  0  0  0  0  0  0  0  0  0  0
    2.6760   -4.6140   26.9690 C   0  0  0  0  0  0  0  0  0  0  0  0
    6.7470   -2.8400   23.4440 C   0  0  0  0  0  0  0  0  0  0  0  0
    7.6400   -3.2870   22.2960 C   0  0  0  0  0  0  0  0  0  0  0  0
  1  2  1  0
  2  3  2  0
  2  4  1  0
  4  5  1  0
  5  6  1  0
  6  7  1  0
  7  8  1  0
  8  9  2  0
  8 10  1  0
 10 11  1  0
 11 12  1  0
 12 13  1  0
 13 14  1  0
 14 15  1  0
 15 16  2  0
 13 17  2  0
 16 17  1  0
 10 18  1  0
 17 18  1  0
 18 19  1  6
 19 20  2  0
 20 21  1  0
 21 22  2  0
 22 23  1  0
 19 24  1  0
 23 24  2  0
  7 25  1  0
  4 26  1  0
 25 26  1  0
M  END
