piperidine-amides-31187-covalent
     RDKit          3D

 27 28  0  0  0  0  0  0  0  0999 V2000
    7.0640   -3.3670   19.3650 C   0  0  0  0  0  0  0  0  0  0  0  0
    6.4050   -4.2310   20.3410 C   0  0  0  0  0  0  0  0  0  0  0  0
    5.3840   -4.8510   19.9870 O   0  0  0  0  0  0  0  0  0  0  0  0
    6.9260   -4.4210   21.6350 N   0  0  0  0  0  0  0  0  0  0  0  0
    7.6800   -3.3920   22.3140 C   0  0  0  0  0  0  0  0  0  0  0  0
    6.7800   -2.8860   23.4190 C   0  0  0  0  0  0  0  0  0  0  0  0
    6.2330   -3.9690   24.3240 C   0  0  0  0  0  0  0  0  0  0  0  0
    5.3480   -3.4030   25.3910 C   0  0  0  0  0  0  0  0  0  0  0  0
    4.4850   -2.5420   25.0690 O   0  0  0  0  0  0  0  0  0  0  0  0
    5.3780   -3.7430   26.7780 N   0  0  0  0  0  0  0  0  0  0  0  0
    6.5160   -3.3520   27.5460 C   0  0  0  0  0  0  0  0  0  0  0  0
    6.8590   -4.5180   28.4010 C   0  0  0  0  0  0  0  0  0  0  0  0
    5.8690   -4.8580   29.3840 C   0  0  0  0  0  0  0  0  0  0  0  0
    4.9770   -5.4720   28.8030 O   0  0  0  0  0  0  0  0  0  0  0  0
    3.8590   -4.7060   28.5090 C   0  0  1  0  0  0  0  0  0  0  0  0
    3.2370   -4.0880   29.7500 C   0  0  0  0  0  0  0  0  0  0  0  0
    2.7200   -5.1930   30.5590 N   0  0  0  0  0  0  0  0  0  0  0  0
    2.1300   -4.5930   31.7390 C   0  0  0  0  0  0  0  0  0  0  0  0
    0.9980   -4.0700   31.8430 O   0  0  0  0  0  0  0  0  0  0  0  0
    3.0140   -4.6680   32.7820 O   0  0  0  0  0  0  0  0  0  0  0  0
    2.4310   -5.4400   33.7560 C   0  0  0  0  0  0  0  0  0  0  0  0
    3.2670   -6.1850   34.5950 C   0  0  0  0  0  0  0  0  0  0  0  0
    2.7760   -4.8340   35.1290 C   0  0  0  0  0  0  0  0  0  0  0  0
    1.3300   -4.6620   34.5590 C   0  0  0  0  0  0  0  0  0  0  0  0
    4.1380   -3.6150   27.5040 C   0  0  0  0  0  0  0  0  0  0  0  0
    5.5630   -5.0460   23.5200 C   0  0  0  0  0  0  0  0  0  0  0  0
    6.3820   -5.5010   22.3730 C   0  0  0  0  0  0  0  0  0  0  0  0
  1  2  1  0
  2  3  2  0
  2  4  1  0
  4  5  1  0
  5  6  1  0
  6  7  1  0
  7  8  1  0
  8  9  2  0
  8 10  1  0
 10 11  1  0
 11 12  1  0
 12 13  1  0
 13 14  1  0
 14 15  1  0
 15 16  1  1
 16 17  1  0
 17 18  1  0
 18 19  2  0
 18 20  1  0
 21 20  1  0
 21 22  1  0
 21 23  1  0
 21 24  1  0
 10 25  1  0
 15 25  1  0
  7 26  1  0
  4 27  1  0
 26 27  1  0
M  END
