piperidine-amides-33802-covalent
     RDKit          3D

 30 32  0  0  0  0  0  0  0  0999 V2000
    7.0330   -3.3640   19.4060 C   0  0  0  0  0  0  0  0  0  0  0  0
    6.3550   -4.2380   20.3780 C   0  0  0  0  0  0  0  0  0  0  0  0
    5.3310   -4.8290   19.9710 O   0  0  0  0  0  0  0  0  0  0  0  0
    6.8470   -4.4500   21.6920 N   0  0  0  0  0  0  0  0  0  0  0  0
    6.6700   -5.7360   22.2760 C   0  0  0  0  0  0  0  0  0  0  0  0
    6.3140   -5.6690   23.6860 C   0  0  0  0  0  0  0  0  0  0  0  0
    6.2230   -4.2880   24.1710 C   0  0  0  0  0  0  0  0  0  0  0  0
    5.7060   -4.1320   25.5850 C   0  0  0  0  0  0  0  0  0  0  0  0
    4.4930   -3.8440   25.6510 O   0  0  0  0  0  0  0  0  0  0  0  0
    6.3800   -4.2010   26.8540 N   0  0  0  0  0  0  0  0  0  0  0  0
    5.9440   -3.3750   27.8890 C   0  0  0  0  0  0  0  0  0  0  0  0
    6.1740   -3.8060   29.2280 C   0  0  0  0  0  0  0  0  0  0  0  0
    5.0810   -4.7750   29.6900 C   0  0  0  0  0  0  0  0  0  0  0  0
    4.0120   -4.5210   30.5340 C   0  0  0  0  0  0  0  0  0  0  0  0
    3.0740   -5.7670   30.8170 C   0  0  0  0  0  0  0  0  0  0  0  0
    3.3460   -7.1470   30.1900 C   0  0  0  0  0  0  0  0  0  0  0  0
    4.5750   -7.1660   29.2980 C   0  0  0  0  0  0  0  0  0  0  0  0
    5.4410   -6.0250   29.0350 C   0  0  0  0  0  0  0  0  0  0  0  0
    6.5820   -6.3410   28.0830 C   0  0  2  0  0  0  0  0  0  0  0  0
    7.4990   -7.4100   28.4250 N   0  0  0  0  0  0  0  0  0  0  0  0
    7.2860   -8.7610   29.1070 C   0  0  0  0  0  0  0  0  0  0  0  0
    6.1570   -9.2130   29.3510 O   0  0  0  0  0  0  0  0  0  0  0  0
    8.2440   -9.7030   29.6610 O   0  0  0  0  0  0  0  0  0  0  0  0
    9.3080  -10.8670   29.4050 C   0  0  0  0  0  0  0  0  0  0  0  0
   10.4040  -11.3450   30.1320 C   0  0  0  0  0  0  0  0  0  0  0  0
    9.7120  -11.1630   28.2460 C   0  0  0  0  0  0  0  0  0  0  0  0
    8.6780  -11.9600   29.7110 C   0  0  0  0  0  0  0  0  0  0  0  0
    7.2820   -5.2930   27.3830 C   0  0  0  0  0  0  0  0  0  0  0  0
    7.5230   -3.6060   23.8550 C   0  0  0  0  0  0  0  0  0  0  0  0
    7.6900   -3.4730   22.3440 C   0  0  0  0  0  0  0  0  0  0  0  0
  1  2  1  0
  2  3  2  0
  2  4  1  0
  4  5  1  0
  5  6  1  0
  6  7  1  0
  7  8  1  0
  8  9  2  0
  8 10  1  0
 10 11  1  0
 11 12  1  0
 12 13  1  0
 13 14  1  0
 14 15  2  0
 15 16  1  0
 16 17  2  0
 13 18  2  0
 17 18  1  0
 18 19  1  0
 19 20  1  1
 20 21  1  0
 21 22  2  0
 21 23  1  0
 24 23  1  0
 24 25  1  0
 24 26  1  0
 24 27  1  0
 10 28  1  0
 19 28  1  0
  7 29  1  0
  4 30  1  0
 29 30  1  0
M  END
