piperidine-amides-25991-covalent
     RDKit          3D

 25 26  0  0  0  0  0  0  0  0999 V2000
    7.0850   -3.2650   19.2310 C   0  0  0  0  0  0  0  0  0  0  0  0
    6.3100   -4.0260   20.2190 C   0  0  0  0  0  0  0  0  0  0  0  0
    5.2420   -4.5520   19.8720 O   0  0  0  0  0  0  0  0  0  0  0  0
    6.7540   -4.2290   21.5300 N   0  0  0  0  0  0  0  0  0  0  0  0
    6.4520   -5.4500   22.2390 C   0  0  0  0  0  0  0  0  0  0  0  0
    5.7490   -5.0200   23.5010 C   0  0  0  0  0  0  0  0  0  0  0  0
    6.6070   -4.0650   24.2680 C   0  0  0  0  0  0  0  0  0  0  0  0
    5.8940   -3.4290   25.4090 C   0  0  0  0  0  0  0  0  0  0  0  0
    4.6730   -3.6710   25.6420 O   0  0  0  0  0  0  0  0  0  0  0  0
    6.5530   -2.5020   26.2470 N   0  0  0  0  0  0  0  0  0  0  0  0
    7.0200   -1.2680   25.6310 C   0  0  0  0  0  0  0  0  0  0  0  0
    6.3110   -2.3460   27.6880 C   0  0  0  0  0  0  0  0  0  0  0  0
    5.5710   -3.4180   28.3360 C   0  0  0  0  0  0  0  0  0  0  0  0
    4.0690   -3.3580   28.2500 C   0  0  0  0  0  0  0  0  0  0  0  0
    3.3140   -4.4790   28.9380 C   0  0  0  0  0  0  0  0  0  0  0  0
    4.2020   -5.4730   29.5940 C   0  0  0  0  0  0  0  0  0  0  0  0
    3.6060   -6.5650   30.2490 N   0  0  0  0  0  0  0  0  0  0  0  0
    3.8480   -7.6270   29.4770 C   0  0  0  0  0  0  0  0  0  0  0  0
    5.1990   -7.7840   29.1160 C   0  0  0  0  0  0  0  0  0  0  0  0
    3.6930   -6.6720   31.5950 C   0  0  0  0  0  0  0  0  0  0  0  0
    5.0580   -7.0690   32.1830 C   0  0  0  0  0  0  0  0  0  0  0  0
    5.6720   -5.3280   29.5510 C   0  0  0  0  0  0  0  0  0  0  0  0
    6.2030   -4.4410   29.0070 C   0  0  0  0  0  0  0  0  0  0  0  0
    7.2220   -2.9790   23.4760 C   0  0  0  0  0  0  0  0  0  0  0  0
    7.5930   -3.2750   22.1860 C   0  0  0  0  0  0  0  0  0  0  0  0
  1  2  1  0
  2  3  2  0
  2  4  1  0
  4  5  1  0
  5  6  1  0
  6  7  1  0
  7  8  1  0
  8  9  2  0
  8 10  1  0
 10 11  1  0
 10 12  1  0
 12 13  1  0
 13 14  2  0
 14 15  1  0
 15 16  2  0
 16 17  1  0
 17 18  1  0
 18 19  1  0
 17 20  1  0
 20 21  1  0
 16 22  1  0
 13 23  1  0
 22 23  2  0
  7 24  1  0
  4 25  1  0
 24 25  1  0
M  END
