piperidine-amides-28873-covalent
     RDKit          3D

 25 27  0  0  0  0  0  0  0  0999 V2000
    7.0610   -3.3490   19.3410 C   0  0  0  0  0  0  0  0  0  0  0  0
    6.4130   -4.2140   20.3190 C   0  0  0  0  0  0  0  0  0  0  0  0
    5.3770   -4.8170   19.9760 O   0  0  0  0  0  0  0  0  0  0  0  0
    6.9990   -4.3930   21.5990 N   0  0  0  0  0  0  0  0  0  0  0  0
    6.6530   -5.5600   22.3470 C   0  0  0  0  0  0  0  0  0  0  0  0
    5.7470   -5.1680   23.4780 C   0  0  0  0  0  0  0  0  0  0  0  0
    6.4340   -4.0850   24.2870 C   0  0  0  0  0  0  0  0  0  0  0  0
    5.4980   -3.6280   25.3690 C   0  0  0  0  0  0  0  0  0  0  0  0
    4.6880   -2.7590   25.0600 O   0  0  0  0  0  0  0  0  0  0  0  0
    5.6110   -4.2110   26.6230 N   0  0  0  0  0  0  0  0  0  0  0  0
    6.8800   -4.3550   27.1180 C   0  0  0  0  0  0  0  0  0  0  0  0
    7.0370   -5.2080   28.1970 C   0  0  0  0  0  0  0  0  0  0  0  0
    6.0980   -4.9620   29.1380 C   0  0  0  0  0  0  0  0  0  0  0  0
    4.8050   -4.7450   28.6970 C   0  0  1  0  0  0  0  0  0  0  0  0
    4.3170   -6.0170   28.4290 O   0  0  0  0  0  0  0  0  0  0  0  0
    4.2200   -4.1820   29.9510 C   0  0  0  0  0  0  0  0  0  0  0  0
    4.2900   -2.6550   30.1990 C   0  0  0  0  0  0  0  0  0  0  0  0
    3.7220   -2.0420   31.4360 C   0  0  0  0  0  0  0  0  0  0  0  0
    3.0750   -2.9680   32.4380 C   0  0  0  0  0  0  0  0  0  0  0  0
    2.3630   -2.3920   33.9340 Cl  0  0  0  0  0  0  0  0  0  0  0  0
    3.0600   -4.4750   32.0920 C   0  0  0  0  0  0  0  0  0  0  0  0
    3.5680   -5.0730   30.9740 C   0  0  0  0  0  0  0  0  0  0  0  0
    4.6780   -3.8480   27.6480 C   0  0  0  0  0  0  0  0  0  0  0  0
    6.8200   -2.9080   23.4570 C   0  0  0  0  0  0  0  0  0  0  0  0
    7.6470   -3.3000   22.2720 C   0  0  0  0  0  0  0  0  0  0  0  0
  1  2  1  0
  2  3  2  0
  2  4  1  0
  4  5  1  0
  5  6  1  0
  6  7  1  0
  7  8  1  0
  8  9  2  0
  8 10  1  0
 10 11  1  0
 11 12  1  0
 12 13  1  0
 13 14  1  0
 14 15  1  6
 14 16  1  0
 16 17  2  0
 17 18  1  0
 18 19  2  0
 19 20  1  0
 19 21  1  0
 16 22  1  0
 21 22  2  0
 10 23  1  0
 14 23  1  0
  7 24  1  0
  4 25  1  0
 24 25  1  0
M  END
