piperidine-amides-19725-covalent
     RDKit          3D

 22 23  0  0  0  0  0  0  0  0999 V2000
    7.1160   -3.2580   19.2090 C   0  0  0  0  0  0  0  0  0  0  0  0
    6.3730   -4.0370   20.2330 C   0  0  0  0  0  0  0  0  0  0  0  0
    5.3170   -4.5630   19.8880 O   0  0  0  0  0  0  0  0  0  0  0  0
    6.9070   -4.1800   21.5150 N   0  0  0  0  0  0  0  0  0  0  0  0
    7.6420   -3.1150   22.1400 C   0  0  0  0  0  0  0  0  0  0  0  0
    6.8170   -2.5270   23.2510 C   0  0  0  0  0  0  0  0  0  0  0  0
    6.3030   -3.6520   24.1520 C   0  0  0  0  0  0  0  0  0  0  0  0
    5.4790   -3.0440   25.2380 C   0  0  0  0  0  0  0  0  0  0  0  0
    4.2670   -2.8760   25.0540 O   0  0  0  0  0  0  0  0  0  0  0  0
    6.0440   -2.6670   26.4810 N   0  0  0  0  0  0  0  0  0  0  0  0
    7.0370   -1.6230   26.4510 C   0  0  0  0  0  0  0  0  0  0  0  0
    6.1130   -3.6350   27.5280 C   0  0  1  0  0  0  0  0  0  0  0  0
    5.9740   -4.9830   27.2610 C   0  0  0  0  0  0  0  0  0  0  0  0
    7.2220   -4.4330   27.3030 C   0  0  0  0  0  0  0  0  0  0  0  0
    8.1610   -4.8400   28.1210 C   0  0  0  0  0  0  0  0  0  0  0  0
    9.3340   -5.6750   27.8340 C   0  0  0  0  0  0  0  0  0  0  0  0
    9.3710   -6.0510   26.3930 C   0  0  0  0  0  0  0  0  0  0  0  0
    8.3070   -5.6030   25.4380 C   0  0  0  0  0  0  0  0  0  0  0  0
    7.2310   -4.7740   25.9870 C   0  0  0  0  0  0  0  0  0  0  0  0
    6.2280   -4.3360   25.1770 F   0  0  0  0  0  0  0  0  0  0  0  0
    5.5700   -4.7240   23.3790 C   0  0  0  0  0  0  0  0  0  0  0  0
    6.4910   -5.3010   22.3180 C   0  0  0  0  0  0  0  0  0  0  0  0
  1  2  1  0
  2  3  2  0
  2  4  1  0
  4  5  1  0
  5  6  1  0
  6  7  1  0
  7  8  1  0
  8  9  2  0
  8 10  1  0
 10 11  1  0
 10 12  1  0
 12 13  1  6
 12 14  1  0
 14 15  2  0
 15 16  1  0
 16 17  2  0
 17 18  1  0
 14 19  1  0
 18 19  2  0
 19 20  1  0
  7 21  1  0
  4 22  1  0
 21 22  1  0
M  END
