piperidine-amides-31830-covalent
     RDKit          3D

 28 30  0  0  0  0  0  0  0  0999 V2000
    7.0560   -3.3720   19.4830 C   0  0  0  0  0  0  0  0  0  0  0  0
    6.3800   -4.2300   20.4420 C   0  0  0  0  0  0  0  0  0  0  0  0
    5.4520   -4.9930   20.0090 O   0  0  0  0  0  0  0  0  0  0  0  0
    6.7380   -4.2490   21.8150 N   0  0  0  0  0  0  0  0  0  0  0  0
    6.6270   -5.5590   22.5250 C   0  0  0  0  0  0  0  0  0  0  0  0
    5.9480   -5.1710   23.9140 C   0  0  0  0  0  0  0  0  0  0  0  0
    6.3710   -3.7490   24.1710 C   0  0  0  0  0  0  0  0  0  0  0  0
    5.9780   -3.0870   25.5930 C   0  0  0  0  0  0  0  0  0  0  0  0
    6.1660   -1.8900   25.5150 O   0  0  0  0  0  0  0  0  0  0  0  0
    5.5360   -3.9040   26.4760 N   0  0  0  0  0  0  0  0  0  0  0  0
    4.7460   -4.7590   27.1280 C   0  0  0  0  0  0  0  0  0  0  0  0
    4.3820   -4.8650   28.4420 C   0  0  0  0  0  0  0  0  0  0  0  0
    5.6070   -5.1750   29.1560 N   0  0  0  0  0  0  0  0  0  0  0  0
    5.9210   -6.4530   29.4450 C   0  0  0  0  0  0  0  0  0  0  0  0
    5.1310   -6.7190   30.6740 C   0  0  0  0  0  0  0  0  0  0  0  0
    5.8640   -6.7870   31.8710 O   0  0  0  0  0  0  0  0  0  0  0  0
    3.8200   -6.8580   30.4410 N   0  0  0  0  0  0  0  0  0  0  0  0
    3.1000   -7.6920   31.1250 C   0  0  0  0  0  0  0  0  0  0  0  0
    1.9690   -8.3240   30.5480 C   0  0  0  0  0  0  0  0  0  0  0  0
    0.9660   -9.2780   31.0050 C   0  0  0  0  0  0  0  0  0  0  0  0
    1.4640   -9.4910   32.4790 C   0  0  0  0  0  0  0  0  0  0  0  0
    0.7190  -10.3530   33.2000 F   0  0  0  0  0  0  0  0  0  0  0  0
    2.6920   -8.8200   33.1410 C   0  0  0  0  0  0  0  0  0  0  0  0
    3.4160   -7.9800   32.4310 C   0  0  0  0  0  0  0  0  0  0  0  0
    6.6790   -4.6410   28.3790 C   0  0  0  0  0  0  0  0  0  0  0  0
    6.2790   -3.5220   27.6750 C   0  0  0  0  0  0  0  0  0  0  0  0
    7.7330   -3.3870   23.6940 C   0  0  0  0  0  0  0  0  0  0  0  0
    7.6560   -3.2530   22.3160 C   0  0  0  0  0  0  0  0  0  0  0  0
  1  2  1  0
  2  3  2  0
  2  4  1  0
  4  5  1  0
  5  6  1  0
  6  7  1  0
  7  8  1  0
  8  9  2  0
  8 10  1  0
 10 11  1  0
 11 12  1  0
 12 13  1  0
 13 14  1  0
 14 15  1  0
 15 16  2  0
 15 17  1  0
 17 18  1  0
 18 19  2  0
 19 20  1  0
 20 21  2  0
 21 22  1  0
 21 23  1  0
 18 24  1  0
 23 24  2  0
 13 25  1  0
 10 26  1  0
 25 26  1  0
  7 27  1  0
  4 28  1  0
 27 28  1  0
M  END
