piperidine-amides-13385-covalent
     RDKit          3D

 23 24  0  0  0  0  0  0  0  0999 V2000
    7.0660   -3.3320   19.3160 C   0  0  0  0  0  0  0  0  0  0  0  0
    6.4020   -4.1800   20.3290 C   0  0  0  0  0  0  0  0  0  0  0  0
    5.3680   -4.7750   19.9640 O   0  0  0  0  0  0  0  0  0  0  0  0
    6.9480   -4.3470   21.6150 N   0  0  0  0  0  0  0  0  0  0  0  0
    7.7200   -3.3050   22.2140 C   0  0  0  0  0  0  0  0  0  0  0  0
    7.4530   -3.1690   23.6390 C   0  0  0  0  0  0  0  0  0  0  0  0
    6.1160   -3.6640   23.9910 C   0  0  0  0  0  0  0  0  0  0  0  0
    5.7550   -3.3650   25.4010 C   0  0  0  0  0  0  0  0  0  0  0  0
    4.6480   -3.7650   25.8030 O   0  0  0  0  0  0  0  0  0  0  0  0
    6.6040   -2.6450   26.2620 N   0  0  0  0  0  0  0  0  0  0  0  0
    6.0730   -1.5820   27.1470 C   0  0  1  0  0  0  0  0  0  0  0  0
    6.8190   -1.5070   28.4310 C   0  0  0  0  0  0  0  0  0  0  0  0
    6.5970   -0.3220   29.2320 C   0  0  0  0  0  0  0  0  0  0  0  0
    6.1320    0.8080   28.5800 C   0  0  0  0  0  0  0  0  0  0  0  0
    5.4980    0.6860   27.3460 C   0  0  0  0  0  0  0  0  0  0  0  0
    5.9450   -0.2950   26.5120 C   0  0  2  0  0  0  0  0  0  0  0  0
    5.2140   -0.2670   25.3080 O   0  0  0  0  0  0  0  0  0  0  0  0
    5.8680    0.0740   24.1080 C   0  0  0  0  0  0  0  0  0  0  0  0
    6.3320    1.3580   24.0550 C   0  0  0  0  0  0  0  0  0  0  0  0
    5.3130   -0.1730   22.8630 C   0  0  0  0  0  0  0  0  0  0  0  0
    7.3080   -0.4020   24.0090 C   0  0  0  0  0  0  0  0  0  0  0  0
    5.9230   -5.1090   23.6870 C   0  0  0  0  0  0  0  0  0  0  0  0
    6.6460   -5.5140   22.4200 C   0  0  0  0  0  0  0  0  0  0  0  0
  1  2  1  0
  2  3  2  0
  2  4  1  0
  4  5  1  0
  5  6  1  0
  6  7  1  0
  7  8  1  0
  8  9  2  0
  8 10  1  0
 11 10  1  6
 11 12  1  0
 12 13  1  0
 13 14  1  0
 14 15  1  0
 11 16  1  0
 15 16  1  0
 16 17  1  6
 18 17  1  0
 18 19  1  0
 18 20  1  0
 18 21  1  0
  7 22  1  0
  4 23  1  0
 22 23  1  0
M  END
