piperidine-amides-35185-covalent
     RDKit          3D

 33 35  0  0  0  0  0  0  0  0999 V2000
    7.0350   -3.3450   19.3290 C   0  0  0  0  0  0  0  0  0  0  0  0
    6.3910   -4.2090   20.3530 C   0  0  0  0  0  0  0  0  0  0  0  0
    5.4060   -4.8540   19.9870 O   0  0  0  0  0  0  0  0  0  0  0  0
    6.9200   -4.3020   21.6500 N   0  0  0  0  0  0  0  0  0  0  0  0
    6.7000   -5.4890   22.4480 C   0  0  0  0  0  0  0  0  0  0  0  0
    6.1240   -5.1380   23.8040 C   0  0  0  0  0  0  0  0  0  0  0  0
    6.1220   -3.6170   23.9830 C   0  0  0  0  0  0  0  0  0  0  0  0
    5.6350   -3.2560   25.3370 C   0  0  0  0  0  0  0  0  0  0  0  0
    4.6970   -2.4600   25.4230 O   0  0  0  0  0  0  0  0  0  0  0  0
    6.1790   -3.7880   26.5140 N   0  0  0  0  0  0  0  0  0  0  0  0
    5.9090   -5.1690   26.7800 C   0  0  0  0  0  0  0  0  0  0  0  0
    6.1200   -5.3470   28.2520 C   0  0  0  0  0  0  0  0  0  0  0  0
    5.4210   -4.5580   29.0980 C   0  0  0  0  0  0  0  0  0  0  0  0
    4.1410   -4.9530   29.4120 C   0  0  1  0  0  0  0  0  0  0  0  0
    4.1020   -5.1450   30.7540 C   0  0  0  0  0  0  0  0  0  0  0  0
    3.5380   -6.2890   30.8980 N   0  0  0  0  0  0  0  0  0  0  0  0
    4.5970   -7.2750   31.1320 C   0  0  0  0  0  0  0  0  0  0  0  0
    4.5550   -8.2770   30.2190 O   0  0  0  0  0  0  0  0  0  0  0  0
    5.5940   -7.2600   32.1240 O   0  0  0  0  0  0  0  0  0  0  0  0
    5.3190   -7.6880   33.4470 C   0  0  0  0  0  0  0  0  0  0  0  0
    5.8650   -9.0800   33.6460 C   0  0  0  0  0  0  0  0  0  0  0  0
    6.1050   -7.0190   34.5540 C   0  0  0  0  0  0  0  0  0  0  0  0
    4.0030   -7.4500   33.7710 C   0  0  0  0  0  0  0  0  0  0  0  0
    3.1750   -4.0470   29.0580 C   0  0  0  0  0  0  0  0  0  0  0  0
    2.9210   -2.7740   29.8230 C   0  0  0  0  0  0  0  0  0  0  0  0
    1.8620   -1.7490   29.4600 C   0  0  0  0  0  0  0  0  0  0  0  0
    1.0900   -2.0110   28.3600 C   0  0  0  0  0  0  0  0  0  0  0  0
    1.2930   -3.2580   27.5570 C   0  0  0  0  0  0  0  0  0  0  0  0
    2.3710   -4.2670   27.9550 C   0  0  0  0  0  0  0  0  0  0  0  0
    5.2220   -3.2270   28.4920 C   0  0  0  0  0  0  0  0  0  0  0  0
    6.2820   -2.9260   27.7110 C   0  0  0  0  0  0  0  0  0  0  0  0
    7.3710   -2.9720   23.6300 C   0  0  0  0  0  0  0  0  0  0  0  0
    7.7290   -3.2610   22.2230 C   0  0  0  0  0  0  0  0  0  0  0  0
  1  2  1  0
  2  3  2  0
  2  4  1  0
  4  5  1  0
  5  6  1  0
  6  7  1  0
  7  8  1  0
  8  9  2  0
  8 10  1  0
 10 11  1  0
 11 12  1  0
 12 13  1  0
 13 14  1  0
 14 15  1  1
 15 16  1  0
 16 17  1  0
 17 18  2  0
 17 19  1  0
 20 19  1  0
 20 21  1  0
 20 22  1  0
 20 23  1  0
 14 24  1  0
 24 25  2  0
 25 26  1  0
 26 27  2  0
 27 28  1  0
 24 29  1  0
 28 29  2  0
 13 30  1  0
 10 31  1  0
 30 31  1  0
  7 32  1  0
  4 33  1  0
 32 33  1  0
M  END
