piperidine-amides-13464-covalent
     RDKit          3D

 19 20  0  0  0  0  0  0  0  0999 V2000
    7.1350   -3.2950   19.2610 C   0  0  0  0  0  0  0  0  0  0  0  0
    6.4120   -4.1190   20.2700 C   0  0  0  0  0  0  0  0  0  0  0  0
    5.3530   -4.6860   19.9380 O   0  0  0  0  0  0  0  0  0  0  0  0
    6.9720   -4.2760   21.5560 N   0  0  0  0  0  0  0  0  0  0  0  0
    7.7490   -3.2260   22.1580 C   0  0  0  0  0  0  0  0  0  0  0  0
    6.8530   -2.6080   23.2270 C   0  0  0  0  0  0  0  0  0  0  0  0
    6.3730   -3.6990   24.1310 C   0  0  0  0  0  0  0  0  0  0  0  0
    5.5230   -3.1530   25.2110 C   0  0  0  0  0  0  0  0  0  0  0  0
    4.3120   -3.3830   25.1320 O   0  0  0  0  0  0  0  0  0  0  0  0
    6.0900   -2.4140   26.2480 N   0  0  0  0  0  0  0  0  0  0  0  0
    6.7970   -2.9560   27.3270 C   0  0  0  0  0  0  0  0  0  0  0  0
    7.6180   -4.0170   27.0880 C   0  0  0  0  0  0  0  0  0  0  0  0
    8.1900   -4.6480   28.1750 C   0  0  0  0  0  0  0  0  0  0  0  0
    8.7630   -5.8680   27.9690 C   0  0  0  0  0  0  0  0  0  0  0  0
    7.5010   -1.7610   27.8550 C   0  0  0  0  0  0  0  0  0  0  0  0
    6.7190   -1.6850   29.1560 C   0  0  0  0  0  0  0  0  0  0  0  0
    6.1150   -2.9560   28.5680 C   0  0  0  0  0  0  0  0  0  0  0  0
    5.5700   -4.7620   23.3570 C   0  0  0  0  0  0  0  0  0  0  0  0
    6.4630   -5.3620   22.3380 C   0  0  0  0  0  0  0  0  0  0  0  0
  1  2  1  0
  2  3  2  0
  2  4  1  0
  4  5  1  0
  5  6  1  0
  6  7  1  0
  7  8  1  0
  8  9  2  0
  8 10  1  0
 11 10  1  0
 11 12  1  0
 12 13  1  0
 13 14  3  0
 11 15  1  0
 15 16  1  0
 11 17  1  0
 16 17  1  0
  7 18  1  0
  4 19  1  0
 18 19  1  0
M  END
