piperidine-amides-19072-covalent
     RDKit          3D

 22 24  0  0  0  0  0  0  0  0999 V2000
    7.1430   -3.3420   19.4390 C   0  0  0  0  0  0  0  0  0  0  0  0
    6.4400   -4.1830   20.3760 C   0  0  0  0  0  0  0  0  0  0  0  0
    5.4040   -4.8090   19.9780 O   0  0  0  0  0  0  0  0  0  0  0  0
    6.8930   -4.3650   21.6970 N   0  0  0  0  0  0  0  0  0  0  0  0
    6.6790   -5.6730   22.3370 C   0  0  0  0  0  0  0  0  0  0  0  0
    5.7020   -5.2080   23.4730 C   0  0  0  0  0  0  0  0  0  0  0  0
    6.4350   -4.1260   24.2350 C   0  0  0  0  0  0  0  0  0  0  0  0
    5.5200   -3.6210   25.4280 C   0  0  0  0  0  0  0  0  0  0  0  0
    4.6890   -2.8110   25.0440 O   0  0  0  0  0  0  0  0  0  0  0  0
    5.9030   -4.2060   26.4790 N   0  0  0  0  0  0  0  0  0  0  0  0
    6.6160   -4.9350   27.3280 C   0  0  0  0  0  0  0  0  0  0  0  0
    6.7070   -6.1430   27.8180 C   0  0  0  0  0  0  0  0  0  0  0  0
    5.9100   -6.0830   28.9310 C   0  0  0  0  0  0  0  0  0  0  0  0
    5.9680   -7.1940   29.9310 C   0  0  0  0  0  0  0  0  0  0  0  0
    5.0120   -7.0120   31.1310 C   0  0  0  0  0  0  0  0  0  0  0  0
    4.2920   -5.8360   31.0120 C   0  0  0  0  0  0  0  0  0  0  0  0
    3.3090   -5.1250   31.7220 C   0  0  0  0  0  0  0  0  0  0  0  0
    4.1820   -4.7060   30.0660 C   0  0  0  0  0  0  0  0  0  0  0  0
    5.1070   -4.7950   28.8240 C   0  0  0  0  0  0  0  0  0  0  0  0
    5.2200   -3.8860   27.7610 C   0  0  0  0  0  0  0  0  0  0  0  0
    6.9670   -2.9490   23.4180 C   0  0  0  0  0  0  0  0  0  0  0  0
    7.7040   -3.3730   22.3610 C   0  0  0  0  0  0  0  0  0  0  0  0
  1  2  1  0
  2  3  2  0
  2  4  1  0
  4  5  1  0
  5  6  1  0
  6  7  1  0
  7  8  1  0
  8  9  2  0
  8 10  1  0
 10 11  1  0
 11 12  1  0
 12 13  1  0
 13 14  2  0
 14 15  1  0
 15 16  2  0
 16 17  1  0
 16 18  1  0
 13 19  1  0
 18 19  2  0
 10 20  1  0
 19 20  1  0
  7 21  1  0
  4 22  1  0
 21 22  1  0
M  END
