piperidine-amides-32448-covalent
     RDKit          3D

 29 31  0  0  0  0  0  0  0  0999 V2000
    7.0310   -3.3350   19.3560 C   0  0  0  0  0  0  0  0  0  0  0  0
    6.3470   -4.1820   20.3730 C   0  0  0  0  0  0  0  0  0  0  0  0
    5.4050   -4.9070   19.9980 O   0  0  0  0  0  0  0  0  0  0  0  0
    6.8050   -4.1740   21.7150 N   0  0  0  0  0  0  0  0  0  0  0  0
    7.6380   -3.1000   22.2320 C   0  0  0  0  0  0  0  0  0  0  0  0
    7.2460   -2.7550   23.6890 C   0  0  0  0  0  0  0  0  0  0  0  0
    5.9890   -3.4840   24.0560 C   0  0  0  0  0  0  0  0  0  0  0  0
    5.2360   -2.9340   25.2480 C   0  0  0  0  0  0  0  0  0  0  0  0
    4.0550   -2.6850   25.0020 O   0  0  0  0  0  0  0  0  0  0  0  0
    5.7690   -2.7180   26.5550 N   0  0  0  0  0  0  0  0  0  0  0  0
    6.0400   -1.4500   27.1300 C   0  0  0  0  0  0  0  0  0  0  0  0
    5.6650   -0.2330   26.5920 C   0  0  0  0  0  0  0  0  0  0  0  0
    5.9100    1.0220   27.1830 C   0  0  0  0  0  0  0  0  0  0  0  0
    5.5690    2.2680   26.7150 C   0  0  0  0  0  0  0  0  0  0  0  0
    6.6220    1.0340   28.4770 C   0  0  0  0  0  0  0  0  0  0  0  0
    7.0810   -0.2510   29.1390 C   0  0  0  0  0  0  0  0  0  0  0  0
    6.7340   -1.4910   28.3580 C   0  0  0  0  0  0  0  0  0  0  0  0
    7.0950   -2.6910   28.8580 F   0  0  0  0  0  0  0  0  0  0  0  0
    5.4650   -3.7270   27.5080 C   0  0  1  0  0  0  0  0  0  0  0  0
    4.3730   -4.6490   27.1570 C   0  0  0  0  0  0  0  0  0  0  0  0
    6.5540   -4.4290   27.3780 C   0  0  0  0  0  0  0  0  0  0  0  0
    6.7490   -5.4050   28.3510 C   0  0  0  0  0  0  0  0  0  0  0  0
    8.0300   -5.9090   27.7070 C   0  0  0  0  0  0  0  0  0  0  0  0
    8.7550   -5.4770   26.4990 C   0  0  0  0  0  0  0  0  0  0  0  0
    9.9310   -6.1670   26.1020 C   0  0  0  0  0  0  0  0  0  0  0  0
    8.3780   -4.5000   25.7490 C   0  0  0  0  0  0  0  0  0  0  0  0
    7.2720   -4.0150   26.2320 C   0  0  0  0  0  0  0  0  0  0  0  0
    6.0900   -4.9740   23.9030 C   0  0  0  0  0  0  0  0  0  0  0  0
    6.5210   -5.3230   22.5040 C   0  0  0  0  0  0  0  0  0  0  0  0
  1  2  1  0
  2  3  2  0
  2  4  1  0
  4  5  1  0
  5  6  1  0
  6  7  1  0
  7  8  1  0
  8  9  2  0
  8 10  1  0
 10 11  1  0
 11 12  2  0
 12 13  1  0
 13 14  1  0
 13 15  2  0
 15 16  1  0
 11 17  1  0
 16 17  2  0
 17 18  1  0
 10 19  1  0
 19 20  1  6
 19 21  1  0
 21 22  2  0
 22 23  1  0
 23 24  2  0
 24 25  1  0
 24 26  1  0
 21 27  1  0
 26 27  2  0
  7 28  1  0
  4 29  1  0
 28 29  1  0
M  END
