piperidine-amides-25665-covalent
     RDKit          3D

 25 27  0  0  0  0  0  0  0  0999 V2000
    7.1050   -3.2940   19.2260 C   0  0  0  0  0  0  0  0  0  0  0  0
    6.3730   -4.1150   20.2210 C   0  0  0  0  0  0  0  0  0  0  0  0
    5.2830   -4.5680   19.8870 O   0  0  0  0  0  0  0  0  0  0  0  0
    6.9550   -4.4020   21.4490 N   0  0  0  0  0  0  0  0  0  0  0  0
    6.6390   -5.6200   22.1370 C   0  0  0  0  0  0  0  0  0  0  0  0
    5.7940   -5.2650   23.3130 C   0  0  0  0  0  0  0  0  0  0  0  0
    6.5160   -4.1730   24.0890 C   0  0  0  0  0  0  0  0  0  0  0  0
    5.6140   -3.7000   25.1340 C   0  0  0  0  0  0  0  0  0  0  0  0
    4.5090   -3.2280   24.8430 O   0  0  0  0  0  0  0  0  0  0  0  0
    5.9980   -3.7700   26.4530 N   0  0  0  0  0  0  0  0  0  0  0  0
    6.5620   -2.5410   26.9290 C   0  0  0  0  0  0  0  0  0  0  0  0
    6.7520   -2.6670   28.3890 C   0  0  0  0  0  0  0  0  0  0  0  0
    5.6520   -2.8780   29.0910 C   0  0  0  0  0  0  0  0  0  0  0  0
    4.7190   -2.1090   29.7450 C   0  0  0  0  0  0  0  0  0  0  0  0
    4.7710   -0.7210   29.7640 C   0  0  0  0  0  0  0  0  0  0  0  0
    3.6700    0.2830   29.4800 C   0  0  0  0  0  0  0  0  0  0  0  0
    4.0640    1.7210   29.5910 C   0  0  0  0  0  0  0  0  0  0  0  0
    5.4750    2.0700   29.9670 C   0  0  0  0  0  0  0  0  0  0  0  0
    6.4400    0.9620   30.2140 C   0  0  0  0  0  0  0  0  0  0  0  0
    6.2110   -0.5130   30.1430 C   0  0  0  0  0  0  0  0  0  0  0  0
    7.1640   -1.4180   30.3870 F   0  0  0  0  0  0  0  0  0  0  0  0
    5.6360   -4.3440   28.9490 C   0  0  0  0  0  0  0  0  0  0  0  0
    5.6860   -4.7110   27.5130 C   0  0  0  0  0  0  0  0  0  0  0  0
    6.8960   -2.9780   23.2330 C   0  0  0  0  0  0  0  0  0  0  0  0
    7.6750   -3.3720   22.1830 C   0  0  0  0  0  0  0  0  0  0  0  0
  1  2  1  0
  2  3  2  0
  2  4  1  0
  4  5  1  0
  5  6  1  0
  6  7  1  0
  7  8  1  0
  8  9  2  0
  8 10  1  0
 10 11  1  0
 11 12  1  0
 12 13  1  0
 13 14  2  3
 14 15  1  0
 15 16  2  0
 16 17  1  0
 17 18  2  0
 18 19  1  0
 15 20  1  0
 19 20  2  0
 20 21  1  0
 13 22  1  0
 10 23  1  0
 22 23  1  0
  7 24  1  0
  4 25  1  0
 24 25  1  0
M  END
