piperidine-amides-35197-covalent
     RDKit          3D

 31 33  0  0  0  0  0  0  0  0999 V2000
    7.0550   -3.3190   19.3210 C   0  0  0  0  0  0  0  0  0  0  0  0
    6.3920   -4.1750   20.3430 C   0  0  0  0  0  0  0  0  0  0  0  0
    5.3960   -4.8010   19.9760 O   0  0  0  0  0  0  0  0  0  0  0  0
    6.9260   -4.2720   21.6430 N   0  0  0  0  0  0  0  0  0  0  0  0
    7.8180   -3.2620   22.1720 C   0  0  0  0  0  0  0  0  0  0  0  0
    7.4150   -2.9520   23.5710 C   0  0  0  0  0  0  0  0  0  0  0  0
    6.0400   -3.5700   23.7350 C   0  0  0  0  0  0  0  0  0  0  0  0
    5.4200   -3.0680   24.9710 C   0  0  0  0  0  0  0  0  0  0  0  0
    4.8190   -1.9950   24.9070 O   0  0  0  0  0  0  0  0  0  0  0  0
    5.4320   -3.7010   26.2190 N   0  0  0  0  0  0  0  0  0  0  0  0
    5.9810   -2.8330   27.2420 C   0  0  0  0  0  0  0  0  0  0  0  0
    4.6720   -3.0620   27.7980 C   0  0  0  0  0  0  0  0  0  0  0  0
    4.3200   -3.2870   29.4410 S   0  0  0  0  0  0  0  0  0  0  0  0
    5.1830   -2.3870   30.2720 O   0  0  0  0  0  0  0  0  0  0  0  0
    2.8720   -2.9170   29.5860 O   0  0  0  0  0  0  0  0  0  0  0  0
    4.4080   -4.9520   29.9090 N   0  0  0  0  0  0  0  0  0  0  0  0
    5.6280   -5.5960   29.3730 C   0  0  0  0  0  0  0  0  0  0  0  0
    5.6590   -6.8660   29.9070 C   0  0  0  0  0  0  0  0  0  0  0  0
    4.7410   -7.2710   30.8140 N   0  0  0  0  0  0  0  0  0  0  0  0
    4.8460   -7.1780   32.2620 C   0  0  0  0  0  0  0  0  0  0  0  0
    3.7110   -7.2920   33.0690 O   0  0  0  0  0  0  0  0  0  0  0  0
    6.0500   -6.9670   32.9240 O   0  0  0  0  0  0  0  0  0  0  0  0
    6.2510   -7.3710   34.2680 C   0  0  0  0  0  0  0  0  0  0  0  0
    6.2840   -8.8460   34.5320 C   0  0  0  0  0  0  0  0  0  0  0  0
    5.0320   -7.9910   34.9080 C   0  0  0  0  0  0  0  0  0  0  0  0
    7.0920   -6.5750   35.2160 C   0  0  0  0  0  0  0  0  0  0  0  0
    3.4500   -7.0450   30.2380 C   0  0  0  0  0  0  0  0  0  0  0  0
    3.2040   -5.6650   29.7120 C   0  0  0  0  0  0  0  0  0  0  0  0
    4.2380   -4.0890   27.0390 C   0  0  0  0  0  0  0  0  0  0  0  0
    6.1170   -5.0830   23.6660 C   0  0  0  0  0  0  0  0  0  0  0  0
    6.6880   -5.4710   22.4590 C   0  0  0  0  0  0  0  0  0  0  0  0
  1  2  1  0
  2  3  2  0
  2  4  1  0
  4  5  1  0
  5  6  1  0
  6  7  1  0
  7  8  1  0
  8  9  2  0
  8 10  1  0
 10 11  1  0
 11 12  1  0
 12 13  1  0
 13 14  2  0
 13 15  2  0
 13 16  1  0
 16 17  1  0
 17 18  1  0
 18 19  1  0
 19 20  1  0
 20 21  2  0
 20 22  1  0
 23 22  1  0
 23 24  1  0
 23 25  1  0
 23 26  1  0
 19 27  1  0
 16 28  1  0
 27 28  1  0
 10 29  1  0
 12 29  1  0
  7 30  1  0
  4 31  1  0
 30 31  1  0
M  END
