piperidine-amides-5255-covalent
     RDKit          3D

 21 22  0  0  0  0  0  0  0  0999 V2000
    7.0760   -3.2950   19.2750 C   0  0  0  0  0  0  0  0  0  0  0  0
    6.3820   -4.0930   20.3160 C   0  0  0  0  0  0  0  0  0  0  0  0
    5.3570   -4.7050   19.9430 O   0  0  0  0  0  0  0  0  0  0  0  0
    6.8800   -4.1850   21.6320 N   0  0  0  0  0  0  0  0  0  0  0  0
    6.6220   -5.3630   22.3940 C   0  0  0  0  0  0  0  0  0  0  0  0
    6.0230   -5.0600   23.6870 C   0  0  0  0  0  0  0  0  0  0  0  0
    6.0760   -3.6190   23.9900 C   0  0  0  0  0  0  0  0  0  0  0  0
    5.5890   -3.3090   25.3640 C   0  0  0  0  0  0  0  0  0  0  0  0
    4.3570   -3.2450   25.5160 O   0  0  0  0  0  0  0  0  0  0  0  0
    6.4430   -3.0920   26.4640 N   0  0  0  0  0  0  0  0  0  0  0  0
    6.2510   -3.7240   27.8030 C   0  0  2  0  0  0  0  0  0  0  0  0
    5.8880   -5.1790   27.7150 C   0  0  0  0  0  0  0  0  0  0  0  0
    5.3320   -2.9320   28.6450 C   0  0  0  0  0  0  0  0  0  0  0  0
    4.0240   -3.3320   28.8550 C   0  0  0  0  0  0  0  0  0  0  0  0
    3.2600   -2.4890   29.6790 N   0  0  0  0  0  0  0  0  0  0  0  0
    3.7750   -1.2830   30.2820 C   0  0  0  0  0  0  0  0  0  0  0  0
    5.0680   -0.9900   30.0070 C   0  0  0  0  0  0  0  0  0  0  0  0
    5.8320   -1.7870   29.2100 C   0  0  0  0  0  0  0  0  0  0  0  0
    7.1170   -1.3570   29.0250 C   0  0  0  0  0  0  0  0  0  0  0  0
    7.4610   -3.1030   23.6970 C   0  0  0  0  0  0  0  0  0  0  0  0
    7.7180   -3.1380   22.2250 C   0  0  0  0  0  0  0  0  0  0  0  0
  1  2  1  0
  2  3  2  0
  2  4  1  0
  4  5  1  0
  5  6  1  0
  6  7  1  0
  7  8  1  0
  8  9  2  0
  8 10  1  0
 10 11  1  0
 11 12  1  6
 11 13  1  0
 13 14  2  0
 14 15  1  0
 15 16  2  0
 16 17  1  0
 13 18  1  0
 17 18  2  0
 18 19  1  0
  7 20  1  0
  4 21  1  0
 20 21  1  0
M  END
