piperidine-amides-23998-covalent
     RDKit          3D

 24 27  0  0  0  0  0  0  0  0999 V2000
    7.0360   -3.3820   19.4190 C   0  0  0  0  0  0  0  0  0  0  0  0
    6.4120   -4.2700   20.4170 C   0  0  0  0  0  0  0  0  0  0  0  0
    5.4340   -4.9500   20.0100 O   0  0  0  0  0  0  0  0  0  0  0  0
    6.9250   -4.3730   21.7490 N   0  0  0  0  0  0  0  0  0  0  0  0
    6.5160   -5.4850   22.5500 C   0  0  0  0  0  0  0  0  0  0  0  0
    5.8370   -5.0580   23.7700 C   0  0  0  0  0  0  0  0  0  0  0  0
    5.9090   -3.5960   23.8890 C   0  0  0  0  0  0  0  0  0  0  0  0
    5.0950   -2.9460   25.0130 C   0  0  0  0  0  0  0  0  0  0  0  0
    4.3500   -2.0190   24.6890 O   0  0  0  0  0  0  0  0  0  0  0  0
    5.0900   -3.2900   26.3820 N   0  0  0  0  0  0  0  0  0  0  0  0
    4.1970   -4.0140   27.0330 C   0  0  0  0  0  0  0  0  0  0  0  0
    5.0170   -5.1100   27.4970 C   0  0  0  0  0  0  0  0  0  0  0  0
    6.2600   -4.4870   28.2240 C   0  0  1  0  0  0  0  0  0  0  0  0
    6.2590   -3.2650   28.7660 C   0  0  0  0  0  0  0  0  0  0  0  0
    5.2770   -4.0660   29.4570 C   0  0  2  0  0  0  0  0  0  0  0  0
    5.9810   -5.3970   29.3110 C   0  0  0  0  0  0  0  0  0  0  0  0
    7.3480   -5.2650   29.3110 O   0  0  0  0  0  0  0  0  0  0  0  0
    5.4230   -6.6250   29.2210 N   0  0  0  0  0  0  0  0  0  0  0  0
    4.5990   -7.1030   30.1660 C   0  0  0  0  0  0  0  0  0  0  0  0
    3.3690   -7.6010   29.8040 C   0  0  0  0  0  0  0  0  0  0  0  0
    3.3640   -6.2530   30.6410 C   0  0  0  0  0  0  0  0  0  0  0  0
    6.2080   -3.9870   26.7480 C   0  0  0  0  0  0  0  0  0  0  0  0
    7.3380   -3.1870   23.7430 C   0  0  0  0  0  0  0  0  0  0  0  0
    7.6300   -3.2370   22.3580 C   0  0  0  0  0  0  0  0  0  0  0  0
  1  2  1  0
  2  3  2  0
  2  4  1  0
  4  5  1  0
  5  6  1  0
  6  7  1  0
  7  8  1  0
  8  9  2  0
  8 10  1  0
 10 11  1  0
 11 12  1  0
 13 12  1  1
 13 14  1  0
 13 15  1  0
 14 15  1  0
 15 16  1  1
 16 17  2  0
 16 18  1  0
 18 19  1  0
 19 20  1  0
 19 21  1  0
 20 21  1  0
 10 22  1  0
 13 22  1  0
  7 23  1  0
  4 24  1  0
 23 24  1  0
M  END
