piperidine-amides-12613-covalent
     RDKit          3D

 23 24  0  0  0  0  0  0  0  0999 V2000
    7.0890   -3.2840   19.2350 C   0  0  0  0  0  0  0  0  0  0  0  0
    6.3650   -4.0840   20.2490 C   0  0  0  0  0  0  0  0  0  0  0  0
    5.2910   -4.6010   19.8930 O   0  0  0  0  0  0  0  0  0  0  0  0
    6.8930   -4.2950   21.5240 N   0  0  0  0  0  0  0  0  0  0  0  0
    7.6190   -3.2480   22.1810 C   0  0  0  0  0  0  0  0  0  0  0  0
    7.1790   -2.9320   23.5380 C   0  0  0  0  0  0  0  0  0  0  0  0
    6.4100   -3.9950   24.2190 C   0  0  0  0  0  0  0  0  0  0  0  0
    5.6950   -3.4340   25.3950 C   0  0  0  0  0  0  0  0  0  0  0  0
    4.4610   -3.3030   25.3210 O   0  0  0  0  0  0  0  0  0  0  0  0
    6.3880   -3.0850   26.5730 N   0  0  0  0  0  0  0  0  0  0  0  0
    6.3710   -1.7370   27.2150 C   0  0  0  0  0  0  0  0  0  0  0  0
    7.0600   -1.6390   28.5060 C   0  0  0  0  0  0  0  0  0  0  0  0
    7.0970   -0.3850   29.2100 C   0  0  0  0  0  0  0  0  0  0  0  0
    6.4660    0.6850   28.6140 C   0  0  0  0  0  0  0  0  0  0  0  0
    5.8050    0.6240   27.3840 C   0  0  0  0  0  0  0  0  0  0  0  0
    5.7320   -0.5520   26.6590 C   0  0  0  0  0  0  0  0  0  0  0  0
    5.0560   -0.5960   25.4210 N   0  0  0  0  0  0  0  0  0  0  0  0
    3.7040   -1.0580   25.4420 C   0  0  0  0  0  0  0  0  0  0  0  0
    5.3960    0.6360   24.6320 C   0  0  0  0  0  0  0  0  0  0  0  0
    4.5250    1.7280   24.6480 C   0  0  0  0  0  0  0  0  0  0  0  0
    4.4150    2.3410   23.3020 C   0  0  0  0  0  0  0  0  0  0  0  0
    5.4860   -4.7510   23.3410 C   0  0  0  0  0  0  0  0  0  0  0  0
    6.3920   -5.3780   22.3280 C   0  0  0  0  0  0  0  0  0  0  0  0
  1  2  1  0
  2  3  2  0
  2  4  1  0
  4  5  1  0
  5  6  1  0
  6  7  1  0
  7  8  1  0
  8  9  2  0
  8 10  1  0
 10 11  1  0
 11 12  2  0
 12 13  1  0
 13 14  2  0
 14 15  1  0
 11 16  1  0
 15 16  2  0
 16 17  1  0
 17 18  1  0
 17 19  1  0
 19 20  1  0
 20 21  1  0
  7 22  1  0
  4 23  1  0
 22 23  1  0
M  END
