piperidine-amides-17241-covalent
     RDKit          3D

 20 21  0  0  0  0  0  0  0  0999 V2000
    7.0520   -3.3730   19.3620 C   0  0  0  0  0  0  0  0  0  0  0  0
    6.4100   -4.2360   20.3720 C   0  0  0  0  0  0  0  0  0  0  0  0
    5.4060   -4.8880   19.9970 O   0  0  0  0  0  0  0  0  0  0  0  0
    6.9480   -4.3460   21.6880 N   0  0  0  0  0  0  0  0  0  0  0  0
    6.6010   -5.4790   22.4990 C   0  0  0  0  0  0  0  0  0  0  0  0
    6.1560   -5.1190   23.8510 C   0  0  0  0  0  0  0  0  0  0  0  0
    6.2660   -3.6740   24.0940 C   0  0  0  0  0  0  0  0  0  0  0  0
    5.7290   -3.1540   25.4080 C   0  0  0  0  0  0  0  0  0  0  0  0
    5.3210   -1.9850   25.4120 O   0  0  0  0  0  0  0  0  0  0  0  0
    5.5850   -3.8630   26.6240 N   0  0  0  0  0  0  0  0  0  0  0  0
    4.3040   -4.1140   27.1180 C   0  0  0  0  0  0  0  0  0  0  0  0
    4.0240   -5.3760   27.7540 C   0  0  0  0  0  0  0  0  0  0  0  0
    5.3500   -5.9180   28.2210 C   0  0  0  0  0  0  0  0  0  0  0  0
    5.7360   -5.2580   29.3110 C   0  0  0  0  0  0  0  0  0  0  0  0
    6.9350   -4.8720   28.4980 C   0  0  0  0  0  0  0  0  0  0  0  0
    6.4300   -3.6210   27.7630 C   0  0  2  0  0  0  0  0  0  0  0  0
    5.6480   -3.1260   28.9780 C   0  0  0  0  0  0  0  0  0  0  0  0
    4.9200   -1.9330   28.9170 O   0  0  0  0  0  0  0  0  0  0  0  0
    7.6170   -3.1320   23.7330 C   0  0  0  0  0  0  0  0  0  0  0  0
    7.7530   -3.2550   22.2260 C   0  0  0  0  0  0  0  0  0  0  0  0
  1  2  1  0
  2  3  2  0
  2  4  1  0
  4  5  1  0
  5  6  1  0
  6  7  1  0
  7  8  1  0
  8  9  2  0
  8 10  1  0
 10 11  1  0
 11 12  1  0
 12 13  1  0
 13 14  1  0
 14 15  1  0
 10 16  1  0
 15 16  1  0
 16 17  1  1
 17 18  1  0
  7 19  1  0
  4 20  1  0
 19 20  1  0
M  END
