piperidine-amides-35447-covalent
     RDKit          3D

 34 37  0  0  0  0  0  0  0  0999 V2000
    7.2490   -3.2120   19.0260 C   0  0  0  0  0  0  0  0  0  0  0  0
    6.4690   -3.8390   20.1200 C   0  0  0  0  0  0  0  0  0  0  0  0
    5.3830   -4.3510   19.8220 O   0  0  0  0  0  0  0  0  0  0  0  0
    7.0270   -3.8650   21.4060 N   0  0  0  0  0  0  0  0  0  0  0  0
    7.9760   -2.8470   21.7930 C   0  0  0  0  0  0  0  0  0  0  0  0
    7.6180   -2.2520   23.1140 C   0  0  0  0  0  0  0  0  0  0  0  0
    7.5370   -3.3420   24.1790 C   0  0  0  0  0  0  0  0  0  0  0  0
    6.6320   -2.7620   25.2440 C   0  0  0  0  0  0  0  0  0  0  0  0
    5.5400   -3.2420   25.5510 O   0  0  0  0  0  0  0  0  0  0  0  0
    6.9910   -1.5730   25.8900 N   0  0  0  0  0  0  0  0  0  0  0  0
    6.6740   -0.4480   25.0950 C   0  0  0  0  0  0  0  0  0  0  0  0
    6.9130   -1.3710   27.3110 C   0  0  0  0  0  0  0  0  0  0  0  0
    6.1380   -2.2520   27.9430 C   0  0  0  0  0  0  0  0  0  0  0  0
    6.5570   -3.4380   27.7330 C   0  0  0  0  0  0  0  0  0  0  0  0
    5.6060   -4.4270   27.8050 N   0  0  0  0  0  0  0  0  0  0  0  0
    4.3480   -4.2960   27.0930 C   0  0  0  0  0  0  0  0  0  0  0  0
    3.7820   -3.7250   28.2000 O   0  0  0  0  0  0  0  0  0  0  0  0
    5.3280   -4.8490   26.4130 N   0  0  0  0  0  0  0  0  0  0  0  0
    5.0060   -4.8570   24.9270 C   0  0  0  0  0  0  0  0  0  0  0  0
    5.4060   -3.6710   24.0060 C   0  0  0  0  0  0  0  0  0  0  0  0
    4.6090   -5.1020   23.1020 C   0  0  0  0  0  0  0  0  0  0  0  0
    4.8180   -5.1290   24.4000 C   0  0  0  0  0  0  0  0  0  0  0  0
    5.2590   -4.0500   24.1160 C   0  0  0  0  0  0  0  0  0  0  0  0
    4.5700   -5.0040   22.7770 Cl  0  0  0  0  0  0  0  0  0  0  0  0
    5.2760   -3.5020   22.7380 C   0  0  0  0  0  0  0  0  0  0  0  0
    5.7810   -2.5020   22.9870 C   0  0  0  0  0  0  0  0  0  0  0  0
    5.3790   -6.1630   27.0360 C   0  0  0  0  0  0  0  0  0  0  0  0
    5.5850   -6.7790   28.1000 C   0  0  0  0  0  0  0  0  0  0  0  0
    5.8690   -5.6960   28.9660 C   0  0  0  0  0  0  0  0  0  0  0  0
    5.8480   -4.2330   28.3530 C   0  0  0  0  0  0  0  0  0  0  0  0
    6.0610   -4.7650   29.5770 C   0  0  0  0  0  0  0  0  0  0  0  0
    5.7440   -5.6770   28.4690 C   0  0  0  0  0  0  0  0  0  0  0  0
    7.2480   -4.7310   23.7100 C   0  0  0  0  0  0  0  0  0  0  0  0
    6.9460   -5.0040   22.2560 C   0  0  0  0  0  0  0  0  0  0  0  0
  1  2  1  0
  2  3  2  0
  2  4  1  0
  4  5  1  0
  5  6  1  0
  6  7  1  0
  7  8  1  0
  8  9  2  0
  8 10  1  0
 10 11  1  0
 10 12  1  0
 12 13  1  0
 13 14  1  0
 14 15  1  0
 15 16  1  0
 16 17  2  0
 16 18  1  0
 18 19  1  0
 19 20  1  0
 20 21  2  0
 21 22  1  0
 22 23  2  0
 23 24  1  0
 23 25  1  0
 20 26  1  0
 25 26  2  0
 18 27  1  0
 27 28  1  0
 28 29  2  0
 29 30  1  0
 30 31  2  0
 15 32  1  0
 27 32  2  0
 31 32  1  0
  7 33  1  0
  4 34  1  0
 33 34  1  0
M  END
