piperidine-amides-33363-covalent
     RDKit          3D

 28 30  0  0  0  0  0  0  0  0999 V2000
    7.0840   -3.3220   19.2850 C   0  0  0  0  0  0  0  0  0  0  0  0
    6.4180   -4.1520   20.3000 C   0  0  0  0  0  0  0  0  0  0  0  0
    5.3700   -4.7480   19.9560 O   0  0  0  0  0  0  0  0  0  0  0  0
    6.9830   -4.3130   21.5920 N   0  0  0  0  0  0  0  0  0  0  0  0
    6.6350   -5.4710   22.3390 C   0  0  0  0  0  0  0  0  0  0  0  0
    6.1870   -5.1600   23.6930 C   0  0  0  0  0  0  0  0  0  0  0  0
    6.2440   -3.7190   24.0080 C   0  0  0  0  0  0  0  0  0  0  0  0
    5.7610   -3.4100   25.3950 C   0  0  0  0  0  0  0  0  0  0  0  0
    4.5590   -3.1160   25.5410 O   0  0  0  0  0  0  0  0  0  0  0  0
    6.5880   -3.4300   26.5390 N   0  0  0  0  0  0  0  0  0  0  0  0
    6.2060   -2.9690   27.8190 C   0  0  0  0  0  0  0  0  0  0  0  0
    5.6570   -3.9010   28.7910 C   0  0  0  0  0  0  0  0  0  0  0  0
    6.7490   -4.9340   29.0980 C   0  0  0  0  0  0  0  0  0  0  0  0
    6.6700   -5.8940   28.0330 N   0  0  0  0  0  0  0  0  0  0  0  0
    5.3300   -6.4040   27.9370 C   0  0  0  0  0  0  0  0  0  0  0  0
    4.8080   -6.3920   29.3820 C   0  0  0  0  0  0  0  0  0  0  0  0
    5.6290   -7.3270   30.1100 C   0  0  0  0  0  0  0  0  0  0  0  0
    5.0880   -7.3260   31.7250 S   0  0  0  0  0  0  0  0  0  0  0  0
    3.7760   -6.0930   31.4170 C   0  0  0  0  0  0  0  0  0  0  0  0
    2.8170   -5.5590   32.4550 C   0  0  1  0  0  0  0  0  0  0  0  0
    1.4770   -6.1850   32.1080 C   0  0  0  0  0  0  0  0  0  0  0  0
    3.0730   -5.9180   33.7920 O   0  0  0  0  0  0  0  0  0  0  0  0
    4.1810   -5.3760   34.4810 C   0  0  0  0  0  0  0  0  0  0  0  0
    3.7660   -5.6860   30.0590 N   0  0  0  0  0  0  0  0  0  0  0  0
    7.3950   -5.5850   26.9670 C   0  0  0  0  0  0  0  0  0  0  0  0
    7.7600   -4.2610   26.7120 C   0  0  0  0  0  0  0  0  0  0  0  0
    7.5270   -3.0720   23.6330 C   0  0  0  0  0  0  0  0  0  0  0  0
    7.7740   -3.2390   22.1520 C   0  0  0  0  0  0  0  0  0  0  0  0
  1  2  1  0
  2  3  2  0
  2  4  1  0
  4  5  1  0
  5  6  1  0
  6  7  1  0
  7  8  1  0
  8  9  2  0
  8 10  1  0
 10 11  1  0
 11 12  1  0
 12 13  1  0
 13 14  1  0
 14 15  1  0
 15 16  1  0
 16 17  2  0
 17 18  1  0
 18 19  1  0
 19 20  1  0
 20 21  1  6
 20 22  1  0
 22 23  1  0
 16 24  1  0
 19 24  2  0
 14 25  1  0
 10 26  1  0
 25 26  1  0
  7 27  1  0
  4 28  1  0
 27 28  1  0
M  END
