piperidine-amides-29887-covalent
     RDKit          3D

 27 29  0  0  0  0  0  0  0  0999 V2000
    7.0260   -3.3240   19.3730 C   0  0  0  0  0  0  0  0  0  0  0  0
    6.3420   -4.1720   20.3470 C   0  0  0  0  0  0  0  0  0  0  0  0
    5.3830   -4.8530   19.9840 O   0  0  0  0  0  0  0  0  0  0  0  0
    6.7970   -4.2560   21.7150 N   0  0  0  0  0  0  0  0  0  0  0  0
    7.6480   -3.2180   22.2700 C   0  0  0  0  0  0  0  0  0  0  0  0
    7.4240   -3.0590   23.7550 C   0  0  0  0  0  0  0  0  0  0  0  0
    6.0990   -3.7210   24.0680 C   0  0  0  0  0  0  0  0  0  0  0  0
    5.5860   -3.4860   25.4620 C   0  0  0  0  0  0  0  0  0  0  0  0
    4.3840   -3.6820   25.7130 O   0  0  0  0  0  0  0  0  0  0  0  0
    6.4030   -3.0110   26.5340 N   0  0  0  0  0  0  0  0  0  0  0  0
    6.3050   -3.7010   27.8190 C   0  0  0  0  0  0  0  0  0  0  0  0
    6.2340   -5.2040   27.6650 C   0  0  0  0  0  0  0  0  0  0  0  0
    5.2630   -5.9090   28.3510 C   0  0  0  0  0  0  0  0  0  0  0  0
    4.6340   -5.3170   29.2620 O   0  0  0  0  0  0  0  0  0  0  0  0
    6.3100   -1.5130   26.6940 C   0  0  0  0  0  0  0  0  0  0  0  0
    5.9780   -0.5780   25.7100 N   0  0  0  0  0  0  0  0  0  0  0  0
    6.0270    0.6210   26.3530 C   0  0  0  0  0  0  0  0  0  0  0  0
    5.7570    1.9070   25.7340 C   0  0  0  0  0  0  0  0  0  0  0  0
    5.8250    3.0860   26.4440 C   0  0  0  0  0  0  0  0  0  0  0  0
    6.1620    3.0180   27.7830 C   0  0  0  0  0  0  0  0  0  0  0  0
    6.4320    1.8070   28.4290 C   0  0  0  0  0  0  0  0  0  0  0  0
    6.3630    0.5400   27.6810 C   0  0  0  0  0  0  0  0  0  0  0  0
    6.5450   -0.8450   27.8920 N   0  0  0  0  0  0  0  0  0  0  0  0
    6.8900   -1.4300   29.0600 C   0  0  0  0  0  0  0  0  0  0  0  0
    6.7040   -0.4880   30.0600 C   0  0  0  0  0  0  0  0  0  0  0  0
    6.1740   -5.2090   23.8290 C   0  0  0  0  0  0  0  0  0  0  0  0
    6.7080   -5.5130   22.4200 C   0  0  0  0  0  0  0  0  0  0  0  0
  1  2  1  0
  2  3  2  0
  2  4  1  0
  4  5  1  0
  5  6  1  0
  6  7  1  0
  7  8  1  0
  8  9  2  0
  8 10  1  0
 10 11  1  0
 11 12  1  0
 12 13  1  0
 13 14  1  0
 10 15  1  0
 15 16  2  0
 16 17  1  0
 17 18  2  0
 18 19  1  0
 19 20  2  0
 20 21  1  0
 17 22  1  0
 21 22  2  0
 15 23  1  0
 22 23  1  0
 23 24  1  0
 24 25  1  0
  7 26  1  0
  4 27  1  0
 26 27  1  0
M  END
