piperidine-amides-24448-covalent
     RDKit          3D

 24 26  0  0  0  0  0  0  0  0999 V2000
    7.0210   -3.3570   19.4380 C   0  0  0  0  0  0  0  0  0  0  0  0
    6.3760   -4.2650   20.3980 C   0  0  0  0  0  0  0  0  0  0  0  0
    5.4110   -4.9620   20.0100 O   0  0  0  0  0  0  0  0  0  0  0  0
    6.8490   -4.3960   21.7200 N   0  0  0  0  0  0  0  0  0  0  0  0
    6.5660   -5.6360   22.4250 C   0  0  0  0  0  0  0  0  0  0  0  0
    6.0960   -5.2710   23.8480 C   0  0  0  0  0  0  0  0  0  0  0  0
    5.8200   -3.7900   23.8350 C   0  0  0  0  0  0  0  0  0  0  0  0
    5.0520   -3.3000   25.0300 C   0  0  0  0  0  0  0  0  0  0  0  0
    4.0190   -2.6540   24.7950 O   0  0  0  0  0  0  0  0  0  0  0  0
    5.4220   -3.5380   26.3730 N   0  0  0  0  0  0  0  0  0  0  0  0
    4.4830   -3.5700   27.4790 C   0  0  0  0  0  0  0  0  0  0  0  0
    5.2370   -4.2530   28.5620 C   0  0  1  0  0  0  0  0  0  0  0  0
    4.8150   -5.5210   28.7750 F   0  0  0  0  0  0  0  0  0  0  0  0
    6.4980   -4.2010   28.1650 C   0  0  0  0  0  0  0  0  0  0  0  0
    6.5130   -3.1920   27.2150 C   0  0  2  0  0  0  0  0  0  0  0  0
    6.2060   -1.9070   27.6750 C   0  0  0  0  0  0  0  0  0  0  0  0
    6.3200   -1.5700   28.9610 C   0  0  0  0  0  0  0  0  0  0  0  0
    6.0430   -0.2470   29.6140 C   0  0  0  0  0  0  0  0  0  0  0  0
    5.6130    0.5120   28.3290 C   0  0  0  0  0  0  0  0  0  0  0  0
    5.4050    0.3650   26.8110 C   0  0  0  0  0  0  0  0  0  0  0  0
    4.9980    1.2300   25.8660 F   0  0  0  0  0  0  0  0  0  0  0  0
    5.7990   -1.0420   26.7240 C   0  0  0  0  0  0  0  0  0  0  0  0
    7.1200   -3.0720   23.6280 C   0  0  0  0  0  0  0  0  0  0  0  0
    7.5450   -3.3030   22.3430 C   0  0  0  0  0  0  0  0  0  0  0  0
  1  2  1  0
  2  3  2  0
  2  4  1  0
  4  5  1  0
  5  6  1  0
  6  7  1  0
  7  8  1  0
  8  9  2  0
  8 10  1  0
 10 11  1  0
 11 12  1  0
 12 13  1  6
 12 14  1  0
 10 15  1  0
 14 15  1  0
 15 16  1  1
 16 17  2  0
 17 18  1  0
 18 19  2  0
 19 20  1  0
 20 21  1  0
 16 22  1  0
 20 22  2  0
  7 23  1  0
  4 24  1  0
 23 24  1  0
M  END
