piperidine-amides-10525-covalent
     RDKit          3D

 23 25  0  0  0  0  0  0  0  0999 V2000
    7.0460   -3.3450   19.3530 C   0  0  0  0  0  0  0  0  0  0  0  0
    6.3240   -4.1270   20.3600 C   0  0  0  0  0  0  0  0  0  0  0  0
    5.3270   -4.7740   19.9550 O   0  0  0  0  0  0  0  0  0  0  0  0
    6.7650   -4.1680   21.6840 N   0  0  0  0  0  0  0  0  0  0  0  0
    7.7020   -3.1930   22.2030 C   0  0  0  0  0  0  0  0  0  0  0  0
    7.4120   -3.0010   23.6600 C   0  0  0  0  0  0  0  0  0  0  0  0
    6.0940   -3.6280   24.0150 C   0  0  0  0  0  0  0  0  0  0  0  0
    5.6570   -3.2460   25.3850 C   0  0  0  0  0  0  0  0  0  0  0  0
    4.4290   -3.2850   25.6420 O   0  0  0  0  0  0  0  0  0  0  0  0
    6.5460   -2.8450   26.4030 N   0  0  0  0  0  0  0  0  0  0  0  0
    6.4320   -1.5770   27.1040 C   0  0  0  0  0  0  0  0  0  0  0  0
    7.0600   -1.5770   28.4760 C   0  0  0  0  0  0  0  0  0  0  0  0
    7.0130   -0.4730   29.2080 C   0  0  0  0  0  0  0  0  0  0  0  0
    6.3850    0.5760   28.6330 C   0  0  0  0  0  0  0  0  0  0  0  0
    5.8320    0.5250   27.3880 N   0  0  0  0  0  0  0  0  0  0  0  0
    5.7170   -0.4330   26.4080 C   0  0  0  0  0  0  0  0  0  0  0  0
    5.1440    0.8490   26.1270 N   0  0  0  0  0  0  0  0  0  0  0  0
    5.9670    1.8830   25.5660 C   0  0  0  0  0  0  0  0  0  0  0  0
    5.2440    3.0140   25.3770 C   0  0  0  0  0  0  0  0  0  0  0  0
    3.8280    2.7490   25.8340 C   0  0  0  0  0  0  0  0  0  0  0  0
    3.8680    1.2800   26.3160 C   0  0  0  0  0  0  0  0  0  0  0  0
    6.1320   -5.1500   23.8130 C   0  0  0  0  0  0  0  0  0  0  0  0
    6.6520   -5.4350   22.4080 C   0  0  0  0  0  0  0  0  0  0  0  0
  1  2  1  0
  2  3  2  0
  2  4  1  0
  4  5  1  0
  5  6  1  0
  6  7  1  0
  7  8  1  0
  8  9  2  0
  8 10  1  0
 10 11  1  0
 11 12  2  0
 12 13  1  0
 13 14  2  0
 14 15  1  0
 11 16  1  0
 15 16  2  0
 16 17  1  0
 17 18  1  0
 18 19  2  0
 19 20  1  0
 17 21  1  0
 20 21  2  0
  7 22  1  0
  4 23  1  0
 22 23  1  0
M  END
