piperidine-amides-11556-covalent
     RDKit          3D

 21 22  0  0  0  0  0  0  0  0999 V2000
    7.0890   -3.2940   19.2570 C   0  0  0  0  0  0  0  0  0  0  0  0
    6.3730   -4.0610   20.2790 C   0  0  0  0  0  0  0  0  0  0  0  0
    5.3570   -4.6930   19.9460 O   0  0  0  0  0  0  0  0  0  0  0  0
    6.8370   -4.1230   21.6060 N   0  0  0  0  0  0  0  0  0  0  0  0
    7.6900   -3.0760   22.1440 C   0  0  0  0  0  0  0  0  0  0  0  0
    7.4090   -2.9930   23.6200 C   0  0  0  0  0  0  0  0  0  0  0  0
    6.0820   -3.6010   23.9530 C   0  0  0  0  0  0  0  0  0  0  0  0
    5.6410   -3.4110   25.3540 C   0  0  0  0  0  0  0  0  0  0  0  0
    4.4920   -3.7960   25.7050 O   0  0  0  0  0  0  0  0  0  0  0  0
    6.4250   -2.7860   26.3430 N   0  0  0  0  0  0  0  0  0  0  0  0
    6.3370   -1.3200   26.4820 C   0  0  0  0  0  0  0  0  0  0  0  0
    6.3970   -0.9630   27.9160 C   0  0  0  0  0  0  0  0  0  0  0  0
    7.4080   -1.4440   29.2070 S   0  0  0  0  0  0  0  0  0  0  0  0
    6.7780   -0.5430   30.4970 N   0  0  0  0  0  0  0  0  0  0  0  0
    5.7060    0.2040   29.9580 C   0  0  0  0  0  0  0  0  0  0  0  0
    4.9360    1.0110   30.5120 O   0  0  0  0  0  0  0  0  0  0  0  0
    5.2320    1.1820   31.8620 C   0  0  0  0  0  0  0  0  0  0  0  0
    5.4590   -0.0010   28.5160 C   0  0  0  0  0  0  0  0  0  0  0  0
    4.0620    0.9040   27.5520 Br  0  0  0  0  0  0  0  0  0  0  0  0
    6.1130   -5.0580   23.6300 C   0  0  0  0  0  0  0  0  0  0  0  0
    6.5110   -5.3070   22.3400 C   0  0  0  0  0  0  0  0  0  0  0  0
  1  2  1  0
  2  3  2  0
  2  4  1  0
  4  5  1  0
  5  6  1  0
  6  7  1  0
  7  8  1  0
  8  9  2  0
  8 10  1  0
 10 11  1  0
 11 12  1  0
 12 13  1  0
 13 14  1  0
 14 15  2  0
 15 16  1  0
 16 17  1  0
 12 18  2  0
 15 18  1  0
 18 19  1  0
  7 20  1  0
  4 21  1  0
 20 21  1  0
M  END
