piperidine-amides-31907-covalent
     RDKit          3D

 28 30  0  0  0  0  0  0  0  0999 V2000
    7.0150   -3.4190   19.3810 C   0  0  0  0  0  0  0  0  0  0  0  0
    6.3850   -4.2190   20.4140 C   0  0  0  0  0  0  0  0  0  0  0  0
    5.4400   -4.9760   20.0230 O   0  0  0  0  0  0  0  0  0  0  0  0
    6.7890   -4.2230   21.7800 N   0  0  0  0  0  0  0  0  0  0  0  0
    7.7370   -3.1290   22.1920 C   0  0  0  0  0  0  0  0  0  0  0  0
    7.6520   -3.1110   23.7660 C   0  0  0  0  0  0  0  0  0  0  0  0
    6.2710   -3.6130   24.0160 C   0  0  0  0  0  0  0  0  0  0  0  0
    5.4490   -2.8230   25.1410 C   0  0  0  0  0  0  0  0  0  0  0  0
    4.7080   -2.0480   24.5610 O   0  0  0  0  0  0  0  0  0  0  0  0
    5.6910   -3.1530   26.3590 N   0  0  0  0  0  0  0  0  0  0  0  0
    5.5010   -3.8430   27.5330 C   0  0  0  0  0  0  0  0  0  0  0  0
    4.6680   -3.6580   28.6630 C   0  0  0  0  0  0  0  0  0  0  0  0
    4.8020   -4.6510   29.6210 C   0  0  0  0  0  0  0  0  0  0  0  0
    5.7730   -5.4760   29.0270 C   0  0  0  0  0  0  0  0  0  0  0  0
    6.0010   -6.6400   30.0140 C   0  0  0  0  0  0  0  0  0  0  0  0
    6.1690   -7.9590   29.5580 O   0  0  0  0  0  0  0  0  0  0  0  0
    6.0390   -6.5160   31.2750 O   0  0  0  0  0  0  0  0  0  0  0  0
    5.4640   -7.5620   31.9680 C   0  0  0  0  0  0  0  0  0  0  0  0
    6.1890   -5.0060   27.8060 O   0  0  0  0  0  0  0  0  0  0  0  0
    6.3340   -2.0350   27.0670 C   0  0  0  0  0  0  0  0  0  0  0  0
    5.5790   -0.7930   26.5660 C   0  0  0  0  0  0  0  0  0  0  0  0
    5.8070    0.4370   27.5220 C   0  0  0  0  0  0  0  0  0  0  0  0
    6.0490   -0.0350   28.8670 N   0  0  0  0  0  0  0  0  0  0  0  0
    6.3120    1.0690   29.7310 C   0  0  0  0  0  0  0  0  0  0  0  0
    7.0960   -0.9940   28.9250 C   0  0  0  0  0  0  0  0  0  0  0  0
    6.5340   -2.1030   28.4160 C   0  0  0  0  0  0  0  0  0  0  0  0
    6.0740   -5.0680   23.8170 C   0  0  0  0  0  0  0  0  0  0  0  0
    6.6510   -5.4260   22.5890 C   0  0  0  0  0  0  0  0  0  0  0  0
  1  2  1  0
  2  3  2  0
  2  4  1  0
  4  5  1  0
  5  6  1  0
  6  7  1  0
  7  8  1  0
  8  9  2  0
  8 10  1  0
 10 11  1  0
 11 12  2  0
 12 13  1  0
 13 14  2  0
 14 15  1  0
 15 16  2  0
 15 17  1  0
 17 18  1  0
 11 19  1  0
 14 19  1  0
 10 20  1  0
 20 21  1  0
 21 22  1  0
 22 23  1  0
 23 24  1  0
 23 25  1  0
 20 26  1  0
 25 26  1  0
  7 27  1  0
  4 28  1  0
 27 28  1  0
M  END
