piperidine-amides-32342-covalent
     RDKit          3D

 28 30  0  0  0  0  0  0  0  0999 V2000
    7.1360   -3.3680   19.3550 C   0  0  0  0  0  0  0  0  0  0  0  0
    6.4060   -4.2020   20.3400 C   0  0  0  0  0  0  0  0  0  0  0  0
    5.3760   -4.8000   19.9780 O   0  0  0  0  0  0  0  0  0  0  0  0
    6.9500   -4.3280   21.6400 N   0  0  0  0  0  0  0  0  0  0  0  0
    7.8030   -3.3170   22.1970 C   0  0  0  0  0  0  0  0  0  0  0  0
    6.9510   -2.5890   23.2250 C   0  0  0  0  0  0  0  0  0  0  0  0
    6.5720   -3.5870   24.2610 C   0  0  0  0  0  0  0  0  0  0  0  0
    5.7390   -2.9420   25.3030 C   0  0  0  0  0  0  0  0  0  0  0  0
    4.6770   -2.4650   24.8930 O   0  0  0  0  0  0  0  0  0  0  0  0
    6.1020   -2.8790   26.6570 N   0  0  0  0  0  0  0  0  0  0  0  0
    6.0310   -1.6220   27.3720 C   0  0  2  0  0  0  0  0  0  0  0  0
    5.7780   -0.4050   26.7200 C   0  0  0  0  0  0  0  0  0  0  0  0
    6.1260    0.6950   27.5290 C   0  0  0  0  0  0  0  0  0  0  0  0
    6.9320    0.1990   28.5130 O   0  0  0  0  0  0  0  0  0  0  0  0
    7.0350   -1.1510   28.2800 C   0  0  0  0  0  0  0  0  0  0  0  0
    5.6210   -4.0140   27.4030 C   0  0  0  0  0  0  0  0  0  0  0  0
    4.1390   -3.9580   27.5810 C   0  0  0  0  0  0  0  0  0  0  0  0
    4.3530   -3.5740   28.9130 N   0  0  0  0  0  0  0  0  0  0  0  0
    3.4880   -3.9510   29.9770 C   0  0  0  0  0  0  0  0  0  0  0  0
    2.6920   -5.0850   29.9850 O   0  0  0  0  0  0  0  0  0  0  0  0
    3.4060   -3.1620   31.0870 O   0  0  0  0  0  0  0  0  0  0  0  0
    3.1890   -1.8410   31.2460 C   0  0  0  0  0  0  0  0  0  0  0  0
    4.4730   -1.0970   31.1420 C   0  0  0  0  0  0  0  0  0  0  0  0
    2.0660   -1.1800   30.7480 C   0  0  0  0  0  0  0  0  0  0  0  0
    3.2610   -1.5660   32.7560 C   0  0  0  0  0  0  0  0  0  0  0  0
    5.8100   -3.7870   28.8560 C   0  0  0  0  0  0  0  0  0  0  0  0
    5.8960   -4.8350   23.7540 C   0  0  0  0  0  0  0  0  0  0  0  0
    6.5890   -5.4180   22.5130 C   0  0  0  0  0  0  0  0  0  0  0  0
  1  2  1  0
  2  3  2  0
  2  4  1  0
  4  5  1  0
  5  6  1  0
  6  7  1  0
  7  8  1  0
  8  9  2  0
  8 10  1  0
 11 10  1  6
 11 12  1  0
 12 13  1  0
 13 14  1  0
 11 15  1  0
 14 15  1  0
 10 16  1  0
 16 17  1  0
 17 18  1  0
 18 19  1  0
 19 20  2  0
 19 21  1  0
 22 21  1  0
 22 23  1  0
 22 24  1  0
 22 25  1  0
 16 26  1  0
 18 26  1  0
  7 27  1  0
  4 28  1  0
 27 28  1  0
M  END
