piperidine-amides-13015-covalent
     RDKit          3D

 23 24  0  0  0  0  0  0  0  0999 V2000
    7.1520   -3.2720   19.1980 C   0  0  0  0  0  0  0  0  0  0  0  0
    6.4070   -4.0360   20.2200 C   0  0  0  0  0  0  0  0  0  0  0  0
    5.3050   -4.5120   19.8770 O   0  0  0  0  0  0  0  0  0  0  0  0
    6.9640   -4.2530   21.4860 N   0  0  0  0  0  0  0  0  0  0  0  0
    6.4410   -5.2700   22.3310 C   0  0  0  0  0  0  0  0  0  0  0  0
    5.5730   -4.7230   23.3700 C   0  0  0  0  0  0  0  0  0  0  0  0
    5.7890   -3.2750   23.6290 C   0  0  0  0  0  0  0  0  0  0  0  0
    5.3670   -2.9250   24.9990 C   0  0  0  0  0  0  0  0  0  0  0  0
    4.1870   -2.5890   25.1820 O   0  0  0  0  0  0  0  0  0  0  0  0
    6.2620   -2.9860   26.0650 N   0  0  0  0  0  0  0  0  0  0  0  0
    6.3580   -4.2160   26.8500 C   0  0  2  0  0  0  0  0  0  0  0  0
    7.2600   -5.1930   26.1910 C   0  0  0  0  0  0  0  0  0  0  0  0
    7.4680   -5.2240   24.9470 O   0  0  0  0  0  0  0  0  0  0  0  0
    7.8830   -6.0820   27.0460 N   0  0  0  0  0  0  0  0  0  0  0  0
    9.1200   -5.5390   27.4460 C   0  0  0  0  0  0  0  0  0  0  0  0
    8.5700   -4.5840   28.2530 C   0  0  0  0  0  0  0  0  0  0  0  0
    7.3140   -4.9720   28.6340 C   0  0  0  0  0  0  0  0  0  0  0  0
    7.1780   -6.2350   28.1810 C   0  0  0  0  0  0  0  0  0  0  0  0
    5.0440   -4.8500   27.1430 C   0  0  0  0  0  0  0  0  0  0  0  0
    4.6340   -4.6960   28.4480 C   0  0  0  0  0  0  0  0  0  0  0  0
    4.8570   -6.2190   26.9530 C   0  0  0  0  0  0  0  0  0  0  0  0
    7.1510   -2.7380   23.3800 C   0  0  0  0  0  0  0  0  0  0  0  0
    7.7990   -3.2370   22.1190 C   0  0  0  0  0  0  0  0  0  0  0  0
  1  2  1  0
  2  3  2  0
  2  4  1  0
  4  5  1  0
  5  6  1  0
  6  7  1  0
  7  8  1  0
  8  9  2  0
  8 10  1  0
 11 10  1  6
 11 12  1  0
 12 13  2  0
 12 14  1  0
 14 15  1  0
 15 16  1  0
 16 17  1  0
 14 18  1  0
 17 18  1  0
 11 19  1  0
 19 20  1  0
 19 21  1  0
  7 22  1  0
  4 23  1  0
 22 23  1  0
M  END
