piperidine-amides-32693-covalent
     RDKit          3D

 28 30  0  0  0  0  0  0  0  0999 V2000
    7.1650   -3.2800   19.1990 C   0  0  0  0  0  0  0  0  0  0  0  0
    6.3330   -4.0070   20.1940 C   0  0  0  0  0  0  0  0  0  0  0  0
    5.2490   -4.5010   19.8570 O   0  0  0  0  0  0  0  0  0  0  0  0
    6.8460   -4.1530   21.4900 N   0  0  0  0  0  0  0  0  0  0  0  0
    7.7410   -3.1660   22.0400 C   0  0  0  0  0  0  0  0  0  0  0  0
    7.0770   -2.6560   23.3020 C   0  0  0  0  0  0  0  0  0  0  0  0
    6.8420   -3.8550   24.1540 C   0  0  0  0  0  0  0  0  0  0  0  0
    6.2350   -3.4610   25.4260 C   0  0  0  0  0  0  0  0  0  0  0  0
    5.0010   -3.5540   25.5330 O   0  0  0  0  0  0  0  0  0  0  0  0
    7.0920   -2.9910   26.4210 N   0  0  0  0  0  0  0  0  0  0  0  0
    7.7200   -1.7140   26.3680 C   0  0  0  0  0  0  0  0  0  0  0  0
    7.1170   -3.6180   27.6850 C   0  0  1  0  0  0  0  0  0  0  0  0
    8.0910   -4.5980   27.9510 C   0  0  0  0  0  0  0  0  0  0  0  0
    7.0970   -2.4560   28.6390 C   0  0  0  0  0  0  0  0  0  0  0  0
    8.3720   -1.3400   29.1640 S   0  0  0  0  0  0  0  0  0  0  0  0
    7.5260   -0.2670   30.3010 C   0  0  0  0  0  0  0  0  0  0  0  0
    8.1790    0.8880   31.0630 C   0  0  0  0  0  0  0  0  0  0  0  0
    9.6910    0.9620   30.7660 C   0  0  0  0  0  0  0  0  0  0  0  0
   10.4820    1.9260   31.3490 C   0  0  0  0  0  0  0  0  0  0  0  0
    9.9180    2.9230   32.2800 C   0  0  0  0  0  0  0  0  0  0  0  0
   11.0510    3.8170   32.7300 C   0  0  0  0  0  0  0  0  0  0  0  0
    8.4630    2.9190   32.6170 C   0  0  0  0  0  0  0  0  0  0  0  0
    7.5270    1.8620   31.9920 C   0  0  0  0  0  0  0  0  0  0  0  0
    6.2310   -0.8050   30.2410 N   0  0  0  0  0  0  0  0  0  0  0  0
    6.0350   -1.9490   29.3620 C   0  0  0  0  0  0  0  0  0  0  0  0
    4.5840   -2.4340   29.3880 C   0  0  0  0  0  0  0  0  0  0  0  0
    5.8980   -4.8650   23.5400 C   0  0  0  0  0  0  0  0  0  0  0  0
    6.3260   -5.2190   22.2740 C   0  0  0  0  0  0  0  0  0  0  0  0
  1  2  1  0
  2  3  2  0
  2  4  1  0
  4  5  1  0
  5  6  1  0
  6  7  1  0
  7  8  1  0
  8  9  2  0
  8 10  1  0
 10 11  1  0
 10 12  1  0
 12 13  1  6
 12 14  1  0
 14 15  1  0
 15 16  1  0
 16 17  1  0
 17 18  2  0
 18 19  1  0
 19 20  2  0
 20 21  1  0
 20 22  1  0
 17 23  1  0
 22 23  2  0
 16 24  2  0
 14 25  2  0
 24 25  1  0
 25 26  1  0
  7 27  1  0
  4 28  1  0
 27 28  1  0
M  END
