piperidine-amides-18992-covalent
     RDKit          3D

 21 23  0  0  0  0  0  0  0  0999 V2000
    7.1720   -3.2090   19.2470 C   0  0  0  0  0  0  0  0  0  0  0  0
    6.3600   -3.8950   20.2270 C   0  0  0  0  0  0  0  0  0  0  0  0
    5.3000   -4.4830   19.8520 O   0  0  0  0  0  0  0  0  0  0  0  0
    6.7220   -3.9810   21.5750 N   0  0  0  0  0  0  0  0  0  0  0  0
    6.5330   -5.3490   22.0950 C   0  0  0  0  0  0  0  0  0  0  0  0
    7.0610   -5.1700   23.5410 C   0  0  0  0  0  0  0  0  0  0  0  0
    6.4650   -3.8830   24.0350 C   0  0  0  0  0  0  0  0  0  0  0  0
    6.0330   -4.2690   25.4930 C   0  0  0  0  0  0  0  0  0  0  0  0
    6.1000   -5.4630   25.5450 O   0  0  0  0  0  0  0  0  0  0  0  0
    5.6600   -3.3670   26.2780 N   0  0  0  0  0  0  0  0  0  0  0  0
    4.8350   -2.6170   26.8870 C   0  0  0  0  0  0  0  0  0  0  0  0
    4.6110   -3.3760   27.9150 C   0  0  0  0  0  0  0  0  0  0  0  0
    5.9190   -3.9680   27.6610 C   0  0  2  0  0  0  0  0  0  0  0  0
    6.6740   -3.5060   28.8320 C   0  0  0  0  0  0  0  0  0  0  0  0
    6.5440   -5.0310   28.9270 C   0  0  1  0  0  0  0  0  0  0  0  0
    5.1580   -5.2200   29.1580 C   0  0  0  0  0  0  0  0  0  0  0  0
    4.5540   -4.0230   29.5200 F   0  0  0  0  0  0  0  0  0  0  0  0
    4.9300   -6.1010   30.2310 F   0  0  0  0  0  0  0  0  0  0  0  0
    5.7110   -5.4750   27.7730 C   0  0  0  0  0  0  0  0  0  0  0  0
    7.1490   -2.7120   23.6240 C   0  0  0  0  0  0  0  0  0  0  0  0
    7.6810   -3.1150   22.2020 C   0  0  0  0  0  0  0  0  0  0  0  0
  1  2  1  0
  2  3  2  0
  2  4  1  0
  4  5  1  0
  5  6  1  0
  6  7  1  0
  7  8  1  0
  8  9  2  0
  8 10  1  0
 10 11  1  0
 11 12  1  0
 13 10  1  0
 13 12  1  1
 13 14  1  0
 14 15  1  0
 15 16  1  1
 16 17  1  0
 16 18  1  0
 13 19  1  0
 15 19  1  0
  7 20  1  0
  4 21  1  0
 20 21  1  0
M  END
