piperidine-amides-8609-covalent
     RDKit          3D

 23 25  0  0  0  0  0  0  0  0999 V2000
    7.0970   -3.3450   19.3140 C   0  0  0  0  0  0  0  0  0  0  0  0
    6.4320   -4.1910   20.2970 C   0  0  0  0  0  0  0  0  0  0  0  0
    5.3730   -4.7520   19.9640 O   0  0  0  0  0  0  0  0  0  0  0  0
    7.0280   -4.4060   21.5620 N   0  0  0  0  0  0  0  0  0  0  0  0
    7.6770   -3.2990   22.1970 C   0  0  0  0  0  0  0  0  0  0  0  0
    6.7530   -2.7560   23.2360 C   0  0  0  0  0  0  0  0  0  0  0  0
    6.5250   -3.8720   24.2310 C   0  0  0  0  0  0  0  0  0  0  0  0
    5.6700   -3.3560   25.3400 C   0  0  0  0  0  0  0  0  0  0  0  0
    4.4710   -3.2460   25.0970 O   0  0  0  0  0  0  0  0  0  0  0  0
    6.2730   -3.0420   26.5420 N   0  0  0  0  0  0  0  0  0  0  0  0
    6.1920   -1.7350   27.0910 C   0  0  0  0  0  0  0  0  0  0  0  0
    6.5160   -0.4690   26.5700 C   0  0  0  0  0  0  0  0  0  0  0  0
    6.4180    0.7840   27.1760 C   0  0  0  0  0  0  0  0  0  0  0  0
    5.9740    1.0710   28.4460 C   0  0  0  0  0  0  0  0  0  0  0  0
    5.5600   -0.1530   29.1390 C   0  0  0  0  0  0  0  0  0  0  0  0
    4.9960   -0.0230   30.5700 C   0  0  0  0  0  0  0  0  0  0  0  0
    4.5080   -1.1370   31.3930 C   0  0  0  0  0  0  0  0  0  0  0  0
    4.6160   -2.4520   30.6970 C   0  0  0  0  0  0  0  0  0  0  0  0
    5.2090   -2.5070   29.2700 C   0  0  0  0  0  0  0  0  0  0  0  0
    5.2680   -3.6630   28.7680 O   0  0  0  0  0  0  0  0  0  0  0  0
    5.6710   -1.4860   28.4660 C   0  0  0  0  0  0  0  0  0  0  0  0
    5.7830   -4.9870   23.5520 C   0  0  0  0  0  0  0  0  0  0  0  0
    6.4880   -5.4950   22.3290 C   0  0  0  0  0  0  0  0  0  0  0  0
  1  2  1  0
  2  3  2  0
  2  4  1  0
  4  5  1  0
  5  6  1  0
  6  7  1  0
  7  8  1  0
  8  9  2  0
  8 10  1  0
 10 11  1  0
 11 12  2  0
 12 13  1  0
 13 14  2  0
 14 15  1  0
 15 16  1  0
 16 17  2  0
 17 18  1  0
 18 19  2  0
 19 20  1  0
 11 21  1  0
 15 21  2  0
 19 21  1  0
  7 22  1  0
  4 23  1  0
 22 23  1  0
M  END
