piperidine-amides-25914-covalent
     RDKit          3D

 25 27  0  0  0  0  0  0  0  0999 V2000
    7.1000   -3.3350   19.3160 C   0  0  0  0  0  0  0  0  0  0  0  0
    6.4230   -4.2100   20.3040 C   0  0  0  0  0  0  0  0  0  0  0  0
    5.3750   -4.7520   19.9590 O   0  0  0  0  0  0  0  0  0  0  0  0
    7.0220   -4.4270   21.5470 N   0  0  0  0  0  0  0  0  0  0  0  0
    6.6340   -5.5240   22.3870 C   0  0  0  0  0  0  0  0  0  0  0  0
    5.8270   -4.9750   23.5270 C   0  0  0  0  0  0  0  0  0  0  0  0
    6.5640   -3.8140   24.2160 C   0  0  0  0  0  0  0  0  0  0  0  0
    5.6730   -3.2680   25.2510 C   0  0  0  0  0  0  0  0  0  0  0  0
    4.9200   -2.3330   24.9670 O   0  0  0  0  0  0  0  0  0  0  0  0
    5.6220   -3.7850   26.5490 N   0  0  0  0  0  0  0  0  0  0  0  0
    4.3600   -3.7330   27.2210 C   0  0  0  0  0  0  0  0  0  0  0  0
    4.3340   -4.8830   28.2010 C   0  0  0  0  0  0  0  0  0  0  0  0
    5.2840   -4.5780   29.2560 N   0  0  0  0  0  0  0  0  0  0  0  0
    5.0910   -5.6360   30.2380 C   0  0  0  0  0  0  0  0  0  0  0  0
    5.9880   -6.6440   30.1910 C   0  0  0  0  0  0  0  0  0  0  0  0
    5.8810   -7.6520   31.0850 C   0  0  0  0  0  0  0  0  0  0  0  0
    4.9280   -7.9480   32.2050 C   0  0  0  0  0  0  0  0  0  0  0  0
    3.9220   -6.8650   32.2740 C   0  0  0  0  0  0  0  0  0  0  0  0
    2.9030   -6.8260   33.1730 O   0  0  0  0  0  0  0  0  0  0  0  0
    2.5420   -8.0800   33.6630 C   0  0  0  0  0  0  0  0  0  0  0  0
    3.9840   -5.7070   31.3080 C   0  0  0  0  0  0  0  0  0  0  0  0
    6.5260   -4.5840   28.5710 C   0  0  0  0  0  0  0  0  0  0  0  0
    6.4350   -3.3800   27.6590 C   0  0  0  0  0  0  0  0  0  0  0  0
    6.9050   -2.7230   23.2330 C   0  0  0  0  0  0  0  0  0  0  0  0
    7.7600   -3.3750   22.2030 C   0  0  0  0  0  0  0  0  0  0  0  0
  1  2  1  0
  2  3  2  0
  2  4  1  0
  4  5  1  0
  5  6  1  0
  6  7  1  0
  7  8  1  0
  8  9  2  0
  8 10  1  0
 10 11  1  0
 11 12  1  0
 12 13  1  0
 13 14  1  0
 14 15  2  0
 15 16  1  0
 16 17  2  0
 17 18  1  0
 18 19  1  0
 19 20  1  0
 14 21  1  0
 18 21  2  0
 13 22  1  0
 10 23  1  0
 22 23  1  0
  7 24  1  0
  4 25  1  0
 24 25  1  0
M  END
