piperidine-amides-10588-covalent
     RDKit          3D

 23 24  0  0  0  0  0  0  0  0999 V2000
    7.0900   -3.2680   19.1940 C   0  0  0  0  0  0  0  0  0  0  0  0
    6.3250   -4.0180   20.1980 C   0  0  0  0  0  0  0  0  0  0  0  0
    5.2250   -4.5000   19.8430 O   0  0  0  0  0  0  0  0  0  0  0  0
    6.8450   -4.2100   21.4650 N   0  0  0  0  0  0  0  0  0  0  0  0
    7.6560   -3.2040   22.0900 C   0  0  0  0  0  0  0  0  0  0  0  0
    7.3040   -3.2080   23.5310 C   0  0  0  0  0  0  0  0  0  0  0  0
    5.9060   -3.6720   23.7850 C   0  0  0  0  0  0  0  0  0  0  0  0
    5.6210   -3.5250   25.2180 C   0  0  0  0  0  0  0  0  0  0  0  0
    4.4380   -3.3220   25.5750 O   0  0  0  0  0  0  0  0  0  0  0  0
    6.6470   -3.5860   26.1720 N   0  0  0  0  0  0  0  0  0  0  0  0
    6.6540   -4.4950   27.2960 C   0  0  2  0  0  0  0  0  0  0  0  0
    5.7290   -5.6740   27.0690 C   0  0  0  0  0  0  0  0  0  0  0  0
    5.1540   -6.4060   28.0870 C   0  0  0  0  0  0  0  0  0  0  0  0
    5.6720   -6.6260   29.3390 C   0  0  0  0  0  0  0  0  0  0  0  0
    4.8110   -7.3820   30.0300 N   0  0  0  0  0  0  0  0  0  0  0  0
    3.7450   -7.6780   29.2960 C   0  0  0  0  0  0  0  0  0  0  0  0
    3.9590   -7.0410   28.0210 N   0  0  0  0  0  0  0  0  0  0  0  0
    6.5340   -3.9360   28.5580 C   0  0  0  0  0  0  0  0  0  0  0  0
    6.2520   -2.9050   29.4650 O   0  0  0  0  0  0  0  0  0  0  0  0
    6.2260   -3.0470   27.7210 O   0  0  0  0  0  0  0  0  0  0  0  0
    6.7300   -1.7270   27.8760 C   0  0  0  0  0  0  0  0  0  0  0  0
    5.7400   -5.1430   23.3910 C   0  0  0  0  0  0  0  0  0  0  0  0
    6.5900   -5.4460   22.1600 C   0  0  0  0  0  0  0  0  0  0  0  0
  1  2  1  0
  2  3  2  0
  2  4  1  0
  4  5  1  0
  5  6  1  0
  6  7  1  0
  7  8  1  0
  8  9  2  0
  8 10  1  0
 10 11  1  0
 11 12  1  6
 12 13  1  0
 13 14  2  0
 14 15  1  0
 15 16  1  0
 13 17  1  0
 16 17  2  0
 11 18  1  0
 18 19  2  0
 18 20  1  0
 20 21  1  0
  7 22  1  0
  4 23  1  0
 22 23  1  0
M  END
