piperidine-amides-4097-covalent
     RDKit          3D

 27 29  0  0  0  0  0  0  0  0999 V2000
    7.1290   -3.3090   19.2730 C   0  0  0  0  0  0  0  0  0  0  0  0
    6.3710   -4.0540   20.2870 C   0  0  0  0  0  0  0  0  0  0  0  0
    5.2890   -4.5620   19.9040 O   0  0  0  0  0  0  0  0  0  0  0  0
    6.8720   -4.2480   21.6070 N   0  0  0  0  0  0  0  0  0  0  0  0
    7.6180   -3.1930   22.2250 C   0  0  0  0  0  0  0  0  0  0  0  0
    7.2320   -2.9220   23.6080 C   0  0  0  0  0  0  0  0  0  0  0  0
    6.0120   -3.6340   24.0260 C   0  0  0  0  0  0  0  0  0  0  0  0
    5.5750   -3.2880   25.4230 C   0  0  0  0  0  0  0  0  0  0  0  0
    4.3880   -2.9620   25.6030 O   0  0  0  0  0  0  0  0  0  0  0  0
    6.4440   -3.3110   26.5330 N   0  0  0  0  0  0  0  0  0  0  0  0
    6.2510   -3.8930   27.8210 C   0  0  0  0  0  0  0  0  0  0  0  0
    6.4560   -5.3190   28.1060 C   0  0  0  0  0  0  0  0  0  0  0  0
    5.2780   -5.8920   28.9240 C   0  0  0  0  0  0  0  0  0  0  0  0
    4.0580   -5.2420   28.8410 C   0  0  0  0  0  0  0  0  0  0  0  0
    3.2920   -6.4360   29.4200 C   0  0  0  0  0  0  0  0  0  0  0  0
    2.4200   -7.3620   28.7730 N   0  0  0  0  0  0  0  0  0  0  0  0
    2.0620   -8.2100   29.9060 C   0  0  0  0  0  0  0  0  0  0  0  0
    1.1290   -9.2180   29.2210 C   0  0  0  0  0  0  0  0  0  0  0  0
    0.7900   -9.5560   27.8060 C   0  0  0  0  0  0  0  0  0  0  0  0
   -0.2330  -10.6860   27.7400 C   0  0  0  0  0  0  0  0  0  0  0  0
   -0.8180  -11.3650   29.0130 C   0  0  0  0  0  0  0  0  0  0  0  0
   -0.4400  -10.9760   30.2510 N   0  0  0  0  0  0  0  0  0  0  0  0
    0.5370   -9.8990   30.3890 C   0  0  0  0  0  0  0  0  0  0  0  0
    2.4860   -8.0880   31.2200 C   0  0  0  0  0  0  0  0  0  0  0  0
    3.5050   -6.7160   31.1070 S   0  0  0  0  0  0  0  0  0  0  0  0
    6.0530   -5.0990   23.7430 C   0  0  0  0  0  0  0  0  0  0  0  0
    6.5220   -5.4340   22.3410 C   0  0  0  0  0  0  0  0  0  0  0  0
  1  2  1  0
  2  3  2  0
  2  4  1  0
  4  5  1  0
  5  6  1  0
  6  7  1  0
  7  8  1  0
  8  9  2  0
  8 10  1  0
 10 11  1  0
 11 12  1  0
 12 13  1  0
 13 14  1  0
 14 15  1  0
 15 16  2  0
 16 17  1  0
 17 18  1  0
 18 19  2  0
 19 20  1  0
 20 21  2  0
 21 22  1  0
 18 23  1  0
 22 23  2  0
 17 24  2  0
 15 25  1  0
 24 25  1  0
  7 26  1  0
  4 27  1  0
 26 27  1  0
M  END
