piperidine-amides-2383-covalent
     RDKit          3D

 27 29  0  0  0  0  0  0  0  0999 V2000
    7.0610   -3.3240   19.3190 C   0  0  0  0  0  0  0  0  0  0  0  0
    6.3920   -4.1800   20.3310 C   0  0  0  0  0  0  0  0  0  0  0  0
    5.3920   -4.8030   19.9710 O   0  0  0  0  0  0  0  0  0  0  0  0
    6.9250   -4.2880   21.6170 N   0  0  0  0  0  0  0  0  0  0  0  0
    7.7380   -3.2230   22.1620 C   0  0  0  0  0  0  0  0  0  0  0  0
    7.5090   -3.1130   23.6370 C   0  0  0  0  0  0  0  0  0  0  0  0
    6.1080   -3.6210   23.9680 C   0  0  0  0  0  0  0  0  0  0  0  0
    5.8340   -3.3080   25.3770 C   0  0  0  0  0  0  0  0  0  0  0  0
    4.6920   -3.4790   25.8280 O   0  0  0  0  0  0  0  0  0  0  0  0
    6.8610   -2.8120   26.2030 N   0  0  0  0  0  0  0  0  0  0  0  0
    6.6380   -1.5880   26.9450 C   0  0  0  0  0  0  0  0  0  0  0  0
    7.2250   -1.5670   28.3200 C   0  0  0  0  0  0  0  0  0  0  0  0
    7.1680   -0.5490   29.2420 C   0  0  0  0  0  0  0  0  0  0  0  0
    6.5000    0.6130   28.9000 C   0  0  0  0  0  0  0  0  0  0  0  0
    5.9180    0.7100   27.6490 C   0  0  0  0  0  0  0  0  0  0  0  0
    5.9920   -0.4230   26.6570 C   0  0  0  0  0  0  0  0  0  0  0  0
    5.2530    0.0470   25.4340 C   0  0  0  0  0  0  0  0  0  0  0  0
    4.4410    1.1970   25.8580 N   0  0  0  0  0  0  0  0  0  0  0  0
    4.0360    1.8580   24.6630 C   0  0  0  0  0  0  0  0  0  0  0  0
    2.6150    2.3130   24.7540 C   0  0  1  0  0  0  0  0  0  0  0  0
    2.0560    2.7210   23.4310 C   0  0  0  0  0  0  0  0  0  0  0  0
    1.7700    1.3480   25.3680 O   0  0  0  0  0  0  0  0  0  0  0  0
    2.3860    0.2500   25.9470 C   0  0  2  0  0  0  0  0  0  0  0  0
    1.4140   -0.6340   26.6500 C   0  0  0  0  0  0  0  0  0  0  0  0
    3.4590    0.6890   26.7170 C   0  0  0  0  0  0  0  0  0  0  0  0
    6.0840   -5.1120   23.7360 C   0  0  0  0  0  0  0  0  0  0  0  0
    6.6120   -5.4680   22.3700 C   0  0  0  0  0  0  0  0  0  0  0  0
  1  2  1  0
  2  3  2  0
  2  4  1  0
  4  5  1  0
  5  6  1  0
  6  7  1  0
  7  8  1  0
  8  9  2  0
  8 10  1  0
 10 11  1  0
 11 12  2  0
 12 13  1  0
 13 14  2  0
 14 15  1  0
 11 16  1  0
 15 16  2  0
 16 17  1  0
 17 18  1  0
 18 19  1  0
 19 20  1  0
 20 21  1  6
 20 22  1  0
 22 23  1  0
 23 24  1  1
 18 25  1  0
 23 25  1  0
  7 26  1  0
  4 27  1  0
 26 27  1  0
M  END
