piperidine-amides-25490-covalent
     RDKit          3D

 25 26  0  0  0  0  0  0  0  0999 V2000
    7.0750   -3.2300   19.2100 C   0  0  0  0  0  0  0  0  0  0  0  0
    6.3050   -3.9810   20.2380 C   0  0  0  0  0  0  0  0  0  0  0  0
    5.2680   -4.5270   19.8700 O   0  0  0  0  0  0  0  0  0  0  0  0
    6.7720   -4.0930   21.5510 N   0  0  0  0  0  0  0  0  0  0  0  0
    7.5960   -3.0920   22.1800 C   0  0  0  0  0  0  0  0  0  0  0  0
    7.2780   -3.0030   23.6500 C   0  0  0  0  0  0  0  0  0  0  0  0
    5.8540   -3.4700   23.9200 C   0  0  0  0  0  0  0  0  0  0  0  0
    5.4080   -3.2050   25.3270 C   0  0  0  0  0  0  0  0  0  0  0  0
    4.2090   -3.3890   25.5650 O   0  0  0  0  0  0  0  0  0  0  0  0
    6.1990   -2.7430   26.4220 N   0  0  0  0  0  0  0  0  0  0  0  0
    6.8820   -1.5090   26.1740 C   0  0  0  0  0  0  0  0  0  0  0  0
    5.4940   -2.7270   27.6760 C   0  0  0  0  0  0  0  0  0  0  0  0
    5.8490   -3.6300   28.6380 C   0  0  0  0  0  0  0  0  0  0  0  0
    4.8880   -4.0760   29.4010 O   0  0  0  0  0  0  0  0  0  0  0  0
    4.6180   -5.4030   29.1120 C   0  0  0  0  0  0  0  0  0  0  0  0
    5.5500   -5.5520   28.1870 C   0  0  0  0  0  0  0  0  0  0  0  0
    5.2420   -5.3920   26.7110 C   0  0  0  0  0  0  0  0  0  0  0  0
    6.4460   -5.5270   25.8540 C   0  0  0  0  0  0  0  0  0  0  0  0
    7.7670   -5.7990   26.4790 C   0  0  0  0  0  0  0  0  0  0  0  0
    8.8120   -5.8670   25.4680 C   0  0  0  0  0  0  0  0  0  0  0  0
    8.2500   -5.1200   24.4180 N   0  0  0  0  0  0  0  0  0  0  0  0
    8.0960   -5.9840   27.9040 C   0  0  0  0  0  0  0  0  0  0  0  0
    6.8970   -5.8450   28.7600 C   0  0  0  0  0  0  0  0  0  0  0  0
    5.6980   -4.9440   23.5600 C   0  0  0  0  0  0  0  0  0  0  0  0
    6.4850   -5.2770   22.3190 C   0  0  0  0  0  0  0  0  0  0  0  0
  1  2  1  0
  2  3  2  0
  2  4  1  0
  4  5  1  0
  5  6  1  0
  6  7  1  0
  7  8  1  0
  8  9  2  0
  8 10  1  0
 10 11  1  0
 10 12  1  0
 12 13  1  0
 13 14  1  0
 14 15  1  0
 15 16  1  0
 16 17  2  0
 17 18  1  0
 18 19  2  0
 19 20  1  0
 20 21  3  0
 19 22  1  0
 16 23  1  0
 22 23  2  0
  7 24  1  0
  4 25  1  0
 24 25  1  0
M  END
