piperidine-amides-10371-covalent
     RDKit          3D

 24 26  0  0  0  0  0  0  0  0999 V2000
    7.1350   -3.2970   19.2240 C   0  0  0  0  0  0  0  0  0  0  0  0
    6.3510   -4.0140   20.2260 C   0  0  0  0  0  0  0  0  0  0  0  0
    5.2520   -4.5010   19.8600 O   0  0  0  0  0  0  0  0  0  0  0  0
    6.8700   -4.1760   21.5060 N   0  0  0  0  0  0  0  0  0  0  0  0
    7.7110   -3.1680   22.1060 C   0  0  0  0  0  0  0  0  0  0  0  0
    6.9960   -2.6420   23.3090 C   0  0  0  0  0  0  0  0  0  0  0  0
    6.6180   -3.7600   24.2300 C   0  0  0  0  0  0  0  0  0  0  0  0
    5.8600   -3.1970   25.3620 C   0  0  0  0  0  0  0  0  0  0  0  0
    4.6090   -3.2230   25.3110 O   0  0  0  0  0  0  0  0  0  0  0  0
    6.4790   -2.6220   26.4850 N   0  0  0  0  0  0  0  0  0  0  0  0
    5.8380   -2.6150   27.7710 C   0  0  0  0  0  0  0  0  0  0  0  0
    5.4410   -3.9850   28.3110 C   0  0  0  0  0  0  0  0  0  0  0  0
    6.2870   -4.8880   28.9250 C   0  0  0  0  0  0  0  0  0  0  0  0
    5.8700   -6.0960   29.3790 C   0  0  0  0  0  0  0  0  0  0  0  0
    4.5860   -6.5070   29.2690 C   0  0  0  0  0  0  0  0  0  0  0  0
    4.1270   -7.7250   29.7230 C   0  0  0  0  0  0  0  0  0  0  0  0
    2.8880   -7.7300   30.2530 N   0  0  0  0  0  0  0  0  0  0  0  0
    3.6850   -5.6770   28.6770 C   0  0  0  0  0  0  0  0  0  0  0  0
    3.9110   -4.2890   28.0930 C   0  0  0  0  0  0  0  0  0  0  0  0
    6.4200   -1.8450   28.8630 C   0  0  0  0  0  0  0  0  0  0  0  0
    5.3590   -0.8850   28.9010 C   0  0  0  0  0  0  0  0  0  0  0  0
    4.6260   -1.6070   27.7840 C   0  0  0  0  0  0  0  0  0  0  0  0
    5.8380   -4.8500   23.5780 C   0  0  0  0  0  0  0  0  0  0  0  0
    6.4720   -5.3090   22.2850 C   0  0  0  0  0  0  0  0  0  0  0  0
  1  2  1  0
  2  3  2  0
  2  4  1  0
  4  5  1  0
  5  6  1  0
  6  7  1  0
  7  8  1  0
  8  9  2  0
  8 10  1  0
 11 10  1  0
 11 12  1  0
 12 13  2  0
 13 14  1  0
 14 15  2  0
 15 16  1  0
 16 17  3  0
 15 18  1  0
 12 19  1  0
 18 19  2  0
 11 20  1  0
 20 21  1  0
 11 22  1  0
 21 22  1  0
  7 23  1  0
  4 24  1  0
 23 24  1  0
M  END
