piperidine-amides-19506-covalent
     RDKit          3D

 22 23  0  0  0  0  0  0  0  0999 V2000
    7.0460   -3.3360   19.2940 C   0  0  0  0  0  0  0  0  0  0  0  0
    6.3280   -4.0570   20.3250 C   0  0  0  0  0  0  0  0  0  0  0  0
    5.3180   -4.7280   19.9530 O   0  0  0  0  0  0  0  0  0  0  0  0
    6.7080   -4.0960   21.6880 N   0  0  0  0  0  0  0  0  0  0  0  0
    7.5990   -3.0140   22.1920 C   0  0  0  0  0  0  0  0  0  0  0  0
    7.5070   -3.2350   23.7530 C   0  0  0  0  0  0  0  0  0  0  0  0
    6.0880   -3.7010   23.9670 C   0  0  0  0  0  0  0  0  0  0  0  0
    5.4610   -3.5190   25.4250 C   0  0  0  0  0  0  0  0  0  0  0  0
    4.4000   -4.1180   25.4910 O   0  0  0  0  0  0  0  0  0  0  0  0
    6.1980   -2.7860   26.1530 N   0  0  0  0  0  0  0  0  0  0  0  0
    6.9420   -1.6950   26.4730 C   0  0  0  0  0  0  0  0  0  0  0  0
    6.1610   -3.4040   27.4330 C   0  0  2  0  0  0  0  0  0  0  0  0
    5.9290   -4.8150   27.4870 C   0  0  0  0  0  0  0  0  0  0  0  0
    4.9860   -2.7900   28.2030 C   0  0  0  0  0  0  0  0  0  0  0  0
    5.7720   -1.9810   29.1790 C   0  0  0  0  0  0  0  0  0  0  0  0
    4.8330   -1.2970   30.0250 C   0  0  0  0  0  0  0  0  0  0  0  0
    3.3820   -1.1510   30.2250 C   0  0  0  0  0  0  0  0  0  0  0  0
    2.9050   -0.3460   31.2100 O   0  0  0  0  0  0  0  0  0  0  0  0
    2.8150   -2.0810   29.1010 C   0  0  0  0  0  0  0  0  0  0  0  0
    3.5880   -2.9160   28.0720 C   0  0  0  0  0  0  0  0  0  0  0  0
    5.9160   -5.1580   23.5060 C   0  0  0  0  0  0  0  0  0  0  0  0
    6.7060   -5.3590   22.4060 C   0  0  0  0  0  0  0  0  0  0  0  0
  1  2  1  0
  2  3  2  0
  2  4  1  0
  4  5  1  0
  5  6  1  0
  6  7  1  0
  7  8  1  0
  8  9  2  0
  8 10  1  0
 10 11  1  0
 10 12  1  0
 12 13  1  6
 12 14  1  0
 14 15  2  0
 15 16  1  0
 16 17  2  0
 17 18  1  0
 17 19  1  0
 14 20  1  0
 19 20  2  0
  7 21  1  0
  4 22  1  0
 21 22  1  0
M  END
