piperidine-amides-23496-covalent
     RDKit          3D

 24 26  0  0  0  0  0  0  0  0999 V2000
    7.1090   -3.3860   19.3350 C   0  0  0  0  0  0  0  0  0  0  0  0
    6.4170   -4.1950   20.3450 C   0  0  0  0  0  0  0  0  0  0  0  0
    5.3710   -4.7790   19.9750 O   0  0  0  0  0  0  0  0  0  0  0  0
    6.9580   -4.3510   21.6470 N   0  0  0  0  0  0  0  0  0  0  0  0
    6.6060   -5.5170   22.3850 C   0  0  0  0  0  0  0  0  0  0  0  0
    6.1080   -5.1910   23.7060 C   0  0  0  0  0  0  0  0  0  0  0  0
    6.2200   -3.7540   23.9620 C   0  0  0  0  0  0  0  0  0  0  0  0
    5.6490   -3.3320   25.2880 C   0  0  0  0  0  0  0  0  0  0  0  0
    4.7650   -2.4560   25.2900 O   0  0  0  0  0  0  0  0  0  0  0  0
    6.0240   -3.8880   26.5220 N   0  0  0  0  0  0  0  0  0  0  0  0
    5.8590   -5.2440   26.8660 C   0  0  0  0  0  0  0  0  0  0  0  0
    5.9590   -5.5860   28.2710 C   0  0  0  0  0  0  0  0  0  0  0  0
    5.5280   -4.7000   29.1850 N   0  0  0  0  0  0  0  0  0  0  0  0
    4.1590   -4.6010   29.6610 C   0  0  0  0  0  0  0  0  0  0  0  0
    3.6680   -5.8300   30.0830 C   0  0  0  0  0  0  0  0  0  0  0  0
    3.6780   -5.6460   31.6030 C   0  0  0  0  0  0  0  0  0  0  0  0
    3.1540   -6.9200   32.2220 C   0  0  0  0  0  0  0  0  0  0  0  0
    2.7980   -7.9470   31.1260 C   0  0  0  0  0  0  0  0  0  0  0  0
    2.8860   -7.8710   29.6210 C   0  0  0  0  0  0  0  0  0  0  0  0
    3.3590   -6.7110   29.1450 N   0  0  0  0  0  0  0  0  0  0  0  0
    6.1380   -3.5370   29.0220 C   0  0  0  0  0  0  0  0  0  0  0  0
    5.9580   -2.9520   27.6200 C   0  0  0  0  0  0  0  0  0  0  0  0
    7.6230   -3.3220   23.6860 C   0  0  0  0  0  0  0  0  0  0  0  0
    7.6870   -3.2450   22.2840 C   0  0  0  0  0  0  0  0  0  0  0  0
  1  2  1  0
  2  3  2  0
  2  4  1  0
  4  5  1  0
  5  6  1  0
  6  7  1  0
  7  8  1  0
  8  9  2  0
  8 10  1  0
 10 11  1  0
 11 12  1  0
 12 13  1  0
 13 14  1  0
 14 15  1  0
 15 16  2  0
 16 17  1  0
 17 18  2  0
 18 19  1  0
 15 20  1  0
 19 20  2  0
 13 21  1  0
 10 22  1  0
 21 22  1  0
  7 23  1  0
  4 24  1  0
 23 24  1  0
M  END
