piperidine-amides-13039-covalent
     RDKit          3D

 20 21  0  0  0  0  0  0  0  0999 V2000
    7.0890   -3.2860   19.1830 C   0  0  0  0  0  0  0  0  0  0  0  0
    6.3620   -4.0390   20.2310 C   0  0  0  0  0  0  0  0  0  0  0  0
    5.2810   -4.5570   19.8860 O   0  0  0  0  0  0  0  0  0  0  0  0
    6.8920   -4.2040   21.5170 N   0  0  0  0  0  0  0  0  0  0  0  0
    6.5650   -5.3610   22.2770 C   0  0  0  0  0  0  0  0  0  0  0  0
    6.0490   -5.0290   23.6020 C   0  0  0  0  0  0  0  0  0  0  0  0
    6.1140   -3.5820   23.9160 C   0  0  0  0  0  0  0  0  0  0  0  0
    5.9000   -3.3470   25.3570 C   0  0  0  0  0  0  0  0  0  0  0  0
    4.7340   -3.1360   25.7420 O   0  0  0  0  0  0  0  0  0  0  0  0
    6.9780   -3.3570   26.2670 N   0  0  0  0  0  0  0  0  0  0  0  0
    6.8300   -3.9050   27.6280 C   0  0  0  0  0  0  0  0  0  0  0  0
    6.3260   -2.8560   28.5620 C   0  0  0  0  0  0  0  0  0  0  0  0
    4.9320   -2.7060   28.9750 N   0  0  0  0  0  0  0  0  0  0  0  0
    4.8460   -1.6850   29.8010 N   0  0  0  0  0  0  0  0  0  0  0  0
    6.0850   -1.0750   30.0260 C   0  0  0  0  0  0  0  0  0  0  0  0
    6.4780   -0.0060   30.7970 C   0  0  0  0  0  0  0  0  0  0  0  0
    7.0550   -1.8670   29.1900 C   0  0  0  0  0  0  0  0  0  0  0  0
    8.3810   -1.7360   29.0130 C   0  0  0  0  0  0  0  0  0  0  0  0
    7.3110   -2.8250   23.4170 C   0  0  0  0  0  0  0  0  0  0  0  0
    7.7120   -3.2190   22.1740 C   0  0  0  0  0  0  0  0  0  0  0  0
  1  2  1  0
  2  3  2  0
  2  4  1  0
  4  5  1  0
  5  6  1  0
  6  7  1  0
  7  8  1  0
  8  9  2  0
  8 10  1  0
 10 11  1  0
 11 12  1  0
 12 13  2  0
 13 14  1  0
 14 15  1  0
 15 16  1  0
 12 17  1  0
 15 17  2  0
 17 18  1  0
  7 19  1  0
  4 20  1  0
 19 20  1  0
M  END
