piperidine-amides-27653-covalent
     RDKit          3D

 26 28  0  0  0  0  0  0  0  0999 V2000
    7.0260   -3.3670   19.3730 C   0  0  0  0  0  0  0  0  0  0  0  0
    6.3900   -4.2320   20.3710 C   0  0  0  0  0  0  0  0  0  0  0  0
    5.3710   -4.8650   19.9840 O   0  0  0  0  0  0  0  0  0  0  0  0
    6.9230   -4.3750   21.6590 N   0  0  0  0  0  0  0  0  0  0  0  0
    6.5410   -5.4890   22.4790 C   0  0  0  0  0  0  0  0  0  0  0  0
    5.6550   -4.9610   23.5800 C   0  0  0  0  0  0  0  0  0  0  0  0
    6.2450   -3.7950   24.3520 C   0  0  0  0  0  0  0  0  0  0  0  0
    5.2010   -3.2450   25.2800 C   0  0  0  0  0  0  0  0  0  0  0  0
    4.0700   -3.0390   24.8080 O   0  0  0  0  0  0  0  0  0  0  0  0
    5.3990   -2.9520   26.6560 N   0  0  0  0  0  0  0  0  0  0  0  0
    4.4130   -2.4910   27.5760 C   0  0  0  0  0  0  0  0  0  0  0  0
    4.8250   -3.0570   28.9170 C   0  0  0  0  0  0  0  0  0  0  0  0
    5.4470   -4.2470   28.9360 C   0  0  0  0  0  0  0  0  0  0  0  0
    4.6250   -5.3480   29.0080 C   0  0  0  0  0  0  0  0  0  0  0  0
    4.5870   -5.8700   30.2800 C   0  0  0  0  0  0  0  0  0  0  0  0
    5.3100   -6.9690   30.5850 C   0  0  0  0  0  0  0  0  0  0  0  0
    6.1570   -7.8830   30.0490 C   0  0  0  0  0  0  0  0  0  0  0  0
    5.4660   -7.7260   31.8920 C   0  0  0  0  0  0  0  0  0  0  0  0
    4.6460   -7.1030   32.9870 C   0  0  0  0  0  0  0  0  0  0  0  0
    3.8170   -5.8770   32.6720 C   0  0  0  0  0  0  0  0  0  0  0  0
    3.8020   -5.2560   31.2630 C   0  0  0  0  0  0  0  0  0  0  0  0
    3.0280   -4.1360   31.0460 C   0  0  0  0  0  0  0  0  0  0  0  0
    6.4520   -4.5420   28.1130 C   0  0  0  0  0  0  0  0  0  0  0  0
    6.5960   -3.2600   27.2550 C   0  0  0  0  0  0  0  0  0  0  0  0
    6.8600   -2.7630   23.4520 C   0  0  0  0  0  0  0  0  0  0  0  0
    7.5960   -3.2660   22.2690 C   0  0  0  0  0  0  0  0  0  0  0  0
  1  2  1  0
  2  3  2  0
  2  4  1  0
  4  5  1  0
  5  6  1  0
  6  7  1  0
  7  8  1  0
  8  9  2  0
  8 10  1  0
 10 11  1  0
 11 12  1  0
 12 13  1  0
 13 14  1  0
 14 15  1  0
 15 16  2  0
 16 17  1  0
 16 18  1  0
 18 19  2  0
 19 20  1  0
 15 21  1  0
 20 21  2  0
 21 22  1  0
 13 23  1  0
 10 24  1  0
 23 24  1  0
  7 25  1  0
  4 26  1  0
 25 26  1  0
M  END
