piperidine-amides-30139-covalent
     RDKit          3D

 27 29  0  0  0  0  0  0  0  0999 V2000
    7.0990   -3.3260   19.2900 C   0  0  0  0  0  0  0  0  0  0  0  0
    6.3980   -4.1570   20.2580 C   0  0  0  0  0  0  0  0  0  0  0  0
    5.3560   -4.7380   19.9500 O   0  0  0  0  0  0  0  0  0  0  0  0
    6.9610   -4.3460   21.5580 N   0  0  0  0  0  0  0  0  0  0  0  0
    7.7380   -3.2880   22.1520 C   0  0  0  0  0  0  0  0  0  0  0  0
    7.0170   -2.7100   23.3280 C   0  0  0  0  0  0  0  0  0  0  0  0
    6.6430   -3.8660   24.2260 C   0  0  0  0  0  0  0  0  0  0  0  0
    5.7980   -3.3950   25.3560 C   0  0  0  0  0  0  0  0  0  0  0  0
    4.8940   -2.5510   25.2070 O   0  0  0  0  0  0  0  0  0  0  0  0
    6.0100   -3.9430   26.6370 N   0  0  0  0  0  0  0  0  0  0  0  0
    5.8220   -5.3580   26.6980 C   0  0  0  0  0  0  0  0  0  0  0  0
    6.1380   -5.8500   28.0850 C   0  0  0  0  0  0  0  0  0  0  0  0
    5.8690   -5.0520   29.1640 C   0  0  0  0  0  0  0  0  0  0  0  0
    4.5520   -5.1940   29.6210 C   0  0  2  0  0  0  0  0  0  0  0  0
    4.0620   -3.9000   29.8600 O   0  0  0  0  0  0  0  0  0  0  0  0
    4.5230   -5.9550   30.7700 C   0  0  0  0  0  0  0  0  0  0  0  0
    5.4970   -7.0110   31.0320 C   0  0  0  0  0  0  0  0  0  0  0  0
    5.4880   -7.7750   32.1730 C   0  0  0  0  0  0  0  0  0  0  0  0
    4.5160   -7.5300   33.1070 C   0  0  0  0  0  0  0  0  0  0  0  0
    3.5530   -6.5440   32.9290 C   0  0  0  0  0  0  0  0  0  0  0  0
    3.5390   -5.7120   31.7170 C   0  0  0  0  0  0  0  0  0  0  0  0
    2.6000   -4.7180   31.5030 O   0  0  0  0  0  0  0  0  0  0  0  0
    1.4840   -4.5270   32.3240 C   0  0  0  0  0  0  0  0  0  0  0  0
    6.2370   -3.7180   28.9460 C   0  0  0  0  0  0  0  0  0  0  0  0
    5.7290   -3.0540   27.7150 C   0  0  0  0  0  0  0  0  0  0  0  0
    5.8700   -4.9660   23.5610 C   0  0  0  0  0  0  0  0  0  0  0  0
    6.5880   -5.4810   22.3380 C   0  0  0  0  0  0  0  0  0  0  0  0
  1  2  1  0
  2  3  2  0
  2  4  1  0
  4  5  1  0
  5  6  1  0
  6  7  1  0
  7  8  1  0
  8  9  2  0
  8 10  1  0
 10 11  1  0
 11 12  1  0
 12 13  1  0
 13 14  1  0
 14 15  1  1
 14 16  1  0
 16 17  2  0
 17 18  1  0
 18 19  2  0
 19 20  1  0
 16 21  1  0
 20 21  2  0
 21 22  1  0
 22 23  1  0
 13 24  1  0
 10 25  1  0
 24 25  1  0
  7 26  1  0
  4 27  1  0
 26 27  1  0
M  END
