piperidine-amides-5377-covalent
     RDKit          3D

 20 20  0  0  0  0  0  0  0  0999 V2000
    7.1030   -3.2700   19.1720 C   0  0  0  0  0  0  0  0  0  0  0  0
    6.3280   -3.9850   20.1870 C   0  0  0  0  0  0  0  0  0  0  0  0
    5.2700   -4.5510   19.8750 O   0  0  0  0  0  0  0  0  0  0  0  0
    6.7910   -4.0800   21.5000 N   0  0  0  0  0  0  0  0  0  0  0  0
    7.6730   -3.0720   22.0350 C   0  0  0  0  0  0  0  0  0  0  0  0
    7.0090   -2.5910   23.2820 C   0  0  0  0  0  0  0  0  0  0  0  0
    6.6250   -3.7500   24.1530 C   0  0  0  0  0  0  0  0  0  0  0  0
    6.0650   -3.2950   25.4440 C   0  0  0  0  0  0  0  0  0  0  0  0
    4.8200   -3.3830   25.6930 O   0  0  0  0  0  0  0  0  0  0  0  0
    6.9010   -2.7230   26.4370 N   0  0  0  0  0  0  0  0  0  0  0  0
    7.4330   -3.4930   27.5870 C   0  0  0  0  0  0  0  0  0  0  0  0
    7.7970   -4.8660   27.1810 C   0  0  0  0  0  0  0  0  0  0  0  0
    8.7200   -5.5570   28.0820 C   0  0  0  0  0  0  0  0  0  0  0  0
    6.5660   -5.7350   27.1780 C   0  0  0  0  0  0  0  0  0  0  0  0
    8.4880   -4.9830   25.8680 C   0  0  0  0  0  0  0  0  0  0  0  0
    8.8410   -3.6630   25.4260 F   0  0  0  0  0  0  0  0  0  0  0  0
    7.7910   -5.6460   24.9380 F   0  0  0  0  0  0  0  0  0  0  0  0
    9.7570   -5.5530   25.9850 F   0  0  0  0  0  0  0  0  0  0  0  0
    5.6730   -4.6340   23.4200 C   0  0  0  0  0  0  0  0  0  0  0  0
    6.2630   -5.1550   22.2910 C   0  0  0  0  0  0  0  0  0  0  0  0
  1  2  1  0
  2  3  2  0
  2  4  1  0
  4  5  1  0
  5  6  1  0
  6  7  1  0
  7  8  1  0
  8  9  2  0
  8 10  1  0
 10 11  1  0
 12 11  1  0
 12 13  1  0
 12 14  1  0
 12 15  1  0
 15 16  1  0
 15 17  1  0
 15 18  1  0
  7 19  1  0
  4 20  1  0
 19 20  1  0
M  END
