piperidine-amides-19818-covalent
     RDKit          3D

 22 24  0  0  0  0  0  0  0  0999 V2000
    7.0560   -3.3330   19.2780 C   0  0  0  0  0  0  0  0  0  0  0  0
    6.3720   -4.1580   20.3070 C   0  0  0  0  0  0  0  0  0  0  0  0
    5.3670   -4.7760   19.9620 O   0  0  0  0  0  0  0  0  0  0  0  0
    6.9030   -4.2400   21.5930 N   0  0  0  0  0  0  0  0  0  0  0  0
    6.6840   -5.3720   22.4610 C   0  0  0  0  0  0  0  0  0  0  0  0
    6.0290   -4.9120   23.7400 C   0  0  0  0  0  0  0  0  0  0  0  0
    6.7340   -3.6570   24.2800 C   0  0  0  0  0  0  0  0  0  0  0  0
    5.9190   -3.1080   25.3870 C   0  0  0  0  0  0  0  0  0  0  0  0
    5.3910   -2.0000   25.2650 O   0  0  0  0  0  0  0  0  0  0  0  0
    5.6800   -3.8380   26.5530 N   0  0  0  0  0  0  0  0  0  0  0  0
    4.3490   -4.0070   26.9820 C   0  0  0  0  0  0  0  0  0  0  0  0
    4.7230   -4.8650   28.1280 C   0  0  0  0  0  0  0  0  0  0  0  0
    6.0400   -5.1810   28.1770 C   0  0  2  0  0  0  0  0  0  0  0  0
    6.4770   -5.7880   29.2810 C   0  0  0  0  0  0  0  0  0  0  0  0
    5.5070   -6.1730   30.1880 C   0  0  0  0  0  0  0  0  0  0  0  0
    4.1540   -5.5030   30.4240 C   0  0  0  0  0  0  0  0  0  0  0  0
    3.9590   -6.2850   31.6800 C   0  0  0  0  0  0  0  0  0  0  0  0
    4.3660   -7.6430   31.1950 C   0  0  0  0  0  0  0  0  0  0  0  0
    4.7370   -7.4070   29.7650 C   0  0  0  0  0  0  0  0  0  0  0  0
    6.2650   -3.8230   27.9050 C   0  0  0  0  0  0  0  0  0  0  0  0
    7.0770   -2.6330   23.2880 C   0  0  0  0  0  0  0  0  0  0  0  0
    7.7480   -3.1750   22.0970 C   0  0  0  0  0  0  0  0  0  0  0  0
  1  2  1  0
  2  3  2  0
  2  4  1  0
  4  5  1  0
  5  6  1  0
  6  7  1  0
  7  8  1  0
  8  9  2  0
  8 10  1  0
 10 11  1  0
 11 12  1  0
 12 13  1  0
 13 14  1  1
 14 15  1  0
 15 16  1  0
 16 17  1  0
 17 18  1  0
 15 19  1  0
 18 19  1  0
 10 20  1  0
 13 20  1  0
  7 21  1  0
  4 22  1  0
 21 22  1  0
M  END
