piperidine-amides-24473-covalent
     RDKit          3D

 24 26  0  0  0  0  0  0  0  0999 V2000
    7.0470   -3.3430   19.3400 C   0  0  0  0  0  0  0  0  0  0  0  0
    6.3950   -4.2030   20.3400 C   0  0  0  0  0  0  0  0  0  0  0  0
    5.4030   -4.8860   19.9990 O   0  0  0  0  0  0  0  0  0  0  0  0
    6.9030   -4.3070   21.6500 N   0  0  0  0  0  0  0  0  0  0  0  0
    6.7000   -5.5500   22.3880 C   0  0  0  0  0  0  0  0  0  0  0  0
    6.1490   -5.2040   23.7860 C   0  0  0  0  0  0  0  0  0  0  0  0
    6.0490   -3.7050   23.8140 C   0  0  0  0  0  0  0  0  0  0  0  0
    5.3660   -3.1980   25.0220 C   0  0  0  0  0  0  0  0  0  0  0  0
    4.2570   -2.6610   24.8470 O   0  0  0  0  0  0  0  0  0  0  0  0
    5.8690   -3.3010   26.3290 N   0  0  0  0  0  0  0  0  0  0  0  0
    4.9860   -2.7740   27.3360 C   0  0  0  0  0  0  0  0  0  0  0  0
    4.3270   -3.9980   27.8100 C   0  0  0  0  0  0  0  0  0  0  0  0
    5.3290   -4.7930   27.9840 C   0  0  1  0  0  0  0  0  0  0  0  0
    6.3060   -4.4220   27.1610 C   0  0  0  0  0  0  0  0  0  0  0  0
    5.5440   -4.8450   29.2480 C   0  0  0  0  0  0  0  0  0  0  0  0
    6.2090   -3.7900   29.7310 O   0  0  0  0  0  0  0  0  0  0  0  0
    5.0660   -5.9260   29.8830 N   0  0  0  0  0  0  0  0  0  0  0  0
    3.9570   -5.9270   30.7870 C   0  0  0  0  0  0  0  0  0  0  0  0
    4.6930   -6.7150   28.8980 C   0  0  0  0  0  0  0  0  0  0  0  0
    3.8200   -7.7490   28.8180 O   0  0  0  0  0  0  0  0  0  0  0  0
    5.4780   -6.1280   27.9910 N   0  0  0  0  0  0  0  0  0  0  0  0
    6.8460   -6.4350   28.2630 C   0  0  0  0  0  0  0  0  0  0  0  0
    7.3230   -3.0260   23.5820 C   0  0  0  0  0  0  0  0  0  0  0  0
    7.7240   -3.2720   22.2070 C   0  0  0  0  0  0  0  0  0  0  0  0
  1  2  1  0
  2  3  2  0
  2  4  1  0
  4  5  1  0
  5  6  1  0
  6  7  1  0
  7  8  1  0
  8  9  2  0
  8 10  1  0
 10 11  1  0
 11 12  1  0
 13 12  1  1
 10 14  1  0
 13 14  1  0
 13 15  1  0
 15 16  2  0
 15 17  1  0
 17 18  1  0
 17 19  1  0
 19 20  2  0
 13 21  1  0
 19 21  1  0
 21 22  1  0
  7 23  1  0
  4 24  1  0
 23 24  1  0
M  END
