piperidine-amides-4550-covalent
     RDKit          3D

 25 27  0  0  0  0  0  0  0  0999 V2000
    7.1180   -3.2750   19.2410 C   0  0  0  0  0  0  0  0  0  0  0  0
    6.3950   -4.0600   20.2700 C   0  0  0  0  0  0  0  0  0  0  0  0
    5.3290   -4.5970   19.9060 O   0  0  0  0  0  0  0  0  0  0  0  0
    6.9160   -4.2230   21.5690 N   0  0  0  0  0  0  0  0  0  0  0  0
    7.7080   -3.1990   22.1670 C   0  0  0  0  0  0  0  0  0  0  0  0
    7.2790   -2.8730   23.5190 C   0  0  0  0  0  0  0  0  0  0  0  0
    6.0080   -3.5220   23.8860 C   0  0  0  0  0  0  0  0  0  0  0  0
    5.6680   -3.2050   25.2930 C   0  0  0  0  0  0  0  0  0  0  0  0
    4.4880   -3.3500   25.6550 O   0  0  0  0  0  0  0  0  0  0  0  0
    6.6510   -2.7490   26.1860 N   0  0  0  0  0  0  0  0  0  0  0  0
    6.4850   -1.5380   27.0210 C   0  0  0  0  0  0  0  0  0  0  0  0
    5.5180   -1.7650   28.1350 C   0  0  0  0  0  0  0  0  0  0  0  0
    4.7630   -2.9740   28.3340 C   0  0  0  0  0  0  0  0  0  0  0  0
    3.8930   -3.1220   29.3630 C   0  0  0  0  0  0  0  0  0  0  0  0
    3.7070   -2.0940   30.2630 C   0  0  0  0  0  0  0  0  0  0  0  0
    4.4030   -0.9100   30.1280 C   0  0  0  0  0  0  0  0  0  0  0  0
    5.3180   -0.6270   29.1290 C   0  0  0  0  0  0  0  0  0  0  0  0
    5.9920    0.5570   29.0210 C   0  0  0  0  0  0  0  0  0  0  0  0
    6.2900    0.7370   30.4260 N   0  0  0  0  0  0  0  0  0  0  0  0
    7.2010    0.0770   31.2590 C   0  0  0  0  0  0  0  0  0  0  0  0
    7.1750    0.5410   32.5040 N   0  0  0  0  0  0  0  0  0  0  0  0
    6.2490    1.5040   32.4860 C   0  0  0  0  0  0  0  0  0  0  0  0
    5.7210    1.6160   31.2330 N   0  0  0  0  0  0  0  0  0  0  0  0
    5.9770   -5.0000   23.6630 C   0  0  0  0  0  0  0  0  0  0  0  0
    6.6280   -5.4020   22.3580 C   0  0  0  0  0  0  0  0  0  0  0  0
  1  2  1  0
  2  3  2  0
  2  4  1  0
  4  5  1  0
  5  6  1  0
  6  7  1  0
  7  8  1  0
  8  9  2  0
  8 10  1  0
 10 11  1  0
 11 12  1  0
 12 13  2  0
 13 14  1  0
 14 15  2  0
 15 16  1  0
 12 17  1  0
 16 17  2  0
 17 18  1  0
 18 19  1  0
 19 20  1  0
 20 21  2  0
 21 22  1  0
 19 23  1  0
 22 23  2  0
  7 24  1  0
  4 25  1  0
 24 25  1  0
M  END
