piperidine-amides-3097-covalent
     RDKit          3D

 23 25  0  0  0  0  0  0  0  0999 V2000
    7.0970   -3.2790   19.2680 C   0  0  0  0  0  0  0  0  0  0  0  0
    6.3500   -4.0550   20.2540 C   0  0  0  0  0  0  0  0  0  0  0  0
    5.3250   -4.6510   19.9240 O   0  0  0  0  0  0  0  0  0  0  0  0
    6.8320   -4.1620   21.6020 N   0  0  0  0  0  0  0  0  0  0  0  0
    7.6960   -3.1390   22.1430 C   0  0  0  0  0  0  0  0  0  0  0  0
    7.4270   -2.9360   23.6060 C   0  0  0  0  0  0  0  0  0  0  0  0
    6.0840   -3.5870   23.8950 C   0  0  0  0  0  0  0  0  0  0  0  0
    5.5610   -3.2420   25.2470 C   0  0  0  0  0  0  0  0  0  0  0  0
    4.4380   -2.7270   25.3870 O   0  0  0  0  0  0  0  0  0  0  0  0
    6.3320   -3.4980   26.4040 N   0  0  0  0  0  0  0  0  0  0  0  0
    5.6410   -4.0710   27.5410 C   0  0  0  0  0  0  0  0  0  0  0  0
    4.9190   -2.8920   28.1510 C   0  0  0  0  0  0  0  0  0  0  0  0
    3.5190   -2.8000   28.1010 C   0  0  0  0  0  0  0  0  0  0  0  0
    2.8460   -1.7100   28.6620 C   0  0  0  0  0  0  0  0  0  0  0  0
    3.5140   -0.6960   29.2770 C   0  0  0  0  0  0  0  0  0  0  0  0
    4.9490   -0.8200   29.3110 C   0  0  0  0  0  0  0  0  0  0  0  0
    5.6410   -1.8770   28.7700 C   0  0  0  0  0  0  0  0  0  0  0  0
    7.0200   -1.9550   28.8260 C   0  0  0  0  0  0  0  0  0  0  0  0
    6.2590   -4.9270   28.4460 C   0  0  0  0  0  0  0  0  0  0  0  0
    5.4230   -6.0420   28.1290 C   0  0  0  0  0  0  0  0  0  0  0  0
    4.8070   -5.2150   27.2570 C   0  0  0  0  0  0  0  0  0  0  0  0
    6.1580   -5.0750   23.7230 C   0  0  0  0  0  0  0  0  0  0  0  0
    6.5500   -5.3670   22.3110 C   0  0  0  0  0  0  0  0  0  0  0  0
  1  2  1  0
  2  3  2  0
  2  4  1  0
  4  5  1  0
  5  6  1  0
  6  7  1  0
  7  8  1  0
  8  9  2  0
  8 10  1  0
 11 10  1  0
 11 12  1  0
 12 13  2  0
 13 14  1  0
 14 15  2  0
 15 16  1  0
 12 17  1  0
 16 17  2  0
 17 18  1  0
 11 19  1  0
 19 20  1  0
 11 21  1  0
 20 21  1  0
  7 22  1  0
  4 23  1  0
 22 23  1  0
M  END
