piperidine-amides-23850-covalent
     RDKit          3D

 24 25  0  0  0  0  0  0  0  0999 V2000
    7.0580   -3.3410   19.2910 C   0  0  0  0  0  0  0  0  0  0  0  0
    6.3830   -4.1600   20.3120 C   0  0  0  0  0  0  0  0  0  0  0  0
    5.3410   -4.7560   19.9550 O   0  0  0  0  0  0  0  0  0  0  0  0
    6.9110   -4.3260   21.6200 N   0  0  0  0  0  0  0  0  0  0  0  0
    7.6170   -3.2320   22.2030 C   0  0  0  0  0  0  0  0  0  0  0  0
    7.3370   -2.9800   23.6160 C   0  0  0  0  0  0  0  0  0  0  0  0
    6.5030   -3.9900   24.2980 C   0  0  0  0  0  0  0  0  0  0  0  0
    5.7220   -3.3670   25.4300 C   0  0  0  0  0  0  0  0  0  0  0  0
    4.5540   -3.0010   25.2080 O   0  0  0  0  0  0  0  0  0  0  0  0
    6.2530   -3.1750   26.7330 N   0  0  0  0  0  0  0  0  0  0  0  0
    6.1660   -4.0770   27.8370 C   0  0  0  0  0  0  0  0  0  0  0  0
    5.9770   -5.5230   27.7030 C   0  0  0  0  0  0  0  0  0  0  0  0
    4.4760   -5.7620   27.4950 C   0  0  0  0  0  0  0  0  0  0  0  0
    6.4230   -6.4400   28.7590 C   0  0  0  0  0  0  0  0  0  0  0  0
    6.3010   -1.7770   27.2210 C   0  0  0  0  0  0  0  0  0  0  0  0
    6.9550   -1.8280   28.5770 C   0  0  0  0  0  0  0  0  0  0  0  0
    7.0050   -0.3980   29.1200 C   0  0  0  0  0  0  0  0  0  0  0  0
    6.5190    0.8710   28.4870 C   0  0  0  0  0  0  0  0  0  0  0  0
    6.6470    2.1160   29.1330 O   0  0  0  0  0  0  0  0  0  0  0  0
    5.4750    2.8150   29.5120 C   0  0  0  0  0  0  0  0  0  0  0  0
    5.9040    0.6960   27.1350 C   0  0  0  0  0  0  0  0  0  0  0  0
    5.8090   -0.6520   26.5220 C   0  0  0  0  0  0  0  0  0  0  0  0
    5.6000   -4.7610   23.3920 C   0  0  0  0  0  0  0  0  0  0  0  0
    6.4170   -5.3740   22.4580 C   0  0  0  0  0  0  0  0  0  0  0  0
  1  2  1  0
  2  3  2  0
  2  4  1  0
  4  5  1  0
  5  6  1  0
  6  7  1  0
  7  8  1  0
  8  9  2  0
  8 10  1  0
 10 11  1  0
 11 12  1  0
 12 13  1  0
 12 14  1  0
 10 15  1  0
 15 16  2  0
 16 17  1  0
 17 18  2  0
 18 19  1  0
 19 20  1  0
 18 21  1  0
 15 22  1  0
 21 22  2  0
  7 23  1  0
  4 24  1  0
 23 24  1  0
M  END
