piperidine-amides-6627-covalent
     RDKit          3D

 24 25  0  0  0  0  0  0  0  0999 V2000
    7.1290   -3.2890   19.2270 C   0  0  0  0  0  0  0  0  0  0  0  0
    6.3330   -4.0300   20.2170 C   0  0  0  0  0  0  0  0  0  0  0  0
    5.2550   -4.5610   19.8850 O   0  0  0  0  0  0  0  0  0  0  0  0
    6.8060   -4.1990   21.5210 N   0  0  0  0  0  0  0  0  0  0  0  0
    7.6350   -3.1810   22.1280 C   0  0  0  0  0  0  0  0  0  0  0  0
    6.8470   -2.6850   23.3350 C   0  0  0  0  0  0  0  0  0  0  0  0
    6.6430   -3.9090   24.1960 C   0  0  0  0  0  0  0  0  0  0  0  0
    5.9180   -3.5000   25.4080 C   0  0  0  0  0  0  0  0  0  0  0  0
    4.7110   -3.1790   25.3200 O   0  0  0  0  0  0  0  0  0  0  0  0
    6.6280   -3.4680   26.6320 N   0  0  0  0  0  0  0  0  0  0  0  0
    6.3370   -4.3710   27.7120 C   0  0  0  0  0  0  0  0  0  0  0  0
    6.9670   -5.7430   27.4830 C   0  0  0  0  0  0  0  0  0  0  0  0
    5.8910   -5.8820   26.5180 N   0  0  0  0  0  0  0  0  0  0  0  0
    4.6370   -6.5740   26.7840 C   0  0  0  0  0  0  0  0  0  0  0  0
    4.2640   -6.6740   28.0570 C   0  0  0  0  0  0  0  0  0  0  0  0
    3.1100   -7.2940   28.3910 C   0  0  0  0  0  0  0  0  0  0  0  0
    2.3260   -7.8240   27.3820 C   0  0  0  0  0  0  0  0  0  0  0  0
    1.1660   -8.4480   27.6320 N   0  0  0  0  0  0  0  0  0  0  0  0
    0.5560   -8.6880   26.5050 O   0  0  0  0  0  0  0  0  0  0  0  0
    0.4610   -8.0510   28.6380 O   0  0  0  0  0  0  0  0  0  0  0  0
    2.5290   -7.8520   25.8380 C   0  0  0  0  0  0  0  0  0  0  0  0
    3.8750   -7.0960   25.7830 C   0  0  0  0  0  0  0  0  0  0  0  0
    5.8790   -4.9860   23.5280 C   0  0  0  0  0  0  0  0  0  0  0  0
    6.4890   -5.3730   22.2540 C   0  0  0  0  0  0  0  0  0  0  0  0
  1  2  1  0
  2  3  2  0
  2  4  1  0
  4  5  1  0
  5  6  1  0
  6  7  1  0
  7  8  1  0
  8  9  2  0
  8 10  1  0
 10 11  1  0
 11 12  1  0
 12 13  1  0
 13 14  1  0
 14 15  2  0
 15 16  1  0
 16 17  2  0
 17 18  1  0
 18 19  2  0
 18 20  1  0
 17 21  1  0
 14 22  1  0
 21 22  2  0
  7 23  1  0
  4 24  1  0
 23 24  1  0
M  CHG  2  18   1  20  -1
M  END
