piperidine-amides-11030-covalent
     RDKit          3D

 21 22  0  0  0  0  0  0  0  0999 V2000
    7.0620   -3.2830   19.2440 C   0  0  0  0  0  0  0  0  0  0  0  0
    6.3350   -4.0420   20.2680 C   0  0  0  0  0  0  0  0  0  0  0  0
    5.3250   -4.6830   19.9330 O   0  0  0  0  0  0  0  0  0  0  0  0
    6.7650   -4.1030   21.6050 N   0  0  0  0  0  0  0  0  0  0  0  0
    7.6860   -3.1270   22.1730 C   0  0  0  0  0  0  0  0  0  0  0  0
    7.3680   -3.0330   23.6420 C   0  0  0  0  0  0  0  0  0  0  0  0
    6.0350   -3.6350   23.9430 C   0  0  0  0  0  0  0  0  0  0  0  0
    5.5470   -3.3860   25.3240 C   0  0  0  0  0  0  0  0  0  0  0  0
    4.3330   -3.6050   25.5980 O   0  0  0  0  0  0  0  0  0  0  0  0
    6.3510   -2.9030   26.3790 N   0  0  0  0  0  0  0  0  0  0  0  0
    6.6000   -1.4530   26.5090 C   0  0  0  0  0  0  0  0  0  0  0  0
    6.3130   -1.0260   27.9050 C   0  0  0  0  0  0  0  0  0  0  0  0
    7.2220   -1.2210   29.0300 C   0  0  0  0  0  0  0  0  0  0  0  0
    6.7740   -0.7220   30.3700 C   0  0  0  0  0  0  0  0  0  0  0  0
    5.4290   -0.0400   30.5620 C   0  0  0  0  0  0  0  0  0  0  0  0
    4.5080    0.1580   29.4240 N   0  0  0  0  0  0  0  0  0  0  0  0
    5.0040   -0.3480   28.1490 C   0  0  0  0  0  0  0  0  0  0  0  0
    4.3270   -0.2680   26.9630 O   0  0  0  0  0  0  0  0  0  0  0  0
    3.0850   -0.8900   26.9350 C   0  0  0  0  0  0  0  0  0  0  0  0
    6.0270   -5.1200   23.6710 C   0  0  0  0  0  0  0  0  0  0  0  0
    6.6460   -5.3680   22.3100 C   0  0  0  0  0  0  0  0  0  0  0  0
  1  2  1  0
  2  3  2  0
  2  4  1  0
  4  5  1  0
  5  6  1  0
  6  7  1  0
  7  8  1  0
  8  9  2  0
  8 10  1  0
 10 11  1  0
 11 12  1  0
 12 13  2  0
 13 14  1  0
 14 15  2  0
 15 16  1  0
 12 17  1  0
 16 17  2  0
 17 18  1  0
 18 19  1  0
  7 20  1  0
  4 21  1  0
 20 21  1  0
M  END
