piperidine-amides-29806-covalent
     RDKit          3D

 26 27  0  0  0  0  0  0  0  0999 V2000
    7.0990   -3.3050   19.3180 C   0  0  0  0  0  0  0  0  0  0  0  0
    6.3750   -4.1150   20.2910 C   0  0  0  0  0  0  0  0  0  0  0  0
    5.3530   -4.7170   19.9510 O   0  0  0  0  0  0  0  0  0  0  0  0
    6.8820   -4.2540   21.6320 N   0  0  0  0  0  0  0  0  0  0  0  0
    7.6550   -3.1920   22.2260 C   0  0  0  0  0  0  0  0  0  0  0  0
    6.8260   -2.5290   23.2850 C   0  0  0  0  0  0  0  0  0  0  0  0
    5.9520   -3.6120   23.8800 C   0  0  0  0  0  0  0  0  0  0  0  0
    5.5150   -3.2610   25.2680 C   0  0  0  0  0  0  0  0  0  0  0  0
    4.3120   -3.0890   25.5370 O   0  0  0  0  0  0  0  0  0  0  0  0
    6.4540   -3.0990   26.3170 N   0  0  0  0  0  0  0  0  0  0  0  0
    6.7340   -1.7190   26.6550 C   0  0  0  0  0  0  0  0  0  0  0  0
    6.3860   -4.0930   27.3680 C   0  0  0  0  0  0  0  0  0  0  0  0
    6.7440   -5.3990   27.0970 C   0  0  0  0  0  0  0  0  0  0  0  0
    5.8990   -6.1240   26.5260 O   0  0  0  0  0  0  0  0  0  0  0  0
    4.8200   -6.6150   27.2630 C   0  0  0  0  0  0  0  0  0  0  0  0
    3.5220   -6.7150   26.7640 C   0  0  0  0  0  0  0  0  0  0  0  0
    2.3990   -7.2300   27.5580 C   0  0  0  0  0  0  0  0  0  0  0  0
    2.4350   -7.6770   28.8550 C   0  0  0  0  0  0  0  0  0  0  0  0
    1.4310   -8.1690   29.6720 C   0  0  0  0  0  0  0  0  0  0  0  0
    0.8370   -9.2610   29.1230 F   0  0  0  0  0  0  0  0  0  0  0  0
    0.4790   -7.1810   29.8100 F   0  0  0  0  0  0  0  0  0  0  0  0
    1.9230   -8.4270   30.9500 F   0  0  0  0  0  0  0  0  0  0  0  0
    3.8320   -7.5770   29.3950 C   0  0  0  0  0  0  0  0  0  0  0  0
    4.9220   -7.0600   28.5790 C   0  0  0  0  0  0  0  0  0  0  0  0
    6.5640   -4.9930   23.7730 C   0  0  0  0  0  0  0  0  0  0  0  0
    6.5480   -5.4030   22.4330 C   0  0  0  0  0  0  0  0  0  0  0  0
  1  2  1  0
  2  3  2  0
  2  4  1  0
  4  5  1  0
  5  6  1  0
  6  7  1  0
  7  8  1  0
  8  9  2  0
  8 10  1  0
 10 11  1  0
 10 12  1  0
 12 13  1  0
 13 14  1  0
 14 15  1  0
 15 16  2  0
 16 17  1  0
 17 18  2  0
 18 19  1  0
 19 20  1  0
 19 21  1  0
 19 22  1  0
 18 23  1  0
 15 24  1  0
 23 24  2  0
  7 25  1  0
  4 26  1  0
 25 26  1  0
M  END
