piperidine-amides-7026-covalent
     RDKit          3D

 22 23  0  0  0  0  0  0  0  0999 V2000
    7.1260   -3.3000   19.2580 C   0  0  0  0  0  0  0  0  0  0  0  0
    6.3490   -4.0550   20.2510 C   0  0  0  0  0  0  0  0  0  0  0  0
    5.2850   -4.6140   19.9120 O   0  0  0  0  0  0  0  0  0  0  0  0
    6.8190   -4.2040   21.5630 N   0  0  0  0  0  0  0  0  0  0  0  0
    7.6630   -3.1970   22.1620 C   0  0  0  0  0  0  0  0  0  0  0  0
    6.9030   -2.6720   23.3770 C   0  0  0  0  0  0  0  0  0  0  0  0
    6.5040   -3.8820   24.1940 C   0  0  0  0  0  0  0  0  0  0  0  0
    5.7500   -3.4550   25.3910 C   0  0  0  0  0  0  0  0  0  0  0  0
    4.5170   -3.2780   25.2860 O   0  0  0  0  0  0  0  0  0  0  0  0
    6.4310   -3.2390   26.6120 N   0  0  0  0  0  0  0  0  0  0  0  0
    6.1200   -3.9870   27.8110 C   0  0  0  0  0  0  0  0  0  0  0  0
    5.8260   -5.4490   27.4860 C   0  0  1  0  0  0  0  0  0  0  0  0
    6.2620   -6.3780   28.3980 C   0  0  0  0  0  0  0  0  0  0  0  0
    4.2800   -6.0510   27.1390 S   0  0  0  0  0  0  0  0  0  0  0  0
    3.7270   -6.6780   28.6760 C   0  0  0  0  0  0  0  0  0  0  0  0
    4.1700   -6.0980   29.8240 C   0  0  0  0  0  0  0  0  0  0  0  0
    3.7680   -6.5550   31.0600 C   0  0  0  0  0  0  0  0  0  0  0  0
    2.8440   -7.6720   31.5820 C   0  0  0  0  0  0  0  0  0  0  0  0
    2.4480   -8.1930   30.1880 C   0  0  0  0  0  0  0  0  0  0  0  0
    2.8880   -7.6940   28.8510 C   0  0  0  0  0  0  0  0  0  0  0  0
    5.6540   -4.8420   23.3860 C   0  0  0  0  0  0  0  0  0  0  0  0
    6.4600   -5.3470   22.3570 C   0  0  0  0  0  0  0  0  0  0  0  0
  1  2  1  0
  2  3  2  0
  2  4  1  0
  4  5  1  0
  5  6  1  0
  6  7  1  0
  7  8  1  0
  8  9  2  0
  8 10  1  0
 10 11  1  0
 11 12  1  0
 12 13  1  1
 12 14  1  0
 14 15  1  0
 15 16  2  0
 16 17  1  0
 17 18  2  0
 18 19  1  0
 15 20  1  0
 19 20  2  0
  7 21  1  0
  4 22  1  0
 21 22  1  0
M  END
