piperidine-amides-29215-covalent
     RDKit          3D

 25 26  0  0  0  0  0  0  0  0999 V2000
    6.9950   -3.3010   19.2930 C   0  0  0  0  0  0  0  0  0  0  0  0
    6.2830   -4.1080   20.2930 C   0  0  0  0  0  0  0  0  0  0  0  0
    5.2800   -4.7340   19.9270 O   0  0  0  0  0  0  0  0  0  0  0  0
    6.7350   -4.2030   21.6350 N   0  0  0  0  0  0  0  0  0  0  0  0
    7.5460   -3.1670   22.1900 C   0  0  0  0  0  0  0  0  0  0  0  0
    7.3280   -3.2060   23.6600 C   0  0  0  0  0  0  0  0  0  0  0  0
    5.9230   -3.6740   23.8500 C   0  0  0  0  0  0  0  0  0  0  0  0
    5.4650   -3.4990   25.2760 C   0  0  0  0  0  0  0  0  0  0  0  0
    4.2490   -3.5250   25.4350 O   0  0  0  0  0  0  0  0  0  0  0  0
    6.3860   -3.3030   26.3140 N   0  0  0  0  0  0  0  0  0  0  0  0
    6.6410   -1.9630   26.7480 C   0  0  0  0  0  0  0  0  0  0  0  0
    6.6130   -4.3550   27.2750 C   0  0  2  0  0  0  0  0  0  0  0  0
    7.3180   -5.4470   26.8180 C   0  0  0  0  0  0  0  0  0  0  0  0
    5.3980   -4.9570   27.8380 C   0  0  0  0  0  0  0  0  0  0  0  0
    4.1410   -4.2020   28.0670 C   0  0  0  0  0  0  0  0  0  0  0  0
    2.8460   -4.7990   28.6610 C   0  0  0  0  0  0  0  0  0  0  0  0
    2.8880   -6.2490   29.0240 C   0  0  0  0  0  0  0  0  0  0  0  0
    1.6300   -7.2070   29.7030 S   0  0  0  0  0  0  0  0  0  0  0  0
    0.4820   -6.3040   30.6490 N   0  0  0  0  0  0  0  0  0  0  0  0
    0.8930   -7.8440   28.5500 O   0  0  0  0  0  0  0  0  0  0  0  0
    2.1920   -8.3220   30.5250 O   0  0  0  0  0  0  0  0  0  0  0  0
    4.1620   -7.0250   28.7930 C   0  0  0  0  0  0  0  0  0  0  0  0
    5.3920   -6.3030   28.1900 C   0  0  0  0  0  0  0  0  0  0  0  0
    5.8310   -5.1520   23.5180 C   0  0  0  0  0  0  0  0  0  0  0  0
    6.5890   -5.4310   22.3850 C   0  0  0  0  0  0  0  0  0  0  0  0
  1  2  1  0
  2  3  2  0
  2  4  1  0
  4  5  1  0
  5  6  1  0
  6  7  1  0
  7  8  1  0
  8  9  2  0
  8 10  1  0
 10 11  1  0
 10 12  1  0
 12 13  1  6
 12 14  1  0
 14 15  2  0
 15 16  1  0
 16 17  2  0
 17 18  1  0
 18 19  1  0
 18 20  2  0
 18 21  2  0
 17 22  1  0
 14 23  1  0
 22 23  2  0
  7 24  1  0
  4 25  1  0
 24 25  1  0
M  END
