piperidine-amides-33249-covalent
     RDKit          3D

 28 30  0  0  0  0  0  0  0  0999 V2000
    7.2240   -4.1230   19.7130 C   0  0  0  0  0  0  0  0  0  0  0  0
    6.0700   -4.0860   20.4690 C   0  0  0  0  0  0  0  0  0  0  0  0
    5.0410   -4.2410   19.7760 O   0  0  0  0  0  0  0  0  0  0  0  0
    6.2150   -4.0010   21.8520 N   0  0  0  0  0  0  0  0  0  0  0  0
    6.0250   -5.2340   22.5600 C   0  0  0  0  0  0  0  0  0  0  0  0
    5.9430   -5.0150   23.9980 C   0  0  0  0  0  0  0  0  0  0  0  0
    6.0710   -3.5780   24.2800 C   0  0  0  0  0  0  0  0  0  0  0  0
    5.6640   -3.1100   25.6380 C   0  0  0  0  0  0  0  0  0  0  0  0
    5.5870   -1.8910   25.8160 O   0  0  0  0  0  0  0  0  0  0  0  0
    5.3030   -3.9440   26.7070 N   0  0  0  0  0  0  0  0  0  0  0  0
    3.9670   -4.4640   26.7700 C   0  0  0  0  0  0  0  0  0  0  0  0
    3.5590   -3.9680   27.9420 C   0  0  0  0  0  0  0  0  0  0  0  0
    5.0380   -4.0170   27.7660 C   0  0  0  0  0  0  0  0  0  0  0  0
    5.1990   -2.8550   28.5180 C   0  0  0  0  0  0  0  0  0  0  0  0
    6.7090   -2.8280   28.9110 C   0  0  0  0  0  0  0  0  0  0  0  0
    7.2760   -1.2880   29.4840 S   0  0  0  0  0  0  0  0  0  0  0  0
    7.1750   -0.2130   28.4490 O   0  0  0  0  0  0  0  0  0  0  0  0
    8.7070   -1.4090   29.8330 O   0  0  0  0  0  0  0  0  0  0  0  0
    6.4330   -0.8010   30.7100 N   0  0  0  0  0  0  0  0  0  0  0  0
    6.8800    0.0890   31.8060 C   0  0  0  0  0  0  0  0  0  0  0  0
    7.7960    0.8950   30.8860 C   0  0  0  0  0  0  0  0  0  0  0  0
    5.1320   -0.3960   30.3820 C   0  0  0  0  0  0  0  0  0  0  0  0
    4.0430   -1.2390   31.0210 C   0  0  0  0  0  0  0  0  0  0  0  0
    7.3630   -4.2330   28.8890 C   0  0  0  0  0  0  0  0  0  0  0  0
    6.5060   -5.2650   28.5230 C   0  0  0  0  0  0  0  0  0  0  0  0
    6.2470   -4.0830   27.9340 C   0  0  0  0  0  0  0  0  0  0  0  0
    7.3260   -2.9930   23.7600 C   0  0  0  0  0  0  0  0  0  0  0  0
    7.3330   -3.1810   22.2730 C   0  0  0  0  0  0  0  0  0  0  0  0
  1  2  1  0
  2  3  2  0
  2  4  1  0
  4  5  1  0
  5  6  1  0
  6  7  1  0
  7  8  1  0
  8  9  2  0
  8 10  1  0
 10 11  1  0
 11 12  1  0
 12 13  1  0
 13 14  1  0
 14 15  2  0
 15 16  1  0
 16 17  2  0
 16 18  2  0
 16 19  1  0
 19 20  1  0
 20 21  1  0
 19 22  1  0
 22 23  1  0
 15 24  1  0
 24 25  2  0
 10 26  1  0
 13 26  2  0
 25 26  1  0
  7 27  1  0
  4 28  1  0
 27 28  1  0
M  END
