piperidine-amides-5085-covalent
     RDKit          3D

 22 23  0  0  0  0  0  0  0  0999 V2000
    7.0810   -3.2990   19.2330 C   0  0  0  0  0  0  0  0  0  0  0  0
    6.3720   -4.0730   20.2790 C   0  0  0  0  0  0  0  0  0  0  0  0
    5.3070   -4.6190   19.9150 O   0  0  0  0  0  0  0  0  0  0  0  0
    6.8950   -4.2270   21.5750 N   0  0  0  0  0  0  0  0  0  0  0  0
    7.6560   -3.1830   22.1910 C   0  0  0  0  0  0  0  0  0  0  0  0
    7.2240   -2.9000   23.5540 C   0  0  0  0  0  0  0  0  0  0  0  0
    6.0070   -3.6450   23.9340 C   0  0  0  0  0  0  0  0  0  0  0  0
    5.6000   -3.3260   25.3270 C   0  0  0  0  0  0  0  0  0  0  0  0
    4.3860   -3.1740   25.5530 O   0  0  0  0  0  0  0  0  0  0  0  0
    6.5340   -3.1890   26.3610 N   0  0  0  0  0  0  0  0  0  0  0  0
    6.2800   -3.5730   27.7740 C   0  0  0  0  0  0  0  0  0  0  0  0
    5.9130   -5.0130   27.9870 C   0  0  0  0  0  0  0  0  0  0  0  0
    5.1470   -5.2600   29.1570 N   0  0  0  0  0  0  0  0  0  0  0  0
    4.2700   -4.3780   29.5790 N   0  0  0  0  0  0  0  0  0  0  0  0
    3.6220   -4.8060   30.7480 C   0  0  0  0  0  0  0  0  0  0  0  0
    2.6570   -4.2440   31.5460 C   0  0  0  0  0  0  0  0  0  0  0  0
    4.2500   -6.1540   31.0120 C   0  0  0  0  0  0  0  0  0  0  0  0
    3.9200   -7.5650   32.5600 I   0  0  0  0  0  0  0  0  0  0  0  0
    5.1580   -6.3530   30.0060 C   0  0  0  0  0  0  0  0  0  0  0  0
    5.9990   -7.3870   29.7480 C   0  0  0  0  0  0  0  0  0  0  0  0
    6.0350   -5.0970   23.6190 C   0  0  0  0  0  0  0  0  0  0  0  0
    6.5780   -5.3980   22.3590 C   0  0  0  0  0  0  0  0  0  0  0  0
  1  2  1  0
  2  3  2  0
  2  4  1  0
  4  5  1  0
  5  6  1  0
  6  7  1  0
  7  8  1  0
  8  9  2  0
  8 10  1  0
 10 11  1  0
 11 12  1  0
 12 13  1  0
 13 14  1  0
 14 15  2  0
 15 16  1  0
 15 17  1  0
 17 18  1  0
 13 19  1  0
 17 19  2  0
 19 20  1  0
  7 21  1  0
  4 22  1  0
 21 22  1  0
M  END
