piperidine-amides-21641-covalent
     RDKit          3D

 23 25  0  0  0  0  0  0  0  0999 V2000
    6.9910   -3.3250   19.3440 C   0  0  0  0  0  0  0  0  0  0  0  0
    6.2060   -4.1030   20.3180 C   0  0  0  0  0  0  0  0  0  0  0  0
    5.1790   -4.6620   19.8840 O   0  0  0  0  0  0  0  0  0  0  0  0
    6.5910   -4.2440   21.6400 N   0  0  0  0  0  0  0  0  0  0  0  0
    6.4740   -5.5190   22.3080 C   0  0  0  0  0  0  0  0  0  0  0  0
    6.2070   -5.2780   23.7700 C   0  0  0  0  0  0  0  0  0  0  0  0
    5.9380   -3.8250   24.1050 C   0  0  0  0  0  0  0  0  0  0  0  0
    5.7690   -3.5250   25.5680 C   0  0  0  0  0  0  0  0  0  0  0  0
    5.8140   -2.3110   25.8390 O   0  0  0  0  0  0  0  0  0  0  0  0
    5.4860   -4.3790   26.6900 N   0  0  0  0  0  0  0  0  0  0  0  0
    4.5870   -3.7630   27.6300 C   0  0  0  0  0  0  0  0  0  0  0  0
    4.9920   -4.1880   29.0410 C   0  0  0  0  0  0  0  0  0  0  0  0
    5.5130   -5.4350   29.2980 C   0  0  0  0  0  0  0  0  0  0  0  0
    5.9410   -6.1080   28.2320 C   0  0  0  0  0  0  0  0  0  0  0  0
    6.4520   -5.2260   27.3870 C   0  0  1  0  0  0  0  0  0  0  0  0
    7.5620   -5.6410   26.8220 C   0  0  0  0  0  0  0  0  0  0  0  0
    7.4410   -4.8620   25.7540 C   0  0  0  0  0  0  0  0  0  0  0  0
    8.5140   -5.0610   24.9380 C   0  0  0  0  0  0  0  0  0  0  0  0
    8.5040   -4.1960   23.6990 C   0  0  0  0  0  0  0  0  0  0  0  0
    9.3040   -6.0260   25.5720 N   0  0  0  0  0  0  0  0  0  0  0  0
    8.5960   -6.2910   26.7090 N   0  0  0  0  0  0  0  0  0  0  0  0
    6.9570   -2.7860   23.5440 C   0  0  0  0  0  0  0  0  0  0  0  0
    7.5020   -3.2620   22.2020 C   0  0  0  0  0  0  0  0  0  0  0  0
  1  2  1  0
  2  3  2  0
  2  4  1  0
  4  5  1  0
  5  6  1  0
  6  7  1  0
  7  8  1  0
  8  9  2  0
  8 10  1  0
 10 11  1  0
 11 12  1  0
 12 13  1  0
 13 14  1  0
 10 15  1  0
 14 15  1  0
 15 16  1  6
 16 17  2  0
 17 18  1  0
 18 19  1  0
 18 20  2  0
 16 21  1  0
 20 21  1  0
  7 22  1  0
  4 23  1  0
 22 23  1  0
M  END
