piperidine-amides-12091-covalent
     RDKit          3D

 25 26  0  0  0  0  0  0  0  0999 V2000
    7.0630   -3.3210   19.3030 C   0  0  0  0  0  0  0  0  0  0  0  0
    6.3510   -4.1240   20.2910 C   0  0  0  0  0  0  0  0  0  0  0  0
    5.3290   -4.7190   19.9510 O   0  0  0  0  0  0  0  0  0  0  0  0
    6.8540   -4.2790   21.6330 N   0  0  0  0  0  0  0  0  0  0  0  0
    6.5080   -5.4420   22.3970 C   0  0  0  0  0  0  0  0  0  0  0  0
    5.7640   -5.0340   23.6390 C   0  0  0  0  0  0  0  0  0  0  0  0
    6.3890   -3.7790   24.2550 C   0  0  0  0  0  0  0  0  0  0  0  0
    5.4330   -3.1970   25.2520 C   0  0  0  0  0  0  0  0  0  0  0  0
    4.5190   -2.4420   24.8790 O   0  0  0  0  0  0  0  0  0  0  0  0
    5.5230   -3.4720   26.6480 N   0  0  0  0  0  0  0  0  0  0  0  0
    6.0090   -4.7460   27.1090 C   0  0  0  0  0  0  0  0  0  0  0  0
    5.0340   -5.5120   27.9370 C   0  0  1  0  0  0  0  0  0  0  0  0
    5.3250   -5.7290   29.2670 C   0  0  0  0  0  0  0  0  0  0  0  0
    5.3130   -6.9100   29.6850 O   0  0  0  0  0  0  0  0  0  0  0  0
    3.7020   -4.7240   27.9250 C   0  0  0  0  0  0  0  0  0  0  0  0
    2.6620   -5.6190   28.0840 C   0  0  0  0  0  0  0  0  0  0  0  0
    2.0450   -5.9020   29.3680 C   0  0  0  0  0  0  0  0  0  0  0  0
    1.0140   -6.7820   29.5520 C   0  0  0  0  0  0  0  0  0  0  0  0
    0.4660   -7.0190   30.7560 F   0  0  0  0  0  0  0  0  0  0  0  0
    0.5560   -7.4240   28.4230 C   0  0  0  0  0  0  0  0  0  0  0  0
    1.0530   -7.2510   27.1260 C   0  0  0  0  0  0  0  0  0  0  0  0
    0.3140   -8.2140   25.6460 Br  0  0  0  0  0  0  0  0  0  0  0  0
    2.1670   -6.2890   26.9770 C   0  0  0  0  0  0  0  0  0  0  0  0
    6.7690   -2.7090   23.2370 C   0  0  0  0  0  0  0  0  0  0  0  0
    7.6250   -3.2650   22.2930 C   0  0  0  0  0  0  0  0  0  0  0  0
  1  2  1  0
  2  3  2  0
  2  4  1  0
  4  5  1  0
  5  6  1  0
  6  7  1  0
  7  8  1  0
  8  9  2  0
  8 10  1  0
 10 11  1  0
 12 11  1  1
 12 13  1  0
 13 14  1  0
 12 15  1  0
 15 16  1  0
 16 17  2  0
 17 18  1  0
 18 19  1  0
 18 20  2  0
 20 21  1  0
 21 22  1  0
 16 23  1  0
 21 23  2  0
  7 24  1  0
  4 25  1  0
 24 25  1  0
M  END
