piperidine-amides-10581-covalent
     RDKit          3D

 23 25  0  0  0  0  0  0  0  0999 V2000
    7.0980   -3.3400   19.2990 C   0  0  0  0  0  0  0  0  0  0  0  0
    6.3660   -4.1120   20.2980 C   0  0  0  0  0  0  0  0  0  0  0  0
    5.2900   -4.6430   19.9200 O   0  0  0  0  0  0  0  0  0  0  0  0
    6.8960   -4.2800   21.5750 N   0  0  0  0  0  0  0  0  0  0  0  0
    7.7300   -3.2770   22.1990 C   0  0  0  0  0  0  0  0  0  0  0  0
    7.0080   -2.7540   23.3970 C   0  0  0  0  0  0  0  0  0  0  0  0
    6.4820   -3.8680   24.2590 C   0  0  0  0  0  0  0  0  0  0  0  0
    5.7630   -3.3010   25.4200 C   0  0  0  0  0  0  0  0  0  0  0  0
    4.5340   -3.0970   25.3070 O   0  0  0  0  0  0  0  0  0  0  0  0
    6.3920   -2.9830   26.6430 N   0  0  0  0  0  0  0  0  0  0  0  0
    6.3100   -1.6640   27.2330 C   0  0  0  0  0  0  0  0  0  0  0  0
    6.3380   -0.4510   26.3080 C   0  0  0  0  0  0  0  0  0  0  0  0
    6.2590    0.8310   26.8240 C   0  0  0  0  0  0  0  0  0  0  0  0
    6.2800    1.9220   26.0040 F   0  0  0  0  0  0  0  0  0  0  0  0
    6.1640    0.9870   28.1790 C   0  0  0  0  0  0  0  0  0  0  0  0
    6.1310   -0.0930   29.0210 C   0  0  0  0  0  0  0  0  0  0  0  0
    6.1920   -1.3850   28.5970 C   0  0  0  0  0  0  0  0  0  0  0  0
    6.0970   -2.3020   29.6250 O   0  0  0  0  0  0  0  0  0  0  0  0
    4.9420   -1.9340   30.3800 C   0  0  0  0  0  0  0  0  0  0  0  0
    4.9380   -0.6410   31.1920 C   0  0  0  0  0  0  0  0  0  0  0  0
    6.0030    0.2060   30.4770 C   0  0  0  0  0  0  0  0  0  0  0  0
    5.6010   -4.8450   23.4640 C   0  0  0  0  0  0  0  0  0  0  0  0
    6.5010   -5.4200   22.3860 C   0  0  0  0  0  0  0  0  0  0  0  0
  1  2  1  0
  2  3  2  0
  2  4  1  0
  4  5  1  0
  5  6  1  0
  6  7  1  0
  7  8  1  0
  8  9  2  0
  8 10  1  0
 10 11  1  0
 11 12  2  0
 12 13  1  0
 13 14  1  0
 13 15  2  0
 15 16  1  0
 11 17  1  0
 16 17  2  0
 17 18  1  0
 18 19  1  0
 19 20  1  0
 16 21  1  0
 20 21  1  0
  7 22  1  0
  4 23  1  0
 22 23  1  0
M  END
