piperidine-amides-6452-covalent
     RDKit          3D

 20 21  0  0  0  0  0  0  0  0999 V2000
    7.1990   -3.2580   19.1650 C   0  0  0  0  0  0  0  0  0  0  0  0
    6.4600   -4.0370   20.1660 C   0  0  0  0  0  0  0  0  0  0  0  0
    5.3560   -4.5600   19.8990 O   0  0  0  0  0  0  0  0  0  0  0  0
    7.0460   -4.2460   21.4100 N   0  0  0  0  0  0  0  0  0  0  0  0
    6.6970   -5.4300   22.1760 C   0  0  0  0  0  0  0  0  0  0  0  0
    5.8940   -4.9770   23.4000 C   0  0  0  0  0  0  0  0  0  0  0  0
    5.9010   -3.4640   23.3930 C   0  0  0  0  0  0  0  0  0  0  0  0
    5.2800   -2.9750   24.5900 C   0  0  0  0  0  0  0  0  0  0  0  0
    4.0440   -3.0410   24.7500 O   0  0  0  0  0  0  0  0  0  0  0  0
    6.1350   -2.4660   25.5410 N   0  0  0  0  0  0  0  0  0  0  0  0
    5.9800   -3.1100   26.7520 C   0  0  0  0  0  0  0  0  0  0  0  0
    6.1570   -2.1050   27.8070 C   0  0  0  0  0  0  0  0  0  0  0  0
    6.1130   -0.7170   27.7700 C   0  0  0  0  0  0  0  0  0  0  0  0
    6.3250   -0.1180   28.9680 C   0  0  0  0  0  0  0  0  0  0  0  0
    6.3160    1.6200   29.2020 Cl  0  0  0  0  0  0  0  0  0  0  0  0
    6.5860   -1.3800   30.1380 S   0  0  0  0  0  0  0  0  0  0  0  0
    6.4090   -2.7520   29.0370 C   0  0  0  0  0  0  0  0  0  0  0  0
    6.4610   -4.5630   29.0590 Cl  0  0  0  0  0  0  0  0  0  0  0  0
    7.2520   -2.8730   23.3250 C   0  0  0  0  0  0  0  0  0  0  0  0
    7.8520   -3.2190   22.0250 C   0  0  0  0  0  0  0  0  0  0  0  0
  1  2  1  0
  2  3  2  0
  2  4  1  0
  4  5  1  0
  5  6  1  0
  6  7  1  0
  7  8  1  0
  8  9  2  0
  8 10  1  0
 10 11  1  0
 11 12  1  0
 12 13  1  0
 13 14  2  0
 14 15  1  0
 14 16  1  0
 12 17  2  0
 16 17  1  0
 17 18  1  0
  7 19  1  0
  4 20  1  0
 19 20  1  0
M  END
