piperidine-amides-25680-covalent
     RDKit          3D

 25 27  0  0  0  0  0  0  0  0999 V2000
    6.9870   -3.3770   19.3790 C   0  0  0  0  0  0  0  0  0  0  0  0
    6.3520   -4.2630   20.3970 C   0  0  0  0  0  0  0  0  0  0  0  0
    5.4100   -4.9510   20.0030 O   0  0  0  0  0  0  0  0  0  0  0  0
    6.8430   -4.3150   21.7150 N   0  0  0  0  0  0  0  0  0  0  0  0
    6.6880   -5.5050   22.5320 C   0  0  0  0  0  0  0  0  0  0  0  0
    6.1440   -5.1400   23.8960 C   0  0  0  0  0  0  0  0  0  0  0  0
    6.2360   -3.6240   24.0450 C   0  0  0  0  0  0  0  0  0  0  0  0
    5.9580   -3.1050   25.4160 C   0  0  0  0  0  0  0  0  0  0  0  0
    5.8530   -1.8890   25.5480 O   0  0  0  0  0  0  0  0  0  0  0  0
    5.7330   -3.8870   26.5640 N   0  0  0  0  0  0  0  0  0  0  0  0
    6.5000   -3.6340   27.7390 C   0  0  0  0  0  0  0  0  0  0  0  0
    6.7200   -4.9910   28.3880 C   0  0  0  0  0  0  0  0  0  0  0  0
    5.7030   -5.5530   29.0990 C   0  0  0  0  0  0  0  0  0  0  0  0
    5.6430   -6.4270   30.1690 C   0  0  0  0  0  0  0  0  0  0  0  0
    4.4130   -6.8330   30.7160 C   0  0  0  0  0  0  0  0  0  0  0  0
    4.4010   -7.6830   31.7760 O   0  0  0  0  0  0  0  0  0  0  0  0
    5.5660   -8.0340   32.3480 C   0  0  0  0  0  0  0  0  0  0  0  0
    5.7050   -7.3920   33.6910 C   0  0  0  0  0  0  0  0  0  0  0  0
    5.5700   -8.9110   33.5760 C   0  0  0  0  0  0  0  0  0  0  0  0
    3.1340   -6.3080   30.1150 C   0  0  0  0  0  0  0  0  0  0  0  0
    3.1530   -5.3890   28.9780 C   0  0  0  0  0  0  0  0  0  0  0  0
    4.4870   -4.9810   28.4320 C   0  0  0  0  0  0  0  0  0  0  0  0
    4.5310   -4.0540   27.2770 C   0  0  0  0  0  0  0  0  0  0  0  0
    7.5980   -3.1370   23.5900 C   0  0  0  0  0  0  0  0  0  0  0  0
    7.6920   -3.2350   22.2210 C   0  0  0  0  0  0  0  0  0  0  0  0
  1  2  1  0
  2  3  2  0
  2  4  1  0
  4  5  1  0
  5  6  1  0
  6  7  1  0
  7  8  1  0
  8  9  2  0
  8 10  1  0
 10 11  1  0
 11 12  1  0
 12 13  1  0
 13 14  2  0
 14 15  1  0
 15 16  1  0
 16 17  1  0
 17 18  1  0
 17 19  1  0
 15 20  2  0
 20 21  1  0
 13 22  1  0
 21 22  2  0
 10 23  1  0
 22 23  1  0
  7 24  1  0
  4 25  1  0
 24 25  1  0
M  END
