piperidine-amides-6337-covalent
     RDKit          3D

 25 28  0  0  0  0  0  0  0  0999 V2000
    7.0450   -3.3140   19.3450 C   0  0  0  0  0  0  0  0  0  0  0  0
    6.3610   -4.1620   20.3380 C   0  0  0  0  0  0  0  0  0  0  0  0
    5.3940   -4.8730   19.9880 O   0  0  0  0  0  0  0  0  0  0  0  0
    6.8020   -4.2140   21.6700 N   0  0  0  0  0  0  0  0  0  0  0  0
    6.6460   -5.4450   22.4170 C   0  0  0  0  0  0  0  0  0  0  0  0
    6.0660   -5.1000   23.8020 C   0  0  0  0  0  0  0  0  0  0  0  0
    6.0190   -3.5920   23.9230 C   0  0  0  0  0  0  0  0  0  0  0  0
    5.6250   -3.1590   25.2800 C   0  0  0  0  0  0  0  0  0  0  0  0
    4.4120   -3.1310   25.5650 O   0  0  0  0  0  0  0  0  0  0  0  0
    6.6240   -2.7980   26.2050 N   0  0  0  0  0  0  0  0  0  0  0  0
    6.4900   -1.6390   27.0520 C   0  0  0  0  0  0  0  0  0  0  0  0
    5.8690   -0.3520   26.5290 C   0  0  0  0  0  0  0  0  0  0  0  0
    5.7530    0.7470   27.3480 C   0  0  0  0  0  0  0  0  0  0  0  0
    6.2150    0.6210   28.6360 C   0  0  0  0  0  0  0  0  0  0  0  0
    6.7860   -0.5170   29.1710 C   0  0  0  0  0  0  0  0  0  0  0  0
    6.9660   -1.6790   28.4730 C   0  0  0  0  0  0  0  0  0  0  0  0
    7.0700   -0.1750   30.4250 N   0  0  0  0  0  0  0  0  0  0  0  0
    6.7210    1.0850   30.7150 C   0  0  0  0  0  0  0  0  0  0  0  0
    7.0070    1.5530   32.1250 C   0  0  0  0  0  0  0  0  0  0  0  0
    7.8970    0.7730   33.0410 C   0  0  0  0  0  0  0  0  0  0  0  0
    6.4530    0.7530   33.2860 C   0  0  0  0  0  0  0  0  0  0  0  0
    6.1830    1.5830   29.5760 N   0  0  0  0  0  0  0  0  0  0  0  0
    5.6860    2.8400   29.3870 C   0  0  0  0  0  0  0  0  0  0  0  0
    7.4150   -3.0520   23.6550 C   0  0  0  0  0  0  0  0  0  0  0  0
    7.6950   -3.1970   22.1880 C   0  0  0  0  0  0  0  0  0  0  0  0
  1  2  1  0
  2  3  2  0
  2  4  1  0
  4  5  1  0
  5  6  1  0
  6  7  1  0
  7  8  1  0
  8  9  2  0
  8 10  1  0
 10 11  1  0
 11 12  2  0
 12 13  1  0
 13 14  2  0
 14 15  1  0
 11 16  1  0
 15 16  2  0
 15 17  1  0
 17 18  2  0
 18 19  1  0
 19 20  1  0
 19 21  1  0
 20 21  1  0
 14 22  1  0
 18 22  1  0
 22 23  1  0
  7 24  1  0
  4 25  1  0
 24 25  1  0
M  END
