piperidine-amides-459-covalent
     RDKit          3D

 27 29  0  0  0  0  0  0  0  0999 V2000
    7.0820   -3.3760   19.2540 C   0  0  0  0  0  0  0  0  0  0  0  0
    6.3500   -4.0750   20.2830 C   0  0  0  0  0  0  0  0  0  0  0  0
    5.2880   -4.6730   19.9320 O   0  0  0  0  0  0  0  0  0  0  0  0
    6.7870   -4.1750   21.6160 N   0  0  0  0  0  0  0  0  0  0  0  0
    7.6260   -3.0940   22.1880 C   0  0  0  0  0  0  0  0  0  0  0  0
    6.7070   -2.6380   23.3840 C   0  0  0  0  0  0  0  0  0  0  0  0
    6.5300   -3.8890   24.2040 C   0  0  0  0  0  0  0  0  0  0  0  0
    5.7100   -3.6570   25.5470 C   0  0  0  0  0  0  0  0  0  0  0  0
    5.0290   -4.6430   25.7580 O   0  0  0  0  0  0  0  0  0  0  0  0
    5.9100   -2.5190   26.0740 N   0  0  0  0  0  0  0  0  0  0  0  0
    5.9200   -1.3230   26.7250 C   0  0  2  0  0  0  0  0  0  0  0  0
    5.9400    0.0120   26.4550 C   0  0  0  0  0  0  0  0  0  0  0  0
    5.8970    0.5420   27.7000 C   0  0  0  0  0  0  0  0  0  0  0  0
    6.1250   -0.4890   28.4740 N   0  0  0  0  0  0  0  0  0  0  0  0
    4.9610   -1.1060   28.9200 C   0  0  2  0  0  0  0  0  0  0  0  0
    5.0290   -1.5120   30.3990 C   0  0  0  0  0  0  0  0  0  0  0  0
    5.0290   -2.6380   29.1780 C   0  0  0  0  0  0  0  0  0  0  0  0
    6.3110   -3.2590   28.8840 C   0  0  0  0  0  0  0  0  0  0  0  0
    5.9520   -4.7130   29.2570 C   0  0  0  0  0  0  0  0  0  0  0  0
    4.6120   -5.2490   29.7800 C   0  0  0  0  0  0  0  0  0  0  0  0
    4.4800   -6.6100   30.0680 F   0  0  0  0  0  0  0  0  0  0  0  0
    3.5880   -4.4270   29.9570 C   0  0  0  0  0  0  0  0  0  0  0  0
    3.7980   -3.1260   29.6540 C   0  0  0  0  0  0  0  0  0  0  0  0
    7.1350   -1.2290   27.7600 C   0  0  0  0  0  0  0  0  0  0  0  0
    7.9200   -0.9440   28.8690 O   0  0  0  0  0  0  0  0  0  0  0  0
    5.9800   -5.0970   23.5090 C   0  0  0  0  0  0  0  0  0  0  0  0
    6.6650   -5.3960   22.3440 C   0  0  0  0  0  0  0  0  0  0  0  0
  1  2  1  0
  2  3  2  0
  2  4  1  0
  4  5  1  0
  5  6  1  0
  6  7  1  0
  7  8  1  0
  8  9  2  0
  8 10  1  0
 11 10  1  6
 11 12  1  0
 12 13  1  0
 13 14  1  0
 14 15  1  0
 15 16  1  1
 15 17  1  0
 17 18  2  0
 18 19  1  0
 19 20  2  0
 20 21  1  0
 20 22  1  0
 17 23  1  0
 22 23  2  0
 11 24  1  0
 14 24  1  0
 24 25  2  0
  7 26  1  0
  4 27  1  0
 26 27  1  0
M  END
