piperidine-amides-4984-covalent
     RDKit          3D

 23 24  0  0  0  0  0  0  0  0999 V2000
    7.1240   -3.2750   19.1420 C   0  0  0  0  0  0  0  0  0  0  0  0
    6.2980   -3.9420   20.1740 C   0  0  0  0  0  0  0  0  0  0  0  0
    5.2090   -4.4130   19.8130 O   0  0  0  0  0  0  0  0  0  0  0  0
    6.7590   -4.0760   21.4830 N   0  0  0  0  0  0  0  0  0  0  0  0
    6.4040   -5.2220   22.2530 C   0  0  0  0  0  0  0  0  0  0  0  0
    6.0850   -4.9170   23.6530 C   0  0  0  0  0  0  0  0  0  0  0  0
    6.9230   -3.8450   24.2360 C   0  0  0  0  0  0  0  0  0  0  0  0
    6.4410   -3.4070   25.5540 C   0  0  0  0  0  0  0  0  0  0  0  0
    5.2170   -3.1860   25.7150 O   0  0  0  0  0  0  0  0  0  0  0  0
    7.3830   -3.2350   26.5860 N   0  0  0  0  0  0  0  0  0  0  0  0
    7.3190   -3.9790   27.8600 C   0  0  1  0  0  0  0  0  0  0  0  0
    5.9080   -4.1520   28.2620 C   0  0  0  0  0  0  0  0  0  0  0  0
    7.9650   -5.3120   27.8410 C   0  0  0  0  0  0  0  0  0  0  0  0
    7.5580   -6.0830   28.7880 O   0  0  0  0  0  0  0  0  0  0  0  0
    6.2190   -6.5040   28.6550 C   0  0  0  0  0  0  0  0  0  0  0  0
    5.4690   -6.6120   27.4950 C   0  0  0  0  0  0  0  0  0  0  0  0
    4.1800   -7.0370   27.5190 C   0  0  0  0  0  0  0  0  0  0  0  0
    3.5870   -7.3710   28.6990 C   0  0  0  0  0  0  0  0  0  0  0  0
    4.2790   -7.2800   29.8680 C   0  0  0  0  0  0  0  0  0  0  0  0
    3.7100   -7.6060   31.0750 F   0  0  0  0  0  0  0  0  0  0  0  0
    5.6050   -6.8450   29.8400 C   0  0  0  0  0  0  0  0  0  0  0  0
    7.1400   -2.6650   23.3800 C   0  0  0  0  0  0  0  0  0  0  0  0
    7.6970   -3.1260   22.0730 C   0  0  0  0  0  0  0  0  0  0  0  0
  1  2  1  0
  2  3  2  0
  2  4  1  0
  4  5  1  0
  5  6  1  0
  6  7  1  0
  7  8  1  0
  8  9  2  0
  8 10  1  0
 10 11  1  0
 11 12  1  6
 11 13  1  0
 13 14  1  0
 14 15  1  0
 15 16  2  0
 16 17  1  0
 17 18  2  0
 18 19  1  0
 19 20  1  0
 15 21  1  0
 19 21  2  0
  7 22  1  0
  4 23  1  0
 22 23  1  0
M  END
