piperidine-amides-23697-covalent
     RDKit          3D

 23 25  0  0  0  0  0  0  0  0999 V2000
    7.0870   -3.3740   19.3660 C   0  0  0  0  0  0  0  0  0  0  0  0
    6.4560   -4.2500   20.3680 C   0  0  0  0  0  0  0  0  0  0  0  0
    5.4200   -4.8600   19.9980 O   0  0  0  0  0  0  0  0  0  0  0  0
    7.0400   -4.4360   21.6560 N   0  0  0  0  0  0  0  0  0  0  0  0
    6.5800   -5.5310   22.4470 C   0  0  0  0  0  0  0  0  0  0  0  0
    6.0250   -5.0890   23.7220 C   0  0  0  0  0  0  0  0  0  0  0  0
    5.9970   -3.6140   23.8050 C   0  0  0  0  0  0  0  0  0  0  0  0
    5.1050   -3.0340   24.8660 C   0  0  0  0  0  0  0  0  0  0  0  0
    4.1920   -2.2870   24.5090 O   0  0  0  0  0  0  0  0  0  0  0  0
    5.2250   -3.2630   26.2310 N   0  0  0  0  0  0  0  0  0  0  0  0
    6.3850   -3.2480   26.9260 C   0  0  0  0  0  0  0  0  0  0  0  0
    6.5730   -4.3460   27.8570 C   0  0  0  0  0  0  0  0  0  0  0  0
    5.9760   -4.1460   29.1270 C   0  0  0  0  0  0  0  0  0  0  0  0
    5.6130   -5.4980   29.3950 C   0  0  0  0  0  0  0  0  0  0  0  0
    6.0410   -5.7900   27.9140 C   0  0  0  0  0  0  0  0  0  0  0  0
    5.3480   -5.0600   27.4450 C   0  0  0  0  0  0  0  0  0  0  0  0
    4.2920   -4.1200   26.8590 C   0  0  1  0  0  0  0  0  0  0  0  0
    3.3180   -3.3210   27.7030 C   0  0  0  0  0  0  0  0  0  0  0  0
    2.1150   -3.2300   27.0390 F   0  0  0  0  0  0  0  0  0  0  0  0
    3.1310   -4.0380   28.8860 F   0  0  0  0  0  0  0  0  0  0  0  0
    3.8070   -2.0570   27.9810 F   0  0  0  0  0  0  0  0  0  0  0  0
    7.3880   -3.0610   23.6970 C   0  0  0  0  0  0  0  0  0  0  0  0
    7.7560   -3.3120   22.2310 C   0  0  0  0  0  0  0  0  0  0  0  0
  1  2  1  0
  2  3  2  0
  2  4  1  0
  4  5  1  0
  5  6  1  0
  6  7  1  0
  7  8  1  0
  8  9  2  0
  8 10  1  0
 10 11  1  0
 12 11  1  0
 12 13  1  0
 13 14  1  0
 12 15  1  0
 14 15  1  0
 12 16  1  0
 10 17  1  0
 16 17  1  0
 17 18  1  1
 18 19  1  0
 18 20  1  0
 18 21  1  0
  7 22  1  0
  4 23  1  0
 22 23  1  0
M  END
