piperidine-amides-7176-covalent
     RDKit          3D

 21 22  0  0  0  0  0  0  0  0999 V2000
    7.1080   -3.2660   19.1880 C   0  0  0  0  0  0  0  0  0  0  0  0
    6.3730   -4.0080   20.2150 C   0  0  0  0  0  0  0  0  0  0  0  0
    5.2760   -4.5160   19.8680 O   0  0  0  0  0  0  0  0  0  0  0  0
    6.9180   -4.1740   21.4860 N   0  0  0  0  0  0  0  0  0  0  0  0
    7.6930   -3.1430   22.1380 C   0  0  0  0  0  0  0  0  0  0  0  0
    6.9480   -2.7170   23.3660 C   0  0  0  0  0  0  0  0  0  0  0  0
    6.5840   -3.9010   24.2110 C   0  0  0  0  0  0  0  0  0  0  0  0
    5.7970   -3.4440   25.3780 C   0  0  0  0  0  0  0  0  0  0  0  0
    4.5540   -3.5460   25.3130 O   0  0  0  0  0  0  0  0  0  0  0  0
    6.3690   -2.8990   26.5490 N   0  0  0  0  0  0  0  0  0  0  0  0
    6.5680   -1.4790   26.6700 C   0  0  0  0  0  0  0  0  0  0  0  0
    5.2630   -0.6890   26.5850 C   0  0  0  0  0  0  0  0  0  0  0  0
    4.0920   -1.2250   27.0760 C   0  0  0  0  0  0  0  0  0  0  0  0
    2.8870   -0.6040   26.7900 C   0  0  0  0  0  0  0  0  0  0  0  0
    1.9650   -1.3790   27.3100 O   0  0  0  0  0  0  0  0  0  0  0  0
    0.7740   -0.9550   27.0090 C   0  0  0  0  0  0  0  0  0  0  0  0
    5.0450   -0.0560   25.3060 C   0  0  0  0  0  0  0  0  0  0  0  0
    5.2020    1.1610   25.7930 C   0  0  0  0  0  0  0  0  0  0  0  0
    5.4650    0.7860   27.1810 C   0  0  0  0  0  0  0  0  0  0  0  0
    5.7720   -4.9100   23.4720 C   0  0  0  0  0  0  0  0  0  0  0  0
    6.4660   -5.3520   22.2080 C   0  0  0  0  0  0  0  0  0  0  0  0
  1  2  1  0
  2  3  2  0
  2  4  1  0
  4  5  1  0
  5  6  1  0
  6  7  1  0
  7  8  1  0
  8  9  2  0
  8 10  1  0
 10 11  1  0
 12 11  1  0
 12 13  1  0
 13 14  1  0
 14 15  1  0
 15 16  1  0
 12 17  1  0
 17 18  1  0
 12 19  1  0
 18 19  1  0
  7 20  1  0
  4 21  1  0
 20 21  1  0
M  END
