piperidine-amides-27693-covalent
     RDKit          3D

 26 29  0  0  0  0  0  0  0  0999 V2000
    7.0240   -3.3760   19.4200 C   0  0  0  0  0  0  0  0  0  0  0  0
    6.3980   -4.2670   20.4010 C   0  0  0  0  0  0  0  0  0  0  0  0
    5.3910   -4.9090   19.9960 O   0  0  0  0  0  0  0  0  0  0  0  0
    6.9370   -4.4170   21.6910 N   0  0  0  0  0  0  0  0  0  0  0  0
    6.6210   -5.5410   22.5320 C   0  0  0  0  0  0  0  0  0  0  0  0
    5.8580   -5.0390   23.7420 C   0  0  0  0  0  0  0  0  0  0  0  0
    6.4460   -3.7980   24.3850 C   0  0  0  0  0  0  0  0  0  0  0  0
    5.5260   -3.2500   25.4390 C   0  0  0  0  0  0  0  0  0  0  0  0
    4.7940   -2.3130   25.0770 O   0  0  0  0  0  0  0  0  0  0  0  0
    5.3630   -3.6840   26.8000 N   0  0  0  0  0  0  0  0  0  0  0  0
    4.1540   -3.3990   27.5140 C   0  0  0  0  0  0  0  0  0  0  0  0
    4.2530   -3.8640   28.9760 C   0  0  0  0  0  0  0  0  0  0  0  0
    5.1860   -4.9900   29.0570 N   0  0  0  0  0  0  0  0  0  0  0  0
    6.3290   -4.9810   28.4160 C   0  0  0  0  0  0  0  0  0  0  0  0
    7.0550   -6.1200   28.6160 N   0  0  0  0  0  0  0  0  0  0  0  0
    6.2250   -6.7720   29.4240 N   0  0  0  0  0  0  0  0  0  0  0  0
    5.0040   -6.1060   29.7480 C   0  0  0  0  0  0  0  0  0  0  0  0
    3.9960   -6.6080   30.5650 C   0  0  0  0  0  0  0  0  0  0  0  0
    3.5720   -6.0750   31.7350 C   0  0  0  0  0  0  0  0  0  0  0  0
    2.5760   -6.8910   32.1870 N   0  0  0  0  0  0  0  0  0  0  0  0
    2.4100   -7.8960   31.3010 N   0  0  0  0  0  0  0  0  0  0  0  0
    1.4400   -8.9770   31.4260 C   0  0  0  0  0  0  0  0  0  0  0  0
    3.2900   -7.7380   30.2780 C   0  0  0  0  0  0  0  0  0  0  0  0
    6.3790   -3.7800   27.7410 C   0  0  0  0  0  0  0  0  0  0  0  0
    6.7550   -2.7150   23.3340 C   0  0  0  0  0  0  0  0  0  0  0  0
    7.6900   -3.3420   22.3150 C   0  0  0  0  0  0  0  0  0  0  0  0
  1  2  1  0
  2  3  2  0
  2  4  1  0
  4  5  1  0
  5  6  1  0
  6  7  1  0
  7  8  1  0
  8  9  2  0
  8 10  1  0
 10 11  1  0
 11 12  1  0
 12 13  1  0
 13 14  1  0
 14 15  2  0
 15 16  1  0
 13 17  1  0
 16 17  2  0
 17 18  1  0
 18 19  1  0
 19 20  2  0
 20 21  1  0
 21 22  1  0
 18 23  2  0
 21 23  1  0
 10 24  1  0
 14 24  1  0
  7 25  1  0
  4 26  1  0
 25 26  1  0
M  END
