piperidine-amides-32578-covalent
     RDKit          3D

 24 25  0  0  0  0  0  0  0  0999 V2000
    7.1240   -3.3490   19.3220 C   0  0  0  0  0  0  0  0  0  0  0  0
    6.3780   -4.1660   20.3110 C   0  0  0  0  0  0  0  0  0  0  0  0
    5.3300   -4.7280   19.9540 O   0  0  0  0  0  0  0  0  0  0  0  0
    6.9190   -4.3280   21.6060 N   0  0  0  0  0  0  0  0  0  0  0  0
    6.6220   -5.4560   22.4480 C   0  0  0  0  0  0  0  0  0  0  0  0
    5.7670   -4.9250   23.6040 C   0  0  0  0  0  0  0  0  0  0  0  0
    6.4780   -3.7700   24.2460 C   0  0  0  0  0  0  0  0  0  0  0  0
    5.6810   -3.1850   25.3550 C   0  0  0  0  0  0  0  0  0  0  0  0
    4.4730   -3.0730   25.1220 O   0  0  0  0  0  0  0  0  0  0  0  0
    6.2430   -2.8110   26.5920 N   0  0  0  0  0  0  0  0  0  0  0  0
    6.2540   -3.7540   27.6620 C   0  0  0  0  0  0  0  0  0  0  0  0
    6.2220   -1.4260   27.0260 C   0  0  0  0  0  0  0  0  0  0  0  0
    6.7310   -1.0400   28.2740 C   0  0  0  0  0  0  0  0  0  0  0  0
    7.2850   -2.0040   29.1260 N   0  0  0  0  0  0  0  0  0  0  0  0
    6.3390   -2.4620   29.8030 O   0  0  0  0  0  0  0  0  0  0  0  0
    8.4310   -1.6510   29.7610 O   0  0  0  0  0  0  0  0  0  0  0  0
    6.7700    0.1910   28.8150 C   0  0  0  0  0  0  0  0  0  0  0  0
    6.2230    1.2750   28.0250 C   0  0  0  0  0  0  0  0  0  0  0  0
    5.6260    1.0500   26.6380 C   0  0  0  0  0  0  0  0  0  0  0  0
    4.8950    2.4220   25.5520 Br  0  0  0  0  0  0  0  0  0  0  0  0
    5.6850   -0.4430   26.2180 C   0  0  0  0  0  0  0  0  0  0  0  0
    5.1550   -0.7160   24.9710 C   0  0  0  0  0  0  0  0  0  0  0  0
    6.8750   -2.6820   23.3140 C   0  0  0  0  0  0  0  0  0  0  0  0
    7.6960   -3.2600   22.1930 C   0  0  0  0  0  0  0  0  0  0  0  0
  1  2  1  0
  2  3  2  0
  2  4  1  0
  4  5  1  0
  5  6  1  0
  6  7  1  0
  7  8  1  0
  8  9  2  0
  8 10  1  0
 10 11  1  0
 10 12  1  0
 12 13  2  0
 13 14  1  0
 14 15  2  0
 14 16  1  0
 13 17  1  0
 17 18  2  0
 18 19  1  0
 19 20  1  0
 12 21  1  0
 19 21  2  0
 21 22  1  0
  7 23  1  0
  4 24  1  0
 23 24  1  0
M  CHG  2  14   1  16  -1
M  END
