piperidine-amides-10184-covalent
     RDKit          3D

 25 26  0  0  0  0  0  0  0  0999 V2000
    7.0200   -3.3460   19.3570 C   0  0  0  0  0  0  0  0  0  0  0  0
    6.3710   -4.1880   20.3680 C   0  0  0  0  0  0  0  0  0  0  0  0
    5.3740   -4.8510   19.9820 O   0  0  0  0  0  0  0  0  0  0  0  0
    6.8770   -4.2630   21.6730 N   0  0  0  0  0  0  0  0  0  0  0  0
    6.6770   -5.4550   22.4710 C   0  0  0  0  0  0  0  0  0  0  0  0
    5.9830   -5.0370   23.7380 C   0  0  0  0  0  0  0  0  0  0  0  0
    6.0340   -3.5440   23.8810 C   0  0  0  0  0  0  0  0  0  0  0  0
    5.6690   -3.1170   25.2480 C   0  0  0  0  0  0  0  0  0  0  0  0
    4.4740   -3.2160   25.5980 O   0  0  0  0  0  0  0  0  0  0  0  0
    6.6100   -2.6050   26.1590 N   0  0  0  0  0  0  0  0  0  0  0  0
    6.4260   -1.3520   26.8560 C   0  0  0  0  0  0  0  0  0  0  0  0
    5.9230   -0.1090   26.1540 C   0  0  0  0  0  0  0  0  0  0  0  0
    5.7490    1.0780   26.7960 C   0  0  0  0  0  0  0  0  0  0  0  0
    6.0360    1.1750   28.1250 C   0  0  0  0  0  0  0  0  0  0  0  0
    6.5000    0.1640   28.9290 C   0  0  0  0  0  0  0  0  0  0  0  0
    6.7710    0.2960   30.2440 N   0  0  0  0  0  0  0  0  0  0  0  0
    6.8120    1.4610   30.9200 C   0  0  0  0  0  0  0  0  0  0  0  0
    7.0420    2.6860   30.2740 O   0  0  0  0  0  0  0  0  0  0  0  0
    6.6500    1.4690   32.0720 N   0  0  0  0  0  0  0  0  0  0  0  0
    7.2990    0.3270   32.6660 C   0  0  0  0  0  0  0  0  0  0  0  0
    8.5990    0.5470   33.4000 C   0  0  0  0  0  0  0  0  0  0  0  0
    6.7110   -1.1770   28.2870 C   0  0  0  0  0  0  0  0  0  0  0  0
    7.2000   -2.2610   29.1370 C   0  0  0  0  0  0  0  0  0  0  0  0
    7.4150   -3.0360   23.5840 C   0  0  0  0  0  0  0  0  0  0  0  0
    7.7070   -3.1890   22.2480 C   0  0  0  0  0  0  0  0  0  0  0  0
  1  2  1  0
  2  3  2  0
  2  4  1  0
  4  5  1  0
  5  6  1  0
  6  7  1  0
  7  8  1  0
  8  9  2  0
  8 10  1  0
 10 11  1  0
 11 12  2  0
 12 13  1  0
 13 14  2  0
 14 15  1  0
 15 16  1  0
 16 17  1  0
 17 18  2  0
 17 19  1  0
 19 20  1  0
 20 21  1  0
 11 22  1  0
 15 22  2  0
 22 23  1  0
  7 24  1  0
  4 25  1  0
 24 25  1  0
M  END
