piperidine-amides-25258-covalent
     RDKit          3D

 24 24  0  0  0  0  0  0  0  0999 V2000
    7.0370   -3.2480   19.1950 C   0  0  0  0  0  0  0  0  0  0  0  0
    6.2790   -4.0170   20.2220 C   0  0  0  0  0  0  0  0  0  0  0  0
    5.2320   -4.5410   19.8640 O   0  0  0  0  0  0  0  0  0  0  0  0
    6.7680   -4.1670   21.5140 N   0  0  0  0  0  0  0  0  0  0  0  0
    7.7080   -3.2490   22.0840 C   0  0  0  0  0  0  0  0  0  0  0  0
    7.2590   -2.8680   23.4620 C   0  0  0  0  0  0  0  0  0  0  0  0
    5.8850   -3.4630   23.7830 C   0  0  0  0  0  0  0  0  0  0  0  0
    5.5790   -3.0810   25.1780 C   0  0  0  0  0  0  0  0  0  0  0  0
    4.3970   -2.8870   25.4960 O   0  0  0  0  0  0  0  0  0  0  0  0
    6.5920   -2.9330   26.1500 N   0  0  0  0  0  0  0  0  0  0  0  0
    7.3740   -1.7350   26.1170 C   0  0  0  0  0  0  0  0  0  0  0  0
    6.4050   -3.5650   27.4030 C   0  0  0  0  0  0  0  0  0  0  0  0
    5.9660   -4.8410   27.2360 C   0  0  0  0  0  0  0  0  0  0  0  0
    6.2220   -5.6300   28.2800 C   0  0  0  0  0  0  0  0  0  0  0  0
    7.5680   -5.5170   28.7170 N   0  0  0  0  0  0  0  0  0  0  0  0
    8.5500   -5.2640   27.7000 C   0  0  0  0  0  0  0  0  0  0  0  0
    9.7110   -5.9340   27.6840 O   0  0  0  0  0  0  0  0  0  0  0  0
    8.4050   -4.3500   26.6800 O   0  0  0  0  0  0  0  0  0  0  0  0
    9.0270   -4.6030   25.4460 C   0  0  0  0  0  0  0  0  0  0  0  0
    9.6040   -5.9520   25.3030 C   0  0  0  0  0  0  0  0  0  0  0  0
    8.2920   -5.6190   24.6320 C   0  0  0  0  0  0  0  0  0  0  0  0
    9.7280   -3.5910   24.5900 C   0  0  0  0  0  0  0  0  0  0  0  0
    5.7300   -4.9480   23.5390 C   0  0  0  0  0  0  0  0  0  0  0  0
    6.4250   -5.3540   22.2490 C   0  0  0  0  0  0  0  0  0  0  0  0
  1  2  1  0
  2  3  2  0
  2  4  1  0
  4  5  1  0
  5  6  1  0
  6  7  1  0
  7  8  1  0
  8  9  2  0
  8 10  1  0
 10 11  1  0
 10 12  1  0
 12 13  1  0
 13 14  1  0
 14 15  1  0
 15 16  1  0
 16 17  2  0
 16 18  1  0
 19 18  1  0
 19 20  1  0
 19 21  1  0
 19 22  1  0
  7 23  1  0
  4 24  1  0
 23 24  1  0
M  END
