piperidine-amides-31313-covalent
     RDKit          3D

 28 30  0  0  0  0  0  0  0  0999 V2000
    7.1160   -3.3140   19.3620 C   0  0  0  0  0  0  0  0  0  0  0  0
    6.3990   -4.1020   20.3370 C   0  0  0  0  0  0  0  0  0  0  0  0
    5.4040   -4.8070   19.9670 O   0  0  0  0  0  0  0  0  0  0  0  0
    6.8040   -4.1200   21.6800 N   0  0  0  0  0  0  0  0  0  0  0  0
    6.7000   -5.3940   22.4130 C   0  0  0  0  0  0  0  0  0  0  0  0
    5.8710   -4.8920   23.6510 C   0  0  0  0  0  0  0  0  0  0  0  0
    6.7690   -3.9330   24.4150 C   0  0  0  0  0  0  0  0  0  0  0  0
    5.9730   -3.3740   25.6690 C   0  0  0  0  0  0  0  0  0  0  0  0
    4.7830   -3.6580   25.5760 O   0  0  0  0  0  0  0  0  0  0  0  0
    6.7780   -2.7590   26.4570 N   0  0  0  0  0  0  0  0  0  0  0  0
    7.7830   -2.3030   27.2530 C   0  0  0  0  0  0  0  0  0  0  0  0
    7.6750   -1.2690   28.1860 C   0  0  0  0  0  0  0  0  0  0  0  0
    8.3340   -1.3760   29.4120 C   0  0  0  0  0  0  0  0  0  0  0  0
    8.2930   -0.3650   30.5360 C   0  0  0  0  0  0  0  0  0  0  0  0
    7.4180    0.8700   30.1830 C   0  0  0  0  0  0  0  0  0  0  0  0
    6.8420    0.8290   28.9120 C   0  0  0  0  0  0  0  0  0  0  0  0
    6.9590   -0.1840   27.9570 C   0  0  0  0  0  0  0  0  0  0  0  0
    6.1700   -1.6420   27.1000 C   0  0  0  0  0  0  0  0  0  0  0  0
    6.1510   -1.6980   28.6540 C   0  0  0  0  0  0  0  0  0  0  0  0
    5.5990   -0.6480   29.3300 C   0  0  0  0  0  0  0  0  0  0  0  0
    5.0610    0.4480   28.7010 C   0  0  0  0  0  0  0  0  0  0  0  0
    4.5210    1.4620   29.4250 F   0  0  0  0  0  0  0  0  0  0  0  0
    5.0880    0.4760   27.3350 C   0  0  0  0  0  0  0  0  0  0  0  0
    5.6150   -0.5140   26.5200 C   0  0  0  0  0  0  0  0  0  0  0  0
    5.5710   -0.3450   25.2670 O   0  0  0  0  0  0  0  0  0  0  0  0
    4.3100   -0.6450   24.6830 C   0  0  0  0  0  0  0  0  0  0  0  0
    7.5050   -2.8680   23.6710 C   0  0  0  0  0  0  0  0  0  0  0  0
    7.7150   -3.1540   22.2210 C   0  0  0  0  0  0  0  0  0  0  0  0
  1  2  1  0
  2  3  2  0
  2  4  1  0
  4  5  1  0
  5  6  1  0
  6  7  1  0
  7  8  1  0
  8  9  2  0
  8 10  1  0
 10 11  1  0
 11 12  1  0
 12 13  2  0
 13 14  1  0
 14 15  2  0
 15 16  1  0
 12 17  1  0
 16 17  2  0
 10 18  1  0
 18 19  2  0
 19 20  1  0
 20 21  2  0
 21 22  1  0
 21 23  1  0
 18 24  1  0
 23 24  2  0
 24 25  1  0
 25 26  1  0
  7 27  1  0
  4 28  1  0
 27 28  1  0
M  END
