piperidine-amides-32598-covalent
     RDKit          3D

 28 30  0  0  0  0  0  0  0  0999 V2000
    7.1600   -3.3450   19.3080 C   0  0  0  0  0  0  0  0  0  0  0  0
    6.4050   -4.1620   20.2870 C   0  0  0  0  0  0  0  0  0  0  0  0
    5.3350   -4.6910   19.9430 O   0  0  0  0  0  0  0  0  0  0  0  0
    6.9710   -4.3640   21.5560 N   0  0  0  0  0  0  0  0  0  0  0  0
    6.6160   -5.5000   22.3610 C   0  0  0  0  0  0  0  0  0  0  0  0
    5.7640   -4.9410   23.5010 C   0  0  0  0  0  0  0  0  0  0  0  0
    6.5270   -3.8260   24.1530 C   0  0  0  0  0  0  0  0  0  0  0  0
    5.8050   -3.2900   25.3180 C   0  0  0  0  0  0  0  0  0  0  0  0
    5.0440   -2.3420   25.1240 O   0  0  0  0  0  0  0  0  0  0  0  0
    5.9800   -3.8760   26.5550 N   0  0  0  0  0  0  0  0  0  0  0  0
    5.7310   -3.2510   27.7930 C   0  0  0  0  0  0  0  0  0  0  0  0
    6.2050   -3.7600   28.9600 C   0  0  0  0  0  0  0  0  0  0  0  0
    6.2630   -5.1420   29.1180 C   0  0  0  0  0  0  0  0  0  0  0  0
    5.3360   -5.6400   30.0090 C   0  0  0  0  0  0  0  0  0  0  0  0
    4.0240   -4.9540   30.1740 C   0  0  0  0  0  0  0  0  0  0  0  0
    2.9530   -5.4460   31.1550 C   0  0  0  0  0  0  0  0  0  0  0  0
    3.4580   -6.6870   31.8800 C   0  0  0  0  0  0  0  0  0  0  0  0
    4.6870   -7.2740   31.6790 C   0  0  0  0  0  0  0  0  0  0  0  0
    4.8940   -8.3870   32.4710 O   0  0  0  0  0  0  0  0  0  0  0  0
    4.2190   -8.5840   33.6890 C   0  0  0  0  0  0  0  0  0  0  0  0
    4.8890   -9.4800   34.4540 F   0  0  0  0  0  0  0  0  0  0  0  0
    2.9370   -9.0330   33.5250 F   0  0  0  0  0  0  0  0  0  0  0  0
    4.2190   -7.3820   34.3780 F   0  0  0  0  0  0  0  0  0  0  0  0
    5.6150   -6.7670   30.7570 C   0  0  0  0  0  0  0  0  0  0  0  0
    6.2130   -5.8730   27.9600 C   0  0  0  0  0  0  0  0  0  0  0  0
    5.8320   -5.3240   26.5860 C   0  0  0  0  0  0  0  0  0  0  0  0
    6.9300   -2.7100   23.2550 C   0  0  0  0  0  0  0  0  0  0  0  0
    7.7900   -3.3450   22.1800 C   0  0  0  0  0  0  0  0  0  0  0  0
  1  2  1  0
  2  3  2  0
  2  4  1  0
  4  5  1  0
  5  6  1  0
  6  7  1  0
  7  8  1  0
  8  9  2  0
  8 10  1  0
 10 11  1  0
 11 12  1  0
 12 13  1  0
 13 14  1  0
 14 15  2  0
 15 16  1  0
 16 17  2  0
 17 18  1  0
 18 19  1  0
 19 20  1  0
 20 21  1  0
 20 22  1  0
 20 23  1  0
 14 24  1  0
 18 24  2  0
 13 25  1  0
 10 26  1  0
 25 26  1  0
  7 27  1  0
  4 28  1  0
 27 28  1  0
M  END
