piperidine-amides-33184-covalent
     RDKit          3D

 28 30  0  0  0  0  0  0  0  0999 V2000
    7.0970   -3.3480   19.2950 C   0  0  0  0  0  0  0  0  0  0  0  0
    6.4380   -4.1810   20.3140 C   0  0  0  0  0  0  0  0  0  0  0  0
    5.3930   -4.7870   19.9720 O   0  0  0  0  0  0  0  0  0  0  0  0
    7.0080   -4.3240   21.6050 N   0  0  0  0  0  0  0  0  0  0  0  0
    6.5290   -5.3640   22.4520 C   0  0  0  0  0  0  0  0  0  0  0  0
    6.1040   -4.9340   23.7900 C   0  0  0  0  0  0  0  0  0  0  0  0
    6.7370   -3.7030   24.3350 C   0  0  0  0  0  0  0  0  0  0  0  0
    5.9970   -3.1660   25.5300 C   0  0  0  0  0  0  0  0  0  0  0  0
    5.4980   -2.0320   25.4600 O   0  0  0  0  0  0  0  0  0  0  0  0
    5.7670   -3.8910   26.7200 N   0  0  0  0  0  0  0  0  0  0  0  0
    4.4920   -4.2900   27.1100 C   0  0  0  0  0  0  0  0  0  0  0  0
    4.3690   -5.3370   28.1020 C   0  0  0  0  0  0  0  0  0  0  0  0
    5.3000   -5.5930   29.0060 N   0  0  0  0  0  0  0  0  0  0  0  0
    4.9570   -6.0140   30.3520 C   0  0  0  0  0  0  0  0  0  0  0  0
    3.9080   -5.1770   30.8370 C   0  0  0  0  0  0  0  0  0  0  0  0
    3.3680   -5.4710   32.2880 C   0  0  0  0  0  0  0  0  0  0  0  0
    4.0560   -6.6110   32.9460 C   0  0  0  0  0  0  0  0  0  0  0  0
    3.5060   -6.8800   34.3540 C   0  0  0  0  0  0  0  0  0  0  0  0
    4.0580   -6.3990   35.5410 O   0  0  0  0  0  0  0  0  0  0  0  0
    2.3960   -7.6640   34.2410 N   0  0  0  0  0  0  0  0  0  0  0  0
    2.7530   -8.8580   33.7350 C   0  0  0  0  0  0  0  0  0  0  0  0
    5.1190   -7.4870   32.5070 C   0  0  0  0  0  0  0  0  0  0  0  0
    5.7450   -8.7840   33.5330 Cl  0  0  0  0  0  0  0  0  0  0  0  0
    5.5860   -7.1550   31.1200 C   0  0  0  0  0  0  0  0  0  0  0  0
    6.4550   -4.9790   28.7290 C   0  0  0  0  0  0  0  0  0  0  0  0
    6.3890   -3.7630   28.0210 C   0  0  0  0  0  0  0  0  0  0  0  0
    6.9870   -2.6520   23.3290 C   0  0  0  0  0  0  0  0  0  0  0  0
    7.7280   -3.2100   22.1560 C   0  0  0  0  0  0  0  0  0  0  0  0
  1  2  1  0
  2  3  2  0
  2  4  1  0
  4  5  1  0
  5  6  1  0
  6  7  1  0
  7  8  1  0
  8  9  2  0
  8 10  1  0
 10 11  1  0
 11 12  1  0
 12 13  1  0
 13 14  1  0
 14 15  2  0
 15 16  1  0
 16 17  2  0
 17 18  1  0
 18 19  2  0
 18 20  1  0
 20 21  1  0
 17 22  1  0
 22 23  1  0
 14 24  1  0
 22 24  2  0
 13 25  1  0
 10 26  1  0
 25 26  1  0
  7 27  1  0
  4 28  1  0
 27 28  1  0
M  END
