piperidine-amides-3761-covalent
     RDKit          3D

 26 27  0  0  0  0  0  0  0  0999 V2000
    7.1390   -3.2620   19.2150 C   0  0  0  0  0  0  0  0  0  0  0  0
    6.3840   -4.0010   20.2450 C   0  0  0  0  0  0  0  0  0  0  0  0
    5.3080   -4.5370   19.8840 O   0  0  0  0  0  0  0  0  0  0  0  0
    6.8640   -4.1480   21.5750 N   0  0  0  0  0  0  0  0  0  0  0  0
    7.7190   -3.1370   22.1110 C   0  0  0  0  0  0  0  0  0  0  0  0
    7.3530   -2.7950   23.4590 C   0  0  0  0  0  0  0  0  0  0  0  0
    6.1530   -3.5320   23.8630 C   0  0  0  0  0  0  0  0  0  0  0  0
    5.6530   -3.1000   25.2070 C   0  0  0  0  0  0  0  0  0  0  0  0
    4.4660   -2.7360   25.3140 O   0  0  0  0  0  0  0  0  0  0  0  0
    6.4760   -3.0890   26.3470 N   0  0  0  0  0  0  0  0  0  0  0  0
    6.1270   -3.3400   27.6990 C   0  0  0  0  0  0  0  0  0  0  0  0
    5.8790   -4.6760   28.2570 C   0  0  1  0  0  0  0  0  0  0  0  0
    6.7770   -5.1940   28.9830 O   0  0  0  0  0  0  0  0  0  0  0  0
    4.5770   -4.6580   29.1090 C   0  0  2  0  0  0  0  0  0  0  0  0
    4.4080   -3.4700   29.8130 C   0  0  0  0  0  0  0  0  0  0  0  0
    2.9660   -3.3360   29.2690 C   0  0  0  0  0  0  0  0  0  0  0  0
    2.5080   -4.6270   29.8790 C   0  0  2  0  0  0  0  0  0  0  0  0
    2.6930   -4.0250   31.2870 C   0  0  0  0  0  0  0  0  0  0  0  0
    3.1830   -5.5740   30.6850 C   0  0  0  0  0  0  0  0  0  0  0  0
    4.5300   -5.7470   30.0120 C   0  0  0  0  0  0  0  0  0  0  0  0
    5.1530   -5.6290   27.3240 C   0  0  0  0  0  0  0  0  0  0  0  0
    4.0040   -6.2020   27.8370 F   0  0  0  0  0  0  0  0  0  0  0  0
    6.0120   -6.5510   26.9070 F   0  0  0  0  0  0  0  0  0  0  0  0
    4.8140   -4.9120   26.1720 F   0  0  0  0  0  0  0  0  0  0  0  0
    6.3820   -5.0080   23.7310 C   0  0  0  0  0  0  0  0  0  0  0  0
    6.5470   -5.3320   22.3670 C   0  0  0  0  0  0  0  0  0  0  0  0
  1  2  1  0
  2  3  2  0
  2  4  1  0
  4  5  1  0
  5  6  1  0
  6  7  1  0
  7  8  1  0
  8  9  2  0
  8 10  1  0
 10 11  1  0
 11 12  1  0
 12 13  1  1
 12 14  1  0
 14 15  1  1
 15 16  1  0
 16 17  1  0
 17 18  1  1
 17 19  1  0
 14 20  1  0
 19 20  1  0
 12 21  1  0
 21 22  1  0
 21 23  1  0
 21 24  1  0
  7 25  1  0
  4 26  1  0
 25 26  1  0
M  END
