piperidine-amides-9830-covalent
     RDKit          3D

 27 29  0  0  0  0  0  0  0  0999 V2000
    7.1520   -3.2550   19.2060 C   0  0  0  0  0  0  0  0  0  0  0  0
    6.4050   -4.0040   20.2260 C   0  0  0  0  0  0  0  0  0  0  0  0
    5.3030   -4.5010   19.8750 O   0  0  0  0  0  0  0  0  0  0  0  0
    6.9500   -4.1790   21.4950 N   0  0  0  0  0  0  0  0  0  0  0  0
    7.8390   -3.1940   22.0580 C   0  0  0  0  0  0  0  0  0  0  0  0
    7.2200   -2.6760   23.3070 C   0  0  0  0  0  0  0  0  0  0  0  0
    6.7630   -3.7800   24.2170 C   0  0  0  0  0  0  0  0  0  0  0  0
    6.1170   -3.1070   25.3510 C   0  0  0  0  0  0  0  0  0  0  0  0
    4.8730   -3.2080   25.4860 O   0  0  0  0  0  0  0  0  0  0  0  0
    6.8670   -2.3340   26.2550 N   0  0  0  0  0  0  0  0  0  0  0  0
    6.6800   -2.4610   27.6680 C   0  0  0  0  0  0  0  0  0  0  0  0
    5.2310   -2.1590   28.0620 C   0  0  0  0  0  0  0  0  0  0  0  0
    4.3090   -3.1280   28.3820 C   0  0  0  0  0  0  0  0  0  0  0  0
    2.9280   -3.0530   28.4800 C   0  0  0  0  0  0  0  0  0  0  0  0
    2.4280   -4.2550   28.8170 N   0  0  0  0  0  0  0  0  0  0  0  0
    3.4140   -5.1250   28.9480 C   0  0  0  0  0  0  0  0  0  0  0  0
    3.4370   -6.4840   29.2770 C   0  0  0  0  0  0  0  0  0  0  0  0
    4.6730   -7.1390   29.3330 C   0  0  0  0  0  0  0  0  0  0  0  0
    5.9340   -6.3400   29.0340 C   0  0  0  0  0  0  0  0  0  0  0  0
    7.2110   -6.7190   29.0130 O   0  0  0  0  0  0  0  0  0  0  0  0
    8.1540   -5.9350   28.3940 C   0  0  0  0  0  0  0  0  0  0  0  0
    8.3410   -6.1430   26.9600 C   0  0  0  0  0  0  0  0  0  0  0  0
    9.4500   -5.4650   26.2820 C   0  0  0  0  0  0  0  0  0  0  0  0
    5.8620   -5.0370   28.7230 C   0  0  0  0  0  0  0  0  0  0  0  0
    4.5600   -4.3940   28.6730 C   0  0  0  0  0  0  0  0  0  0  0  0
    5.8160   -4.7270   23.5390 C   0  0  0  0  0  0  0  0  0  0  0  0
    6.5110   -5.3020   22.3000 C   0  0  0  0  0  0  0  0  0  0  0  0
  1  2  1  0
  2  3  2  0
  2  4  1  0
  4  5  1  0
  5  6  1  0
  6  7  1  0
  7  8  1  0
  8  9  2  0
  8 10  1  0
 10 11  1  0
 11 12  1  0
 12 13  1  0
 13 14  2  0
 14 15  1  0
 15 16  1  0
 16 17  1  0
 17 18  2  0
 18 19  1  0
 19 20  1  0
 20 21  1  0
 21 22  1  0
 22 23  1  0
 19 24  2  0
 13 25  1  0
 16 25  2  0
 24 25  1  0
  7 26  1  0
  4 27  1  0
 26 27  1  0
M  END
