piperidine-amides-2804-covalent
     RDKit          3D

 24 26  0  0  0  0  0  0  0  0999 V2000
    7.0500   -3.3330   19.3260 C   0  0  0  0  0  0  0  0  0  0  0  0
    6.3630   -4.1660   20.3080 C   0  0  0  0  0  0  0  0  0  0  0  0
    5.3760   -4.8200   19.9740 O   0  0  0  0  0  0  0  0  0  0  0  0
    6.8680   -4.2520   21.6530 N   0  0  0  0  0  0  0  0  0  0  0  0
    7.6890   -3.1850   22.1710 C   0  0  0  0  0  0  0  0  0  0  0  0
    7.4330   -2.9840   23.6330 C   0  0  0  0  0  0  0  0  0  0  0  0
    6.0570   -3.5420   23.9360 C   0  0  0  0  0  0  0  0  0  0  0  0
    5.6290   -3.1720   25.3100 C   0  0  0  0  0  0  0  0  0  0  0  0
    4.4350   -3.1430   25.6610 O   0  0  0  0  0  0  0  0  0  0  0  0
    6.6370   -2.8440   26.2400 N   0  0  0  0  0  0  0  0  0  0  0  0
    6.5240   -1.6630   27.0620 C   0  0  0  0  0  0  0  0  0  0  0  0
    7.0650   -1.5900   28.4590 C   0  0  0  0  0  0  0  0  0  0  0  0
    6.9410   -0.4480   29.2120 C   0  0  0  0  0  0  0  0  0  0  0  0
    6.2940    0.6770   28.6750 C   0  0  0  0  0  0  0  0  0  0  0  0
    5.7540    0.7390   27.4080 C   0  0  0  0  0  0  0  0  0  0  0  0
    5.8440   -0.4280   26.5380 C   0  0  0  0  0  0  0  0  0  0  0  0
    5.1470    1.9730   27.0820 N   0  0  0  0  0  0  0  0  0  0  0  0
    4.3170    2.5550   28.1070 C   0  0  0  0  0  0  0  0  0  0  0  0
    4.2370    3.9240   27.9570 C   0  0  0  0  0  0  0  0  0  0  0  0
    2.9520    1.8960   28.0550 C   0  0  0  0  0  0  0  0  0  0  0  0
    4.8610    2.2430   29.4750 C   0  0  0  0  0  0  0  0  0  0  0  0
    6.1840    1.8170   29.4710 C   0  0  0  0  0  0  0  0  0  0  0  0
    6.0450   -5.0400   23.7710 C   0  0  0  0  0  0  0  0  0  0  0  0
    6.5670   -5.4130   22.4190 C   0  0  0  0  0  0  0  0  0  0  0  0
  1  2  1  0
  2  3  2  0
  2  4  1  0
  4  5  1  0
  5  6  1  0
  6  7  1  0
  7  8  1  0
  8  9  2  0
  8 10  1  0
 10 11  1  0
 11 12  2  0
 12 13  1  0
 13 14  2  0
 14 15  1  0
 11 16  1  0
 15 16  2  0
 15 17  1  0
 17 18  1  0
 18 19  1  0
 18 20  1  0
 18 21  1  0
 14 22  1  0
 21 22  1  0
  7 23  1  0
  4 24  1  0
 23 24  1  0
M  END
