piperidine-amides-19091-covalent
     RDKit          3D

 22 23  0  0  0  0  0  0  0  0999 V2000
    7.1930   -3.2980   19.3430 C   0  0  0  0  0  0  0  0  0  0  0  0
    6.4400   -4.0780   20.2920 C   0  0  0  0  0  0  0  0  0  0  0  0
    5.3510   -4.6170   19.9180 O   0  0  0  0  0  0  0  0  0  0  0  0
    6.9100   -4.2950   21.5990 N   0  0  0  0  0  0  0  0  0  0  0  0
    7.8260   -3.2940   22.1910 C   0  0  0  0  0  0  0  0  0  0  0  0
    6.8330   -2.6560   23.2110 C   0  0  0  0  0  0  0  0  0  0  0  0
    6.4100   -3.8170   24.0730 C   0  0  0  0  0  0  0  0  0  0  0  0
    5.5390   -3.2960   25.2870 C   0  0  0  0  0  0  0  0  0  0  0  0
    4.5480   -2.7020   24.8900 O   0  0  0  0  0  0  0  0  0  0  0  0
    6.1180   -3.6460   26.3480 N   0  0  0  0  0  0  0  0  0  0  0  0
    6.6780   -4.4270   27.3120 C   0  0  0  0  0  0  0  0  0  0  0  0
    6.3330   -5.5510   27.9990 C   0  0  0  0  0  0  0  0  0  0  0  0
    5.3350   -6.4240   27.5050 C   0  0  0  0  0  0  0  0  0  0  0  0
    6.4280   -2.4530   27.1870 C   0  0  0  0  0  0  0  0  0  0  0  0
    5.1810   -1.5540   27.1240 C   0  0  0  0  0  0  0  0  0  0  0  0
    5.7180   -0.2570   27.0390 C   0  0  0  0  0  0  0  0  0  0  0  0
    5.1090    1.0650   26.9480 C   0  0  0  0  0  0  0  0  0  0  0  0
    3.5930    0.6330   26.9720 C   0  0  0  0  0  0  0  0  0  0  0  0
    3.0510   -0.8190   27.0680 C   0  0  0  0  0  0  0  0  0  0  0  0
    3.8480   -1.8610   27.1410 C   0  0  0  0  0  0  0  0  0  0  0  0
    5.7230   -4.9700   23.3400 C   0  0  0  0  0  0  0  0  0  0  0  0
    6.5200   -5.4520   22.3520 C   0  0  0  0  0  0  0  0  0  0  0  0
  1  2  1  0
  2  3  2  0
  2  4  1  0
  4  5  1  0
  5  6  1  0
  6  7  1  0
  7  8  1  0
  8  9  2  0
  8 10  1  0
 10 11  1  0
 11 12  1  0
 12 13  2  3
 10 14  1  0
 14 15  1  0
 15 16  2  0
 16 17  1  0
 17 18  2  0
 18 19  1  0
 15 20  1  0
 19 20  2  0
  7 21  1  0
  4 22  1  0
 21 22  1  0
M  END
