piperidine-amides-24910-covalent
     RDKit          3D

 23 25  0  0  0  0  0  0  0  0999 V2000
    7.0170   -3.3720   19.4040 C   0  0  0  0  0  0  0  0  0  0  0  0
    6.3760   -4.2610   20.3940 C   0  0  0  0  0  0  0  0  0  0  0  0
    5.4330   -4.9920   20.0170 O   0  0  0  0  0  0  0  0  0  0  0  0
    6.8260   -4.3200   21.7350 N   0  0  0  0  0  0  0  0  0  0  0  0
    6.6940   -5.5830   22.4590 C   0  0  0  0  0  0  0  0  0  0  0  0
    6.1440   -5.2800   23.8680 C   0  0  0  0  0  0  0  0  0  0  0  0
    6.2950   -3.7970   24.0180 C   0  0  0  0  0  0  0  0  0  0  0  0
    5.8730   -3.2020   25.3180 C   0  0  0  0  0  0  0  0  0  0  0  0
    5.5740   -1.9970   25.2700 O   0  0  0  0  0  0  0  0  0  0  0  0
    5.7150   -3.8660   26.5760 N   0  0  0  0  0  0  0  0  0  0  0  0
    4.5950   -3.2900   27.2970 C   0  0  0  0  0  0  0  0  0  0  0  0
    4.5570   -3.6360   28.7770 C   0  0  0  0  0  0  0  0  0  0  0  0
    4.9180   -4.8700   29.1450 C   0  0  0  0  0  0  0  0  0  0  0  0
    4.2240   -5.7010   29.9240 C   0  0  0  0  0  0  0  0  0  0  0  0
    2.6660   -5.3390   30.6350 Cl  0  0  0  0  0  0  0  0  0  0  0  0
    4.8150   -6.8850   30.1460 C   0  0  0  0  0  0  0  0  0  0  0  0
    6.0240   -7.1900   29.6010 C   0  0  0  0  0  0  0  0  0  0  0  0
    6.3910   -8.4400   29.9960 F   0  0  0  0  0  0  0  0  0  0  0  0
    6.9620   -6.3960   28.6830 C   0  0  0  0  0  0  0  0  0  0  0  0
    6.0830   -5.1490   28.6090 C   0  0  0  0  0  0  0  0  0  0  0  0
    6.3440   -3.8670   27.8710 C   0  0  0  0  0  0  0  0  0  0  0  0
    7.7030   -3.4110   23.6620 C   0  0  0  0  0  0  0  0  0  0  0  0
    7.6810   -3.2620   22.2660 C   0  0  0  0  0  0  0  0  0  0  0  0
  1  2  1  0
  2  3  2  0
  2  4  1  0
  4  5  1  0
  5  6  1  0
  6  7  1  0
  7  8  1  0
  8  9  2  0
  8 10  1  0
 10 11  1  0
 11 12  1  0
 12 13  1  0
 13 14  2  0
 14 15  1  0
 14 16  1  0
 16 17  2  0
 17 18  1  0
 17 19  1  0
 13 20  1  0
 19 20  2  0
 10 21  1  0
 20 21  1  0
  7 22  1  0
  4 23  1  0
 22 23  1  0
M  END
