piperidine-amides-6918-covalent
     RDKit          3D

 22 22  0  0  0  0  0  0  0  0999 V2000
    7.1260   -3.2740   19.2540 C   0  0  0  0  0  0  0  0  0  0  0  0
    6.3910   -4.0690   20.2480 C   0  0  0  0  0  0  0  0  0  0  0  0
    5.3450   -4.6790   19.9350 O   0  0  0  0  0  0  0  0  0  0  0  0
    6.8910   -4.1890   21.5510 N   0  0  0  0  0  0  0  0  0  0  0  0
    7.7310   -3.1240   22.0830 C   0  0  0  0  0  0  0  0  0  0  0  0
    7.4150   -2.9390   23.5690 C   0  0  0  0  0  0  0  0  0  0  0  0
    6.0440   -3.5290   23.7820 C   0  0  0  0  0  0  0  0  0  0  0  0
    5.5660   -3.1920   25.1290 C   0  0  0  0  0  0  0  0  0  0  0  0
    4.4620   -2.6210   25.2390 O   0  0  0  0  0  0  0  0  0  0  0  0
    6.3550   -3.5150   26.2440 N   0  0  0  0  0  0  0  0  0  0  0  0
    5.7380   -3.7020   27.5180 C   0  0  2  0  0  0  0  0  0  0  0  0
    6.4830   -4.7170   28.3190 C   0  0  0  0  0  0  0  0  0  0  0  0
    7.5640   -4.1670   28.9650 O   0  0  0  0  0  0  0  0  0  0  0  0
    5.9710   -6.0300   28.3300 O   0  0  0  0  0  0  0  0  0  0  0  0
    5.7180   -6.6710   29.5440 C   0  0  0  0  0  0  0  0  0  0  0  0
    5.2640   -7.9300   29.3290 C   0  0  0  0  0  0  0  0  0  0  0  0
    4.3300   -4.1680   27.3580 C   0  0  2  0  0  0  0  0  0  0  0  0
    3.8660   -4.7630   28.5060 C   0  0  0  0  0  0  0  0  0  0  0  0
    4.0940   -5.2130   26.2570 C   0  0  0  0  0  0  0  0  0  0  0  0
    4.9570   -6.4360   26.2570 C   0  0  0  0  0  0  0  0  0  0  0  0
    6.0030   -4.9850   23.5900 C   0  0  0  0  0  0  0  0  0  0  0  0
    6.6140   -5.3510   22.3230 C   0  0  0  0  0  0  0  0  0  0  0  0
  1  2  1  0
  2  3  2  0
  2  4  1  0
  4  5  1  0
  5  6  1  0
  6  7  1  0
  7  8  1  0
  8  9  2  0
  8 10  1  0
 11 10  1  6
 11 12  1  0
 12 13  2  0
 12 14  1  0
 14 15  1  0
 15 16  1  0
 11 17  1  0
 17 18  1  1
 17 19  1  0
 19 20  1  0
  7 21  1  0
  4 22  1  0
 21 22  1  0
M  END
