piperidine-amides-3850-covalent
     RDKit          3D

 23 25  0  0  0  0  0  0  0  0999 V2000
    7.1460   -3.2840   19.2660 C   0  0  0  0  0  0  0  0  0  0  0  0
    6.3530   -4.0100   20.2740 C   0  0  0  0  0  0  0  0  0  0  0  0
    5.2800   -4.5300   19.8820 O   0  0  0  0  0  0  0  0  0  0  0  0
    6.8010   -4.1610   21.6120 N   0  0  0  0  0  0  0  0  0  0  0  0
    7.6760   -3.1760   22.1570 C   0  0  0  0  0  0  0  0  0  0  0  0
    7.3810   -2.9150   23.5420 C   0  0  0  0  0  0  0  0  0  0  0  0
    6.1680   -3.6280   23.9560 C   0  0  0  0  0  0  0  0  0  0  0  0
    5.7410   -3.2430   25.3400 C   0  0  0  0  0  0  0  0  0  0  0  0
    4.8380   -3.8930   25.8940 O   0  0  0  0  0  0  0  0  0  0  0  0
    6.3150   -2.1530   26.0210 N   0  0  0  0  0  0  0  0  0  0  0  0
    5.6400   -1.0410   26.5990 C   0  0  2  0  0  0  0  0  0  0  0  0
    5.6260   -0.8330   28.0470 C   0  0  0  0  0  0  0  0  0  0  0  0
    7.0430   -1.0710   28.5590 C   0  0  0  0  0  0  0  0  0  0  0  0
    7.2550   -0.9180   29.9210 C   0  0  0  0  0  0  0  0  0  0  0  0
    6.0780   -0.5220   30.8500 C   0  0  0  0  0  0  0  0  0  0  0  0
    4.7040   -0.3070   30.2710 C   0  0  0  0  0  0  0  0  0  0  0  0
    4.4310   -0.4640   28.7780 C   0  0  0  0  0  0  0  0  0  0  0  0
    4.2660   -0.8950   25.8890 C   0  0  0  0  0  0  0  0  0  0  0  0
    4.5480    0.4550   25.2890 C   0  0  2  0  0  0  0  0  0  0  0  0
    4.5530    0.6950   24.0480 O   0  0  0  0  0  0  0  0  0  0  0  0
    5.8970    0.2890   25.8870 C   0  0  0  0  0  0  0  0  0  0  0  0
    6.3290   -5.1030   23.7490 C   0  0  0  0  0  0  0  0  0  0  0  0
    6.5260   -5.3690   22.3750 C   0  0  0  0  0  0  0  0  0  0  0  0
  1  2  1  0
  2  3  2  0
  2  4  1  0
  4  5  1  0
  5  6  1  0
  6  7  1  0
  7  8  1  0
  8  9  2  0
  8 10  1  0
 11 10  1  1
 11 12  1  0
 12 13  2  0
 13 14  1  0
 14 15  2  0
 15 16  1  0
 12 17  1  0
 16 17  2  0
 11 18  1  0
 18 19  1  0
 19 20  1  6
 11 21  1  0
 19 21  1  0
  7 22  1  0
  4 23  1  0
 22 23  1  0
M  END
