piperidine-amides-30721-covalent
     RDKit          3D

 27 29  0  0  0  0  0  0  0  0999 V2000
    7.0630   -3.3990   19.4430 C   0  0  0  0  0  0  0  0  0  0  0  0
    6.3770   -4.2510   20.4110 C   0  0  0  0  0  0  0  0  0  0  0  0
    5.4030   -4.9190   20.0080 O   0  0  0  0  0  0  0  0  0  0  0  0
    6.8190   -4.3710   21.7480 N   0  0  0  0  0  0  0  0  0  0  0  0
    7.6550   -3.3440   22.3750 C   0  0  0  0  0  0  0  0  0  0  0  0
    7.1700   -3.1240   23.7990 C   0  0  0  0  0  0  0  0  0  0  0  0
    6.0160   -4.0300   24.1130 C   0  0  0  0  0  0  0  0  0  0  0  0
    5.3730   -3.9040   25.4700 C   0  0  0  0  0  0  0  0  0  0  0  0
    4.1260   -3.7050   25.4930 O   0  0  0  0  0  0  0  0  0  0  0  0
    5.9750   -3.9360   26.7630 N   0  0  0  0  0  0  0  0  0  0  0  0
    5.5410   -2.8740   27.6990 C   0  0  0  0  0  0  0  0  0  0  0  0
    5.1770   -3.9600   28.6180 C   0  0  0  0  0  0  0  0  0  0  0  0
    5.7460   -5.0230   27.7840 C   0  0  0  0  0  0  0  0  0  0  0  0
    4.7760   -6.1820   27.5000 C   0  0  0  0  0  0  0  0  0  0  0  0
    4.9010   -7.3480   28.5840 C   0  0  0  0  0  0  0  0  0  0  0  0
    6.2570   -7.3860   29.2030 N   0  0  0  0  0  0  0  0  0  0  0  0
    6.8170   -8.7010   29.8460 C   0  0  0  0  0  0  0  0  0  0  0  0
    6.4700   -8.9030   31.1440 O   0  0  0  0  0  0  0  0  0  0  0  0
    7.8670   -9.5520   29.4140 O   0  0  0  0  0  0  0  0  0  0  0  0
    8.3730  -11.0030   29.2260 C   0  0  0  0  0  0  0  0  0  0  0  0
    9.5840  -11.1180   28.5340 C   0  0  0  0  0  0  0  0  0  0  0  0
    9.7860  -11.5260   29.5720 C   0  0  0  0  0  0  0  0  0  0  0  0
    8.9310  -11.9120   30.3520 C   0  0  0  0  0  0  0  0  0  0  0  0
    6.8550   -6.1070   29.2730 C   0  0  0  0  0  0  0  0  0  0  0  0
    6.8390   -5.5280   28.2940 C   0  0  0  0  0  0  0  0  0  0  0  0
    6.2250   -5.4360   23.7570 C   0  0  0  0  0  0  0  0  0  0  0  0
    6.6690   -5.6060   22.4640 C   0  0  0  0  0  0  0  0  0  0  0  0
  1  2  1  0
  2  3  2  0
  2  4  1  0
  4  5  1  0
  5  6  1  0
  6  7  1  0
  7  8  1  0
  8  9  2  0
  8 10  1  0
 10 11  1  0
 11 12  1  0
 13 10  1  0
 12 13  1  0
 13 14  1  0
 14 15  1  0
 15 16  1  0
 16 17  1  0
 17 18  2  0
 17 19  1  0
 20 19  1  0
 20 21  1  0
 20 22  1  0
 20 23  1  0
 16 24  1  0
 13 25  1  0
 24 25  1  0
  7 26  1  0
  4 27  1  0
 26 27  1  0
M  END
