piperidine-amides-33922-covalent
     RDKit          3D

 28 30  0  0  0  0  0  0  0  0999 V2000
    7.0450   -3.3730   19.3810 C   0  0  0  0  0  0  0  0  0  0  0  0
    6.4140   -4.2390   20.3930 C   0  0  0  0  0  0  0  0  0  0  0  0
    5.4210   -4.9080   20.0050 O   0  0  0  0  0  0  0  0  0  0  0  0
    6.9400   -4.3350   21.7160 N   0  0  0  0  0  0  0  0  0  0  0  0
    6.5720   -5.4550   22.5320 C   0  0  0  0  0  0  0  0  0  0  0  0
    6.0630   -5.0680   23.8430 C   0  0  0  0  0  0  0  0  0  0  0  0
    6.3390   -3.6510   24.1170 C   0  0  0  0  0  0  0  0  0  0  0  0
    6.0320   -3.1690   25.5230 C   0  0  0  0  0  0  0  0  0  0  0  0
    5.9010   -1.9510   25.7040 O   0  0  0  0  0  0  0  0  0  0  0  0
    5.8210   -4.0130   26.6410 N   0  0  0  0  0  0  0  0  0  0  0  0
    4.6890   -4.7990   26.7430 C   0  0  0  0  0  0  0  0  0  0  0  0
    4.5810   -5.7070   27.8560 C   0  0  0  0  0  0  0  0  0  0  0  0
    5.2900   -5.6230   28.9650 N   0  0  0  0  0  0  0  0  0  0  0  0
    4.7590   -5.6430   30.3060 C   0  0  0  0  0  0  0  0  0  0  0  0
    3.7990   -4.6670   30.4860 C   0  0  0  0  0  0  0  0  0  0  0  0
    3.1070   -4.5590   31.8970 C   0  0  0  0  0  0  0  0  0  0  0  0
    1.8820   -3.3280   32.1540 Cl  0  0  0  0  0  0  0  0  0  0  0  0
    3.5250   -5.5320   33.0100 C   0  0  0  0  0  0  0  0  0  0  0  0
    4.6010   -6.5420   32.6240 C   0  0  0  0  0  0  0  0  0  0  0  0
    5.1390   -7.5790   33.5890 C   0  0  0  0  0  0  0  0  0  0  0  0
    5.9100   -6.9410   34.5330 F   0  0  0  0  0  0  0  0  0  0  0  0
    4.0270   -8.1560   34.2080 F   0  0  0  0  0  0  0  0  0  0  0  0
    5.8780   -8.5380   32.9380 F   0  0  0  0  0  0  0  0  0  0  0  0
    5.1670   -6.5370   31.2590 C   0  0  0  0  0  0  0  0  0  0  0  0
    6.5110   -4.9590   28.6520 C   0  0  0  0  0  0  0  0  0  0  0  0
    6.3210   -3.6410   27.9370 C   0  0  0  0  0  0  0  0  0  0  0  0
    7.7070   -3.2850   23.6530 C   0  0  0  0  0  0  0  0  0  0  0  0
    7.6390   -3.1820   22.2710 C   0  0  0  0  0  0  0  0  0  0  0  0
  1  2  1  0
  2  3  2  0
  2  4  1  0
  4  5  1  0
  5  6  1  0
  6  7  1  0
  7  8  1  0
  8  9  2  0
  8 10  1  0
 10 11  1  0
 11 12  1  0
 12 13  1  0
 13 14  1  0
 14 15  2  0
 15 16  1  0
 16 17  1  0
 16 18  2  0
 18 19  1  0
 19 20  1  0
 20 21  1  0
 20 22  1  0
 20 23  1  0
 14 24  1  0
 19 24  2  0
 13 25  1  0
 10 26  1  0
 25 26  1  0
  7 27  1  0
  4 28  1  0
 27 28  1  0
M  END
