piperidine-amides-35573-covalent
     RDKit          3D

 35 38  0  0  0  0  0  0  0  0999 V2000
    7.0650   -3.3480   19.2940 C   0  0  0  0  0  0  0  0  0  0  0  0
    6.3930   -4.1890   20.3140 C   0  0  0  0  0  0  0  0  0  0  0  0
    5.3750   -4.7870   19.9690 O   0  0  0  0  0  0  0  0  0  0  0  0
    6.9520   -4.3120   21.5880 N   0  0  0  0  0  0  0  0  0  0  0  0
    6.6320   -5.3990   22.4730 C   0  0  0  0  0  0  0  0  0  0  0  0
    5.9380   -4.8640   23.7030 C   0  0  0  0  0  0  0  0  0  0  0  0
    6.7290   -3.6940   24.3160 C   0  0  0  0  0  0  0  0  0  0  0  0
    5.9820   -3.1870   25.4920 C   0  0  0  0  0  0  0  0  0  0  0  0
    5.5170   -2.0460   25.4530 O   0  0  0  0  0  0  0  0  0  0  0  0
    5.7210   -3.9620   26.6360 N   0  0  0  0  0  0  0  0  0  0  0  0
    4.3520   -4.3060   26.7390 C   0  0  0  0  0  0  0  0  0  0  0  0
    4.3080   -5.6440   27.4220 C   0  0  0  0  0  0  0  0  0  0  0  0
    5.1160   -5.5260   28.6100 N   0  0  0  0  0  0  0  0  0  0  0  0
    4.2110   -4.9270   29.6110 C   0  0  0  0  0  0  0  0  0  0  0  0
    4.0350   -3.5660   29.5570 C   0  0  0  0  0  0  0  0  0  0  0  0
    3.2180   -2.9350   30.4620 C   0  0  0  0  0  0  0  0  0  0  0  0
    2.3780   -3.4210   31.6220 C   0  0  0  0  0  0  0  0  0  0  0  0
    1.3240   -2.5990   32.8080 S   0  0  0  0  0  0  0  0  0  0  0  0
   -0.0570   -3.1630   32.7420 O   0  0  0  0  0  0  0  0  0  0  0  0
    1.2750   -1.1120   32.5930 O   0  0  0  0  0  0  0  0  0  0  0  0
    2.0050   -2.8210   34.4070 N   0  0  0  0  0  0  0  0  0  0  0  0
    1.0680   -2.9390   35.4910 C   0  0  0  0  0  0  0  0  0  0  0  0
    1.7910   -3.4140   36.7250 C   0  0  0  0  0  0  0  0  0  0  0  0
    3.1810   -3.3820   36.7090 O   0  0  0  0  0  0  0  0  0  0  0  0
    3.9500   -3.2960   35.5450 C   0  0  0  0  0  0  0  0  0  0  0  0
    3.3580   -2.3410   34.5550 C   0  0  0  0  0  0  0  0  0  0  0  0
    2.5470   -4.9070   31.6890 C   0  0  0  0  0  0  0  0  0  0  0  0
    3.4160   -5.6490   30.7390 C   0  0  0  0  0  0  0  0  0  0  0  0
    3.4680   -7.0150   30.9250 N   0  0  0  0  0  0  0  0  0  0  0  0
    4.6320   -7.6940   30.9610 O   0  0  0  0  0  0  0  0  0  0  0  0
    2.3540   -7.6650   31.3210 O   0  0  0  0  0  0  0  0  0  0  0  0
    6.4000   -4.9140   28.5430 C   0  0  0  0  0  0  0  0  0  0  0  0
    6.2790   -3.6730   27.9160 C   0  0  0  0  0  0  0  0  0  0  0  0
    6.9720   -2.6530   23.2860 C   0  0  0  0  0  0  0  0  0  0  0  0
    7.7810   -3.2320   22.1420 C   0  0  0  0  0  0  0  0  0  0  0  0
  1  2  1  0
  2  3  2  0
  2  4  1  0
  4  5  1  0
  5  6  1  0
  6  7  1  0
  7  8  1  0
  8  9  2  0
  8 10  1  0
 10 11  1  0
 11 12  1  0
 12 13  1  0
 13 14  1  0
 14 15  2  0
 15 16  1  0
 16 17  2  0
 18 17  1  0
 18 19  2  0
 18 20  2  0
 18 21  1  0
 21 22  1  0
 22 23  1  0
 23 24  1  0
 24 25  1  0
 21 26  1  0
 25 26  1  0
 17 27  1  0
 14 28  1  0
 27 28  2  0
 28 29  1  0
 29 30  2  0
 29 31  1  0
 13 32  1  0
 10 33  1  0
 32 33  1  0
  7 34  1  0
  4 35  1  0
 34 35  1  0
M  CHG  2  29   1  31  -1
M  END
