piperidine-amides-3814-covalent
     RDKit          3D

 24 26  0  0  0  0  0  0  0  0999 V2000
    7.0270   -3.3630   19.3400 C   0  0  0  0  0  0  0  0  0  0  0  0
    6.3460   -4.2370   20.3090 C   0  0  0  0  0  0  0  0  0  0  0  0
    5.2690   -4.7490   19.9380 O   0  0  0  0  0  0  0  0  0  0  0  0
    6.9040   -4.5550   21.5690 N   0  0  0  0  0  0  0  0  0  0  0  0
    7.5360   -3.5090   22.2900 C   0  0  0  0  0  0  0  0  0  0  0  0
    7.2960   -3.4800   23.7250 C   0  0  0  0  0  0  0  0  0  0  0  0
    6.3430   -4.4720   24.2660 C   0  0  0  0  0  0  0  0  0  0  0  0
    5.4430   -3.8220   25.2690 C   0  0  0  0  0  0  0  0  0  0  0  0
    4.2140   -3.8110   25.0850 O   0  0  0  0  0  0  0  0  0  0  0  0
    5.9390   -3.1970   26.4170 N   0  0  0  0  0  0  0  0  0  0  0  0
    6.0310   -1.8120   26.6250 C   0  0  0  0  0  0  0  0  0  0  0  0
    6.9210   -0.9360   25.9740 C   0  0  0  0  0  0  0  0  0  0  0  0
    6.8600   -0.8100   24.4420 C   0  0  0  0  0  0  0  0  0  0  0  0
    5.7070   -0.4380   23.7900 C   0  0  0  0  0  0  0  0  0  0  0  0
    5.6970   -0.2910   22.2260 C   0  0  0  0  0  0  0  0  0  0  0  0
    6.9930   -0.5700   21.4510 C   0  0  0  0  0  0  0  0  0  0  0  0
    6.8930   -0.4070   20.0630 F   0  0  0  0  0  0  0  0  0  0  0  0
    8.1720   -0.9810   22.3400 C   0  0  0  0  0  0  0  0  0  0  0  0
    9.5580   -1.3240   21.8520 C   0  0  0  0  0  0  0  0  0  0  0  0
    8.0290   -1.0750   23.8000 C   0  0  0  0  0  0  0  0  0  0  0  0
    5.1670   -1.0950   27.7160 C   0  0  0  0  0  0  0  0  0  0  0  0
    6.3260   -1.6540   28.1380 C   0  0  0  0  0  0  0  0  0  0  0  0
    5.5440   -5.1830   23.2280 C   0  0  0  0  0  0  0  0  0  0  0  0
    6.4080   -5.6860   22.2830 C   0  0  0  0  0  0  0  0  0  0  0  0
  1  2  1  0
  2  3  2  0
  2  4  1  0
  4  5  1  0
  5  6  1  0
  6  7  1  0
  7  8  1  0
  8  9  2  0
  8 10  1  0
 11 10  1  0
 11 12  1  0
 12 13  1  0
 13 14  2  0
 14 15  1  0
 15 16  2  0
 16 17  1  0
 16 18  1  0
 18 19  1  0
 13 20  1  0
 18 20  2  0
 11 21  1  0
 11 22  1  0
 21 22  1  0
  7 23  1  0
  4 24  1  0
 23 24  1  0
M  END
