piperidine-amides-23957-covalent
     RDKit          3D

 24 25  0  0  0  0  0  0  0  0999 V2000
    7.0990   -3.2840   19.2520 C   0  0  0  0  0  0  0  0  0  0  0  0
    6.3760   -4.0500   20.2850 C   0  0  0  0  0  0  0  0  0  0  0  0
    5.3110   -4.5990   19.9130 O   0  0  0  0  0  0  0  0  0  0  0  0
    6.8770   -4.2140   21.6130 N   0  0  0  0  0  0  0  0  0  0  0  0
    7.6450   -3.1800   22.2320 C   0  0  0  0  0  0  0  0  0  0  0  0
    7.2710   -2.9440   23.6200 C   0  0  0  0  0  0  0  0  0  0  0  0
    6.0690   -3.7010   24.0060 C   0  0  0  0  0  0  0  0  0  0  0  0
    5.5350   -3.3900   25.3820 C   0  0  0  0  0  0  0  0  0  0  0  0
    4.3020   -3.4030   25.5430 O   0  0  0  0  0  0  0  0  0  0  0  0
    6.3400   -3.0620   26.4970 N   0  0  0  0  0  0  0  0  0  0  0  0
    6.7760   -1.7510   26.8000 C   0  0  0  0  0  0  0  0  0  0  0  0
    6.1600   -3.8960   27.6890 C   0  0  0  0  0  0  0  0  0  0  0  0
    6.0980   -5.4350   27.5340 C   0  0  0  0  0  0  0  0  0  0  0  0
    5.1180   -6.1130   28.2120 C   0  0  0  0  0  0  0  0  0  0  0  0
    6.0480   -6.5840   29.3460 C   0  0  0  0  0  0  0  0  0  0  0  0
    5.3570   -7.4280   30.3970 C   0  0  0  0  0  0  0  0  0  0  0  0
    3.8570   -7.6190   30.0770 C   0  0  0  0  0  0  0  0  0  0  0  0
    2.9930   -7.1340   28.9500 C   0  0  0  0  0  0  0  0  0  0  0  0
    1.6020   -7.4040   28.8040 N   0  0  0  0  0  0  0  0  0  0  0  0
    0.9150   -6.6520   29.7650 O   0  0  0  0  0  0  0  0  0  0  0  0
    1.2550   -7.2730   27.5090 O   0  0  0  0  0  0  0  0  0  0  0  0
    3.7960   -6.3180   27.9900 C   0  0  0  0  0  0  0  0  0  0  0  0
    6.3000   -5.2040   23.8000 C   0  0  0  0  0  0  0  0  0  0  0  0
    6.4650   -5.4430   22.3260 C   0  0  0  0  0  0  0  0  0  0  0  0
  1  2  1  0
  2  3  2  0
  2  4  1  0
  4  5  1  0
  5  6  1  0
  6  7  1  0
  7  8  1  0
  8  9  2  0
  8 10  1  0
 10 11  1  0
 10 12  1  0
 12 13  1  0
 13 14  1  0
 14 15  2  0
 15 16  1  0
 16 17  2  0
 17 18  1  0
 18 19  1  0
 19 20  2  0
 19 21  1  0
 14 22  1  0
 18 22  2  0
  7 23  1  0
  4 24  1  0
 23 24  1  0
M  CHG  2  19   1  21  -1
M  END
