piperidine-amides-4243-covalent
     RDKit          3D

 26 28  0  0  0  0  0  0  0  0999 V2000
    7.1200   -3.3170   19.2790 C   0  0  0  0  0  0  0  0  0  0  0  0
    6.3520   -4.0780   20.2700 C   0  0  0  0  0  0  0  0  0  0  0  0
    5.2730   -4.5880   19.8940 O   0  0  0  0  0  0  0  0  0  0  0  0
    6.8490   -4.2750   21.5740 N   0  0  0  0  0  0  0  0  0  0  0  0
    7.6000   -3.2150   22.1590 C   0  0  0  0  0  0  0  0  0  0  0  0
    7.3030   -2.9390   23.5550 C   0  0  0  0  0  0  0  0  0  0  0  0
    6.5350   -3.9820   24.2590 C   0  0  0  0  0  0  0  0  0  0  0  0
    5.7440   -3.3520   25.3680 C   0  0  0  0  0  0  0  0  0  0  0  0
    4.5320   -3.1230   25.2100 O   0  0  0  0  0  0  0  0  0  0  0  0
    6.3540   -3.0100   26.5910 N   0  0  0  0  0  0  0  0  0  0  0  0
    6.3720   -1.7620   27.2530 C   0  0  0  0  0  0  0  0  0  0  0  0
    5.8050   -0.5710   26.6380 C   0  0  0  0  0  0  0  0  0  0  0  0
    5.8390    0.7740   27.4030 C   0  0  0  0  0  0  0  0  0  0  0  0
    6.3920    0.9220   28.6730 C   0  0  0  0  0  0  0  0  0  0  0  0
    6.9700   -0.3780   29.2500 C   0  0  0  0  0  0  0  0  0  0  0  0
    7.5250   -0.2740   30.5150 O   0  0  0  0  0  0  0  0  0  0  0  0
    6.5720    0.2380   31.3830 C   0  0  0  0  0  0  0  0  0  0  0  0
    6.9330    1.5800   32.0150 C   0  0  0  0  0  0  0  0  0  0  0  0
    6.0520    2.3220   32.9880 C   0  0  0  0  0  0  0  0  0  0  0  0
    4.7480    1.5960   33.2890 C   0  0  0  0  0  0  0  0  0  0  0  0
    4.4600    0.2440   32.6080 C   0  0  0  0  0  0  0  0  0  0  0  0
    3.1650   -0.3940   32.9610 C   0  0  0  0  0  0  0  0  0  0  0  0
    5.3510   -0.3410   31.7240 C   0  0  0  0  0  0  0  0  0  0  0  0
    6.9150   -1.6360   28.4850 C   0  0  0  0  0  0  0  0  0  0  0  0
    5.6320   -4.7660   23.3660 C   0  0  0  0  0  0  0  0  0  0  0  0
    6.4170   -5.3710   22.3940 C   0  0  0  0  0  0  0  0  0  0  0  0
  1  2  1  0
  2  3  2  0
  2  4  1  0
  4  5  1  0
  5  6  1  0
  6  7  1  0
  7  8  1  0
  8  9  2  0
  8 10  1  0
 10 11  1  0
 11 12  2  0
 12 13  1  0
 13 14  2  0
 14 15  1  0
 15 16  1  0
 16 17  1  0
 17 18  2  0
 18 19  1  0
 19 20  2  0
 20 21  1  0
 21 22  1  0
 17 23  1  0
 21 23  2  0
 11 24  1  0
 15 24  2  0
  7 25  1  0
  4 26  1  0
 25 26  1  0
M  END
