piperidine-amides-22369-covalent
     RDKit          3D

 23 24  0  0  0  0  0  0  0  0999 V2000
    7.0750   -3.3450   19.4070 C   0  0  0  0  0  0  0  0  0  0  0  0
    6.3680   -4.1790   20.3890 C   0  0  0  0  0  0  0  0  0  0  0  0
    5.4230   -4.9090   20.0060 O   0  0  0  0  0  0  0  0  0  0  0  0
    6.7690   -4.1950   21.7430 N   0  0  0  0  0  0  0  0  0  0  0  0
    7.6860   -3.1650   22.2220 C   0  0  0  0  0  0  0  0  0  0  0  0
    7.5210   -3.0270   23.7480 C   0  0  0  0  0  0  0  0  0  0  0  0
    6.1180   -3.4870   24.0330 C   0  0  0  0  0  0  0  0  0  0  0  0
    5.5650   -3.1200   25.3730 C   0  0  0  0  0  0  0  0  0  0  0  0
    4.3260   -2.9910   25.4200 O   0  0  0  0  0  0  0  0  0  0  0  0
    6.3320   -2.9190   26.5660 N   0  0  0  0  0  0  0  0  0  0  0  0
    6.3170   -4.0420   27.4700 C   0  0  0  0  0  0  0  0  0  0  0  0
    6.0590   -1.6680   27.2780 C   0  0  1  0  0  0  0  0  0  0  0  0
    7.0060   -1.4930   28.2360 C   0  0  0  0  0  0  0  0  0  0  0  0
    6.7110   -0.4880   29.0990 C   0  0  0  0  0  0  0  0  0  0  0  0
    5.8850    0.5540   28.6630 C   0  0  1  0  0  0  0  0  0  0  0  0
    6.0080    1.7650   29.3120 C   0  0  0  0  0  0  0  0  0  0  0  0
    7.2610    2.6140   29.3750 C   0  0  0  0  0  0  0  0  0  0  0  0
    6.7190    1.8710   30.6130 C   0  0  0  0  0  0  0  0  0  0  0  0
    4.9330    2.5930   29.3200 C   0  0  0  0  0  0  0  0  0  0  0  0
    5.9120    0.6110   27.2630 C   0  0  0  0  0  0  0  0  0  0  0  0
    5.9390   -0.5650   26.4680 C   0  0  0  0  0  0  0  0  0  0  0  0
    6.0860   -5.0080   23.8840 C   0  0  0  0  0  0  0  0  0  0  0  0
    6.6180   -5.4040   22.5230 C   0  0  0  0  0  0  0  0  0  0  0  0
  1  2  1  0
  2  3  2  0
  2  4  1  0
  4  5  1  0
  5  6  1  0
  6  7  1  0
  7  8  1  0
  8  9  2  0
  8 10  1  0
 10 11  1  0
 12 10  1  6
 12 13  1  0
 13 14  1  0
 14 15  1  0
 15 16  1  1
 16 17  1  0
 16 18  1  0
 16 19  1  0
 15 20  1  0
 12 21  1  0
 20 21  1  0
  7 22  1  0
  4 23  1  0
 22 23  1  0
M  END
