piperidine-amides-10139-covalent
     RDKit          3D

 25 26  0  0  0  0  0  0  0  0999 V2000
    7.0290   -3.3420   19.3550 C   0  0  0  0  0  0  0  0  0  0  0  0
    6.3740   -4.1840   20.3620 C   0  0  0  0  0  0  0  0  0  0  0  0
    5.3670   -4.8340   19.9770 O   0  0  0  0  0  0  0  0  0  0  0  0
    6.8850   -4.2750   21.6620 N   0  0  0  0  0  0  0  0  0  0  0  0
    6.7060   -5.4760   22.4500 C   0  0  0  0  0  0  0  0  0  0  0  0
    6.0170   -5.0800   23.7250 C   0  0  0  0  0  0  0  0  0  0  0  0
    5.9840   -3.5820   23.8670 C   0  0  0  0  0  0  0  0  0  0  0  0
    5.6400   -3.1780   25.2460 C   0  0  0  0  0  0  0  0  0  0  0  0
    4.4370   -3.1570   25.5810 O   0  0  0  0  0  0  0  0  0  0  0  0
    6.6230   -2.8200   26.1840 N   0  0  0  0  0  0  0  0  0  0  0  0
    6.5210   -1.6500   27.0230 C   0  0  0  0  0  0  0  0  0  0  0  0
    7.0850   -1.7120   28.4210 C   0  0  0  0  0  0  0  0  0  0  0  0
    7.0380   -0.6530   29.2750 C   0  0  0  0  0  0  0  0  0  0  0  0
    6.4600    0.5590   28.9200 C   0  0  0  0  0  0  0  0  0  0  0  0
    6.5320    1.4210   29.9140 O   0  0  0  0  0  0  0  0  0  0  0  0
    6.4530    0.8490   31.0940 C   0  0  0  0  0  0  0  0  0  0  0  0
    6.6310    1.5820   32.2520 C   0  0  0  0  0  0  0  0  0  0  0  0
    5.3690    0.0090   31.2210 C   0  0  0  0  0  0  0  0  0  0  0  0
    5.8700    0.7050   27.5390 C   0  0  0  0  0  0  0  0  0  0  0  0
    5.2520    2.0690   27.2190 C   0  0  0  0  0  0  0  0  0  0  0  0
    3.9590    1.9070   26.6890 N   0  0  0  0  0  0  0  0  0  0  0  0
    5.5590    3.1450   27.3010 O   0  0  0  0  0  0  0  0  0  0  0  0
    5.9000   -0.3450   26.6380 C   0  0  0  0  0  0  0  0  0  0  0  0
    7.3200   -2.9730   23.5410 C   0  0  0  0  0  0  0  0  0  0  0  0
    7.7220   -3.2150   22.2470 C   0  0  0  0  0  0  0  0  0  0  0  0
  1  2  1  0
  2  3  2  0
  2  4  1  0
  4  5  1  0
  5  6  1  0
  6  7  1  0
  7  8  1  0
  8  9  2  0
  8 10  1  0
 10 11  1  0
 11 12  2  0
 12 13  1  0
 13 14  2  0
 14 15  1  0
 15 16  1  0
 16 17  1  0
 16 18  1  0
 14 19  1  0
 19 20  1  0
 20 21  1  0
 20 22  2  0
 11 23  1  0
 19 23  2  0
  7 24  1  0
  4 25  1  0
 24 25  1  0
M  END
