piperidine-amides-31302-covalent
     RDKit          3D

 28 31  0  0  0  0  0  0  0  0999 V2000
    7.1490   -3.3820   19.4590 C   0  0  0  0  0  0  0  0  0  0  0  0
    6.4230   -4.2060   20.3890 C   0  0  0  0  0  0  0  0  0  0  0  0
    5.3920   -4.8320   19.9810 O   0  0  0  0  0  0  0  0  0  0  0  0
    6.8690   -4.3600   21.7130 N   0  0  0  0  0  0  0  0  0  0  0  0
    6.6640   -5.6570   22.3870 C   0  0  0  0  0  0  0  0  0  0  0  0
    5.7400   -5.1970   23.5820 C   0  0  0  0  0  0  0  0  0  0  0  0
    6.4430   -4.0430   24.2740 C   0  0  0  0  0  0  0  0  0  0  0  0
    5.5540   -3.5660   25.5100 C   0  0  0  0  0  0  0  0  0  0  0  0
    4.5990   -2.9150   25.1120 O   0  0  0  0  0  0  0  0  0  0  0  0
    6.0860   -3.9950   26.5820 N   0  0  0  0  0  0  0  0  0  0  0  0
    6.9450   -4.5850   27.4230 C   0  0  0  0  0  0  0  0  0  0  0  0
    6.9850   -5.5620   28.3280 C   0  0  0  0  0  0  0  0  0  0  0  0
    6.0370   -5.2130   29.2620 O   0  0  0  0  0  0  0  0  0  0  0  0
    4.9590   -4.6130   28.6460 C   0  0  0  0  0  0  0  0  0  0  0  0
    5.4550   -3.4480   27.8400 C   0  0  2  0  0  0  0  0  0  0  0  0
    3.9770   -3.0970   27.5790 C   0  0  0  0  0  0  0  0  0  0  0  0
    3.4000   -1.7990   27.7740 N   0  0  0  0  0  0  0  0  0  0  0  0
    2.1430   -1.8960   27.4590 O   0  0  0  0  0  0  0  0  0  0  0  0
    1.9570   -3.2360   27.0770 C   0  0  0  0  0  0  0  0  0  0  0  0
    0.6600   -3.5970   26.6890 C   0  0  0  0  0  0  0  0  0  0  0  0
    0.5240   -4.2940   28.0140 C   0  0  0  0  0  0  0  0  0  0  0  0
   -0.8700   -4.9570   28.1640 C   0  0  0  0  0  0  0  0  0  0  0  0
   -1.7880   -4.8490   27.1310 C   0  0  0  0  0  0  0  0  0  0  0  0
   -1.4960   -4.1560   25.9520 C   0  0  0  0  0  0  0  0  0  0  0  0
   -0.2870   -3.5410   25.7380 C   0  0  0  0  0  0  0  0  0  0  0  0
    3.0870   -3.9800   27.1500 N   0  0  0  0  0  0  0  0  0  0  0  0
    6.8750   -2.8970   23.4080 C   0  0  0  0  0  0  0  0  0  0  0  0
    7.6600   -3.3670   22.3680 C   0  0  0  0  0  0  0  0  0  0  0  0
  1  2  1  0
  2  3  2  0
  2  4  1  0
  4  5  1  0
  5  6  1  0
  6  7  1  0
  7  8  1  0
  8  9  2  0
  8 10  1  0
 10 11  1  0
 11 12  1  0
 12 13  1  0
 13 14  1  0
 10 15  1  0
 14 15  1  0
 15 16  1  6
 16 17  2  0
 17 18  1  0
 18 19  1  0
 19 20  1  0
 20 21  2  0
 21 22  1  0
 22 23  2  0
 23 24  1  0
 20 25  1  0
 24 25  2  0
 16 26  1  0
 19 26  2  0
  7 27  1  0
  4 28  1  0
 27 28  1  0
M  END
