piperidine-amides-1710-covalent
     RDKit          3D

 20 21  0  0  0  0  0  0  0  0999 V2000
    7.0940   -3.3480   19.3310 C   0  0  0  0  0  0  0  0  0  0  0  0
    6.3650   -4.1790   20.3220 C   0  0  0  0  0  0  0  0  0  0  0  0
    5.3440   -4.7910   19.9660 O   0  0  0  0  0  0  0  0  0  0  0  0
    6.8900   -4.2850   21.6250 N   0  0  0  0  0  0  0  0  0  0  0  0
    7.7260   -3.2580   22.2000 C   0  0  0  0  0  0  0  0  0  0  0  0
    6.9350   -2.6690   23.3600 C   0  0  0  0  0  0  0  0  0  0  0  0
    6.5130   -3.8260   24.1890 C   0  0  0  0  0  0  0  0  0  0  0  0
    5.7800   -3.4030   25.4070 C   0  0  0  0  0  0  0  0  0  0  0  0
    4.5390   -3.5020   25.4180 O   0  0  0  0  0  0  0  0  0  0  0  0
    6.5080   -2.8960   26.4900 N   0  0  0  0  0  0  0  0  0  0  0  0
    6.4140   -1.6130   27.0920 C   0  0  1  0  0  0  0  0  0  0  0  0
    5.5320   -0.6640   26.6060 C   0  0  0  0  0  0  0  0  0  0  0  0
    5.6900    0.7070   26.8690 C   0  0  0  0  0  0  0  0  0  0  0  0
    5.6910    0.8930   28.3020 N   0  0  0  0  0  0  0  0  0  0  0  0
    6.7000    0.6150   29.1460 C   0  0  0  0  0  0  0  0  0  0  0  0
    7.3830    1.5690   29.7590 O   0  0  0  0  0  0  0  0  0  0  0  0
    7.0840   -0.7930   29.4070 C   0  0  0  0  0  0  0  0  0  0  0  0
    6.3920   -1.7910   28.4850 C   0  0  0  0  0  0  0  0  0  0  0  0
    5.7210   -4.8860   23.4690 C   0  0  0  0  0  0  0  0  0  0  0  0
    6.5010   -5.3940   22.4480 C   0  0  0  0  0  0  0  0  0  0  0  0
  1  2  1  0
  2  3  2  0
  2  4  1  0
  4  5  1  0
  5  6  1  0
  6  7  1  0
  7  8  1  0
  8  9  2  0
  8 10  1  0
 11 10  1  6
 11 12  1  0
 12 13  1  0
 13 14  1  0
 14 15  1  0
 15 16  2  0
 15 17  1  0
 11 18  1  0
 17 18  1  0
  7 19  1  0
  4 20  1  0
 19 20  1  0
M  END
