piperidine-amides-27814-covalent
     RDKit          3D

 23 24  0  0  0  0  0  0  0  0999 V2000
    7.0890   -3.2610   19.1720 C   0  0  0  0  0  0  0  0  0  0  0  0
    6.3010   -4.0230   20.1730 C   0  0  0  0  0  0  0  0  0  0  0  0
    5.1790   -4.4050   19.8080 O   0  0  0  0  0  0  0  0  0  0  0  0
    6.8020   -4.3660   21.4340 N   0  0  0  0  0  0  0  0  0  0  0  0
    7.4920   -3.3940   22.2090 C   0  0  0  0  0  0  0  0  0  0  0  0
    7.5530   -3.6870   23.6460 C   0  0  0  0  0  0  0  0  0  0  0  0
    6.4250   -4.4300   24.2560 C   0  0  0  0  0  0  0  0  0  0  0  0
    5.7380   -3.5570   25.2360 C   0  0  0  0  0  0  0  0  0  0  0  0
    4.4920   -3.5570   25.2790 O   0  0  0  0  0  0  0  0  0  0  0  0
    6.4740   -2.7320   26.1050 N   0  0  0  0  0  0  0  0  0  0  0  0
    6.4420   -2.9750   27.5710 C   0  0  0  0  0  0  0  0  0  0  0  0
    6.7250   -1.4110   25.6390 C   0  0  0  0  0  0  0  0  0  0  0  0
    7.6310   -1.1680   24.4910 C   0  0  0  0  0  0  0  0  0  0  0  0
    8.8880   -1.8520   24.5370 N   0  0  0  0  0  0  0  0  0  0  0  0
    9.8320   -1.7090   23.5440 C   0  0  0  0  0  0  0  0  0  0  0  0
   11.1060   -2.2230   23.3300 C   0  0  0  0  0  0  0  0  0  0  0  0
   11.9330   -1.8010   24.3200 C   0  0  0  0  0  0  0  0  0  0  0  0
   11.2670   -1.9430   21.8810 C   0  0  0  0  0  0  0  0  0  0  0  0
    9.0640   -0.5630   22.3530 S   0  0  0  0  0  0  0  0  0  0  0  0
    7.4920   -0.3720   23.3450 C   0  0  0  0  0  0  0  0  0  0  0  0
    6.0780    0.5940   22.9840 Cl  0  0  0  0  0  0  0  0  0  0  0  0
    5.4830   -4.9820   23.2250 C   0  0  0  0  0  0  0  0  0  0  0  0
    6.3280   -5.5230   22.1420 C   0  0  0  0  0  0  0  0  0  0  0  0
  1  2  1  0
  2  3  2  0
  2  4  1  0
  4  5  1  0
  5  6  1  0
  6  7  1  0
  7  8  1  0
  8  9  2  0
  8 10  1  0
 10 11  1  0
 10 12  1  0
 12 13  1  0
 13 14  1  0
 14 15  2  0
 15 16  1  0
 16 17  1  0
 16 18  1  0
 15 19  1  0
 13 20  2  0
 19 20  1  0
 20 21  1  0
  7 22  1  0
  4 23  1  0
 22 23  1  0
M  END
