piperidine-amides-6333-covalent
     RDKit          3D

 25 27  0  0  0  0  0  0  0  0999 V2000
    7.1260   -3.2830   19.2600 C   0  0  0  0  0  0  0  0  0  0  0  0
    6.3500   -4.0470   20.2460 C   0  0  0  0  0  0  0  0  0  0  0  0
    5.2980   -4.6350   19.9120 O   0  0  0  0  0  0  0  0  0  0  0  0
    6.8080   -4.1620   21.5630 N   0  0  0  0  0  0  0  0  0  0  0  0
    7.6880   -3.1310   22.0850 C   0  0  0  0  0  0  0  0  0  0  0  0
    7.5310   -3.1100   23.6070 C   0  0  0  0  0  0  0  0  0  0  0  0
    6.1380   -3.6150   23.8830 C   0  0  0  0  0  0  0  0  0  0  0  0
    5.7090   -3.2880   25.2530 C   0  0  0  0  0  0  0  0  0  0  0  0
    4.5390   -3.5720   25.5850 O   0  0  0  0  0  0  0  0  0  0  0  0
    6.6130   -2.6600   26.1410 N   0  0  0  0  0  0  0  0  0  0  0  0
    6.2560   -1.4210   26.7690 C   0  0  2  0  0  0  0  0  0  0  0  0
    5.5650   -1.7430   28.0900 C   0  0  0  0  0  0  0  0  0  0  0  0
    4.6440   -2.7730   28.3180 C   0  0  0  0  0  0  0  0  0  0  0  0
    4.0460   -3.0120   29.5450 C   0  0  0  0  0  0  0  0  0  0  0  0
    4.3210   -2.2360   30.6490 C   0  0  0  0  0  0  0  0  0  0  0  0
    5.1950   -1.2180   30.5510 C   0  0  0  0  0  0  0  0  0  0  0  0
    5.9110   -0.8530   29.2910 C   0  0  0  0  0  0  0  0  0  0  0  0
    6.7900    0.1830   29.2320 F   0  0  0  0  0  0  0  0  0  0  0  0
    5.3600   -0.6660   25.8100 C   0  0  0  0  0  0  0  0  0  0  0  0
    5.5520    0.8250   25.5180 C   0  0  0  0  0  0  0  0  0  0  0  0
    5.2370    0.7780   26.9610 C   0  0  0  0  0  0  0  0  0  0  0  0
    3.9610    0.2520   27.1260 C   0  0  0  0  0  0  0  0  0  0  0  0
    3.9360   -0.7650   26.2660 C   0  0  0  0  0  0  0  0  0  0  0  0
    6.0740   -5.1130   23.6670 C   0  0  0  0  0  0  0  0  0  0  0  0
    6.5760   -5.3930   22.2730 C   0  0  0  0  0  0  0  0  0  0  0  0
  1  2  1  0
  2  3  2  0
  2  4  1  0
  4  5  1  0
  5  6  1  0
  6  7  1  0
  7  8  1  0
  8  9  2  0
  8 10  1  0
 11 10  1  6
 11 12  1  0
 12 13  2  0
 13 14  1  0
 14 15  2  0
 15 16  1  0
 12 17  1  0
 16 17  2  0
 17 18  1  0
 11 19  1  0
 19 20  1  0
 20 21  1  0
 21 22  1  0
 19 23  1  0
 22 23  1  0
  7 24  1  0
  4 25  1  0
 24 25  1  0
M  END
