piperidine-amides-3445-covalent
     RDKit          3D

 21 21  0  0  0  0  0  0  0  0999 V2000
    7.1190   -3.3060   19.3110 C   0  0  0  0  0  0  0  0  0  0  0  0
    6.3390   -4.0580   20.2860 C   0  0  0  0  0  0  0  0  0  0  0  0
    5.3180   -4.6450   19.9290 O   0  0  0  0  0  0  0  0  0  0  0  0
    6.7970   -4.1510   21.6480 N   0  0  0  0  0  0  0  0  0  0  0  0
    7.6780   -3.1320   22.1710 C   0  0  0  0  0  0  0  0  0  0  0  0
    7.3610   -2.8750   23.6150 C   0  0  0  0  0  0  0  0  0  0  0  0
    6.1030   -3.6630   23.9090 C   0  0  0  0  0  0  0  0  0  0  0  0
    5.5060   -3.3190   25.2430 C   0  0  0  0  0  0  0  0  0  0  0  0
    4.5130   -2.5750   25.3230 O   0  0  0  0  0  0  0  0  0  0  0  0
    6.0450   -3.8180   26.4600 N   0  0  0  0  0  0  0  0  0  0  0  0
    5.8530   -5.2160   26.8140 C   0  0  1  0  0  0  0  0  0  0  0  0
    6.4250   -5.4460   28.1940 C   0  0  0  0  0  0  0  0  0  0  0  0
    6.5030   -5.2630   29.5520 O   0  0  0  0  0  0  0  0  0  0  0  0
    5.4480   -4.5510   28.5590 O   0  0  0  0  0  0  0  0  0  0  0  0
    4.3560   -4.8360   29.3880 C   0  0  0  0  0  0  0  0  0  0  0  0
    4.4820   -5.6950   26.8310 C   0  0  2  0  0  0  0  0  0  0  0  0
    4.3630   -6.9260   27.4410 C   0  0  0  0  0  0  0  0  0  0  0  0
    4.0170   -5.6870   25.5350 C   0  0  0  0  0  0  0  0  0  0  0  0
    2.9560   -4.8380   25.2970 C   0  0  0  0  0  0  0  0  0  0  0  0
    6.4750   -5.1300   23.7510 C   0  0  0  0  0  0  0  0  0  0  0  0
    6.4650   -5.3750   22.3720 C   0  0  0  0  0  0  0  0  0  0  0  0
  1  2  1  0
  2  3  2  0
  2  4  1  0
  4  5  1  0
  5  6  1  0
  6  7  1  0
  7  8  1  0
  8  9  2  0
  8 10  1  0
 11 10  1  1
 11 12  1  0
 12 13  2  0
 12 14  1  0
 14 15  1  0
 11 16  1  0
 16 17  1  6
 16 18  1  0
 18 19  1  0
  7 20  1  0
  4 21  1  0
 20 21  1  0
M  END
