piperidine-amides-2411-covalent
     RDKit          3D

 27 29  0  0  0  0  0  0  0  0999 V2000
    7.0680   -3.2760   19.1980 C   0  0  0  0  0  0  0  0  0  0  0  0
    6.3230   -4.0510   20.2240 C   0  0  0  0  0  0  0  0  0  0  0  0
    5.2600   -4.5540   19.8780 O   0  0  0  0  0  0  0  0  0  0  0  0
    6.8530   -4.2290   21.5040 N   0  0  0  0  0  0  0  0  0  0  0  0
    7.5790   -3.1680   22.1500 C   0  0  0  0  0  0  0  0  0  0  0  0
    6.8090   -2.7220   23.3550 C   0  0  0  0  0  0  0  0  0  0  0  0
    6.5300   -3.9280   24.2620 C   0  0  0  0  0  0  0  0  0  0  0  0
    5.8180   -3.4370   25.4650 C   0  0  0  0  0  0  0  0  0  0  0  0
    4.5880   -3.5830   25.5610 O   0  0  0  0  0  0  0  0  0  0  0  0
    6.5410   -2.7850   26.4850 N   0  0  0  0  0  0  0  0  0  0  0  0
    6.3720   -3.0730   27.9040 C   0  0  0  0  0  0  0  0  0  0  0  0
    5.2970   -4.0860   28.2220 C   0  0  0  0  0  0  0  0  0  0  0  0
    5.1370   -5.3590   27.6830 C   0  0  0  0  0  0  0  0  0  0  0  0
    4.1050   -6.1960   28.0830 C   0  0  0  0  0  0  0  0  0  0  0  0
    3.2000   -5.7760   29.0360 C   0  0  0  0  0  0  0  0  0  0  0  0
    2.1920   -6.6060   29.4220 O   0  0  0  0  0  0  0  0  0  0  0  0
    1.9830   -6.7980   30.7520 C   0  0  0  0  0  0  0  0  0  0  0  0
    0.5200   -7.0360   30.9440 C   0  0  0  0  0  0  0  0  0  0  0  0
    0.4610   -8.4350   31.5550 C   0  0  0  0  0  0  0  0  0  0  0  0
    1.8450   -8.6330   32.1070 C   0  0  0  0  0  0  0  0  0  0  0  0
    2.8100   -7.8690   31.2830 C   0  0  0  0  0  0  0  0  0  0  0  0
    3.3540   -4.4240   29.6170 C   0  0  0  0  0  0  0  0  0  0  0  0
    2.4730   -4.0410   30.5330 O   0  0  0  0  0  0  0  0  0  0  0  0
    2.8650   -3.5940   31.8220 C   0  0  0  0  0  0  0  0  0  0  0  0
    4.3930   -3.6660   29.1730 C   0  0  0  0  0  0  0  0  0  0  0  0
    5.6850   -4.9230   23.5050 C   0  0  0  0  0  0  0  0  0  0  0  0
    6.3840   -5.3600   22.2440 C   0  0  0  0  0  0  0  0  0  0  0  0
  1  2  1  0
  2  3  2  0
  2  4  1  0
  4  5  1  0
  5  6  1  0
  6  7  1  0
  7  8  1  0
  8  9  2  0
  8 10  1  0
 10 11  1  0
 11 12  1  0
 12 13  2  0
 13 14  1  0
 14 15  2  0
 15 16  1  0
 16 17  1  0
 17 18  1  0
 18 19  1  0
 19 20  1  0
 17 21  1  0
 20 21  1  0
 15 22  1  0
 22 23  1  0
 23 24  1  0
 12 25  1  0
 22 25  2  0
  7 26  1  0
  4 27  1  0
 26 27  1  0
M  END
