piperidine-amides-13447-covalent
     RDKit          3D

 19 20  0  0  0  0  0  0  0  0999 V2000
    7.1290   -3.2700   19.2240 C   0  0  0  0  0  0  0  0  0  0  0  0
    6.3610   -4.0450   20.2380 C   0  0  0  0  0  0  0  0  0  0  0  0
    5.2980   -4.5890   19.9010 O   0  0  0  0  0  0  0  0  0  0  0  0
    6.8920   -4.1810   21.5410 N   0  0  0  0  0  0  0  0  0  0  0  0
    7.7430   -3.1770   22.1330 C   0  0  0  0  0  0  0  0  0  0  0  0
    6.9920   -2.6220   23.3360 C   0  0  0  0  0  0  0  0  0  0  0  0
    6.5300   -3.8030   24.1200 C   0  0  0  0  0  0  0  0  0  0  0  0
    5.7060   -3.4120   25.2840 C   0  0  0  0  0  0  0  0  0  0  0  0
    4.5090   -3.2040   25.0620 O   0  0  0  0  0  0  0  0  0  0  0  0
    6.2760   -3.2970   26.5470 N   0  0  0  0  0  0  0  0  0  0  0  0
    5.6780   -3.6770   27.7740 C   0  0  1  0  0  0  0  0  0  0  0  0
    6.2560   -3.5390   28.9180 C   0  0  0  0  0  0  0  0  0  0  0  0
    5.1630   -2.8620   29.2630 C   0  0  1  0  0  0  0  0  0  0  0  0
    5.3230   -1.5770   29.7270 C   0  0  0  0  0  0  0  0  0  0  0  0
    6.7760   -0.7580   29.1100 S   0  0  0  0  0  0  0  0  0  0  0  0
    7.9690   -0.5150   30.4340 C   0  0  0  0  0  0  0  0  0  0  0  0
    4.3960   -3.0230   28.0510 C   0  0  0  0  0  0  0  0  0  0  0  0
    5.7590   -4.8420   23.3570 C   0  0  0  0  0  0  0  0  0  0  0  0
    6.5300   -5.3260   22.3210 C   0  0  0  0  0  0  0  0  0  0  0  0
  1  2  1  0
  2  3  2  0
  2  4  1  0
  4  5  1  0
  5  6  1  0
  6  7  1  0
  7  8  1  0
  8  9  2  0
  8 10  1  0
 11 10  1  6
 11 12  1  0
 12 13  1  0
 13 14  1  6
 14 15  1  0
 15 16  1  0
 11 17  1  0
 13 17  1  0
  7 18  1  0
  4 19  1  0
 18 19  1  0
M  END
