piperidine-amides-23795-covalent
     RDKit          3D

 24 26  0  0  0  0  0  0  0  0999 V2000
    7.0910   -3.3780   19.3790 C   0  0  0  0  0  0  0  0  0  0  0  0
    6.4110   -4.2170   20.3740 C   0  0  0  0  0  0  0  0  0  0  0  0
    5.3850   -4.8350   19.9840 O   0  0  0  0  0  0  0  0  0  0  0  0
    6.9290   -4.3740   21.6880 N   0  0  0  0  0  0  0  0  0  0  0  0
    6.5000   -5.4700   22.4780 C   0  0  0  0  0  0  0  0  0  0  0  0
    6.2290   -5.1530   23.8900 C   0  0  0  0  0  0  0  0  0  0  0  0
    6.4860   -3.7620   24.3590 C   0  0  0  0  0  0  0  0  0  0  0  0
    5.3690   -3.2840   25.2640 C   0  0  0  0  0  0  0  0  0  0  0  0
    4.4370   -2.6470   24.7520 O   0  0  0  0  0  0  0  0  0  0  0  0
    5.2960   -3.5200   26.6670 N   0  0  0  0  0  0  0  0  0  0  0  0
    4.3070   -4.2330   27.3540 C   0  0  0  0  0  0  0  0  0  0  0  0
    4.3560   -4.3910   28.7960 C   0  0  0  0  0  0  0  0  0  0  0  0
    5.7920   -4.3010   29.2850 C   0  0  0  0  0  0  0  0  0  0  0  0
    6.7510   -4.5300   28.3660 C   0  0  0  0  0  0  0  0  0  0  0  0
    6.4800   -3.3040   27.4350 C   0  0  2  0  0  0  0  0  0  0  0  0
    6.3680   -2.2570   28.5160 C   0  0  0  0  0  0  0  0  0  0  0  0
    4.8820   -1.9080   28.5340 C   0  0  0  0  0  0  0  0  0  0  0  0
    4.2990   -0.8830   29.4770 C   0  0  0  0  0  0  0  0  0  0  0  0
    5.3040   -0.2160   30.4110 C   0  0  0  0  0  0  0  0  0  0  0  0
    4.8770    0.7210   31.3010 F   0  0  0  0  0  0  0  0  0  0  0  0
    6.8000   -0.5990   30.3520 C   0  0  0  0  0  0  0  0  0  0  0  0
    7.2460   -1.6300   29.3720 C   0  0  0  0  0  0  0  0  0  0  0  0
    6.7490   -2.7730   23.2670 C   0  0  0  0  0  0  0  0  0  0  0  0
    7.6270   -3.3080   22.3450 C   0  0  0  0  0  0  0  0  0  0  0  0
  1  2  1  0
  2  3  2  0
  2  4  1  0
  4  5  1  0
  5  6  1  0
  6  7  1  0
  7  8  1  0
  8  9  2  0
  8 10  1  0
 10 11  1  0
 11 12  1  0
 12 13  1  0
 13 14  1  0
 10 15  1  0
 14 15  1  0
 15 16  1  1
 16 17  2  0
 17 18  1  0
 18 19  2  0
 19 20  1  0
 19 21  1  0
 16 22  1  0
 21 22  2  0
  7 23  1  0
  4 24  1  0
 23 24  1  0
M  END
