piperidine-amides-11534-covalent
     RDKit          3D

 19 20  0  0  0  0  0  0  0  0999 V2000
    7.0860   -3.3310   19.3150 C   0  0  0  0  0  0  0  0  0  0  0  0
    6.3600   -4.0980   20.3270 C   0  0  0  0  0  0  0  0  0  0  0  0
    5.3650   -4.7530   19.9670 O   0  0  0  0  0  0  0  0  0  0  0  0
    6.7970   -4.1460   21.6730 N   0  0  0  0  0  0  0  0  0  0  0  0
    7.6850   -3.1250   22.2150 C   0  0  0  0  0  0  0  0  0  0  0  0
    7.3130   -2.9590   23.6660 C   0  0  0  0  0  0  0  0  0  0  0  0
    5.9990   -3.6120   23.9470 C   0  0  0  0  0  0  0  0  0  0  0  0
    5.3680   -3.3180   25.2730 C   0  0  0  0  0  0  0  0  0  0  0  0
    4.1200   -3.1440   25.3180 O   0  0  0  0  0  0  0  0  0  0  0  0
    6.0340   -3.1970   26.5250 N   0  0  0  0  0  0  0  0  0  0  0  0
    6.0970   -4.3450   27.4620 C   0  0  0  0  0  0  0  0  0  0  0  0
    4.8770   -4.5670   28.2550 C   0  0  0  0  0  0  0  0  0  0  0  0
    3.8510   -3.7000   28.1780 N   0  0  0  0  0  0  0  0  0  0  0  0
    2.9340   -4.1520   28.9720 O   0  0  0  0  0  0  0  0  0  0  0  0
    3.4300   -5.2770   29.5080 C   0  0  0  0  0  0  0  0  0  0  0  0
    4.8060   -5.7870   29.1510 C   0  0  0  0  0  0  0  0  0  0  0  0
    5.7160   -6.9540   29.5000 C   0  0  0  0  0  0  0  0  0  0  0  0
    6.1270   -5.0830   23.7150 C   0  0  0  0  0  0  0  0  0  0  0  0
    6.4840   -5.3420   22.4070 C   0  0  0  0  0  0  0  0  0  0  0  0
  1  2  1  0
  2  3  2  0
  2  4  1  0
  4  5  1  0
  5  6  1  0
  6  7  1  0
  7  8  1  0
  8  9  2  0
  8 10  1  0
 10 11  1  0
 11 12  1  0
 12 13  2  0
 13 14  1  0
 14 15  1  0
 12 16  1  0
 15 16  2  0
 16 17  1  0
  7 18  1  0
  4 19  1  0
 18 19  1  0
M  END
