piperidine-amides-6651-covalent
     RDKit          3D

 24 25  0  0  0  0  0  0  0  0999 V2000
    6.9920   -3.2950   19.2420 C   0  0  0  0  0  0  0  0  0  0  0  0
    6.3000   -4.1200   20.2500 C   0  0  0  0  0  0  0  0  0  0  0  0
    5.2840   -4.7650   19.9380 O   0  0  0  0  0  0  0  0  0  0  0  0
    6.7790   -4.2400   21.5600 N   0  0  0  0  0  0  0  0  0  0  0  0
    6.5940   -5.4940   22.2570 C   0  0  0  0  0  0  0  0  0  0  0  0
    5.9960   -5.1850   23.6440 C   0  0  0  0  0  0  0  0  0  0  0  0
    5.8530   -3.6810   23.7570 C   0  0  0  0  0  0  0  0  0  0  0  0
    5.3680   -3.3280   25.1140 C   0  0  0  0  0  0  0  0  0  0  0  0
    4.1540   -3.4780   25.3600 O   0  0  0  0  0  0  0  0  0  0  0  0
    6.2490   -2.8350   26.1040 N   0  0  0  0  0  0  0  0  0  0  0  0
    7.3790   -3.6040   26.4810 C   0  0  0  0  0  0  0  0  0  0  0  0
    8.5160   -3.0390   25.6740 C   0  0  0  0  0  0  0  0  0  0  0  0
    8.5730   -2.0050   24.7210 C   0  0  0  0  0  0  0  0  0  0  0  0
    9.7430   -1.6190   24.0520 C   0  0  0  0  0  0  0  0  0  0  0  0
   10.9390   -2.2600   24.3220 C   0  0  0  0  0  0  0  0  0  0  0  0
   10.9520   -3.2380   25.2190 C   0  0  0  0  0  0  0  0  0  0  0  0
   11.6190   -4.2930   26.0200 C   0  0  0  0  0  0  0  0  0  0  0  0
   13.4360   -4.0300   26.1340 S   0  0  0  0  0  0  0  0  0  0  0  0
   13.9500   -2.4850   25.5610 N   0  0  0  0  0  0  0  0  0  0  0  0
   14.3290   -5.0740   25.6690 O   0  0  0  0  0  0  0  0  0  0  0  0
   13.9910   -4.4410   27.3850 O   0  0  0  0  0  0  0  0  0  0  0  0
    9.8520   -3.7590   25.9800 C   0  0  0  0  0  0  0  0  0  0  0  0
    7.0860   -2.9410   23.4590 C   0  0  0  0  0  0  0  0  0  0  0  0
    7.6070   -3.2480   22.1420 C   0  0  0  0  0  0  0  0  0  0  0  0
  1  2  1  0
  2  3  2  0
  2  4  1  0
  4  5  1  0
  5  6  1  0
  6  7  1  0
  7  8  1  0
  8  9  2  0
  8 10  1  0
 10 11  1  0
 11 12  1  0
 12 13  2  0
 13 14  1  0
 14 15  2  0
 15 16  1  0
 16 17  1  0
 17 18  1  0
 18 19  1  0
 18 20  2  0
 18 21  2  0
 12 22  1  0
 16 22  2  0
  7 23  1  0
  4 24  1  0
 23 24  1  0
M  END
