piperidine-amides-35701-covalent
     RDKit          3D

 56 62  0  0  0  0  0  0  0  0999 V2000
    6.9730   -3.3270   19.3930 C   0  0  0  0  0  0  0  0  0  0  0  0
    6.3580   -4.2220   20.4120 C   0  0  0  0  0  0  0  0  0  0  0  0
    5.4400   -4.9400   20.0060 O   0  0  0  0  0  0  0  0  0  0  0  0
    6.8240   -4.2580   21.7450 N   0  0  0  0  0  0  0  0  0  0  0  0
    7.7890   -3.3030   22.2550 C   0  0  0  0  0  0  0  0  0  0  0  0
    7.5090   -2.9940   23.7050 C   0  0  0  0  0  0  0  0  0  0  0  0
    6.2020   -3.6780   24.0980 C   0  0  0  0  0  0  0  0  0  0  0  0
    5.6020   -3.0290   25.3060 C   0  0  0  0  0  0  0  0  0  0  0  0
    4.4910   -2.5090   25.1440 O   0  0  0  0  0  0  0  0  0  0  0  0
    6.1530   -2.9730   26.6240 N   0  0  0  0  0  0  0  0  0  0  0  0
    6.3410   -1.6470   27.2170 C   0  0  0  0  0  0  0  0  0  0  0  0
    5.6660   -0.5010   26.5470 C   0  0  0  0  0  0  0  0  0  0  0  0
    5.7780    0.7540   27.0690 C   0  0  0  0  0  0  0  0  0  0  0  0
    6.5270    0.8990   28.2090 C   0  0  0  0  0  0  0  0  0  0  0  0
    6.6840    2.2070   28.8200 N   0  0  0  0  0  0  0  0  0  0  0  0
    6.9400    2.2940   30.2410 C   0  0  0  0  0  0  0  0  0  0  0  0
    7.5240    3.6630   30.5420 C   0  0  0  0  0  0  0  0  0  0  0  0
    6.2260    4.3290   30.1910 C   0  0  0  0  0  0  0  0  0  0  0  0
    5.0890    3.5820   30.2650 O   0  0  0  0  0  0  0  0  0  0  0  0
    6.4650    4.7350   28.7600 C   0  0  0  0  0  0  0  0  0  0  0  0
    7.0160    3.4720   28.1740 C   0  0  0  0  0  0  0  0  0  0  0  0
    7.2130   -0.0290   28.9390 N   0  0  0  0  0  0  0  0  0  0  0  0
    7.1330   -1.4020   28.4380 C   0  0  0  0  0  0  0  0  0  0  0  0
    5.3430   -3.4820   27.7560 C   0  0  0  0  0  0  0  0  0  0  0  0
    4.2710   -2.7690   28.1700 N   0  0  0  0  0  0  0  0  0  0  0  0
    3.4900   -3.1270   29.1590 C   0  0  0  0  0  0  0  0  0  0  0  0
    3.7960   -4.4020   29.8780 C   0  0  0  0  0  0  0  0  0  0  0  0
    4.8730   -5.0440   29.4050 C   0  0  0  0  0  0  0  0  0  0  0  0
    5.6340   -4.6250   28.3910 N   0  0  0  0  0  0  0  0  0  0  0  0
    5.2890   -6.2030   29.9300 N   0  0  0  0  0  0  0  0  0  0  0  0
    6.2860   -6.9120   29.1910 C   0  0  0  0  0  0  0  0  0  0  0  0
    4.4800   -6.9620   30.8730 C   0  0  0  0  0  0  0  0  0  0  0  0
    3.1550   -6.3900   31.0490 N   0  0  0  0  0  0  0  0  0  0  0  0
    1.9900   -7.2570   31.1390 C   0  0  0  0  0  0  0  0  0  0  0  0
    2.0330   -8.4030   31.9030 C   0  0  0  0  0  0  0  0  0  0  0  0
    0.8790   -9.4090   32.0880 C   0  0  0  0  0  0  0  0  0  0  0  0
    1.0550  -10.5400   32.8910 N   0  0  0  0  0  0  0  0  0  0  0  0
    1.3420  -10.6360   34.2630 C   0  0  0  0  0  0  0  0  0  0  0  0
    1.0390   -9.7720   35.1650 O   0  0  0  0  0  0  0  0  0  0  0  0
    2.0690  -11.8270   34.8790 C   0  0  0  0  0  0  0  0  0  0  0  0
    1.5030  -13.2210   34.7290 C   0  0  0  0  0  0  0  0  0  0  0  0
    2.1330  -14.4730   35.2820 C   0  0  0  0  0  0  0  0  0  0  0  0
    3.4230  -14.2760   36.0330 C   0  0  0  0  0  0  0  0  0  0  0  0
    4.0190  -12.8870   36.2030 C   0  0  0  0  0  0  0  0  0  0  0  0
    5.3070  -12.5670   36.9320 C   0  0  0  0  0  0  0  0  0  0  0  0
    4.9480  -12.2250   38.2130 F   0  0  0  0  0  0  0  0  0  0  0  0
    6.0620  -13.7090   36.9800 F   0  0  0  0  0  0  0  0  0  0  0  0
    5.9320  -11.5480   36.2460 F   0  0  0  0  0  0  0  0  0  0  0  0
    3.2670  -11.6650   35.5810 C   0  0  0  0  0  0  0  0  0  0  0  0
   -0.2750   -9.1110   31.4240 C   0  0  0  0  0  0  0  0  0  0  0  0
   -0.3100   -7.8680   30.5990 C   0  0  0  0  0  0  0  0  0  0  0  0
    0.8360   -6.9200   30.4460 C   0  0  0  0  0  0  0  0  0  0  0  0
    0.7190   -5.6620   29.5740 C   0  0  0  0  0  0  0  0  0  0  0  0
    3.0350   -4.9470   30.9870 C   0  0  0  0  0  0  0  0  0  0  0  0
    6.3130   -5.1550   23.9590 C   0  0  0  0  0  0  0  0  0  0  0  0
    6.6100   -5.4770   22.4760 C   0  0  0  0  0  0  0  0  0  0  0  0
  1  2  1  0
  2  3  2  0
  2  4  1  0
  4  5  1  0
  5  6  1  0
  6  7  1  0
  7  8  1  0
  8  9  2  0
  8 10  1  0
 10 11  1  0
 11 12  2  0
 12 13  1  0
 13 14  2  0
 14 15  1  0
 15 16  1  0
 16 17  1  0
 17 18  1  0
 18 19  1  0
 18 20  1  0
 15 21  1  0
 20 21  1  0
 14 22  1  0
 11 23  1  0
 22 23  2  0
 10 24  1  0
 24 25  2  0
 25 26  1  0
 26 27  2  0
 27 28  1  0
 24 29  1  0
 28 29  2  0
 28 30  1  0
 30 31  1  0
 30 32  1  0
 32 33  1  0
 33 34  1  0
 34 35  2  0
 35 36  1  0
 36 37  1  0
 37 38  1  0
 38 39  2  0
 38 40  1  0
 40 41  2  0
 41 42  1  0
 42 43  2  0
 43 44  1  0
 44 45  1  0
 45 46  1  0
 45 47  1  0
 45 48  1  0
 40 49  1  0
 44 49  2  0
 36 50  2  0
 50 51  1  0
 34 52  1  0
 51 52  2  0
 52 53  1  0
 27 54  1  0
 33 54  1  0
  7 55  1  0
  4 56  1  0
 55 56  1  0
M  END
