piperidine-amides-9861-covalent
     RDKit          3D

 27 28  0  0  0  0  0  0  0  0999 V2000
    7.1220   -3.2770   19.2030 C   0  0  0  0  0  0  0  0  0  0  0  0
    6.4100   -4.0400   20.2330 C   0  0  0  0  0  0  0  0  0  0  0  0
    5.3160   -4.5600   19.8930 O   0  0  0  0  0  0  0  0  0  0  0  0
    6.9760   -4.2090   21.5000 N   0  0  0  0  0  0  0  0  0  0  0  0
    7.7870   -3.1500   22.0730 C   0  0  0  0  0  0  0  0  0  0  0  0
    7.3600   -2.9270   23.4930 C   0  0  0  0  0  0  0  0  0  0  0  0
    6.0060   -3.5220   23.7490 C   0  0  0  0  0  0  0  0  0  0  0  0
    5.5420   -3.1110   25.0730 C   0  0  0  0  0  0  0  0  0  0  0  0
    4.5140   -2.4090   25.1520 O   0  0  0  0  0  0  0  0  0  0  0  0
    6.1940   -3.4870   26.2350 N   0  0  0  0  0  0  0  0  0  0  0  0
    5.5630   -4.4120   27.1190 C   0  0  0  0  0  0  0  0  0  0  0  0
    5.4110   -3.7890   28.4750 C   0  0  0  0  0  0  0  0  0  0  0  0
    6.4690   -3.1460   29.0270 C   0  0  0  0  0  0  0  0  0  0  0  0
    6.7680   -1.8550   28.6500 C   0  0  0  0  0  0  0  0  0  0  0  0
    4.3720   -2.9230   28.7330 C   0  0  0  0  0  0  0  0  0  0  0  0
    4.0190   -2.6240   30.0390 C   0  0  0  0  0  0  0  0  0  0  0  0
    4.8810   -4.8950   29.3010 N   0  0  0  0  0  0  0  0  0  0  0  0
    5.0180   -6.1980   28.9760 C   0  0  1  0  0  0  0  0  0  0  0  0
    6.4910   -6.4470   29.0310 C   0  0  0  0  0  0  0  0  0  0  0  0
    4.2360   -6.8800   29.8550 C   0  0  0  0  0  0  0  0  0  0  0  0
    2.9280   -7.4910   29.4520 C   0  0  0  0  0  0  0  0  0  0  0  0
    2.0500   -8.2450   30.4100 C   0  0  0  0  0  0  0  0  0  0  0  0
    2.4090   -8.4160   31.7300 C   0  0  0  0  0  0  0  0  0  0  0  0
    3.7330   -7.8200   32.2120 C   0  0  0  0  0  0  0  0  0  0  0  0
    4.5880   -7.0590   31.1830 C   0  0  0  0  0  0  0  0  0  0  0  0
    6.0370   -4.9940   23.5390 C   0  0  0  0  0  0  0  0  0  0  0  0
    6.6350   -5.3820   22.2500 C   0  0  0  0  0  0  0  0  0  0  0  0
  1  2  1  0
  2  3  2  0
  2  4  1  0
  4  5  1  0
  5  6  1  0
  6  7  1  0
  7  8  1  0
  8  9  2  0
  8 10  1  0
 10 11  1  0
 11 12  1  0
 12 13  1  0
 13 14  1  0
 12 15  1  0
 15 16  1  0
 12 17  1  0
 17 18  1  0
 18 19  1  1
 18 20  1  0
 20 21  2  0
 21 22  1  0
 22 23  2  0
 23 24  1  0
 20 25  1  0
 24 25  2  0
  7 26  1  0
  4 27  1  0
 26 27  1  0
M  END
