piperidine-amides-28892-covalent
     RDKit          3D

 22 24  0  0  0  0  0  0  0  0999 V2000
    7.1220   -3.3280   19.2580 C   0  0  0  0  0  0  0  0  0  0  0  0
    6.4070   -4.1100   20.2640 C   0  0  0  0  0  0  0  0  0  0  0  0
    5.3520   -4.6810   19.9370 O   0  0  0  0  0  0  0  0  0  0  0  0
    6.9590   -4.2390   21.5580 N   0  0  0  0  0  0  0  0  0  0  0  0
    6.5970   -5.3740   22.3570 C   0  0  0  0  0  0  0  0  0  0  0  0
    5.8410   -4.8860   23.5540 C   0  0  0  0  0  0  0  0  0  0  0  0
    6.6330   -3.7280   24.1270 C   0  0  0  0  0  0  0  0  0  0  0  0
    5.9060   -3.1570   25.2950 C   0  0  0  0  0  0  0  0  0  0  0  0
    5.1900   -2.1750   25.1440 O   0  0  0  0  0  0  0  0  0  0  0  0
    6.1130   -3.8620   26.4350 N   0  0  0  0  0  0  0  0  0  0  0  0
    5.5880   -5.1040   26.5570 C   0  0  0  0  0  0  0  0  0  0  0  0
    6.0370   -4.8720   27.8900 C   0  0  0  0  0  0  0  0  0  0  0  0
    6.1750   -5.3130   29.2370 C   0  0  0  0  0  0  0  0  0  0  0  0
    5.6590   -6.6020   29.6730 C   0  0  0  0  0  0  0  0  0  0  0  0
    5.6510   -7.4380   31.3850 Br  0  0  0  0  0  0  0  0  0  0  0  0
    5.1650   -7.0080   28.3740 C   0  0  0  0  0  0  0  0  0  0  0  0
    5.5700   -5.7590   27.6940 C   0  0  0  0  0  0  0  0  0  0  0  0
    6.2410   -4.7280   28.5890 C   0  0  0  0  0  0  0  0  0  0  0  0
    5.9640   -3.4080   27.7930 C   0  0  1  0  0  0  0  0  0  0  0  0
    6.8550   -2.2170   28.2110 C   0  0  0  0  0  0  0  0  0  0  0  0
    6.7790   -2.6340   23.1150 C   0  0  0  0  0  0  0  0  0  0  0  0
    7.6360   -3.1200   22.1680 C   0  0  0  0  0  0  0  0  0  0  0  0
  1  2  1  0
  2  3  2  0
  2  4  1  0
  4  5  1  0
  5  6  1  0
  6  7  1  0
  7  8  1  0
  8  9  2  0
  8 10  1  0
 10 11  1  0
 11 12  2  0
 12 13  1  0
 13 14  2  0
 14 15  1  0
 14 16  1  0
 11 17  1  0
 16 17  2  0
 17 18  1  0
 10 19  1  0
 18 19  1  0
 19 20  1  1
  7 21  1  0
  4 22  1  0
 21 22  1  0
M  END
