piperidine-amides-34041-covalent
     RDKit          3D

 26 29  0  0  0  0  0  0  0  0999 V2000
    7.0290   -3.3440   19.3670 C   0  0  0  0  0  0  0  0  0  0  0  0
    6.3590   -4.2130   20.3500 C   0  0  0  0  0  0  0  0  0  0  0  0
    5.3750   -4.8940   19.9930 O   0  0  0  0  0  0  0  0  0  0  0  0
    6.8310   -4.3300   21.6740 N   0  0  0  0  0  0  0  0  0  0  0  0
    6.6410   -5.5990   22.3560 C   0  0  0  0  0  0  0  0  0  0  0  0
    6.2910   -5.3390   23.8380 C   0  0  0  0  0  0  0  0  0  0  0  0
    6.0790   -3.8540   24.0000 C   0  0  0  0  0  0  0  0  0  0  0  0
    5.4900   -3.4730   25.3130 C   0  0  0  0  0  0  0  0  0  0  0  0
    4.6450   -2.5580   25.2910 O   0  0  0  0  0  0  0  0  0  0  0  0
    5.8380   -4.0950   26.5460 N   0  0  0  0  0  0  0  0  0  0  0  0
    6.5470   -3.4190   27.5750 C   0  0  0  0  0  0  0  0  0  0  0  0
    5.8340   -2.8100   28.7530 C   0  0  0  0  0  0  0  0  0  0  0  0
    6.5790   -1.8160   29.3360 C   0  0  0  0  0  0  0  0  0  0  0  0
    6.1880   -1.0850   30.3890 C   0  0  0  0  0  0  0  0  0  0  0  0
    7.2910    0.3030   31.1310 Br  0  0  0  0  0  0  0  0  0  0  0  0
    4.9930   -1.3760   30.8900 C   0  0  0  0  0  0  0  0  0  0  0  0
    4.2120   -2.3410   30.3840 C   0  0  0  0  0  0  0  0  0  0  0  0
    4.3840   -3.3100   29.2080 C   0  0  0  0  0  0  0  0  0  0  0  0
    4.7100   -3.9570   28.2750 O   0  0  0  0  0  0  0  0  0  0  0  0
    5.1090   -5.2890   28.2880 C   0  0  0  0  0  0  0  0  0  0  0  0
    3.9130   -6.1780   28.5800 C   0  0  0  0  0  0  0  0  0  0  0  0
    5.0200   -6.5170   29.5250 C   0  0  0  0  0  0  0  0  0  0  0  0
    6.1130   -5.7570   29.1760 C   0  0  0  0  0  0  0  0  0  0  0  0
    5.4610   -5.4180   26.8840 C   0  0  0  0  0  0  0  0  0  0  0  0
    7.3610   -3.1100   23.7150 C   0  0  0  0  0  0  0  0  0  0  0  0
    7.6410   -3.2710   22.2440 C   0  0  0  0  0  0  0  0  0  0  0  0
  1  2  1  0
  2  3  2  0
  2  4  1  0
  4  5  1  0
  5  6  1  0
  6  7  1  0
  7  8  1  0
  8  9  2  0
  8 10  1  0
 10 11  1  0
 11 12  1  0
 12 13  1  0
 13 14  2  0
 14 15  1  0
 14 16  1  0
 16 17  2  0
 12 18  2  0
 17 18  1  0
 18 19  1  0
 20 19  1  0
 20 21  1  0
 21 22  1  0
 20 23  1  0
 22 23  1  0
 10 24  1  0
 20 24  1  0
  7 25  1  0
  4 26  1  0
 25 26  1  0
M  END
