piperidine-amides-32805-covalent
     RDKit          3D

 25 27  0  0  0  0  0  0  0  0999 V2000
    7.0210   -3.3310   19.3590 C   0  0  0  0  0  0  0  0  0  0  0  0
    6.3480   -4.1980   20.3720 C   0  0  0  0  0  0  0  0  0  0  0  0
    5.3840   -4.8860   19.9940 O   0  0  0  0  0  0  0  0  0  0  0  0
    6.8300   -4.2600   21.7080 N   0  0  0  0  0  0  0  0  0  0  0  0
    6.6410   -5.4620   22.5020 C   0  0  0  0  0  0  0  0  0  0  0  0
    5.9740   -5.0690   23.8320 C   0  0  0  0  0  0  0  0  0  0  0  0
    5.9140   -3.5800   23.8690 C   0  0  0  0  0  0  0  0  0  0  0  0
    5.0330   -3.0150   24.9380 C   0  0  0  0  0  0  0  0  0  0  0  0
    3.9040   -2.7130   24.5590 O   0  0  0  0  0  0  0  0  0  0  0  0
    5.4070   -2.8480   26.2760 N   0  0  0  0  0  0  0  0  0  0  0  0
    5.6490   -1.5900   26.9570 C   0  0  0  0  0  0  0  0  0  0  0  0
    5.8570   -0.3580   26.3540 C   0  0  0  0  0  0  0  0  0  0  0  0
    6.1120    0.8520   27.0560 C   0  0  0  0  0  0  0  0  0  0  0  0
    6.1790    0.8890   28.4300 C   0  0  0  0  0  0  0  0  0  0  0  0
    5.9710   -0.3680   29.1520 C   0  0  0  0  0  0  0  0  0  0  0  0
    5.6900   -1.6340   28.3710 C   0  0  0  0  0  0  0  0  0  0  0  0
    5.5820   -4.1060   27.0040 C   0  0  0  0  0  0  0  0  0  0  0  0
    6.6360   -4.8420   26.6850 C   0  0  0  0  0  0  0  0  0  0  0  0
    6.9580   -6.0750   27.3200 C   0  0  0  0  0  0  0  0  0  0  0  0
    5.8920   -6.3870   28.3760 C   0  0  0  0  0  0  0  0  0  0  0  0
    4.7090   -5.8020   28.8820 C   0  0  0  0  0  0  0  0  0  0  0  0
    3.4750   -6.3780   30.2450 Br  0  0  0  0  0  0  0  0  0  0  0  0
    4.7080   -4.5060   27.9740 C   0  0  0  0  0  0  0  0  0  0  0  0
    7.2550   -2.9390   23.7400 C   0  0  0  0  0  0  0  0  0  0  0  0
    7.6500   -3.1920   22.2780 C   0  0  0  0  0  0  0  0  0  0  0  0
  1  2  1  0
  2  3  2  0
  2  4  1  0
  4  5  1  0
  5  6  1  0
  6  7  1  0
  7  8  1  0
  8  9  2  0
  8 10  1  0
 10 11  1  0
 11 12  2  0
 12 13  1  0
 13 14  2  0
 14 15  1  0
 11 16  1  0
 15 16  2  0
 10 17  1  0
 17 18  2  0
 18 19  1  0
 19 20  2  0
 20 21  1  0
 21 22  1  0
 17 23  1  0
 21 23  2  0
  7 24  1  0
  4 25  1  0
 24 25  1  0
M  END
