piperidine-amides-19036-covalent
     RDKit          3D

 22 24  0  0  0  0  0  0  0  0999 V2000
    7.0370   -3.4120   19.3400 C   0  0  0  0  0  0  0  0  0  0  0  0
    6.3910   -4.2070   20.3590 C   0  0  0  0  0  0  0  0  0  0  0  0
    5.3800   -4.8860   19.9960 O   0  0  0  0  0  0  0  0  0  0  0  0
    6.8500   -4.3140   21.6970 N   0  0  0  0  0  0  0  0  0  0  0  0
    6.5640   -5.5640   22.4280 C   0  0  0  0  0  0  0  0  0  0  0  0
    5.6400   -4.9840   23.5690 C   0  0  0  0  0  0  0  0  0  0  0  0
    6.4540   -3.8970   24.2420 C   0  0  0  0  0  0  0  0  0  0  0  0
    5.7000   -3.2750   25.5200 C   0  0  0  0  0  0  0  0  0  0  0  0
    4.9910   -2.3570   25.1400 O   0  0  0  0  0  0  0  0  0  0  0  0
    5.9840   -3.8680   26.6290 N   0  0  0  0  0  0  0  0  0  0  0  0
    6.2540   -4.6940   27.6470 C   0  0  0  0  0  0  0  0  0  0  0  0
    6.3370   -6.0170   27.8950 C   0  0  0  0  0  0  0  0  0  0  0  0
    5.7420   -6.1870   29.1260 C   0  0  0  0  0  0  0  0  0  0  0  0
    5.9060   -7.3430   30.0250 C   0  0  0  0  0  0  0  0  0  0  0  0
    5.1200   -7.2830   31.3420 C   0  0  0  0  0  0  0  0  0  0  0  0
    4.3210   -6.1580   31.5780 C   0  0  0  0  0  0  0  0  0  0  0  0
    3.9920   -4.9590   30.9190 C   0  0  0  0  0  0  0  0  0  0  0  0
    4.8280   -5.1310   29.6480 C   0  0  0  0  0  0  0  0  0  0  0  0
    4.6760   -3.9090   28.6360 C   0  0  0  0  0  0  0  0  0  0  0  0
    5.7210   -3.3000   27.9440 C   0  0  0  0  0  0  0  0  0  0  0  0
    6.9580   -2.7970   23.3170 C   0  0  0  0  0  0  0  0  0  0  0  0
    7.6960   -3.3200   22.3080 C   0  0  0  0  0  0  0  0  0  0  0  0
  1  2  1  0
  2  3  2  0
  2  4  1  0
  4  5  1  0
  5  6  1  0
  6  7  1  0
  7  8  1  0
  8  9  2  0
  8 10  1  0
 10 11  1  0
 11 12  1  0
 12 13  1  0
 13 14  1  0
 14 15  2  0
 15 16  1  0
 16 17  2  0
 13 18  2  0
 17 18  1  0
 18 19  1  0
 10 20  1  0
 19 20  1  0
  7 21  1  0
  4 22  1  0
 21 22  1  0
M  END
