piperidine-amides-33657-covalent
     RDKit          3D

 29 32  0  0  0  0  0  0  0  0999 V2000
    7.0900   -3.2960   19.2220 C   0  0  0  0  0  0  0  0  0  0  0  0
    6.3530   -4.0770   20.2300 C   0  0  0  0  0  0  0  0  0  0  0  0
    5.2560   -4.5600   19.8800 O   0  0  0  0  0  0  0  0  0  0  0  0
    6.8840   -4.3390   21.5120 N   0  0  0  0  0  0  0  0  0  0  0  0
    6.4450   -5.5240   22.1540 C   0  0  0  0  0  0  0  0  0  0  0  0
    5.8640   -5.2780   23.4590 C   0  0  0  0  0  0  0  0  0  0  0  0
    6.5390   -4.1930   24.1840 C   0  0  0  0  0  0  0  0  0  0  0  0
    5.7360   -3.7960   25.3890 C   0  0  0  0  0  0  0  0  0  0  0  0
    4.4930   -3.7830   25.2980 O   0  0  0  0  0  0  0  0  0  0  0  0
    6.3170   -3.3910   26.6100 N   0  0  0  0  0  0  0  0  0  0  0  0
    6.2130   -4.0280   27.8770 C   0  0  0  0  0  0  0  0  0  0  0  0
    5.7130   -5.3750   28.0680 C   0  0  0  0  0  0  0  0  0  0  0  0
    4.6730   -5.9710   27.1120 C   0  0  0  0  0  0  0  0  0  0  0  0
    4.3490   -7.2300   27.4950 C   0  0  0  0  0  0  0  0  0  0  0  0
    5.2350   -7.3790   28.7240 C   0  0  0  0  0  0  0  0  0  0  0  0
    6.0010   -6.2310   28.9780 O   0  0  0  0  0  0  0  0  0  0  0  0
    6.2610   -2.0150   26.8940 C   0  0  0  0  0  0  0  0  0  0  0  0
    5.7980   -1.2000   26.0170 N   0  0  0  0  0  0  0  0  0  0  0  0
    5.7660    0.0870   26.3910 C   0  0  0  0  0  0  0  0  0  0  0  0
    5.1250    1.1980   25.1800 Cl  0  0  0  0  0  0  0  0  0  0  0  0
    6.2100    0.5460   27.6730 N   0  0  0  0  0  0  0  0  0  0  0  0
    6.7400   -0.2310   28.7160 C   0  0  0  0  0  0  0  0  0  0  0  0
    6.7120    1.1770   29.1490 C   0  0  0  0  0  0  0  0  0  0  0  0
    6.1450    1.9340   28.0170 C   0  0  0  0  0  0  0  0  0  0  0  0
    5.8520    0.9640   26.9360 C   0  0  0  0  0  0  0  0  0  0  0  0
    6.0630   -0.4590   26.9500 C   0  0  0  0  0  0  0  0  0  0  0  0
    6.5910   -1.3220   27.9590 C   0  0  0  0  0  0  0  0  0  0  0  0
    6.7770   -3.0030   23.3190 C   0  0  0  0  0  0  0  0  0  0  0  0
    7.6180   -3.3460   22.2680 C   0  0  0  0  0  0  0  0  0  0  0  0
  1  2  1  0
  2  3  2  0
  2  4  1  0
  4  5  1  0
  5  6  1  0
  6  7  1  0
  7  8  1  0
  8  9  2  0
  8 10  1  0
 10 11  1  0
 11 12  1  0
 12 13  2  0
 13 14  1  0
 14 15  2  0
 12 16  1  0
 15 16  1  0
 10 17  1  0
 17 18  2  0
 18 19  1  0
 19 20  1  0
 19 21  2  0
 21 22  1  0
 22 23  1  0
 23 24  2  0
 24 25  1  0
 25 26  2  0
 17 27  1  0
 22 27  2  0
 26 27  1  0
  7 28  1  0
  4 29  1  0
 28 29  1  0
M  END
