piperidine-amides-29367-covalent
     RDKit          3D

 27 29  0  0  0  0  0  0  0  0999 V2000
    7.1170   -3.2870   19.2650 C   0  0  0  0  0  0  0  0  0  0  0  0
    6.4030   -4.0860   20.2580 C   0  0  0  0  0  0  0  0  0  0  0  0
    5.3260   -4.6060   19.9160 O   0  0  0  0  0  0  0  0  0  0  0  0
    6.9680   -4.3040   21.5430 N   0  0  0  0  0  0  0  0  0  0  0  0
    6.4910   -5.4110   22.3030 C   0  0  0  0  0  0  0  0  0  0  0  0
    5.6470   -4.8780   23.4220 C   0  0  0  0  0  0  0  0  0  0  0  0
    6.5010   -3.9010   24.2160 C   0  0  0  0  0  0  0  0  0  0  0  0
    5.7590   -3.5000   25.4550 C   0  0  0  0  0  0  0  0  0  0  0  0
    4.5600   -3.7730   25.4740 O   0  0  0  0  0  0  0  0  0  0  0  0
    6.4460   -2.8460   26.4750 N   0  0  0  0  0  0  0  0  0  0  0  0
    6.8060   -1.4860   26.2900 C   0  0  0  0  0  0  0  0  0  0  0  0
    5.7420   -0.6540   25.9120 C   0  0  0  0  0  0  0  0  0  0  0  0
    4.4410   -0.9430   26.2870 C   0  0  0  0  0  0  0  0  0  0  0  0
    3.2900   -0.2020   25.9800 C   0  0  0  0  0  0  0  0  0  0  0  0
    3.5190    1.0350   25.1520 C   0  0  0  0  0  0  0  0  0  0  0  0
    4.9540    1.3670   24.7270 C   0  0  0  0  0  0  0  0  0  0  0  0
    6.0100    0.4530   25.1600 C   0  0  0  0  0  0  0  0  0  0  0  0
    6.1890   -3.2970   27.8320 C   0  0  0  0  0  0  0  0  0  0  0  0
    5.7870   -2.0890   28.7270 C   0  0  0  0  0  0  0  0  0  0  0  0
    6.9970   -1.7250   29.2900 C   0  0  0  0  0  0  0  0  0  0  0  0
    6.9560   -0.7090   30.1100 C   0  0  0  0  0  0  0  0  0  0  0  0
    5.7290   -0.3680   30.1200 N   0  0  0  0  0  0  0  0  0  0  0  0
    5.0880   -1.2220   29.2800 N   0  0  0  0  0  0  0  0  0  0  0  0
    3.7660   -0.9680   29.1920 C   0  0  0  0  0  0  0  0  0  0  0  0
    2.8180   -2.0240   28.6920 C   0  0  0  0  0  0  0  0  0  0  0  0
    6.8160   -2.6960   23.3410 C   0  0  0  0  0  0  0  0  0  0  0  0
    7.6620   -3.2010   22.1730 C   0  0  0  0  0  0  0  0  0  0  0  0
  1  2  1  0
  2  3  2  0
  2  4  1  0
  4  5  1  0
  5  6  1  0
  6  7  1  0
  7  8  1  0
  8  9  2  0
  8 10  1  0
 10 11  1  0
 11 12  1  0
 12 13  2  0
 13 14  1  0
 14 15  2  0
 15 16  1  0
 12 17  1  0
 16 17  2  0
 10 18  1  0
 18 19  1  0
 19 20  2  0
 20 21  1  0
 21 22  2  0
 19 23  1  0
 22 23  1  0
 23 24  1  0
 24 25  1  0
  7 26  1  0
  4 27  1  0
 26 27  1  0
M  END
