piperidine-amides-11061-covalent
     RDKit          3D

 20 20  0  0  0  0  0  0  0  0999 V2000
    7.1440   -3.2600   19.1720 C   0  0  0  0  0  0  0  0  0  0  0  0
    6.3830   -3.9930   20.1830 C   0  0  0  0  0  0  0  0  0  0  0  0
    5.2990   -4.5190   19.8750 O   0  0  0  0  0  0  0  0  0  0  0  0
    6.8870   -4.1610   21.4720 N   0  0  0  0  0  0  0  0  0  0  0  0
    7.7460   -3.1810   22.0970 C   0  0  0  0  0  0  0  0  0  0  0  0
    6.9820   -2.7100   23.2910 C   0  0  0  0  0  0  0  0  0  0  0  0
    6.5300   -3.8550   24.1350 C   0  0  0  0  0  0  0  0  0  0  0  0
    5.7320   -3.4020   25.2820 C   0  0  0  0  0  0  0  0  0  0  0  0
    4.5310   -3.0310   25.1290 O   0  0  0  0  0  0  0  0  0  0  0  0
    6.2590   -3.3580   26.5780 N   0  0  0  0  0  0  0  0  0  0  0  0
    5.8570   -4.3890   27.5470 C   0  0  0  0  0  0  0  0  0  0  0  0
    6.3270   -3.9480   28.8680 C   0  0  0  0  0  0  0  0  0  0  0  0
    5.7820   -2.6990   29.4480 C   0  0  0  0  0  0  0  0  0  0  0  0
    5.2520   -1.7120   28.4420 C   0  0  0  0  0  0  0  0  0  0  0  0
    5.2250   -0.3080   29.0160 C   0  0  0  0  0  0  0  0  0  0  0  0
    6.5830    0.2400   28.7900 C   0  0  0  0  0  0  0  0  0  0  0  0
    5.0660   -0.3630   30.4440 F   0  0  0  0  0  0  0  0  0  0  0  0
    4.2910    0.4770   28.4540 F   0  0  0  0  0  0  0  0  0  0  0  0
    5.7430   -4.8540   23.3070 C   0  0  0  0  0  0  0  0  0  0  0  0
    6.4870   -5.3180   22.2250 C   0  0  0  0  0  0  0  0  0  0  0  0
  1  2  1  0
  2  3  2  0
  2  4  1  0
  4  5  1  0
  5  6  1  0
  6  7  1  0
  7  8  1  0
  8  9  2  0
  8 10  1  0
 10 11  1  0
 11 12  1  0
 12 13  1  0
 13 14  1  0
 14 15  1  0
 15 16  1  0
 15 17  1  0
 15 18  1  0
  7 19  1  0
  4 20  1  0
 19 20  1  0
M  END
