piperidine-amides-23339-covalent
     RDKit          3D

 24 27  0  0  0  0  0  0  0  0999 V2000
    7.1050   -3.3460   19.2790 C   0  0  0  0  0  0  0  0  0  0  0  0
    6.4210   -4.1740   20.2860 C   0  0  0  0  0  0  0  0  0  0  0  0
    5.3370   -4.6980   19.9400 O   0  0  0  0  0  0  0  0  0  0  0  0
    6.9890   -4.4360   21.5590 N   0  0  0  0  0  0  0  0  0  0  0  0
    6.3890   -5.4610   22.3320 C   0  0  0  0  0  0  0  0  0  0  0  0
    5.7990   -4.9620   23.5680 C   0  0  0  0  0  0  0  0  0  0  0  0
    6.4260   -3.7170   24.0720 C   0  0  0  0  0  0  0  0  0  0  0  0
    5.5980   -3.0370   25.1240 C   0  0  0  0  0  0  0  0  0  0  0  0
    4.4760   -2.5770   24.8550 O   0  0  0  0  0  0  0  0  0  0  0  0
    6.0930   -2.9630   26.4230 N   0  0  0  0  0  0  0  0  0  0  0  0
    5.2790   -3.1860   27.6010 C   0  0  0  0  0  0  0  0  0  0  0  0
    5.6040   -4.5420   28.0100 C   0  0  0  0  0  0  0  0  0  0  0  0
    4.8900   -5.5070   28.9140 C   0  0  0  0  0  0  0  0  0  0  0  0
    5.9350   -5.8270   29.7700 C   0  0  0  0  0  0  0  0  0  0  0  0
    6.6840   -4.6130   29.0910 C   0  0  0  0  0  0  0  0  0  0  0  0
    6.9130   -4.8490   27.4400 C   0  0  0  0  0  0  0  0  0  0  0  0
    7.8690   -5.9480   27.7380 C   0  0  0  0  0  0  0  0  0  0  0  0
    7.5590   -6.8120   28.7070 F   0  0  0  0  0  0  0  0  0  0  0  0
    9.1420   -6.0250   26.9130 C   0  0  0  0  0  0  0  0  0  0  0  0
    9.3250   -4.9520   25.8680 C   0  0  0  0  0  0  0  0  0  0  0  0
    8.3130   -3.8390   25.6520 C   0  0  0  0  0  0  0  0  0  0  0  0
    7.1360   -3.9270   26.5280 C   0  0  0  0  0  0  0  0  0  0  0  0
    6.8120   -2.7440   23.0080 C   0  0  0  0  0  0  0  0  0  0  0  0
    7.7380   -3.4120   22.2420 C   0  0  0  0  0  0  0  0  0  0  0  0
  1  2  1  0
  2  3  2  0
  2  4  1  0
  4  5  1  0
  5  6  1  0
  6  7  1  0
  7  8  1  0
  8  9  2  0
  8 10  1  0
 10 11  1  0
 12 11  1  0
 12 13  1  0
 13 14  1  0
 12 15  1  0
 14 15  1  0
 12 16  1  0
 16 17  1  0
 17 18  1  0
 17 19  2  0
 19 20  1  0
 20 21  2  0
 10 22  1  0
 16 22  2  0
 21 22  1  0
  7 23  1  0
  4 24  1  0
 23 24  1  0
M  END
