piperidine-amides-13328-covalent
     RDKit          3D

 31 33  0  0  0  0  0  0  0  0999 V2000
    7.0400   -3.3180   19.2910 C   0  0  0  0  0  0  0  0  0  0  0  0
    6.3300   -4.1410   20.2960 C   0  0  0  0  0  0  0  0  0  0  0  0
    5.2690   -4.6620   19.9140 O   0  0  0  0  0  0  0  0  0  0  0  0
    6.8270   -4.3800   21.5910 N   0  0  0  0  0  0  0  0  0  0  0  0
    7.5810   -3.3770   22.2790 C   0  0  0  0  0  0  0  0  0  0  0  0
    7.6440   -3.5290   23.7490 C   0  0  0  0  0  0  0  0  0  0  0  0
    6.4200   -4.0570   24.4150 C   0  0  0  0  0  0  0  0  0  0  0  0
    5.7830   -3.0290   25.3290 C   0  0  0  0  0  0  0  0  0  0  0  0
    4.5780   -3.1940   25.6080 O   0  0  0  0  0  0  0  0  0  0  0  0
    6.5050   -1.8800   25.8650 N   0  0  0  0  0  0  0  0  0  0  0  0
    6.1490   -1.1260   27.1420 C   0  0  0  0  0  0  0  0  0  0  0  0
    5.8150   -0.1490   26.1120 C   0  0  0  0  0  0  0  0  0  0  0  0
    6.3040   -1.2550   25.3760 N   0  0  0  0  0  0  0  0  0  0  0  0
    6.3860   -1.2240   23.9170 C   0  0  0  0  0  0  0  0  0  0  0  0
    6.2810    0.1250   23.5990 C   0  0  0  0  0  0  0  0  0  0  0  0
    5.1430    0.5010   23.2350 O   0  0  0  0  0  0  0  0  0  0  0  0
    4.8850    1.7440   23.5480 C   0  0  0  0  0  0  0  0  0  0  0  0
    4.5870    2.6650   22.5910 C   0  0  0  0  0  0  0  0  0  0  0  0
    5.5140    2.9510   21.6200 F   0  0  0  0  0  0  0  0  0  0  0  0
    4.3470    3.8810   23.2720 F   0  0  0  0  0  0  0  0  0  0  0  0
    3.3970    2.3450   22.0270 F   0  0  0  0  0  0  0  0  0  0  0  0
    6.7250   -2.4040   25.9730 N   0  0  0  0  0  0  0  0  0  0  0  0
    6.6410   -2.4000   27.4600 C   0  0  0  0  0  0  0  0  0  0  0  0
    6.3390   -1.7750   28.6410 C   0  0  0  0  0  0  0  0  0  0  0  0
    7.4050   -1.2450   29.3910 C   0  0  0  0  0  0  0  0  0  0  0  0
    7.2560   -0.5300   30.6790 C   0  0  0  0  0  0  0  0  0  0  0  0
    5.8440   -0.4010   31.1540 C   0  0  0  0  0  0  0  0  0  0  0  0
    4.8080   -1.0070   30.2710 C   0  0  0  0  0  0  0  0  0  0  0  0
    5.0640   -1.6350   29.1180 N   0  0  0  0  0  0  0  0  0  0  0  0
    5.4790   -4.7180   23.5040 C   0  0  0  0  0  0  0  0  0  0  0  0
    6.2290   -5.4180   22.3910 C   0  0  0  0  0  0  0  0  0  0  0  0
  1  2  1  0
  2  3  2  0
  2  4  1  0
  4  5  1  0
  5  6  1  0
  6  7  1  0
  7  8  1  0
  8  9  2  0
  8 10  1  0
 10 11  1  0
 11 12  2  0
 12 13  1  0
 13 14  1  0
 14 15  1  0
 15 16  1  0
 16 17  1  0
 17 18  1  0
 18 19  1  0
 18 20  1  0
 18 21  1  0
 13 22  1  0
 11 23  1  0
 22 23  2  0
 23 24  1  0
 24 25  2  0
 25 26  1  0
 26 27  2  0
 27 28  1  0
 24 29  1  0
 28 29  2  0
  7 30  1  0
  4 31  1  0
 30 31  1  0
M  END
