piperidine-amides-5492-covalent
     RDKit          3D

 20 21  0  0  0  0  0  0  0  0999 V2000
    7.1370   -3.2660   19.1960 C   0  0  0  0  0  0  0  0  0  0  0  0
    6.3750   -4.0220   20.1940 C   0  0  0  0  0  0  0  0  0  0  0  0
    5.2850   -4.5240   19.8730 O   0  0  0  0  0  0  0  0  0  0  0  0
    6.8730   -4.2440   21.4830 N   0  0  0  0  0  0  0  0  0  0  0  0
    6.5150   -5.4110   22.2490 C   0  0  0  0  0  0  0  0  0  0  0  0
    5.7810   -4.8780   23.4500 C   0  0  0  0  0  0  0  0  0  0  0  0
    6.5500   -3.7870   24.1340 C   0  0  0  0  0  0  0  0  0  0  0  0
    5.8710   -3.2160   25.3170 C   0  0  0  0  0  0  0  0  0  0  0  0
    4.6030   -3.1630   25.3720 O   0  0  0  0  0  0  0  0  0  0  0  0
    6.5940   -2.7030   26.4080 N   0  0  0  0  0  0  0  0  0  0  0  0
    6.2330   -3.0280   27.8030 C   0  0  0  0  0  0  0  0  0  0  0  0
    5.5860   -4.3500   27.8500 C   0  0  0  0  0  0  0  0  0  0  0  0
    5.9140   -5.3450   28.8690 C   0  0  0  0  0  0  0  0  0  0  0  0
    5.0610   -6.4750   28.5740 C   0  0  0  0  0  0  0  0  0  0  0  0
    5.1090   -7.7060   29.4330 C   0  0  0  0  0  0  0  0  0  0  0  0
    3.7200   -7.8250   29.9450 C   0  0  0  0  0  0  0  0  0  0  0  0
    4.3300   -6.0680   27.4360 N   0  0  0  0  0  0  0  0  0  0  0  0
    4.6670   -4.8270   27.0560 O   0  0  0  0  0  0  0  0  0  0  0  0
    6.8960   -2.6930   23.1550 C   0  0  0  0  0  0  0  0  0  0  0  0
    7.6590   -3.2090   22.1120 C   0  0  0  0  0  0  0  0  0  0  0  0
  1  2  1  0
  2  3  2  0
  2  4  1  0
  4  5  1  0
  5  6  1  0
  6  7  1  0
  7  8  1  0
  8  9  2  0
  8 10  1  0
 10 11  1  0
 11 12  1  0
 12 13  2  0
 13 14  1  0
 14 15  1  0
 15 16  1  0
 14 17  2  0
 12 18  1  0
 17 18  1  0
  7 19  1  0
  4 20  1  0
 19 20  1  0
M  END
