piperidine-amides-35466-covalent
     RDKit          3D

 27 28  0  0  0  0  0  0  0  0999 V2000
    7.1090   -3.3140   19.2120 C   0  0  0  0  0  0  0  0  0  0  0  0
    6.4180   -4.1170   20.2520 C   0  0  0  0  0  0  0  0  0  0  0  0
    5.3670   -4.6770   19.9350 O   0  0  0  0  0  0  0  0  0  0  0  0
    6.9970   -4.2570   21.5130 N   0  0  0  0  0  0  0  0  0  0  0  0
    7.8490   -3.2370   22.0770 C   0  0  0  0  0  0  0  0  0  0  0  0
    7.1350   -2.6070   23.2150 C   0  0  0  0  0  0  0  0  0  0  0  0
    6.5740   -3.7040   24.1040 C   0  0  0  0  0  0  0  0  0  0  0  0
    5.6360   -3.0480   25.0130 C   0  0  0  0  0  0  0  0  0  0  0  0
    4.5170   -2.6920   24.6180 O   0  0  0  0  0  0  0  0  0  0  0  0
    6.0130   -2.8330   26.3270 N   0  0  0  0  0  0  0  0  0  0  0  0
    5.8030   -3.9390   27.2360 C   0  0  0  0  0  0  0  0  0  0  0  0
    5.6740   -5.1980   26.4080 C   0  0  0  0  0  0  0  0  0  0  0  0
    5.0990   -6.4300   26.1950 O   0  0  0  0  0  0  0  0  0  0  0  0
    4.8230   -5.3460   27.4820 O   0  0  0  0  0  0  0  0  0  0  0  0
    5.1170   -6.2400   28.4920 C   0  0  0  0  0  0  0  0  0  0  0  0
    6.3820   -6.4930   28.9120 C   0  0  0  0  0  0  0  0  0  0  0  0
    4.4760   -7.6040   28.2760 C   0  0  0  0  0  0  0  0  0  0  0  0
    4.3680   -5.7270   29.6790 C   0  0  0  0  0  0  0  0  0  0  0  0
    6.1480   -1.5190   26.8680 C   0  0  0  0  0  0  0  0  0  0  0  0
    6.0940   -0.1620   26.1970 C   0  0  0  0  0  0  0  0  0  0  0  0
    6.2780    1.0210   27.1020 C   0  0  0  0  0  0  0  0  0  0  0  0
    6.5040    0.8570   28.5530 C   0  0  0  0  0  0  0  0  0  0  0  0
    6.5440   -0.5180   29.1400 C   0  0  0  0  0  0  0  0  0  0  0  0
    6.3450   -1.6460   28.1990 C   0  0  0  0  0  0  0  0  0  0  0  0
    6.3140   -3.6020   28.8080 I   0  0  0  0  0  0  0  0  0  0  0  0
    5.8220   -4.7930   23.3340 C   0  0  0  0  0  0  0  0  0  0  0  0
    6.6330   -5.3550   22.3770 C   0  0  0  0  0  0  0  0  0  0  0  0
  1  2  1  0
  2  3  2  0
  2  4  1  0
  4  5  1  0
  5  6  1  0
  6  7  1  0
  7  8  1  0
  8  9  2  0
  8 10  1  0
 10 11  1  0
 11 12  1  0
 12 13  2  0
 12 14  1  0
 15 14  1  0
 15 16  1  0
 15 17  1  0
 15 18  1  0
 10 19  1  0
 19 20  2  0
 20 21  1  0
 21 22  2  0
 22 23  1  0
 19 24  1  0
 23 24  2  0
 24 25  1  0
  7 26  1  0
  4 27  1  0
 26 27  1  0
M  END
