piperidine-amides-649-covalent
     RDKit          3D

 26 28  0  0  0  0  0  0  0  0999 V2000
    7.0840   -3.3620   19.3020 C   0  0  0  0  0  0  0  0  0  0  0  0
    6.3400   -4.0600   20.3270 C   0  0  0  0  0  0  0  0  0  0  0  0
    5.3120   -4.7000   19.9480 O   0  0  0  0  0  0  0  0  0  0  0  0
    6.7300   -4.1200   21.6860 N   0  0  0  0  0  0  0  0  0  0  0  0
    7.7500   -3.1190   22.1370 C   0  0  0  0  0  0  0  0  0  0  0  0
    7.5720   -3.0160   23.7110 C   0  0  0  0  0  0  0  0  0  0  0  0
    6.3430   -3.8110   24.0550 C   0  0  0  0  0  0  0  0  0  0  0  0
    5.8310   -3.6910   25.5570 C   0  0  0  0  0  0  0  0  0  0  0  0
    5.2020   -4.6910   25.8390 O   0  0  0  0  0  0  0  0  0  0  0  0
    6.1570   -2.5950   26.1070 N   0  0  0  0  0  0  0  0  0  0  0  0
    6.2750   -1.4140   26.7750 C   0  0  0  0  0  0  0  0  0  0  0  0
    5.9750   -0.1080   26.4950 C   0  0  0  0  0  0  0  0  0  0  0  0
    6.1600    0.9870   27.3680 C   0  0  0  0  0  0  0  0  0  0  0  0
    6.6990    0.9390   28.7310 C   0  0  0  0  0  0  0  0  0  0  0  0
    7.0030   -0.5410   28.9430 C   0  0  0  0  0  0  0  0  0  0  0  0
    7.5070   -0.4770   30.2480 C   0  0  0  0  0  0  0  0  0  0  0  0
    6.4950   -0.3250   31.2140 N   0  0  0  0  0  0  0  0  0  0  0  0
    6.6280    0.5560   32.3610 C   0  0  0  0  0  0  0  0  0  0  0  0
    7.8070    1.0850   32.7860 O   0  0  0  0  0  0  0  0  0  0  0  0
    5.2380    0.7330   32.9390 C   0  0  0  0  0  0  0  0  0  0  0  0
    4.4330   -0.0790   32.1080 N   0  0  0  0  0  0  0  0  0  0  0  0
    5.2170   -0.7670   31.1000 C   0  0  0  0  0  0  0  0  0  0  0  0
    4.7610   -1.6190   30.2960 O   0  0  0  0  0  0  0  0  0  0  0  0
    6.8720   -1.7200   28.1710 C   0  0  0  0  0  0  0  0  0  0  0  0
    6.4010   -5.2670   23.6420 C   0  0  0  0  0  0  0  0  0  0  0  0
    6.6630   -5.4080   22.3290 C   0  0  0  0  0  0  0  0  0  0  0  0
  1  2  1  0
  2  3  2  0
  2  4  1  0
  4  5  1  0
  5  6  1  0
  6  7  1  0
  7  8  1  0
  8  9  2  0
  8 10  1  0
 10 11  1  0
 11 12  2  0
 12 13  1  0
 13 14  2  0
 14 15  1  0
 15 16  1  0
 16 17  1  0
 17 18  1  0
 18 19  2  0
 18 20  1  0
 20 21  1  0
 17 22  1  0
 21 22  1  0
 22 23  2  0
 11 24  1  0
 15 24  2  0
  7 25  1  0
  4 26  1  0
 25 26  1  0
M  END
