piperidine-amides-3506-covalent
     RDKit          3D

 20 21  0  0  0  0  0  0  0  0999 V2000
    7.0530   -3.3260   19.3470 C   0  0  0  0  0  0  0  0  0  0  0  0
    6.3700   -4.1640   20.3330 C   0  0  0  0  0  0  0  0  0  0  0  0
    5.3970   -4.8380   19.9840 O   0  0  0  0  0  0  0  0  0  0  0  0
    6.8560   -4.2300   21.6870 N   0  0  0  0  0  0  0  0  0  0  0  0
    7.7170   -3.1830   22.1870 C   0  0  0  0  0  0  0  0  0  0  0  0
    7.4710   -2.9790   23.6490 C   0  0  0  0  0  0  0  0  0  0  0  0
    6.1010   -3.5550   23.9310 C   0  0  0  0  0  0  0  0  0  0  0  0
    5.6150   -3.1490   25.2830 C   0  0  0  0  0  0  0  0  0  0  0  0
    4.4030   -3.0100   25.5330 O   0  0  0  0  0  0  0  0  0  0  0  0
    6.5570   -2.9120   26.3110 N   0  0  0  0  0  0  0  0  0  0  0  0
    6.5010   -1.6940   27.0940 C   0  0  0  0  0  0  0  0  0  0  0  0
    5.9220   -0.4800   26.4400 C   0  0  0  0  0  0  0  0  0  0  0  0
    5.8460    0.7100   27.1550 C   0  0  0  0  0  0  0  0  0  0  0  0
    6.3110    0.7760   28.4880 C   0  0  0  0  0  0  0  0  0  0  0  0
    6.2270    1.9660   29.1810 C   0  0  0  0  0  0  0  0  0  0  0  0
    6.8410   -0.3620   29.0640 C   0  0  0  0  0  0  0  0  0  0  0  0
    7.3990   -0.2060   30.7350 Cl  0  0  0  0  0  0  0  0  0  0  0  0
    6.9340   -1.5530   28.3940 C   0  0  0  0  0  0  0  0  0  0  0  0
    6.2160   -5.0700   23.8080 C   0  0  0  0  0  0  0  0  0  0  0  0
    6.4710   -5.4040   22.4670 C   0  0  0  0  0  0  0  0  0  0  0  0
  1  2  1  0
  2  3  2  0
  2  4  1  0
  4  5  1  0
  5  6  1  0
  6  7  1  0
  7  8  1  0
  8  9  2  0
  8 10  1  0
 10 11  1  0
 11 12  2  0
 12 13  1  0
 13 14  2  0
 14 15  1  0
 14 16  1  0
 16 17  1  0
 11 18  1  0
 16 18  2  0
  7 19  1  0
  4 20  1  0
 19 20  1  0
M  END
