piperidine-amides-13077-covalent
     RDKit          3D

 20 21  0  0  0  0  0  0  0  0999 V2000
    7.0670   -3.3060   19.2430 C   0  0  0  0  0  0  0  0  0  0  0  0
    6.3700   -4.0850   20.2930 C   0  0  0  0  0  0  0  0  0  0  0  0
    5.3250   -4.6650   19.9330 O   0  0  0  0  0  0  0  0  0  0  0  0
    6.8890   -4.2060   21.5970 N   0  0  0  0  0  0  0  0  0  0  0  0
    6.5810   -5.3650   22.3700 C   0  0  0  0  0  0  0  0  0  0  0  0
    6.0370   -5.0360   23.6880 C   0  0  0  0  0  0  0  0  0  0  0  0
    6.0450   -3.5830   23.9530 C   0  0  0  0  0  0  0  0  0  0  0  0
    5.6080   -3.2510   25.3370 C   0  0  0  0  0  0  0  0  0  0  0  0
    4.3870   -3.1100   25.5200 O   0  0  0  0  0  0  0  0  0  0  0  0
    6.5010   -3.0820   26.4140 N   0  0  0  0  0  0  0  0  0  0  0  0
    6.2160   -3.5540   27.7970 C   0  0  0  0  0  0  0  0  0  0  0  0
    5.0000   -4.4210   27.8830 C   0  0  0  0  0  0  0  0  0  0  0  0
    5.0050   -5.7160   27.2120 C   0  0  0  0  0  0  0  0  0  0  0  0
    4.3900   -6.2510   28.4240 N   0  0  0  0  0  0  0  0  0  0  0  0
    4.9210   -7.2100   29.3170 C   0  0  0  0  0  0  0  0  0  0  0  0
    6.2600   -7.2350   29.5770 C   0  0  0  0  0  0  0  0  0  0  0  0
    4.1600   -8.0200   29.8710 O   0  0  0  0  0  0  0  0  0  0  0  0
    4.4620   -5.0150   28.9720 C   0  0  0  0  0  0  0  0  0  0  0  0
    7.2900   -2.8710   23.5220 C   0  0  0  0  0  0  0  0  0  0  0  0
    7.6940   -3.1930   22.2510 C   0  0  0  0  0  0  0  0  0  0  0  0
  1  2  1  0
  2  3  2  0
  2  4  1  0
  4  5  1  0
  5  6  1  0
  6  7  1  0
  7  8  1  0
  8  9  2  0
  8 10  1  0
 10 11  1  0
 11 12  1  0
 12 13  1  0
 13 14  1  0
 14 15  1  0
 15 16  1  0
 15 17  2  0
 12 18  1  0
 14 18  1  0
  7 19  1  0
  4 20  1  0
 19 20  1  0
M  END
