piperidine-amides-25106-covalent
     RDKit          3D

 25 27  0  0  0  0  0  0  0  0999 V2000
    7.0870   -3.2670   19.2620 C   0  0  0  0  0  0  0  0  0  0  0  0
    6.3390   -4.0640   20.2690 C   0  0  0  0  0  0  0  0  0  0  0  0
    5.2920   -4.5870   19.8970 O   0  0  0  0  0  0  0  0  0  0  0  0
    6.8480   -4.2410   21.5620 N   0  0  0  0  0  0  0  0  0  0  0  0
    6.5940   -5.4360   22.3140 C   0  0  0  0  0  0  0  0  0  0  0  0
    5.9330   -5.0700   23.6120 C   0  0  0  0  0  0  0  0  0  0  0  0
    6.6780   -3.9150   24.2860 C   0  0  0  0  0  0  0  0  0  0  0  0
    5.8040   -3.3790   25.3510 C   0  0  0  0  0  0  0  0  0  0  0  0
    4.6560   -3.0160   25.0570 O   0  0  0  0  0  0  0  0  0  0  0  0
    6.2420   -3.2630   26.6840 N   0  0  0  0  0  0  0  0  0  0  0  0
    6.5000   -1.9420   27.2310 C   0  0  0  0  0  0  0  0  0  0  0  0
    5.2460   -1.5200   27.9540 C   0  0  0  0  0  0  0  0  0  0  0  0
    4.7670   -2.4330   28.8730 C   0  0  0  0  0  0  0  0  0  0  0  0
    3.6890   -2.2550   29.6050 C   0  0  0  0  0  0  0  0  0  0  0  0
    3.0500   -1.1210   29.4230 C   0  0  0  0  0  0  0  0  0  0  0  0
    3.4350   -0.0310   28.4720 C   0  0  0  0  0  0  0  0  0  0  0  0
    4.6740   -0.1620   27.5870 C   0  0  0  0  0  0  0  0  0  0  0  0
    6.7060   -4.4100   27.4380 C   0  0  0  0  0  0  0  0  0  0  0  0
    5.7040   -5.4820   27.7070 C   0  0  0  0  0  0  0  0  0  0  0  0
    4.8750   -6.2130   26.7240 C   0  0  0  0  0  0  0  0  0  0  0  0
    4.0490   -7.1810   27.4800 C   0  0  0  0  0  0  0  0  0  0  0  0
    4.4260   -6.9780   28.8920 C   0  0  0  0  0  0  0  0  0  0  0  0
    5.4240   -5.9490   29.0310 O   0  0  0  0  0  0  0  0  0  0  0  0
    6.9410   -2.7800   23.3020 C   0  0  0  0  0  0  0  0  0  0  0  0
    7.6560   -3.2210   22.2140 C   0  0  0  0  0  0  0  0  0  0  0  0
  1  2  1  0
  2  3  2  0
  2  4  1  0
  4  5  1  0
  5  6  1  0
  6  7  1  0
  7  8  1  0
  8  9  2  0
  8 10  1  0
 10 11  1  0
 11 12  1  0
 12 13  2  0
 13 14  1  0
 14 15  2  0
 15 16  1  0
 12 17  1  0
 16 17  2  0
 10 18  1  0
 18 19  1  0
 19 20  2  0
 20 21  1  0
 21 22  2  0
 19 23  1  0
 22 23  1  0
  7 24  1  0
  4 25  1  0
 24 25  1  0
M  END
