piperidine-amides-68-covalent
     RDKit          3D

 20 21  0  0  0  0  0  0  0  0999 V2000
    7.1940   -3.3180   19.3560 C   0  0  0  0  0  0  0  0  0  0  0  0
    6.4210   -4.0740   20.3110 C   0  0  0  0  0  0  0  0  0  0  0  0
    5.3440   -4.6310   19.9220 O   0  0  0  0  0  0  0  0  0  0  0  0
    6.8640   -4.2380   21.6370 N   0  0  0  0  0  0  0  0  0  0  0  0
    6.4120   -5.4330   22.3710 C   0  0  0  0  0  0  0  0  0  0  0  0
    5.4550   -4.7350   23.4120 C   0  0  0  0  0  0  0  0  0  0  0  0
    6.3140   -3.7470   24.1810 C   0  0  0  0  0  0  0  0  0  0  0  0
    5.5280   -3.3370   25.5040 C   0  0  0  0  0  0  0  0  0  0  0  0
    4.9380   -2.2810   25.3390 O   0  0  0  0  0  0  0  0  0  0  0  0
    5.7080   -4.2210   26.3980 N   0  0  0  0  0  0  0  0  0  0  0  0
    5.8340   -5.1570   27.3860 C   0  0  0  0  0  0  0  0  0  0  0  0
    5.2200   -5.7440   28.4490 C   0  0  2  0  0  0  0  0  0  0  0  0
    6.0740   -6.3180   29.3850 C   0  0  0  0  0  0  0  0  0  0  0  0
    5.5400   -7.6360   29.5720 C   0  0  1  0  0  0  0  0  0  0  0  0
    4.8770   -7.7050   30.7970 O   0  0  0  0  0  0  0  0  0  0  0  0
    4.7680   -7.2330   28.2750 C   0  0  0  0  0  0  0  0  0  0  0  0
    3.6650   -7.5780   29.0650 C   0  0  0  0  0  0  0  0  0  0  0  0
    3.3580   -7.4110   27.7490 C   0  0  0  0  0  0  0  0  0  0  0  0
    6.9630   -2.6970   23.4430 C   0  0  0  0  0  0  0  0  0  0  0  0
    7.7640   -3.3840   22.3030 C   0  0  0  0  0  0  0  0  0  0  0  0
  1  2  1  0
  2  3  2  0
  2  4  1  0
  4  5  1  0
  5  6  1  0
  6  7  1  0
  7  8  1  0
  8  9  2  0
  8 10  1  0
 10 11  1  0
 12 11  1  6
 12 13  1  0
 13 14  1  0
 14 15  1  1
 12 16  1  0
 14 16  1  0
 16 17  1  0
 16 18  1  0
  7 19  1  0
  4 20  1  0
 19 20  1  0
M  END
