piperidine-amides-14693-covalent
     RDKit          3D

 22 23  0  0  0  0  0  0  0  0999 V2000
    7.1010   -3.3120   19.2810 C   0  0  0  0  0  0  0  0  0  0  0  0
    6.3520   -4.0590   20.2880 C   0  0  0  0  0  0  0  0  0  0  0  0
    5.3110   -4.6340   19.9220 O   0  0  0  0  0  0  0  0  0  0  0  0
    6.8360   -4.1530   21.6210 N   0  0  0  0  0  0  0  0  0  0  0  0
    7.7000   -3.1080   22.1380 C   0  0  0  0  0  0  0  0  0  0  0  0
    7.4100   -2.8220   23.5900 C   0  0  0  0  0  0  0  0  0  0  0  0
    6.0840   -3.4730   23.8830 C   0  0  0  0  0  0  0  0  0  0  0  0
    5.5960   -3.1990   25.2810 C   0  0  0  0  0  0  0  0  0  0  0  0
    4.4090   -2.9050   25.3760 O   0  0  0  0  0  0  0  0  0  0  0  0
    6.4730   -3.2730   26.3570 N   0  0  0  0  0  0  0  0  0  0  0  0
    6.1340   -3.9500   27.5800 C   0  0  0  0  0  0  0  0  0  0  0  0
    5.7270   -5.2940   27.4470 C   0  0  0  0  0  0  0  0  0  0  0  0
    4.8130   -5.6310   26.4720 C   0  0  0  0  0  0  0  0  0  0  0  0
    3.8700   -6.6160   26.7170 C   0  0  0  0  0  0  0  0  0  0  0  0
    3.2840   -6.9420   27.9580 N   0  0  0  0  0  0  0  0  0  0  0  0
    2.4640   -7.9240   27.6990 N   0  0  0  0  0  0  0  0  0  0  0  0
    2.4670   -8.2880   26.3280 C   0  0  0  0  0  0  0  0  0  0  0  0
    1.5930   -9.5050   25.4600 S   0  0  0  0  0  0  0  0  0  0  0  0
    3.3470   -7.4440   25.7630 N   0  0  0  0  0  0  0  0  0  0  0  0
    3.6790   -7.3990   24.4640 C   0  0  0  0  0  0  0  0  0  0  0  0
    6.1030   -4.9430   23.6890 C   0  0  0  0  0  0  0  0  0  0  0  0
    6.5420   -5.3580   22.3210 C   0  0  0  0  0  0  0  0  0  0  0  0
  1  2  1  0
  2  3  2  0
  2  4  1  0
  4  5  1  0
  5  6  1  0
  6  7  1  0
  7  8  1  0
  8  9  2  0
  8 10  1  0
 10 11  1  0
 11 12  1  0
 12 13  1  0
 13 14  1  0
 14 15  2  0
 15 16  1  0
 16 17  2  0
 17 18  1  0
 14 19  1  0
 17 19  1  0
 19 20  1  0
  7 21  1  0
  4 22  1  0
 21 22  1  0
M  END
