piperidine-amides-32855-covalent
     RDKit          3D

 29 32  0  0  0  0  0  0  0  0999 V2000
    7.0320   -3.3700   19.4110 C   0  0  0  0  0  0  0  0  0  0  0  0
    6.3730   -4.2820   20.3870 C   0  0  0  0  0  0  0  0  0  0  0  0
    5.3860   -4.9320   20.0010 O   0  0  0  0  0  0  0  0  0  0  0  0
    6.9020   -4.4240   21.6960 N   0  0  0  0  0  0  0  0  0  0  0  0
    6.5390   -5.5110   22.5590 C   0  0  0  0  0  0  0  0  0  0  0  0
    5.5630   -4.9340   23.6000 C   0  0  0  0  0  0  0  0  0  0  0  0
    6.1930   -3.7760   24.3360 C   0  0  0  0  0  0  0  0  0  0  0  0
    5.2540   -3.1420   25.3350 C   0  0  0  0  0  0  0  0  0  0  0  0
    4.5870   -2.2080   24.9020 O   0  0  0  0  0  0  0  0  0  0  0  0
    5.1280   -3.5910   26.6760 N   0  0  0  0  0  0  0  0  0  0  0  0
    4.8490   -2.8460   27.8180 C   0  0  0  0  0  0  0  0  0  0  0  0
    5.4910   -3.2550   28.9740 C   0  0  0  0  0  0  0  0  0  0  0  0
    5.6440   -4.6350   29.2410 C   0  0  0  0  0  0  0  0  0  0  0  0
    4.5600   -5.3290   29.7530 C   0  0  1  0  0  0  0  0  0  0  0  0
    3.5260   -5.7550   28.7710 C   0  0  0  0  0  0  0  0  0  0  0  0
    3.1510   -7.1840   29.1220 C   0  0  0  0  0  0  0  0  0  0  0  0
    3.9630   -7.4450   30.2640 N   0  0  0  0  0  0  0  0  0  0  0  0
    3.4080   -7.9810   31.4620 C   0  0  0  0  0  0  0  0  0  0  0  0
    2.1490   -8.3870   31.5370 C   0  0  0  0  0  0  0  0  0  0  0  0
    1.5410   -8.9480   32.7430 C   0  0  0  0  0  0  0  0  0  0  0  0
    2.6270   -8.9640   33.8590 C   0  0  0  0  0  0  0  0  0  0  0  0
    2.1250   -9.4790   35.0250 F   0  0  0  0  0  0  0  0  0  0  0  0
    3.9960   -8.5880   33.9830 C   0  0  0  0  0  0  0  0  0  0  0  0
    4.2120   -8.0700   32.5320 C   0  0  0  0  0  0  0  0  0  0  0  0
    4.8750   -6.3660   30.6170 C   0  0  0  0  0  0  0  0  0  0  0  0
    6.0430   -5.4260   28.0160 C   0  0  0  0  0  0  0  0  0  0  0  0
    6.1350   -4.4840   26.8790 C   0  0  0  0  0  0  0  0  0  0  0  0
    6.8210   -2.7520   23.3880 C   0  0  0  0  0  0  0  0  0  0  0  0
    7.5410   -3.3060   22.3640 C   0  0  0  0  0  0  0  0  0  0  0  0
  1  2  1  0
  2  3  2  0
  2  4  1  0
  4  5  1  0
  5  6  1  0
  6  7  1  0
  7  8  1  0
  8  9  2  0
  8 10  1  0
 10 11  1  0
 11 12  1  0
 12 13  1  0
 14 13  1  6
 14 15  1  0
 15 16  1  0
 16 17  1  0
 17 18  1  0
 18 19  2  0
 19 20  1  0
 20 21  2  0
 21 22  1  0
 21 23  1  0
 18 24  1  0
 23 24  2  0
 14 25  1  0
 17 25  1  0
 13 26  1  0
 10 27  1  0
 26 27  1  0
  7 28  1  0
  4 29  1  0
 28 29  1  0
M  END
