piperidine-amides-1637-covalent
     RDKit          3D

 21 23  0  0  0  0  0  0  0  0999 V2000
    7.0610   -3.3240   19.3360 C   0  0  0  0  0  0  0  0  0  0  0  0
    6.3590   -4.1840   20.3300 C   0  0  0  0  0  0  0  0  0  0  0  0
    5.3530   -4.8160   19.9690 O   0  0  0  0  0  0  0  0  0  0  0  0
    6.8690   -4.3070   21.6440 N   0  0  0  0  0  0  0  0  0  0  0  0
    6.6950   -5.5470   22.3610 C   0  0  0  0  0  0  0  0  0  0  0  0
    6.2130   -5.2200   23.7790 C   0  0  0  0  0  0  0  0  0  0  0  0
    6.2050   -3.7360   23.9190 C   0  0  0  0  0  0  0  0  0  0  0  0
    5.7250   -3.2760   25.2390 C   0  0  0  0  0  0  0  0  0  0  0  0
    4.5420   -3.5250   25.5010 O   0  0  0  0  0  0  0  0  0  0  0  0
    6.5620   -2.5850   26.1170 N   0  0  0  0  0  0  0  0  0  0  0  0
    6.1200   -1.5650   26.9990 C   0  0  2  0  0  0  0  0  0  0  0  0
    5.9010   -0.2680   26.6240 C   0  0  0  0  0  0  0  0  0  0  0  0
    6.1600    0.6620   27.6520 C   0  0  0  0  0  0  0  0  0  0  0  0
    6.7750   -0.1580   28.7000 N   0  0  0  0  0  0  0  0  0  0  0  0
    6.6490   -0.0420   30.0490 C   0  0  0  0  0  0  0  0  0  0  0  0
    5.4710   -0.1700   30.6860 C   0  0  0  0  0  0  0  0  0  0  0  0
    6.1970    1.2020   30.7430 C   0  0  0  0  0  0  0  0  0  0  0  0
    6.7080   -1.4980   28.2530 C   0  0  0  0  0  0  0  0  0  0  0  0
    7.1290   -2.6020   28.9620 O   0  0  0  0  0  0  0  0  0  0  0  0
    7.5970   -3.1900   23.6180 C   0  0  0  0  0  0  0  0  0  0  0  0
    7.6610   -3.1930   22.1380 C   0  0  0  0  0  0  0  0  0  0  0  0
  1  2  1  0
  2  3  2  0
  2  4  1  0
  4  5  1  0
  5  6  1  0
  6  7  1  0
  7  8  1  0
  8  9  2  0
  8 10  1  0
 11 10  1  6
 11 12  1  0
 12 13  1  0
 13 14  1  0
 14 15  1  0
 15 16  1  0
 15 17  1  0
 16 17  1  0
 11 18  1  0
 14 18  1  0
 18 19  2  0
  7 20  1  0
  4 21  1  0
 20 21  1  0
M  END
