piperidine-amides-11569-covalent
     RDKit          3D

 23 25  0  0  0  0  0  0  0  0999 V2000
    7.1230   -3.2670   19.1900 C   0  0  0  0  0  0  0  0  0  0  0  0
    6.3690   -3.9870   20.2190 C   0  0  0  0  0  0  0  0  0  0  0  0
    5.3230   -4.5770   19.9020 O   0  0  0  0  0  0  0  0  0  0  0  0
    6.8380   -4.0680   21.5430 N   0  0  0  0  0  0  0  0  0  0  0  0
    7.8060   -3.1120   22.0540 C   0  0  0  0  0  0  0  0  0  0  0  0
    7.4940   -2.9510   23.5080 C   0  0  0  0  0  0  0  0  0  0  0  0
    6.1280   -3.4730   23.7920 C   0  0  0  0  0  0  0  0  0  0  0  0
    5.6230   -3.0950   25.1310 C   0  0  0  0  0  0  0  0  0  0  0  0
    4.4550   -2.6300   25.2600 O   0  0  0  0  0  0  0  0  0  0  0  0
    6.4060   -3.2140   26.2920 N   0  0  0  0  0  0  0  0  0  0  0  0
    5.8030   -3.3470   27.6350 C   0  0  0  0  0  0  0  0  0  0  0  0
    4.7860   -4.4420   27.6600 C   0  0  0  0  0  0  0  0  0  0  0  0
    3.3660   -4.0820   27.4610 C   0  0  0  0  0  0  0  0  0  0  0  0
    2.8170   -5.1780   27.2100 O   0  0  0  0  0  0  0  0  0  0  0  0
    2.9020   -6.1170   28.2440 C   0  0  0  0  0  0  0  0  0  0  0  0
    3.6120   -5.4680   29.4110 C   0  0  0  0  0  0  0  0  0  0  0  0
    4.8630   -4.8840   28.9160 N   0  0  0  0  0  0  0  0  0  0  0  0
    5.9240   -5.7270   29.3890 C   0  0  0  0  0  0  0  0  0  0  0  0
    6.2280   -6.6110   28.4000 C   0  0  0  0  0  0  0  0  0  0  0  0
    6.2570   -6.2780   27.1980 O   0  0  0  0  0  0  0  0  0  0  0  0
    5.2070   -5.5260   26.7290 C   0  0  0  0  0  0  0  0  0  0  0  0
    6.0410   -4.9980   23.6190 C   0  0  0  0  0  0  0  0  0  0  0  0
    6.6390   -5.3180   22.2400 C   0  0  0  0  0  0  0  0  0  0  0  0
  1  2  1  0
  2  3  2  0
  2  4  1  0
  4  5  1  0
  5  6  1  0
  6  7  1  0
  7  8  1  0
  8  9  2  0
  8 10  1  0
 10 11  1  0
 12 11  1  0
 12 13  1  0
 13 14  1  0
 14 15  1  0
 15 16  1  0
 12 17  1  0
 16 17  1  0
 17 18  1  0
 18 19  1  0
 19 20  1  0
 12 21  1  0
 20 21  1  0
  7 22  1  0
  4 23  1  0
 22 23  1  0
M  END
