piperidine-amides-11498-covalent
     RDKit          3D

 23 25  0  0  0  0  0  0  0  0999 V2000
    7.0960   -3.2900   19.2550 C   0  0  0  0  0  0  0  0  0  0  0  0
    6.3390   -4.0700   20.2360 C   0  0  0  0  0  0  0  0  0  0  0  0
    5.2710   -4.5990   19.8950 O   0  0  0  0  0  0  0  0  0  0  0  0
    6.8180   -4.2860   21.5300 N   0  0  0  0  0  0  0  0  0  0  0  0
    7.6850   -3.3400   22.2080 C   0  0  0  0  0  0  0  0  0  0  0  0
    7.0210   -3.0030   23.5080 C   0  0  0  0  0  0  0  0  0  0  0  0
    6.4990   -4.2270   24.1970 C   0  0  0  0  0  0  0  0  0  0  0  0
    5.6880   -3.8950   25.3840 C   0  0  0  0  0  0  0  0  0  0  0  0
    4.4920   -4.2920   25.4840 O   0  0  0  0  0  0  0  0  0  0  0  0
    6.1690   -3.0880   26.4210 N   0  0  0  0  0  0  0  0  0  0  0  0
    6.0310   -1.6630   26.1350 C   0  0  0  0  0  0  0  0  0  0  0  0
    6.0430   -0.1100   26.4870 C   0  0  0  0  0  0  0  0  0  0  0  0
    6.3040    0.9220   27.6960 C   0  0  0  0  0  0  0  0  0  0  0  0
    6.6350    1.5870   29.0780 C   0  0  0  0  0  0  0  0  0  0  0  0
    7.0600    0.8510   30.4340 C   0  0  0  0  0  0  0  0  0  0  0  0
    7.1610   -0.6350   30.4470 C   0  0  0  0  0  0  0  0  0  0  0  0
    6.8580   -1.0560   29.2900 C   0  0  0  0  0  0  0  0  0  0  0  0
    6.6140    0.0750   28.6450 C   0  0  0  0  0  0  0  0  0  0  0  0
    6.3620   -0.4720   27.6380 N   0  0  0  0  0  0  0  0  0  0  0  0
    6.3330   -1.6720   27.4030 C   0  0  0  0  0  0  0  0  0  0  0  0
    6.6020   -3.0700   28.4540 Cl  0  0  0  0  0  0  0  0  0  0  0  0
    5.6780   -5.1370   23.3400 C   0  0  0  0  0  0  0  0  0  0  0  0
    6.5410   -5.5440   22.1850 C   0  0  0  0  0  0  0  0  0  0  0  0
  1  2  1  0
  2  3  2  0
  2  4  1  0
  4  5  1  0
  5  6  1  0
  6  7  1  0
  7  8  1  0
  8  9  2  0
  8 10  1  0
 10 11  1  0
 11 12  2  0
 12 13  1  0
 13 14  2  0
 14 15  1  0
 15 16  2  0
 16 17  1  0
 13 18  1  0
 17 18  2  0
 18 19  1  0
 11 20  1  0
 19 20  2  0
 20 21  1  0
  7 22  1  0
  4 23  1  0
 22 23  1  0
M  END
