piperidine-amides-10670-covalent
     RDKit          3D

 23 24  0  0  0  0  0  0  0  0999 V2000
    7.0730   -3.3050   19.2720 C   0  0  0  0  0  0  0  0  0  0  0  0
    6.3710   -4.0730   20.3050 C   0  0  0  0  0  0  0  0  0  0  0  0
    5.3360   -4.6880   19.9340 O   0  0  0  0  0  0  0  0  0  0  0  0
    6.8720   -4.1370   21.6120 N   0  0  0  0  0  0  0  0  0  0  0  0
    7.7500   -3.1230   22.1610 C   0  0  0  0  0  0  0  0  0  0  0  0
    7.4060   -2.9250   23.6090 C   0  0  0  0  0  0  0  0  0  0  0  0
    6.0640   -3.5300   23.9210 C   0  0  0  0  0  0  0  0  0  0  0  0
    5.6440   -3.2050   25.3070 C   0  0  0  0  0  0  0  0  0  0  0  0
    4.4190   -3.0390   25.5040 O   0  0  0  0  0  0  0  0  0  0  0  0
    6.5160   -3.0690   26.4050 N   0  0  0  0  0  0  0  0  0  0  0  0
    6.2410   -3.7090   27.6750 C   0  0  0  0  0  0  0  0  0  0  0  0
    6.0730   -5.2250   27.5610 C   0  0  0  0  0  0  0  0  0  0  0  0
    5.8180   -5.8160   26.4830 O   0  0  0  0  0  0  0  0  0  0  0  0
    6.2500   -5.8420   28.8860 N   0  0  0  0  0  0  0  0  0  0  0  0
    5.2280   -6.4840   29.4330 C   0  0  0  0  0  0  0  0  0  0  0  0
    4.0570   -6.7240   28.7160 C   0  0  0  0  0  0  0  0  0  0  0  0
    2.9660   -7.3980   29.2910 C   0  0  0  0  0  0  0  0  0  0  0  0
    3.0060   -7.8530   30.5950 C   0  0  0  0  0  0  0  0  0  0  0  0
    1.8090   -8.4900   30.9590 F   0  0  0  0  0  0  0  0  0  0  0  0
    4.1230   -7.6510   31.3390 C   0  0  0  0  0  0  0  0  0  0  0  0
    5.2910   -6.9360   30.7380 C   0  0  0  0  0  0  0  0  0  0  0  0
    6.0860   -5.0120   23.7260 C   0  0  0  0  0  0  0  0  0  0  0  0
    6.5890   -5.3710   22.3440 C   0  0  0  0  0  0  0  0  0  0  0  0
  1  2  1  0
  2  3  2  0
  2  4  1  0
  4  5  1  0
  5  6  1  0
  6  7  1  0
  7  8  1  0
  8  9  2  0
  8 10  1  0
 10 11  1  0
 11 12  1  0
 12 13  2  0
 12 14  1  0
 14 15  1  0
 15 16  2  0
 16 17  1  0
 17 18  2  0
 18 19  1  0
 18 20  1  0
 15 21  1  0
 20 21  2  0
  7 22  1  0
  4 23  1  0
 22 23  1  0
M  END
