piperidine-amides-23907-covalent
     RDKit          3D

 24 25  0  0  0  0  0  0  0  0999 V2000
    7.0810   -3.3050   19.2690 C   0  0  0  0  0  0  0  0  0  0  0  0
    6.3870   -4.0880   20.3090 C   0  0  0  0  0  0  0  0  0  0  0  0
    5.3420   -4.6810   19.9430 O   0  0  0  0  0  0  0  0  0  0  0  0
    6.9000   -4.2130   21.6320 N   0  0  0  0  0  0  0  0  0  0  0  0
    6.5940   -5.3980   22.3660 C   0  0  0  0  0  0  0  0  0  0  0  0
    6.0510   -5.0930   23.6730 C   0  0  0  0  0  0  0  0  0  0  0  0
    6.0880   -3.6490   23.9250 C   0  0  0  0  0  0  0  0  0  0  0  0
    5.5070   -3.2720   25.2660 C   0  0  0  0  0  0  0  0  0  0  0  0
    4.2760   -3.1020   25.3230 O   0  0  0  0  0  0  0  0  0  0  0  0
    6.2340   -3.0980   26.4650 N   0  0  0  0  0  0  0  0  0  0  0  0
    6.6120   -1.8140   26.9450 C   0  0  0  0  0  0  0  0  0  0  0  0
    5.6330   -0.7340   26.9770 C   0  0  0  0  0  0  0  0  0  0  0  0
    5.9220    0.1510   28.2010 C   0  0  0  0  0  0  0  0  0  0  0  0
    4.6880    0.6660   28.5370 O   0  0  0  0  0  0  0  0  0  0  0  0
    5.9880   -4.1190   27.4590 C   0  0  0  0  0  0  0  0  0  0  0  0
    5.6460   -5.4850   26.8320 C   0  0  0  0  0  0  0  0  0  0  0  0
    5.4740   -6.1150   28.1660 C   0  0  0  0  0  0  0  0  0  0  0  0
    4.0130   -6.5350   28.0680 C   0  0  0  0  0  0  0  0  0  0  0  0
    3.3120   -7.2430   29.1900 C   0  0  0  0  0  0  0  0  0  0  0  0
    4.1910   -7.4880   30.4010 C   0  0  0  0  0  0  0  0  0  0  0  0
    5.6730   -7.0520   30.4720 C   0  0  0  0  0  0  0  0  0  0  0  0
    6.2450   -6.3530   29.2770 C   0  0  0  0  0  0  0  0  0  0  0  0
    7.4340   -3.0660   23.6270 C   0  0  0  0  0  0  0  0  0  0  0  0
    7.6510   -3.1280   22.2460 C   0  0  0  0  0  0  0  0  0  0  0  0
  1  2  1  0
  2  3  2  0
  2  4  1  0
  4  5  1  0
  5  6  1  0
  6  7  1  0
  7  8  1  0
  8  9  2  0
  8 10  1  0
 10 11  1  0
 11 12  1  0
 12 13  1  0
 13 14  1  0
 10 15  1  0
 15 16  1  0
 16 17  1  0
 17 18  2  0
 18 19  1  0
 19 20  2  0
 20 21  1  0
 17 22  1  0
 21 22  2  0
  7 23  1  0
  4 24  1  0
 23 24  1  0
M  END
