piperidine-amides-29401-covalent
     RDKit          3D

 27 30  0  0  0  0  0  0  0  0999 V2000
    7.0280   -3.3390   19.3790 C   0  0  0  0  0  0  0  0  0  0  0  0
    6.3880   -4.1980   20.3750 C   0  0  0  0  0  0  0  0  0  0  0  0
    5.4180   -4.8850   19.9970 O   0  0  0  0  0  0  0  0  0  0  0  0
    6.8820   -4.2710   21.7110 N   0  0  0  0  0  0  0  0  0  0  0  0
    7.7180   -3.1930   22.2150 C   0  0  0  0  0  0  0  0  0  0  0  0
    7.4840   -2.9680   23.6850 C   0  0  0  0  0  0  0  0  0  0  0  0
    6.1430   -3.5830   23.9410 C   0  0  0  0  0  0  0  0  0  0  0  0
    5.4950   -3.1080   25.2120 C   0  0  0  0  0  0  0  0  0  0  0  0
    4.3530   -2.6830   25.0600 O   0  0  0  0  0  0  0  0  0  0  0  0
    6.1400   -3.1490   26.4500 N   0  0  0  0  0  0  0  0  0  0  0  0
    6.3230   -1.9310   27.1970 C   0  0  0  0  0  0  0  0  0  0  0  0
    6.9300   -1.7520   28.4490 C   0  0  0  0  0  0  0  0  0  0  0  0
    7.0590   -0.5420   29.1160 C   0  0  0  0  0  0  0  0  0  0  0  0
    6.6070    0.7010   28.6530 C   0  0  0  0  0  0  0  0  0  0  0  0
    5.9430    0.6390   27.3150 C   0  0  0  0  0  0  0  0  0  0  0  0
    5.3560    1.8610   26.5680 C   0  0  0  0  0  0  0  0  0  0  0  0
    6.3320    2.9800   26.5920 C   0  0  0  0  0  0  0  0  0  0  0  0
    5.8060   -0.6350   26.6100 C   0  0  0  0  0  0  0  0  0  0  0  0
    5.6880   -4.2620   27.3160 C   0  0  2  0  0  0  0  0  0  0  0  0
    4.6760   -5.0920   26.8690 C   0  0  0  0  0  0  0  0  0  0  0  0
    3.7500   -5.3750   27.8780 C   0  0  2  0  0  0  0  0  0  0  0  0
    3.0170   -4.1280   28.3530 C   0  0  0  0  0  0  0  0  0  0  0  0
    4.0830   -3.1830   28.7640 C   0  0  0  0  0  0  0  0  0  0  0  0
    5.2840   -4.0550   28.5960 C   0  0  1  0  0  0  0  0  0  0  0  0
    4.7960   -5.4330   29.0440 C   0  0  0  0  0  0  0  0  0  0  0  0
    6.1020   -5.0700   23.8140 C   0  0  0  0  0  0  0  0  0  0  0  0
    6.6620   -5.4810   22.4680 C   0  0  0  0  0  0  0  0  0  0  0  0
  1  2  1  0
  2  3  2  0
  2  4  1  0
  4  5  1  0
  5  6  1  0
  6  7  1  0
  7  8  1  0
  8  9  2  0
  8 10  1  0
 10 11  1  0
 11 12  2  0
 12 13  1  0
 13 14  2  0
 14 15  1  0
 15 16  1  0
 16 17  1  0
 11 18  1  0
 15 18  2  0
 19 10  1  6
 19 20  1  0
 21 20  1  6
 21 22  1  0
 22 23  1  0
 19 24  1  0
 24 23  1  6
 21 25  1  0
 24 25  1  0
  7 26  1  0
  4 27  1  0
 26 27  1  0
M  END
