piperidine-amides-10603-covalent
     RDKit          3D

 23 25  0  0  0  0  0  0  0  0999 V2000
    7.1010   -3.3390   19.3180 C   0  0  0  0  0  0  0  0  0  0  0  0
    6.3650   -4.1180   20.3120 C   0  0  0  0  0  0  0  0  0  0  0  0
    5.3010   -4.6660   19.9280 O   0  0  0  0  0  0  0  0  0  0  0  0
    6.8850   -4.2640   21.5990 N   0  0  0  0  0  0  0  0  0  0  0  0
    7.7140   -3.2530   22.2120 C   0  0  0  0  0  0  0  0  0  0  0  0
    7.0220   -2.7580   23.4450 C   0  0  0  0  0  0  0  0  0  0  0  0
    6.5150   -3.8960   24.2860 C   0  0  0  0  0  0  0  0  0  0  0  0
    5.8490   -3.3760   25.5050 C   0  0  0  0  0  0  0  0  0  0  0  0
    4.6030   -3.2640   25.4860 O   0  0  0  0  0  0  0  0  0  0  0  0
    6.5370   -2.9910   26.6800 N   0  0  0  0  0  0  0  0  0  0  0  0
    6.4410   -1.6460   27.1910 C   0  0  0  0  0  0  0  0  0  0  0  0
    5.8440   -0.5210   26.3350 C   0  0  0  0  0  0  0  0  0  0  0  0
    5.6930    0.8050   26.7210 C   0  0  0  0  0  0  0  0  0  0  0  0
    6.0720    1.2840   27.9580 C   0  0  0  0  0  0  0  0  0  0  0  0
    5.9310    2.5670   28.3550 N   0  0  0  0  0  0  0  0  0  0  0  0
    6.3080    2.9930   29.5560 C   0  0  0  0  0  0  0  0  0  0  0  0
    6.8760    2.1890   30.5260 C   0  0  0  0  0  0  0  0  0  0  0  0
    7.0770    0.8550   30.2560 C   0  0  0  0  0  0  0  0  0  0  0  0
    7.7810   -0.1870   31.4430 Cl  0  0  0  0  0  0  0  0  0  0  0  0
    6.6670    0.3330   28.9050 C   0  0  0  0  0  0  0  0  0  0  0  0
    6.8430   -1.1180   28.4970 C   0  0  0  0  0  0  0  0  0  0  0  0
    5.5960   -4.8300   23.4850 C   0  0  0  0  0  0  0  0  0  0  0  0
    6.4950   -5.4080   22.4070 C   0  0  0  0  0  0  0  0  0  0  0  0
  1  2  1  0
  2  3  2  0
  2  4  1  0
  4  5  1  0
  5  6  1  0
  6  7  1  0
  7  8  1  0
  8  9  2  0
  8 10  1  0
 10 11  1  0
 11 12  2  0
 12 13  1  0
 13 14  2  0
 14 15  1  0
 15 16  2  0
 16 17  1  0
 17 18  2  0
 18 19  1  0
 14 20  1  0
 18 20  1  0
 11 21  1  0
 20 21  2  0
  7 22  1  0
  4 23  1  0
 22 23  1  0
M  END
