piperidine-amides-34189-covalent
     RDKit          3D

 30 31  0  0  0  0  0  0  0  0999 V2000
    7.1240   -3.3240   19.3330 C   0  0  0  0  0  0  0  0  0  0  0  0
    6.4210   -4.1600   20.3170 C   0  0  0  0  0  0  0  0  0  0  0  0
    5.3960   -4.7980   19.9790 O   0  0  0  0  0  0  0  0  0  0  0  0
    6.9240   -4.2870   21.6240 N   0  0  0  0  0  0  0  0  0  0  0  0
    7.6570   -3.1990   22.2280 C   0  0  0  0  0  0  0  0  0  0  0  0
    6.7890   -2.6780   23.3690 C   0  0  0  0  0  0  0  0  0  0  0  0
    6.5520   -3.8250   24.3360 C   0  0  0  0  0  0  0  0  0  0  0  0
    5.6740   -3.3120   25.4070 C   0  0  0  0  0  0  0  0  0  0  0  0
    4.5460   -2.8980   25.0640 O   0  0  0  0  0  0  0  0  0  0  0  0
    6.0830   -3.2740   26.7630 N   0  0  0  0  0  0  0  0  0  0  0  0
    6.7610   -4.3820   27.4120 C   0  0  0  0  0  0  0  0  0  0  0  0
    5.7990   -5.4300   27.9150 C   0  0  0  0  0  0  0  0  0  0  0  0
    4.6590   -5.6960   27.2210 C   0  0  0  0  0  0  0  0  0  0  0  0
    4.5710   -7.0230   26.7750 N   0  0  0  0  0  0  0  0  0  0  0  0
    3.6090   -7.2690   25.7670 C   0  0  0  0  0  0  0  0  0  0  0  0
    2.8600   -6.2330   25.2260 O   0  0  0  0  0  0  0  0  0  0  0  0
    3.3450   -8.5180   25.2820 O   0  0  0  0  0  0  0  0  0  0  0  0
    2.0710   -9.0000   25.4900 C   0  0  0  0  0  0  0  0  0  0  0  0
    1.4150   -8.6580   24.3280 C   0  0  0  0  0  0  0  0  0  0  0  0
    1.7550  -10.4770   25.7620 C   0  0  0  0  0  0  0  0  0  0  0  0
    1.5610   -8.2180   26.6630 C   0  0  0  0  0  0  0  0  0  0  0  0
    6.5250   -2.2660   27.7230 C   0  0  0  0  0  0  0  0  0  0  0  0
    6.3970   -0.8410   27.5070 C   0  0  0  0  0  0  0  0  0  0  0  0
    6.5940    0.4850   27.9720 C   0  0  0  0  0  0  0  0  0  0  0  0
    6.9300    1.5790   28.7210 F   0  0  0  0  0  0  0  0  0  0  0  0
    7.1610    0.0360   29.1220 N   0  0  0  0  0  0  0  0  0  0  0  0
    7.4000   -1.2720   29.5900 C   0  0  0  0  0  0  0  0  0  0  0  0
    7.0930   -2.3760   28.9140 N   0  0  0  0  0  0  0  0  0  0  0  0
    5.8350   -4.9930   23.6660 C   0  0  0  0  0  0  0  0  0  0  0  0
    6.5600   -5.4290   22.4120 C   0  0  0  0  0  0  0  0  0  0  0  0
  1  2  1  0
  2  3  2  0
  2  4  1  0
  4  5  1  0
  5  6  1  0
  6  7  1  0
  7  8  1  0
  8  9  2  0
  8 10  1  0
 10 11  1  0
 11 12  1  0
 12 13  1  0
 13 14  1  0
 14 15  1  0
 15 16  2  0
 15 17  1  0
 18 17  1  0
 18 19  1  0
 18 20  1  0
 18 21  1  0
 10 22  1  0
 22 23  2  0
 23 24  1  0
 24 25  1  0
 24 26  2  0
 26 27  1  0
 22 28  1  0
 27 28  2  0
  7 29  1  0
  4 30  1  0
 29 30  1  0
M  END
