piperidine-amides-331-covalent
     RDKit          3D

 28 31  0  0  0  0  0  0  0  0999 V2000
    7.0390   -3.3480   19.2990 C   0  0  0  0  0  0  0  0  0  0  0  0
    6.3360   -4.0890   20.3260 C   0  0  0  0  0  0  0  0  0  0  0  0
    5.3110   -4.7370   19.9540 O   0  0  0  0  0  0  0  0  0  0  0  0
    6.7410   -4.1950   21.6830 N   0  0  0  0  0  0  0  0  0  0  0  0
    7.7360   -3.1830   22.1940 C   0  0  0  0  0  0  0  0  0  0  0  0
    7.3500   -2.8570   23.7080 C   0  0  0  0  0  0  0  0  0  0  0  0
    6.2280   -3.7790   24.0700 C   0  0  0  0  0  0  0  0  0  0  0  0
    5.4050   -3.4390   25.3900 C   0  0  0  0  0  0  0  0  0  0  0  0
    4.3480   -4.0460   25.3430 O   0  0  0  0  0  0  0  0  0  0  0  0
    5.9790   -2.6260   26.1930 N   0  0  0  0  0  0  0  0  0  0  0  0
    6.3360   -1.7330   27.1600 C   0  0  0  0  0  0  0  0  0  0  0  0
    7.0050   -1.6940   28.3820 C   0  0  0  0  0  0  0  0  0  0  0  0
    7.1630   -0.5100   29.1480 C   0  0  0  0  0  0  0  0  0  0  0  0
    6.6180    0.7580   28.6780 C   0  0  0  0  0  0  0  0  0  0  0  0
    6.6850    2.0010   29.3030 N   0  0  0  0  0  0  0  0  0  0  0  0
    5.9950    2.8200   28.3800 C   0  0  0  0  0  0  0  0  0  0  0  0
    5.8600    4.1790   28.6720 C   0  0  0  0  0  0  0  0  0  0  0  0
    6.8490    5.0330   28.1610 C   0  0  0  0  0  0  0  0  0  0  0  0
    6.0470    5.1170   26.8980 C   0  0  0  0  0  0  0  0  0  0  0  0
    6.7470    6.0310   25.8750 C   0  0  0  0  0  0  0  0  0  0  0  0
    7.9500    6.6280   26.2110 C   0  0  0  0  0  0  0  0  0  0  0  0
    8.6040    6.4640   27.4450 C   0  0  0  0  0  0  0  0  0  0  0  0
    8.0220    5.6550   28.4020 C   0  0  0  0  0  0  0  0  0  0  0  0
    5.5160    2.1520   27.2470 O   0  0  0  0  0  0  0  0  0  0  0  0
    5.9450    0.7730   27.4640 C   0  0  0  0  0  0  0  0  0  0  0  0
    5.7950   -0.3930   26.7220 C   0  0  0  0  0  0  0  0  0  0  0  0
    6.4350   -5.2220   23.8170 C   0  0  0  0  0  0  0  0  0  0  0  0
    6.6720   -5.4550   22.3740 C   0  0  0  0  0  0  0  0  0  0  0  0
  1  2  1  0
  2  3  2  0
  2  4  1  0
  4  5  1  0
  5  6  1  0
  6  7  1  0
  7  8  1  0
  8  9  2  0
  8 10  1  0
 10 11  1  0
 11 12  2  0
 12 13  1  0
 13 14  2  0
 14 15  1  0
 15 16  2  0
 16 17  1  0
 17 18  1  0
 18 19  2  0
 19 20  1  0
 20 21  2  0
 21 22  1  0
 18 23  1  0
 22 23  2  0
 16 24  1  0
 14 25  1  0
 24 25  1  0
 11 26  1  0
 25 26  2  0
  7 27  1  0
  4 28  1  0
 27 28  1  0
M  END
