piperidine-amides-31484-covalent
     RDKit          3D

 27 28  0  0  0  0  0  0  0  0999 V2000
    7.1140   -3.3450   19.2440 C   0  0  0  0  0  0  0  0  0  0  0  0
    6.4090   -4.0570   20.2800 C   0  0  0  0  0  0  0  0  0  0  0  0
    5.3360   -4.6510   19.9430 O   0  0  0  0  0  0  0  0  0  0  0  0
    6.8970   -4.1720   21.6060 N   0  0  0  0  0  0  0  0  0  0  0  0
    6.5920   -5.4030   22.3420 C   0  0  0  0  0  0  0  0  0  0  0  0
    5.5840   -4.7910   23.3810 C   0  0  0  0  0  0  0  0  0  0  0  0
    6.3280   -3.7090   24.1490 C   0  0  0  0  0  0  0  0  0  0  0  0
    5.3770   -3.2240   25.3350 C   0  0  0  0  0  0  0  0  0  0  0  0
    4.2140   -3.3800   24.9980 O   0  0  0  0  0  0  0  0  0  0  0  0
    6.0230   -2.7820   26.3430 N   0  0  0  0  0  0  0  0  0  0  0  0
    6.6040   -1.8310   27.1300 C   0  0  0  0  0  0  0  0  0  0  0  0
    5.9890   -3.8430   27.2820 C   0  0  0  0  0  0  0  0  0  0  0  0
    5.7140   -5.1500   26.7730 C   0  0  2  0  0  0  0  0  0  0  0  0
    4.2810   -5.4930   26.6890 C   0  0  0  0  0  0  0  0  0  0  0  0
    6.3280   -6.1070   27.5980 O   0  0  0  0  0  0  0  0  0  0  0  0
    5.4910   -6.3810   28.6650 C   0  0  0  0  0  0  0  0  0  0  0  0
    4.4480   -7.2570   28.3190 C   0  0  0  0  0  0  0  0  0  0  0  0
    3.3400   -7.8310   29.0510 C   0  0  0  0  0  0  0  0  0  0  0  0
    3.6040   -7.2000   30.4490 C   0  0  0  0  0  0  0  0  0  0  0  0
    2.6330   -7.5390   31.6310 C   0  0  0  0  0  0  0  0  0  0  0  0
    1.6140   -8.4040   31.2210 F   0  0  0  0  0  0  0  0  0  0  0  0
    3.2080   -8.1520   32.6890 F   0  0  0  0  0  0  0  0  0  0  0  0
    1.9550   -6.3840   32.0640 F   0  0  0  0  0  0  0  0  0  0  0  0
    4.7060   -6.2820   30.8050 C   0  0  0  0  0  0  0  0  0  0  0  0
    5.5960   -5.9150   29.8930 C   0  0  0  0  0  0  0  0  0  0  0  0
    6.9340   -2.6010   23.2930 C   0  0  0  0  0  0  0  0  0  0  0  0
    7.6680   -3.1420   22.2600 C   0  0  0  0  0  0  0  0  0  0  0  0
  1  2  1  0
  2  3  2  0
  2  4  1  0
  4  5  1  0
  5  6  1  0
  6  7  1  0
  7  8  1  0
  8  9  2  0
  8 10  1  0
 10 11  1  0
 10 12  1  0
 12 13  1  0
 13 14  1  1
 13 15  1  0
 15 16  1  0
 16 17  2  0
 17 18  1  0
 18 19  2  0
 19 20  1  0
 20 21  1  0
 20 22  1  0
 20 23  1  0
 19 24  1  0
 16 25  1  0
 24 25  2  0
  7 26  1  0
  4 27  1  0
 26 27  1  0
M  END
