piperidine-amides-30145-covalent
     RDKit          3D

 27 29  0  0  0  0  0  0  0  0999 V2000
    7.0650   -3.3490   19.3690 C   0  0  0  0  0  0  0  0  0  0  0  0
    6.3960   -4.2160   20.3360 C   0  0  0  0  0  0  0  0  0  0  0  0
    5.4110   -4.8690   19.9920 O   0  0  0  0  0  0  0  0  0  0  0  0
    6.9160   -4.3400   21.6780 N   0  0  0  0  0  0  0  0  0  0  0  0
    7.7750   -3.2910   22.2080 C   0  0  0  0  0  0  0  0  0  0  0  0
    7.5300   -3.0760   23.6730 C   0  0  0  0  0  0  0  0  0  0  0  0
    6.1780   -3.6790   23.9380 C   0  0  0  0  0  0  0  0  0  0  0  0
    5.5970   -3.2640   25.2450 C   0  0  0  0  0  0  0  0  0  0  0  0
    4.6990   -2.4100   25.2890 O   0  0  0  0  0  0  0  0  0  0  0  0
    6.0160   -3.8240   26.4690 N   0  0  0  0  0  0  0  0  0  0  0  0
    6.4170   -2.8670   27.4400 C   0  0  0  0  0  0  0  0  0  0  0  0
    6.6710   -3.6050   28.7360 C   0  0  0  0  0  0  0  0  0  0  0  0
    5.8050   -4.5770   29.1350 C   0  0  0  0  0  0  0  0  0  0  0  0
    6.2570   -5.3650   29.9930 O   0  0  0  0  0  0  0  0  0  0  0  0
    4.5950   -4.0910   29.6610 C   0  0  0  0  0  0  0  0  0  0  0  0
    4.1820   -2.8230   29.2740 C   0  0  0  0  0  0  0  0  0  0  0  0
    2.9280   -2.6310   28.5480 C   0  0  0  0  0  0  0  0  0  0  0  0
    2.4640   -1.4040   28.1400 C   0  0  0  0  0  0  0  0  0  0  0  0
    3.2220   -0.2980   28.4340 C   0  0  0  0  0  0  0  0  0  0  0  0
    4.4240   -0.3880   29.1210 C   0  0  0  0  0  0  0  0  0  0  0  0
    4.9450   -1.6860   29.5680 C   0  0  0  0  0  0  0  0  0  0  0  0
    6.1440   -1.7770   30.2510 O   0  0  0  0  0  0  0  0  0  0  0  0
    7.2950   -1.0690   29.8620 C   0  0  0  0  0  0  0  0  0  0  0  0
    5.6430   -5.4810   28.1050 C   0  0  0  0  0  0  0  0  0  0  0  0
    5.1630   -4.9040   26.8230 C   0  0  0  0  0  0  0  0  0  0  0  0
    6.1500   -5.1600   23.8040 C   0  0  0  0  0  0  0  0  0  0  0  0
    6.6770   -5.5440   22.4330 C   0  0  0  0  0  0  0  0  0  0  0  0
  1  2  1  0
  2  3  2  0
  2  4  1  0
  4  5  1  0
  5  6  1  0
  6  7  1  0
  7  8  1  0
  8  9  2  0
  8 10  1  0
 10 11  1  0
 11 12  1  0
 12 13  1  0
 13 14  1  0
 13 15  1  0
 15 16  1  0
 16 17  2  0
 17 18  1  0
 18 19  2  0
 19 20  1  0
 16 21  1  0
 20 21  2  0
 21 22  1  0
 22 23  1  0
 13 24  1  0
 10 25  1  0
 24 25  1  0
  7 26  1  0
  4 27  1  0
 26 27  1  0
M  END
