piperidine-amides-12860-covalent
     RDKit          3D

 23 25  0  0  0  0  0  0  0  0999 V2000
    7.1180   -3.3220   19.2470 C   0  0  0  0  0  0  0  0  0  0  0  0
    6.4570   -4.1820   20.2570 C   0  0  0  0  0  0  0  0  0  0  0  0
    5.3610   -4.6880   19.9420 O   0  0  0  0  0  0  0  0  0  0  0  0
    7.0640   -4.4590   21.4900 N   0  0  0  0  0  0  0  0  0  0  0  0
    7.8710   -3.4650   22.1130 C   0  0  0  0  0  0  0  0  0  0  0  0
    7.4360   -3.0800   23.4560 C   0  0  0  0  0  0  0  0  0  0  0  0
    6.7030   -4.1110   24.2310 C   0  0  0  0  0  0  0  0  0  0  0  0
    5.9370   -3.4720   25.3280 C   0  0  0  0  0  0  0  0  0  0  0  0
    4.6930   -3.5490   25.3140 O   0  0  0  0  0  0  0  0  0  0  0  0
    6.5930   -2.7800   26.3570 N   0  0  0  0  0  0  0  0  0  0  0  0
    6.7770   -1.3080   26.3340 C   0  0  1  0  0  0  0  0  0  0  0  0
    6.0630   -0.8020   25.2050 C   0  0  0  0  0  0  0  0  0  0  0  0
    5.5190    0.1350   25.5390 O   0  0  0  0  0  0  0  0  0  0  0  0
    5.8400    0.2600   26.7910 C   0  0  0  0  0  0  0  0  0  0  0  0
    5.2560    1.3680   27.3210 C   0  0  0  0  0  0  0  0  0  0  0  0
    5.5420    1.5360   28.5320 C   0  0  0  0  0  0  0  0  0  0  0  0
    6.1390    0.4260   28.0570 F   0  0  0  0  0  0  0  0  0  0  0  0
    6.1940    1.0380   29.4650 C   0  0  0  0  0  0  0  0  0  0  0  0
    6.3630    1.6560   31.2660 Br  0  0  0  0  0  0  0  0  0  0  0  0
    6.7730   -0.0670   28.9330 C   0  0  0  0  0  0  0  0  0  0  0  0
    6.7760   -0.6860   27.6400 C   0  0  0  0  0  0  0  0  0  0  0  0
    5.8180   -4.9660   23.3640 C   0  0  0  0  0  0  0  0  0  0  0  0
    6.6610   -5.5780   22.3110 C   0  0  0  0  0  0  0  0  0  0  0  0
  1  2  1  0
  2  3  2  0
  2  4  1  0
  4  5  1  0
  5  6  1  0
  6  7  1  0
  7  8  1  0
  8  9  2  0
  8 10  1  0
 11 10  1  1
 11 12  1  0
 12 13  1  0
 13 14  1  0
 14 15  1  0
 15 16  2  0
 16 17  1  0
 16 18  1  0
 18 19  1  0
 18 20  2  0
 11 21  1  0
 14 21  2  0
 20 21  1  0
  7 22  1  0
  4 23  1  0
 22 23  1  0
M  END
