piperidine-amides-16232-covalent
     RDKit          3D

 19 19  0  0  0  0  0  0  0  0999 V2000
    7.0370   -3.2960   19.2650 C   0  0  0  0  0  0  0  0  0  0  0  0
    6.3080   -4.1030   20.2820 C   0  0  0  0  0  0  0  0  0  0  0  0
    5.2790   -4.6570   19.9130 O   0  0  0  0  0  0  0  0  0  0  0  0
    6.8120   -4.2390   21.5800 N   0  0  0  0  0  0  0  0  0  0  0  0
    7.5480   -3.1720   22.2080 C   0  0  0  0  0  0  0  0  0  0  0  0
    7.2720   -3.1500   23.6870 C   0  0  0  0  0  0  0  0  0  0  0  0
    5.8770   -3.6650   23.9980 C   0  0  0  0  0  0  0  0  0  0  0  0
    5.5660   -3.4700   25.4520 C   0  0  0  0  0  0  0  0  0  0  0  0
    4.4240   -3.7530   25.8280 O   0  0  0  0  0  0  0  0  0  0  0  0
    6.4790   -2.9450   26.4150 N   0  0  0  0  0  0  0  0  0  0  0  0
    6.8300   -1.5720   26.1680 C   0  0  0  0  0  0  0  0  0  0  0  0
    5.5610   -0.7660   26.2900 C   0  0  0  0  0  0  0  0  0  0  0  0
    6.3430   -3.4420   27.7190 C   0  0  0  0  0  0  0  0  0  0  0  0
    6.3140   -4.7840   27.8990 C   0  0  2  0  0  0  0  0  0  0  0  0
    7.4270   -5.5840   27.8480 C   0  0  0  0  0  0  0  0  0  0  0  0
    6.3260   -5.7290   26.8260 C   0  0  0  0  0  0  0  0  0  0  0  0
    5.0010   -6.3690   26.5420 C   0  0  0  0  0  0  0  0  0  0  0  0
    5.7140   -5.0740   23.5860 C   0  0  0  0  0  0  0  0  0  0  0  0
    6.4230   -5.4090   22.3160 C   0  0  0  0  0  0  0  0  0  0  0  0
  1  2  1  0
  2  3  2  0
  2  4  1  0
  4  5  1  0
  5  6  1  0
  6  7  1  0
  7  8  1  0
  8  9  2  0
  8 10  1  0
 10 11  1  0
 11 12  1  0
 10 13  1  0
 13 14  1  0
 14 15  1  1
 14 16  1  0
 16 17  1  0
  7 18  1  0
  4 19  1  0
 18 19  1  0
M  END
