piperidine-amides-2037-covalent
     RDKit          3D

 24 26  0  0  0  0  0  0  0  0999 V2000
    7.1440   -3.2680   19.1780 C   0  0  0  0  0  0  0  0  0  0  0  0
    6.4070   -4.0350   20.2180 C   0  0  0  0  0  0  0  0  0  0  0  0
    5.3320   -4.5320   19.8840 O   0  0  0  0  0  0  0  0  0  0  0  0
    6.9570   -4.2140   21.4920 N   0  0  0  0  0  0  0  0  0  0  0  0
    6.4890   -5.2670   22.3440 C   0  0  0  0  0  0  0  0  0  0  0  0
    5.7570   -4.6530   23.5070 C   0  0  0  0  0  0  0  0  0  0  0  0
    6.6080   -3.5340   24.1470 C   0  0  0  0  0  0  0  0  0  0  0  0
    5.8200   -2.8870   25.2060 C   0  0  0  0  0  0  0  0  0  0  0  0
    4.5830   -2.9720   25.1980 O   0  0  0  0  0  0  0  0  0  0  0  0
    6.4910   -2.1390   26.2110 N   0  0  0  0  0  0  0  0  0  0  0  0
    6.0420   -2.2310   27.5840 C   0  0  0  0  0  0  0  0  0  0  0  0
    5.3820   -3.5700   27.7270 C   0  0  2  0  0  0  0  0  0  0  0  0
    4.0430   -3.8630   27.6240 C   0  0  0  0  0  0  0  0  0  0  0  0
    3.2130   -2.9130   27.7680 O   0  0  0  0  0  0  0  0  0  0  0  0
    4.6540   -4.0680   28.8760 C   0  0  0  0  0  0  0  0  0  0  0  0
    5.4770   -4.5410   29.6610 O   0  0  0  0  0  0  0  0  0  0  0  0
    6.2330   -5.6100   29.2040 C   0  0  0  0  0  0  0  0  0  0  0  0
    6.2660   -5.7080   27.7140 C   0  0  2  0  0  0  0  0  0  0  0  0
    7.6560   -6.2360   27.7620 C   0  0  0  0  0  0  0  0  0  0  0  0
    8.4960   -5.0230   27.8160 C   0  0  0  0  0  0  0  0  0  0  0  0
    7.7000   -4.0800   27.0030 C   0  0  0  0  0  0  0  0  0  0  0  0
    6.3580   -4.5170   27.1250 N   0  0  0  0  0  0  0  0  0  0  0  0
    7.0840   -2.5090   23.1650 C   0  0  0  0  0  0  0  0  0  0  0  0
    7.8190   -3.1950   22.0520 C   0  0  0  0  0  0  0  0  0  0  0  0
  1  2  1  0
  2  3  2  0
  2  4  1  0
  4  5  1  0
  5  6  1  0
  6  7  1  0
  7  8  1  0
  8  9  2  0
  8 10  1  0
 10 11  1  0
 12 11  1  1
 12 13  1  0
 13 14  1  0
 12 15  1  0
 15 16  1  0
 16 17  1  0
 18 17  1  1
 18 19  1  0
 19 20  1  0
 20 21  1  0
 12 22  1  0
 18 22  1  0
 21 22  1  0
  7 23  1  0
  4 24  1  0
 23 24  1  0
M  END
