piperidine-amides-31283-covalent
     RDKit          3D

 27 29  0  0  0  0  0  0  0  0999 V2000
    7.0580   -3.3950   19.3770 C   0  0  0  0  0  0  0  0  0  0  0  0
    6.3420   -4.1520   20.3780 C   0  0  0  0  0  0  0  0  0  0  0  0
    5.3450   -4.8260   19.9810 O   0  0  0  0  0  0  0  0  0  0  0  0
    6.7210   -4.2250   21.7410 N   0  0  0  0  0  0  0  0  0  0  0  0
    7.6320   -3.1630   22.2590 C   0  0  0  0  0  0  0  0  0  0  0  0
    7.4830   -3.2820   23.8380 C   0  0  0  0  0  0  0  0  0  0  0  0
    6.0700   -3.7690   24.0670 C   0  0  0  0  0  0  0  0  0  0  0  0
    5.2090   -3.0510   25.2430 C   0  0  0  0  0  0  0  0  0  0  0  0
    4.5490   -2.1960   24.6870 O   0  0  0  0  0  0  0  0  0  0  0  0
    5.3350   -3.4580   26.4770 N   0  0  0  0  0  0  0  0  0  0  0  0
    5.4360   -3.4120   27.8580 C   0  0  0  0  0  0  0  0  0  0  0  0
    5.1950   -4.4370   28.7320 C   0  0  0  0  0  0  0  0  0  0  0  0
    5.2930   -5.4020   27.7640 C   0  0  2  0  0  0  0  0  0  0  0  0
    5.0060   -6.7230   28.1670 O   0  0  0  0  0  0  0  0  0  0  0  0
    6.5820   -5.3490   27.3430 C   0  0  0  0  0  0  0  0  0  0  0  0
    7.4840   -4.9410   28.4450 C   0  0  0  0  0  0  0  0  0  0  0  0
    8.6440   -4.8670   27.7580 C   0  0  0  0  0  0  0  0  0  0  0  0
    8.7890   -5.1450   26.3830 C   0  0  0  0  0  0  0  0  0  0  0  0
   10.1130   -4.7820   26.6230 C   0  0  0  0  0  0  0  0  0  0  0  0
   11.0160   -5.1600   25.7500 F   0  0  0  0  0  0  0  0  0  0  0  0
    9.9160   -3.3980   26.5130 F   0  0  0  0  0  0  0  0  0  0  0  0
   10.3780   -5.1180   27.9170 F   0  0  0  0  0  0  0  0  0  0  0  0
    7.7890   -5.5910   25.3610 C   0  0  0  0  0  0  0  0  0  0  0  0
    6.6060   -5.6870   25.8910 C   0  0  0  0  0  0  0  0  0  0  0  0
    4.8400   -4.8660   26.5020 C   0  0  0  0  0  0  0  0  0  0  0  0
    5.8140   -5.2060   23.6290 C   0  0  0  0  0  0  0  0  0  0  0  0
    6.5260   -5.4550   22.4750 C   0  0  0  0  0  0  0  0  0  0  0  0
  1  2  1  0
  2  3  2  0
  2  4  1  0
  4  5  1  0
  5  6  1  0
  6  7  1  0
  7  8  1  0
  8  9  2  0
  8 10  1  0
 10 11  1  0
 11 12  1  0
 12 13  1  0
 13 14  1  1
 13 15  1  0
 15 16  2  0
 16 17  1  0
 17 18  2  0
 18 19  1  0
 19 20  1  0
 19 21  1  0
 19 22  1  0
 18 23  1  0
 15 24  1  0
 23 24  2  0
 10 25  1  0
 13 25  1  0
  7 26  1  0
  4 27  1  0
 26 27  1  0
M  END
