piperidine-amides-33567-covalent
     RDKit          3D

 28 30  0  0  0  0  0  0  0  0999 V2000
    7.0000   -3.3990   19.4030 C   0  0  0  0  0  0  0  0  0  0  0  0
    6.3880   -4.2740   20.4220 C   0  0  0  0  0  0  0  0  0  0  0  0
    5.4270   -4.9770   20.0170 O   0  0  0  0  0  0  0  0  0  0  0  0
    6.8890   -4.3480   21.7620 N   0  0  0  0  0  0  0  0  0  0  0  0
    6.5190   -5.4610   22.5870 C   0  0  0  0  0  0  0  0  0  0  0  0
    5.9680   -5.0450   23.8800 C   0  0  0  0  0  0  0  0  0  0  0  0
    6.0600   -3.5870   24.0390 C   0  0  0  0  0  0  0  0  0  0  0  0
    5.3980   -2.9400   25.2610 C   0  0  0  0  0  0  0  0  0  0  0  0
    4.8840   -1.8340   25.0700 O   0  0  0  0  0  0  0  0  0  0  0  0
    5.2640   -3.4470   26.5900 N   0  0  0  0  0  0  0  0  0  0  0  0
    4.1580   -3.3980   27.4300 C   0  0  0  0  0  0  0  0  0  0  0  0
    4.3680   -4.0600   28.7140 C   0  0  0  0  0  0  0  0  0  0  0  0
    5.2580   -5.0490   28.8260 N   0  0  0  0  0  0  0  0  0  0  0  0
    4.4080   -6.3220   28.1260 S   0  0  0  0  0  0  0  0  0  0  0  0
    3.3170   -5.7830   27.2460 O   0  0  0  0  0  0  0  0  0  0  0  0
    5.2760   -7.2080   27.3190 O   0  0  0  0  0  0  0  0  0  0  0  0
    3.7520   -7.1160   29.5590 C   0  0  0  0  0  0  0  0  0  0  0  0
    2.4300   -7.3730   29.7190 C   0  0  0  0  0  0  0  0  0  0  0  0
    2.3030   -7.9930   30.9500 N   0  0  0  0  0  0  0  0  0  0  0  0
    1.0830   -8.4710   31.5860 C   0  0  0  0  0  0  0  0  0  0  0  0
    0.7120   -9.6750   30.7860 C   0  0  0  0  0  0  0  0  0  0  0  0
    3.5520   -8.0960   31.5010 N   0  0  0  0  0  0  0  0  0  0  0  0
    4.4570   -7.5760   30.6870 C   0  0  0  0  0  0  0  0  0  0  0  0
    5.9460   -7.4140   30.7470 C   0  0  0  0  0  0  0  0  0  0  0  0
    6.4420   -4.7830   28.2700 C   0  0  0  0  0  0  0  0  0  0  0  0
    6.4110   -3.5050   27.3760 C   0  0  0  0  0  0  0  0  0  0  0  0
    7.4660   -3.1670   23.7440 C   0  0  0  0  0  0  0  0  0  0  0  0
    7.6330   -3.2310   22.3450 C   0  0  0  0  0  0  0  0  0  0  0  0
  1  2  1  0
  2  3  2  0
  2  4  1  0
  4  5  1  0
  5  6  1  0
  6  7  1  0
  7  8  1  0
  8  9  2  0
  8 10  1  0
 10 11  1  0
 11 12  1  0
 12 13  1  0
 13 14  1  0
 14 15  2  0
 14 16  2  0
 14 17  1  0
 17 18  2  0
 18 19  1  0
 19 20  1  0
 20 21  1  0
 19 22  1  0
 17 23  1  0
 22 23  2  0
 23 24  1  0
 13 25  1  0
 10 26  1  0
 25 26  1  0
  7 27  1  0
  4 28  1  0
 27 28  1  0
M  END
