piperidine-amides-4454-covalent
     RDKit          3D

 25 26  0  0  0  0  0  0  0  0999 V2000
    7.1300   -3.2940   19.2160 C   0  0  0  0  0  0  0  0  0  0  0  0
    6.3940   -4.0580   20.2340 C   0  0  0  0  0  0  0  0  0  0  0  0
    5.2910   -4.5430   19.8870 O   0  0  0  0  0  0  0  0  0  0  0  0
    6.9370   -4.2980   21.5190 N   0  0  0  0  0  0  0  0  0  0  0  0
    6.3990   -5.3520   22.2960 C   0  0  0  0  0  0  0  0  0  0  0  0
    5.8720   -4.9290   23.5910 C   0  0  0  0  0  0  0  0  0  0  0  0
    6.5180   -3.7410   24.2040 C   0  0  0  0  0  0  0  0  0  0  0  0
    5.7770   -3.2680   25.4190 C   0  0  0  0  0  0  0  0  0  0  0  0
    4.6140   -2.8360   25.2860 O   0  0  0  0  0  0  0  0  0  0  0  0
    6.3490   -3.3010   26.7080 N   0  0  0  0  0  0  0  0  0  0  0  0
    6.2380   -4.3200   27.6930 C   0  0  0  0  0  0  0  0  0  0  0  0
    6.1380   -5.7400   27.3450 C   0  0  0  0  0  0  0  0  0  0  0  0
    5.0110   -6.3170   27.4620 O   0  0  0  0  0  0  0  0  0  0  0  0
    4.7240   -6.7490   28.7330 C   0  0  0  0  0  0  0  0  0  0  0  0
    5.8400   -6.9600   29.6150 C   0  0  0  0  0  0  0  0  0  0  0  0
    5.4670   -7.4430   31.0550 C   0  0  0  0  0  0  0  0  0  0  0  0
    4.0170   -7.5100   30.9810 C   0  0  0  0  0  0  0  0  0  0  0  0
    3.3250   -7.9620   32.2820 C   0  0  0  0  0  0  0  0  0  0  0  0
    4.0420   -8.4730   33.3260 F   0  0  0  0  0  0  0  0  0  0  0  0
    2.7350   -6.7800   32.7180 F   0  0  0  0  0  0  0  0  0  0  0  0
    2.2920   -8.8270   31.9360 F   0  0  0  0  0  0  0  0  0  0  0  0
    2.8950   -7.3440   30.2320 C   0  0  0  0  0  0  0  0  0  0  0  0
    3.2980   -6.8850   28.8710 C   0  0  0  0  0  0  0  0  0  0  0  0
    6.6880   -2.6010   23.1960 C   0  0  0  0  0  0  0  0  0  0  0  0
    7.5960   -3.1460   22.1590 C   0  0  0  0  0  0  0  0  0  0  0  0
  1  2  1  0
  2  3  2  0
  2  4  1  0
  4  5  1  0
  5  6  1  0
  6  7  1  0
  7  8  1  0
  8  9  2  0
  8 10  1  0
 10 11  1  0
 11 12  1  0
 12 13  1  0
 13 14  1  0
 14 15  2  0
 15 16  1  0
 16 17  2  0
 17 18  1  0
 18 19  1  0
 18 20  1  0
 18 21  1  0
 17 22  1  0
 14 23  1  0
 22 23  2  0
  7 24  1  0
  4 25  1  0
 24 25  1  0
M  END
