piperidine-amides-32339-covalent
     RDKit          3D

 28 30  0  0  0  0  0  0  0  0999 V2000
    7.0870   -3.3610   19.3770 C   0  0  0  0  0  0  0  0  0  0  0  0
    6.3910   -4.2280   20.3650 C   0  0  0  0  0  0  0  0  0  0  0  0
    5.3870   -4.8620   19.9900 O   0  0  0  0  0  0  0  0  0  0  0  0
    6.9130   -4.3540   21.6740 N   0  0  0  0  0  0  0  0  0  0  0  0
    6.5690   -5.4580   22.5180 C   0  0  0  0  0  0  0  0  0  0  0  0
    5.5810   -4.9070   23.5550 C   0  0  0  0  0  0  0  0  0  0  0  0
    6.1980   -3.7570   24.3080 C   0  0  0  0  0  0  0  0  0  0  0  0
    5.2390   -3.1510   25.3080 C   0  0  0  0  0  0  0  0  0  0  0  0
    4.6220   -2.1610   24.9250 O   0  0  0  0  0  0  0  0  0  0  0  0
    5.0700   -3.7010   26.6010 N   0  0  0  0  0  0  0  0  0  0  0  0
    4.9550   -2.9850   27.8390 C   0  0  0  0  0  0  0  0  0  0  0  0
    5.3860   -3.4900   29.0840 C   0  0  0  0  0  0  0  0  0  0  0  0
    5.8440   -4.8140   29.2240 C   0  0  1  0  0  0  0  0  0  0  0  0
    5.3410   -5.5330   30.3030 O   0  0  0  0  0  0  0  0  0  0  0  0
    5.1330   -6.8990   30.2860 C   0  0  0  0  0  0  0  0  0  0  0  0
    4.7140   -7.4530   28.9820 C   0  0  0  0  0  0  0  0  0  0  0  0
    4.7570   -6.3990   28.0540 N   0  0  0  0  0  0  0  0  0  0  0  0
    3.4990   -5.8350   27.6160 C   0  0  0  0  0  0  0  0  0  0  0  0
    3.0900   -4.5180   27.7210 O   0  0  0  0  0  0  0  0  0  0  0  0
    2.6960   -6.8050   27.0650 O   0  0  0  0  0  0  0  0  0  0  0  0
    2.9690   -6.9520   25.7280 C   0  0  0  0  0  0  0  0  0  0  0  0
    2.6030   -8.1750   25.1980 C   0  0  0  0  0  0  0  0  0  0  0  0
    4.3920   -6.8060   25.3960 C   0  0  0  0  0  0  0  0  0  0  0  0
    2.2400   -5.8590   24.9450 C   0  0  0  0  0  0  0  0  0  0  0  0
    5.7860   -5.5150   28.0570 C   0  0  1  0  0  0  0  0  0  0  0  0
    6.0360   -4.6410   26.8550 C   0  0  0  0  0  0  0  0  0  0  0  0
    6.8130   -2.6970   23.4380 C   0  0  0  0  0  0  0  0  0  0  0  0
    7.6660   -3.2980   22.3140 C   0  0  0  0  0  0  0  0  0  0  0  0
  1  2  1  0
  2  3  2  0
  2  4  1  0
  4  5  1  0
  5  6  1  0
  6  7  1  0
  7  8  1  0
  8  9  2  0
  8 10  1  0
 10 11  1  0
 11 12  1  0
 13 12  1  6
 13 14  1  0
 14 15  1  0
 15 16  1  0
 16 17  1  0
 17 18  1  0
 18 19  2  0
 18 20  1  0
 21 20  1  0
 21 22  1  0
 21 23  1  0
 21 24  1  0
 13 25  1  0
 17 25  1  0
 10 26  1  0
 25 26  1  6
  7 27  1  0
  4 28  1  0
 27 28  1  0
M  END
