piperidine-amides-435-covalent
     RDKit          3D

 27 29  0  0  0  0  0  0  0  0999 V2000
    7.1420   -3.3130   19.4000 C   0  0  0  0  0  0  0  0  0  0  0  0
    6.4080   -4.1210   20.3490 C   0  0  0  0  0  0  0  0  0  0  0  0
    5.3600   -4.7220   19.9490 O   0  0  0  0  0  0  0  0  0  0  0  0
    6.8400   -4.2900   21.6830 N   0  0  0  0  0  0  0  0  0  0  0  0
    7.7900   -3.3020   22.2460 C   0  0  0  0  0  0  0  0  0  0  0  0
    6.8660   -2.5940   23.3040 C   0  0  0  0  0  0  0  0  0  0  0  0
    6.1080   -3.6930   24.0230 C   0  0  0  0  0  0  0  0  0  0  0  0
    5.6640   -3.2370   25.4820 C   0  0  0  0  0  0  0  0  0  0  0  0
    4.8830   -2.3000   25.3940 O   0  0  0  0  0  0  0  0  0  0  0  0
    6.2150   -3.9630   26.3860 N   0  0  0  0  0  0  0  0  0  0  0  0
    6.7230   -4.6890   27.4300 C   0  0  2  0  0  0  0  0  0  0  0  0
    7.6460   -5.6840   27.6520 C   0  0  0  0  0  0  0  0  0  0  0  0
    5.5400   -5.1880   28.2320 C   0  0  0  0  0  0  0  0  0  0  0  0
    5.4540   -6.4080   28.7830 N   0  0  0  0  0  0  0  0  0  0  0  0
    4.2400   -6.2730   29.3320 C   0  0  0  0  0  0  0  0  0  0  0  0
    3.6280   -7.4400   30.1230 C   0  0  0  0  0  0  0  0  0  0  0  0
    2.8760   -7.1590   31.2880 O   0  0  0  0  0  0  0  0  0  0  0  0
    2.8750   -8.0420   32.3930 C   0  0  0  0  0  0  0  0  0  0  0  0
    4.0870   -7.8470   33.1680 C   0  0  0  0  0  0  0  0  0  0  0  0
    3.8020   -8.9080   34.2690 C   0  0  0  0  0  0  0  0  0  0  0  0
    2.5850   -9.8470   34.4340 C   0  0  0  0  0  0  0  0  0  0  0  0
    1.6440   -9.7450   33.5080 C   0  0  0  0  0  0  0  0  0  0  0  0
    1.7580   -8.8720   32.4990 C   0  0  0  0  0  0  0  0  0  0  0  0
    3.5320   -5.1890   29.2350 N   0  0  0  0  0  0  0  0  0  0  0  0
    4.3480   -4.4370   28.5180 O   0  0  0  0  0  0  0  0  0  0  0  0
    6.6140   -5.1070   23.8070 C   0  0  0  0  0  0  0  0  0  0  0  0
    6.4990   -5.4440   22.4750 C   0  0  0  0  0  0  0  0  0  0  0  0
  1  2  1  0
  2  3  2  0
  2  4  1  0
  4  5  1  0
  5  6  1  0
  6  7  1  0
  7  8  1  0
  8  9  2  0
  8 10  1  0
 10 11  1  0
 11 12  1  6
 11 13  1  0
 13 14  2  0
 14 15  1  0
 15 16  1  0
 16 17  1  0
 17 18  1  0
 18 19  2  0
 19 20  1  0
 20 21  2  0
 21 22  1  0
 18 23  1  0
 22 23  2  0
 15 24  2  0
 13 25  1  0
 24 25  1  0
  7 26  1  0
  4 27  1  0
 26 27  1  0
M  END
