piperidine-amides-25705-covalent
     RDKit          3D

 25 27  0  0  0  0  0  0  0  0999 V2000
    7.1010   -3.3390   19.2500 C   0  0  0  0  0  0  0  0  0  0  0  0
    6.3610   -4.1330   20.2570 C   0  0  0  0  0  0  0  0  0  0  0  0
    5.2960   -4.6340   19.9120 O   0  0  0  0  0  0  0  0  0  0  0  0
    6.9200   -4.3300   21.5200 N   0  0  0  0  0  0  0  0  0  0  0  0
    6.6350   -5.5010   22.2970 C   0  0  0  0  0  0  0  0  0  0  0  0
    5.9400   -5.0720   23.5540 C   0  0  0  0  0  0  0  0  0  0  0  0
    6.6780   -3.8790   24.1660 C   0  0  0  0  0  0  0  0  0  0  0  0
    5.8500   -3.3310   25.2500 C   0  0  0  0  0  0  0  0  0  0  0  0
    4.9920   -2.4780   24.9970 O   0  0  0  0  0  0  0  0  0  0  0  0
    5.9890   -3.7780   26.5630 N   0  0  0  0  0  0  0  0  0  0  0  0
    6.4220   -2.8420   27.5460 C   0  0  0  0  0  0  0  0  0  0  0  0
    6.5510   -3.7290   28.7400 C   0  0  0  0  0  0  0  0  0  0  0  0
    5.7860   -4.8360   28.7560 C   0  0  1  0  0  0  0  0  0  0  0  0
    4.6240   -4.8140   29.4610 C   0  0  0  0  0  0  0  0  0  0  0  0
    4.5450   -5.8010   30.3940 C   0  0  0  0  0  0  0  0  0  0  0  0
    5.7020   -6.7130   30.7420 C   0  0  0  0  0  0  0  0  0  0  0  0
    5.4290   -7.7360   31.8130 C   0  0  0  0  0  0  0  0  0  0  0  0
    4.0950   -7.8920   32.5160 C   0  0  0  0  0  0  0  0  0  0  0  0
    2.9730   -6.9950   32.1490 C   0  0  0  0  0  0  0  0  0  0  0  0
    1.7740   -7.2100   32.8330 O   0  0  0  0  0  0  0  0  0  0  0  0
    1.2410   -8.4570   32.6280 C   0  0  0  0  0  0  0  0  0  0  0  0
    3.2520   -5.9890   31.1070 C   0  0  0  0  0  0  0  0  0  0  0  0
    5.2330   -4.7270   27.3250 C   0  0  0  0  0  0  0  0  0  0  0  0
    6.9260   -2.7710   23.1690 C   0  0  0  0  0  0  0  0  0  0  0  0
    7.6910   -3.2790   22.1580 C   0  0  0  0  0  0  0  0  0  0  0  0
  1  2  1  0
  2  3  2  0
  2  4  1  0
  4  5  1  0
  5  6  1  0
  6  7  1  0
  7  8  1  0
  8  9  2  0
  8 10  1  0
 10 11  1  0
 11 12  1  0
 12 13  1  0
 13 14  1  1
 14 15  1  0
 15 16  2  0
 16 17  1  0
 17 18  2  0
 18 19  1  0
 19 20  1  0
 20 21  1  0
 15 22  1  0
 19 22  2  0
 10 23  1  0
 13 23  1  0
  7 24  1  0
  4 25  1  0
 24 25  1  0
M  END
