piperidine-amides-8648-covalent
     RDKit          3D

 23 25  0  0  0  0  0  0  0  0999 V2000
    7.1100   -3.2720   19.1910 C   0  0  0  0  0  0  0  0  0  0  0  0
    6.3780   -4.0280   20.2100 C   0  0  0  0  0  0  0  0  0  0  0  0
    5.3070   -4.5730   19.8880 O   0  0  0  0  0  0  0  0  0  0  0  0
    6.9090   -4.1630   21.5130 N   0  0  0  0  0  0  0  0  0  0  0  0
    7.7410   -3.1000   22.0200 C   0  0  0  0  0  0  0  0  0  0  0  0
    7.5930   -2.9890   23.5000 C   0  0  0  0  0  0  0  0  0  0  0  0
    6.1860   -3.4320   23.8120 C   0  0  0  0  0  0  0  0  0  0  0  0
    5.8530   -3.0630   25.2130 C   0  0  0  0  0  0  0  0  0  0  0  0
    4.6650   -2.8780   25.4740 O   0  0  0  0  0  0  0  0  0  0  0  0
    6.9150   -2.9650   26.1000 N   0  0  0  0  0  0  0  0  0  0  0  0
    7.3240   -4.0960   26.8410 C   0  0  0  0  0  0  0  0  0  0  0  0
    6.2600   -4.7070   27.5040 C   0  0  1  0  0  0  0  0  0  0  0  0
    5.9660   -6.0180   27.4380 C   0  0  0  0  0  0  0  0  0  0  0  0
    6.2730   -6.2230   28.7060 C   0  0  2  0  0  0  0  0  0  0  0  0
    5.0680   -6.8150   29.3700 C   0  0  0  0  0  0  0  0  0  0  0  0
    5.0950   -6.9260   30.9250 C   0  0  0  0  0  0  0  0  0  0  0  0
    3.9510   -7.4960   31.6890 C   0  0  0  0  0  0  0  0  0  0  0  0
    2.7920   -7.9480   30.8550 C   0  0  0  0  0  0  0  0  0  0  0  0
    2.8380   -7.8090   29.3210 C   0  0  0  0  0  0  0  0  0  0  0  0
    3.8650   -7.2940   28.5870 C   0  0  0  0  0  0  0  0  0  0  0  0
    6.6260   -4.9220   29.0150 C   0  0  0  0  0  0  0  0  0  0  0  0
    5.9950   -4.8980   23.6140 C   0  0  0  0  0  0  0  0  0  0  0  0
    6.6070   -5.3210   22.3110 C   0  0  0  0  0  0  0  0  0  0  0  0
  1  2  1  0
  2  3  2  0
  2  4  1  0
  4  5  1  0
  5  6  1  0
  6  7  1  0
  7  8  1  0
  8  9  2  0
  8 10  1  0
 10 11  1  0
 12 11  1  6
 12 13  1  0
 13 14  1  0
 14 15  1  1
 15 16  2  0
 16 17  1  0
 17 18  2  0
 18 19  1  0
 15 20  1  0
 19 20  2  0
 12 21  1  0
 14 21  1  0
  7 22  1  0
  4 23  1  0
 22 23  1  0
M  END
