piperidine-amides-9210-covalent
     RDKit          3D

 20 21  0  0  0  0  0  0  0  0999 V2000
    7.0900   -3.2760   19.2410 C   0  0  0  0  0  0  0  0  0  0  0  0
    6.3430   -4.0190   20.2620 C   0  0  0  0  0  0  0  0  0  0  0  0
    5.3230   -4.6420   19.9220 O   0  0  0  0  0  0  0  0  0  0  0  0
    6.7820   -4.0760   21.5990 N   0  0  0  0  0  0  0  0  0  0  0  0
    7.7300   -3.1080   22.1160 C   0  0  0  0  0  0  0  0  0  0  0  0
    7.3880   -2.9120   23.5620 C   0  0  0  0  0  0  0  0  0  0  0  0
    6.0830   -3.5510   23.9040 C   0  0  0  0  0  0  0  0  0  0  0  0
    5.6570   -3.2720   25.2960 C   0  0  0  0  0  0  0  0  0  0  0  0
    4.4290   -3.1970   25.5860 O   0  0  0  0  0  0  0  0  0  0  0  0
    6.5870   -3.0680   26.3340 N   0  0  0  0  0  0  0  0  0  0  0  0
    6.1790   -3.1110   27.7560 C   0  0  0  0  0  0  0  0  0  0  0  0
    6.3080   -4.4840   28.3050 C   0  0  0  0  0  0  0  0  0  0  0  0
    7.2130   -4.8980   29.0560 O   0  0  0  0  0  0  0  0  0  0  0  0
    5.3080   -5.3040   27.9400 N   0  0  0  0  0  0  0  0  0  0  0  0
    5.4230   -6.7250   28.0060 C   0  0  0  0  0  0  0  0  0  0  0  0
    4.1850   -7.1570   28.7070 C   0  0  0  0  0  0  0  0  0  0  0  0
    3.2240   -6.0240   28.6500 C   0  0  0  0  0  0  0  0  0  0  0  0
    3.8800   -4.9130   27.9100 C   0  0  0  0  0  0  0  0  0  0  0  0
    6.1720   -5.0350   23.6280 C   0  0  0  0  0  0  0  0  0  0  0  0
    6.5910   -5.3200   22.3160 C   0  0  0  0  0  0  0  0  0  0  0  0
  1  2  1  0
  2  3  2  0
  2  4  1  0
  4  5  1  0
  5  6  1  0
  6  7  1  0
  7  8  1  0
  8  9  2  0
  8 10  1  0
 10 11  1  0
 11 12  1  0
 12 13  2  0
 12 14  1  0
 14 15  1  0
 15 16  1  0
 16 17  2  0
 14 18  1  0
 17 18  1  0
  7 19  1  0
  4 20  1  0
 19 20  1  0
M  END
