piperidine-amides-13455-covalent
     RDKit          3D

 21 22  0  0  0  0  0  0  0  0999 V2000
    7.1270   -3.2760   19.2580 C   0  0  0  0  0  0  0  0  0  0  0  0
    6.3700   -4.0790   20.2510 C   0  0  0  0  0  0  0  0  0  0  0  0
    5.2960   -4.5980   19.9060 O   0  0  0  0  0  0  0  0  0  0  0  0
    6.9110   -4.2850   21.5410 N   0  0  0  0  0  0  0  0  0  0  0  0
    6.5010   -5.4110   22.3210 C   0  0  0  0  0  0  0  0  0  0  0  0
    5.6800   -4.8120   23.4670 C   0  0  0  0  0  0  0  0  0  0  0  0
    6.5000   -3.7490   24.1370 C   0  0  0  0  0  0  0  0  0  0  0  0
    5.8220   -3.2050   25.3440 C   0  0  0  0  0  0  0  0  0  0  0  0
    4.6430   -2.8630   25.1870 O   0  0  0  0  0  0  0  0  0  0  0  0
    6.4850   -3.0970   26.5720 N   0  0  0  0  0  0  0  0  0  0  0  0
    6.2300   -3.8330   27.7680 C   0  0  0  0  0  0  0  0  0  0  0  0
    5.8660   -5.1660   27.7940 C   0  0  0  0  0  0  0  0  0  0  0  0
    5.2010   -5.7270   26.7030 C   0  0  0  0  0  0  0  0  0  0  0  0
    4.4690   -6.8800   26.8690 C   0  0  0  0  0  0  0  0  0  0  0  0
    3.0060   -6.8370   27.1440 C   0  0  0  0  0  0  0  0  0  0  0  0
    2.1960   -5.6620   27.0260 N   0  0  0  0  0  0  0  0  0  0  0  0
    0.9120   -6.1890   27.3970 C   0  0  0  0  0  0  0  0  0  0  0  0
    1.1310   -7.6460   27.6950 C   0  0  0  0  0  0  0  0  0  0  0  0
    2.4030   -7.9890   27.5300 N   0  0  0  0  0  0  0  0  0  0  0  0
    6.7790   -2.5890   23.1710 C   0  0  0  0  0  0  0  0  0  0  0  0
    7.6410   -3.1970   22.1330 C   0  0  0  0  0  0  0  0  0  0  0  0
  1  2  1  0
  2  3  2  0
  2  4  1  0
  4  5  1  0
  5  6  1  0
  6  7  1  0
  7  8  1  0
  8  9  2  0
  8 10  1  0
 10 11  1  0
 11 12  1  0
 12 13  1  0
 13 14  1  0
 14 15  1  0
 15 16  2  0
 16 17  1  0
 17 18  2  0
 15 19  1  0
 18 19  1  0
  7 20  1  0
  4 21  1  0
 20 21  1  0
M  END
