piperidine-amides-25060-covalent
     RDKit          3D

 24 25  0  0  0  0  0  0  0  0999 V2000
    7.1010   -3.2610   19.2280 C   0  0  0  0  0  0  0  0  0  0  0  0
    6.3560   -4.0470   20.2460 C   0  0  0  0  0  0  0  0  0  0  0  0
    5.3040   -4.5750   19.8930 O   0  0  0  0  0  0  0  0  0  0  0  0
    6.8760   -4.2030   21.5340 N   0  0  0  0  0  0  0  0  0  0  0  0
    7.6690   -3.1720   22.1550 C   0  0  0  0  0  0  0  0  0  0  0  0
    6.9610   -2.6810   23.3830 C   0  0  0  0  0  0  0  0  0  0  0  0
    6.5090   -3.8700   24.2300 C   0  0  0  0  0  0  0  0  0  0  0  0
    5.7870   -3.3300   25.4040 C   0  0  0  0  0  0  0  0  0  0  0  0
    4.5490   -3.3040   25.3840 O   0  0  0  0  0  0  0  0  0  0  0  0
    6.4690   -2.8360   26.5400 N   0  0  0  0  0  0  0  0  0  0  0  0
    6.8770   -1.4530   26.4810 C   0  0  0  0  0  0  0  0  0  0  0  0
    6.2410   -3.4500   27.8130 C   0  0  0  0  0  0  0  0  0  0  0  0
    5.9990   -2.5080   28.7820 C   0  0  0  0  0  0  0  0  0  0  0  0
    6.9190   -1.6470   29.2890 C   0  0  0  0  0  0  0  0  0  0  0  0
    6.6450   -0.7220   30.2500 C   0  0  0  0  0  0  0  0  0  0  0  0
    5.3200   -0.4700   30.9280 C   0  0  0  0  0  0  0  0  0  0  0  0
    4.2710   -1.3960   30.4060 C   0  0  0  0  0  0  0  0  0  0  0  0
    2.9720   -1.3940   30.8450 O   0  0  0  0  0  0  0  0  0  0  0  0
    2.0130   -1.9230   29.9810 C   0  0  0  0  0  0  0  0  0  0  0  0
    1.7880   -3.2290   30.3150 F   0  0  0  0  0  0  0  0  0  0  0  0
    0.9250   -1.1290   30.0680 F   0  0  0  0  0  0  0  0  0  0  0  0
    4.5730   -2.4250   29.3360 C   0  0  0  0  0  0  0  0  0  0  0  0
    5.6910   -4.8760   23.4620 C   0  0  0  0  0  0  0  0  0  0  0  0
    6.5310   -5.3740   22.3000 C   0  0  0  0  0  0  0  0  0  0  0  0
  1  2  1  0
  2  3  2  0
  2  4  1  0
  4  5  1  0
  5  6  1  0
  6  7  1  0
  7  8  1  0
  8  9  2  0
  8 10  1  0
 10 11  1  0
 10 12  1  0
 12 13  1  0
 13 14  2  0
 14 15  1  0
 15 16  2  0
 16 17  1  0
 17 18  1  0
 18 19  1  0
 19 20  1  0
 19 21  1  0
 13 22  1  0
 17 22  2  0
  7 23  1  0
  4 24  1  0
 23 24  1  0
M  END
