piperidine-amides-34138-covalent
     RDKit          3D

 30 33  0  0  0  0  0  0  0  0999 V2000
    7.1260   -3.3020   19.3260 C   0  0  0  0  0  0  0  0  0  0  0  0
    6.3600   -4.0880   20.3040 C   0  0  0  0  0  0  0  0  0  0  0  0
    5.3330   -4.7070   19.9440 O   0  0  0  0  0  0  0  0  0  0  0  0
    6.8020   -4.1870   21.6340 N   0  0  0  0  0  0  0  0  0  0  0  0
    7.6780   -3.1580   22.1700 C   0  0  0  0  0  0  0  0  0  0  0  0
    7.1950   -2.8340   23.5860 C   0  0  0  0  0  0  0  0  0  0  0  0
    5.8240   -3.4590   23.6770 C   0  0  0  0  0  0  0  0  0  0  0  0
    5.1300   -3.1210   24.9410 C   0  0  0  0  0  0  0  0  0  0  0  0
    4.0770   -3.7280   25.2100 O   0  0  0  0  0  0  0  0  0  0  0  0
    5.6380   -2.1350   25.8150 N   0  0  0  0  0  0  0  0  0  0  0  0
    5.2640   -0.7690   25.7130 C   0  0  0  0  0  0  0  0  0  0  0  0
    6.9000   -2.3850   26.3410 C   0  0  0  0  0  0  0  0  0  0  0  0
    7.1030   -1.5660   27.4140 C   0  0  0  0  0  0  0  0  0  0  0  0
    8.0000   -0.5620   27.4760 C   0  0  0  0  0  0  0  0  0  0  0  0
    7.9380    0.0320   28.7660 N   0  0  0  0  0  0  0  0  0  0  0  0
    8.6870    1.0650   29.2870 C   0  0  0  0  0  0  0  0  0  0  0  0
    9.6150    0.7200   30.1820 C   0  0  0  0  0  0  0  0  0  0  0  0
   10.5800    1.6280   30.8950 C   0  0  0  0  0  0  0  0  0  0  0  0
   10.1070    2.9560   30.2440 C   0  0  0  0  0  0  0  0  0  0  0  0
    9.0920    3.5320   29.2360 C   0  0  0  0  0  0  0  0  0  0  0  0
    8.4190    2.2990   28.8380 C   0  0  0  0  0  0  0  0  0  0  0  0
    7.0000   -0.5550   29.5380 N   0  0  0  0  0  0  0  0  0  0  0  0
    6.4700   -1.5420   28.7340 C   0  0  0  0  0  0  0  0  0  0  0  0
    5.4900   -2.4210   29.0600 C   0  0  0  0  0  0  0  0  0  0  0  0
    4.1160   -2.3840   29.6500 C   0  0  0  0  0  0  0  0  0  0  0  0
    3.5020   -3.7250   29.7540 C   0  0  0  0  0  0  0  0  0  0  0  0
    4.3800   -4.8570   29.2470 C   0  0  0  0  0  0  0  0  0  0  0  0
    5.8820   -4.1770   28.6880 S   0  0  0  0  0  0  0  0  0  0  0  0
    5.8300   -4.9470   23.5310 C   0  0  0  0  0  0  0  0  0  0  0  0
    6.5370   -5.3550   22.4410 C   0  0  0  0  0  0  0  0  0  0  0  0
  1  2  1  0
  2  3  2  0
  2  4  1  0
  4  5  1  0
  5  6  1  0
  6  7  1  0
  7  8  1  0
  8  9  2  0
  8 10  1  0
 10 11  1  0
 10 12  1  0
 12 13  1  0
 13 14  2  0
 14 15  1  0
 15 16  1  0
 16 17  2  0
 17 18  1  0
 18 19  2  0
 19 20  1  0
 16 21  1  0
 20 21  2  0
 15 22  1  0
 13 23  1  0
 22 23  2  0
 23 24  1  0
 24 25  2  0
 25 26  1  0
 26 27  2  0
 24 28  1  0
 27 28  1  0
  7 29  1  0
  4 30  1  0
 29 30  1  0
M  END
