piperidine-amides-754-covalent
     RDKit          3D

 25 27  0  0  0  0  0  0  0  0999 V2000
    7.1740   -3.2950   19.3730 C   0  0  0  0  0  0  0  0  0  0  0  0
    6.3880   -4.0370   20.3350 C   0  0  0  0  0  0  0  0  0  0  0  0
    5.3450   -4.6390   19.9240 O   0  0  0  0  0  0  0  0  0  0  0  0
    6.7640   -4.1400   21.6930 N   0  0  0  0  0  0  0  0  0  0  0  0
    7.7680   -3.1340   22.1630 C   0  0  0  0  0  0  0  0  0  0  0  0
    7.3980   -2.8850   23.6830 C   0  0  0  0  0  0  0  0  0  0  0  0
    6.1810   -3.7320   23.9230 C   0  0  0  0  0  0  0  0  0  0  0  0
    5.2820   -3.3430   25.1720 C   0  0  0  0  0  0  0  0  0  0  0  0
    4.1590   -3.7840   25.0040 O   0  0  0  0  0  0  0  0  0  0  0  0
    5.9010   -2.6730   26.0550 N   0  0  0  0  0  0  0  0  0  0  0  0
    6.3770   -1.9800   27.1180 C   0  0  0  0  0  0  0  0  0  0  0  0
    5.9690   -1.1480   28.1240 C   0  0  0  0  0  0  0  0  0  0  0  0
    5.6400   -1.6920   29.3360 C   0  0  0  0  0  0  0  0  0  0  0  0
    5.1930   -0.7900   30.4140 C   0  0  0  0  0  0  0  0  0  0  0  0
    4.8840   -1.4850   31.5840 O   0  0  0  0  0  0  0  0  0  0  0  0
    4.6050   -0.5470   32.5660 C   0  0  0  0  0  0  0  0  0  0  0  0
    4.9990    0.6340   30.5330 N   0  0  0  0  0  0  0  0  0  0  0  0
    5.3580    1.1880   29.2240 C   0  0  0  0  0  0  0  0  0  0  0  0
    5.2260    2.6240   29.1420 C   0  0  0  0  0  0  0  0  0  0  0  0
    5.6830    2.7880   27.6450 C   0  0  0  0  0  0  0  0  0  0  0  0
    6.1360    1.7240   26.5900 C   0  0  0  0  0  0  0  0  0  0  0  0
    6.1390    0.4710   27.0170 C   0  0  0  0  0  0  0  0  0  0  0  0
    5.7620    0.2860   28.2720 C   0  0  0  0  0  0  0  0  0  0  0  0
    6.4170   -5.2090   23.7060 C   0  0  0  0  0  0  0  0  0  0  0  0
    6.6450   -5.4160   22.3710 C   0  0  0  0  0  0  0  0  0  0  0  0
  1  2  1  0
  2  3  2  0
  2  4  1  0
  4  5  1  0
  5  6  1  0
  6  7  1  0
  7  8  1  0
  8  9  2  0
  8 10  1  0
 10 11  1  0
 11 12  1  0
 12 13  2  0
 13 14  1  0
 14 15  1  0
 15 16  1  0
 14 17  2  0
 17 18  1  0
 18 19  1  0
 19 20  2  0
 20 21  1  0
 21 22  2  0
 12 23  1  0
 18 23  2  0
 22 23  1  0
  7 24  1  0
  4 25  1  0
 24 25  1  0
M  END
