piperidine-amides-17155-covalent
     RDKit          3D

 20 21  0  0  0  0  0  0  0  0999 V2000
    7.1280   -3.3170   19.2700 C   0  0  0  0  0  0  0  0  0  0  0  0
    6.4280   -4.1360   20.2690 C   0  0  0  0  0  0  0  0  0  0  0  0
    5.3340   -4.6470   19.9240 O   0  0  0  0  0  0  0  0  0  0  0  0
    7.0080   -4.3910   21.5320 N   0  0  0  0  0  0  0  0  0  0  0  0
    6.5550   -5.5140   22.2600 C   0  0  0  0  0  0  0  0  0  0  0  0
    5.9830   -5.1710   23.5510 C   0  0  0  0  0  0  0  0  0  0  0  0
    6.5960   -4.0240   24.2620 C   0  0  0  0  0  0  0  0  0  0  0  0
    5.6430   -3.5830   25.3170 C   0  0  0  0  0  0  0  0  0  0  0  0
    4.8650   -2.6390   25.0940 O   0  0  0  0  0  0  0  0  0  0  0  0
    5.6010   -4.2200   26.5530 N   0  0  0  0  0  0  0  0  0  0  0  0
    6.6440   -4.9330   27.1180 C   0  0  0  0  0  0  0  0  0  0  0  0
    6.6230   -6.2530   27.5820 C   0  0  0  0  0  0  0  0  0  0  0  0
    6.2490   -6.0640   29.0500 C   0  0  0  0  0  0  0  0  0  0  0  0
    4.9960   -5.4900   28.9590 O   0  0  0  0  0  0  0  0  0  0  0  0
    5.1170   -4.1010   28.9790 C   0  0  0  0  0  0  0  0  0  0  0  0
    4.8830   -3.4850   27.5970 C   0  0  0  0  0  0  0  0  0  0  0  0
    3.4530   -3.9110   27.6070 C   0  0  0  0  0  0  0  0  0  0  0  0
    4.9690   -1.9390   27.6330 C   0  0  0  0  0  0  0  0  0  0  0  0
    7.0000   -2.8520   23.3990 C   0  0  0  0  0  0  0  0  0  0  0  0
    7.7790   -3.3740   22.2150 C   0  0  0  0  0  0  0  0  0  0  0  0
  1  2  1  0
  2  3  2  0
  2  4  1  0
  4  5  1  0
  5  6  1  0
  6  7  1  0
  7  8  1  0
  8  9  2  0
  8 10  1  0
 10 11  1  0
 11 12  1  0
 12 13  1  0
 13 14  1  0
 14 15  1  0
 10 16  1  0
 15 16  1  0
 16 17  1  0
 16 18  1  0
  7 19  1  0
  4 20  1  0
 19 20  1  0
M  END
