piperidine-amides-35397-covalent
     RDKit          3D

 35 38  0  0  0  0  0  0  0  0999 V2000
    7.0520   -3.3050   19.2250 C   0  0  0  0  0  0  0  0  0  0  0  0
    6.2560   -4.1150   20.1880 C   0  0  0  0  0  0  0  0  0  0  0  0
    5.1690   -4.5360   19.8360 O   0  0  0  0  0  0  0  0  0  0  0  0
    6.7800   -4.4010   21.4280 N   0  0  0  0  0  0  0  0  0  0  0  0
    6.4550   -5.6460   22.1000 C   0  0  0  0  0  0  0  0  0  0  0  0
    5.8790   -5.3720   23.4650 C   0  0  0  0  0  0  0  0  0  0  0  0
    6.8700   -4.4670   24.1730 C   0  0  0  0  0  0  0  0  0  0  0  0
    6.4430   -4.2330   25.5720 C   0  0  0  0  0  0  0  0  0  0  0  0
    5.2310   -4.2730   25.8680 O   0  0  0  0  0  0  0  0  0  0  0  0
    7.4420   -3.9060   26.5580 N   0  0  0  0  0  0  0  0  0  0  0  0
    6.6960   -3.0110   27.5020 C   0  0  0  0  0  0  0  0  0  0  0  0
    6.7490   -4.2750   28.3020 C   0  0  0  0  0  0  0  0  0  0  0  0
    7.4080   -5.2730   27.7760 C   0  0  0  0  0  0  0  0  0  0  0  0
    7.9070   -4.8970   26.5790 C   0  0  0  0  0  0  0  0  0  0  0  0
    7.7160   -3.6000   26.0080 C   0  0  0  0  0  0  0  0  0  0  0  0
    6.9740   -2.2740   26.4420 C   0  0  0  0  0  0  0  0  0  0  0  0
    7.5580   -2.1690   25.2710 N   0  0  0  0  0  0  0  0  0  0  0  0
    8.8730   -2.1210   25.5310 C   0  0  0  0  0  0  0  0  0  0  0  0
    8.5000   -0.8450   25.2120 O   0  0  0  0  0  0  0  0  0  0  0  0
    8.7520   -3.5770   25.7810 C   0  0  1  0  0  0  0  0  0  0  0  0
   10.2340   -4.0350   26.0250 C   0  0  0  0  0  0  0  0  0  0  0  0
   11.5230   -3.1860   25.5640 C   0  0  0  0  0  0  0  0  0  0  0  0
   11.3370   -2.0190   25.1730 O   0  0  0  0  0  0  0  0  0  0  0  0
   13.0610   -3.7520   25.5630 N   0  0  0  0  0  0  0  0  0  0  0  0
   13.9730   -4.6090   26.5030 C   0  0  0  0  0  0  0  0  0  0  0  0
   13.8610   -4.5390   27.5880 C   0  0  0  0  0  0  0  0  0  0  0  0
   14.4840   -5.0260   28.8790 C   0  0  0  0  0  0  0  0  0  0  0  0
   15.4890   -5.8080   29.2460 C   0  0  0  0  0  0  0  0  0  0  0  0
   16.6460   -6.0590   31.3230 O   0  0  0  0  0  0  0  0  0  0  0  0
   17.0090   -5.4990   32.6630 C   0  0  0  0  0  0  0  0  0  0  0  0
   16.9720   -6.2250   34.0130 C   0  0  0  0  0  0  0  0  0  0  0  0
   15.7110   -6.2050   27.7080 C   0  0  0  0  0  0  0  0  0  0  0  0
   14.8380   -5.5060   26.5810 C   0  0  0  0  0  0  0  0  0  0  0  0
    7.0920   -3.2180   23.4480 C   0  0  0  0  0  0  0  0  0  0  0  0
    7.5780   -3.4400   22.0900 C   0  0  0  0  0  0  0  0  0  0  0  0
  1  2  1  0
  2  3  2  0
  2  4  1  0
  4  5  1  0
  5  6  1  0
  6  7  1  0
  7  8  1  0
  8  9  2  0
  8 10  1  0
 10 11  1  0
 11 12  2  0
 12 13  1  0
 13 14  2  0
 14 15  1  0
 11 16  1  0
 15 16  2  0
 16 17  1  0
 17 18  1  0
 18 19  2  0
 10 20  1  0
 18 20  1  0
 20 21  1  1
 21 22  1  0
 22 23  2  0
 22 24  1  0
 24 25  1  0
 25 26  2  0
 26 27  1  0
 27 28  2  0
 28 29  1  0
 29 30  1  0
 30 31  1  0
 28 32  1  0
 25 33  1  0
 32 33  2  0
  7 34  1  0
  4 35  1  0
 34 35  1  0
M  END
