piperidine-amides-4003-covalent
     RDKit          3D

 30 32  0  0  0  0  0  0  0  0999 V2000
    7.1480   -3.3290   19.2510 C   0  0  0  0  0  0  0  0  0  0  0  0
    6.3980   -4.1040   20.2480 C   0  0  0  0  0  0  0  0  0  0  0  0
    5.2940   -4.5780   19.8940 O   0  0  0  0  0  0  0  0  0  0  0  0
    6.9390   -4.3590   21.5260 N   0  0  0  0  0  0  0  0  0  0  0  0
    7.5960   -3.2630   22.1520 C   0  0  0  0  0  0  0  0  0  0  0  0
    7.0090   -2.8530   23.4150 C   0  0  0  0  0  0  0  0  0  0  0  0
    6.4510   -3.9390   24.2520 C   0  0  0  0  0  0  0  0  0  0  0  0
    5.7670   -3.3640   25.4500 C   0  0  0  0  0  0  0  0  0  0  0  0
    4.5260   -3.2460   25.4450 O   0  0  0  0  0  0  0  0  0  0  0  0
    6.4840   -2.9420   26.5850 N   0  0  0  0  0  0  0  0  0  0  0  0
    6.3910   -1.6760   27.2040 C   0  0  0  0  0  0  0  0  0  0  0  0
    5.9010   -0.4250   26.5840 C   0  0  0  0  0  0  0  0  0  0  0  0
    5.8220    0.9280   27.3520 C   0  0  0  0  0  0  0  0  0  0  0  0
    6.2080    1.0140   28.6670 C   0  0  0  0  0  0  0  0  0  0  0  0
    6.1460    2.1930   29.3920 O   0  0  0  0  0  0  0  0  0  0  0  0
    5.1200    3.0440   29.0020 C   0  0  0  0  0  0  0  0  0  0  0  0
    4.4020    3.4080   30.1430 F   0  0  0  0  0  0  0  0  0  0  0  0
    5.5460    4.1340   28.2570 F   0  0  0  0  0  0  0  0  0  0  0  0
    6.7100   -0.2750   29.2920 C   0  0  0  0  0  0  0  0  0  0  0  0
    7.0820   -0.0060   30.7590 C   0  0  0  0  0  0  0  0  0  0  0  0
    8.5170    0.2330   31.2050 C   0  0  0  0  0  0  0  0  0  0  0  0
    8.6700    0.4710   32.6960 C   0  0  0  0  0  0  0  0  0  0  0  0
    7.4160    0.4440   33.5560 C   0  0  0  0  0  0  0  0  0  0  0  0
    7.6930    0.6420   34.7610 O   0  0  0  0  0  0  0  0  0  0  0  0
    8.5270   -0.2540   35.4590 C   0  0  0  0  0  0  0  0  0  0  0  0
    6.1970    0.2160   32.9770 C   0  0  0  0  0  0  0  0  0  0  0  0
    6.0000   -0.0040   31.6290 C   0  0  0  0  0  0  0  0  0  0  0  0
    6.8030   -1.5050   28.6380 C   0  0  0  0  0  0  0  0  0  0  0  0
    5.5850   -4.8720   23.4690 C   0  0  0  0  0  0  0  0  0  0  0  0
    6.3710   -5.4160   22.2920 C   0  0  0  0  0  0  0  0  0  0  0  0
  1  2  1  0
  2  3  2  0
  2  4  1  0
  4  5  1  0
  5  6  1  0
  6  7  1  0
  7  8  1  0
  8  9  2  0
  8 10  1  0
 10 11  1  0
 11 12  2  0
 12 13  1  0
 13 14  2  0
 14 15  1  0
 15 16  1  0
 16 17  1  0
 16 18  1  0
 14 19  1  0
 19 20  1  0
 20 21  2  0
 21 22  1  0
 22 23  2  0
 23 24  1  0
 24 25  1  0
 23 26  1  0
 20 27  1  0
 26 27  2  0
 11 28  1  0
 19 28  2  0
  7 29  1  0
  4 30  1  0
 29 30  1  0
M  END
