piperidine-amides-27113-covalent
     RDKit          3D

 26 29  0  0  0  0  0  0  0  0999 V2000
    7.0530   -3.3470   19.3330 C   0  0  0  0  0  0  0  0  0  0  0  0
    6.3970   -4.1770   20.3470 C   0  0  0  0  0  0  0  0  0  0  0  0
    5.3790   -4.8200   19.9740 O   0  0  0  0  0  0  0  0  0  0  0  0
    6.9200   -4.2680   21.6400 N   0  0  0  0  0  0  0  0  0  0  0  0
    6.7640   -5.4840   22.4100 C   0  0  0  0  0  0  0  0  0  0  0  0
    6.1640   -5.1320   23.7480 C   0  0  0  0  0  0  0  0  0  0  0  0
    6.1450   -3.6440   23.9600 C   0  0  0  0  0  0  0  0  0  0  0  0
    5.7110   -3.2700   25.3250 C   0  0  0  0  0  0  0  0  0  0  0  0
    4.9170   -2.3150   25.4380 O   0  0  0  0  0  0  0  0  0  0  0  0
    6.1050   -3.9380   26.4860 N   0  0  0  0  0  0  0  0  0  0  0  0
    5.6640   -5.2770   26.6350 C   0  0  0  0  0  0  0  0  0  0  0  0
    4.9620   -5.4340   27.9380 C   0  0  0  0  0  0  0  0  0  0  0  0
    5.1930   -4.8790   29.1340 C   0  0  0  0  0  0  0  0  0  0  0  0
    4.4820   -5.0450   30.3060 C   0  0  0  0  0  0  0  0  0  0  0  0
    3.4540   -4.2120   30.7320 C   0  0  0  0  0  0  0  0  0  0  0  0
    3.0470   -4.7140   31.8770 N   0  0  0  0  0  0  0  0  0  0  0  0
    3.7100   -5.7920   32.2400 C   0  0  0  0  0  0  0  0  0  0  0  0
    3.4970   -6.3870   33.2370 N   0  0  0  0  0  0  0  0  0  0  0  0
    4.3750   -7.5340   33.4040 C   0  0  0  0  0  0  0  0  0  0  0  0
    5.4810   -8.0820   32.5380 C   0  0  0  0  0  0  0  0  0  0  0  0
    5.6160   -7.2180   31.3120 C   0  0  0  0  0  0  0  0  0  0  0  0
    4.6610   -6.0710   31.2640 C   0  0  0  0  0  0  0  0  0  0  0  0
    6.4040   -4.0130   28.8080 C   0  0  0  0  0  0  0  0  0  0  0  0
    6.2110   -3.2190   27.6930 C   0  0  0  0  0  0  0  0  0  0  0  0
    7.5280   -3.1140   23.6710 C   0  0  0  0  0  0  0  0  0  0  0  0
    7.7990   -3.2320   22.1830 C   0  0  0  0  0  0  0  0  0  0  0  0
  1  2  1  0
  2  3  2  0
  2  4  1  0
  4  5  1  0
  5  6  1  0
  6  7  1  0
  7  8  1  0
  8  9  2  0
  8 10  1  0
 10 11  1  0
 11 12  1  0
 12 13  2  0
 13 14  1  0
 14 15  2  0
 15 16  1  0
 16 17  1  0
 17 18  1  0
 18 19  2  0
 19 20  1  0
 20 21  2  0
 14 22  1  0
 17 22  2  0
 21 22  1  0
 13 23  1  0
 10 24  1  0
 23 24  1  0
  7 25  1  0
  4 26  1  0
 25 26  1  0
M  END
