piperidine-amides-32421-covalent
     RDKit          3D

 28 30  0  0  0  0  0  0  0  0999 V2000
    7.0160   -3.3500   19.3420 C   0  0  0  0  0  0  0  0  0  0  0  0
    6.3010   -4.2310   20.3120 C   0  0  0  0  0  0  0  0  0  0  0  0
    5.2830   -4.8340   19.9520 O   0  0  0  0  0  0  0  0  0  0  0  0
    6.8100   -4.3980   21.6060 N   0  0  0  0  0  0  0  0  0  0  0  0
    6.6420   -5.6400   22.3350 C   0  0  0  0  0  0  0  0  0  0  0  0
    6.1860   -5.3470   23.7820 C   0  0  0  0  0  0  0  0  0  0  0  0
    6.0780   -3.8750   23.9700 C   0  0  0  0  0  0  0  0  0  0  0  0
    5.6720   -3.3960   25.3210 C   0  0  0  0  0  0  0  0  0  0  0  0
    4.7850   -2.5380   25.3150 O   0  0  0  0  0  0  0  0  0  0  0  0
    6.2430   -3.8750   26.5160 N   0  0  0  0  0  0  0  0  0  0  0  0
    6.9420   -5.0850   26.6470 C   0  0  0  0  0  0  0  0  0  0  0  0
    7.0420   -5.4250   27.9310 C   0  0  0  0  0  0  0  0  0  0  0  0
    6.2590   -4.4970   28.6030 C   0  0  0  0  0  0  0  0  0  0  0  0
    5.9020   -3.3810   27.8270 C   0  0  1  0  0  0  0  0  0  0  0  0
    6.5090   -2.1170   28.3260 C   0  0  0  0  0  0  0  0  0  0  0  0
    4.5390   -3.0840   27.8450 C   0  0  0  0  0  0  0  0  0  0  0  0
    3.5210   -4.2120   27.6090 C   0  0  0  0  0  0  0  0  0  0  0  0
    3.1340   -4.6150   26.3190 C   0  0  0  0  0  0  0  0  0  0  0  0
    2.1690   -5.6750   25.8550 C   0  0  0  0  0  0  0  0  0  0  0  0
    1.6320   -6.2950   27.1250 C   0  0  0  0  0  0  0  0  0  0  0  0
    2.0520   -5.8530   28.3320 C   0  0  0  0  0  0  0  0  0  0  0  0
    1.0920   -6.9250   28.9130 C   0  0  0  0  0  0  0  0  0  0  0  0
    1.4400   -8.1670   28.5270 F   0  0  0  0  0  0  0  0  0  0  0  0
   -0.2210   -6.6830   28.5420 F   0  0  0  0  0  0  0  0  0  0  0  0
    1.0560   -6.8230   30.3180 F   0  0  0  0  0  0  0  0  0  0  0  0
    2.9390   -4.8780   28.6560 C   0  0  0  0  0  0  0  0  0  0  0  0
    7.3740   -3.2310   23.6320 C   0  0  0  0  0  0  0  0  0  0  0  0
    7.5810   -3.3020   22.1820 C   0  0  0  0  0  0  0  0  0  0  0  0
  1  2  1  0
  2  3  2  0
  2  4  1  0
  4  5  1  0
  5  6  1  0
  6  7  1  0
  7  8  1  0
  8  9  2  0
  8 10  1  0
 10 11  1  0
 11 12  1  0
 12 13  1  0
 10 14  1  0
 13 14  1  0
 14 15  1  1
 14 16  1  0
 16 17  1  0
 17 18  2  0
 18 19  1  0
 19 20  2  0
 20 21  1  0
 21 22  1  0
 22 23  1  0
 22 24  1  0
 22 25  1  0
 17 26  1  0
 21 26  2  0
  7 27  1  0
  4 28  1  0
 27 28  1  0
M  END
