piperidine-amides-32272-covalent
     RDKit          3D

 27 29  0  0  0  0  0  0  0  0999 V2000
    7.0450   -3.3590   19.3780 C   0  0  0  0  0  0  0  0  0  0  0  0
    6.3780   -4.2540   20.3690 C   0  0  0  0  0  0  0  0  0  0  0  0
    5.3820   -4.9020   19.9950 O   0  0  0  0  0  0  0  0  0  0  0  0
    6.9080   -4.3860   21.6800 N   0  0  0  0  0  0  0  0  0  0  0  0
    7.6790   -3.3620   22.3480 C   0  0  0  0  0  0  0  0  0  0  0  0
    6.7650   -2.7230   23.4020 C   0  0  0  0  0  0  0  0  0  0  0  0
    6.2940   -3.7800   24.3540 C   0  0  0  0  0  0  0  0  0  0  0  0
    5.2560   -3.2670   25.3180 C   0  0  0  0  0  0  0  0  0  0  0  0
    4.4270   -2.5110   24.8180 O   0  0  0  0  0  0  0  0  0  0  0  0
    5.1940   -3.6090   26.6980 N   0  0  0  0  0  0  0  0  0  0  0  0
    4.7580   -2.8000   27.7520 C   0  0  0  0  0  0  0  0  0  0  0  0
    5.0130   -3.2080   29.0330 C   0  0  0  0  0  0  0  0  0  0  0  0
    4.8940   -4.6490   29.0120 N   0  0  0  0  0  0  0  0  0  0  0  0
    3.7190   -5.3750   28.8140 C   0  0  0  0  0  0  0  0  0  0  0  0
    3.4510   -6.1270   29.9370 C   0  0  0  0  0  0  0  0  0  0  0  0
    3.3830   -7.6220   30.0280 C   0  0  0  0  0  0  0  0  0  0  0  0
    3.0140   -8.0310   31.6950 S   0  0  0  0  0  0  0  0  0  0  0  0
    2.9560   -6.3820   32.2290 C   0  0  0  0  0  0  0  0  0  0  0  0
    2.6560   -6.2010   33.7160 C   0  0  2  0  0  0  0  0  0  0  0  0
    3.7780   -6.1810   34.5250 C   0  0  0  0  0  0  0  0  0  0  0  0
    1.7410   -7.1990   33.9920 O   0  0  0  0  0  0  0  0  0  0  0  0
    1.6270   -7.8820   35.2120 C   0  0  0  0  0  0  0  0  0  0  0  0
    3.1950   -5.5110   31.2230 N   0  0  0  0  0  0  0  0  0  0  0  0
    5.9100   -5.2360   28.2190 C   0  0  0  0  0  0  0  0  0  0  0  0
    6.2200   -4.4790   27.1220 C   0  0  0  0  0  0  0  0  0  0  0  0
    5.7290   -5.0200   23.7040 C   0  0  0  0  0  0  0  0  0  0  0  0
    6.5410   -5.5100   22.5160 C   0  0  0  0  0  0  0  0  0  0  0  0
  1  2  1  0
  2  3  2  0
  2  4  1  0
  4  5  1  0
  5  6  1  0
  6  7  1  0
  7  8  1  0
  8  9  2  0
  8 10  1  0
 10 11  1  0
 11 12  1  0
 12 13  1  0
 13 14  1  0
 14 15  1  0
 15 16  2  0
 16 17  1  0
 17 18  1  0
 18 19  1  0
 19 20  1  1
 19 21  1  0
 21 22  1  0
 15 23  1  0
 18 23  2  0
 13 24  1  0
 10 25  1  0
 24 25  1  0
  7 26  1  0
  4 27  1  0
 26 27  1  0
M  END
