piperidine-amides-14844-covalent
     RDKit          3D

 21 22  0  0  0  0  0  0  0  0999 V2000
    7.0860   -3.2760   19.2670 C   0  0  0  0  0  0  0  0  0  0  0  0
    6.3670   -4.0550   20.2750 C   0  0  0  0  0  0  0  0  0  0  0  0
    5.3230   -4.6380   19.9210 O   0  0  0  0  0  0  0  0  0  0  0  0
    6.8650   -4.1840   21.6060 N   0  0  0  0  0  0  0  0  0  0  0  0
    6.5900   -5.4060   22.3190 C   0  0  0  0  0  0  0  0  0  0  0  0
    6.0690   -5.1180   23.7070 C   0  0  0  0  0  0  0  0  0  0  0  0
    5.9590   -3.6170   23.8560 C   0  0  0  0  0  0  0  0  0  0  0  0
    5.5640   -3.2140   25.2480 C   0  0  0  0  0  0  0  0  0  0  0  0
    4.3850   -2.9100   25.3970 O   0  0  0  0  0  0  0  0  0  0  0  0
    6.5210   -3.2040   26.2510 N   0  0  0  0  0  0  0  0  0  0  0  0
    6.2120   -3.5360   27.6050 C   0  0  0  0  0  0  0  0  0  0  0  0
    5.9920   -4.9000   27.8980 C   0  0  0  0  0  0  0  0  0  0  0  0
    5.6140   -5.7920   26.9220 C   0  0  0  0  0  0  0  0  0  0  0  0
    4.4110   -6.4620   27.0460 C   0  0  0  0  0  0  0  0  0  0  0  0
    3.9750   -6.9080   28.3070 N   0  0  0  0  0  0  0  0  0  0  0  0
    4.9300   -7.3490   29.2550 C   0  0  0  0  0  0  0  0  0  0  0  0
    4.0220   -7.6960   30.3810 C   0  0  0  0  0  0  0  0  0  0  0  0
    2.7380   -7.4750   30.0850 N   0  0  0  0  0  0  0  0  0  0  0  0
    2.7220   -6.9830   28.7900 N   0  0  0  0  0  0  0  0  0  0  0  0
    7.2030   -2.8850   23.5280 C   0  0  0  0  0  0  0  0  0  0  0  0
    7.6550   -3.1100   22.1270 C   0  0  0  0  0  0  0  0  0  0  0  0
  1  2  1  0
  2  3  2  0
  2  4  1  0
  4  5  1  0
  5  6  1  0
  6  7  1  0
  7  8  1  0
  8  9  2  0
  8 10  1  0
 10 11  1  0
 11 12  1  0
 12 13  1  0
 13 14  1  0
 14 15  1  0
 15 16  1  0
 16 17  2  0
 17 18  1  0
 15 19  1  0
 18 19  2  0
  7 20  1  0
  4 21  1  0
 20 21  1  0
M  END
