piperidine-amides-15302-covalent
     RDKit          3D

 16 16  0  0  0  0  0  0  0  0999 V2000
    7.0990   -3.3130   19.2900 C   0  0  0  0  0  0  0  0  0  0  0  0
    6.3200   -4.0540   20.2900 C   0  0  0  0  0  0  0  0  0  0  0  0
    5.2990   -4.6820   19.9340 O   0  0  0  0  0  0  0  0  0  0  0  0
    6.7340   -4.1080   21.6310 N   0  0  0  0  0  0  0  0  0  0  0  0
    7.6720   -3.1070   22.1310 C   0  0  0  0  0  0  0  0  0  0  0  0
    7.4070   -2.9200   23.6280 C   0  0  0  0  0  0  0  0  0  0  0  0
    6.0600   -3.5480   23.8590 C   0  0  0  0  0  0  0  0  0  0  0  0
    5.5240   -3.2690   25.2060 C   0  0  0  0  0  0  0  0  0  0  0  0
    4.2890   -3.1200   25.3150 O   0  0  0  0  0  0  0  0  0  0  0  0
    6.3550   -3.1800   26.3430 N   0  0  0  0  0  0  0  0  0  0  0  0
    6.7020   -1.8580   26.7900 C   0  0  0  0  0  0  0  0  0  0  0  0
    5.4770   -0.9770   26.6940 C   0  0  0  0  0  0  0  0  0  0  0  0
    6.0840   -4.1920   27.3500 C   0  0  0  0  0  0  0  0  0  0  0  0
    6.6990   -4.1100   28.5660 C   0  0  0  0  0  0  0  0  0  0  0  0
    6.0590   -5.0250   23.6210 C   0  0  0  0  0  0  0  0  0  0  0  0
    6.6100   -5.3350   22.3980 C   0  0  0  0  0  0  0  0  0  0  0  0
  1  2  1  0
  2  3  2  0
  2  4  1  0
  4  5  1  0
  5  6  1  0
  6  7  1  0
  7  8  1  0
  8  9  2  0
  8 10  1  0
 10 11  1  0
 11 12  1  0
 10 13  1  0
 13 14  1  0
  7 15  1  0
  4 16  1  0
 15 16  1  0
M  END
