piperidine-amides-29369-covalent
     RDKit          3D

 27 30  0  0  0  0  0  0  0  0999 V2000
    7.0210   -3.3730   19.4150 C   0  0  0  0  0  0  0  0  0  0  0  0
    6.4120   -4.2740   20.3900 C   0  0  0  0  0  0  0  0  0  0  0  0
    5.4180   -4.9210   20.0080 O   0  0  0  0  0  0  0  0  0  0  0  0
    6.9690   -4.4370   21.7010 N   0  0  0  0  0  0  0  0  0  0  0  0
    7.6120   -3.3350   22.3460 C   0  0  0  0  0  0  0  0  0  0  0  0
    6.6740   -2.7460   23.3690 C   0  0  0  0  0  0  0  0  0  0  0  0
    6.2020   -3.8290   24.3380 C   0  0  0  0  0  0  0  0  0  0  0  0
    5.2450   -3.2030   25.3530 C   0  0  0  0  0  0  0  0  0  0  0  0
    4.6060   -2.2500   24.9410 O   0  0  0  0  0  0  0  0  0  0  0  0
    5.1270   -3.7240   26.6520 N   0  0  0  0  0  0  0  0  0  0  0  0
    4.8800   -2.8850   27.7820 C   0  0  0  0  0  0  0  0  0  0  0  0
    5.3370   -3.3620   29.0500 C   0  0  0  0  0  0  0  0  0  0  0  0
    6.0470   -4.5440   29.1340 C   0  0  0  0  0  0  0  0  0  0  0  0
    6.0530   -5.3630   28.0600 C   0  0  1  0  0  0  0  0  0  0  0  0
    4.8640   -6.2560   28.2890 C   0  0  0  0  0  0  0  0  0  0  0  0
    4.7140   -6.8370   29.5030 N   0  0  0  0  0  0  0  0  0  0  0  0
    5.6660   -7.0000   30.4140 C   0  0  0  0  0  0  0  0  0  0  0  0
    5.1200   -7.6110   31.4880 N   0  0  0  0  0  0  0  0  0  0  0  0
    3.7330   -7.8450   31.2050 C   0  0  0  0  0  0  0  0  0  0  0  0
    2.6530   -8.4780   32.0020 C   0  0  0  0  0  0  0  0  0  0  0  0
    1.3070   -8.4870   31.2190 C   0  0  0  0  0  0  0  0  0  0  0  0
    1.1480   -7.9600   29.9290 C   0  0  0  0  0  0  0  0  0  0  0  0
    2.1940   -7.3720   29.2210 C   0  0  0  0  0  0  0  0  0  0  0  0
    3.4880   -7.3650   29.9720 C   0  0  0  0  0  0  0  0  0  0  0  0
    6.0860   -4.6530   26.9170 C   0  0  0  0  0  0  0  0  0  0  0  0
    5.5120   -4.9580   23.5640 C   0  0  0  0  0  0  0  0  0  0  0  0
    6.4750   -5.5280   22.5010 C   0  0  0  0  0  0  0  0  0  0  0  0
  1  2  1  0
  2  3  2  0
  2  4  1  0
  4  5  1  0
  5  6  1  0
  6  7  1  0
  7  8  1  0
  8  9  2  0
  8 10  1  0
 10 11  1  0
 11 12  1  0
 12 13  1  0
 13 14  1  0
 14 15  1  6
 15 16  1  0
 16 17  1  0
 17 18  2  0
 18 19  1  0
 19 20  1  0
 20 21  2  0
 21 22  1  0
 22 23  2  0
 16 24  1  0
 19 24  2  0
 23 24  1  0
 10 25  1  0
 14 25  1  0
  7 26  1  0
  4 27  1  0
 26 27  1  0
M  END
