piperidine-amides-21611-covalent
     RDKit          3D

 23 25  0  0  0  0  0  0  0  0999 V2000
    7.0250   -3.3680   19.3920 C   0  0  0  0  0  0  0  0  0  0  0  0
    6.4040   -4.2630   20.3790 C   0  0  0  0  0  0  0  0  0  0  0  0
    5.3710   -4.8670   19.9860 O   0  0  0  0  0  0  0  0  0  0  0  0
    6.9590   -4.4700   21.6530 N   0  0  0  0  0  0  0  0  0  0  0  0
    6.6790   -5.6400   22.4420 C   0  0  0  0  0  0  0  0  0  0  0  0
    6.4880   -5.1630   23.8550 C   0  0  0  0  0  0  0  0  0  0  0  0
    5.8740   -3.7880   23.8780 C   0  0  0  0  0  0  0  0  0  0  0  0
    5.3850   -3.3840   25.2260 C   0  0  0  0  0  0  0  0  0  0  0  0
    4.7310   -2.3260   25.2900 O   0  0  0  0  0  0  0  0  0  0  0  0
    5.5830   -4.0810   26.4300 N   0  0  0  0  0  0  0  0  0  0  0  0
    4.8720   -3.6490   27.6110 C   0  0  0  0  0  0  0  0  0  0  0  0
    5.5890   -4.1590   28.8640 C   0  0  0  0  0  0  0  0  0  0  0  0
    6.2000   -5.3850   28.9490 C   0  0  0  0  0  0  0  0  0  0  0  0
    5.4470   -6.5140   29.2130 C   0  0  0  0  0  0  0  0  0  0  0  0
    5.1550   -6.6930   30.5580 C   0  0  0  0  0  0  0  0  0  0  0  0
    5.7270   -7.5590   31.4240 C   0  0  0  0  0  0  0  0  0  0  0  0
    5.1000   -7.3380   32.5830 N   0  0  0  0  0  0  0  0  0  0  0  0
    4.1490   -6.3550   32.4480 C   0  0  0  0  0  0  0  0  0  0  0  0
    4.1390   -5.9000   31.1560 N   0  0  0  0  0  0  0  0  0  0  0  0
    7.0270   -5.4890   27.8600 C   0  0  0  0  0  0  0  0  0  0  0  0
    6.8660   -4.3980   26.8190 C   0  0  0  0  0  0  0  0  0  0  0  0
    6.7880   -2.7060   23.2720 C   0  0  0  0  0  0  0  0  0  0  0  0
    7.7340   -3.4270   22.3240 C   0  0  0  0  0  0  0  0  0  0  0  0
  1  2  1  0
  2  3  2  0
  2  4  1  0
  4  5  1  0
  5  6  1  0
  6  7  1  0
  7  8  1  0
  8  9  2  0
  8 10  1  0
 10 11  1  0
 11 12  1  0
 12 13  1  0
 13 14  1  0
 14 15  1  0
 15 16  2  0
 16 17  1  0
 17 18  1  0
 15 19  1  0
 18 19  2  0
 13 20  1  0
 10 21  1  0
 20 21  1  0
  7 22  1  0
  4 23  1  0
 22 23  1  0
M  END
