piperidine-amides-28963-covalent
     RDKit          3D

 27 29  0  0  0  0  0  0  0  0999 V2000
    7.1030   -3.2800   19.2320 C   0  0  0  0  0  0  0  0  0  0  0  0
    6.3940   -4.0670   20.2390 C   0  0  0  0  0  0  0  0  0  0  0  0
    5.3300   -4.6230   19.9150 O   0  0  0  0  0  0  0  0  0  0  0  0
    6.9510   -4.2270   21.5290 N   0  0  0  0  0  0  0  0  0  0  0  0
    6.5470   -5.3440   22.3230 C   0  0  0  0  0  0  0  0  0  0  0  0
    5.6860   -4.8520   23.4460 C   0  0  0  0  0  0  0  0  0  0  0  0
    6.5080   -3.8630   24.2510 C   0  0  0  0  0  0  0  0  0  0  0  0
    5.7090   -3.3830   25.4220 C   0  0  0  0  0  0  0  0  0  0  0  0
    4.5070   -3.2270   25.2210 O   0  0  0  0  0  0  0  0  0  0  0  0
    6.3540   -3.1400   26.6310 N   0  0  0  0  0  0  0  0  0  0  0  0
    6.1740   -4.0010   27.7550 C   0  0  0  0  0  0  0  0  0  0  0  0
    5.7630   -5.3170   27.4710 C   0  0  0  0  0  0  0  0  0  0  0  0
    5.2590   -6.0500   28.5040 C   0  0  0  0  0  0  0  0  0  0  0  0
    5.8630   -5.9380   29.7480 C   0  0  0  0  0  0  0  0  0  0  0  0
    5.3210   -6.7420   30.9070 C   0  0  0  0  0  0  0  0  0  0  0  0
    4.1100   -7.6830   30.7350 C   0  0  0  0  0  0  0  0  0  0  0  0
    3.5430   -7.7330   29.3830 C   0  0  0  0  0  0  0  0  0  0  0  0
    4.1800   -6.8870   28.3400 C   0  0  0  0  0  0  0  0  0  0  0  0
    6.5000   -1.7250   26.9800 C   0  0  0  0  0  0  0  0  0  0  0  0
    6.2510   -1.3530   28.2830 C   0  0  0  0  0  0  0  0  0  0  0  0
    4.9690   -1.1940   28.7670 C   0  0  0  0  0  0  0  0  0  0  0  0
    4.6520   -0.7820   30.1700 C   0  0  0  0  0  0  0  0  0  0  0  0
    5.6510   -0.5540   30.9970 N   0  0  0  0  0  0  0  0  0  0  0  0
    6.9720   -0.7010   30.5670 C   0  0  0  0  0  0  0  0  0  0  0  0
    7.3550   -1.1230   29.1470 C   0  0  0  0  0  0  0  0  0  0  0  0
    6.9380   -2.6940   23.3900 C   0  0  0  0  0  0  0  0  0  0  0  0
    7.7270   -3.2030   22.1870 C   0  0  0  0  0  0  0  0  0  0  0  0
  1  2  1  0
  2  3  2  0
  2  4  1  0
  4  5  1  0
  5  6  1  0
  6  7  1  0
  7  8  1  0
  8  9  2  0
  8 10  1  0
 10 11  1  0
 11 12  1  0
 12 13  1  0
 13 14  2  0
 14 15  1  0
 15 16  2  0
 16 17  1  0
 13 18  1  0
 17 18  2  0
 10 19  1  0
 19 20  1  0
 20 21  2  0
 21 22  1  0
 22 23  2  0
 23 24  1  0
 20 25  1  0
 24 25  2  0
  7 26  1  0
  4 27  1  0
 26 27  1  0
M  END
