piperidine-amides-10128-covalent
     RDKit          3D

 25 27  0  0  0  0  0  0  0  0999 V2000
    7.0040   -3.3770   19.4010 C   0  0  0  0  0  0  0  0  0  0  0  0
    6.3790   -4.2580   20.3940 C   0  0  0  0  0  0  0  0  0  0  0  0
    5.3890   -4.9280   19.9950 O   0  0  0  0  0  0  0  0  0  0  0  0
    6.9000   -4.3600   21.6900 N   0  0  0  0  0  0  0  0  0  0  0  0
    6.4720   -5.4140   22.5850 C   0  0  0  0  0  0  0  0  0  0  0  0
    5.6810   -4.7800   23.7060 C   0  0  0  0  0  0  0  0  0  0  0  0
    6.0180   -3.3140   23.8000 C   0  0  0  0  0  0  0  0  0  0  0  0
    5.5490   -2.6940   25.0980 C   0  0  0  0  0  0  0  0  0  0  0  0
    4.5300   -3.2240   25.6030 O   0  0  0  0  0  0  0  0  0  0  0  0
    6.1320   -1.5610   25.8240 N   0  0  0  0  0  0  0  0  0  0  0  0
    6.7180   -2.0020   27.0290 C   0  0  0  0  0  0  0  0  0  0  0  0
    5.3290   -1.5400   27.0070 C   0  0  0  0  0  0  0  0  0  0  0  0
    5.3240   -1.0750   25.5800 N   0  0  0  0  0  0  0  0  0  0  0  0
    6.5860   -1.2920   24.9900 N   0  0  0  0  0  0  0  0  0  0  0  0
    6.7420   -0.8680   23.7000 C   0  0  0  0  0  0  0  0  0  0  0  0
    5.5450   -0.8050   22.9930 C   0  0  0  0  0  0  0  0  0  0  0  0
    5.4760   -0.3890   21.6580 C   0  0  0  0  0  0  0  0  0  0  0  0
    6.5740   -0.0040   20.9180 C   0  0  0  0  0  0  0  0  0  0  0  0
    6.2530    0.3750   19.6080 F   0  0  0  0  0  0  0  0  0  0  0  0
    7.7800   -0.0430   21.5490 C   0  0  0  0  0  0  0  0  0  0  0  0
    7.8700   -0.4860   22.9800 C   0  0  0  0  0  0  0  0  0  0  0  0
    7.4840   -1.8960   25.8620 C   0  0  0  0  0  0  0  0  0  0  0  0
    8.8980   -2.2680   25.5710 C   0  0  0  0  0  0  0  0  0  0  0  0
    7.4970   -3.1840   23.5890 C   0  0  0  0  0  0  0  0  0  0  0  0
    7.7660   -3.3040   22.2470 C   0  0  0  0  0  0  0  0  0  0  0  0
  1  2  1  0
  2  3  2  0
  2  4  1  0
  4  5  1  0
  5  6  1  0
  6  7  1  0
  7  8  1  0
  8  9  2  0
  8 10  1  0
 10 11  1  0
 11 12  1  0
 12 13  2  0
 13 14  1  0
 14 15  1  0
 15 16  2  0
 16 17  1  0
 17 18  2  0
 18 19  1  0
 18 20  1  0
 15 21  1  0
 20 21  2  0
 11 22  2  0
 14 22  1  0
 22 23  1  0
  7 24  1  0
  4 25  1  0
 24 25  1  0
M  END
