piperidine-amides-3405-covalent
     RDKit          3D

 27 29  0  0  0  0  0  0  0  0999 V2000
    7.1070   -3.2730   19.2180 C   0  0  0  0  0  0  0  0  0  0  0  0
    6.3580   -4.0140   20.2250 C   0  0  0  0  0  0  0  0  0  0  0  0
    5.3100   -4.5790   19.9050 O   0  0  0  0  0  0  0  0  0  0  0  0
    6.8530   -4.1420   21.5700 N   0  0  0  0  0  0  0  0  0  0  0  0
    7.7360   -3.1290   22.1260 C   0  0  0  0  0  0  0  0  0  0  0  0
    7.3900   -2.8310   23.5580 C   0  0  0  0  0  0  0  0  0  0  0  0
    6.0570   -3.4870   23.8300 C   0  0  0  0  0  0  0  0  0  0  0  0
    5.5590   -3.1960   25.2060 C   0  0  0  0  0  0  0  0  0  0  0  0
    4.3910   -2.8260   25.4200 O   0  0  0  0  0  0  0  0  0  0  0  0
    6.4380   -3.3300   26.2980 N   0  0  0  0  0  0  0  0  0  0  0  0
    5.9570   -3.8850   27.5520 C   0  0  0  0  0  0  0  0  0  0  0  0
    5.5620   -5.3400   27.3590 C   0  0  2  0  0  0  0  0  0  0  0  0
    5.1070   -5.7000   26.1360 C   0  0  0  0  0  0  0  0  0  0  0  0
    4.0910   -6.6150   26.2210 C   0  0  2  0  0  0  0  0  0  0  0  0
    3.0710   -6.4510   25.2670 O   0  0  0  0  0  0  0  0  0  0  0  0
    3.1560   -7.1810   24.0540 C   0  0  0  0  0  0  0  0  0  0  0  0
    3.6890   -6.6540   27.5340 C   0  0  0  0  0  0  0  0  0  0  0  0
    4.6620   -5.9390   28.1910 N   0  0  0  0  0  0  0  0  0  0  0  0
    4.7920   -5.7510   29.6080 C   0  0  0  0  0  0  0  0  0  0  0  0
    4.1520   -6.6650   30.4310 C   0  0  0  0  0  0  0  0  0  0  0  0
    4.7810   -7.1750   31.5810 C   0  0  0  0  0  0  0  0  0  0  0  0
    4.1160   -8.1350   32.4700 C   0  0  0  0  0  0  0  0  0  0  0  0
    2.8450   -8.6090   32.2580 C   0  0  0  0  0  0  0  0  0  0  0  0
    2.2270   -8.1090   31.1260 C   0  0  0  0  0  0  0  0  0  0  0  0
    2.8900   -7.1320   30.2130 C   0  0  0  0  0  0  0  0  0  0  0  0
    6.0840   -4.9710   23.6490 C   0  0  0  0  0  0  0  0  0  0  0  0
    6.6170   -5.3580   22.2900 C   0  0  0  0  0  0  0  0  0  0  0  0
  1  2  1  0
  2  3  2  0
  2  4  1  0
  4  5  1  0
  5  6  1  0
  6  7  1  0
  7  8  1  0
  8  9  2  0
  8 10  1  0
 10 11  1  0
 12 11  1  6
 12 13  1  0
 13 14  1  0
 14 15  1  6
 15 16  1  0
 14 17  1  0
 12 18  1  0
 17 18  1  0
 18 19  1  0
 19 20  1  0
 20 21  2  0
 21 22  1  0
 22 23  2  0
 23 24  1  0
 20 25  1  0
 24 25  2  0
  7 26  1  0
  4 27  1  0
 26 27  1  0
M  END
