piperidine-amides-9878-covalent
     RDKit          3D

 28 29  0  0  0  0  0  0  0  0999 V2000
    7.1320   -3.3020   19.2320 C   0  0  0  0  0  0  0  0  0  0  0  0
    6.3710   -4.0400   20.2400 C   0  0  0  0  0  0  0  0  0  0  0  0
    5.2750   -4.5370   19.8780 O   0  0  0  0  0  0  0  0  0  0  0  0
    6.8970   -4.2040   21.5190 N   0  0  0  0  0  0  0  0  0  0  0  0
    7.6650   -3.1670   22.1560 C   0  0  0  0  0  0  0  0  0  0  0  0
    6.9040   -2.7510   23.3750 C   0  0  0  0  0  0  0  0  0  0  0  0
    6.6050   -3.9310   24.2610 C   0  0  0  0  0  0  0  0  0  0  0  0
    5.8550   -3.4490   25.4370 C   0  0  0  0  0  0  0  0  0  0  0  0
    4.6570   -3.1250   25.2820 O   0  0  0  0  0  0  0  0  0  0  0  0
    6.4440   -3.3280   26.7060 N   0  0  0  0  0  0  0  0  0  0  0  0
    6.1010   -4.1910   27.8170 C   0  0  2  0  0  0  0  0  0  0  0  0
    7.2390   -5.0960   28.2130 C   0  0  0  0  0  0  0  0  0  0  0  0
    7.0500   -6.3490   28.6900 C   0  0  0  0  0  0  0  0  0  0  0  0
    4.9160   -5.0960   27.5320 C   0  0  0  0  0  0  0  0  0  0  0  0
    4.9990   -5.8210   26.3590 C   0  0  0  0  0  0  0  0  0  0  0  0
    4.0320   -6.6910   25.9490 C   0  0  0  0  0  0  0  0  0  0  0  0
    2.9120   -6.8950   26.6920 C   0  0  0  0  0  0  0  0  0  0  0  0
    2.6730   -6.1780   28.0000 C   0  0  0  0  0  0  0  0  0  0  0  0
    3.8160   -5.2090   28.3900 C   0  0  0  0  0  0  0  0  0  0  0  0
    3.8400   -4.5110   29.4290 O   0  0  0  0  0  0  0  0  0  0  0  0
    3.5460   -3.1550   29.5680 C   0  0  0  0  0  0  0  0  0  0  0  0
    2.0730   -2.8380   29.3520 C   0  0  0  0  0  0  0  0  0  0  0  0
    1.5640   -1.8380   30.1440 O   0  0  0  0  0  0  0  0  0  0  0  0
    1.2410   -3.4750   28.4330 N   0  0  0  0  0  0  0  0  0  0  0  0
    0.3770   -4.4990   28.8990 C   0  0  0  0  0  0  0  0  0  0  0  0
    1.3410   -3.3140   27.0190 C   0  0  0  0  0  0  0  0  0  0  0  0
    5.7910   -4.9550   23.5150 C   0  0  0  0  0  0  0  0  0  0  0  0
    6.5640   -5.4000   22.2670 C   0  0  0  0  0  0  0  0  0  0  0  0
  1  2  1  0
  2  3  2  0
  2  4  1  0
  4  5  1  0
  5  6  1  0
  6  7  1  0
  7  8  1  0
  8  9  2  0
  8 10  1  0
 10 11  1  0
 11 12  1  6
 12 13  1  0
 11 14  1  0
 14 15  2  0
 15 16  1  0
 16 17  2  0
 17 18  1  0
 14 19  1  0
 18 19  2  0
 19 20  1  0
 20 21  1  0
 21 22  1  0
 22 23  2  0
 22 24  1  0
 24 25  1  0
 24 26  1  0
  7 27  1  0
  4 28  1  0
 27 28  1  0
M  END
