piperidine-amides-3261-covalent
     RDKit          3D

 22 24  0  0  0  0  0  0  0  0999 V2000
    7.0790   -3.3370   19.2610 C   0  0  0  0  0  0  0  0  0  0  0  0
    6.3690   -4.1480   20.2400 C   0  0  0  0  0  0  0  0  0  0  0  0
    5.3190   -4.7070   19.9380 O   0  0  0  0  0  0  0  0  0  0  0  0
    6.9260   -4.3560   21.5400 N   0  0  0  0  0  0  0  0  0  0  0  0
    7.7110   -3.3060   22.1420 C   0  0  0  0  0  0  0  0  0  0  0  0
    6.9640   -2.7090   23.2920 C   0  0  0  0  0  0  0  0  0  0  0  0
    6.5810   -3.8470   24.2130 C   0  0  0  0  0  0  0  0  0  0  0  0
    5.9030   -3.2650   25.3910 C   0  0  0  0  0  0  0  0  0  0  0  0
    4.6870   -3.4110   25.6310 O   0  0  0  0  0  0  0  0  0  0  0  0
    6.7140   -2.5030   26.2530 N   0  0  0  0  0  0  0  0  0  0  0  0
    6.1060   -1.7270   27.2940 C   0  0  0  0  0  0  0  0  0  0  0  0
    5.8810   -0.3420   26.8150 C   0  0  0  0  0  0  0  0  0  0  0  0
    6.4260    0.1320   27.9220 N   0  0  0  0  0  0  0  0  0  0  0  0
    5.4990    0.7270   28.7090 C   0  0  0  0  0  0  0  0  0  0  0  0
    4.3280    1.3900   28.3060 C   0  0  0  0  0  0  0  0  0  0  0  0
    3.5700    1.9040   29.3280 C   0  0  0  0  0  0  0  0  0  0  0  0
    4.0450    1.7130   30.6770 C   0  0  0  0  0  0  0  0  0  0  0  0
    5.1880    1.0670   31.0840 C   0  0  0  0  0  0  0  0  0  0  0  0
    5.8830    0.5870   29.9940 N   0  0  0  0  0  0  0  0  0  0  0  0
    6.7130   -1.2020   28.4430 C   0  0  0  0  0  0  0  0  0  0  0  0
    5.8570   -4.9800   23.5930 C   0  0  0  0  0  0  0  0  0  0  0  0
    6.4110   -5.4250   22.3140 C   0  0  0  0  0  0  0  0  0  0  0  0
  1  2  1  0
  2  3  2  0
  2  4  1  0
  4  5  1  0
  5  6  1  0
  6  7  1  0
  7  8  1  0
  8  9  2  0
  8 10  1  0
 10 11  1  0
 11 12  1  0
 12 13  1  0
 13 14  1  0
 14 15  2  0
 15 16  1  0
 16 17  2  0
 17 18  1  0
 14 19  1  0
 18 19  2  0
 11 20  1  0
 13 20  1  0
  7 21  1  0
  4 22  1  0
 21 22  1  0
M  END
