piperidine-amides-6810-covalent
     RDKit          3D

 23 25  0  0  0  0  0  0  0  0999 V2000
    7.1200   -3.2700   19.2610 C   0  0  0  0  0  0  0  0  0  0  0  0
    6.3640   -4.0690   20.2320 C   0  0  0  0  0  0  0  0  0  0  0  0
    5.2920   -4.6180   19.9090 O   0  0  0  0  0  0  0  0  0  0  0  0
    6.8760   -4.2690   21.5150 N   0  0  0  0  0  0  0  0  0  0  0  0
    7.6390   -3.2020   22.1100 C   0  0  0  0  0  0  0  0  0  0  0  0
    6.7860   -2.7040   23.2670 C   0  0  0  0  0  0  0  0  0  0  0  0
    6.5760   -3.9140   24.1470 C   0  0  0  0  0  0  0  0  0  0  0  0
    5.9150   -3.4890   25.3910 C   0  0  0  0  0  0  0  0  0  0  0  0
    4.7180   -3.1250   25.3510 O   0  0  0  0  0  0  0  0  0  0  0  0
    6.6600   -3.5010   26.5870 N   0  0  0  0  0  0  0  0  0  0  0  0
    7.6610   -4.5150   26.7690 C   0  0  0  0  0  0  0  0  0  0  0  0
    8.9430   -4.0090   26.1460 C   0  0  0  0  0  0  0  0  0  0  0  0
   10.1700   -4.6270   26.4510 C   0  0  0  0  0  0  0  0  0  0  0  0
   11.4090   -4.2180   25.9320 C   0  0  0  0  0  0  0  0  0  0  0  0
   11.4750   -3.1540   25.0600 C   0  0  0  0  0  0  0  0  0  0  0  0
   12.4730   -2.4740   24.3550 C   0  0  0  0  0  0  0  0  0  0  0  0
   12.4120   -1.3930   23.4880 N   0  0  0  0  0  0  0  0  0  0  0  0
   11.1680   -0.8880   23.2720 C   0  0  0  0  0  0  0  0  0  0  0  0
    9.9990   -1.5170   23.9640 C   0  0  0  0  0  0  0  0  0  0  0  0
   10.2990   -2.6510   24.8360 C   0  0  0  0  0  0  0  0  0  0  0  0
    8.9720   -2.9280   25.2680 C   0  0  0  0  0  0  0  0  0  0  0  0
    5.7140   -4.9060   23.4170 C   0  0  0  0  0  0  0  0  0  0  0  0
    6.3550   -5.3460   22.2910 C   0  0  0  0  0  0  0  0  0  0  0  0
  1  2  1  0
  2  3  2  0
  2  4  1  0
  4  5  1  0
  5  6  1  0
  6  7  1  0
  7  8  1  0
  8  9  2  0
  8 10  1  0
 10 11  1  0
 11 12  1  0
 12 13  2  0
 13 14  1  0
 14 15  2  0
 15 16  1  0
 16 17  2  0
 17 18  1  0
 18 19  2  0
 15 20  1  0
 19 20  1  0
 12 21  1  0
 20 21  2  0
  7 22  1  0
  4 23  1  0
 22 23  1  0
M  END
