piperidine-amides-1265-covalent
     RDKit          3D

 23 25  0  0  0  0  0  0  0  0999 V2000
    7.0240   -3.3280   19.3380 C   0  0  0  0  0  0  0  0  0  0  0  0
    6.3360   -4.1810   20.3510 C   0  0  0  0  0  0  0  0  0  0  0  0
    5.3780   -4.8880   19.9870 O   0  0  0  0  0  0  0  0  0  0  0  0
    6.8140   -4.1930   21.6810 N   0  0  0  0  0  0  0  0  0  0  0  0
    7.7060   -3.1550   22.1550 C   0  0  0  0  0  0  0  0  0  0  0  0
    7.4960   -3.0040   23.6560 C   0  0  0  0  0  0  0  0  0  0  0  0
    6.1440   -3.5460   23.9130 C   0  0  0  0  0  0  0  0  0  0  0  0
    5.6540   -3.2100   25.2700 C   0  0  0  0  0  0  0  0  0  0  0  0
    4.4370   -3.3090   25.4630 O   0  0  0  0  0  0  0  0  0  0  0  0
    6.5630   -2.8080   26.2490 N   0  0  0  0  0  0  0  0  0  0  0  0
    6.5110   -1.6490   27.0690 C   0  0  0  0  0  0  0  0  0  0  0  0
    6.9770   -1.6010   28.3870 C   0  0  0  0  0  0  0  0  0  0  0  0
    6.9360   -0.4610   29.2240 C   0  0  0  0  0  0  0  0  0  0  0  0
    6.4040    0.7140   28.7440 C   0  0  0  0  0  0  0  0  0  0  0  0
    5.8990    0.7500   27.3840 C   0  0  0  0  0  0  0  0  0  0  0  0
    5.9550   -0.4800   26.5070 C   0  0  0  0  0  0  0  0  0  0  0  0
    5.4250    1.9960   27.1120 C   0  0  0  0  0  0  0  0  0  0  0  0
    5.6620    2.6520   28.3140 C   0  0  0  0  0  0  0  0  0  0  0  0
    5.2750    3.9720   28.3380 O   0  0  0  0  0  0  0  0  0  0  0  0
    6.2370    1.9290   29.3010 N   0  0  0  0  0  0  0  0  0  0  0  0
    5.4500    2.1010   30.4660 C   0  0  0  0  0  0  0  0  0  0  0  0
    5.9990   -5.0150   23.6560 C   0  0  0  0  0  0  0  0  0  0  0  0
    6.6710   -5.3740   22.5040 C   0  0  0  0  0  0  0  0  0  0  0  0
  1  2  1  0
  2  3  2  0
  2  4  1  0
  4  5  1  0
  5  6  1  0
  6  7  1  0
  7  8  1  0
  8  9  2  0
  8 10  1  0
 10 11  1  0
 11 12  2  0
 12 13  1  0
 13 14  2  0
 14 15  1  0
 11 16  1  0
 15 16  2  0
 15 17  1  0
 17 18  1  0
 18 19  2  0
 14 20  1  0
 18 20  1  0
 20 21  1  0
  7 22  1  0
  4 23  1  0
 22 23  1  0
M  END
