piperidine-amides-30154-covalent
     RDKit          3D

 27 29  0  0  0  0  0  0  0  0999 V2000
    7.0010   -3.3570   19.4210 C   0  0  0  0  0  0  0  0  0  0  0  0
    6.3440   -4.2430   20.3820 C   0  0  0  0  0  0  0  0  0  0  0  0
    5.4080   -4.9470   20.0020 O   0  0  0  0  0  0  0  0  0  0  0  0
    6.7970   -4.3290   21.7550 N   0  0  0  0  0  0  0  0  0  0  0  0
    7.6330   -3.2910   22.3170 C   0  0  0  0  0  0  0  0  0  0  0  0
    7.1450   -2.8660   23.6860 C   0  0  0  0  0  0  0  0  0  0  0  0
    5.8150   -3.5550   23.9400 C   0  0  0  0  0  0  0  0  0  0  0  0
    5.1430   -3.0940   25.2320 C   0  0  0  0  0  0  0  0  0  0  0  0
    4.4620   -2.0630   25.2490 O   0  0  0  0  0  0  0  0  0  0  0  0
    5.2510   -3.8020   26.4590 N   0  0  0  0  0  0  0  0  0  0  0  0
    6.3820   -4.5390   26.5020 C   0  0  0  0  0  0  0  0  0  0  0  0
    6.3310   -5.4580   27.6620 C   0  0  0  0  0  0  0  0  0  0  0  0
    6.1110   -4.9170   28.8800 C   0  0  0  0  0  0  0  0  0  0  0  0
    5.2280   -5.7010   29.5930 C   0  0  0  0  0  0  0  0  0  0  0  0
    5.8090   -6.8780   30.0750 N   0  0  0  0  0  0  0  0  0  0  0  0
    6.4400   -7.7870   29.2370 N   0  0  0  0  0  0  0  0  0  0  0  0
    6.9010   -8.8350   29.9960 C   0  0  0  0  0  0  0  0  0  0  0  0
    7.6520  -10.2270   29.7460 C   0  0  0  0  0  0  0  0  0  0  0  0
    8.8780  -10.7750   29.3410 C   0  0  0  0  0  0  0  0  0  0  0  0
    6.4900   -8.4090   31.2610 C   0  0  0  0  0  0  0  0  0  0  0  0
    5.8320   -7.2760   31.3390 C   0  0  0  0  0  0  0  0  0  0  0  0
    5.3200   -6.7510   32.6050 C   0  0  0  0  0  0  0  0  0  0  0  0
    4.5610   -7.6570   33.3250 C   0  0  0  0  0  0  0  0  0  0  0  0
    5.7230   -3.5610   28.7890 C   0  0  0  0  0  0  0  0  0  0  0  0
    4.8270   -3.1310   27.6520 C   0  0  0  0  0  0  0  0  0  0  0  0
    5.8900   -5.0530   23.8450 C   0  0  0  0  0  0  0  0  0  0  0  0
    6.5180   -5.5080   22.5290 C   0  0  0  0  0  0  0  0  0  0  0  0
  1  2  1  0
  2  3  2  0
  2  4  1  0
  4  5  1  0
  5  6  1  0
  6  7  1  0
  7  8  1  0
  8  9  2  0
  8 10  1  0
 10 11  1  0
 11 12  1  0
 12 13  1  0
 13 14  1  0
 14 15  1  0
 15 16  1  0
 16 17  2  0
 17 18  1  0
 18 19  1  0
 17 20  1  0
 15 21  1  0
 20 21  2  0
 21 22  1  0
 22 23  1  0
 13 24  1  0
 10 25  1  0
 24 25  1  0
  7 26  1  0
  4 27  1  0
 26 27  1  0
M  END
