piperidine-amides-32462-covalent
     RDKit          3D

 28 29  0  0  0  0  0  0  0  0999 V2000
    7.1390   -3.1240   19.0490 C   0  0  0  0  0  0  0  0  0  0  0  0
    6.1770   -3.6860   20.0350 C   0  0  0  0  0  0  0  0  0  0  0  0
    5.1080   -4.1690   19.6560 O   0  0  0  0  0  0  0  0  0  0  0  0
    6.4760   -3.7130   21.3930 N   0  0  0  0  0  0  0  0  0  0  0  0
    7.4020   -2.7940   22.0200 C   0  0  0  0  0  0  0  0  0  0  0  0
    6.7640   -2.2200   23.3050 C   0  0  0  0  0  0  0  0  0  0  0  0
    6.1260   -3.3210   24.0990 C   0  0  0  0  0  0  0  0  0  0  0  0
    5.5500   -2.8830   25.4000 C   0  0  0  0  0  0  0  0  0  0  0  0
    4.3130   -2.8600   25.4680 O   0  0  0  0  0  0  0  0  0  0  0  0
    6.3760   -2.5360   26.4850 N   0  0  0  0  0  0  0  0  0  0  0  0
    7.0740   -1.3180   26.5960 C   0  0  0  0  0  0  0  0  0  0  0  0
    6.4890   -3.3870   27.6180 C   0  0  0  0  0  0  0  0  0  0  0  0
    7.7670   -3.7690   28.0070 C   0  0  0  0  0  0  0  0  0  0  0  0
    8.4530   -4.2970   26.8590 N   0  0  0  0  0  0  0  0  0  0  0  0
    9.0680   -5.5140   26.7700 C   0  0  0  0  0  0  0  0  0  0  0  0
    9.3900   -6.1560   25.4740 C   0  0  0  0  0  0  0  0  0  0  0  0
    8.5730   -5.5890   24.6420 N   0  0  0  0  0  0  0  0  0  0  0  0
    7.2440   -5.7460   25.1000 C   0  0  0  0  0  0  0  0  0  0  0  0
    6.9270   -5.5580   26.4360 O   0  0  0  0  0  0  0  0  0  0  0  0
    6.2370   -6.0620   24.2450 O   0  0  0  0  0  0  0  0  0  0  0  0
    6.5300   -6.5260   22.9460 C   0  0  0  0  0  0  0  0  0  0  0  0
    5.4480   -6.3930   22.0930 C   0  0  0  0  0  0  0  0  0  0  0  0
    7.7130   -5.8410   22.3860 C   0  0  0  0  0  0  0  0  0  0  0  0
    6.9520   -7.9500   23.1950 C   0  0  0  0  0  0  0  0  0  0  0  0
    8.9570   -4.2440   24.4900 C   0  0  0  0  0  0  0  0  0  0  0  0
    8.5120   -3.4230   25.6910 C   0  0  0  0  0  0  0  0  0  0  0  0
    5.1030   -4.0690   23.3370 C   0  0  0  0  0  0  0  0  0  0  0  0
    5.8220   -4.7130   22.1710 C   0  0  0  0  0  0  0  0  0  0  0  0
  1  2  1  0
  2  3  2  0
  2  4  1  0
  4  5  1  0
  5  6  1  0
  6  7  1  0
  7  8  1  0
  8  9  2  0
  8 10  1  0
 10 11  1  0
 10 12  1  0
 12 13  1  0
 13 14  1  0
 14 15  1  0
 15 16  1  0
 16 17  1  0
 17 18  1  0
 18 19  2  0
 18 20  1  0
 21 20  1  0
 21 22  1  0
 21 23  1  0
 21 24  1  0
 17 25  1  0
 14 26  1  0
 25 26  1  0
  7 27  1  0
  4 28  1  0
 27 28  1  0
M  END
