piperidine-amides-27488-covalent
     RDKit          3D

 26 28  0  0  0  0  0  0  0  0999 V2000
    7.0840   -3.3440   19.3000 C   0  0  0  0  0  0  0  0  0  0  0  0
    6.4120   -4.1720   20.3000 C   0  0  0  0  0  0  0  0  0  0  0  0
    5.3430   -4.7370   19.9490 O   0  0  0  0  0  0  0  0  0  0  0  0
    6.9930   -4.3560   21.5530 N   0  0  0  0  0  0  0  0  0  0  0  0
    6.6650   -5.4970   22.3690 C   0  0  0  0  0  0  0  0  0  0  0  0
    5.8730   -4.9990   23.5490 C   0  0  0  0  0  0  0  0  0  0  0  0
    6.5290   -3.8360   24.2560 C   0  0  0  0  0  0  0  0  0  0  0  0
    5.6230   -3.2870   25.2850 C   0  0  0  0  0  0  0  0  0  0  0  0
    4.8080   -2.4140   24.9380 O   0  0  0  0  0  0  0  0  0  0  0  0
    5.6000   -3.7080   26.6190 N   0  0  0  0  0  0  0  0  0  0  0  0
    4.4560   -4.3190   27.1820 C   0  0  0  0  0  0  0  0  0  0  0  0
    4.8570   -4.9590   28.4990 C   0  0  0  0  0  0  0  0  0  0  0  0
    5.6650   -4.3830   29.4380 C   0  0  0  0  0  0  0  0  0  0  0  0
    5.3110   -3.1490   30.0460 O   0  0  0  0  0  0  0  0  0  0  0  0
    4.0870   -2.7940   30.4960 C   0  0  0  0  0  0  0  0  0  0  0  0
    3.8040   -1.4240   30.5750 C   0  0  0  0  0  0  0  0  0  0  0  0
    2.5850   -0.9370   31.0260 C   0  0  0  0  0  0  0  0  0  0  0  0
    1.6050   -1.8020   31.4140 C   0  0  0  0  0  0  0  0  0  0  0  0
    1.8890   -3.2670   31.3360 C   0  0  0  0  0  0  0  0  0  0  0  0
    0.6580   -4.0410   31.8150 C   0  0  0  0  0  0  0  0  0  0  0  0
    0.3070   -3.8560   33.1650 N   0  0  0  0  0  0  0  0  0  0  0  0
    3.1150   -3.7090   30.8820 C   0  0  0  0  0  0  0  0  0  0  0  0
    6.7470   -4.2180   28.4400 C   0  0  0  0  0  0  0  0  0  0  0  0
    6.4380   -3.1820   27.5820 C   0  0  0  0  0  0  0  0  0  0  0  0
    6.8540   -2.7380   23.2640 C   0  0  0  0  0  0  0  0  0  0  0  0
    7.7630   -3.3160   22.2050 C   0  0  0  0  0  0  0  0  0  0  0  0
  1  2  1  0
  2  3  2  0
  2  4  1  0
  4  5  1  0
  5  6  1  0
  6  7  1  0
  7  8  1  0
  8  9  2  0
  8 10  1  0
 10 11  1  0
 11 12  1  0
 12 13  1  0
 13 14  1  0
 14 15  1  0
 15 16  2  0
 16 17  1  0
 17 18  2  0
 18 19  1  0
 19 20  1  0
 20 21  3  0
 15 22  1  0
 19 22  2  0
 13 23  1  0
 10 24  1  0
 23 24  1  0
  7 25  1  0
  4 26  1  0
 25 26  1  0
M  END
