piperidine-amides-3511-covalent
     RDKit          3D

 20 21  0  0  0  0  0  0  0  0999 V2000
    7.1050   -3.2820   19.2620 C   0  0  0  0  0  0  0  0  0  0  0  0
    6.3700   -4.0680   20.2480 C   0  0  0  0  0  0  0  0  0  0  0  0
    5.3340   -4.6490   19.9250 O   0  0  0  0  0  0  0  0  0  0  0  0
    6.8760   -4.2130   21.5880 N   0  0  0  0  0  0  0  0  0  0  0  0
    6.5670   -5.4220   22.3040 C   0  0  0  0  0  0  0  0  0  0  0  0
    6.2040   -5.0810   23.7220 C   0  0  0  0  0  0  0  0  0  0  0  0
    6.2450   -3.5670   23.8720 C   0  0  0  0  0  0  0  0  0  0  0  0
    5.7010   -3.1860   25.2000 C   0  0  0  0  0  0  0  0  0  0  0  0
    4.4780   -3.1740   25.4410 O   0  0  0  0  0  0  0  0  0  0  0  0
    6.6070   -2.8200   26.2180 N   0  0  0  0  0  0  0  0  0  0  0  0
    6.1900   -2.9340   27.5950 C   0  0  0  0  0  0  0  0  0  0  0  0
    5.2970   -4.1350   27.7310 C   0  0  0  0  0  0  0  0  0  0  0  0
    4.0290   -4.4470   27.3230 N   0  0  0  0  0  0  0  0  0  0  0  0
    3.8530   -5.6750   27.7880 N   0  0  0  0  0  0  0  0  0  0  0  0
    4.9970   -6.1730   28.4990 C   0  0  0  0  0  0  0  0  0  0  0  0
    4.9410   -7.4490   29.0440 C   0  0  0  0  0  0  0  0  0  0  0  0
    5.9340   -7.6080   29.9790 C   0  0  0  0  0  0  0  0  0  0  0  0
    5.7870   -5.2290   28.4230 O   0  0  0  0  0  0  0  0  0  0  0  0
    7.6160   -3.1960   23.5210 C   0  0  0  0  0  0  0  0  0  0  0  0
    7.6380   -3.1540   22.1490 C   0  0  0  0  0  0  0  0  0  0  0  0
  1  2  1  0
  2  3  2  0
  2  4  1  0
  4  5  1  0
  5  6  1  0
  6  7  1  0
  7  8  1  0
  8  9  2  0
  8 10  1  0
 10 11  1  0
 11 12  1  0
 12 13  2  0
 13 14  1  0
 14 15  2  0
 15 16  1  0
 16 17  1  0
 12 18  1  0
 15 18  1  0
  7 19  1  0
  4 20  1  0
 19 20  1  0
M  END
