piperidine-amides-11567-covalent
     RDKit          3D

 22 24  0  0  0  0  0  0  0  0999 V2000
    7.0410   -3.3310   19.3310 C   0  0  0  0  0  0  0  0  0  0  0  0
    6.3570   -4.1390   20.3430 C   0  0  0  0  0  0  0  0  0  0  0  0
    5.4040   -4.8540   19.9900 O   0  0  0  0  0  0  0  0  0  0  0  0
    6.7850   -4.1460   21.6860 N   0  0  0  0  0  0  0  0  0  0  0  0
    7.7150   -3.1530   22.1840 C   0  0  0  0  0  0  0  0  0  0  0  0
    7.4400   -3.1050   23.6460 C   0  0  0  0  0  0  0  0  0  0  0  0
    6.1110   -3.7390   23.8840 C   0  0  0  0  0  0  0  0  0  0  0  0
    5.5340   -3.4660   25.2250 C   0  0  0  0  0  0  0  0  0  0  0  0
    4.2950   -3.6280   25.4130 O   0  0  0  0  0  0  0  0  0  0  0  0
    6.2800   -3.0150   26.3280 N   0  0  0  0  0  0  0  0  0  0  0  0
    5.8660   -1.7630   26.9960 C   0  0  2  0  0  0  0  0  0  0  0  0
    6.5400   -0.7810   26.5210 C   0  0  0  0  0  0  0  0  0  0  0  0
    6.9400   -1.0270   27.9720 C   0  0  1  0  0  0  0  0  0  0  0  0
    5.9800   -1.4420   29.0560 C   0  0  0  0  0  0  0  0  0  0  0  0
    5.2700   -2.7710   29.0320 C   0  0  0  0  0  0  0  0  0  0  0  0
    4.3880   -2.9410   30.1700 C   0  0  0  0  0  0  0  0  0  0  0  0
    4.2770   -1.9720   31.1030 C   0  0  0  0  0  0  0  0  0  0  0  0
    3.5960   -1.7080   32.2960 C   0  0  0  0  0  0  0  0  0  0  0  0
    4.8160   -0.5720   31.4380 C   0  0  0  0  0  0  0  0  0  0  0  0
    5.7490   -0.4390   30.1900 C   0  0  0  0  0  0  0  0  0  0  0  0
    6.2060   -5.2390   23.5440 C   0  0  0  0  0  0  0  0  0  0  0  0
    6.6210   -5.4180   22.4060 C   0  0  0  0  0  0  0  0  0  0  0  0
  1  2  1  0
  2  3  2  0
  2  4  1  0
  4  5  1  0
  5  6  1  0
  6  7  1  0
  7  8  1  0
  8  9  2  0
  8 10  1  0
 11 10  1  6
 11 12  1  0
 11 13  1  0
 12 13  1  0
 13 14  1  1
 14 15  2  0
 15 16  1  0
 16 17  2  0
 17 18  1  0
 17 19  1  0
 14 20  1  0
 19 20  2  0
  7 21  1  0
  4 22  1  0
 21 22  1  0
M  END
