piperidine-amides-4677-covalent
     RDKit          3D

 24 26  0  0  0  0  0  0  0  0999 V2000
    7.0690   -3.2950   19.2830 C   0  0  0  0  0  0  0  0  0  0  0  0
    6.3730   -4.1100   20.3090 C   0  0  0  0  0  0  0  0  0  0  0  0
    5.3370   -4.6990   19.9350 O   0  0  0  0  0  0  0  0  0  0  0  0
    6.8860   -4.2390   21.6110 N   0  0  0  0  0  0  0  0  0  0  0  0
    6.5870   -5.3930   22.3920 C   0  0  0  0  0  0  0  0  0  0  0  0
    6.0290   -5.0640   23.7050 C   0  0  0  0  0  0  0  0  0  0  0  0
    6.0060   -3.6100   23.9760 C   0  0  0  0  0  0  0  0  0  0  0  0
    5.6080   -3.3210   25.3850 C   0  0  0  0  0  0  0  0  0  0  0  0
    4.3930   -3.2830   25.6390 O   0  0  0  0  0  0  0  0  0  0  0  0
    6.5560   -3.0810   26.3950 N   0  0  0  0  0  0  0  0  0  0  0  0
    6.3100   -3.2940   27.8500 C   0  0  0  0  0  0  0  0  0  0  0  0
    5.4070   -4.4300   28.1950 C   0  0  0  0  0  0  0  0  0  0  0  0
    4.0520   -4.1300   28.6530 C   0  0  0  0  0  0  0  0  0  0  0  0
    3.1180   -5.0780   29.0120 C   0  0  0  0  0  0  0  0  0  0  0  0
    3.4350   -6.4200   28.9540 C   0  0  0  0  0  0  0  0  0  0  0  0
    2.5550   -7.4010   29.3000 C   0  0  0  0  0  0  0  0  0  0  0  0
    1.8860   -8.2090   28.4460 C   0  0  0  0  0  0  0  0  0  0  0  0
    1.1320   -9.0250   29.1860 N   0  0  0  0  0  0  0  0  0  0  0  0
    1.3060   -8.7460   30.6520 C   0  0  0  0  0  0  0  0  0  0  0  0
    2.1940   -7.7350   30.6270 N   0  0  0  0  0  0  0  0  0  0  0  0
    4.7030   -6.7710   28.5270 C   0  0  0  0  0  0  0  0  0  0  0  0
    5.7240   -5.7720   28.1360 C   0  0  0  0  0  0  0  0  0  0  0  0
    7.2820   -2.9170   23.6380 C   0  0  0  0  0  0  0  0  0  0  0  0
    7.6900   -3.1860   22.2120 C   0  0  0  0  0  0  0  0  0  0  0  0
  1  2  1  0
  2  3  2  0
  2  4  1  0
  4  5  1  0
  5  6  1  0
  6  7  1  0
  7  8  1  0
  8  9  2  0
  8 10  1  0
 10 11  1  0
 11 12  1  0
 12 13  2  0
 13 14  1  0
 14 15  2  0
 15 16  1  0
 16 17  2  0
 17 18  1  0
 18 19  1  0
 16 20  1  0
 19 20  2  0
 15 21  1  0
 12 22  1  0
 21 22  2  0
  7 23  1  0
  4 24  1  0
 23 24  1  0
M  END
