piperidine-amides-14633-covalent
     RDKit          3D

 22 23  0  0  0  0  0  0  0  0999 V2000
    7.0690   -3.3570   19.3410 C   0  0  0  0  0  0  0  0  0  0  0  0
    6.3580   -4.1650   20.3230 C   0  0  0  0  0  0  0  0  0  0  0  0
    5.3300   -4.7620   19.9580 O   0  0  0  0  0  0  0  0  0  0  0  0
    6.8770   -4.2920   21.6350 N   0  0  0  0  0  0  0  0  0  0  0  0
    7.6120   -3.1750   22.1840 C   0  0  0  0  0  0  0  0  0  0  0  0
    7.4540   -3.1050   23.6750 C   0  0  0  0  0  0  0  0  0  0  0  0
    6.0830   -3.6390   24.0160 C   0  0  0  0  0  0  0  0  0  0  0  0
    5.6790   -3.2190   25.3910 C   0  0  0  0  0  0  0  0  0  0  0  0
    4.4930   -3.3580   25.6820 O   0  0  0  0  0  0  0  0  0  0  0  0
    6.6700   -2.7070   26.2190 N   0  0  0  0  0  0  0  0  0  0  0  0
    6.5160   -1.5250   27.0060 C   0  0  0  0  0  0  0  0  0  0  0  0
    6.9550   -1.3960   28.3210 C   0  0  0  0  0  0  0  0  0  0  0  0
    6.7900   -0.2280   29.0530 C   0  0  0  0  0  0  0  0  0  0  0  0
    7.4300   -0.1790   30.8450 Br  0  0  0  0  0  0  0  0  0  0  0  0
    6.1780    0.9490   28.5860 C   0  0  0  0  0  0  0  0  0  0  0  0
    6.0120    2.1080   29.3070 F   0  0  0  0  0  0  0  0  0  0  0  0
    5.6870    0.8590   27.1670 C   0  0  0  0  0  0  0  0  0  0  0  0
    5.8670   -0.4260   26.3610 C   0  0  0  0  0  0  0  0  0  0  0  0
    5.4030   -0.3380   25.1980 O   0  0  0  0  0  0  0  0  0  0  0  0
    4.1510   -0.8810   25.0610 C   0  0  0  0  0  0  0  0  0  0  0  0
    6.0440   -5.1030   23.7900 C   0  0  0  0  0  0  0  0  0  0  0  0
    6.5550   -5.4790   22.3890 C   0  0  0  0  0  0  0  0  0  0  0  0
  1  2  1  0
  2  3  2  0
  2  4  1  0
  4  5  1  0
  5  6  1  0
  6  7  1  0
  7  8  1  0
  8  9  2  0
  8 10  1  0
 10 11  1  0
 11 12  2  0
 12 13  1  0
 13 14  1  0
 13 15  2  0
 15 16  1  0
 15 17  1  0
 11 18  1  0
 17 18  2  0
 18 19  1  0
 19 20  1  0
  7 21  1  0
  4 22  1  0
 21 22  1  0
M  END
