piperidine-amides-1147-covalent
     RDKit          3D

 23 24  0  0  0  0  0  0  0  0999 V2000
    7.2040   -4.0340   19.5820 C   0  0  0  0  0  0  0  0  0  0  0  0
    6.0100   -3.9380   20.2940 C   0  0  0  0  0  0  0  0  0  0  0  0
    4.9750   -4.0350   19.6340 O   0  0  0  0  0  0  0  0  0  0  0  0
    6.2210   -3.8660   21.6510 N   0  0  0  0  0  0  0  0  0  0  0  0
    7.4240   -3.1220   22.0000 C   0  0  0  0  0  0  0  0  0  0  0  0
    7.3820   -2.9350   23.4880 C   0  0  0  0  0  0  0  0  0  0  0  0
    6.0060   -3.3450   23.7930 C   0  0  0  0  0  0  0  0  0  0  0  0
    5.6110   -2.8710   25.0880 C   0  0  0  0  0  0  0  0  0  0  0  0
    4.4320   -3.0330   25.4140 O   0  0  0  0  0  0  0  0  0  0  0  0
    6.5830   -2.2620   25.8520 N   0  0  0  0  0  0  0  0  0  0  0  0
    6.3860   -1.8560   27.1560 C   0  0  0  0  0  0  0  0  0  0  0  0
    5.7900   -2.6580   28.0580 C   0  0  1  0  0  0  0  0  0  0  0  0
    6.5690   -2.9590   29.1250 C   0  0  0  0  0  0  0  0  0  0  0  0
    4.5340   -2.0070   28.5900 C   0  0  0  0  0  0  0  0  0  0  0  0
    4.8340   -0.8120   29.0810 O   0  0  0  0  0  0  0  0  0  0  0  0
    5.3330   -3.9120   27.4470 C   0  0  0  0  0  0  0  0  0  0  0  0
    5.3630   -5.2600   28.1740 C   0  0  0  0  0  0  0  0  0  0  0  0
    4.1840   -6.1810   28.0280 C   0  0  0  0  0  0  0  0  0  0  0  0
    4.3150   -7.3410   28.7100 C   0  0  0  0  0  0  0  0  0  0  0  0
    5.5620   -7.5490   29.4840 C   0  0  0  0  0  0  0  0  0  0  0  0
    6.4910   -6.1270   29.2310 S   0  0  0  0  0  0  0  0  0  0  0  0
    5.7540   -4.8000   23.6730 C   0  0  0  0  0  0  0  0  0  0  0  0
    6.0400   -5.1070   22.3810 C   0  0  0  0  0  0  0  0  0  0  0  0
  1  2  1  0
  2  3  2  0
  2  4  1  0
  4  5  1  0
  5  6  1  0
  6  7  1  0
  7  8  1  0
  8  9  2  0
  8 10  1  0
 10 11  1  0
 12 11  1  0
 12 13  1  1
 12 14  1  0
 14 15  1  0
 12 16  1  0
 16 17  1  0
 17 18  2  0
 18 19  1  0
 19 20  2  0
 17 21  1  0
 20 21  1  0
  7 22  1  0
  4 23  1  0
 22 23  1  0
M  END
