piperidine-amides-13759-covalent
     RDKit          3D

 27 29  0  0  0  0  0  0  0  0999 V2000
    7.0800   -3.3300   19.2990 C   0  0  0  0  0  0  0  0  0  0  0  0
    6.3810   -4.1630   20.3140 C   0  0  0  0  0  0  0  0  0  0  0  0
    5.3790   -4.8190   19.9770 O   0  0  0  0  0  0  0  0  0  0  0  0
    6.9200   -4.2080   21.6140 N   0  0  0  0  0  0  0  0  0  0  0  0
    7.6240   -3.0730   22.1480 C   0  0  0  0  0  0  0  0  0  0  0  0
    6.7640   -2.5840   23.3050 C   0  0  0  0  0  0  0  0  0  0  0  0
    6.7030   -3.7430   24.2240 C   0  0  0  0  0  0  0  0  0  0  0  0
    5.9590   -3.4870   25.4910 C   0  0  0  0  0  0  0  0  0  0  0  0
    4.7610   -3.7460   25.5060 O   0  0  0  0  0  0  0  0  0  0  0  0
    6.6070   -2.9910   26.6160 N   0  0  0  0  0  0  0  0  0  0  0  0
    6.4900   -1.7290   27.2550 C   0  0  0  0  0  0  0  0  0  0  0  0
    7.1230   -1.4610   28.4580 C   0  0  0  0  0  0  0  0  0  0  0  0
    7.0540   -0.2450   29.1490 C   0  0  0  0  0  0  0  0  0  0  0  0
    6.3280    0.8130   28.6600 C   0  0  0  0  0  0  0  0  0  0  0  0
    5.6220    0.6090   27.3830 C   0  0  0  0  0  0  0  0  0  0  0  0
    5.7040   -0.7220   26.6510 C   0  0  0  0  0  0  0  0  0  0  0  0
    4.8690   -1.0620   25.1230 S   0  0  0  0  0  0  0  0  0  0  0  0
    3.2420   -1.7400   25.4840 C   0  0  0  0  0  0  0  0  0  0  0  0
    2.4150   -1.0740   26.4040 C   0  0  0  0  0  0  0  0  0  0  0  0
    1.0630   -1.5270   26.7950 C   0  0  0  0  0  0  0  0  0  0  0  0
    0.5370   -0.5170   27.7990 C   0  0  0  0  0  0  0  0  0  0  0  0
    0.5020   -2.7550   26.2070 C   0  0  0  0  0  0  0  0  0  0  0  0
    1.4140   -3.4550   25.2170 C   0  0  0  0  0  0  0  0  0  0  0  0
    2.7940   -2.9150   24.8710 C   0  0  0  0  0  0  0  0  0  0  0  0
    3.6940   -3.6410   23.8630 C   0  0  0  0  0  0  0  0  0  0  0  0
    6.0530   -4.9890   23.6280 C   0  0  0  0  0  0  0  0  0  0  0  0
    6.6330   -5.3500   22.4190 C   0  0  0  0  0  0  0  0  0  0  0  0
  1  2  1  0
  2  3  2  0
  2  4  1  0
  4  5  1  0
  5  6  1  0
  6  7  1  0
  7  8  1  0
  8  9  2  0
  8 10  1  0
 10 11  1  0
 11 12  2  0
 12 13  1  0
 13 14  2  0
 14 15  1  0
 11 16  1  0
 15 16  2  0
 16 17  1  0
 17 18  1  0
 18 19  2  0
 19 20  1  0
 20 21  1  0
 20 22  2  0
 22 23  1  0
 18 24  1  0
 23 24  2  0
 24 25  1  0
  7 26  1  0
  4 27  1  0
 26 27  1  0
M  END
