piperidine-amides-6341-covalent
     RDKit          3D

 25 27  0  0  0  0  0  0  0  0999 V2000
    7.1080   -3.3000   19.2700 C   0  0  0  0  0  0  0  0  0  0  0  0
    6.4080   -4.1320   20.2620 C   0  0  0  0  0  0  0  0  0  0  0  0
    5.3580   -4.7380   19.9520 O   0  0  0  0  0  0  0  0  0  0  0  0
    6.9410   -4.2990   21.5470 N   0  0  0  0  0  0  0  0  0  0  0  0
    6.5130   -5.4150   22.3410 C   0  0  0  0  0  0  0  0  0  0  0  0
    5.5580   -4.8300   23.3860 C   0  0  0  0  0  0  0  0  0  0  0  0
    6.3130   -3.7780   24.1960 C   0  0  0  0  0  0  0  0  0  0  0  0
    5.3490   -3.1450   25.1180 C   0  0  0  0  0  0  0  0  0  0  0  0
    4.4640   -2.4200   24.6230 O   0  0  0  0  0  0  0  0  0  0  0  0
    5.4170   -3.3470   26.5100 N   0  0  0  0  0  0  0  0  0  0  0  0
    5.9040   -4.5840   27.0050 C   0  0  1  0  0  0  0  0  0  0  0  0
    7.0860   -4.2240   27.8020 C   0  0  0  0  0  0  0  0  0  0  0  0
    8.1710   -4.6500   27.2020 C   0  0  0  0  0  0  0  0  0  0  0  0
    8.5860   -5.8680   27.3460 C   0  0  0  0  0  0  0  0  0  0  0  0
    9.6610   -6.0960   26.6540 C   0  0  0  0  0  0  0  0  0  0  0  0
   10.3100   -5.2100   25.8860 C   0  0  0  0  0  0  0  0  0  0  0  0
   10.0590   -3.7470   25.5450 C   0  0  0  0  0  0  0  0  0  0  0  0
   10.9580   -2.4500   24.4570 Br  0  0  0  0  0  0  0  0  0  0  0  0
    8.7950   -3.7090   26.4140 C   0  0  0  0  0  0  0  0  0  0  0  0
    5.0580   -5.3740   27.9640 C   0  0  0  0  0  0  0  0  0  0  0  0
    5.8030   -5.9870   29.0680 C   0  0  0  0  0  0  0  0  0  0  0  0
    4.9980   -6.5860   29.9230 C   0  0  0  0  0  0  0  0  0  0  0  0
    5.6930   -7.5540   29.4750 C   0  0  0  0  0  0  0  0  0  0  0  0
    6.9020   -2.6660   23.3390 C   0  0  0  0  0  0  0  0  0  0  0  0
    7.6670   -3.2300   22.1700 C   0  0  0  0  0  0  0  0  0  0  0  0
  1  2  1  0
  2  3  2  0
  2  4  1  0
  4  5  1  0
  5  6  1  0
  6  7  1  0
  7  8  1  0
  8  9  2  0
  8 10  1  0
 10 11  1  0
 11 12  1  1
 12 13  1  0
 13 14  2  0
 14 15  1  0
 15 16  2  0
 16 17  1  0
 17 18  1  0
 13 19  1  0
 17 19  2  0
 11 20  1  0
 20 21  1  0
 21 22  1  0
 21 23  1  0
 22 23  1  0
  7 24  1  0
  4 25  1  0
 24 25  1  0
M  END
