piperidine-amides-5015-covalent
     RDKit          3D

 22 22  0  0  0  0  0  0  0  0999 V2000
    7.1230   -3.2940   19.2850 C   0  0  0  0  0  0  0  0  0  0  0  0
    6.4200   -4.0960   20.3130 C   0  0  0  0  0  0  0  0  0  0  0  0
    5.3670   -4.6630   19.9390 O   0  0  0  0  0  0  0  0  0  0  0  0
    6.9470   -4.2430   21.6130 N   0  0  0  0  0  0  0  0  0  0  0  0
    7.6970   -3.1700   22.1950 C   0  0  0  0  0  0  0  0  0  0  0  0
    7.2690   -2.8580   23.5560 C   0  0  0  0  0  0  0  0  0  0  0  0
    6.0250   -3.5620   23.9250 C   0  0  0  0  0  0  0  0  0  0  0  0
    5.5920   -3.2320   25.3090 C   0  0  0  0  0  0  0  0  0  0  0  0
    4.3810   -3.0160   25.4850 O   0  0  0  0  0  0  0  0  0  0  0  0
    6.4790   -3.1520   26.3980 N   0  0  0  0  0  0  0  0  0  0  0  0
    6.1570   -3.6940   27.7460 C   0  0  0  0  0  0  0  0  0  0  0  0
    5.8710   -5.1640   27.7380 C   0  0  0  0  0  0  0  0  0  0  0  0
    4.1220   -5.2340   28.1710 S   0  0  0  0  0  0  0  0  0  0  0  0
    3.4060   -6.3650   27.5400 O   0  0  0  0  0  0  0  0  0  0  0  0
    3.5080   -3.9010   27.9570 O   0  0  0  0  0  0  0  0  0  0  0  0
    4.1940   -5.5230   29.8390 N   0  0  0  0  0  0  0  0  0  0  0  0
    4.7990   -6.8750   30.3180 S   0  0  0  0  0  0  0  0  0  0  0  0
    5.1810   -7.8060   28.8860 C   0  0  0  0  0  0  0  0  0  0  0  0
    3.5950   -7.7030   31.3210 C   0  0  0  0  0  0  0  0  0  0  0  0
    6.0380   -6.5050   31.0900 O   0  0  0  0  0  0  0  0  0  0  0  0
    6.0860   -5.0340   23.6540 C   0  0  0  0  0  0  0  0  0  0  0  0
    6.5120   -5.3620   22.3950 C   0  0  0  0  0  0  0  0  0  0  0  0
  1  2  1  0
  2  3  2  0
  2  4  1  0
  4  5  1  0
  5  6  1  0
  6  7  1  0
  7  8  1  0
  8  9  2  0
  8 10  1  0
 10 11  1  0
 11 12  1  0
 12 13  1  0
 13 14  2  0
 13 15  2  0
 13 16  1  0
 16 17  2  0
 17 18  1  0
 17 19  1  0
 17 20  2  0
  7 21  1  0
  4 22  1  0
 21 22  1  0
M  END
