piperidine-amides-29292-covalent
     RDKit          3D

 22 23  0  0  0  0  0  0  0  0999 V2000
    6.9840   -3.3660   19.3980 C   0  0  0  0  0  0  0  0  0  0  0  0
    6.3030   -4.2270   20.3700 C   0  0  0  0  0  0  0  0  0  0  0  0
    5.3390   -4.8990   19.9770 O   0  0  0  0  0  0  0  0  0  0  0  0
    6.7510   -4.3110   21.7120 N   0  0  0  0  0  0  0  0  0  0  0  0
    7.5620   -3.2570   22.2470 C   0  0  0  0  0  0  0  0  0  0  0  0
    7.3380   -3.2100   23.7150 C   0  0  0  0  0  0  0  0  0  0  0  0
    5.9390   -3.6340   23.9240 C   0  0  0  0  0  0  0  0  0  0  0  0
    5.4630   -3.3130   25.3240 C   0  0  0  0  0  0  0  0  0  0  0  0
    4.2540   -3.1280   25.4030 O   0  0  0  0  0  0  0  0  0  0  0  0
    6.3230   -3.2260   26.4410 N   0  0  0  0  0  0  0  0  0  0  0  0
    6.3620   -1.9300   27.0920 C   0  0  0  0  0  0  0  0  0  0  0  0
    5.9580   -0.7330   26.5030 C   0  0  0  0  0  0  0  0  0  0  0  0
    5.9950    0.4760   27.1730 C   0  0  0  0  0  0  0  0  0  0  0  0
    6.4350    0.6410   28.4930 C   0  0  0  0  0  0  0  0  0  0  0  0
    6.4520    2.3450   29.3560 Br  0  0  0  0  0  0  0  0  0  0  0  0
    6.8700   -0.6730   29.0870 C   0  0  0  0  0  0  0  0  0  0  0  0
    6.8120   -1.8300   28.3940 N   0  0  0  0  0  0  0  0  0  0  0  0
    6.3740   -4.4520   27.2270 C   0  0  0  0  0  0  0  0  0  0  0  0
    6.9280   -4.2520   28.5790 C   0  0  0  0  0  0  0  0  0  0  0  0
    7.1530   -5.5570   26.5930 C   0  0  0  0  0  0  0  0  0  0  0  0
    5.6960   -5.0510   23.6090 C   0  0  0  0  0  0  0  0  0  0  0  0
    6.4980   -5.4720   22.5520 C   0  0  0  0  0  0  0  0  0  0  0  0
  1  2  1  0
  2  3  2  0
  2  4  1  0
  4  5  1  0
  5  6  1  0
  6  7  1  0
  7  8  1  0
  8  9  2  0
  8 10  1  0
 10 11  1  0
 11 12  2  0
 12 13  1  0
 13 14  2  0
 14 15  1  0
 14 16  1  0
 11 17  1  0
 16 17  2  0
 10 18  1  0
 18 19  1  0
 18 20  1  0
  7 21  1  0
  4 22  1  0
 21 22  1  0
M  END
