piperidine-amides-14052-covalent
     RDKit          3D

 25 27  0  0  0  0  0  0  0  0999 V2000
    7.0890   -3.2830   19.2940 C   0  0  0  0  0  0  0  0  0  0  0  0
    6.3470   -4.0980   20.2990 C   0  0  0  0  0  0  0  0  0  0  0  0
    5.3240   -4.7030   19.9370 O   0  0  0  0  0  0  0  0  0  0  0  0
    6.8380   -4.2030   21.6210 N   0  0  0  0  0  0  0  0  0  0  0  0
    6.6960   -5.4230   22.3960 C   0  0  0  0  0  0  0  0  0  0  0  0
    6.0510   -5.0960   23.7560 C   0  0  0  0  0  0  0  0  0  0  0  0
    6.0360   -3.6160   23.9210 C   0  0  0  0  0  0  0  0  0  0  0  0
    5.5900   -3.1470   25.2510 C   0  0  0  0  0  0  0  0  0  0  0  0
    4.5530   -2.4790   25.2640 O   0  0  0  0  0  0  0  0  0  0  0  0
    6.2990   -3.4550   26.4110 N   0  0  0  0  0  0  0  0  0  0  0  0
    5.9650   -4.4520   27.3700 C   0  0  0  0  0  0  0  0  0  0  0  0
    4.7160   -4.5580   27.9110 C   0  0  0  0  0  0  0  0  0  0  0  0
    4.2390   -5.6980   28.5850 C   0  0  0  0  0  0  0  0  0  0  0  0
    5.0430   -6.6890   29.1150 C   0  0  0  0  0  0  0  0  0  0  0  0
    6.5030   -6.6660   29.0310 C   0  0  0  0  0  0  0  0  0  0  0  0
    4.3360   -7.6760   29.7170 N   0  0  0  0  0  0  0  0  0  0  0  0
    2.9850   -7.3020   29.5690 C   0  0  0  0  0  0  0  0  0  0  0  0
    1.7550   -7.9910   30.0280 C   0  0  0  0  0  0  0  0  0  0  0  0
    0.5460   -7.4140   29.7580 C   0  0  0  0  0  0  0  0  0  0  0  0
    0.2860   -6.1160   29.0270 C   0  0  0  0  0  0  0  0  0  0  0  0
    1.6530   -5.4940   28.5980 C   0  0  0  0  0  0  0  0  0  0  0  0
    1.5850   -3.9710   27.7290 Cl  0  0  0  0  0  0  0  0  0  0  0  0
    2.8910   -6.0570   28.8580 C   0  0  0  0  0  0  0  0  0  0  0  0
    7.3340   -2.9590   23.5960 C   0  0  0  0  0  0  0  0  0  0  0  0
    7.7230   -3.1720   22.1590 C   0  0  0  0  0  0  0  0  0  0  0  0
  1  2  1  0
  2  3  2  0
  2  4  1  0
  4  5  1  0
  5  6  1  0
  6  7  1  0
  7  8  1  0
  8  9  2  0
  8 10  1  0
 10 11  1  0
 11 12  1  0
 12 13  1  0
 13 14  2  0
 14 15  1  0
 14 16  1  0
 16 17  1  0
 17 18  1  0
 18 19  2  0
 19 20  1  0
 20 21  2  0
 21 22  1  0
 13 23  1  0
 17 23  2  0
 21 23  1  0
  7 24  1  0
  4 25  1  0
 24 25  1  0
M  END
