piperidine-amides-29418-covalent
     RDKit          3D

 24 26  0  0  0  0  0  0  0  0999 V2000
    6.9860   -3.3740   19.4410 C   0  0  0  0  0  0  0  0  0  0  0  0
    6.3650   -4.2800   20.4150 C   0  0  0  0  0  0  0  0  0  0  0  0
    5.4110   -4.9670   20.0050 O   0  0  0  0  0  0  0  0  0  0  0  0
    6.8480   -4.3940   21.7560 N   0  0  0  0  0  0  0  0  0  0  0  0
    6.4450   -5.5390   22.5400 C   0  0  0  0  0  0  0  0  0  0  0  0
    6.1250   -5.1610   23.9790 C   0  0  0  0  0  0  0  0  0  0  0  0
    5.9270   -3.6580   24.0440 C   0  0  0  0  0  0  0  0  0  0  0  0
    5.3330   -3.0800   25.3340 C   0  0  0  0  0  0  0  0  0  0  0  0
    4.9520   -1.9300   25.2070 O   0  0  0  0  0  0  0  0  0  0  0  0
    5.2080   -3.7730   26.5580 N   0  0  0  0  0  0  0  0  0  0  0  0
    6.2390   -4.5280   26.9870 C   0  0  0  0  0  0  0  0  0  0  0  0
    6.1870   -4.6690   28.3430 C   0  0  0  0  0  0  0  0  0  0  0  0
    5.2230   -3.7900   28.7320 C   0  0  0  0  0  0  0  0  0  0  0  0
    4.6460   -3.0270   27.6890 C   0  0  1  0  0  0  0  0  0  0  0  0
    5.4280   -1.7600   27.8680 C   0  0  0  0  0  0  0  0  0  0  0  0
    3.2700   -3.0170   27.6640 C   0  0  0  0  0  0  0  0  0  0  0  0
    2.4480   -4.1350   27.1350 C   0  0  0  0  0  0  0  0  0  0  0  0
    2.0220   -4.1280   25.7020 C   0  0  0  0  0  0  0  0  0  0  0  0
    1.1930   -5.3820   25.4000 C   0  0  0  0  0  0  0  0  0  0  0  0
    0.4980   -5.7670   23.8270 Cl  0  0  0  0  0  0  0  0  0  0  0  0
    1.0200   -6.2210   26.4750 C   0  0  0  0  0  0  0  0  0  0  0  0
    1.8140   -5.5740   27.8590 S   0  0  0  0  0  0  0  0  0  0  0  0
    7.2650   -3.0440   23.7560 C   0  0  0  0  0  0  0  0  0  0  0  0
    7.5890   -3.2760   22.3080 C   0  0  0  0  0  0  0  0  0  0  0  0
  1  2  1  0
  2  3  2  0
  2  4  1  0
  4  5  1  0
  5  6  1  0
  6  7  1  0
  7  8  1  0
  8  9  2  0
  8 10  1  0
 10 11  1  0
 11 12  1  0
 12 13  1  0
 10 14  1  0
 13 14  1  0
 14 15  1  6
 14 16  1  0
 16 17  1  0
 17 18  2  0
 18 19  1  0
 19 20  1  0
 19 21  2  0
 17 22  1  0
 21 22  1  0
  7 23  1  0
  4 24  1  0
 23 24  1  0
M  END
