piperidine-amides-35132-covalent
     RDKit          3D

 33 36  0  0  0  0  0  0  0  0999 V2000
    7.0190   -3.3930   19.4570 C   0  0  0  0  0  0  0  0  0  0  0  0
    6.3400   -4.2880   20.4300 C   0  0  0  0  0  0  0  0  0  0  0  0
    5.3900   -4.9430   20.0010 O   0  0  0  0  0  0  0  0  0  0  0  0
    6.8090   -4.3880   21.7510 N   0  0  0  0  0  0  0  0  0  0  0  0
    6.6540   -5.6100   22.5070 C   0  0  0  0  0  0  0  0  0  0  0  0
    6.1050   -5.2880   23.8760 C   0  0  0  0  0  0  0  0  0  0  0  0
    5.9620   -3.7720   23.9840 C   0  0  0  0  0  0  0  0  0  0  0  0
    5.2640   -3.3490   25.2460 C   0  0  0  0  0  0  0  0  0  0  0  0
    4.4270   -2.4510   25.1370 O   0  0  0  0  0  0  0  0  0  0  0  0
    5.4630   -3.8720   26.5520 N   0  0  0  0  0  0  0  0  0  0  0  0
    6.4900   -3.2650   27.2590 C   0  0  0  0  0  0  0  0  0  0  0  0
    6.7920   -4.3120   28.3080 C   0  0  0  0  0  0  0  0  0  0  0  0
    5.8500   -4.5840   29.1960 C   0  0  0  0  0  0  0  0  0  0  0  0
    4.6230   -4.7510   28.6480 C   0  0  1  0  0  0  0  0  0  0  0  0
    3.6430   -4.5930   29.6050 C   0  0  0  0  0  0  0  0  0  0  0  0
    3.7920   -3.3980   30.1920 N   0  0  0  0  0  0  0  0  0  0  0  0
    2.8290   -3.4350   31.0210 N   0  0  0  0  0  0  0  0  0  0  0  0
    2.0860   -4.6450   30.9430 C   0  0  0  0  0  0  0  0  0  0  0  0
    2.5800   -5.6230   29.9150 C   0  0  0  0  0  0  0  0  0  0  0  0
    2.4420   -6.8260   29.3050 N   0  0  0  0  0  0  0  0  0  0  0  0
    1.0860   -7.2960   29.1640 C   0  0  0  0  0  0  0  0  0  0  0  0
    0.0030   -6.5390   28.7510 O   0  0  0  0  0  0  0  0  0  0  0  0
    0.9100   -8.7400   29.5140 C   0  0  0  0  0  0  0  0  0  0  0  0
    0.8640   -9.7030   28.3720 C   0  0  0  0  0  0  0  0  0  0  0  0
    0.6900  -11.1930   28.5510 C   0  0  0  0  0  0  0  0  0  0  0  0
    0.5600  -11.7050   29.9290 C   0  0  0  0  0  0  0  0  0  0  0  0
    0.4050  -13.0380   30.1860 O   0  0  0  0  0  0  0  0  0  0  0  0
    1.0770  -13.8750   29.3270 C   0  0  0  0  0  0  0  0  0  0  0  0
    0.6060  -10.7210   31.0400 C   0  0  0  0  0  0  0  0  0  0  0  0
    0.7850   -9.2240   30.8210 C   0  0  0  0  0  0  0  0  0  0  0  0
    4.3540   -4.0630   27.4600 C   0  0  0  0  0  0  0  0  0  0  0  0
    7.3290   -3.1630   23.7140 C   0  0  0  0  0  0  0  0  0  0  0  0
    7.5720   -3.3170   22.3750 C   0  0  0  0  0  0  0  0  0  0  0  0
  1  2  1  0
  2  3  2  0
  2  4  1  0
  4  5  1  0
  5  6  1  0
  6  7  1  0
  7  8  1  0
  8  9  2  0
  8 10  1  0
 10 11  1  0
 11 12  1  0
 12 13  1  0
 13 14  1  0
 14 15  1  1
 15 16  2  0
 16 17  1  0
 17 18  1  0
 15 19  1  0
 18 19  2  0
 19 20  1  0
 20 21  1  0
 21 22  2  0
 21 23  1  0
 23 24  2  0
 24 25  1  0
 25 26  2  0
 26 27  1  0
 27 28  1  0
 26 29  1  0
 23 30  1  0
 29 30  2  0
 10 31  1  0
 14 31  1  0
  7 32  1  0
  4 33  1  0
 32 33  1  0
M  END
