piperidine-amides-13704-covalent
     RDKit          3D

 28 30  0  0  0  0  0  0  0  0999 V2000
    7.0660   -3.3210   19.3220 C   0  0  0  0  0  0  0  0  0  0  0  0
    6.3700   -4.1720   20.3290 C   0  0  0  0  0  0  0  0  0  0  0  0
    5.3750   -4.8280   19.9770 O   0  0  0  0  0  0  0  0  0  0  0  0
    6.8900   -4.2560   21.6400 N   0  0  0  0  0  0  0  0  0  0  0  0
    7.7310   -3.1970   22.1670 C   0  0  0  0  0  0  0  0  0  0  0  0
    7.5490   -3.1270   23.6850 C   0  0  0  0  0  0  0  0  0  0  0  0
    6.1840   -3.6330   23.9840 C   0  0  0  0  0  0  0  0  0  0  0  0
    5.6780   -3.2260   25.3160 C   0  0  0  0  0  0  0  0  0  0  0  0
    4.4500   -3.1960   25.4480 O   0  0  0  0  0  0  0  0  0  0  0  0
    6.5600   -2.8960   26.3470 N   0  0  0  0  0  0  0  0  0  0  0  0
    6.6190   -1.6920   27.0960 C   0  0  0  0  0  0  0  0  0  0  0  0
    7.1890   -1.5160   28.3570 C   0  0  0  0  0  0  0  0  0  0  0  0
    7.2530   -0.3270   29.1050 C   0  0  0  0  0  0  0  0  0  0  0  0
    6.7360    0.8460   28.6360 C   0  0  0  0  0  0  0  0  0  0  0  0
    6.7670    2.1420   29.3630 C   0  0  0  0  0  0  0  0  0  0  0  0
    8.1560    2.7750   29.5320 C   0  0  0  0  0  0  0  0  0  0  0  0
    9.3040    1.9990   29.4840 O   0  0  0  0  0  0  0  0  0  0  0  0
    8.2050    4.1920   29.7420 N   0  0  0  0  0  0  0  0  0  0  0  0
    7.3790    4.6920   30.7830 C   0  0  0  0  0  0  0  0  0  0  0  0
    7.7810    5.3160   31.8850 N   0  0  0  0  0  0  0  0  0  0  0  0
    6.7250    5.6510   32.6570 C   0  0  0  0  0  0  0  0  0  0  0  0
    6.7100    6.3540   33.9620 C   0  0  0  0  0  0  0  0  0  0  0  0
    5.4280    5.2980   32.1860 C   0  0  0  0  0  0  0  0  0  0  0  0
    5.6490    4.5120   30.6970 S   0  0  0  0  0  0  0  0  0  0  0  0
    6.0960    0.8140   27.3090 C   0  0  0  0  0  0  0  0  0  0  0  0
    6.0060   -0.4570   26.4610 C   0  0  0  0  0  0  0  0  0  0  0  0
    6.0370   -5.0970   23.7440 C   0  0  0  0  0  0  0  0  0  0  0  0
    6.7120   -5.4670   22.4220 C   0  0  0  0  0  0  0  0  0  0  0  0
  1  2  1  0
  2  3  2  0
  2  4  1  0
  4  5  1  0
  5  6  1  0
  6  7  1  0
  7  8  1  0
  8  9  2  0
  8 10  1  0
 10 11  1  0
 11 12  2  0
 12 13  1  0
 13 14  2  0
 14 15  1  0
 15 16  1  0
 16 17  2  0
 16 18  1  0
 18 19  1  0
 19 20  2  0
 20 21  1  0
 21 22  1  0
 21 23  2  0
 19 24  1  0
 23 24  1  0
 14 25  1  0
 11 26  1  0
 25 26  2  0
  7 27  1  0
  4 28  1  0
 27 28  1  0
M  END
