piperidine-amides-25241-covalent
     RDKit          3D

 25 28  0  0  0  0  0  0  0  0999 V2000
    7.0740   -3.3110   19.3100 C   0  0  0  0  0  0  0  0  0  0  0  0
    6.3770   -4.1640   20.3020 C   0  0  0  0  0  0  0  0  0  0  0  0
    5.3450   -4.7260   19.9430 O   0  0  0  0  0  0  0  0  0  0  0  0
    6.9200   -4.3470   21.5710 N   0  0  0  0  0  0  0  0  0  0  0  0
    6.6750   -5.5490   22.3150 C   0  0  0  0  0  0  0  0  0  0  0  0
    5.9490   -5.1820   23.5720 C   0  0  0  0  0  0  0  0  0  0  0  0
    6.6690   -4.0150   24.2440 C   0  0  0  0  0  0  0  0  0  0  0  0
    5.8160   -3.5590   25.3700 C   0  0  0  0  0  0  0  0  0  0  0  0
    4.6020   -3.4290   25.1520 O   0  0  0  0  0  0  0  0  0  0  0  0
    6.2900   -3.2450   26.6690 N   0  0  0  0  0  0  0  0  0  0  0  0
    5.5530   -2.1800   27.2690 C   0  0  0  0  0  0  0  0  0  0  0  0
    5.5880   -2.3900   28.7760 C   0  0  0  0  0  0  0  0  0  0  0  0
    5.2960   -3.5350   29.4620 C   0  0  0  0  0  0  0  0  0  0  0  0
    4.7590   -4.7490   29.0100 N   0  0  0  0  0  0  0  0  0  0  0  0
    4.6000   -5.6900   30.1050 C   0  0  0  0  0  0  0  0  0  0  0  0
    3.5950   -5.6970   31.0060 C   0  0  0  0  0  0  0  0  0  0  0  0
    3.4990   -6.7070   32.1450 C   0  0  0  0  0  0  0  0  0  0  0  0
    4.6570   -7.7040   32.1610 C   0  0  0  0  0  0  0  0  0  0  0  0
    5.7590   -7.6420   31.1170 C   0  0  0  0  0  0  0  0  0  0  0  0
    5.5980   -6.5710   30.1350 C   0  0  0  0  0  0  0  0  0  0  0  0
    6.4720   -6.2550   29.0080 C   0  0  0  0  0  0  0  0  0  0  0  0
    5.7850   -5.2270   28.1640 C   0  0  2  0  0  0  0  0  0  0  0  0
    6.4220   -3.9520   27.8910 C   0  0  0  0  0  0  0  0  0  0  0  0
    6.8800   -2.8620   23.2780 C   0  0  0  0  0  0  0  0  0  0  0  0
    7.6660   -3.2840   22.2320 C   0  0  0  0  0  0  0  0  0  0  0  0
  1  2  1  0
  2  3  2  0
  2  4  1  0
  4  5  1  0
  5  6  1  0
  6  7  1  0
  7  8  1  0
  8  9  2  0
  8 10  1  0
 10 11  1  0
 11 12  1  0
 12 13  1  0
 13 14  1  0
 14 15  1  0
 15 16  1  0
 16 17  2  0
 17 18  1  0
 18 19  2  0
 15 20  2  0
 19 20  1  0
 20 21  1  0
 14 22  1  0
 22 21  1  1
 10 23  1  0
 22 23  1  0
  7 24  1  0
  4 25  1  0
 24 25  1  0
M  END
