piperidine-amides-30838-covalent
     RDKit          3D

 23 25  0  0  0  0  0  0  0  0999 V2000
    7.0830   -3.3380   19.3130 C   0  0  0  0  0  0  0  0  0  0  0  0
    6.3840   -4.1630   20.3010 C   0  0  0  0  0  0  0  0  0  0  0  0
    5.3490   -4.7570   19.9610 O   0  0  0  0  0  0  0  0  0  0  0  0
    6.8840   -4.3470   21.6030 N   0  0  0  0  0  0  0  0  0  0  0  0
    6.6720   -5.5640   22.3480 C   0  0  0  0  0  0  0  0  0  0  0  0
    5.9900   -5.1330   23.6200 C   0  0  0  0  0  0  0  0  0  0  0  0
    6.7070   -4.0180   24.3390 C   0  0  0  0  0  0  0  0  0  0  0  0
    5.8920   -3.4680   25.4450 C   0  0  0  0  0  0  0  0  0  0  0  0
    4.8080   -2.8660   25.1790 O   0  0  0  0  0  0  0  0  0  0  0  0
    6.2210   -3.5850   26.8110 N   0  0  0  0  0  0  0  0  0  0  0  0
    5.4070   -4.4320   27.6890 C   0  0  0  0  0  0  0  0  0  0  0  0
    6.4840   -5.0900   28.4330 C   0  0  0  0  0  0  0  0  0  0  0  0
    7.7630   -4.4840   28.0060 C   0  0  0  0  0  0  0  0  0  0  0  0
    7.4270   -3.1300   27.4020 C   0  0  2  0  0  0  0  0  0  0  0  0
    7.1860   -2.1310   28.5240 C   0  0  0  0  0  0  0  0  0  0  0  0
    8.3680   -1.5470   29.1980 N   0  0  0  0  0  0  0  0  0  0  0  0
    8.0270   -0.6190   30.2860 C   0  0  0  0  0  0  0  0  0  0  0  0
    6.7340   -0.3260   30.6200 C   0  0  0  0  0  0  0  0  0  0  0  0
    6.3590    0.8790   32.0290 Br  0  0  0  0  0  0  0  0  0  0  0  0
    5.7160   -0.9230   29.9140 C   0  0  0  0  0  0  0  0  0  0  0  0
    5.9510   -1.7760   28.9260 N   0  0  0  0  0  0  0  0  0  0  0  0
    7.0390   -2.8150   23.4400 C   0  0  0  0  0  0  0  0  0  0  0  0
    7.7240   -3.3180   22.1760 C   0  0  0  0  0  0  0  0  0  0  0  0
  1  2  1  0
  2  3  2  0
  2  4  1  0
  4  5  1  0
  5  6  1  0
  6  7  1  0
  7  8  1  0
  8  9  2  0
  8 10  1  0
 10 11  1  0
 11 12  1  0
 12 13  1  0
 10 14  1  0
 13 14  1  0
 14 15  1  1
 15 16  2  0
 16 17  1  0
 17 18  2  0
 18 19  1  0
 18 20  1  0
 15 21  1  0
 20 21  2  0
  7 22  1  0
  4 23  1  0
 22 23  1  0
M  END
