piperidine-amides-2371-covalent
     RDKit          3D

 27 29  0  0  0  0  0  0  0  0999 V2000
    7.1250   -3.3070   19.2980 C   0  0  0  0  0  0  0  0  0  0  0  0
    6.3340   -4.0530   20.3130 C   0  0  0  0  0  0  0  0  0  0  0  0
    5.3110   -4.6080   19.9130 O   0  0  0  0  0  0  0  0  0  0  0  0
    6.7750   -4.1370   21.6410 N   0  0  0  0  0  0  0  0  0  0  0  0
    7.5100   -3.0780   22.2940 C   0  0  0  0  0  0  0  0  0  0  0  0
    7.0890   -3.0380   23.7340 C   0  0  0  0  0  0  0  0  0  0  0  0
    5.6790   -3.6010   23.8060 C   0  0  0  0  0  0  0  0  0  0  0  0
    5.0810   -3.4740   25.1610 C   0  0  0  0  0  0  0  0  0  0  0  0
    3.9820   -3.9960   25.3540 O   0  0  0  0  0  0  0  0  0  0  0  0
    5.6710   -2.7690   26.2260 N   0  0  0  0  0  0  0  0  0  0  0  0
    6.6120   -3.4380   27.0770 C   0  0  0  0  0  0  0  0  0  0  0  0
    5.9590   -4.3150   28.1170 C   0  0  0  0  0  0  0  0  0  0  0  0
    6.5340   -5.5730   28.3580 C   0  0  0  0  0  0  0  0  0  0  0  0
    6.0800   -6.4850   29.2600 C   0  0  0  0  0  0  0  0  0  0  0  0
    4.9960   -6.1670   29.9820 C   0  0  0  0  0  0  0  0  0  0  0  0
    4.1840   -4.9270   29.9530 C   0  0  0  0  0  0  0  0  0  0  0  0
    3.0820   -4.6930   30.7410 O   0  0  0  0  0  0  0  0  0  0  0  0
    1.8210   -4.7020   30.1400 C   0  0  0  0  0  0  0  0  0  0  0  0
    0.9190   -5.6780   30.8470 C   0  0  0  0  0  0  0  0  0  0  0  0
    0.3550   -5.1700   32.0110 O   0  0  0  0  0  0  0  0  0  0  0  0
    0.7320   -6.8560   30.3570 N   0  0  0  0  0  0  0  0  0  0  0  0
    0.8360   -7.8280   31.4360 C   0  0  0  0  0  0  0  0  0  0  0  0
    1.9350   -8.5300   31.7850 C   0  0  0  0  0  0  0  0  0  0  0  0
    0.8870   -9.3560   30.9930 C   0  0  0  0  0  0  0  0  0  0  0  0
    4.8440   -4.0320   28.8890 C   0  0  0  0  0  0  0  0  0  0  0  0
    5.6650   -5.0810   23.4120 C   0  0  0  0  0  0  0  0  0  0  0  0
    6.5740   -5.3620   22.4040 C   0  0  0  0  0  0  0  0  0  0  0  0
  1  2  1  0
  2  3  2  0
  2  4  1  0
  4  5  1  0
  5  6  1  0
  6  7  1  0
  7  8  1  0
  8  9  2  0
  8 10  1  0
 10 11  1  0
 11 12  1  0
 12 13  2  0
 13 14  1  0
 14 15  2  0
 15 16  1  0
 16 17  1  0
 17 18  1  0
 18 19  1  0
 19 20  2  0
 19 21  1  0
 21 22  1  0
 22 23  1  0
 22 24  1  0
 23 24  1  0
 12 25  1  0
 16 25  2  0
  7 26  1  0
  4 27  1  0
 26 27  1  0
M  END
