piperidine-amides-29528-covalent
     RDKit          3D

 26 28  0  0  0  0  0  0  0  0999 V2000
    7.1380   -3.3420   19.3230 C   0  0  0  0  0  0  0  0  0  0  0  0
    6.3060   -4.0810   20.2610 C   0  0  0  0  0  0  0  0  0  0  0  0
    5.2630   -4.6140   19.9010 O   0  0  0  0  0  0  0  0  0  0  0  0
    6.7570   -4.2230   21.6070 N   0  0  0  0  0  0  0  0  0  0  0  0
    7.5610   -3.1790   22.1870 C   0  0  0  0  0  0  0  0  0  0  0  0
    6.9440   -2.6640   23.4440 C   0  0  0  0  0  0  0  0  0  0  0  0
    6.6460   -3.8440   24.3560 C   0  0  0  0  0  0  0  0  0  0  0  0
    5.9150   -3.3190   25.5360 C   0  0  0  0  0  0  0  0  0  0  0  0
    4.6790   -3.4350   25.6770 O   0  0  0  0  0  0  0  0  0  0  0  0
    6.6850   -2.6510   26.5190 N   0  0  0  0  0  0  0  0  0  0  0  0
    7.8470   -3.3400   26.9960 C   0  0  0  0  0  0  0  0  0  0  0  0
    7.4850   -4.6740   27.5820 C   0  0  0  0  0  0  0  0  0  0  0  0
    8.3060   -5.7100   27.9450 C   0  0  0  0  0  0  0  0  0  0  0  0
    7.0150   -1.2170   26.1920 C   0  0  0  0  0  0  0  0  0  0  0  0
    8.1540   -0.7470   25.4790 N   0  0  0  0  0  0  0  0  0  0  0  0
    8.3030    0.6200   25.2560 C   0  0  0  0  0  0  0  0  0  0  0  0
    9.4610    1.1510   24.5190 C   0  0  0  0  0  0  0  0  0  0  0  0
   10.6050    0.4550   24.1410 C   0  0  0  0  0  0  0  0  0  0  0  0
   11.6690    1.0100   23.4530 C   0  0  0  0  0  0  0  0  0  0  0  0
   11.6700    2.3320   23.0800 C   0  0  0  0  0  0  0  0  0  0  0  0
   10.4780    3.0670   23.4660 C   0  0  0  0  0  0  0  0  0  0  0  0
    9.4160    2.4970   24.1590 C   0  0  0  0  0  0  0  0  0  0  0  0
    7.3080    1.3840   25.7630 C   0  0  0  0  0  0  0  0  0  0  0  0
    6.1840    0.3430   26.5280 S   0  0  0  0  0  0  0  0  0  0  0  0
    5.7780   -4.8710   23.6640 C   0  0  0  0  0  0  0  0  0  0  0  0
    6.4380   -5.3940   22.3820 C   0  0  0  0  0  0  0  0  0  0  0  0
  1  2  1  0
  2  3  2  0
  2  4  1  0
  4  5  1  0
  5  6  1  0
  6  7  1  0
  7  8  1  0
  8  9  2  0
  8 10  1  0
 10 11  1  0
 11 12  1  0
 12 13  2  3
 10 14  1  0
 14 15  2  0
 15 16  1  0
 16 17  1  0
 17 18  2  0
 18 19  1  0
 19 20  2  0
 20 21  1  0
 17 22  1  0
 21 22  2  0
 16 23  2  0
 14 24  1  0
 23 24  1  0
  7 25  1  0
  4 26  1  0
 25 26  1  0
M  END
