piperidine-amides-14731-covalent
     RDKit          3D

 22 23  0  0  0  0  0  0  0  0999 V2000
    7.0740   -3.3410   19.3010 C   0  0  0  0  0  0  0  0  0  0  0  0
    6.4160   -4.1900   20.2950 C   0  0  0  0  0  0  0  0  0  0  0  0
    5.3730   -4.7850   19.9650 O   0  0  0  0  0  0  0  0  0  0  0  0
    6.9920   -4.3640   21.5790 N   0  0  0  0  0  0  0  0  0  0  0  0
    7.7830   -3.3000   22.1390 C   0  0  0  0  0  0  0  0  0  0  0  0
    6.9970   -2.6440   23.2110 C   0  0  0  0  0  0  0  0  0  0  0  0
    6.5140   -3.7700   24.0800 C   0  0  0  0  0  0  0  0  0  0  0  0
    5.6940   -3.1980   25.1830 C   0  0  0  0  0  0  0  0  0  0  0  0
    4.4750   -3.1600   25.0360 O   0  0  0  0  0  0  0  0  0  0  0  0
    6.4010   -2.7650   26.2780 N   0  0  0  0  0  0  0  0  0  0  0  0
    6.3090   -1.4830   26.8820 C   0  0  0  0  0  0  0  0  0  0  0  0
    6.0980   -0.2160   26.2860 C   0  0  0  0  0  0  0  0  0  0  0  0
    6.0470    0.9200   27.0720 C   0  0  0  0  0  0  0  0  0  0  0  0
    5.8340    2.2360   26.6520 C   0  0  0  0  0  0  0  0  0  0  0  0
    7.0430    2.9280   27.2140 C   0  0  0  0  0  0  0  0  0  0  0  0
    4.5910    2.7050   26.9940 C   0  0  0  0  0  0  0  0  0  0  0  0
    6.2200    0.8720   28.5640 C   0  0  0  0  0  0  0  0  0  0  0  0
    6.4450   -0.4080   29.2940 C   0  0  0  0  0  0  0  0  0  0  0  0
    6.4680   -1.6190   28.3300 C   0  0  0  0  0  0  0  0  0  0  0  0
    6.6660   -3.2640   28.8780 Cl  0  0  0  0  0  0  0  0  0  0  0  0
    5.6300   -4.7040   23.2830 C   0  0  0  0  0  0  0  0  0  0  0  0
    6.4990   -5.3890   22.4610 C   0  0  0  0  0  0  0  0  0  0  0  0
  1  2  1  0
  2  3  2  0
  2  4  1  0
  4  5  1  0
  5  6  1  0
  6  7  1  0
  7  8  1  0
  8  9  2  0
  8 10  1  0
 10 11  1  0
 11 12  2  0
 12 13  1  0
 13 14  1  0
 14 15  1  0
 14 16  1  0
 13 17  2  0
 17 18  1  0
 11 19  1  0
 18 19  2  0
 19 20  1  0
  7 21  1  0
  4 22  1  0
 21 22  1  0
M  END
