piperidine-amides-13158-covalent
     RDKit          3D

 20 21  0  0  0  0  0  0  0  0999 V2000
    7.1090   -3.2620   19.1960 C   0  0  0  0  0  0  0  0  0  0  0  0
    6.3580   -4.0220   20.2200 C   0  0  0  0  0  0  0  0  0  0  0  0
    5.2800   -4.5380   19.8720 O   0  0  0  0  0  0  0  0  0  0  0  0
    6.8720   -4.1860   21.5090 N   0  0  0  0  0  0  0  0  0  0  0  0
    6.4360   -5.2940   22.2920 C   0  0  0  0  0  0  0  0  0  0  0  0
    5.9650   -4.9160   23.6340 C   0  0  0  0  0  0  0  0  0  0  0  0
    6.6270   -3.7170   24.1920 C   0  0  0  0  0  0  0  0  0  0  0  0
    5.9160   -3.1810   25.3850 C   0  0  0  0  0  0  0  0  0  0  0  0
    4.6720   -3.2580   25.4200 O   0  0  0  0  0  0  0  0  0  0  0  0
    6.6380   -2.5870   26.4440 N   0  0  0  0  0  0  0  0  0  0  0  0
    6.3530   -2.8350   27.8820 C   0  0  0  0  0  0  0  0  0  0  0  0
    5.9610   -4.2360   28.1790 C   0  0  0  0  0  0  0  0  0  0  0  0
    5.0930   -4.9970   27.3510 N   0  0  0  0  0  0  0  0  0  0  0  0
    5.0140   -6.2090   28.0140 C   0  0  0  0  0  0  0  0  0  0  0  0
    4.2840   -7.2870   27.6060 C   0  0  0  0  0  0  0  0  0  0  0  0
    5.8450   -6.1880   29.2660 C   0  0  0  0  0  0  0  0  0  0  0  0
    5.9260   -7.2680   30.0950 C   0  0  0  0  0  0  0  0  0  0  0  0
    6.3450   -4.9490   29.2220 O   0  0  0  0  0  0  0  0  0  0  0  0
    6.9560   -2.6390   23.2160 C   0  0  0  0  0  0  0  0  0  0  0  0
    7.6520   -3.1830   22.1800 C   0  0  0  0  0  0  0  0  0  0  0  0
  1  2  1  0
  2  3  2  0
  2  4  1  0
  4  5  1  0
  5  6  1  0
  6  7  1  0
  7  8  1  0
  8  9  2  0
  8 10  1  0
 10 11  1  0
 11 12  1  0
 12 13  2  0
 13 14  1  0
 14 15  1  0
 14 16  2  0
 16 17  1  0
 12 18  1  0
 16 18  1  0
  7 19  1  0
  4 20  1  0
 19 20  1  0
M  END
