piperidine-amides-19872-covalent
     RDKit          3D

 22 24  0  0  0  0  0  0  0  0999 V2000
    7.1590   -3.2330   19.1240 C   0  0  0  0  0  0  0  0  0  0  0  0
    6.3730   -3.9590   20.1540 C   0  0  0  0  0  0  0  0  0  0  0  0
    5.2890   -4.4400   19.8310 O   0  0  0  0  0  0  0  0  0  0  0  0
    6.8970   -4.1270   21.4210 N   0  0  0  0  0  0  0  0  0  0  0  0
    6.5550   -5.2840   22.1950 C   0  0  0  0  0  0  0  0  0  0  0  0
    5.8650   -4.8110   23.4380 C   0  0  0  0  0  0  0  0  0  0  0  0
    6.7290   -3.7220   24.0900 C   0  0  0  0  0  0  0  0  0  0  0  0
    6.0300   -3.2430   25.2850 C   0  0  0  0  0  0  0  0  0  0  0  0
    5.1050   -2.4190   25.1880 O   0  0  0  0  0  0  0  0  0  0  0  0
    6.3890   -3.7430   26.5340 N   0  0  0  0  0  0  0  0  0  0  0  0
    5.3150   -4.5390   27.0480 C   0  0  2  0  0  0  0  0  0  0  0  0
    5.5330   -4.7220   28.4930 C   0  0  0  0  0  0  0  0  0  0  0  0
    6.7240   -4.4430   29.0030 C   0  0  0  0  0  0  0  0  0  0  0  0
    7.7060   -4.7650   28.1470 C   0  0  0  0  0  0  0  0  0  0  0  0
    7.7310   -4.0150   27.0010 C   0  0  1  0  0  0  0  0  0  0  0  0
    8.6130   -4.5190   25.8750 C   0  0  0  0  0  0  0  0  0  0  0  0
    7.6730   -5.6160   25.5220 C   0  0  0  0  0  0  0  0  0  0  0  0
    7.5420   -6.0590   24.2450 O   0  0  0  0  0  0  0  0  0  0  0  0
    6.9250   -6.2070   26.6370 N   0  0  0  0  0  0  0  0  0  0  0  0
    5.5180   -5.9420   26.4900 C   0  0  0  0  0  0  0  0  0  0  0  0
    7.1330   -2.6300   23.2080 C   0  0  0  0  0  0  0  0  0  0  0  0
    7.7640   -3.1050   21.9620 C   0  0  0  0  0  0  0  0  0  0  0  0
  1  2  1  0
  2  3  2  0
  2  4  1  0
  4  5  1  0
  5  6  1  0
  6  7  1  0
  7  8  1  0
  8  9  2  0
  8 10  1  0
 10 11  1  0
 11 12  1  1
 12 13  1  0
 13 14  1  0
 10 15  1  0
 15 14  1  1
 15 16  1  0
 16 17  1  0
 17 18  2  0
 17 19  1  0
 11 20  1  0
 19 20  1  0
  7 21  1  0
  4 22  1  0
 21 22  1  0
M  END
