piperidine-amides-12704-covalent
     RDKit          3D

 22 23  0  0  0  0  0  0  0  0999 V2000
    7.0530   -3.3310   19.3310 C   0  0  0  0  0  0  0  0  0  0  0  0
    6.3810   -4.1700   20.3470 C   0  0  0  0  0  0  0  0  0  0  0  0
    5.3680   -4.7920   19.9680 O   0  0  0  0  0  0  0  0  0  0  0  0
    6.8910   -4.2870   21.6500 N   0  0  0  0  0  0  0  0  0  0  0  0
    7.6710   -3.2370   22.2260 C   0  0  0  0  0  0  0  0  0  0  0  0
    7.2970   -2.9590   23.5990 C   0  0  0  0  0  0  0  0  0  0  0  0
    6.0650   -3.6690   23.9890 C   0  0  0  0  0  0  0  0  0  0  0  0
    5.6560   -3.2870   25.3620 C   0  0  0  0  0  0  0  0  0  0  0  0
    4.4430   -3.3540   25.6480 O   0  0  0  0  0  0  0  0  0  0  0  0
    6.5800   -2.8440   26.3180 N   0  0  0  0  0  0  0  0  0  0  0  0
    6.4370   -1.5510   27.0150 C   0  0  0  0  0  0  0  0  0  0  0  0
    5.7820   -0.4130   26.3660 C   0  0  0  0  0  0  0  0  0  0  0  0
    5.6430    0.8180   27.0470 N   0  0  0  0  0  0  0  0  0  0  0  0
    6.1270    1.0430   28.4060 C   0  0  0  0  0  0  0  0  0  0  0  0
    6.7540   -0.0480   29.0190 C   0  0  0  0  0  0  0  0  0  0  0  0
    7.2210    0.1230   30.2980 C   0  0  0  0  0  0  0  0  0  0  0  0
    6.3140   -0.0760   31.2850 C   0  0  0  0  0  0  0  0  0  0  0  0
    7.7160    1.3510   30.5970 F   0  0  0  0  0  0  0  0  0  0  0  0
    8.2480   -0.7800   30.4230 F   0  0  0  0  0  0  0  0  0  0  0  0
    6.8990   -1.2560   28.3700 C   0  0  0  0  0  0  0  0  0  0  0  0
    6.0560   -5.1370   23.7260 C   0  0  0  0  0  0  0  0  0  0  0  0
    6.5890   -5.4480   22.4600 C   0  0  0  0  0  0  0  0  0  0  0  0
  1  2  1  0
  2  3  2  0
  2  4  1  0
  4  5  1  0
  5  6  1  0
  6  7  1  0
  7  8  1  0
  8  9  2  0
  8 10  1  0
 10 11  1  0
 11 12  2  0
 12 13  1  0
 13 14  2  0
 14 15  1  0
 15 16  1  0
 16 17  1  0
 16 18  1  0
 16 19  1  0
 11 20  1  0
 15 20  2  0
  7 21  1  0
  4 22  1  0
 21 22  1  0
M  END
