piperidine-amides-14736-covalent
     RDKit          3D

 22 23  0  0  0  0  0  0  0  0999 V2000
    7.1440   -3.2890   19.2610 C   0  0  0  0  0  0  0  0  0  0  0  0
    6.3730   -4.0200   20.2610 C   0  0  0  0  0  0  0  0  0  0  0  0
    5.3070   -4.5550   19.8980 O   0  0  0  0  0  0  0  0  0  0  0  0
    6.8620   -4.1580   21.5830 N   0  0  0  0  0  0  0  0  0  0  0  0
    6.5630   -5.3580   22.3070 C   0  0  0  0  0  0  0  0  0  0  0  0
    6.1950   -5.0270   23.7290 C   0  0  0  0  0  0  0  0  0  0  0  0
    6.1050   -3.5140   23.8540 C   0  0  0  0  0  0  0  0  0  0  0  0
    5.6380   -3.0920   25.2140 C   0  0  0  0  0  0  0  0  0  0  0  0
    4.4320   -2.9040   25.3300 O   0  0  0  0  0  0  0  0  0  0  0  0
    6.5590   -2.9370   26.2420 N   0  0  0  0  0  0  0  0  0  0  0  0
    6.2440   -3.3570   27.5680 C   0  0  0  0  0  0  0  0  0  0  0  0
    5.6270   -4.6100   27.6390 C   0  0  0  0  0  0  0  0  0  0  0  0
    5.2640   -5.3140   26.5010 C   0  0  0  0  0  0  0  0  0  0  0  0
    4.6400   -6.5620   26.4770 C   0  0  0  0  0  0  0  0  0  0  0  0
    4.3460   -7.1750   27.8030 C   0  0  0  0  0  0  0  0  0  0  0  0
    4.7590   -6.3800   29.0390 C   0  0  0  0  0  0  0  0  0  0  0  0
    4.4850   -6.9690   30.3610 C   0  0  0  0  0  0  0  0  0  0  0  0
    5.8410   -7.4590   30.7470 C   0  0  0  0  0  0  0  0  0  0  0  0
    3.3920   -7.7870   30.4990 C   0  0  0  0  0  0  0  0  0  0  0  0
    5.3660   -5.1660   28.8830 C   0  0  0  0  0  0  0  0  0  0  0  0
    7.4660   -2.9830   23.5730 C   0  0  0  0  0  0  0  0  0  0  0  0
    7.7110   -3.1000   22.1020 C   0  0  0  0  0  0  0  0  0  0  0  0
  1  2  1  0
  2  3  2  0
  2  4  1  0
  4  5  1  0
  5  6  1  0
  6  7  1  0
  7  8  1  0
  8  9  2  0
  8 10  1  0
 10 11  1  0
 11 12  1  0
 12 13  2  0
 13 14  1  0
 14 15  2  0
 15 16  1  0
 16 17  1  0
 17 18  1  0
 17 19  1  0
 12 20  1  0
 16 20  2  0
  7 21  1  0
  4 22  1  0
 21 22  1  0
M  END
