piperidine-amides-30910-covalent
     RDKit          3D

 27 28  0  0  0  0  0  0  0  0999 V2000
    7.0930   -3.3370   19.3410 C   0  0  0  0  0  0  0  0  0  0  0  0
    6.4240   -4.1710   20.3380 C   0  0  0  0  0  0  0  0  0  0  0  0
    5.4150   -4.8170   19.9880 O   0  0  0  0  0  0  0  0  0  0  0  0
    6.9240   -4.3030   21.6520 N   0  0  0  0  0  0  0  0  0  0  0  0
    7.7190   -3.2540   22.3000 C   0  0  0  0  0  0  0  0  0  0  0  0
    7.1500   -3.0260   23.6910 C   0  0  0  0  0  0  0  0  0  0  0  0
    5.9320   -3.8660   23.8660 C   0  0  0  0  0  0  0  0  0  0  0  0
    5.1510   -3.7590   25.1290 C   0  0  0  0  0  0  0  0  0  0  0  0
    4.1700   -4.5300   25.2580 O   0  0  0  0  0  0  0  0  0  0  0  0
    5.3270   -2.8780   26.2130 N   0  0  0  0  0  0  0  0  0  0  0  0
    6.5340   -2.9500   26.9710 C   0  0  0  0  0  0  0  0  0  0  0  0
    6.4610   -4.0930   27.9410 C   0  0  0  0  0  0  0  0  0  0  0  0
    5.6230   -3.9600   29.1060 C   0  0  0  0  0  0  0  0  0  0  0  0
    4.1830   -3.9580   28.9430 N   0  0  0  0  0  0  0  0  0  0  0  0
    3.6590   -2.9880   29.9590 C   0  0  0  0  0  0  0  0  0  0  0  0
    2.3030   -2.8600   30.1320 O   0  0  0  0  0  0  0  0  0  0  0  0
    4.4570   -2.2130   30.7420 O   0  0  0  0  0  0  0  0  0  0  0  0
    4.0420   -0.9930   31.3300 C   0  0  0  0  0  0  0  0  0  0  0  0
    3.2000   -1.0910   32.5460 C   0  0  0  0  0  0  0  0  0  0  0  0
    5.2830   -0.2390   31.8310 C   0  0  0  0  0  0  0  0  0  0  0  0
    3.5090   -0.2820   30.2800 C   0  0  0  0  0  0  0  0  0  0  0  0
    3.8560   -3.8790   27.6790 C   0  0  0  0  0  0  0  0  0  0  0  0
    4.1690   -2.5430   27.0080 C   0  0  0  0  0  0  0  0  0  0  0  0
    4.5800   -1.3860   27.8860 C   0  0  0  0  0  0  0  0  0  0  0  0
    3.1880   -2.0020   26.2130 C   0  0  0  0  0  0  0  0  0  0  0  0
    6.1360   -5.2970   23.6010 C   0  0  0  0  0  0  0  0  0  0  0  0
    6.7250   -5.5140   22.3850 C   0  0  0  0  0  0  0  0  0  0  0  0
  1  2  1  0
  2  3  2  0
  2  4  1  0
  4  5  1  0
  5  6  1  0
  6  7  1  0
  7  8  1  0
  8  9  2  0
  8 10  1  0
 10 11  1  0
 11 12  1  0
 12 13  1  0
 13 14  1  0
 14 15  1  0
 15 16  2  0
 15 17  1  0
 18 17  1  0
 18 19  1  0
 18 20  1  0
 18 21  1  0
 14 22  1  0
 10 23  1  0
 22 23  1  0
 23 24  1  0
 23 25  1  0
  7 26  1  0
  4 27  1  0
 26 27  1  0
M  END
