piperidine-amides-31641-covalent
     RDKit          3D

 28 31  0  0  0  0  0  0  0  0999 V2000
    7.1440   -3.3270   19.4240 C   0  0  0  0  0  0  0  0  0  0  0  0
    6.3580   -4.1040   20.3520 C   0  0  0  0  0  0  0  0  0  0  0  0
    5.3110   -4.6830   19.9260 O   0  0  0  0  0  0  0  0  0  0  0  0
    6.7380   -4.2720   21.6930 N   0  0  0  0  0  0  0  0  0  0  0  0
    6.5570   -5.6500   22.2240 C   0  0  0  0  0  0  0  0  0  0  0  0
    6.4040   -5.4310   23.7820 C   0  0  0  0  0  0  0  0  0  0  0  0
    6.0280   -3.9830   23.9740 C   0  0  0  0  0  0  0  0  0  0  0  0
    5.0710   -3.7080   25.2380 C   0  0  0  0  0  0  0  0  0  0  0  0
    3.9270   -3.8320   24.8440 O   0  0  0  0  0  0  0  0  0  0  0  0
    5.6240   -3.4120   26.3630 N   0  0  0  0  0  0  0  0  0  0  0  0
    5.7690   -2.8400   27.6080 C   0  0  0  0  0  0  0  0  0  0  0  0
    5.5970   -3.2360   28.9140 C   0  0  0  0  0  0  0  0  0  0  0  0
    5.7950   -4.6050   28.9420 C   0  0  0  0  0  0  0  0  0  0  0  0
    5.5140   -5.6710   29.7100 N   0  0  0  0  0  0  0  0  0  0  0  0
    6.0820   -6.6840   28.9540 C   0  0  0  0  0  0  0  0  0  0  0  0
    6.6660   -6.2900   27.8320 N   0  0  0  0  0  0  0  0  0  0  0  0
    6.5400   -5.0110   27.7490 C   0  0  0  0  0  0  0  0  0  0  0  0
    6.8990   -3.9470   26.8780 C   0  0  0  0  0  0  0  0  0  0  0  0
    7.5360   -4.5700   25.7340 C   0  0  0  0  0  0  0  0  0  0  0  0
    8.4560   -3.3760   25.9200 C   0  0  0  0  0  0  0  0  0  0  0  0
    9.2970   -3.6080   26.8950 N   0  0  0  0  0  0  0  0  0  0  0  0
    9.6670   -4.9790   27.0570 C   0  0  0  0  0  0  0  0  0  0  0  0
    9.7800   -5.8340   26.0240 C   0  0  0  0  0  0  0  0  0  0  0  0
    8.8690   -5.5920   28.0740 C   0  0  0  0  0  0  0  0  0  0  0  0
    8.7840   -3.1660   27.9630 C   0  0  0  0  0  0  0  0  0  0  0  0
    7.5150   -2.9650   27.6600 C   0  0  0  0  0  0  0  0  0  0  0  0
    7.0090   -2.9350   23.5890 C   0  0  0  0  0  0  0  0  0  0  0  0
    7.6490   -3.3120   22.2940 C   0  0  0  0  0  0  0  0  0  0  0  0
  1  2  1  0
  2  3  2  0
  2  4  1  0
  4  5  1  0
  5  6  1  0
  6  7  1  0
  7  8  1  0
  8  9  2  0
  8 10  1  0
 10 11  1  0
 11 12  1  0
 12 13  1  0
 13 14  1  0
 14 15  2  0
 15 16  1  0
 13 17  2  0
 16 17  1  0
 18 10  1  0
 17 18  1  0
 18 19  1  0
 19 20  1  0
 20 21  1  0
 21 22  1  0
 22 23  1  0
 22 24  1  0
 21 25  1  0
 18 26  1  0
 25 26  1  0
  7 27  1  0
  4 28  1  0
 27 28  1  0
M  END
