piperidine-amides-10454-covalent
     RDKit          3D

 24 26  0  0  0  0  0  0  0  0999 V2000
    7.0130   -3.3570   19.3710 C   0  0  0  0  0  0  0  0  0  0  0  0
    6.3780   -4.2130   20.3820 C   0  0  0  0  0  0  0  0  0  0  0  0
    5.3810   -4.8800   19.9870 O   0  0  0  0  0  0  0  0  0  0  0  0
    6.8820   -4.3080   21.6930 N   0  0  0  0  0  0  0  0  0  0  0  0
    7.7240   -3.2830   22.2850 C   0  0  0  0  0  0  0  0  0  0  0  0
    7.1000   -2.9050   23.5970 C   0  0  0  0  0  0  0  0  0  0  0  0
    5.8210   -3.6680   23.7440 C   0  0  0  0  0  0  0  0  0  0  0  0
    4.9360   -3.1400   24.8180 C   0  0  0  0  0  0  0  0  0  0  0  0
    3.8240   -2.7210   24.4520 O   0  0  0  0  0  0  0  0  0  0  0  0
    5.2170   -3.0630   26.1910 N   0  0  0  0  0  0  0  0  0  0  0  0
    5.5760   -1.7920   26.7560 C   0  0  0  0  0  0  0  0  0  0  0  0
    5.6870   -0.7360   28.0200 C   0  0  0  0  0  0  0  0  0  0  0  0
    5.1840   -1.3680   28.9770 N   0  0  0  0  0  0  0  0  0  0  0  0
    5.3330   -1.7470   27.7130 N   0  0  0  0  0  0  0  0  0  0  0  0
    4.7550   -3.0050   27.7370 C   0  0  0  0  0  0  0  0  0  0  0  0
    3.4130   -2.6930   27.9070 C   0  0  0  0  0  0  0  0  0  0  0  0
    2.3970   -3.6140   27.9990 C   0  0  0  0  0  0  0  0  0  0  0  0
    2.5780   -4.9660   27.9330 C   0  0  0  0  0  0  0  0  0  0  0  0
    3.8740   -5.3830   27.7650 C   0  0  0  0  0  0  0  0  0  0  0  0
    5.0360   -4.4000   27.6590 C   0  0  0  0  0  0  0  0  0  0  0  0
    6.7270   -5.3020   27.4310 Br  0  0  0  0  0  0  0  0  0  0  0  0
    6.0420   -0.7520   26.6060 C   0  0  0  0  0  0  0  0  0  0  0  0
    6.1060   -5.1730   23.8220 C   0  0  0  0  0  0  0  0  0  0  0  0
    6.6730   -5.5460   22.4480 C   0  0  0  0  0  0  0  0  0  0  0  0
  1  2  1  0
  2  3  2  0
  2  4  1  0
  4  5  1  0
  5  6  1  0
  6  7  1  0
  7  8  1  0
  8  9  2  0
  8 10  1  0
 10 11  1  0
 11 12  1  0
 12 13  2  0
 13 14  1  0
 14 15  1  0
 15 16  2  0
 16 17  1  0
 17 18  2  0
 18 19  1  0
 15 20  1  0
 19 20  2  0
 20 21  1  0
 11 22  2  0
 14 22  1  0
  7 23  1  0
  4 24  1  0
 23 24  1  0
M  END
