piperidine-amides-7218-covalent
     RDKit          3D

 21 22  0  0  0  0  0  0  0  0999 V2000
    7.0420   -3.3370   19.3450 C   0  0  0  0  0  0  0  0  0  0  0  0
    6.3680   -4.1770   20.3430 C   0  0  0  0  0  0  0  0  0  0  0  0
    5.3340   -4.7770   19.9590 O   0  0  0  0  0  0  0  0  0  0  0  0
    6.8880   -4.3280   21.6340 N   0  0  0  0  0  0  0  0  0  0  0  0
    6.6440   -5.5180   22.4160 C   0  0  0  0  0  0  0  0  0  0  0  0
    6.0520   -5.1050   23.7400 C   0  0  0  0  0  0  0  0  0  0  0  0
    6.0040   -3.6060   23.8990 C   0  0  0  0  0  0  0  0  0  0  0  0
    5.6490   -3.2100   25.2780 C   0  0  0  0  0  0  0  0  0  0  0  0
    4.4420   -3.2560   25.6270 O   0  0  0  0  0  0  0  0  0  0  0  0
    6.6170   -2.7790   26.1960 N   0  0  0  0  0  0  0  0  0  0  0  0
    6.4900   -1.5870   26.9970 C   0  0  0  0  0  0  0  0  0  0  0  0
    5.9620   -0.2950   26.3890 C   0  0  0  0  0  0  0  0  0  0  0  0
    5.8410    0.8510   27.1590 C   0  0  0  0  0  0  0  0  0  0  0  0
    5.3420    2.0460   26.5610 O   0  0  0  0  0  0  0  0  0  0  0  0
    6.1960    0.8590   28.5030 C   0  0  0  0  0  0  0  0  0  0  0  0
    6.0930    1.9620   29.2830 F   0  0  0  0  0  0  0  0  0  0  0  0
    6.6750   -0.3260   29.0380 C   0  0  0  0  0  0  0  0  0  0  0  0
    6.8150   -1.4900   28.3310 C   0  0  0  0  0  0  0  0  0  0  0  0
    7.2940   -2.5390   29.0500 F   0  0  0  0  0  0  0  0  0  0  0  0
    7.3380   -2.9470   23.5990 C   0  0  0  0  0  0  0  0  0  0  0  0
    7.6840   -3.2130   22.1640 C   0  0  0  0  0  0  0  0  0  0  0  0
  1  2  1  0
  2  3  2  0
  2  4  1  0
  4  5  1  0
  5  6  1  0
  6  7  1  0
  7  8  1  0
  8  9  2  0
  8 10  1  0
 10 11  1  0
 11 12  2  0
 12 13  1  0
 13 14  1  0
 13 15  2  0
 15 16  1  0
 15 17  1  0
 11 18  1  0
 17 18  2  0
 18 19  1  0
  7 20  1  0
  4 21  1  0
 20 21  1  0
M  END
