piperidine-amides-4973-covalent
     RDKit          3D

 23 25  0  0  0  0  0  0  0  0999 V2000
    7.0830   -3.3640   19.3060 C   0  0  0  0  0  0  0  0  0  0  0  0
    6.3700   -4.1550   20.3250 C   0  0  0  0  0  0  0  0  0  0  0  0
    5.3190   -4.7080   19.9470 O   0  0  0  0  0  0  0  0  0  0  0  0
    6.8970   -4.3160   21.6200 N   0  0  0  0  0  0  0  0  0  0  0  0
    7.6680   -3.2740   22.2300 C   0  0  0  0  0  0  0  0  0  0  0  0
    7.2100   -2.8980   23.5650 C   0  0  0  0  0  0  0  0  0  0  0  0
    5.9690   -3.5870   23.9710 C   0  0  0  0  0  0  0  0  0  0  0  0
    5.5980   -3.2310   25.3630 C   0  0  0  0  0  0  0  0  0  0  0  0
    4.3940   -3.2510   25.6700 O   0  0  0  0  0  0  0  0  0  0  0  0
    6.5740   -2.8800   26.3020 N   0  0  0  0  0  0  0  0  0  0  0  0
    6.5020   -1.6380   27.1090 C   0  0  0  0  0  0  0  0  0  0  0  0
    5.9150   -0.3690   26.5750 C   0  0  0  0  0  0  0  0  0  0  0  0
    5.8590    0.8480   27.4030 C   0  0  0  0  0  0  0  0  0  0  0  0
    6.3820    0.7240   28.6760 C   0  0  0  0  0  0  0  0  0  0  0  0
    6.3680    1.8380   29.5190 N   0  0  0  0  0  0  0  0  0  0  0  0
    6.9580    1.5580   30.8340 C   0  0  0  0  0  0  0  0  0  0  0  0
    7.0490    2.5030   31.8080 C   0  0  0  0  0  0  0  0  0  0  0  0
    7.8350    3.5380   31.4000 C   0  0  0  0  0  0  0  0  0  0  0  0
    7.4780   -0.1170   30.8730 S   0  0  0  0  0  0  0  0  0  0  0  0
    6.9180   -0.4260   29.1660 C   0  0  0  0  0  0  0  0  0  0  0  0
    7.0210   -1.6200   28.4900 C   0  0  0  0  0  0  0  0  0  0  0  0
    5.9630   -5.0540   23.7480 C   0  0  0  0  0  0  0  0  0  0  0  0
    6.6120   -5.4800   22.4500 C   0  0  0  0  0  0  0  0  0  0  0  0
  1  2  1  0
  2  3  2  0
  2  4  1  0
  4  5  1  0
  5  6  1  0
  6  7  1  0
  7  8  1  0
  8  9  2  0
  8 10  1  0
 10 11  1  0
 11 12  2  0
 12 13  1  0
 13 14  2  0
 14 15  1  0
 15 16  2  0
 16 17  1  0
 17 18  1  0
 16 19  1  0
 14 20  1  0
 19 20  1  0
 11 21  1  0
 20 21  2  0
  7 22  1  0
  4 23  1  0
 22 23  1  0
M  END
