piperidine-amides-11472-covalent
     RDKit          3D

 24 25  0  0  0  0  0  0  0  0999 V2000
    7.0600   -3.3320   19.3210 C   0  0  0  0  0  0  0  0  0  0  0  0
    6.3710   -4.1360   20.3350 C   0  0  0  0  0  0  0  0  0  0  0  0
    5.3990   -4.8280   19.9840 O   0  0  0  0  0  0  0  0  0  0  0  0
    6.8150   -4.1740   21.6730 N   0  0  0  0  0  0  0  0  0  0  0  0
    7.7360   -3.1710   22.1800 C   0  0  0  0  0  0  0  0  0  0  0  0
    7.4440   -3.0160   23.6440 C   0  0  0  0  0  0  0  0  0  0  0  0
    6.1180   -3.6150   23.9740 C   0  0  0  0  0  0  0  0  0  0  0  0
    5.6170   -3.2940   25.3340 C   0  0  0  0  0  0  0  0  0  0  0  0
    4.3720   -3.2330   25.5380 O   0  0  0  0  0  0  0  0  0  0  0  0
    6.4500   -3.0480   26.4450 N   0  0  0  0  0  0  0  0  0  0  0  0
    6.3940   -1.7210   27.1020 C   0  0  0  0  0  0  0  0  0  0  0  0
    5.7860   -0.5910   26.3760 C   0  0  0  0  0  0  0  0  0  0  0  0
    5.6930    0.7450   26.9820 C   0  0  0  0  0  0  0  0  0  0  0  0
    4.8310    2.3630   25.9680 I   0  0  0  0  0  0  0  0  0  0  0  0
    6.2440    0.9120   28.3720 C   0  0  0  0  0  0  0  0  0  0  0  0
    6.1370    2.5260   29.1090 Cl  0  0  0  0  0  0  0  0  0  0  0  0
    6.8480   -0.3210   29.0140 C   0  0  0  0  0  0  0  0  0  0  0  0
    7.3300    0.0710   30.3500 C   0  0  0  0  0  0  0  0  0  0  0  0
    6.6500   -0.3940   31.4420 O   0  0  0  0  0  0  0  0  0  0  0  0
    8.3030    0.8150   30.5540 O   0  0  0  0  0  0  0  0  0  0  0  0
    9.3740    0.5450   31.3990 C   0  0  0  0  0  0  0  0  0  0  0  0
    6.9530   -1.5840   28.4790 C   0  0  0  0  0  0  0  0  0  0  0  0
    6.0860   -5.1330   23.7670 C   0  0  0  0  0  0  0  0  0  0  0  0
    6.6810   -5.4320   22.3820 C   0  0  0  0  0  0  0  0  0  0  0  0
  1  2  1  0
  2  3  2  0
  2  4  1  0
  4  5  1  0
  5  6  1  0
  6  7  1  0
  7  8  1  0
  8  9  2  0
  8 10  1  0
 10 11  1  0
 11 12  2  0
 12 13  1  0
 13 14  1  0
 13 15  2  0
 15 16  1  0
 15 17  1  0
 17 18  1  0
 18 19  2  0
 18 20  1  0
 20 21  1  0
 11 22  1  0
 17 22  2  0
  7 23  1  0
  4 24  1  0
 23 24  1  0
M  END
