piperidine-amides-7303-covalent
     RDKit          3D

 20 20  0  0  0  0  0  0  0  0999 V2000
    7.1150   -3.2870   19.2440 C   0  0  0  0  0  0  0  0  0  0  0  0
    6.3360   -4.0130   20.2450 C   0  0  0  0  0  0  0  0  0  0  0  0
    5.2450   -4.5040   19.8670 O   0  0  0  0  0  0  0  0  0  0  0  0
    6.8360   -4.1830   21.5350 N   0  0  0  0  0  0  0  0  0  0  0  0
    7.6630   -3.1830   22.1720 C   0  0  0  0  0  0  0  0  0  0  0  0
    6.9920   -2.7540   23.4440 C   0  0  0  0  0  0  0  0  0  0  0  0
    6.5770   -3.9310   24.2850 C   0  0  0  0  0  0  0  0  0  0  0  0
    5.7970   -3.4700   25.4600 C   0  0  0  0  0  0  0  0  0  0  0  0
    4.5630   -3.3230   25.3170 O   0  0  0  0  0  0  0  0  0  0  0  0
    6.3760   -3.1820   26.7150 N   0  0  0  0  0  0  0  0  0  0  0  0
    6.1840   -4.0330   27.8730 C   0  0  2  0  0  0  0  0  0  0  0  0
    5.8820   -5.4780   27.4770 C   0  0  0  0  0  0  0  0  0  0  0  0
    5.1330   -3.5370   28.7530 C   0  0  0  0  0  0  0  0  0  0  0  0
    5.1710   -2.4350   29.5570 N   0  0  0  0  0  0  0  0  0  0  0  0
    4.2140   -2.2350   30.4770 C   0  0  0  0  0  0  0  0  0  0  0  0
    5.8540   -1.4270   29.0100 C   0  0  0  0  0  0  0  0  0  0  0  0
    5.4660   -1.0310   27.7380 C   0  0  0  0  0  0  0  0  0  0  0  0
    7.2140   -1.5890   29.0870 C   0  0  0  0  0  0  0  0  0  0  0  0
    5.7050   -4.9090   23.4900 C   0  0  0  0  0  0  0  0  0  0  0  0
    6.4920   -5.3670   22.2690 C   0  0  0  0  0  0  0  0  0  0  0  0
  1  2  1  0
  2  3  2  0
  2  4  1  0
  4  5  1  0
  5  6  1  0
  6  7  1  0
  7  8  1  0
  8  9  2  0
  8 10  1  0
 10 11  1  0
 11 12  1  6
 11 13  1  0
 13 14  1  0
 14 15  1  0
 14 16  1  0
 16 17  1  0
 16 18  1  0
  7 19  1  0
  4 20  1  0
 19 20  1  0
M  END
