piperidine-amides-8874-covalent
     RDKit          3D

 22 23  0  0  0  0  0  0  0  0999 V2000
    7.0500   -3.2940   19.3300 C   0  0  0  0  0  0  0  0  0  0  0  0
    6.3540   -4.1070   20.3260 C   0  0  0  0  0  0  0  0  0  0  0  0
    5.3550   -4.7510   19.9580 O   0  0  0  0  0  0  0  0  0  0  0  0
    6.8290   -4.1910   21.6670 N   0  0  0  0  0  0  0  0  0  0  0  0
    6.6500   -5.4270   22.3830 C   0  0  0  0  0  0  0  0  0  0  0  0
    6.0520   -5.1480   23.7340 C   0  0  0  0  0  0  0  0  0  0  0  0
    6.0420   -3.6490   23.8780 C   0  0  0  0  0  0  0  0  0  0  0  0
    5.5920   -3.2510   25.2590 C   0  0  0  0  0  0  0  0  0  0  0  0
    4.3760   -3.1860   25.4120 O   0  0  0  0  0  0  0  0  0  0  0  0
    6.5310   -2.9830   26.2550 N   0  0  0  0  0  0  0  0  0  0  0  0
    6.3290   -3.3280   27.6390 C   0  0  0  0  0  0  0  0  0  0  0  0
    4.9900   -3.4640   28.0400 C   0  0  0  0  0  0  0  0  0  0  0  0
    4.2400   -4.5750   27.6820 C   0  0  0  0  0  0  0  0  0  0  0  0
    2.8970   -4.8140   28.0300 C   0  0  0  0  0  0  0  0  0  0  0  0
    2.1980   -3.7780   28.8660 C   0  0  0  0  0  0  0  0  0  0  0  0
    3.0000   -2.5420   29.2780 C   0  0  0  0  0  0  0  0  0  0  0  0
    2.4040   -1.4600   30.1030 C   0  0  0  0  0  0  0  0  0  0  0  0
    0.9880   -1.2630   30.1390 N   0  0  0  0  0  0  0  0  0  0  0  0
    4.4120   -2.4650   28.8140 C   0  0  0  0  0  0  0  0  0  0  0  0
    5.2330   -1.3980   29.1250 F   0  0  0  0  0  0  0  0  0  0  0  0
    7.2980   -2.9670   23.5510 C   0  0  0  0  0  0  0  0  0  0  0  0
    7.6980   -3.1800   22.2500 C   0  0  0  0  0  0  0  0  0  0  0  0
  1  2  1  0
  2  3  2  0
  2  4  1  0
  4  5  1  0
  5  6  1  0
  6  7  1  0
  7  8  1  0
  8  9  2  0
  8 10  1  0
 10 11  1  0
 11 12  1  0
 12 13  2  0
 13 14  1  0
 14 15  2  0
 15 16  1  0
 16 17  1  0
 17 18  3  0
 12 19  1  0
 16 19  2  0
 19 20  1  0
  7 21  1  0
  4 22  1  0
 21 22  1  0
M  END
