piperidine-amides-23824-covalent
     RDKit          3D

 24 26  0  0  0  0  0  0  0  0999 V2000
    6.9900   -3.3730   19.4060 C   0  0  0  0  0  0  0  0  0  0  0  0
    6.3830   -4.2420   20.4320 C   0  0  0  0  0  0  0  0  0  0  0  0
    5.4370   -4.9630   20.0170 O   0  0  0  0  0  0  0  0  0  0  0  0
    6.8550   -4.3040   21.7850 N   0  0  0  0  0  0  0  0  0  0  0  0
    6.5390   -5.4520   22.5680 C   0  0  0  0  0  0  0  0  0  0  0  0
    5.8770   -5.0950   23.8180 C   0  0  0  0  0  0  0  0  0  0  0  0
    5.8290   -3.6280   23.9720 C   0  0  0  0  0  0  0  0  0  0  0  0
    4.9680   -3.0960   25.1350 C   0  0  0  0  0  0  0  0  0  0  0  0
    3.8870   -2.5810   24.8360 O   0  0  0  0  0  0  0  0  0  0  0  0
    5.2620   -3.1350   26.5250 N   0  0  0  0  0  0  0  0  0  0  0  0
    4.4960   -2.7740   27.6500 C   0  0  0  0  0  0  0  0  0  0  0  0
    4.2910   -3.7370   28.7490 C   0  0  0  0  0  0  0  0  0  0  0  0
    5.6130   -4.3660   29.2180 C   0  0  0  0  0  0  0  0  0  0  0  0
    5.3940   -5.6220   29.7370 C   0  0  0  0  0  0  0  0  0  0  0  0
    6.5480   -6.4300   29.3020 C   0  0  0  0  0  0  0  0  0  0  0  0
    5.9190   -7.5150   30.0110 C   0  0  0  0  0  0  0  0  0  0  0  0
    4.7360   -7.2310   30.6260 N   0  0  0  0  0  0  0  0  0  0  0  0
    4.3100   -5.9220   30.4710 N   0  0  0  0  0  0  0  0  0  0  0  0
    3.0980   -5.3130   30.9970 C   0  0  0  0  0  0  0  0  0  0  0  0
    3.4210   -5.1670   32.4620 C   0  0  0  0  0  0  0  0  0  0  0  0
    6.5320   -4.4180   28.2110 C   0  0  0  0  0  0  0  0  0  0  0  0
    6.3590   -3.8590   26.7990 C   0  0  0  0  0  0  0  0  0  0  0  0
    7.2190   -3.0960   23.7900 C   0  0  0  0  0  0  0  0  0  0  0  0
    7.5710   -3.1770   22.4120 C   0  0  0  0  0  0  0  0  0  0  0  0
  1  2  1  0
  2  3  2  0
  2  4  1  0
  4  5  1  0
  5  6  1  0
  6  7  1  0
  7  8  1  0
  8  9  2  0
  8 10  1  0
 10 11  1  0
 11 12  1  0
 12 13  1  0
 13 14  1  0
 14 15  2  0
 15 16  1  0
 16 17  2  0
 14 18  1  0
 17 18  1  0
 18 19  1  0
 19 20  1  0
 13 21  1  0
 10 22  1  0
 21 22  1  0
  7 23  1  0
  4 24  1  0
 23 24  1  0
M  END
