piperidine-amides-34167-covalent
     RDKit          3D

 25 27  0  0  0  0  0  0  0  0999 V2000
    7.0710   -3.3310   19.3210 C   0  0  0  0  0  0  0  0  0  0  0  0
    6.4000   -4.1850   20.3120 C   0  0  0  0  0  0  0  0  0  0  0  0
    5.3780   -4.8250   19.9820 O   0  0  0  0  0  0  0  0  0  0  0  0
    6.9180   -4.3390   21.6090 N   0  0  0  0  0  0  0  0  0  0  0  0
    6.6360   -5.5460   22.3440 C   0  0  0  0  0  0  0  0  0  0  0  0
    5.8370   -5.1100   23.5710 C   0  0  0  0  0  0  0  0  0  0  0  0
    6.6050   -3.9770   24.2230 C   0  0  0  0  0  0  0  0  0  0  0  0
    5.8390   -3.4580   25.3630 C   0  0  0  0  0  0  0  0  0  0  0  0
    4.6500   -3.1160   25.1690 O   0  0  0  0  0  0  0  0  0  0  0  0
    6.4370   -3.3510   26.6380 N   0  0  0  0  0  0  0  0  0  0  0  0
    6.6790   -4.5510   27.3960 C   0  0  0  0  0  0  0  0  0  0  0  0
    6.2050   -2.1200   27.3560 C   0  0  0  0  0  0  0  0  0  0  0  0
    6.4180   -0.8080   26.7900 N   0  0  0  0  0  0  0  0  0  0  0  0
    6.2130    0.4910   27.4170 C   0  0  0  0  0  0  0  0  0  0  0  0
    5.7540    0.3470   28.7120 C   0  0  0  0  0  0  0  0  0  0  0  0
    5.5180   -0.8770   29.3380 C   0  0  0  0  0  0  0  0  0  0  0  0
    5.0490   -0.9280   30.6350 C   0  0  0  0  0  0  0  0  0  0  0  0
    3.7290   -2.0370   31.0140 S   0  0  0  0  0  0  0  0  0  0  0  0
    3.7200   -1.5500   32.6740 C   0  0  0  0  0  0  0  0  0  0  0  0
    4.7780   -0.5070   32.8890 C   0  0  0  0  0  0  0  0  0  0  0  0
    5.5950   -0.1250   31.6390 C   0  0  0  0  0  0  0  0  0  0  0  0
    7.0170    1.1480   31.5100 Br  0  0  0  0  0  0  0  0  0  0  0  0
    5.7550   -2.0920   28.6290 N   0  0  0  0  0  0  0  0  0  0  0  0
    6.8210   -2.8420   23.2430 C   0  0  0  0  0  0  0  0  0  0  0  0
    7.6940   -3.3070   22.2610 C   0  0  0  0  0  0  0  0  0  0  0  0
  1  2  1  0
  2  3  2  0
  2  4  1  0
  4  5  1  0
  5  6  1  0
  6  7  1  0
  7  8  1  0
  8  9  2  0
  8 10  1  0
 10 11  1  0
 10 12  1  0
 12 13  2  0
 13 14  1  0
 14 15  2  0
 15 16  1  0
 16 17  1  0
 17 18  1  0
 18 19  1  0
 19 20  2  0
 17 21  2  0
 20 21  1  0
 21 22  1  0
 12 23  1  0
 16 23  2  0
  7 24  1  0
  4 25  1  0
 24 25  1  0
M  END
