piperidine-amides-6354-covalent
     RDKit          3D

 25 27  0  0  0  0  0  0  0  0999 V2000
    7.0660   -3.3260   19.3020 C   0  0  0  0  0  0  0  0  0  0  0  0
    6.4010   -4.1750   20.2990 C   0  0  0  0  0  0  0  0  0  0  0  0
    5.3810   -4.8240   19.9800 O   0  0  0  0  0  0  0  0  0  0  0  0
    6.9310   -4.3080   21.5900 N   0  0  0  0  0  0  0  0  0  0  0  0
    6.5460   -5.4420   22.3870 C   0  0  0  0  0  0  0  0  0  0  0  0
    5.6510   -4.8750   23.4940 C   0  0  0  0  0  0  0  0  0  0  0  0
    6.4850   -3.8760   24.2780 C   0  0  0  0  0  0  0  0  0  0  0  0
    5.6840   -3.3450   25.4030 C   0  0  0  0  0  0  0  0  0  0  0  0
    4.4440   -3.2750   25.2510 O   0  0  0  0  0  0  0  0  0  0  0  0
    6.3060   -2.9250   26.6050 N   0  0  0  0  0  0  0  0  0  0  0  0
    6.5960   -1.5300   26.8230 C   0  0  2  0  0  0  0  0  0  0  0  0
    6.8760   -1.3970   28.3010 C   0  0  0  0  0  0  0  0  0  0  0  0
    6.0300   -0.2910   28.7470 N   0  0  0  0  0  0  0  0  0  0  0  0
    6.3890    0.6970   29.7540 C   0  0  0  0  0  0  0  0  0  0  0  0
    5.3340    1.5710   29.8710 C   0  0  0  0  0  0  0  0  0  0  0  0
    5.1030    2.6690   29.0950 C   0  0  0  0  0  0  0  0  0  0  0  0
    4.0160    3.5020   29.2800 C   0  0  0  0  0  0  0  0  0  0  0  0
    2.8450    3.4890   30.2860 C   0  0  0  0  0  0  0  0  0  0  0  0
    3.2410    2.2270   31.0660 C   0  0  0  0  0  0  0  0  0  0  0  0
    4.4300    1.3550   30.8290 C   0  0  0  0  0  0  0  0  0  0  0  0
    5.6350    0.4170   27.5360 C   0  0  0  0  0  0  0  0  0  0  0  0
    5.7510   -0.5070   26.4840 C   0  0  1  0  0  0  0  0  0  0  0  0
    6.0890    0.1050   25.3120 C   0  0  0  0  0  0  0  0  0  0  0  0
    6.9220   -2.7090   23.4190 C   0  0  0  0  0  0  0  0  0  0  0  0
    7.6380   -3.2050   22.1920 C   0  0  0  0  0  0  0  0  0  0  0  0
  1  2  1  0
  2  3  2  0
  2  4  1  0
  4  5  1  0
  5  6  1  0
  6  7  1  0
  7  8  1  0
  8  9  2  0
  8 10  1  0
 11 10  1  1
 11 12  1  0
 12 13  1  0
 13 14  1  0
 14 15  1  0
 15 16  2  0
 16 17  1  0
 17 18  2  0
 18 19  1  0
 15 20  1  0
 19 20  2  0
 13 21  1  0
 11 22  1  0
 21 22  1  0
 22 23  1  6
  7 24  1  0
  4 25  1  0
 24 25  1  0
M  END
