piperidine-amides-4604-covalent
     RDKit          3D

 24 26  0  0  0  0  0  0  0  0999 V2000
    7.1150   -3.2870   19.1880 C   0  0  0  0  0  0  0  0  0  0  0  0
    6.3110   -3.9910   20.2080 C   0  0  0  0  0  0  0  0  0  0  0  0
    5.2180   -4.4480   19.8360 O   0  0  0  0  0  0  0  0  0  0  0  0
    6.8010   -4.1810   21.5050 N   0  0  0  0  0  0  0  0  0  0  0  0
    7.5640   -3.1580   22.1430 C   0  0  0  0  0  0  0  0  0  0  0  0
    7.1220   -2.8050   23.4930 C   0  0  0  0  0  0  0  0  0  0  0  0
    6.4870   -3.8930   24.2650 C   0  0  0  0  0  0  0  0  0  0  0  0
    5.7200   -3.3400   25.4160 C   0  0  0  0  0  0  0  0  0  0  0  0
    4.6270   -2.8020   25.1670 O   0  0  0  0  0  0  0  0  0  0  0  0
    6.1870   -3.4070   26.7520 N   0  0  0  0  0  0  0  0  0  0  0  0
    5.8270   -4.5220   27.6760 C   0  0  1  0  0  0  0  0  0  0  0  0
    6.7790   -4.6660   28.8030 C   0  0  0  0  0  0  0  0  0  0  0  0
    4.4860   -4.3480   28.2790 C   0  0  1  0  0  0  0  0  0  0  0  0
    3.5180   -4.5660   27.4160 O   0  0  0  0  0  0  0  0  0  0  0  0
    2.3710   -5.0190   28.1040 C   0  0  0  0  0  0  0  0  0  0  0  0
    1.0630   -5.2650   27.7350 C   0  0  0  0  0  0  0  0  0  0  0  0
    0.1700   -5.7140   28.6780 C   0  0  0  0  0  0  0  0  0  0  0  0
    0.5800   -5.9140   29.9730 C   0  0  0  0  0  0  0  0  0  0  0  0
    1.8690   -5.6700   30.3280 C   0  0  0  0  0  0  0  0  0  0  0  0
    2.7510   -5.2190   29.3640 C   0  0  0  0  0  0  0  0  0  0  0  0
    4.1510   -4.8900   29.5000 C   0  0  1  0  0  0  0  0  0  0  0  0
    4.7510   -6.1660   30.0670 C   0  0  0  0  0  0  0  0  0  0  0  0
    5.6470   -4.8090   23.3660 C   0  0  0  0  0  0  0  0  0  0  0  0
    6.4190   -5.3210   22.3040 C   0  0  0  0  0  0  0  0  0  0  0  0
  1  2  1  0
  2  3  2  0
  2  4  1  0
  4  5  1  0
  5  6  1  0
  6  7  1  0
  7  8  1  0
  8  9  2  0
  8 10  1  0
 10 11  1  0
 11 12  1  1
 11 13  1  0
 13 14  1  6
 14 15  1  0
 15 16  1  0
 16 17  2  0
 17 18  1  0
 18 19  2  0
 15 20  2  0
 19 20  1  0
 13 21  1  0
 20 21  1  0
 21 22  1  6
  7 23  1  0
  4 24  1  0
 23 24  1  0
M  END
