piperidine-amides-26128-covalent
     RDKit          3D

 25 27  0  0  0  0  0  0  0  0999 V2000
    7.0840   -3.3590   19.3520 C   0  0  0  0  0  0  0  0  0  0  0  0
    6.4100   -4.2160   20.3250 C   0  0  0  0  0  0  0  0  0  0  0  0
    5.3820   -4.8220   19.9810 O   0  0  0  0  0  0  0  0  0  0  0  0
    6.9340   -4.4090   21.6170 N   0  0  0  0  0  0  0  0  0  0  0  0
    6.6570   -5.6160   22.3820 C   0  0  0  0  0  0  0  0  0  0  0  0
    6.4620   -5.2190   23.8350 C   0  0  0  0  0  0  0  0  0  0  0  0
    6.0190   -3.7950   23.9740 C   0  0  0  0  0  0  0  0  0  0  0  0
    5.7550   -3.3200   25.3590 C   0  0  0  0  0  0  0  0  0  0  0  0
    4.9160   -2.3900   25.5120 O   0  0  0  0  0  0  0  0  0  0  0  0
    6.3420   -3.8220   26.5460 N   0  0  0  0  0  0  0  0  0  0  0  0
    7.0130   -5.1320   26.5020 C   0  0  0  0  0  0  0  0  0  0  0  0
    7.0880   -5.4870   27.9130 C   0  0  0  0  0  0  0  0  0  0  0  0
    6.2230   -4.5740   28.6610 C   0  0  0  0  0  0  0  0  0  0  0  0
    5.8150   -3.3850   27.8160 C   0  0  1  0  0  0  0  0  0  0  0  0
    6.3730   -2.1160   28.4330 C   0  0  0  0  0  0  0  0  0  0  0  0
    4.2740   -3.3850   27.9180 C   0  0  0  0  0  0  0  0  0  0  0  0
    3.8510   -2.5140   28.8920 C   0  0  0  0  0  0  0  0  0  0  0  0
    3.4070   -2.9740   30.1880 C   0  0  0  0  0  0  0  0  0  0  0  0
    2.9130   -2.0820   31.3460 C   0  0  0  0  0  0  0  0  0  0  0  0
    2.9070   -0.6000   31.0580 C   0  0  0  0  0  0  0  0  0  0  0  0
    2.5080    0.3730   31.9410 F   0  0  0  0  0  0  0  0  0  0  0  0
    3.4100   -0.5660   29.6840 C   0  0  0  0  0  0  0  0  0  0  0  0
    3.8030   -1.1280   28.7350 C   0  0  0  0  0  0  0  0  0  0  0  0
    6.8760   -2.8200   23.2950 C   0  0  0  0  0  0  0  0  0  0  0  0
    7.6270   -3.3550   22.2920 C   0  0  0  0  0  0  0  0  0  0  0  0
  1  2  1  0
  2  3  2  0
  2  4  1  0
  4  5  1  0
  5  6  1  0
  6  7  1  0
  7  8  1  0
  8  9  2  0
  8 10  1  0
 10 11  1  0
 11 12  1  0
 12 13  1  0
 10 14  1  0
 13 14  1  0
 14 15  1  1
 14 16  1  0
 16 17  1  0
 17 18  2  0
 18 19  1  0
 19 20  2  0
 20 21  1  0
 20 22  1  0
 17 23  1  0
 22 23  2  0
  7 24  1  0
  4 25  1  0
 24 25  1  0
M  END
