piperidine-amides-23817-covalent
     RDKit          3D

 22 23  0  0  0  0  0  0  0  0999 V2000
    7.0530   -3.3510   19.2850 C   0  0  0  0  0  0  0  0  0  0  0  0
    6.3750   -4.1740   20.3000 C   0  0  0  0  0  0  0  0  0  0  0  0
    5.3290   -4.7690   19.9520 O   0  0  0  0  0  0  0  0  0  0  0  0
    6.9180   -4.3240   21.5920 N   0  0  0  0  0  0  0  0  0  0  0  0
    6.6040   -5.5020   22.3300 C   0  0  0  0  0  0  0  0  0  0  0  0
    6.0030   -5.2180   23.6240 C   0  0  0  0  0  0  0  0  0  0  0  0
    6.0460   -3.7880   23.9680 C   0  0  0  0  0  0  0  0  0  0  0  0
    5.5610   -3.4490   25.3460 C   0  0  0  0  0  0  0  0  0  0  0  0
    4.8580   -2.4330   25.4720 O   0  0  0  0  0  0  0  0  0  0  0  0
    5.8160   -4.1990   26.5160 N   0  0  0  0  0  0  0  0  0  0  0  0
    5.3050   -3.8840   27.7820 C   0  0  0  0  0  0  0  0  0  0  0  0
    5.9340   -4.6810   28.8120 C   0  0  0  0  0  0  0  0  0  0  0  0
    6.8910   -5.5520   27.9630 C   0  0  0  0  0  0  0  0  0  0  0  0
    6.9870   -5.0170   26.6840 C   0  0  2  0  0  0  0  0  0  0  0  0
    8.0110   -4.1530   27.3010 C   0  0  0  0  0  0  0  0  0  0  0  0
    9.2650   -4.6820   27.5380 O   0  0  0  0  0  0  0  0  0  0  0  0
   10.0710   -4.8320   26.1310 S   0  0  0  0  0  0  0  0  0  0  0  0
    9.6220   -3.7200   24.9580 C   0  0  0  0  0  0  0  0  0  0  0  0
    9.8170   -6.2160   25.7080 O   0  0  0  0  0  0  0  0  0  0  0  0
   11.5320   -4.6060   26.3250 O   0  0  0  0  0  0  0  0  0  0  0  0
    7.4400   -3.2380   23.7130 C   0  0  0  0  0  0  0  0  0  0  0  0
    7.6850   -3.2660   22.2230 C   0  0  0  0  0  0  0  0  0  0  0  0
  1  2  1  0
  2  3  2  0
  2  4  1  0
  4  5  1  0
  5  6  1  0
  6  7  1  0
  7  8  1  0
  8  9  2  0
  8 10  1  0
 10 11  1  0
 11 12  1  0
 12 13  1  0
 10 14  1  0
 13 14  1  0
 14 15  1  1
 15 16  1  0
 17 16  1  0
 17 18  1  0
 17 19  2  0
 17 20  2  0
  7 21  1  0
  4 22  1  0
 21 22  1  0
M  END
