piperidine-amides-63-covalent
     RDKit          3D

 24 26  0  0  0  0  0  0  0  0999 V2000
    7.1740   -3.2930   19.3840 C   0  0  0  0  0  0  0  0  0  0  0  0
    6.3680   -4.0240   20.3370 C   0  0  0  0  0  0  0  0  0  0  0  0
    5.3270   -4.6210   19.9150 O   0  0  0  0  0  0  0  0  0  0  0  0
    6.7240   -4.1280   21.6990 N   0  0  0  0  0  0  0  0  0  0  0  0
    7.7390   -3.1360   22.1750 C   0  0  0  0  0  0  0  0  0  0  0  0
    7.3610   -2.8810   23.6960 C   0  0  0  0  0  0  0  0  0  0  0  0
    6.1940   -3.7890   23.9580 C   0  0  0  0  0  0  0  0  0  0  0  0
    5.3160   -3.4850   25.2500 C   0  0  0  0  0  0  0  0  0  0  0  0
    4.2610   -4.0850   25.1590 O   0  0  0  0  0  0  0  0  0  0  0  0
    5.8770   -2.6960   26.0760 N   0  0  0  0  0  0  0  0  0  0  0  0
    6.2700   -1.8200   27.0330 C   0  0  1  0  0  0  0  0  0  0  0  0
    5.7790   -0.6910   27.6710 C   0  0  0  0  0  0  0  0  0  0  0  0
    5.6640   -1.2990   28.8640 C   0  0  2  0  0  0  0  0  0  0  0  0
    6.3050   -0.6950   30.0450 C   0  0  0  0  0  0  0  0  0  0  0  0
    7.8220   -0.7160   30.0190 C   0  0  0  0  0  0  0  0  0  0  0  0
    8.2050   -0.0790   31.2290 C   0  0  0  0  0  0  0  0  0  0  0  0
    7.3440    0.4500   32.2400 C   0  0  0  0  0  0  0  0  0  0  0  0
    8.5170    0.9060   33.1130 C   0  0  0  0  0  0  0  0  0  0  0  0
    9.4140    1.2580   33.7590 N   0  0  0  0  0  0  0  0  0  0  0  0
    5.8060    0.4030   32.1520 C   0  0  0  0  0  0  0  0  0  0  0  0
    5.2880   -0.1730   31.0440 C   0  0  0  0  0  0  0  0  0  0  0  0
    6.3060   -2.5030   28.4670 C   0  0  0  0  0  0  0  0  0  0  0  0
    6.4950   -5.2470   23.6950 C   0  0  0  0  0  0  0  0  0  0  0  0
    6.6260   -5.4190   22.3430 C   0  0  0  0  0  0  0  0  0  0  0  0
  1  2  1  0
  2  3  2  0
  2  4  1  0
  4  5  1  0
  5  6  1  0
  6  7  1  0
  7  8  1  0
  8  9  2  0
  8 10  1  0
 11 10  1  6
 11 12  1  0
 12 13  1  0
 13 14  1  1
 14 15  2  0
 15 16  1  0
 16 17  2  0
 17 18  1  0
 18 19  3  0
 17 20  1  0
 14 21  1  0
 20 21  2  0
 11 22  1  0
 13 22  1  0
  7 23  1  0
  4 24  1  0
 23 24  1  0
M  END
