piperidine-amides-12834-covalent
     RDKit          3D

 22 23  0  0  0  0  0  0  0  0999 V2000
    7.1200   -3.2560   19.1250 C   0  0  0  0  0  0  0  0  0  0  0  0
    6.3450   -3.9570   20.1730 C   0  0  0  0  0  0  0  0  0  0  0  0
    5.2460   -4.4320   19.8320 O   0  0  0  0  0  0  0  0  0  0  0  0
    6.8550   -4.1260   21.4610 N   0  0  0  0  0  0  0  0  0  0  0  0
    7.5950   -3.0800   22.0960 C   0  0  0  0  0  0  0  0  0  0  0  0
    7.1080   -2.6960   23.4190 C   0  0  0  0  0  0  0  0  0  0  0  0
    6.5130   -3.8030   24.1920 C   0  0  0  0  0  0  0  0  0  0  0  0
    5.7780   -3.2980   25.3800 C   0  0  0  0  0  0  0  0  0  0  0  0
    4.6610   -2.7760   25.2010 O   0  0  0  0  0  0  0  0  0  0  0  0
    6.3110   -3.3980   26.6780 N   0  0  0  0  0  0  0  0  0  0  0  0
    6.0220   -4.5450   27.5790 C   0  0  0  0  0  0  0  0  0  0  0  0
    5.7630   -5.8370   26.8460 C   0  0  0  0  0  0  0  0  0  0  0  0
    4.4900   -6.5280   27.1230 C   0  0  0  0  0  0  0  0  0  0  0  0
    3.8810   -6.3280   28.3330 C   0  0  0  0  0  0  0  0  0  0  0  0
    2.7060   -6.8860   28.7530 C   0  0  0  0  0  0  0  0  0  0  0  0
    2.0680   -7.7200   27.8980 C   0  0  0  0  0  0  0  0  0  0  0  0
    2.6240   -7.9630   26.6690 C   0  0  0  0  0  0  0  0  0  0  0  0
    3.8080   -7.3990   26.2550 C   0  0  0  0  0  0  0  0  0  0  0  0
    4.2370   -7.7520   25.0010 O   0  0  0  0  0  0  0  0  0  0  0  0
    3.9320   -6.9930   23.8550 C   0  0  0  0  0  0  0  0  0  0  0  0
    5.6980   -4.7610   23.4210 C   0  0  0  0  0  0  0  0  0  0  0  0
    6.5190   -5.2830   22.2760 C   0  0  0  0  0  0  0  0  0  0  0  0
  1  2  1  0
  2  3  2  0
  2  4  1  0
  4  5  1  0
  5  6  1  0
  6  7  1  0
  7  8  1  0
  8  9  2  0
  8 10  1  0
 10 11  1  0
 11 12  1  0
 12 13  1  0
 13 14  2  0
 14 15  1  0
 15 16  2  0
 16 17  1  0
 13 18  1  0
 17 18  2  0
 18 19  1  0
 19 20  1  0
  7 21  1  0
  4 22  1  0
 21 22  1  0
M  END
