piperidine-amides-29981-covalent
     RDKit          3D

 27 29  0  0  0  0  0  0  0  0999 V2000
    6.9980   -3.3810   19.3850 C   0  0  0  0  0  0  0  0  0  0  0  0
    6.3550   -4.2510   20.3690 C   0  0  0  0  0  0  0  0  0  0  0  0
    5.4080   -4.9490   20.0080 O   0  0  0  0  0  0  0  0  0  0  0  0
    6.8370   -4.3270   21.7320 N   0  0  0  0  0  0  0  0  0  0  0  0
    7.7120   -3.2890   22.2500 C   0  0  0  0  0  0  0  0  0  0  0  0
    7.5340   -3.1000   23.7310 C   0  0  0  0  0  0  0  0  0  0  0  0
    6.1590   -3.6310   24.0500 C   0  0  0  0  0  0  0  0  0  0  0  0
    5.6230   -3.1340   25.3660 C   0  0  0  0  0  0  0  0  0  0  0  0
    4.9550   -2.0890   25.3930 O   0  0  0  0  0  0  0  0  0  0  0  0
    5.7820   -3.7850   26.6190 N   0  0  0  0  0  0  0  0  0  0  0  0
    4.5420   -4.3360   27.1010 C   0  0  0  0  0  0  0  0  0  0  0  0
    4.5490   -4.3460   28.6200 C   0  0  0  0  0  0  0  0  0  0  0  0
    5.6430   -4.6500   29.3020 N   0  0  0  0  0  0  0  0  0  0  0  0
    5.6730   -5.9740   29.5350 C   0  0  0  0  0  0  0  0  0  0  0  0
    6.6840   -6.6970   29.4570 O   0  0  0  0  0  0  0  0  0  0  0  0
    4.5540   -6.7420   29.8680 C   0  0  0  0  0  0  0  0  0  0  0  0
    4.2600   -7.0780   31.1900 C   0  0  0  0  0  0  0  0  0  0  0  0
    3.0840   -7.8770   31.5000 C   0  0  0  0  0  0  0  0  0  0  0  0
    2.2730   -8.2920   30.4950 C   0  0  0  0  0  0  0  0  0  0  0  0
    2.5550   -7.9680   29.2000 C   0  0  0  0  0  0  0  0  0  0  0  0
    3.6790   -7.2030   28.8850 C   0  0  0  0  0  0  0  0  0  0  0  0
    3.8700   -6.9280   27.5400 O   0  0  0  0  0  0  0  0  0  0  0  0
    3.2440   -7.5540   26.4630 C   0  0  0  0  0  0  0  0  0  0  0  0
    6.7570   -4.3100   28.5560 C   0  0  0  0  0  0  0  0  0  0  0  0
    6.4400   -3.2070   27.7570 C   0  0  0  0  0  0  0  0  0  0  0  0
    6.1400   -5.1320   23.9170 C   0  0  0  0  0  0  0  0  0  0  0  0
    6.6470   -5.5360   22.5160 C   0  0  0  0  0  0  0  0  0  0  0  0
  1  2  1  0
  2  3  2  0
  2  4  1  0
  4  5  1  0
  5  6  1  0
  6  7  1  0
  7  8  1  0
  8  9  2  0
  8 10  1  0
 10 11  1  0
 11 12  1  0
 12 13  1  0
 13 14  1  0
 14 15  2  0
 14 16  1  0
 16 17  2  0
 17 18  1  0
 18 19  2  0
 19 20  1  0
 16 21  1  0
 20 21  2  0
 21 22  1  0
 22 23  1  0
 13 24  1  0
 10 25  1  0
 24 25  1  0
  7 26  1  0
  4 27  1  0
 26 27  1  0
M  END
