piperidine-amides-15000-covalent
     RDKit          3D

 21 21  0  0  0  0  0  0  0  0999 V2000
    7.1220   -3.2750   19.2170 C   0  0  0  0  0  0  0  0  0  0  0  0
    6.3790   -4.0490   20.2090 C   0  0  0  0  0  0  0  0  0  0  0  0
    5.2870   -4.5360   19.8750 O   0  0  0  0  0  0  0  0  0  0  0  0
    6.9260   -4.2790   21.4900 N   0  0  0  0  0  0  0  0  0  0  0  0
    6.3040   -5.2940   22.2800 C   0  0  0  0  0  0  0  0  0  0  0  0
    5.4510   -4.6130   23.3070 C   0  0  0  0  0  0  0  0  0  0  0  0
    6.4110   -3.9210   24.2490 C   0  0  0  0  0  0  0  0  0  0  0  0
    5.6910   -3.3730   25.4390 C   0  0  0  0  0  0  0  0  0  0  0  0
    4.5290   -3.0150   25.2520 O   0  0  0  0  0  0  0  0  0  0  0  0
    6.3720   -3.3000   26.6500 N   0  0  0  0  0  0  0  0  0  0  0  0
    6.4730   -4.4090   27.5470 C   0  0  0  0  0  0  0  0  0  0  0  0
    5.2890   -4.8990   28.0340 C   0  0  0  0  0  0  0  0  0  0  0  0
    4.4240   -4.0300   28.6510 C   0  0  0  0  0  0  0  0  0  0  0  0
    4.4220   -5.5750   27.0590 C   0  0  0  0  0  0  0  0  0  0  0  0
    5.7260   -5.8840   29.1110 C   0  0  0  0  0  0  0  0  0  0  0  0
    7.0890   -5.8500   29.2150 O   0  0  0  0  0  0  0  0  0  0  0  0
    4.9590   -6.6890   29.8590 N   0  0  0  0  0  0  0  0  0  0  0  0
    4.3360   -7.6490   29.1900 C   0  0  0  0  0  0  0  0  0  0  0  0
    2.8610   -7.6870   29.1500 C   0  0  0  0  0  0  0  0  0  0  0  0
    7.2130   -2.8860   23.5480 C   0  0  0  0  0  0  0  0  0  0  0  0
    7.6430   -3.1910   22.1020 C   0  0  0  0  0  0  0  0  0  0  0  0
  1  2  1  0
  2  3  2  0
  2  4  1  0
  4  5  1  0
  5  6  1  0
  6  7  1  0
  7  8  1  0
  8  9  2  0
  8 10  1  0
 10 11  1  0
 11 12  1  0
 12 13  1  0
 12 14  1  0
 12 15  1  0
 15 16  2  0
 15 17  1  0
 17 18  1  0
 18 19  1  0
  7 20  1  0
  4 21  1  0
 20 21  1  0
M  END
