piperidine-amides-31082-covalent
     RDKit          3D

 27 29  0  0  0  0  0  0  0  0999 V2000
    7.1420   -3.2740   19.1910 C   0  0  0  0  0  0  0  0  0  0  0  0
    6.3930   -4.0260   20.1950 C   0  0  0  0  0  0  0  0  0  0  0  0
    5.3050   -4.5420   19.8870 O   0  0  0  0  0  0  0  0  0  0  0  0
    6.9220   -4.2270   21.4750 N   0  0  0  0  0  0  0  0  0  0  0  0
    7.7260   -3.2250   22.1270 C   0  0  0  0  0  0  0  0  0  0  0  0
    6.8930   -2.7700   23.2890 C   0  0  0  0  0  0  0  0  0  0  0  0
    6.5140   -3.8990   24.2070 C   0  0  0  0  0  0  0  0  0  0  0  0
    5.7360   -3.3980   25.3590 C   0  0  0  0  0  0  0  0  0  0  0  0
    4.8810   -2.4860   25.1730 O   0  0  0  0  0  0  0  0  0  0  0  0
    5.8530   -3.8740   26.6840 N   0  0  0  0  0  0  0  0  0  0  0  0
    5.5940   -2.9170   27.7260 C   0  0  0  0  0  0  0  0  0  0  0  0
    4.4100   -3.7490   27.9860 C   0  0  0  0  0  0  0  0  0  0  0  0
    4.3560   -4.0210   29.2970 N   0  0  0  0  0  0  0  0  0  0  0  0
    3.7450   -3.1520   30.2500 C   0  0  0  0  0  0  0  0  0  0  0  0
    2.5110   -3.8200   30.8180 C   0  0  0  0  0  0  0  0  0  0  0  0
    2.9000   -4.8300   31.7230 N   0  0  0  0  0  0  0  0  0  0  0  0
    2.9200   -4.5240   33.0280 C   0  0  0  0  0  0  0  0  0  0  0  0
    1.7610   -4.7830   33.9180 C   0  0  0  0  0  0  0  0  0  0  0  0
    0.9110   -3.7350   34.1600 O   0  0  0  0  0  0  0  0  0  0  0  0
    1.2730   -2.8920   35.2070 C   0  0  0  0  0  0  0  0  0  0  0  0
    0.1590   -2.6410   36.0210 C   0  0  0  0  0  0  0  0  0  0  0  0
    0.5130   -2.3870   37.3460 O   0  0  0  0  0  0  0  0  0  0  0  0
    3.7830   -5.7940   31.1860 C   0  0  0  0  0  0  0  0  0  0  0  0
    4.4940   -5.3310   29.9140 C   0  0  0  0  0  0  0  0  0  0  0  0
    4.8460   -4.8690   27.0530 C   0  0  0  0  0  0  0  0  0  0  0  0
    5.7790   -4.9800   23.4680 C   0  0  0  0  0  0  0  0  0  0  0  0
    6.4320   -5.3450   22.1960 C   0  0  0  0  0  0  0  0  0  0  0  0
  1  2  1  0
  2  3  2  0
  2  4  1  0
  4  5  1  0
  5  6  1  0
  6  7  1  0
  7  8  1  0
  8  9  2  0
  8 10  1  0
 10 11  1  0
 11 12  1  0
 12 13  1  0
 13 14  1  0
 14 15  1  0
 15 16  1  0
 16 17  1  0
 17 18  1  0
 18 19  1  0
 19 20  1  0
 20 21  1  0
 21 22  1  0
 16 23  1  0
 13 24  1  0
 23 24  1  0
 10 25  1  0
 12 25  1  0
  7 26  1  0
  4 27  1  0
 26 27  1  0
M  END
