piperidine-amides-19571-covalent
     RDKit          3D

 22 24  0  0  0  0  0  0  0  0999 V2000
    7.0760   -3.3500   19.4770 C   0  0  0  0  0  0  0  0  0  0  0  0
    6.3880   -4.1880   20.4380 C   0  0  0  0  0  0  0  0  0  0  0  0
    5.4550   -4.9440   20.0100 O   0  0  0  0  0  0  0  0  0  0  0  0
    6.7520   -4.1950   21.8070 N   0  0  0  0  0  0  0  0  0  0  0  0
    6.7380   -5.5320   22.4620 C   0  0  0  0  0  0  0  0  0  0  0  0
    5.9970   -5.2630   23.8390 C   0  0  0  0  0  0  0  0  0  0  0  0
    6.1170   -3.7870   24.1180 C   0  0  0  0  0  0  0  0  0  0  0  0
    5.0880   -3.3400   25.2820 C   0  0  0  0  0  0  0  0  0  0  0  0
    4.0370   -3.0250   24.7600 O   0  0  0  0  0  0  0  0  0  0  0  0
    5.5800   -3.4080   26.4610 N   0  0  0  0  0  0  0  0  0  0  0  0
    6.4040   -3.4940   27.4770 C   0  0  0  0  0  0  0  0  0  0  0  0
    6.7170   -4.4840   28.3610 C   0  0  0  0  0  0  0  0  0  0  0  0
    5.6340   -4.5800   29.1990 C   0  0  0  0  0  0  0  0  0  0  0  0
    5.4330   -5.7050   29.8850 N   0  0  0  0  0  0  0  0  0  0  0  0
    4.3870   -5.8990   30.7220 C   0  0  0  0  0  0  0  0  0  0  0  0
    4.5960   -7.2920   31.2480 C   0  0  0  0  0  0  0  0  0  0  0  0
    5.7230   -7.7310   30.6600 N   0  0  0  0  0  0  0  0  0  0  0  0
    6.2150   -6.7540   29.8340 N   0  0  0  0  0  0  0  0  0  0  0  0
    4.4360   -4.3230   28.3730 C   0  0  0  0  0  0  0  0  0  0  0  0
    4.6220   -3.1910   27.5260 C   0  0  0  0  0  0  0  0  0  0  0  0
    7.4040   -3.1960   23.9140 C   0  0  0  0  0  0  0  0  0  0  0  0
    7.6110   -3.2030   22.3630 C   0  0  0  0  0  0  0  0  0  0  0  0
  1  2  1  0
  2  3  2  0
  2  4  1  0
  4  5  1  0
  5  6  1  0
  6  7  1  0
  7  8  1  0
  8  9  2  0
  8 10  1  0
 10 11  1  0
 11 12  1  0
 12 13  1  0
 13 14  1  0
 14 15  1  0
 15 16  2  0
 16 17  1  0
 14 18  1  0
 17 18  2  0
 13 19  1  0
 10 20  1  0
 19 20  1  0
  7 21  1  0
  4 22  1  0
 21 22  1  0
M  END
