piperidine-amides-1994-covalent
     RDKit          3D

 26 27  0  0  0  0  0  0  0  0999 V2000
    7.0890   -3.2680   19.2250 C   0  0  0  0  0  0  0  0  0  0  0  0
    6.3410   -4.0600   20.2400 C   0  0  0  0  0  0  0  0  0  0  0  0
    5.2820   -4.5710   19.8880 O   0  0  0  0  0  0  0  0  0  0  0  0
    6.8740   -4.2310   21.5200 N   0  0  0  0  0  0  0  0  0  0  0  0
    7.7080   -3.2300   22.1300 C   0  0  0  0  0  0  0  0  0  0  0  0
    7.0230   -2.7050   23.3480 C   0  0  0  0  0  0  0  0  0  0  0  0
    6.7080   -3.8530   24.3060 C   0  0  0  0  0  0  0  0  0  0  0  0
    6.0670   -3.2410   25.4840 C   0  0  0  0  0  0  0  0  0  0  0  0
    4.8290   -3.2810   25.6100 O   0  0  0  0  0  0  0  0  0  0  0  0
    6.8680   -2.5970   26.4620 N   0  0  0  0  0  0  0  0  0  0  0  0
    7.0200   -1.1510   26.4010 C   0  0  1  0  0  0  0  0  0  0  0  0
    7.0300   -0.5750   27.7600 C   0  0  0  0  0  0  0  0  0  0  0  0
    8.2560   -0.1190   27.6770 C   0  0  1  0  0  0  0  0  0  0  0  0
    9.1740   -0.5010   28.4620 O   0  0  0  0  0  0  0  0  0  0  0  0
    9.1540    0.0290   29.7580 C   0  0  0  0  0  0  0  0  0  0  0  0
    8.5270    1.2480   29.8600 C   0  0  0  0  0  0  0  0  0  0  0  0
    7.9950    0.1020   30.6070 C   0  0  0  0  0  0  0  0  0  0  0  0
   10.3610    0.5680   30.4200 C   0  0  0  0  0  0  0  0  0  0  0  0
    8.5260   -0.6540   26.2640 C   0  0  2  0  0  0  0  0  0  0  0  0
    8.9500    0.2240   25.1230 C   0  0  0  0  0  0  0  0  0  0  0  0
   10.3800    0.0180   24.7170 C   0  0  0  0  0  0  0  0  0  0  0  0
   11.1510   -0.6120   25.4590 O   0  0  0  0  0  0  0  0  0  0  0  0
   10.9310    0.5060   23.5310 O   0  0  0  0  0  0  0  0  0  0  0  0
   12.3330    0.5720   23.3350 C   0  0  0  0  0  0  0  0  0  0  0  0
    5.7970   -4.8550   23.6180 C   0  0  0  0  0  0  0  0  0  0  0  0
    6.4750   -5.3420   22.3610 C   0  0  0  0  0  0  0  0  0  0  0  0
  1  2  1  0
  2  3  2  0
  2  4  1  0
  4  5  1  0
  5  6  1  0
  6  7  1  0
  7  8  1  0
  8  9  2  0
  8 10  1  0
 11 10  1  1
 11 12  1  0
 12 13  1  0
 13 14  1  1
 15 14  1  0
 15 16  1  0
 15 17  1  0
 15 18  1  0
 11 19  1  0
 13 19  1  0
 19 20  1  6
 20 21  1  0
 21 22  2  0
 21 23  1  0
 23 24  1  0
  7 25  1  0
  4 26  1  0
 25 26  1  0
M  END
