piperidine-amides-9030-covalent
     RDKit          3D

 22 24  0  0  0  0  0  0  0  0999 V2000
    7.0640   -3.3370   19.3270 C   0  0  0  0  0  0  0  0  0  0  0  0
    6.3800   -4.1540   20.3330 C   0  0  0  0  0  0  0  0  0  0  0  0
    5.3940   -4.8260   19.9830 O   0  0  0  0  0  0  0  0  0  0  0  0
    6.8410   -4.2330   21.6630 N   0  0  0  0  0  0  0  0  0  0  0  0
    7.7930   -3.2810   22.2070 C   0  0  0  0  0  0  0  0  0  0  0  0
    7.2420   -2.7960   23.5180 C   0  0  0  0  0  0  0  0  0  0  0  0
    5.9950   -3.5200   23.9110 C   0  0  0  0  0  0  0  0  0  0  0  0
    5.5960   -3.1870   25.2990 C   0  0  0  0  0  0  0  0  0  0  0  0
    4.3740   -3.1170   25.6180 O   0  0  0  0  0  0  0  0  0  0  0  0
    6.5480   -2.9450   26.3030 N   0  0  0  0  0  0  0  0  0  0  0  0
    6.5220   -1.7410   27.1620 C   0  0  0  0  0  0  0  0  0  0  0  0
    5.9330   -0.5030   26.5900 C   0  0  0  0  0  0  0  0  0  0  0  0
    5.8720    0.7540   27.4050 C   0  0  0  0  0  0  0  0  0  0  0  0
    6.4000    0.8320   28.8370 C   0  0  0  0  0  0  0  0  0  0  0  0
    6.4040    1.9600   29.7170 N   0  0  0  0  0  0  0  0  0  0  0  0
    7.0390    1.2950   30.8520 C   0  0  0  0  0  0  0  0  0  0  0  0
    7.3610    1.9030   32.1680 C   0  0  0  0  0  0  0  0  0  0  0  0
    7.3730   -0.1740   30.5750 C   0  0  0  0  0  0  0  0  0  0  0  0
    6.9650   -0.4890   29.2770 C   0  0  0  0  0  0  0  0  0  0  0  0
    7.0180   -1.7230   28.4600 C   0  0  0  0  0  0  0  0  0  0  0  0
    6.0420   -5.0210   23.7740 C   0  0  0  0  0  0  0  0  0  0  0  0
    6.6220   -5.4340   22.4390 C   0  0  0  0  0  0  0  0  0  0  0  0
  1  2  1  0
  2  3  2  0
  2  4  1  0
  4  5  1  0
  5  6  1  0
  6  7  1  0
  7  8  1  0
  8  9  2  0
  8 10  1  0
 10 11  1  0
 11 12  2  0
 12 13  1  0
 13 14  2  0
 14 15  1  0
 15 16  1  0
 16 17  1  0
 16 18  2  0
 14 19  1  0
 18 19  1  0
 11 20  1  0
 19 20  2  0
  7 21  1  0
  4 22  1  0
 21 22  1  0
M  END
