piperidine-amides-1220-covalent
     RDKit          3D

 23 24  0  0  0  0  0  0  0  0999 V2000
    7.0720   -3.2960   19.2960 C   0  0  0  0  0  0  0  0  0  0  0  0
    6.3500   -4.1120   20.3140 C   0  0  0  0  0  0  0  0  0  0  0  0
    5.3530   -4.7680   19.9590 O   0  0  0  0  0  0  0  0  0  0  0  0
    6.8350   -4.1510   21.6400 N   0  0  0  0  0  0  0  0  0  0  0  0
    7.7400   -3.1300   22.1380 C   0  0  0  0  0  0  0  0  0  0  0  0
    7.5350   -3.0640   23.6470 C   0  0  0  0  0  0  0  0  0  0  0  0
    6.1570   -3.5610   23.8550 C   0  0  0  0  0  0  0  0  0  0  0  0
    5.5900   -3.2510   25.1890 C   0  0  0  0  0  0  0  0  0  0  0  0
    4.4140   -2.8780   25.1980 O   0  0  0  0  0  0  0  0  0  0  0  0
    6.3430   -3.3790   26.3600 N   0  0  0  0  0  0  0  0  0  0  0  0
    5.8160   -3.7880   27.6120 C   0  0  1  0  0  0  0  0  0  0  0  0
    6.2560   -4.9140   28.2880 C   0  0  0  0  0  0  0  0  0  0  0  0
    5.3390   -5.6990   29.0000 C   0  0  0  0  0  0  0  0  0  0  0  0
    5.7420   -6.2480   30.2020 O   0  0  0  0  0  0  0  0  0  0  0  0
    5.5980   -2.8230   28.6350 C   0  0  0  0  0  0  0  0  0  0  0  0
    6.7020   -1.8990   28.9710 C   0  0  0  0  0  0  0  0  0  0  0  0
    6.5770   -0.8210   30.0490 C   0  0  0  0  0  0  0  0  0  0  0  0
    5.2190   -0.7690   30.7540 C   0  0  0  0  0  0  0  0  0  0  0  0
    5.0200    0.1570   31.7240 F   0  0  0  0  0  0  0  0  0  0  0  0
    4.2290   -1.6660   30.3860 C   0  0  0  0  0  0  0  0  0  0  0  0
    4.4110   -2.6990   29.3260 C   0  0  0  0  0  0  0  0  0  0  0  0
    5.9550   -5.0180   23.5570 C   0  0  0  0  0  0  0  0  0  0  0  0
    6.6890   -5.3450   22.4350 C   0  0  0  0  0  0  0  0  0  0  0  0
  1  2  1  0
  2  3  2  0
  2  4  1  0
  4  5  1  0
  5  6  1  0
  6  7  1  0
  7  8  1  0
  8  9  2  0
  8 10  1  0
 10 11  1  0
 11 12  1  1
 12 13  1  0
 13 14  1  0
 11 15  1  0
 15 16  2  0
 16 17  1  0
 17 18  2  0
 18 19  1  0
 18 20  1  0
 15 21  1  0
 20 21  2  0
  7 22  1  0
  4 23  1  0
 22 23  1  0
M  END
