piperidine-amides-23852-covalent
     RDKit          3D

 24 26  0  0  0  0  0  0  0  0999 V2000
    7.0760   -3.3440   19.3030 C   0  0  0  0  0  0  0  0  0  0  0  0
    6.4150   -4.1810   20.3150 C   0  0  0  0  0  0  0  0  0  0  0  0
    5.3530   -4.7490   19.9600 O   0  0  0  0  0  0  0  0  0  0  0  0
    6.9810   -4.3980   21.6010 N   0  0  0  0  0  0  0  0  0  0  0  0
    6.5440   -5.5140   22.3440 C   0  0  0  0  0  0  0  0  0  0  0  0
    6.0480   -5.1580   23.6680 C   0  0  0  0  0  0  0  0  0  0  0  0
    6.6380   -3.9450   24.2770 C   0  0  0  0  0  0  0  0  0  0  0  0
    5.7470   -3.4450   25.3790 C   0  0  0  0  0  0  0  0  0  0  0  0
    4.9580   -2.5150   25.1450 O   0  0  0  0  0  0  0  0  0  0  0  0
    5.7730   -4.0070   26.6660 N   0  0  0  0  0  0  0  0  0  0  0  0
    6.8510   -4.4400   27.3820 C   0  0  0  0  0  0  0  0  0  0  0  0
    6.5050   -5.2850   28.4690 C   0  0  0  0  0  0  0  0  0  0  0  0
    5.0240   -4.8460   28.6080 C   0  0  0  0  0  0  0  0  0  0  0  0
    4.6100   -4.1010   27.4900 C   0  0  2  0  0  0  0  0  0  0  0  0
    3.6480   -5.2350   27.0660 C   0  0  0  0  0  0  0  0  0  0  0  0
    4.2420   -6.4340   27.6660 C   0  0  0  0  0  0  0  0  0  0  0  0
    3.1280   -7.2130   27.0810 C   0  0  0  0  0  0  0  0  0  0  0  0
    2.1650   -6.4930   26.3220 N   0  0  0  0  0  0  0  0  0  0  0  0
    2.4380   -5.1410   26.2560 N   0  0  0  0  0  0  0  0  0  0  0  0
    1.6910   -4.2370   25.6000 C   0  0  0  0  0  0  0  0  0  0  0  0
    1.6530   -2.8340   26.1800 C   0  0  0  0  0  0  0  0  0  0  0  0
    0.2630   -2.2000   26.0310 C   0  0  0  0  0  0  0  0  0  0  0  0
    6.8840   -2.8770   23.2520 C   0  0  0  0  0  0  0  0  0  0  0  0
    7.7610   -3.3900   22.2990 C   0  0  0  0  0  0  0  0  0  0  0  0
  1  2  1  0
  2  3  2  0
  2  4  1  0
  4  5  1  0
  5  6  1  0
  6  7  1  0
  7  8  1  0
  8  9  2  0
  8 10  1  0
 10 11  1  0
 11 12  1  0
 12 13  1  0
 10 14  1  0
 13 14  1  0
 14 15  1  6
 15 16  2  0
 16 17  1  0
 17 18  2  0
 15 19  1  0
 18 19  1  0
 19 20  1  0
 20 21  1  0
 21 22  1  0
  7 23  1  0
  4 24  1  0
 23 24  1  0
M  END
