piperidine-amides-34249-covalent
     RDKit          3D

 30 33  0  0  0  0  0  0  0  0999 V2000
    7.0860   -3.3190   19.3220 C   0  0  0  0  0  0  0  0  0  0  0  0
    6.4240   -4.1790   20.3100 C   0  0  0  0  0  0  0  0  0  0  0  0
    5.4100   -4.8410   19.9890 O   0  0  0  0  0  0  0  0  0  0  0  0
    6.9600   -4.2990   21.6020 N   0  0  0  0  0  0  0  0  0  0  0  0
    6.5600   -5.3890   22.4520 C   0  0  0  0  0  0  0  0  0  0  0  0
    5.6990   -4.7660   23.5610 C   0  0  0  0  0  0  0  0  0  0  0  0
    6.5540   -3.7510   24.3210 C   0  0  0  0  0  0  0  0  0  0  0  0
    5.7590   -3.1860   25.4370 C   0  0  0  0  0  0  0  0  0  0  0  0
    4.5390   -3.0090   25.2340 O   0  0  0  0  0  0  0  0  0  0  0  0
    6.3570   -2.8520   26.6870 N   0  0  0  0  0  0  0  0  0  0  0  0
    6.0990   -3.7140   27.8080 C   0  0  0  0  0  0  0  0  0  0  0  0
    4.8130   -3.2350   28.4520 C   0  0  0  0  0  0  0  0  0  0  0  0
    4.8300   -2.4000   29.5350 C   0  0  0  0  0  0  0  0  0  0  0  0
    3.6640   -1.9660   30.1170 C   0  0  0  0  0  0  0  0  0  0  0  0
    2.3960   -2.3300   29.6670 C   0  0  0  0  0  0  0  0  0  0  0  0
    1.2370   -1.8850   30.2620 C   0  0  0  0  0  0  0  0  0  0  0  0
    1.1660   -1.5080   31.7680 C   0  0  0  0  0  0  0  0  0  0  0  0
   -0.3250   -1.1230   31.7440 C   0  0  0  0  0  0  0  0  0  0  0  0
   -1.1790   -1.2460   30.2900 S   0  0  0  0  0  0  0  0  0  0  0  0
    0.1520   -1.7940   29.4550 C   0  0  0  0  0  0  0  0  0  0  0  0
    2.4090   -3.1750   28.5750 C   0  0  0  0  0  0  0  0  0  0  0  0
    3.5840   -3.6250   27.9700 C   0  0  0  0  0  0  0  0  0  0  0  0
    6.6760   -1.4520   26.9600 C   0  0  0  0  0  0  0  0  0  0  0  0
    7.2000   -1.3740   28.3750 C   0  0  0  0  0  0  0  0  0  0  0  0
    6.6410   -0.2740   29.2170 C   0  0  0  0  0  0  0  0  0  0  0  0
    5.8310    0.8050   28.5090 C   0  0  0  0  0  0  0  0  0  0  0  0
    5.7620    0.6950   27.1280 C   0  0  0  0  0  0  0  0  0  0  0  0
    5.5670   -0.6060   26.7160 C   0  0  0  0  0  0  0  0  0  0  0  0
    7.0630   -2.6710   23.3940 C   0  0  0  0  0  0  0  0  0  0  0  0
    7.7020   -3.2300   22.1880 C   0  0  0  0  0  0  0  0  0  0  0  0
  1  2  1  0
  2  3  2  0
  2  4  1  0
  4  5  1  0
  5  6  1  0
  6  7  1  0
  7  8  1  0
  8  9  2  0
  8 10  1  0
 10 11  1  0
 11 12  1  0
 12 13  2  0
 13 14  1  0
 14 15  2  0
 15 16  1  0
 16 17  1  0
 17 18  2  0
 18 19  1  0
 16 20  2  0
 19 20  1  0
 15 21  1  0
 12 22  1  0
 21 22  2  0
 10 23  1  0
 23 24  1  0
 24 25  1  0
 25 26  1  0
 26 27  1  0
 23 28  1  0
 27 28  1  0
  7 29  1  0
  4 30  1  0
 29 30  1  0
M  END
