piperidine-amides-27557-covalent
     RDKit          3D

 25 26  0  0  0  0  0  0  0  0999 V2000
    7.0620   -3.3650   19.3890 C   0  0  0  0  0  0  0  0  0  0  0  0
    6.4190   -4.2330   20.3780 C   0  0  0  0  0  0  0  0  0  0  0  0
    5.3910   -4.8500   19.9870 O   0  0  0  0  0  0  0  0  0  0  0  0
    6.9610   -4.3990   21.6680 N   0  0  0  0  0  0  0  0  0  0  0  0
    6.6550   -5.5500   22.4750 C   0  0  0  0  0  0  0  0  0  0  0  0
    6.4670   -5.0650   23.8900 C   0  0  0  0  0  0  0  0  0  0  0  0
    5.8940   -3.6680   23.9160 C   0  0  0  0  0  0  0  0  0  0  0  0
    5.5110   -3.2110   25.2810 C   0  0  0  0  0  0  0  0  0  0  0  0
    4.3050   -2.9440   25.4640 O   0  0  0  0  0  0  0  0  0  0  0  0
    6.3830   -3.0670   26.3810 N   0  0  0  0  0  0  0  0  0  0  0  0
    6.6500   -4.2820   27.1270 C   0  0  0  0  0  0  0  0  0  0  0  0
    6.3830   -1.7890   27.1070 C   0  0  0  0  0  0  0  0  0  0  0  0
    6.8700   -1.7130   28.5150 N   0  0  0  0  0  0  0  0  0  0  0  0
    6.8940   -0.5980   29.2330 C   0  0  0  0  0  0  0  0  0  0  0  0
    6.4510    0.5850   28.7030 C   0  0  0  0  0  0  0  0  0  0  0  0
    6.4140    1.8140   29.3500 C   0  0  0  0  0  0  0  0  0  0  0  0
    5.2450    2.1550   29.9440 F   0  0  0  0  0  0  0  0  0  0  0  0
    7.3150    1.8140   30.3680 F   0  0  0  0  0  0  0  0  0  0  0  0
    5.9460    0.6020   27.2960 C   0  0  0  0  0  0  0  0  0  0  0  0
    5.9370   -0.5700   26.5760 C   0  0  0  0  0  0  0  0  0  0  0  0
    5.4790   -0.5500   25.3070 N   0  0  0  0  0  0  0  0  0  0  0  0
    5.8190    0.4250   24.5070 O   0  0  0  0  0  0  0  0  0  0  0  0
    4.2120   -0.8550   25.3150 O   0  0  0  0  0  0  0  0  0  0  0  0
    6.8450   -2.6510   23.2840 C   0  0  0  0  0  0  0  0  0  0  0  0
    7.7450   -3.3520   22.2790 C   0  0  0  0  0  0  0  0  0  0  0  0
  1  2  1  0
  2  3  2  0
  2  4  1  0
  4  5  1  0
  5  6  1  0
  6  7  1  0
  7  8  1  0
  8  9  2  0
  8 10  1  0
 10 11  1  0
 10 12  1  0
 12 13  2  0
 13 14  1  0
 14 15  2  0
 15 16  1  0
 16 17  1  0
 16 18  1  0
 15 19  1  0
 12 20  1  0
 19 20  2  0
 20 21  1  0
 21 22  2  0
 21 23  1  0
  7 24  1  0
  4 25  1  0
 24 25  1  0
M  CHG  2  21   1  23  -1
M  END
