piperidine-amides-20575-covalent
     RDKit          3D

 22 22  0  0  0  0  0  0  0  0999 V2000
    7.1690   -3.2600   19.2000 C   0  0  0  0  0  0  0  0  0  0  0  0
    6.4130   -4.0430   20.1860 C   0  0  0  0  0  0  0  0  0  0  0  0
    5.3110   -4.5550   19.8880 O   0  0  0  0  0  0  0  0  0  0  0  0
    6.9590   -4.2750   21.4460 N   0  0  0  0  0  0  0  0  0  0  0  0
    6.4940   -5.4150   22.1860 C   0  0  0  0  0  0  0  0  0  0  0  0
    5.6400   -4.8160   23.2980 C   0  0  0  0  0  0  0  0  0  0  0  0
    6.5300   -3.8410   24.0420 C   0  0  0  0  0  0  0  0  0  0  0  0
    5.7550   -3.2230   25.1080 C   0  0  0  0  0  0  0  0  0  0  0  0
    4.5970   -2.8180   24.8600 O   0  0  0  0  0  0  0  0  0  0  0  0
    6.3340   -3.1180   26.3700 N   0  0  0  0  0  0  0  0  0  0  0  0
    6.5780   -1.8280   26.9600 C   0  0  0  0  0  0  0  0  0  0  0  0
    5.5540   -0.8360   26.4400 C   0  0  0  0  0  0  0  0  0  0  0  0
    5.3700    0.3370   27.1170 C   0  0  0  0  0  0  0  0  0  0  0  0
    4.0450    0.6490   27.2760 C   0  0  0  0  0  0  0  0  0  0  0  0
    6.1520    0.4110   28.2300 C   0  0  0  0  0  0  0  0  0  0  0  0
    5.9900   -4.0230   27.4820 C   0  0  0  0  0  0  0  0  0  0  0  0
    6.7790   -3.8760   28.7400 C   0  0  0  0  0  0  0  0  0  0  0  0
    5.2700   -3.7960   28.9040 C   0  0  0  0  0  0  0  0  0  0  0  0
    4.3970   -2.8300   28.1570 C   0  0  0  0  0  0  0  0  0  0  0  0
    4.6960   -2.5510   29.5790 C   0  0  0  0  0  0  0  0  0  0  0  0
    7.0050   -2.7320   23.1600 C   0  0  0  0  0  0  0  0  0  0  0  0
    7.6610   -3.2130   22.0840 C   0  0  0  0  0  0  0  0  0  0  0  0
  1  2  1  0
  2  3  2  0
  2  4  1  0
  4  5  1  0
  5  6  1  0
  6  7  1  0
  7  8  1  0
  8  9  2  0
  8 10  1  0
 10 11  1  0
 11 12  1  0
 12 13  1  0
 13 14  1  0
 13 15  1  0
 10 16  1  0
 16 17  1  0
 17 18  1  0
 18 19  1  0
 18 20  1  0
  7 21  1  0
  4 22  1  0
 21 22  1  0
M  END
