piperidine-amides-1451-covalent
     RDKit          3D

 22 23  0  0  0  0  0  0  0  0999 V2000
    7.0480   -3.3360   19.3020 C   0  0  0  0  0  0  0  0  0  0  0  0
    6.3550   -4.1770   20.3180 C   0  0  0  0  0  0  0  0  0  0  0  0
    5.3550   -4.8270   19.9730 O   0  0  0  0  0  0  0  0  0  0  0  0
    6.8770   -4.2460   21.6290 N   0  0  0  0  0  0  0  0  0  0  0  0
    7.7140   -3.2050   22.1840 C   0  0  0  0  0  0  0  0  0  0  0  0
    6.9550   -2.6300   23.3720 C   0  0  0  0  0  0  0  0  0  0  0  0
    6.5030   -3.8010   24.1620 C   0  0  0  0  0  0  0  0  0  0  0  0
    5.7790   -3.4170   25.4040 C   0  0  0  0  0  0  0  0  0  0  0  0
    4.5370   -3.4760   25.4090 O   0  0  0  0  0  0  0  0  0  0  0  0
    6.5150   -3.0030   26.5170 N   0  0  0  0  0  0  0  0  0  0  0  0
    6.4830   -1.7500   27.1920 C   0  0  0  0  0  0  0  0  0  0  0  0
    7.0210   -1.5640   28.4540 C   0  0  0  0  0  0  0  0  0  0  0  0
    7.0060   -0.3430   29.1600 C   0  0  0  0  0  0  0  0  0  0  0  0
    6.4360    0.7970   28.6330 C   0  0  0  0  0  0  0  0  0  0  0  0
    6.4140    1.9740   29.3010 N   0  0  0  0  0  0  0  0  0  0  0  0
    5.8390    0.6840   27.2840 C   0  0  0  0  0  0  0  0  0  0  0  0
    5.3040    1.8420   26.8480 N   0  0  0  0  0  0  0  0  0  0  0  0
    5.7380    2.9490   27.3560 O   0  0  0  0  0  0  0  0  0  0  0  0
    4.2030    1.8980   26.1430 O   0  0  0  0  0  0  0  0  0  0  0  0
    5.8790   -0.6540   26.5560 C   0  0  0  0  0  0  0  0  0  0  0  0
    5.6900   -4.8130   23.4070 C   0  0  0  0  0  0  0  0  0  0  0  0
    6.5290   -5.3680   22.4560 C   0  0  0  0  0  0  0  0  0  0  0  0
  1  2  1  0
  2  3  2  0
  2  4  1  0
  4  5  1  0
  5  6  1  0
  6  7  1  0
  7  8  1  0
  8  9  2  0
  8 10  1  0
 10 11  1  0
 11 12  2  0
 12 13  1  0
 13 14  2  0
 14 15  1  0
 14 16  1  0
 16 17  1  0
 17 18  2  0
 17 19  1  0
 11 20  1  0
 16 20  2  0
  7 21  1  0
  4 22  1  0
 21 22  1  0
M  CHG  2  17   1  19  -1
M  END
