piperidine-amides-31406-covalent
     RDKit          3D

 28 30  0  0  0  0  0  0  0  0999 V2000
    7.0730   -3.3490   19.4910 C   0  0  0  0  0  0  0  0  0  0  0  0
    6.4000   -4.1980   20.4490 C   0  0  0  0  0  0  0  0  0  0  0  0
    5.4650   -4.9500   20.0140 O   0  0  0  0  0  0  0  0  0  0  0  0
    6.7650   -4.2310   21.8280 N   0  0  0  0  0  0  0  0  0  0  0  0
    6.6570   -5.5550   22.5090 C   0  0  0  0  0  0  0  0  0  0  0  0
    6.0120   -5.2550   23.9460 C   0  0  0  0  0  0  0  0  0  0  0  0
    6.0120   -3.7580   24.1630 C   0  0  0  0  0  0  0  0  0  0  0  0
    4.9490   -3.1900   25.2560 C   0  0  0  0  0  0  0  0  0  0  0  0
    3.9760   -2.8320   24.6240 O   0  0  0  0  0  0  0  0  0  0  0  0
    5.2880   -3.2140   26.5070 N   0  0  0  0  0  0  0  0  0  0  0  0
    5.3700   -2.8950   27.8370 C   0  0  0  0  0  0  0  0  0  0  0  0
    5.9000   -3.4500   28.9760 C   0  0  0  0  0  0  0  0  0  0  0  0
    5.6770   -4.8900   28.9250 N   0  0  0  0  0  0  0  0  0  0  0  0
    4.6820   -5.5120   29.5740 C   0  0  0  0  0  0  0  0  0  0  0  0
    3.4990   -5.0100   30.1430 O   0  0  0  0  0  0  0  0  0  0  0  0
    4.8780   -6.9800   29.6830 C   0  0  0  0  0  0  0  0  0  0  0  0
    4.2310   -6.9960   31.0840 C   0  0  0  0  0  0  0  0  0  0  0  0
    3.0510   -7.5330   30.5410 C   0  0  0  0  0  0  0  0  0  0  0  0
    2.3350   -8.4020   31.3770 C   0  0  0  0  0  0  0  0  0  0  0  0
    1.5520   -8.7780   30.1640 C   0  0  0  0  0  0  0  0  0  0  0  0
    0.4700   -9.8410   30.4680 C   0  0  0  0  0  0  0  0  0  0  0  0
    0.3790  -10.2830   31.7930 C   0  0  0  0  0  0  0  0  0  0  0  0
    1.2130   -9.8080   32.8270 C   0  0  0  0  0  0  0  0  0  0  0  0
    2.1940   -8.8660   32.6200 C   0  0  0  0  0  0  0  0  0  0  0  0
    5.9910   -5.3830   27.6120 C   0  0  0  0  0  0  0  0  0  0  0  0
    6.1440   -4.2710   26.7760 C   0  0  0  0  0  0  0  0  0  0  0  0
    7.2690   -3.0310   23.8620 C   0  0  0  0  0  0  0  0  0  0  0  0
    7.6580   -3.2650   22.4310 C   0  0  0  0  0  0  0  0  0  0  0  0
  1  2  1  0
  2  3  2  0
  2  4  1  0
  4  5  1  0
  5  6  1  0
  6  7  1  0
  7  8  1  0
  8  9  2  0
  8 10  1  0
 10 11  1  0
 11 12  1  0
 12 13  1  0
 13 14  1  0
 14 15  2  0
 14 16  1  0
 16 17  1  0
 17 18  1  0
 18 19  1  0
 19 20  2  0
 20 21  1  0
 21 22  2  0
 22 23  1  0
 19 24  1  0
 23 24  2  0
 13 25  1  0
 10 26  1  0
 25 26  1  0
  7 27  1  0
  4 28  1  0
 27 28  1  0
M  END
