piperidine-amides-28903-covalent
     RDKit          3D

 22 24  0  0  0  0  0  0  0  0999 V2000
    7.0490   -3.3830   19.4080 C   0  0  0  0  0  0  0  0  0  0  0  0
    6.3620   -4.2280   20.3810 C   0  0  0  0  0  0  0  0  0  0  0  0
    5.3820   -4.8850   19.9900 O   0  0  0  0  0  0  0  0  0  0  0  0
    6.8390   -4.3250   21.7180 N   0  0  0  0  0  0  0  0  0  0  0  0
    6.6860   -5.5690   22.4270 C   0  0  0  0  0  0  0  0  0  0  0  0
    6.1480   -5.2830   23.7990 C   0  0  0  0  0  0  0  0  0  0  0  0
    6.0030   -3.7860   23.8340 C   0  0  0  0  0  0  0  0  0  0  0  0
    5.4110   -3.2500   25.1090 C   0  0  0  0  0  0  0  0  0  0  0  0
    4.7570   -2.2280   24.9870 O   0  0  0  0  0  0  0  0  0  0  0  0
    5.5990   -3.8860   26.3280 N   0  0  0  0  0  0  0  0  0  0  0  0
    6.4740   -3.3320   27.2500 C   0  0  0  0  0  0  0  0  0  0  0  0
    6.7960   -4.2380   28.2650 C   0  0  0  0  0  0  0  0  0  0  0  0
    5.7660   -4.4000   29.0600 C   0  0  0  0  0  0  0  0  0  0  0  0
    4.5720   -4.4670   28.4230 C   0  0  0  0  0  0  0  0  0  0  0  0
    3.4550   -4.8280   29.3340 C   0  0  0  0  0  0  0  0  0  0  0  0
    1.9970   -4.9570   28.8170 C   0  0  0  0  0  0  0  0  0  0  0  0
    0.5390   -5.4220   29.9760 Br  0  0  0  0  0  0  0  0  0  0  0  0
    1.7980   -4.6930   27.3510 C   0  0  0  0  0  0  0  0  0  0  0  0
    2.9760   -4.3310   26.4740 C   0  0  0  0  0  0  0  0  0  0  0  0
    4.3910   -4.2270   27.0790 C   0  0  0  0  0  0  0  0  0  0  0  0
    7.3540   -3.1510   23.6200 C   0  0  0  0  0  0  0  0  0  0  0  0
    7.6750   -3.2800   22.2830 C   0  0  0  0  0  0  0  0  0  0  0  0
  1  2  1  0
  2  3  2  0
  2  4  1  0
  4  5  1  0
  5  6  1  0
  6  7  1  0
  7  8  1  0
  8  9  2  0
  8 10  1  0
 10 11  1  0
 11 12  1  0
 12 13  1  0
 13 14  1  0
 14 15  2  0
 15 16  1  0
 16 17  1  0
 16 18  2  0
 18 19  1  0
 10 20  1  0
 14 20  1  0
 19 20  2  0
  7 21  1  0
  4 22  1  0
 21 22  1  0
M  END
