piperidine-amides-26843-covalent
     RDKit          3D

 25 27  0  0  0  0  0  0  0  0999 V2000
    7.0420   -3.3560   19.3090 C   0  0  0  0  0  0  0  0  0  0  0  0
    6.3920   -4.1900   20.3260 C   0  0  0  0  0  0  0  0  0  0  0  0
    5.3540   -4.8050   19.9670 O   0  0  0  0  0  0  0  0  0  0  0  0
    6.9460   -4.3220   21.6060 N   0  0  0  0  0  0  0  0  0  0  0  0
    6.6260   -5.4480   22.4560 C   0  0  0  0  0  0  0  0  0  0  0  0
    5.9530   -4.9470   23.7170 C   0  0  0  0  0  0  0  0  0  0  0  0
    6.6910   -3.7960   24.3620 C   0  0  0  0  0  0  0  0  0  0  0  0
    5.8950   -3.2410   25.4780 C   0  0  0  0  0  0  0  0  0  0  0  0
    4.6940   -2.9650   25.2550 O   0  0  0  0  0  0  0  0  0  0  0  0
    6.4110   -3.0160   26.7720 N   0  0  0  0  0  0  0  0  0  0  0  0
    6.6780   -4.1960   27.5690 C   0  0  0  0  0  0  0  0  0  0  0  0
    5.9500   -1.8140   27.4560 C   0  0  2  0  0  0  0  0  0  0  0  0
    5.8690   -0.6780   26.6940 C   0  0  0  0  0  0  0  0  0  0  0  0
    6.0060    0.4190   27.5060 C   0  0  0  0  0  0  0  0  0  0  0  0
    6.4170   -0.0690   28.7010 N   0  0  0  0  0  0  0  0  0  0  0  0
    6.1240    0.5260   29.8690 C   0  0  0  0  0  0  0  0  0  0  0  0
    5.2240   -0.1500   30.6950 C   0  0  0  0  0  0  0  0  0  0  0  0
    5.0620    0.2590   32.0180 C   0  0  0  0  0  0  0  0  0  0  0  0
    6.2530    0.4650   32.6310 N   0  0  0  0  0  0  0  0  0  0  0  0
    6.4510    0.0160   33.9620 C   0  0  0  0  0  0  0  0  0  0  0  0
    7.3990    0.6100   31.9450 C   0  0  0  0  0  0  0  0  0  0  0  0
    7.3670    0.6110   30.4450 C   0  0  0  0  0  0  0  0  0  0  0  0
    6.7200   -1.5210   28.6170 C   0  0  0  0  0  0  0  0  0  0  0  0
    6.9630   -2.7020   23.4000 C   0  0  0  0  0  0  0  0  0  0  0  0
    7.6630   -3.2160   22.1730 C   0  0  0  0  0  0  0  0  0  0  0  0
  1  2  1  0
  2  3  2  0
  2  4  1  0
  4  5  1  0
  5  6  1  0
  6  7  1  0
  7  8  1  0
  8  9  2  0
  8 10  1  0
 10 11  1  0
 12 10  1  6
 12 13  1  0
 13 14  1  0
 14 15  1  0
 15 16  1  0
 16 17  1  0
 17 18  1  0
 18 19  1  0
 19 20  1  0
 19 21  1  0
 16 22  1  0
 21 22  1  0
 12 23  1  0
 15 23  1  0
  7 24  1  0
  4 25  1  0
 24 25  1  0
M  END
