piperidine-amides-25001-covalent
     RDKit          3D

 24 25  0  0  0  0  0  0  0  0999 V2000
    7.0040   -3.3490   19.4130 C   0  0  0  0  0  0  0  0  0  0  0  0
    6.3260   -4.2490   20.3580 C   0  0  0  0  0  0  0  0  0  0  0  0
    5.3480   -4.9260   19.9860 O   0  0  0  0  0  0  0  0  0  0  0  0
    6.7890   -4.3880   21.6740 N   0  0  0  0  0  0  0  0  0  0  0  0
    6.6330   -5.6650   22.3460 C   0  0  0  0  0  0  0  0  0  0  0  0
    5.9200   -5.4030   23.6830 C   0  0  0  0  0  0  0  0  0  0  0  0
    5.8680   -3.9090   23.8240 C   0  0  0  0  0  0  0  0  0  0  0  0
    5.2290   -3.4400   25.0830 C   0  0  0  0  0  0  0  0  0  0  0  0
    4.4610   -2.4660   24.9950 O   0  0  0  0  0  0  0  0  0  0  0  0
    5.4470   -4.0330   26.3520 N   0  0  0  0  0  0  0  0  0  0  0  0
    6.7950   -4.2020   26.7120 C   0  0  0  0  0  0  0  0  0  0  0  0
    6.7890   -4.9180   28.0160 C   0  0  0  0  0  0  0  0  0  0  0  0
    5.7060   -4.4680   28.6310 C   0  0  2  0  0  0  0  0  0  0  0  0
    4.9630   -5.4950   29.2320 N   0  0  0  0  0  0  0  0  0  0  0  0
    3.9570   -5.1470   30.1450 C   0  0  0  0  0  0  0  0  0  0  0  0
    3.5440   -3.8370   30.3330 O   0  0  0  0  0  0  0  0  0  0  0  0
    3.3520   -6.1120   30.8830 O   0  0  0  0  0  0  0  0  0  0  0  0
    3.9830   -7.3350   30.9200 C   0  0  0  0  0  0  0  0  0  0  0  0
    3.8170   -7.8230   29.6440 C   0  0  0  0  0  0  0  0  0  0  0  0
    5.4780   -7.4780   31.2360 C   0  0  0  0  0  0  0  0  0  0  0  0
    3.2050   -8.1390   31.9180 C   0  0  0  0  0  0  0  0  0  0  0  0
    5.0960   -3.6270   27.7430 C   0  0  0  0  0  0  0  0  0  0  0  0
    7.2590   -3.3760   23.6690 C   0  0  0  0  0  0  0  0  0  0  0  0
    7.5570   -3.3370   22.3040 C   0  0  0  0  0  0  0  0  0  0  0  0
  1  2  1  0
  2  3  2  0
  2  4  1  0
  4  5  1  0
  5  6  1  0
  6  7  1  0
  7  8  1  0
  8  9  2  0
  8 10  1  0
 10 11  1  0
 11 12  1  0
 12 13  1  0
 13 14  1  6
 14 15  1  0
 15 16  2  0
 15 17  1  0
 18 17  1  0
 18 19  1  0
 18 20  1  0
 18 21  1  0
 10 22  1  0
 13 22  1  0
  7 23  1  0
  4 24  1  0
 23 24  1  0
M  END
