piperidine-amides-33662-covalent
     RDKit          3D

 27 29  0  0  0  0  0  0  0  0999 V2000
    7.1930   -3.3180   19.2250 C   0  0  0  0  0  0  0  0  0  0  0  0
    6.4080   -4.0760   20.2030 C   0  0  0  0  0  0  0  0  0  0  0  0
    5.2760   -4.4940   19.8630 O   0  0  0  0  0  0  0  0  0  0  0  0
    6.9760   -4.3760   21.4520 N   0  0  0  0  0  0  0  0  0  0  0  0
    7.6720   -3.3160   22.0980 C   0  0  0  0  0  0  0  0  0  0  0  0
    7.2300   -2.9950   23.4430 C   0  0  0  0  0  0  0  0  0  0  0  0
    6.5120   -4.0600   24.1650 C   0  0  0  0  0  0  0  0  0  0  0  0
    5.7020   -3.4390   25.2420 C   0  0  0  0  0  0  0  0  0  0  0  0
    4.8250   -2.6120   24.9490 O   0  0  0  0  0  0  0  0  0  0  0  0
    5.8880   -3.7700   26.5760 N   0  0  0  0  0  0  0  0  0  0  0  0
    6.3710   -2.9230   27.5640 C   0  0  0  0  0  0  0  0  0  0  0  0
    6.7960   -3.4730   28.8330 C   0  0  0  0  0  0  0  0  0  0  0  0
    5.7130   -4.4210   29.3320 C   0  0  0  0  0  0  0  0  0  0  0  0
    4.5650   -3.7280   29.6790 C   0  0  0  0  0  0  0  0  0  0  0  0
    3.5890   -4.5530   30.2000 O   0  0  0  0  0  0  0  0  0  0  0  0
    3.3260   -4.3070   31.5370 C   0  0  0  0  0  0  0  0  0  0  0  0
    3.2740   -5.5450   32.3800 C   0  0  0  0  0  0  0  0  0  0  0  0
    2.9770   -5.1570   33.8510 C   0  0  0  0  0  0  0  0  0  0  0  0
    2.8880   -6.5180   34.9420 Cl  0  0  0  0  0  0  0  0  0  0  0  0
    2.7630   -3.7580   34.4090 C   0  0  0  0  0  0  0  0  0  0  0  0
    2.8350   -2.5730   33.4730 C   0  0  0  0  0  0  0  0  0  0  0  0
    2.5930   -0.9500   34.0830 Cl  0  0  0  0  0  0  0  0  0  0  0  0
    3.1250   -2.8990   32.0180 C   0  0  0  0  0  0  0  0  0  0  0  0
    5.5630   -5.2960   28.3160 C   0  0  0  0  0  0  0  0  0  0  0  0
    4.9740   -4.6340   27.2530 C   0  0  0  0  0  0  0  0  0  0  0  0
    5.7270   -5.0240   23.3590 C   0  0  0  0  0  0  0  0  0  0  0  0
    6.4930   -5.5100   22.1680 C   0  0  0  0  0  0  0  0  0  0  0  0
  1  2  1  0
  2  3  2  0
  2  4  1  0
  4  5  1  0
  5  6  1  0
  6  7  1  0
  7  8  1  0
  8  9  2  0
  8 10  1  0
 10 11  1  0
 11 12  1  0
 12 13  1  0
 13 14  1  0
 14 15  1  0
 15 16  1  0
 16 17  2  0
 17 18  1  0
 18 19  1  0
 18 20  2  0
 20 21  1  0
 21 22  1  0
 16 23  1  0
 21 23  2  0
 13 24  1  0
 10 25  1  0
 24 25  1  0
  7 26  1  0
  4 27  1  0
 26 27  1  0
M  END
