piperidine-amides-30303-covalent
     RDKit          3D

 27 29  0  0  0  0  0  0  0  0999 V2000
    7.0770   -3.3430   19.3750 C   0  0  0  0  0  0  0  0  0  0  0  0
    6.3760   -4.2130   20.3110 C   0  0  0  0  0  0  0  0  0  0  0  0
    5.3410   -4.7760   19.9620 O   0  0  0  0  0  0  0  0  0  0  0  0
    6.9200   -4.4670   21.6140 N   0  0  0  0  0  0  0  0  0  0  0  0
    7.6630   -3.4530   22.3230 C   0  0  0  0  0  0  0  0  0  0  0  0
    6.8580   -2.8840   23.4580 C   0  0  0  0  0  0  0  0  0  0  0  0
    6.2460   -4.0260   24.2680 C   0  0  0  0  0  0  0  0  0  0  0  0
    5.2920   -3.4720   25.2770 C   0  0  0  0  0  0  0  0  0  0  0  0
    4.3310   -2.7720   24.9320 O   0  0  0  0  0  0  0  0  0  0  0  0
    5.4590   -3.7230   26.6680 N   0  0  0  0  0  0  0  0  0  0  0  0
    6.5580   -3.0910   27.2630 C   0  0  0  0  0  0  0  0  0  0  0  0
    6.8190   -3.8510   28.5490 C   0  0  0  0  0  0  0  0  0  0  0  0
    5.9830   -4.9300   28.5940 O   0  0  0  0  0  0  0  0  0  0  0  0
    4.6380   -4.8600   28.5030 C   0  0  1  0  0  0  0  0  0  0  0  0
    4.1210   -4.7300   29.7940 C   0  0  0  0  0  0  0  0  0  0  0  0
    3.7890   -3.5280   30.3650 C   0  0  0  0  0  0  0  0  0  0  0  0
    3.2610   -3.4770   31.7020 C   0  0  0  0  0  0  0  0  0  0  0  0
    3.0080   -4.4890   32.5810 C   0  0  0  0  0  0  0  0  0  0  0  0
    2.4980   -4.3520   33.8620 O   0  0  0  0  0  0  0  0  0  0  0  0
    3.4210   -4.2820   34.9240 C   0  0  0  0  0  0  0  0  0  0  0  0
    3.3570   -5.8550   31.9990 C   0  0  0  0  0  0  0  0  0  0  0  0
    3.1650   -7.0200   32.7500 O   0  0  0  0  0  0  0  0  0  0  0  0
    3.6850   -8.1580   32.1960 C   0  0  0  0  0  0  0  0  0  0  0  0
    3.9220   -5.8850   30.5640 C   0  0  0  0  0  0  0  0  0  0  0  0
    4.3910   -3.7730   27.6380 C   0  0  0  0  0  0  0  0  0  0  0  0
    5.5030   -5.0080   23.3920 C   0  0  0  0  0  0  0  0  0  0  0  0
    6.4740   -5.6020   22.3690 C   0  0  0  0  0  0  0  0  0  0  0  0
  1  2  1  0
  2  3  2  0
  2  4  1  0
  4  5  1  0
  5  6  1  0
  6  7  1  0
  7  8  1  0
  8  9  2  0
  8 10  1  0
 10 11  1  0
 11 12  1  0
 12 13  1  0
 13 14  1  0
 14 15  1  1
 15 16  2  0
 16 17  1  0
 17 18  2  0
 18 19  1  0
 19 20  1  0
 18 21  1  0
 21 22  1  0
 22 23  1  0
 15 24  1  0
 21 24  2  0
 10 25  1  0
 14 25  1  0
  7 26  1  0
  4 27  1  0
 26 27  1  0
M  END
