piperidine-amides-28983-covalent
     RDKit          3D

 26 28  0  0  0  0  0  0  0  0999 V2000
    7.0910   -3.3640   19.3630 C   0  0  0  0  0  0  0  0  0  0  0  0
    6.4050   -4.1950   20.3390 C   0  0  0  0  0  0  0  0  0  0  0  0
    5.3780   -4.8030   19.9770 O   0  0  0  0  0  0  0  0  0  0  0  0
    6.9460   -4.3350   21.6430 N   0  0  0  0  0  0  0  0  0  0  0  0
    6.6200   -5.4930   22.4040 C   0  0  0  0  0  0  0  0  0  0  0  0
    5.7840   -5.0620   23.5710 C   0  0  0  0  0  0  0  0  0  0  0  0
    6.5770   -4.0440   24.3770 C   0  0  0  0  0  0  0  0  0  0  0  0
    5.7040   -3.5220   25.4960 C   0  0  0  0  0  0  0  0  0  0  0  0
    4.6430   -3.0230   25.1290 O   0  0  0  0  0  0  0  0  0  0  0  0
    6.1020   -3.6010   26.8410 N   0  0  0  0  0  0  0  0  0  0  0  0
    6.0940   -2.4750   27.6830 C   0  0  0  0  0  0  0  0  0  0  0  0
    6.1650   -3.0000   28.9640 C   0  0  0  0  0  0  0  0  0  0  0  0
    6.2130   -4.3680   28.8760 C   0  0  0  0  0  0  0  0  0  0  0  0
    5.8710   -4.8290   27.6040 C   0  0  0  0  0  0  0  0  0  0  0  0
    4.4790   -5.0010   27.8550 C   0  0  0  0  0  0  0  0  0  0  0  0
    4.6150   -6.2220   27.4420 N   0  0  0  0  0  0  0  0  0  0  0  0
    3.8550   -6.6970   26.4480 C   0  0  0  0  0  0  0  0  0  0  0  0
    4.3760   -7.3140   25.4850 O   0  0  0  0  0  0  0  0  0  0  0  0
    2.5840   -6.4340   26.6360 O   0  0  0  0  0  0  0  0  0  0  0  0
    2.0010   -7.5020   27.2990 C   0  0  0  0  0  0  0  0  0  0  0  0
    2.6600   -7.7690   28.6230 C   0  0  0  0  0  0  0  0  0  0  0  0
    1.9900   -8.5970   26.4650 C   0  0  0  0  0  0  0  0  0  0  0  0
    0.6630   -7.1640   27.4360 C   0  0  0  0  0  0  0  0  0  0  0  0
    6.0330   -6.1720   27.1510 C   0  0  0  0  0  0  0  0  0  0  0  0
    7.0410   -2.8800   23.5600 C   0  0  0  0  0  0  0  0  0  0  0  0
    7.6960   -3.2760   22.2670 C   0  0  0  0  0  0  0  0  0  0  0  0
  1  2  1  0
  2  3  2  0
  2  4  1  0
  4  5  1  0
  5  6  1  0
  6  7  1  0
  7  8  1  0
  8  9  2  0
  8 10  1  0
 10 11  1  0
 11 12  1  0
 12 13  1  0
 14 10  1  0
 13 14  1  0
 14 15  1  0
 15 16  1  0
 16 17  1  0
 17 18  2  0
 17 19  1  0
 20 19  1  0
 20 21  1  0
 20 22  1  0
 20 23  1  0
 14 24  1  0
 16 24  1  0
  7 25  1  0
  4 26  1  0
 25 26  1  0
M  END
