piperidine-amides-35496-covalent
     RDKit          3D

 34 37  0  0  0  0  0  0  0  0999 V2000
    6.9680   -3.3610   19.4340 C   0  0  0  0  0  0  0  0  0  0  0  0
    6.3390   -4.2610   20.4430 C   0  0  0  0  0  0  0  0  0  0  0  0
    5.4380   -4.9820   20.0150 O   0  0  0  0  0  0  0  0  0  0  0  0
    6.7750   -4.2980   21.7890 N   0  0  0  0  0  0  0  0  0  0  0  0
    6.6180   -5.4890   22.5950 C   0  0  0  0  0  0  0  0  0  0  0  0
    5.9830   -5.1370   23.9240 C   0  0  0  0  0  0  0  0  0  0  0  0
    5.8370   -3.6170   24.0280 C   0  0  0  0  0  0  0  0  0  0  0  0
    4.9760   -3.2200   25.2140 C   0  0  0  0  0  0  0  0  0  0  0  0
    3.8230   -2.8820   24.9590 O   0  0  0  0  0  0  0  0  0  0  0  0
    5.3410   -3.1980   26.5930 N   0  0  0  0  0  0  0  0  0  0  0  0
    4.5110   -2.6800   27.6320 C   0  0  0  0  0  0  0  0  0  0  0  0
    5.0450   -3.5030   28.7720 C   0  0  0  0  0  0  0  0  0  0  0  0
    6.0330   -4.3650   28.4300 C   0  0  1  0  0  0  0  0  0  0  0  0
    5.7430   -5.6690   28.6780 C   0  0  0  0  0  0  0  0  0  0  0  0
    5.2750   -5.9020   29.9480 C   0  0  0  0  0  0  0  0  0  0  0  0
    4.7200   -7.0890   29.9300 N   0  0  0  0  0  0  0  0  0  0  0  0
    3.6340   -7.1890   31.2660 S   0  0  0  0  0  0  0  0  0  0  0  0
    2.3540   -6.5210   30.8830 O   0  0  0  0  0  0  0  0  0  0  0  0
    3.4000   -8.6190   31.6180 O   0  0  0  0  0  0  0  0  0  0  0  0
    4.2150   -6.4600   32.7790 C   0  0  0  0  0  0  0  0  0  0  0  0
    5.3760   -7.0060   33.5830 C   0  0  0  0  0  0  0  0  0  0  0  0
    5.8200   -6.3360   34.8970 C   0  0  0  0  0  0  0  0  0  0  0  0
    5.1290   -5.1060   35.4530 C   0  0  0  0  0  0  0  0  0  0  0  0
    5.4380   -4.4380   36.5970 N   0  0  0  0  0  0  0  0  0  0  0  0
    5.1720   -3.0300   36.6570 C   0  0  0  0  0  0  0  0  0  0  0  0
    5.7960   -2.2600   37.6320 O   0  0  0  0  0  0  0  0  0  0  0  0
    4.3460   -2.3750   35.8360 N   0  0  0  0  0  0  0  0  0  0  0  0
    3.4550   -3.3890   35.3490 C   0  0  0  0  0  0  0  0  0  0  0  0
    2.0660   -3.3600   35.4990 O   0  0  0  0  0  0  0  0  0  0  0  0
    3.9750   -4.5880   34.6200 C   0  0  0  0  0  0  0  0  0  0  0  0
    3.5730   -5.2520   33.3660 C   0  0  0  0  0  0  0  0  0  0  0  0
    6.2620   -4.0960   27.0910 C   0  0  0  0  0  0  0  0  0  0  0  0
    7.1860   -2.9930   23.8280 C   0  0  0  0  0  0  0  0  0  0  0  0
    7.6190   -3.2170   22.3550 C   0  0  0  0  0  0  0  0  0  0  0  0
  1  2  1  0
  2  3  2  0
  2  4  1  0
  4  5  1  0
  5  6  1  0
  6  7  1  0
  7  8  1  0
  8  9  2  0
  8 10  1  0
 10 11  1  0
 11 12  1  0
 12 13  1  0
 13 14  1  6
 14 15  1  0
 15 16  1  0
 17 16  1  0
 17 18  2  0
 17 19  2  0
 17 20  1  0
 20 21  2  0
 21 22  1  0
 22 23  2  0
 23 24  1  0
 24 25  1  0
 25 26  2  0
 25 27  1  0
 27 28  1  0
 28 29  2  0
 23 30  1  0
 28 30  1  0
 20 31  1  0
 30 31  2  0
 10 32  1  0
 13 32  1  0
  7 33  1  0
  4 34  1  0
 33 34  1  0
M  END
