piperidine-amides-3132-covalent
     RDKit          3D

 23 24  0  0  0  0  0  0  0  0999 V2000
    7.0290   -3.3740   19.3560 C   0  0  0  0  0  0  0  0  0  0  0  0
    6.3430   -4.2490   20.3040 C   0  0  0  0  0  0  0  0  0  0  0  0
    5.3490   -4.8840   19.9750 O   0  0  0  0  0  0  0  0  0  0  0  0
    6.8740   -4.3830   21.6210 N   0  0  0  0  0  0  0  0  0  0  0  0
    7.5950   -3.2690   22.1530 C   0  0  0  0  0  0  0  0  0  0  0  0
    6.7450   -2.6590   23.2050 C   0  0  0  0  0  0  0  0  0  0  0  0
    6.6050   -3.7420   24.2490 C   0  0  0  0  0  0  0  0  0  0  0  0
    5.9880   -3.1480   25.4780 C   0  0  0  0  0  0  0  0  0  0  0  0
    4.7960   -3.3870   25.7810 O   0  0  0  0  0  0  0  0  0  0  0  0
    6.7700   -2.2450   26.3260 N   0  0  0  0  0  0  0  0  0  0  0  0
    5.9930   -1.1800   26.9510 C   0  0  0  0  0  0  0  0  0  0  0  0
    5.9620   -2.5120   27.5200 C   0  0  0  0  0  0  0  0  0  0  0  0
    6.9310   -2.8520   26.5120 N   0  0  0  0  0  0  0  0  0  0  0  0
    7.4420   -1.9480   25.5740 N   0  0  0  0  0  0  0  0  0  0  0  0
    8.4650   -2.1510   24.5120 C   0  0  0  0  0  0  0  0  0  0  0  0
    9.7030   -2.3920   25.1430 C   0  0  0  0  0  0  0  0  0  0  0  0
   11.1120   -2.0480   24.0710 S   0  0  0  0  0  0  0  0  0  0  0  0
   12.6500   -2.6680   24.7970 C   0  0  0  0  0  0  0  0  0  0  0  0
   11.1640   -0.5780   23.8420 O   0  0  0  0  0  0  0  0  0  0  0  0
   10.8550   -2.6780   22.7530 O   0  0  0  0  0  0  0  0  0  0  0  0
    6.7840   -0.7780   25.8440 C   0  0  0  0  0  0  0  0  0  0  0  0
    5.8290   -4.9260   23.7060 C   0  0  0  0  0  0  0  0  0  0  0  0
    6.4580   -5.4410   22.5620 C   0  0  0  0  0  0  0  0  0  0  0  0
  1  2  1  0
  2  3  2  0
  2  4  1  0
  4  5  1  0
  5  6  1  0
  6  7  1  0
  7  8  1  0
  8  9  2  0
  8 10  1  0
 10 11  1  0
 11 12  1  0
 12 13  2  0
 13 14  1  0
 14 15  1  0
 15 16  1  0
 17 16  1  0
 17 18  1  0
 17 19  2  0
 17 20  2  0
 11 21  2  0
 14 21  1  0
  7 22  1  0
  4 23  1  0
 22 23  1  0
M  END
