piperidine-amides-14071-covalent
     RDKit          3D

 25 27  0  0  0  0  0  0  0  0999 V2000
    7.0880   -3.1350   19.1400 C   0  0  0  0  0  0  0  0  0  0  0  0
    6.2470   -3.7450   20.2010 C   0  0  0  0  0  0  0  0  0  0  0  0
    5.3070   -4.4820   19.8610 O   0  0  0  0  0  0  0  0  0  0  0  0
    6.5200   -3.5080   21.5710 N   0  0  0  0  0  0  0  0  0  0  0  0
    5.8880   -4.3100   22.5510 C   0  0  0  0  0  0  0  0  0  0  0  0
    4.9320   -3.3830   23.3090 C   0  0  0  0  0  0  0  0  0  0  0  0
    5.5590   -2.2140   24.0670 C   0  0  0  0  0  0  0  0  0  0  0  0
    5.0370   -2.1780   25.5300 C   0  0  0  0  0  0  0  0  0  0  0  0
    3.9940   -2.8390   25.6730 O   0  0  0  0  0  0  0  0  0  0  0  0
    5.5660   -1.5430   26.7430 N   0  0  0  0  0  0  0  0  0  0  0  0
    5.8970   -2.5240   27.7100 C   0  0  0  0  0  0  0  0  0  0  0  0
    5.1120   -3.3780   28.4430 C   0  0  0  0  0  0  0  0  0  0  0  0
    7.0740   -2.2410   28.6120 C   0  0  0  0  0  0  0  0  0  0  0  0
    6.0970   -3.3230   26.7300 C   0  0  0  0  0  0  0  0  0  0  0  0
    5.4990   -4.4660   26.4330 N   0  0  0  0  0  0  0  0  0  0  0  0
    5.9960   -4.7950   25.3110 C   0  0  0  0  0  0  0  0  0  0  0  0
    5.7460   -5.9280   24.4660 C   0  0  0  0  0  0  0  0  0  0  0  0
    6.6020   -5.8680   23.2680 C   0  0  0  0  0  0  0  0  0  0  0  0
    6.4170   -7.1220   22.2400 Cl  0  0  0  0  0  0  0  0  0  0  0  0
    7.4960   -4.8880   22.9720 C   0  0  0  0  0  0  0  0  0  0  0  0
    7.8510   -3.6920   23.7080 C   0  0  0  0  0  0  0  0  0  0  0  0
    6.9720   -3.7760   24.9210 C   0  0  0  0  0  0  0  0  0  0  0  0
    7.0020   -2.8420   25.8790 O   0  0  0  0  0  0  0  0  0  0  0  0
    6.9870   -2.1360   23.6460 C   0  0  0  0  0  0  0  0  0  0  0  0
    7.1780   -2.3310   22.0900 C   0  0  0  0  0  0  0  0  0  0  0  0
  1  2  1  0
  2  3  2  0
  2  4  1  0
  4  5  1  0
  5  6  1  0
  6  7  1  0
  7  8  1  0
  8  9  2  0
  8 10  1  0
 11 10  1  0
 11 12  1  0
 11 13  1  0
 11 14  1  0
 14 15  2  0
 15 16  1  0
 16 17  2  0
 17 18  1  0
 18 19  1  0
 18 20  2  0
 20 21  1  0
 16 22  1  0
 21 22  2  0
 14 23  1  0
 22 23  1  0
  7 24  1  0
  4 25  1  0
 24 25  1  0
M  END
