piperidine-amides-2643-covalent
     RDKit          3D

 25 26  0  0  0  0  0  0  0  0999 V2000
    7.0810   -3.2600   19.1830 C   0  0  0  0  0  0  0  0  0  0  0  0
    6.3210   -4.0180   20.2130 C   0  0  0  0  0  0  0  0  0  0  0  0
    5.2550   -4.5160   19.8640 O   0  0  0  0  0  0  0  0  0  0  0  0
    6.8380   -4.1960   21.4960 N   0  0  0  0  0  0  0  0  0  0  0  0
    6.5590   -5.3810   22.2550 C   0  0  0  0  0  0  0  0  0  0  0  0
    5.8650   -4.9920   23.5290 C   0  0  0  0  0  0  0  0  0  0  0  0
    6.6060   -3.8100   24.1610 C   0  0  0  0  0  0  0  0  0  0  0  0
    5.8450   -3.3240   25.3320 C   0  0  0  0  0  0  0  0  0  0  0  0
    4.6280   -3.1030   25.2270 O   0  0  0  0  0  0  0  0  0  0  0  0
    6.4950   -3.0950   26.5580 N   0  0  0  0  0  0  0  0  0  0  0  0
    6.1900   -3.9030   27.7270 C   0  0  0  0  0  0  0  0  0  0  0  0
    5.8470   -5.3310   27.3130 C   0  0  1  0  0  0  0  0  0  0  0  0
    6.0410   -6.3890   28.1520 C   0  0  0  0  0  0  0  0  0  0  0  0
    4.4890   -5.3490   27.0510 O   0  0  0  0  0  0  0  0  0  0  0  0
    3.6990   -6.4170   26.6230 C   0  0  0  0  0  0  0  0  0  0  0  0
    2.8260   -6.9280   27.5350 C   0  0  0  0  0  0  0  0  0  0  0  0
    1.8170   -8.0650   27.4210 C   0  0  0  0  0  0  0  0  0  0  0  0
    1.8790   -8.6480   26.0290 C   0  0  0  0  0  0  0  0  0  0  0  0
    0.8860   -9.7710   25.8680 C   0  0  0  0  0  0  0  0  0  0  0  0
    0.4120   -9.6030   24.4620 C   0  0  0  0  0  0  0  0  0  0  0  0
    1.4730  -11.1550   26.0520 C   0  0  0  0  0  0  0  0  0  0  0  0
    2.8070   -8.1600   24.9580 C   0  0  0  0  0  0  0  0  0  0  0  0
    3.7150   -7.0380   25.2760 C   0  0  0  0  0  0  0  0  0  0  0  0
    6.7810   -2.6640   23.1820 C   0  0  0  0  0  0  0  0  0  0  0  0
    7.5760   -3.1340   22.1660 C   0  0  0  0  0  0  0  0  0  0  0  0
  1  2  1  0
  2  3  2  0
  2  4  1  0
  4  5  1  0
  5  6  1  0
  6  7  1  0
  7  8  1  0
  8  9  2  0
  8 10  1  0
 10 11  1  0
 11 12  1  0
 12 13  1  1
 12 14  1  0
 14 15  1  0
 15 16  2  0
 16 17  1  0
 17 18  2  0
 18 19  1  0
 19 20  1  0
 19 21  1  0
 18 22  1  0
 15 23  1  0
 22 23  2  0
  7 24  1  0
  4 25  1  0
 24 25  1  0
M  END
