piperidine-amides-24225-covalent
     RDKit          3D

 24 26  0  0  0  0  0  0  0  0999 V2000
    7.0810   -3.3960   19.4400 C   0  0  0  0  0  0  0  0  0  0  0  0
    6.4040   -4.2850   20.3900 C   0  0  0  0  0  0  0  0  0  0  0  0
    5.4030   -4.9370   20.0110 O   0  0  0  0  0  0  0  0  0  0  0  0
    6.9140   -4.4450   21.6930 N   0  0  0  0  0  0  0  0  0  0  0  0
    6.5380   -5.5910   22.4890 C   0  0  0  0  0  0  0  0  0  0  0  0
    6.5710   -5.1330   23.9640 C   0  0  0  0  0  0  0  0  0  0  0  0
    5.9470   -3.7560   23.9950 C   0  0  0  0  0  0  0  0  0  0  0  0
    5.5530   -3.2710   25.3430 C   0  0  0  0  0  0  0  0  0  0  0  0
    4.9790   -2.1670   25.3730 O   0  0  0  0  0  0  0  0  0  0  0  0
    5.7670   -3.9800   26.5570 N   0  0  0  0  0  0  0  0  0  0  0  0
    4.6000   -4.6210   27.1330 C   0  0  2  0  0  0  0  0  0  0  0  0
    3.4950   -3.5890   27.2100 C   0  0  0  0  0  0  0  0  0  0  0  0
    2.6020   -3.7700   28.2410 C   0  0  0  0  0  0  0  0  0  0  0  0
    2.5390   -5.0580   28.7380 C   0  0  0  0  0  0  0  0  0  0  0  0
    3.7450   -5.6950   29.0330 C   0  0  0  0  0  0  0  0  0  0  0  0
    4.8530   -5.0270   28.5630 C   0  0  1  0  0  0  0  0  0  0  0  0
    6.2310   -5.5700   28.8130 C   0  0  1  0  0  0  0  0  0  0  0  0
    5.3560   -6.4950   27.9940 C   0  0  0  0  0  0  0  0  0  0  0  0
    7.2730   -4.8130   28.2180 C   0  0  0  0  0  0  0  0  0  0  0  0
    6.6090   -3.6110   27.6520 C   0  0  0  0  0  0  0  0  0  0  0  0
    6.0870   -2.8360   28.6880 C   0  0  0  0  0  0  0  0  0  0  0  0
    6.8280   -2.1450   27.8620 C   0  0  0  0  0  0  0  0  0  0  0  0
    6.8410   -2.7150   23.3520 C   0  0  0  0  0  0  0  0  0  0  0  0
    7.6760   -3.3790   22.2940 C   0  0  0  0  0  0  0  0  0  0  0  0
  1  2  1  0
  2  3  2  0
  2  4  1  0
  4  5  1  0
  5  6  1  0
  6  7  1  0
  7  8  1  0
  8  9  2  0
  8 10  1  0
 10 11  1  0
 11 12  1  1
 12 13  1  0
 13 14  1  0
 14 15  1  0
 11 16  1  0
 16 15  1  6
 16 17  1  0
 17 18  1  6
 17 19  1  0
 10 20  1  0
 19 20  1  0
 20 21  1  0
 20 22  1  0
  7 23  1  0
  4 24  1  0
 23 24  1  0
M  END
