piperidine-amides-7348-covalent
     RDKit          3D

 20 21  0  0  0  0  0  0  0  0999 V2000
    7.1300   -3.2810   19.2270 C   0  0  0  0  0  0  0  0  0  0  0  0
    6.3750   -4.0750   20.2000 C   0  0  0  0  0  0  0  0  0  0  0  0
    5.2360   -4.4650   19.8440 O   0  0  0  0  0  0  0  0  0  0  0  0
    6.9360   -4.4320   21.4250 N   0  0  0  0  0  0  0  0  0  0  0  0
    6.4920   -5.6110   22.1140 C   0  0  0  0  0  0  0  0  0  0  0  0
    5.6080   -5.1580   23.2390 C   0  0  0  0  0  0  0  0  0  0  0  0
    6.2480   -4.0730   24.0670 C   0  0  0  0  0  0  0  0  0  0  0  0
    5.2620   -3.5230   25.0070 C   0  0  0  0  0  0  0  0  0  0  0  0
    4.2160   -4.1530   25.2500 O   0  0  0  0  0  0  0  0  0  0  0  0
    5.4550   -2.3030   25.6320 N   0  0  0  0  0  0  0  0  0  0  0  0
    6.5730   -2.1510   26.4800 C   0  0  0  0  0  0  0  0  0  0  0  0
    7.7430   -3.0430   26.1350 C   0  0  0  0  0  0  0  0  0  0  0  0
    8.0380   -4.2360   26.6790 C   0  0  0  0  0  0  0  0  0  0  0  0
    9.1280   -4.9420   26.3390 C   0  0  0  0  0  0  0  0  0  0  0  0
    9.3400   -6.1370   26.9580 C   0  0  0  0  0  0  0  0  0  0  0  0
    9.9880   -4.4800   25.4180 N   0  0  0  0  0  0  0  0  0  0  0  0
    9.6440   -3.2850   24.8880 C   0  0  0  0  0  0  0  0  0  0  0  0
    8.7080   -2.6370   25.1530 N   0  0  0  0  0  0  0  0  0  0  0  0
    6.7060   -2.8570   23.2620 C   0  0  0  0  0  0  0  0  0  0  0  0
    7.5910   -3.3540   22.1610 C   0  0  0  0  0  0  0  0  0  0  0  0
  1  2  1  0
  2  3  2  0
  2  4  1  0
  4  5  1  0
  5  6  1  0
  6  7  1  0
  7  8  1  0
  8  9  2  0
  8 10  1  0
 10 11  1  0
 11 12  1  0
 12 13  2  0
 13 14  1  0
 14 15  1  0
 14 16  2  0
 16 17  1  0
 12 18  1  0
 17 18  2  0
  7 19  1  0
  4 20  1  0
 19 20  1  0
M  END
