piperidine-amides-11725-covalent
     RDKit          3D

 28 30  0  0  0  0  0  0  0  0999 V2000
    7.0960   -3.3440   19.3360 C   0  0  0  0  0  0  0  0  0  0  0  0
    6.4060   -4.1920   20.2990 C   0  0  0  0  0  0  0  0  0  0  0  0
    5.3850   -4.7970   19.9740 O   0  0  0  0  0  0  0  0  0  0  0  0
    6.9600   -4.3590   21.6120 N   0  0  0  0  0  0  0  0  0  0  0  0
    7.7180   -3.2850   22.1920 C   0  0  0  0  0  0  0  0  0  0  0  0
    6.9300   -2.6540   23.2950 C   0  0  0  0  0  0  0  0  0  0  0  0
    6.5550   -3.7490   24.2680 C   0  0  0  0  0  0  0  0  0  0  0  0
    5.8170   -3.1630   25.4190 C   0  0  0  0  0  0  0  0  0  0  0  0
    4.5820   -2.9870   25.4060 O   0  0  0  0  0  0  0  0  0  0  0  0
    6.5780   -2.8030   26.5530 N   0  0  0  0  0  0  0  0  0  0  0  0
    6.2060   -1.7100   27.4230 C   0  0  2  0  0  0  0  0  0  0  0  0
    5.6520   -0.5990   26.6070 C   0  0  0  0  0  0  0  0  0  0  0  0
    5.5160    0.3180   27.5540 C   0  0  0  0  0  0  0  0  0  0  0  0
    6.0350   -0.4900   28.6320 N   0  0  0  0  0  0  0  0  0  0  0  0
    5.2350   -0.6980   29.8060 C   0  0  0  0  0  0  0  0  0  0  0  0
    5.6000   -0.0550   30.9870 C   0  0  0  0  0  0  0  0  0  0  0  0
    4.8520   -0.2120   32.2330 C   0  0  0  0  0  0  0  0  0  0  0  0
    3.7330   -0.9740   32.4300 C   0  0  0  0  0  0  0  0  0  0  0  0
    2.9750   -1.1740   33.5670 C   0  0  0  0  0  0  0  0  0  0  0  0
    3.6410   -1.9480   34.4620 F   0  0  0  0  0  0  0  0  0  0  0  0
    2.7300    0.0540   34.1400 F   0  0  0  0  0  0  0  0  0  0  0  0
    1.7360   -1.7180   33.2300 F   0  0  0  0  0  0  0  0  0  0  0  0
    3.3290   -1.6740   31.1640 C   0  0  0  0  0  0  0  0  0  0  0  0
    4.0960   -1.5000   29.9280 C   0  0  0  0  0  0  0  0  0  0  0  0
    7.2450   -1.2010   28.2760 C   0  0  0  0  0  0  0  0  0  0  0  0
    7.7190   -0.3800   29.2600 O   0  0  0  0  0  0  0  0  0  0  0  0
    5.7180   -4.8200   23.6150 C   0  0  0  0  0  0  0  0  0  0  0  0
    6.4250   -5.3900   22.4280 C   0  0  0  0  0  0  0  0  0  0  0  0
  1  2  1  0
  2  3  2  0
  2  4  1  0
  4  5  1  0
  5  6  1  0
  6  7  1  0
  7  8  1  0
  8  9  2  0
  8 10  1  0
 11 10  1  6
 11 12  1  0
 12 13  1  0
 13 14  1  0
 14 15  1  0
 15 16  2  0
 16 17  1  0
 17 18  2  0
 18 19  1  0
 19 20  1  0
 19 21  1  0
 19 22  1  0
 18 23  1  0
 15 24  1  0
 23 24  2  0
 11 25  1  0
 14 25  1  0
 25 26  2  0
  7 27  1  0
  4 28  1  0
 27 28  1  0
M  END
