piperidine-amides-15106-covalent
     RDKit          3D

 19 19  0  0  0  0  0  0  0  0999 V2000
    7.0900   -3.2840   19.2280 C   0  0  0  0  0  0  0  0  0  0  0  0
    6.3660   -4.0570   20.2390 C   0  0  0  0  0  0  0  0  0  0  0  0
    5.2960   -4.5840   19.8980 O   0  0  0  0  0  0  0  0  0  0  0  0
    6.9010   -4.2490   21.5390 N   0  0  0  0  0  0  0  0  0  0  0  0
    7.6500   -3.1870   22.1510 C   0  0  0  0  0  0  0  0  0  0  0  0
    6.8770   -2.6400   23.3140 C   0  0  0  0  0  0  0  0  0  0  0  0
    6.5450   -3.8160   24.2050 C   0  0  0  0  0  0  0  0  0  0  0  0
    5.7850   -3.3280   25.4060 C   0  0  0  0  0  0  0  0  0  0  0  0
    4.6010   -3.0530   25.2230 O   0  0  0  0  0  0  0  0  0  0  0  0
    6.4550   -3.2140   26.6220 N   0  0  0  0  0  0  0  0  0  0  0  0
    5.9140   -3.7070   27.8540 C   0  0  0  0  0  0  0  0  0  0  0  0
    6.4620   -4.9040   28.3440 C   0  0  0  0  0  0  0  0  0  0  0  0
    5.7250   -6.0180   29.3870 S   0  0  0  0  0  0  0  0  0  0  0  0
    3.7020   -6.1410   29.4260 S   0  0  0  0  0  0  0  0  0  0  0  0
    3.4100   -7.8310   29.0940 C   0  0  0  0  0  0  0  0  0  0  0  0
    3.3210   -5.2000   28.3380 O   0  0  0  0  0  0  0  0  0  0  0  0
    2.8930   -5.7740   30.5970 O   0  0  0  0  0  0  0  0  0  0  0  0
    5.8070   -4.9190   23.5270 C   0  0  0  0  0  0  0  0  0  0  0  0
    6.4980   -5.4140   22.2990 C   0  0  0  0  0  0  0  0  0  0  0  0
  1  2  1  0
  2  3  2  0
  2  4  1  0
  4  5  1  0
  5  6  1  0
  6  7  1  0
  7  8  1  0
  8  9  2  0
  8 10  1  0
 10 11  1  0
 11 12  1  0
 12 13  1  0
 14 13  1  0
 14 15  1  0
 14 16  2  0
 14 17  2  0
  7 18  1  0
  4 19  1  0
 18 19  1  0
M  END
