piperidine-amides-12907-covalent
     RDKit          3D

 21 22  0  0  0  0  0  0  0  0999 V2000
    7.0760   -3.3270   19.2280 C   0  0  0  0  0  0  0  0  0  0  0  0
    6.3740   -4.1280   20.2540 C   0  0  0  0  0  0  0  0  0  0  0  0
    5.3050   -4.6680   19.9190 O   0  0  0  0  0  0  0  0  0  0  0  0
    6.9330   -4.3010   21.5200 N   0  0  0  0  0  0  0  0  0  0  0  0
    6.4810   -5.3610   22.3560 C   0  0  0  0  0  0  0  0  0  0  0  0
    5.8870   -4.9160   23.6260 C   0  0  0  0  0  0  0  0  0  0  0  0
    6.5610   -3.7470   24.2370 C   0  0  0  0  0  0  0  0  0  0  0  0
    5.8020   -3.2040   25.3890 C   0  0  0  0  0  0  0  0  0  0  0  0
    4.5640   -3.0970   25.2870 O   0  0  0  0  0  0  0  0  0  0  0  0
    6.4720   -2.8260   26.5650 N   0  0  0  0  0  0  0  0  0  0  0  0
    6.1010   -1.6680   27.4070 C   0  0  1  0  0  0  0  0  0  0  0  0
    7.0350   -1.4530   28.5160 C   0  0  0  0  0  0  0  0  0  0  0  0
    6.7210   -0.3510   29.3890 C   0  0  0  0  0  0  0  0  0  0  0  0
    6.0330    0.7350   28.8550 C   0  0  2  0  0  0  0  0  0  0  0  0
    4.8700    1.0810   29.5320 C   0  0  0  0  0  0  0  0  0  0  0  0
    5.1860    1.5340   30.7770 C   0  0  0  0  0  0  0  0  0  0  0  0
    4.0350   -0.1240   29.2420 C   0  0  0  0  0  0  0  0  0  0  0  0
    5.8740    0.7780   27.4450 C   0  0  0  0  0  0  0  0  0  0  0  0
    5.7840   -0.4170   26.6970 C   0  0  0  0  0  0  0  0  0  0  0  0
    6.9640   -2.6830   23.3050 C   0  0  0  0  0  0  0  0  0  0  0  0
    7.7220   -3.2520   22.1500 C   0  0  0  0  0  0  0  0  0  0  0  0
  1  2  1  0
  2  3  2  0
  2  4  1  0
  4  5  1  0
  5  6  1  0
  6  7  1  0
  7  8  1  0
  8  9  2  0
  8 10  1  0
 11 10  1  6
 11 12  1  0
 12 13  1  0
 13 14  1  0
 14 15  1  1
 15 16  1  0
 15 17  1  0
 14 18  1  0
 11 19  1  0
 18 19  1  0
  7 20  1  0
  4 21  1  0
 20 21  1  0
M  END
