piperidine-amides-34052-covalent
     RDKit          3D

 29 30  0  0  0  0  0  0  0  0999 V2000
    7.0130   -3.3450   19.3940 C   0  0  0  0  0  0  0  0  0  0  0  0
    6.3390   -4.2390   20.3510 C   0  0  0  0  0  0  0  0  0  0  0  0
    5.3600   -4.9190   19.9850 O   0  0  0  0  0  0  0  0  0  0  0  0
    6.8060   -4.3700   21.6680 N   0  0  0  0  0  0  0  0  0  0  0  0
    6.6650   -5.6440   22.3520 C   0  0  0  0  0  0  0  0  0  0  0  0
    6.0360   -5.3990   23.7390 C   0  0  0  0  0  0  0  0  0  0  0  0
    5.8450   -3.9110   23.8620 C   0  0  0  0  0  0  0  0  0  0  0  0
    5.2310   -3.4670   25.1460 C   0  0  0  0  0  0  0  0  0  0  0  0
    4.4790   -2.4800   25.0850 O   0  0  0  0  0  0  0  0  0  0  0  0
    5.4590   -4.1070   26.4000 N   0  0  0  0  0  0  0  0  0  0  0  0
    6.8180   -4.2080   26.7680 C   0  0  0  0  0  0  0  0  0  0  0  0
    6.8680   -4.9770   28.0370 C   0  0  0  0  0  0  0  0  0  0  0  0
    5.7190   -4.7010   28.6180 C   0  0  0  0  0  0  0  0  0  0  0  0
    5.0000   -3.8430   27.8020 C   0  0  1  0  0  0  0  0  0  0  0  0
    5.3110   -2.4710   27.8770 C   0  0  0  0  0  0  0  0  0  0  0  0
    4.5350   -2.0760   28.9080 N   0  0  0  0  0  0  0  0  0  0  0  0
    4.5730   -0.7030   29.3290 C   0  0  0  0  0  0  0  0  0  0  0  0
    4.6550   -0.4130   30.6480 O   0  0  0  0  0  0  0  0  0  0  0  0
    4.5390    0.3410   28.4240 O   0  0  0  0  0  0  0  0  0  0  0  0
    3.8390    1.5490   28.6850 C   0  0  0  0  0  0  0  0  0  0  0  0
    3.0320    2.0220   27.4990 C   0  0  0  0  0  0  0  0  0  0  0  0
    3.4340    1.9270   30.0430 C   0  0  0  0  0  0  0  0  0  0  0  0
    4.5130    2.6490   29.3210 C   0  0  0  0  0  0  0  0  0  0  0  0
    3.6600   -4.1840   27.8460 C   0  0  0  0  0  0  0  0  0  0  0  0
    3.1890   -4.2640   29.1270 F   0  0  0  0  0  0  0  0  0  0  0  0
    3.3800   -5.3410   27.1710 F   0  0  0  0  0  0  0  0  0  0  0  0
    2.9530   -3.1690   27.2310 F   0  0  0  0  0  0  0  0  0  0  0  0
    7.2230   -3.3010   23.7340 C   0  0  0  0  0  0  0  0  0  0  0  0
    7.5820   -3.3070   22.2750 C   0  0  0  0  0  0  0  0  0  0  0  0
  1  2  1  0
  2  3  2  0
  2  4  1  0
  4  5  1  0
  5  6  1  0
  6  7  1  0
  7  8  1  0
  8  9  2  0
  8 10  1  0
 10 11  1  0
 11 12  1  0
 12 13  1  0
 10 14  1  0
 13 14  1  0
 14 15  1  1
 15 16  1  0
 16 17  1  0
 17 18  2  0
 17 19  1  0
 20 19  1  0
 20 21  1  0
 20 22  1  0
 20 23  1  0
 14 24  1  0
 24 25  1  0
 24 26  1  0
 24 27  1  0
  7 28  1  0
  4 29  1  0
 28 29  1  0
M  END
