piperidine-amides-10314-covalent
     RDKit          3D

 24 26  0  0  0  0  0  0  0  0999 V2000
    7.1160   -3.3400   19.2890 C   0  0  0  0  0  0  0  0  0  0  0  0
    6.4020   -4.1310   20.2890 C   0  0  0  0  0  0  0  0  0  0  0  0
    5.3130   -4.6430   19.9250 O   0  0  0  0  0  0  0  0  0  0  0  0
    6.9700   -4.3310   21.5470 N   0  0  0  0  0  0  0  0  0  0  0  0
    7.7630   -3.3170   22.2010 C   0  0  0  0  0  0  0  0  0  0  0  0
    6.9700   -2.7900   23.3510 C   0  0  0  0  0  0  0  0  0  0  0  0
    6.4060   -3.8980   24.1940 C   0  0  0  0  0  0  0  0  0  0  0  0
    5.5740   -3.3130   25.2550 C   0  0  0  0  0  0  0  0  0  0  0  0
    4.4250   -2.9300   24.9570 O   0  0  0  0  0  0  0  0  0  0  0  0
    6.0080   -3.1740   26.5740 N   0  0  0  0  0  0  0  0  0  0  0  0
    6.5630   -1.9470   27.0780 C   0  0  1  0  0  0  0  0  0  0  0  0
    5.6740   -0.7180   26.8940 C   0  0  0  0  0  0  0  0  0  0  0  0
    5.8890    0.4720   27.5580 C   0  0  0  0  0  0  0  0  0  0  0  0
    5.4760    1.7350   27.1450 C   0  0  0  0  0  0  0  0  0  0  0  0
    5.7560    2.8700   27.9120 C   0  0  0  0  0  0  0  0  0  0  0  0
    6.4510    2.7960   29.1080 C   0  0  0  0  0  0  0  0  0  0  0  0
    6.8670    4.3210   30.1980 Br  0  0  0  0  0  0  0  0  0  0  0  0
    6.8640    1.5630   29.5300 C   0  0  0  0  0  0  0  0  0  0  0  0
    6.5880    0.3430   28.7500 C   0  0  0  0  0  0  0  0  0  0  0  0
    7.0620   -0.8890   29.2770 N   0  0  0  0  0  0  0  0  0  0  0  0
    6.7640   -2.0110   28.5160 C   0  0  0  0  0  0  0  0  0  0  0  0
    6.6140   -3.1370   29.0510 O   0  0  0  0  0  0  0  0  0  0  0  0
    5.6100   -4.9240   23.3740 C   0  0  0  0  0  0  0  0  0  0  0  0
    6.5670   -5.4770   22.3400 C   0  0  0  0  0  0  0  0  0  0  0  0
  1  2  1  0
  2  3  2  0
  2  4  1  0
  4  5  1  0
  5  6  1  0
  6  7  1  0
  7  8  1  0
  8  9  2  0
  8 10  1  0
 11 10  1  1
 11 12  1  0
 12 13  1  0
 13 14  2  0
 14 15  1  0
 15 16  2  0
 16 17  1  0
 16 18  1  0
 13 19  1  0
 18 19  2  0
 19 20  1  0
 11 21  1  0
 20 21  1  0
 21 22  2  0
  7 23  1  0
  4 24  1  0
 23 24  1  0
M  END
