piperidine-amides-9183-covalent
     RDKit          3D

 20 20  0  0  0  0  0  0  0  0999 V2000
    7.1100   -3.2480   19.1950 C   0  0  0  0  0  0  0  0  0  0  0  0
    6.3080   -3.9750   20.1860 C   0  0  0  0  0  0  0  0  0  0  0  0
    5.2280   -4.4690   19.8420 O   0  0  0  0  0  0  0  0  0  0  0  0
    6.7480   -4.1890   21.4990 N   0  0  0  0  0  0  0  0  0  0  0  0
    6.5560   -5.4380   22.1790 C   0  0  0  0  0  0  0  0  0  0  0  0
    6.0530   -5.0900   23.5560 C   0  0  0  0  0  0  0  0  0  0  0  0
    5.7950   -3.6180   23.7730 C   0  0  0  0  0  0  0  0  0  0  0  0
    5.4390   -3.3170   25.1790 C   0  0  0  0  0  0  0  0  0  0  0  0
    4.3610   -2.7090   25.4460 O   0  0  0  0  0  0  0  0  0  0  0  0
    6.2440   -3.6700   26.2810 N   0  0  0  0  0  0  0  0  0  0  0  0
    7.0290   -4.9180   26.2670 C   0  0  2  0  0  0  0  0  0  0  0  0
    6.6490   -5.7120   27.4570 C   0  0  0  0  0  0  0  0  0  0  0  0
    5.3100   -6.3270   27.5300 C   0  0  0  0  0  0  0  0  0  0  0  0
    8.4800   -4.5870   26.3070 C   0  0  0  0  0  0  0  0  0  0  0  0
    8.7790   -4.3200   24.8580 C   0  0  0  0  0  0  0  0  0  0  0  0
    9.2270   -5.8720   26.7020 C   0  0  0  0  0  0  0  0  0  0  0  0
    8.7220   -3.7300   27.2980 O   0  0  0  0  0  0  0  0  0  0  0  0
    8.5720   -4.3340   28.5010 C   0  0  0  0  0  0  0  0  0  0  0  0
    6.9280   -2.7020   23.3570 C   0  0  0  0  0  0  0  0  0  0  0  0
    7.6340   -3.2420   22.1380 C   0  0  0  0  0  0  0  0  0  0  0  0
  1  2  1  0
  2  3  2  0
  2  4  1  0
  4  5  1  0
  5  6  1  0
  6  7  1  0
  7  8  1  0
  8  9  2  0
  8 10  1  0
 10 11  1  0
 11 12  1  1
 12 13  3  0
 11 14  1  0
 14 15  1  0
 14 16  1  0
 14 17  1  0
 17 18  1  0
  7 19  1  0
  4 20  1  0
 19 20  1  0
M  END
