piperidine-amides-4197-covalent
     RDKit          3D

 27 29  0  0  0  0  0  0  0  0999 V2000
    7.1240   -3.3240   19.2870 C   0  0  0  0  0  0  0  0  0  0  0  0
    6.3630   -4.0910   20.2800 C   0  0  0  0  0  0  0  0  0  0  0  0
    5.2840   -4.6070   19.9040 O   0  0  0  0  0  0  0  0  0  0  0  0
    6.8620   -4.2810   21.5830 N   0  0  0  0  0  0  0  0  0  0  0  0
    7.6140   -3.2100   22.1490 C   0  0  0  0  0  0  0  0  0  0  0  0
    7.2950   -2.8810   23.5270 C   0  0  0  0  0  0  0  0  0  0  0  0
    6.5310   -3.9090   24.2560 C   0  0  0  0  0  0  0  0  0  0  0  0
    5.7660   -3.2740   25.3790 C   0  0  0  0  0  0  0  0  0  0  0  0
    4.5460   -3.0590   25.2470 O   0  0  0  0  0  0  0  0  0  0  0  0
    6.3970   -2.9170   26.5900 N   0  0  0  0  0  0  0  0  0  0  0  0
    6.3840   -1.6760   27.2820 C   0  0  0  0  0  0  0  0  0  0  0  0
    5.7410   -0.4900   26.6940 C   0  0  0  0  0  0  0  0  0  0  0  0
    5.7430    0.8270   27.4930 C   0  0  0  0  0  0  0  0  0  0  0  0
    6.3540    0.8250   28.7220 C   0  0  0  0  0  0  0  0  0  0  0  0
    6.4080    1.9480   29.5320 O   0  0  0  0  0  0  0  0  0  0  0  0
    6.5440    3.1770   28.9010 C   0  0  0  0  0  0  0  0  0  0  0  0
    7.1860    3.1280   27.5430 C   0  0  0  0  0  0  0  0  0  0  0  0
    7.2500    4.5850   27.0110 C   0  0  0  0  0  0  0  0  0  0  0  0
    6.7960    5.8980   27.6250 C   0  0  0  0  0  0  0  0  0  0  0  0
    6.1690    5.7950   28.9880 C   0  0  0  0  0  0  0  0  0  0  0  0
    6.0580    4.4160   29.6000 C   0  0  0  0  0  0  0  0  0  0  0  0
    5.5180    4.4680   30.7380 O   0  0  0  0  0  0  0  0  0  0  0  0
    6.1960    4.9000   31.8950 C   0  0  0  0  0  0  0  0  0  0  0  0
    6.9680   -0.3980   29.2100 C   0  0  0  0  0  0  0  0  0  0  0  0
    6.9810   -1.5930   28.5200 C   0  0  0  0  0  0  0  0  0  0  0  0
    5.6120   -4.6870   23.3760 C   0  0  0  0  0  0  0  0  0  0  0  0
    6.3840   -5.3410   22.4260 C   0  0  0  0  0  0  0  0  0  0  0  0
  1  2  1  0
  2  3  2  0
  2  4  1  0
  4  5  1  0
  5  6  1  0
  6  7  1  0
  7  8  1  0
  8  9  2  0
  8 10  1  0
 10 11  1  0
 11 12  2  0
 12 13  1  0
 13 14  2  0
 14 15  1  0
 15 16  1  0
 16 17  2  0
 17 18  1  0
 18 19  2  0
 19 20  1  0
 16 21  1  0
 20 21  2  0
 21 22  1  0
 22 23  1  0
 14 24  1  0
 11 25  1  0
 24 25  2  0
  7 26  1  0
  4 27  1  0
 26 27  1  0
M  END
