piperidine-amides-14597-covalent
     RDKit          3D

 23 25  0  0  0  0  0  0  0  0999 V2000
    7.1010   -3.2950   19.2470 C   0  0  0  0  0  0  0  0  0  0  0  0
    6.3940   -4.0940   20.2480 C   0  0  0  0  0  0  0  0  0  0  0  0
    5.3210   -4.6280   19.9150 O   0  0  0  0  0  0  0  0  0  0  0  0
    6.9550   -4.2880   21.5370 N   0  0  0  0  0  0  0  0  0  0  0  0
    7.6710   -3.2070   22.1420 C   0  0  0  0  0  0  0  0  0  0  0  0
    6.9290   -2.7530   23.3610 C   0  0  0  0  0  0  0  0  0  0  0  0
    6.7900   -3.9510   24.2790 C   0  0  0  0  0  0  0  0  0  0  0  0
    6.1480   -3.5030   25.5530 C   0  0  0  0  0  0  0  0  0  0  0  0
    4.9160   -3.4420   25.5460 O   0  0  0  0  0  0  0  0  0  0  0  0
    6.9770   -3.1720   26.6340 N   0  0  0  0  0  0  0  0  0  0  0  0
    7.7430   -4.1110   27.3970 C   0  0  2  0  0  0  0  0  0  0  0  0
    8.5350   -5.0260   26.6760 C   0  0  0  0  0  0  0  0  0  0  0  0
    6.8220   -4.9730   28.1610 C   0  0  0  0  0  0  0  0  0  0  0  0
    7.0660   -6.2620   28.5830 C   0  0  0  0  0  0  0  0  0  0  0  0
    5.7270   -6.9600   29.4680 S   0  0  0  0  0  0  0  0  0  0  0  0
    4.7470   -5.4670   29.2930 C   0  0  0  0  0  0  0  0  0  0  0  0
    3.3180   -5.3390   29.8810 C   0  0  0  0  0  0  0  0  0  0  0  0
    2.6450   -4.0280   29.6470 C   0  0  0  0  0  0  0  0  0  0  0  0
    3.3630   -2.9430   28.8810 C   0  0  0  0  0  0  0  0  0  0  0  0
    4.7900   -3.1700   28.3340 C   0  0  0  0  0  0  0  0  0  0  0  0
    5.4570   -4.3490   28.5180 C   0  0  0  0  0  0  0  0  0  0  0  0
    5.8800   -4.9310   23.5980 C   0  0  0  0  0  0  0  0  0  0  0  0
    6.4510   -5.4060   22.2900 C   0  0  0  0  0  0  0  0  0  0  0  0
  1  2  1  0
  2  3  2  0
  2  4  1  0
  4  5  1  0
  5  6  1  0
  6  7  1  0
  7  8  1  0
  8  9  2  0
  8 10  1  0
 10 11  1  0
 11 12  1  6
 11 13  1  0
 13 14  2  0
 14 15  1  0
 15 16  1  0
 16 17  1  0
 17 18  2  0
 18 19  1  0
 19 20  2  0
 13 21  1  0
 16 21  2  0
 20 21  1  0
  7 22  1  0
  4 23  1  0
 22 23  1  0
M  END
