piperidine-amides-13745-covalent
     RDKit          3D

 27 29  0  0  0  0  0  0  0  0999 V2000
    7.1790   -3.2990   19.1690 C   0  0  0  0  0  0  0  0  0  0  0  0
    6.3710   -4.0380   20.1740 C   0  0  0  0  0  0  0  0  0  0  0  0
    5.2640   -4.5040   19.8590 O   0  0  0  0  0  0  0  0  0  0  0  0
    6.9310   -4.2370   21.4430 N   0  0  0  0  0  0  0  0  0  0  0  0
    7.7840   -3.2560   22.0720 C   0  0  0  0  0  0  0  0  0  0  0  0
    6.9460   -2.6220   23.1680 C   0  0  0  0  0  0  0  0  0  0  0  0
    6.5780   -3.7200   24.0910 C   0  0  0  0  0  0  0  0  0  0  0  0
    5.7230   -3.2350   25.1740 C   0  0  0  0  0  0  0  0  0  0  0  0
    4.5380   -3.0140   24.8940 O   0  0  0  0  0  0  0  0  0  0  0  0
    6.2620   -3.0450   26.4290 N   0  0  0  0  0  0  0  0  0  0  0  0
    5.7460   -3.5650   27.6210 C   0  0  1  0  0  0  0  0  0  0  0  0
    6.5760   -3.7960   28.6530 C   0  0  0  0  0  0  0  0  0  0  0  0
    7.1010   -2.5570   29.2000 O   0  0  0  0  0  0  0  0  0  0  0  0
    6.7800   -5.1840   29.0200 N   0  0  0  0  0  0  0  0  0  0  0  0
    5.8060   -5.9350   29.6550 C   0  0  0  0  0  0  0  0  0  0  0  0
    4.5880   -5.5630   30.0740 C   0  0  0  0  0  0  0  0  0  0  0  0
    4.0200   -6.7550   30.6660 C   0  0  0  0  0  0  0  0  0  0  0  0
    4.9350   -7.7400   30.5550 N   0  0  0  0  0  0  0  0  0  0  0  0
    6.0240   -7.2500   29.9410 N   0  0  0  0  0  0  0  0  0  0  0  0
    4.5800   -2.8800   28.0030 C   0  0  0  0  0  0  0  0  0  0  0  0
    3.2030   -3.5130   28.0080 C   0  0  0  0  0  0  0  0  0  0  0  0
    2.1120   -2.7820   28.3920 C   0  0  0  0  0  0  0  0  0  0  0  0
    2.0540   -1.3670   28.8380 C   0  0  0  0  0  0  0  0  0  0  0  0
    3.4900   -0.8210   28.7970 C   0  0  0  0  0  0  0  0  0  0  0  0
    4.6570   -1.4700   28.4270 C   0  0  0  0  0  0  0  0  0  0  0  0
    5.8650   -4.8950   23.4910 C   0  0  0  0  0  0  0  0  0  0  0  0
    6.5310   -5.3850   22.2310 C   0  0  0  0  0  0  0  0  0  0  0  0
  1  2  1  0
  2  3  2  0
  2  4  1  0
  4  5  1  0
  5  6  1  0
  6  7  1  0
  7  8  1  0
  8  9  2  0
  8 10  1  0
 11 10  1  6
 11 12  1  0
 12 13  2  0
 12 14  1  0
 14 15  1  0
 15 16  1  0
 16 17  2  0
 17 18  1  0
 15 19  2  0
 18 19  1  0
 11 20  1  0
 20 21  2  0
 21 22  1  0
 22 23  2  0
 23 24  1  0
 20 25  1  0
 24 25  2  0
  7 26  1  0
  4 27  1  0
 26 27  1  0
M  END
