piperidine-amides-2731-covalent
     RDKit          3D

 25 27  0  0  0  0  0  0  0  0999 V2000
    7.0470   -3.3190   19.3400 C   0  0  0  0  0  0  0  0  0  0  0  0
    6.3500   -4.1490   20.3200 C   0  0  0  0  0  0  0  0  0  0  0  0
    5.3780   -4.8210   19.9770 O   0  0  0  0  0  0  0  0  0  0  0  0
    6.8210   -4.2110   21.6780 N   0  0  0  0  0  0  0  0  0  0  0  0
    6.6270   -5.4160   22.4570 C   0  0  0  0  0  0  0  0  0  0  0  0
    6.0170   -5.0900   23.7950 C   0  0  0  0  0  0  0  0  0  0  0  0
    6.0060   -3.5780   23.9510 C   0  0  0  0  0  0  0  0  0  0  0  0
    5.5870   -3.1880   25.3220 C   0  0  0  0  0  0  0  0  0  0  0  0
    4.3920   -3.1690   25.6720 O   0  0  0  0  0  0  0  0  0  0  0  0
    6.5870   -2.8290   26.2510 N   0  0  0  0  0  0  0  0  0  0  0  0
    6.4570   -1.5990   27.0080 C   0  0  0  0  0  0  0  0  0  0  0  0
    7.0140   -1.6450   28.3850 C   0  0  0  0  0  0  0  0  0  0  0  0
    6.9360   -0.5210   29.1680 C   0  0  0  0  0  0  0  0  0  0  0  0
    6.3270    0.6380   28.6460 C   0  0  0  0  0  0  0  0  0  0  0  0
    5.7920    0.7060   27.3550 C   0  0  0  0  0  0  0  0  0  0  0  0
    5.1800    1.8990   26.8590 N   0  0  0  0  0  0  0  0  0  0  0  0
    3.8840    2.3300   27.3010 C   0  0  0  0  0  0  0  0  0  0  0  0
    4.1220    3.4850   28.0080 C   0  0  0  0  0  0  0  0  0  0  0  0
    5.0540    4.4070   27.5800 C   0  0  0  0  0  0  0  0  0  0  0  0
    5.3550    4.5170   26.2230 C   0  0  0  0  0  0  0  0  0  0  0  0
    6.1580    3.4520   25.6060 C   0  0  0  0  0  0  0  0  0  0  0  0
    5.5900    2.1920   25.5330 C   0  0  0  0  0  0  0  0  0  0  0  0
    5.8700   -0.4200   26.5560 C   0  0  0  0  0  0  0  0  0  0  0  0
    7.3750   -3.0100   23.6890 C   0  0  0  0  0  0  0  0  0  0  0  0
    7.6940   -3.1810   22.2030 C   0  0  0  0  0  0  0  0  0  0  0  0
  1  2  1  0
  2  3  2  0
  2  4  1  0
  4  5  1  0
  5  6  1  0
  6  7  1  0
  7  8  1  0
  8  9  2  0
  8 10  1  0
 10 11  1  0
 11 12  2  0
 12 13  1  0
 13 14  2  0
 14 15  1  0
 15 16  1  0
 16 17  1  0
 17 18  1  0
 18 19  1  0
 19 20  1  0
 20 21  1  0
 16 22  1  0
 21 22  1  0
 11 23  1  0
 15 23  2  0
  7 24  1  0
  4 25  1  0
 24 25  1  0
M  END
