piperidine-amides-12833-covalent
     RDKit          3D

 21 22  0  0  0  0  0  0  0  0999 V2000
    7.0490   -3.3230   19.3220 C   0  0  0  0  0  0  0  0  0  0  0  0
    6.3770   -4.1580   20.3460 C   0  0  0  0  0  0  0  0  0  0  0  0
    5.3860   -4.8160   19.9720 O   0  0  0  0  0  0  0  0  0  0  0  0
    6.8710   -4.2210   21.6560 N   0  0  0  0  0  0  0  0  0  0  0  0
    6.6470   -5.3940   22.4250 C   0  0  0  0  0  0  0  0  0  0  0  0
    6.0910   -5.0840   23.7330 C   0  0  0  0  0  0  0  0  0  0  0  0
    6.0860   -3.6310   24.0000 C   0  0  0  0  0  0  0  0  0  0  0  0
    5.6390   -3.3220   25.3830 C   0  0  0  0  0  0  0  0  0  0  0  0
    4.4180   -3.3920   25.6360 O   0  0  0  0  0  0  0  0  0  0  0  0
    6.5430   -2.9370   26.3870 N   0  0  0  0  0  0  0  0  0  0  0  0
    6.4680   -1.6300   27.0760 C   0  0  0  0  0  0  0  0  0  0  0  0
    7.0350   -1.6220   28.4470 C   0  0  0  0  0  0  0  0  0  0  0  0
    7.0280   -0.4210   29.2530 C   0  0  0  0  0  0  0  0  0  0  0  0
    6.4730    0.7020   28.6840 C   0  0  0  0  0  0  0  0  0  0  0  0
    5.9470    0.6740   27.3950 C   0  0  0  0  0  0  0  0  0  0  0  0
    5.3860    1.7380   26.7670 C   0  0  0  0  0  0  0  0  0  0  0  0
    6.3580    2.6550   26.4940 C   0  0  0  0  0  0  0  0  0  0  0  0
    5.8960    3.9580   26.2360 F   0  0  0  0  0  0  0  0  0  0  0  0
    5.9220   -0.4320   26.5730 C   0  0  0  0  0  0  0  0  0  0  0  0
    7.4340   -3.0430   23.6840 C   0  0  0  0  0  0  0  0  0  0  0  0
    7.6950   -3.1540   22.2220 C   0  0  0  0  0  0  0  0  0  0  0  0
  1  2  1  0
  2  3  2  0
  2  4  1  0
  4  5  1  0
  5  6  1  0
  6  7  1  0
  7  8  1  0
  8  9  2  0
  8 10  1  0
 10 11  1  0
 11 12  2  0
 12 13  1  0
 13 14  2  0
 14 15  1  0
 15 16  1  0
 16 17  1  0
 17 18  1  0
 11 19  1  0
 15 19  2  0
  7 20  1  0
  4 21  1  0
 20 21  1  0
M  END
