piperidine-amides-24160-covalent
     RDKit          3D

 24 25  0  0  0  0  0  0  0  0999 V2000
    7.1060   -3.2780   19.2550 C   0  0  0  0  0  0  0  0  0  0  0  0
    6.3830   -4.0850   20.2490 C   0  0  0  0  0  0  0  0  0  0  0  0
    5.3390   -4.7010   19.9340 O   0  0  0  0  0  0  0  0  0  0  0  0
    6.8800   -4.2100   21.5500 N   0  0  0  0  0  0  0  0  0  0  0  0
    7.7070   -3.1380   22.0710 C   0  0  0  0  0  0  0  0  0  0  0  0
    7.3880   -3.0210   23.5570 C   0  0  0  0  0  0  0  0  0  0  0  0
    5.9610   -3.4900   23.7030 C   0  0  0  0  0  0  0  0  0  0  0  0
    5.3950   -3.1410   25.0220 C   0  0  0  0  0  0  0  0  0  0  0  0
    4.3040   -3.6530   25.3480 O   0  0  0  0  0  0  0  0  0  0  0  0
    6.0590   -2.2360   25.8780 N   0  0  0  0  0  0  0  0  0  0  0  0
    6.7200   -1.0830   25.3710 C   0  0  0  0  0  0  0  0  0  0  0  0
    5.6760   -2.1840   27.2540 C   0  0  0  0  0  0  0  0  0  0  0  0
    6.8490   -2.3150   27.8670 C   0  0  0  0  0  0  0  0  0  0  0  0
    7.5230   -3.3600   27.4330 C   0  0  0  0  0  0  0  0  0  0  0  0
    8.2460   -3.4240   26.2930 C   0  0  0  0  0  0  0  0  0  0  0  0
    8.9210   -4.5570   25.9450 C   0  0  0  0  0  0  0  0  0  0  0  0
    9.1040   -5.9420   26.5670 C   0  0  0  0  0  0  0  0  0  0  0  0
    9.7060   -6.9430   26.2870 O   0  0  0  0  0  0  0  0  0  0  0  0
    8.2050   -5.6900   27.7870 C   0  0  0  0  0  0  0  0  0  0  0  0
    7.9690   -6.5640   28.6520 O   0  0  0  0  0  0  0  0  0  0  0  0
    6.6280   -6.6910   29.1080 C   0  0  0  0  0  0  0  0  0  0  0  0
    7.4910   -4.4480   28.1490 C   0  0  0  0  0  0  0  0  0  0  0  0
    5.9270   -4.9810   23.5300 C   0  0  0  0  0  0  0  0  0  0  0  0
    6.4870   -5.3330   22.3350 C   0  0  0  0  0  0  0  0  0  0  0  0
  1  2  1  0
  2  3  2  0
  2  4  1  0
  4  5  1  0
  5  6  1  0
  6  7  1  0
  7  8  1  0
  8  9  2  0
  8 10  1  0
 10 11  1  0
 10 12  1  0
 12 13  1  0
 13 14  1  0
 14 15  2  0
 15 16  1  0
 16 17  2  0
 17 18  1  0
 17 19  1  0
 19 20  1  0
 20 21  1  0
 14 22  1  0
 19 22  2  0
  7 23  1  0
  4 24  1  0
 23 24  1  0
M  END
