piperidine-amides-11065-covalent
     RDKit          3D

 21 22  0  0  0  0  0  0  0  0999 V2000
    7.1250   -3.2740   19.2180 C   0  0  0  0  0  0  0  0  0  0  0  0
    6.3560   -4.0230   20.2160 C   0  0  0  0  0  0  0  0  0  0  0  0
    5.2800   -4.5390   19.8820 O   0  0  0  0  0  0  0  0  0  0  0  0
    6.8270   -4.2300   21.5220 N   0  0  0  0  0  0  0  0  0  0  0  0
    6.5380   -5.4340   22.2600 C   0  0  0  0  0  0  0  0  0  0  0  0
    5.8100   -4.9770   23.4970 C   0  0  0  0  0  0  0  0  0  0  0  0
    6.5430   -3.8750   24.2100 C   0  0  0  0  0  0  0  0  0  0  0  0
    5.8240   -3.3760   25.4010 C   0  0  0  0  0  0  0  0  0  0  0  0
    4.5560   -3.3150   25.4140 O   0  0  0  0  0  0  0  0  0  0  0  0
    6.4980   -2.9390   26.5570 N   0  0  0  0  0  0  0  0  0  0  0  0
    6.2000   -3.5050   27.8900 C   0  0  0  0  0  0  0  0  0  0  0  0
    5.7120   -4.9020   27.7760 C   0  0  0  0  0  0  0  0  0  0  0  0
    5.3250   -5.5600   29.0280 C   0  0  0  0  0  0  0  0  0  0  0  0
    6.2290   -6.6880   29.4670 C   0  0  0  0  0  0  0  0  0  0  0  0
    5.8770   -7.4110   30.7730 C   0  0  0  0  0  0  0  0  0  0  0  0
    4.6620   -6.9050   31.4680 C   0  0  0  0  0  0  0  0  0  0  0  0
    4.2040   -7.4320   32.6420 O   0  0  0  0  0  0  0  0  0  0  0  0
    3.9520   -5.8770   30.9460 C   0  0  0  0  0  0  0  0  0  0  0  0
    4.2400   -5.2100   29.7800 C   0  0  0  0  0  0  0  0  0  0  0  0
    6.8440   -2.6650   23.3170 C   0  0  0  0  0  0  0  0  0  0  0  0
    7.6460   -3.2080   22.1370 C   0  0  0  0  0  0  0  0  0  0  0  0
  1  2  1  0
  2  3  2  0
  2  4  1  0
  4  5  1  0
  5  6  1  0
  6  7  1  0
  7  8  1  0
  8  9  2  0
  8 10  1  0
 10 11  1  0
 11 12  1  0
 12 13  1  0
 13 14  2  0
 14 15  1  0
 15 16  2  0
 16 17  1  0
 16 18  1  0
 13 19  1  0
 18 19  2  0
  7 20  1  0
  4 21  1  0
 20 21  1  0
M  END
