piperidine-amides-14951-covalent
     RDKit          3D

 21 22  0  0  0  0  0  0  0  0999 V2000
    7.0480   -3.3320   19.3230 C   0  0  0  0  0  0  0  0  0  0  0  0
    6.3780   -4.1690   20.3180 C   0  0  0  0  0  0  0  0  0  0  0  0
    5.3620   -4.7940   19.9660 O   0  0  0  0  0  0  0  0  0  0  0  0
    6.9080   -4.2980   21.6300 N   0  0  0  0  0  0  0  0  0  0  0  0
    6.5350   -5.4550   22.4010 C   0  0  0  0  0  0  0  0  0  0  0  0
    6.1870   -5.1160   23.8410 C   0  0  0  0  0  0  0  0  0  0  0  0
    6.0820   -3.6090   24.0200 C   0  0  0  0  0  0  0  0  0  0  0  0
    5.6460   -3.2520   25.4070 C   0  0  0  0  0  0  0  0  0  0  0  0
    4.4530   -3.4000   25.6630 O   0  0  0  0  0  0  0  0  0  0  0  0
    6.6210   -2.7830   26.2780 N   0  0  0  0  0  0  0  0  0  0  0  0
    6.5060   -1.5820   27.0480 C   0  0  0  0  0  0  0  0  0  0  0  0
    6.9770   -1.4440   28.3560 C   0  0  0  0  0  0  0  0  0  0  0  0
    6.8510   -0.2600   29.0800 C   0  0  0  0  0  0  0  0  0  0  0  0
    7.5260   -0.1810   30.8590 Br  0  0  0  0  0  0  0  0  0  0  0  0
    6.2520    0.9090   28.5900 C   0  0  0  0  0  0  0  0  0  0  0  0
    5.7310    0.8120   27.1910 C   0  0  0  0  0  0  0  0  0  0  0  0
    5.8620   -0.4790   26.3920 C   0  0  0  0  0  0  0  0  0  0  0  0
    5.3760   -0.4010   25.2410 O   0  0  0  0  0  0  0  0  0  0  0  0
    4.1180   -0.9340   25.1500 C   0  0  0  0  0  0  0  0  0  0  0  0
    7.3450   -2.9540   23.6250 C   0  0  0  0  0  0  0  0  0  0  0  0
    7.6940   -3.2120   22.1630 C   0  0  0  0  0  0  0  0  0  0  0  0
  1  2  1  0
  2  3  2  0
  2  4  1  0
  4  5  1  0
  5  6  1  0
  6  7  1  0
  7  8  1  0
  8  9  2  0
  8 10  1  0
 10 11  1  0
 11 12  2  0
 12 13  1  0
 13 14  1  0
 13 15  2  0
 15 16  1  0
 11 17  1  0
 16 17  2  0
 17 18  1  0
 18 19  1  0
  7 20  1  0
  4 21  1  0
 20 21  1  0
M  END
