piperidine-amides-13607-covalent
     RDKit          3D

 28 30  0  0  0  0  0  0  0  0999 V2000
    7.1340   -3.2140   19.1630 C   0  0  0  0  0  0  0  0  0  0  0  0
    6.3870   -3.9640   20.2110 C   0  0  0  0  0  0  0  0  0  0  0  0
    5.3360   -4.5530   19.8990 O   0  0  0  0  0  0  0  0  0  0  0  0
    6.9190   -4.0210   21.5170 N   0  0  0  0  0  0  0  0  0  0  0  0
    7.7860   -3.0120   22.0670 C   0  0  0  0  0  0  0  0  0  0  0  0
    7.7480   -3.2040   23.5860 C   0  0  0  0  0  0  0  0  0  0  0  0
    6.3080   -3.2820   23.9770 C   0  0  0  0  0  0  0  0  0  0  0  0
    6.0480   -3.1410   25.4390 C   0  0  0  0  0  0  0  0  0  0  0  0
    4.8760   -2.8730   25.7450 O   0  0  0  0  0  0  0  0  0  0  0  0
    7.0840   -3.2960   26.3930 N   0  0  0  0  0  0  0  0  0  0  0  0
    6.9520   -3.7370   27.7560 C   0  0  0  0  0  0  0  0  0  0  0  0
    6.9970   -5.0540   28.2040 C   0  0  0  0  0  0  0  0  0  0  0  0
    5.8550   -5.7100   28.7600 C   0  0  0  0  0  0  0  0  0  0  0  0
    5.9330   -6.4720   29.8880 C   0  0  0  0  0  0  0  0  0  0  0  0
    4.7850   -7.1670   30.4980 C   0  0  0  0  0  0  0  0  0  0  0  0
    3.3990   -7.0740   29.8840 C   0  0  0  0  0  0  0  0  0  0  0  0
    3.3990   -6.2120   28.6240 C   0  0  0  0  0  0  0  0  0  0  0  0
    4.5940   -5.6410   28.2090 C   0  0  0  0  0  0  0  0  0  0  0  0
    4.5330   -4.9150   27.0710 O   0  0  0  0  0  0  0  0  0  0  0  0
    5.1300   -5.6500   26.0580 C   0  0  0  0  0  0  0  0  0  0  0  0
    6.6220   -5.5490   25.8480 C   0  0  0  0  0  0  0  0  0  0  0  0
    7.5420   -6.1280   24.9850 C   0  0  0  0  0  0  0  0  0  0  0  0
    6.5580   -7.0380   24.1590 C   0  0  0  0  0  0  0  0  0  0  0  0
    7.2510   -7.8370   23.1070 C   0  0  0  0  0  0  0  0  0  0  0  0
    5.1750   -7.1910   24.2780 C   0  0  0  0  0  0  0  0  0  0  0  0
    4.4500   -6.4570   25.2780 C   0  0  0  0  0  0  0  0  0  0  0  0
    5.5770   -4.4620   23.3360 C   0  0  0  0  0  0  0  0  0  0  0  0
    6.4400   -5.0250   22.4350 C   0  0  0  0  0  0  0  0  0  0  0  0
  1  2  1  0
  2  3  2  0
  2  4  1  0
  4  5  1  0
  5  6  1  0
  6  7  1  0
  7  8  1  0
  8  9  2  0
  8 10  1  0
 10 11  1  0
 11 12  1  0
 12 13  1  0
 13 14  2  0
 14 15  1  0
 15 16  2  0
 16 17  1  0
 13 18  1  0
 17 18  2  0
 18 19  1  0
 19 20  1  0
 20 21  2  0
 21 22  1  0
 22 23  2  0
 23 24  1  0
 23 25  1  0
 20 26  1  0
 25 26  2  0
  7 27  1  0
  4 28  1  0
 27 28  1  0
M  END
