piperidine-amides-13299-covalent
     RDKit          3D

 30 33  0  0  0  0  0  0  0  0999 V2000
    7.0930   -3.3120   19.2180 C   0  0  0  0  0  0  0  0  0  0  0  0
    6.3700   -4.0960   20.2450 C   0  0  0  0  0  0  0  0  0  0  0  0
    5.2820   -4.5920   19.8970 O   0  0  0  0  0  0  0  0  0  0  0  0
    6.9150   -4.3170   21.5110 N   0  0  0  0  0  0  0  0  0  0  0  0
    7.6200   -3.2610   22.1650 C   0  0  0  0  0  0  0  0  0  0  0  0
    7.0710   -2.8610   23.4580 C   0  0  0  0  0  0  0  0  0  0  0  0
    6.4400   -3.9380   24.2530 C   0  0  0  0  0  0  0  0  0  0  0  0
    5.6780   -3.3730   25.3950 C   0  0  0  0  0  0  0  0  0  0  0  0
    4.4430   -3.2690   25.2710 O   0  0  0  0  0  0  0  0  0  0  0  0
    6.3120   -2.9560   26.5860 N   0  0  0  0  0  0  0  0  0  0  0  0
    6.6350   -1.5330   26.8660 C   0  0  2  0  0  0  0  0  0  0  0  0
    7.0660   -1.3170   28.2580 C   0  0  0  0  0  0  0  0  0  0  0  0
    6.5200   -0.1590   28.9310 C   0  0  2  0  0  0  0  0  0  0  0  0
    6.1150   -0.3010   30.2520 C   0  0  0  0  0  0  0  0  0  0  0  0
    5.1050   -1.2860   30.2680 N   0  0  0  0  0  0  0  0  0  0  0  0
    4.8020   -2.3100   29.2950 C   0  0  0  0  0  0  0  0  0  0  0  0
    3.7150   -3.0530   29.7460 C   0  0  0  0  0  0  0  0  0  0  0  0
    3.2720   -2.5480   31.0200 N   0  0  0  0  0  0  0  0  0  0  0  0
    4.1730   -1.4480   31.2960 C   0  0  0  0  0  0  0  0  0  0  0  0
    4.1190   -0.6710   32.4150 C   0  0  0  0  0  0  0  0  0  0  0  0
    4.1740   -1.2860   33.6780 C   0  0  0  0  0  0  0  0  0  0  0  0
    4.1260   -0.5610   34.9760 C   0  0  0  0  0  0  0  0  0  0  0  0
    4.0080    0.9390   34.8880 C   0  0  0  0  0  0  0  0  0  0  0  0
    3.9580    1.4600   33.4890 C   0  0  0  0  0  0  0  0  0  0  0  0
    4.0120    0.6910   32.3160 C   0  0  0  0  0  0  0  0  0  0  0  0
    5.4810    0.2920   27.9270 C   0  0  0  0  0  0  0  0  0  0  0  0
    5.4570   -0.6530   26.7490 C   0  0  1  0  0  0  0  0  0  0  0  0
    5.5190    0.0760   25.5400 O   0  0  0  0  0  0  0  0  0  0  0  0
    5.6380   -4.9240   23.4350 C   0  0  0  0  0  0  0  0  0  0  0  0
    6.4800   -5.4500   22.2960 C   0  0  0  0  0  0  0  0  0  0  0  0
  1  2  1  0
  2  3  2  0
  2  4  1  0
  4  5  1  0
  5  6  1  0
  6  7  1  0
  7  8  1  0
  8  9  2  0
  8 10  1  0
 11 10  1  1
 11 12  1  0
 12 13  1  0
 13 14  1  1
 14 15  1  0
 15 16  1  0
 16 17  2  0
 17 18  1  0
 15 19  1  0
 18 19  2  0
 19 20  1  0
 20 21  2  0
 21 22  1  0
 22 23  2  0
 23 24  1  0
 20 25  1  0
 24 25  2  0
 13 26  1  0
 11 27  1  0
 26 27  1  0
 27 28  1  6
  7 29  1  0
  4 30  1  0
 29 30  1  0
M  END
