piperidine-amides-25633-covalent
     RDKit          3D

 25 27  0  0  0  0  0  0  0  0999 V2000
    7.0530   -3.3080   19.2610 C   0  0  0  0  0  0  0  0  0  0  0  0
    6.3370   -4.1400   20.2620 C   0  0  0  0  0  0  0  0  0  0  0  0
    5.2810   -4.6550   19.9130 O   0  0  0  0  0  0  0  0  0  0  0  0
    6.8890   -4.3560   21.5190 N   0  0  0  0  0  0  0  0  0  0  0  0
    6.4970   -5.4970   22.2910 C   0  0  0  0  0  0  0  0  0  0  0  0
    5.5230   -5.0390   23.3360 C   0  0  0  0  0  0  0  0  0  0  0  0
    6.1990   -3.9700   24.1890 C   0  0  0  0  0  0  0  0  0  0  0  0
    5.3330   -3.6480   25.3510 C   0  0  0  0  0  0  0  0  0  0  0  0
    4.3500   -2.9020   25.2820 O   0  0  0  0  0  0  0  0  0  0  0  0
    5.7420   -4.2590   26.5270 N   0  0  0  0  0  0  0  0  0  0  0  0
    5.3720   -3.9220   27.9260 C   0  0  0  0  0  0  0  0  0  0  0  0
    6.6740   -4.2140   28.7180 C   0  0  1  0  0  0  0  0  0  0  0  0
    7.4980   -5.3040   28.6180 C   0  0  0  0  0  0  0  0  0  0  0  0
    7.7540   -4.1820   27.8020 C   0  0  0  0  0  0  0  0  0  0  0  0
    9.2470   -4.1170   27.4880 C   0  0  0  0  0  0  0  0  0  0  0  0
    9.8550   -4.0760   25.9080 C   0  0  0  0  0  0  0  0  0  0  0  0
   11.3160   -3.9630   25.6530 C   0  0  0  0  0  0  0  0  0  0  0  0
   12.2080   -4.6130   26.4110 O   0  0  0  0  0  0  0  0  0  0  0  0
   11.7730   -3.1500   24.6400 O   0  0  0  0  0  0  0  0  0  0  0  0
   13.1130   -2.6180   24.6780 C   0  0  0  0  0  0  0  0  0  0  0  0
    8.8970   -4.1320   24.8160 C   0  0  0  0  0  0  0  0  0  0  0  0
    8.1900   -4.1660   25.9420 C   0  0  0  0  0  0  0  0  0  0  0  0
    7.1290   -4.2120   26.7280 C   0  0  0  0  0  0  0  0  0  0  0  0
    6.5730   -2.7700   23.3430 C   0  0  0  0  0  0  0  0  0  0  0  0
    7.4840   -3.2540   22.2420 C   0  0  0  0  0  0  0  0  0  0  0  0
  1  2  1  0
  2  3  2  0
  2  4  1  0
  4  5  1  0
  5  6  1  0
  6  7  1  0
  7  8  1  0
  8  9  2  0
  8 10  1  0
 10 11  1  0
 11 12  1  0
 12 13  1  6
 12 14  1  0
 14 15  1  0
 15 16  2  0
 16 17  1  0
 17 18  2  0
 17 19  1  0
 19 20  1  0
 16 21  1  0
 21 22  2  0
 10 23  1  0
 14 23  2  0
 22 23  1  0
  7 24  1  0
  4 25  1  0
 24 25  1  0
M  END
