piperidine-amides-30626-covalent
     RDKit          3D

 26 28  0  0  0  0  0  0  0  0999 V2000
    7.0370   -3.3360   19.3810 C   0  0  0  0  0  0  0  0  0  0  0  0
    6.3680   -4.1840   20.3700 C   0  0  0  0  0  0  0  0  0  0  0  0
    5.3930   -4.8580   19.9920 O   0  0  0  0  0  0  0  0  0  0  0  0
    6.8150   -4.3010   21.7090 N   0  0  0  0  0  0  0  0  0  0  0  0
    6.4760   -5.4390   22.5240 C   0  0  0  0  0  0  0  0  0  0  0  0
    5.6080   -4.8680   23.6180 C   0  0  0  0  0  0  0  0  0  0  0  0
    5.9140   -3.4130   23.8650 C   0  0  0  0  0  0  0  0  0  0  0  0
    5.3840   -2.8830   25.1820 C   0  0  0  0  0  0  0  0  0  0  0  0
    4.1640   -2.5510   25.2170 O   0  0  0  0  0  0  0  0  0  0  0  0
    6.0630   -2.7220   26.4320 N   0  0  0  0  0  0  0  0  0  0  0  0
    5.9590   -3.8350   27.3810 C   0  0  0  0  0  0  0  0  0  0  0  0
    7.0740   -4.6320   27.0120 C   0  0  0  0  0  0  0  0  0  0  0  0
    7.2290   -5.0930   25.6790 C   0  0  0  0  0  0  0  0  0  0  0  0
    8.3990   -5.8850   25.3840 C   0  0  0  0  0  0  0  0  0  0  0  0
    9.3980   -6.1960   26.4630 C   0  0  0  0  0  0  0  0  0  0  0  0
    9.2530   -5.7250   27.8440 N   0  0  0  0  0  0  0  0  0  0  0  0
    8.0660   -4.9510   28.0470 C   0  0  0  0  0  0  0  0  0  0  0  0
    6.0090   -1.4680   27.1140 C   0  0  1  0  0  0  0  0  0  0  0  0
    6.9290   -1.2930   28.1380 C   0  0  0  0  0  0  0  0  0  0  0  0
    6.6970   -0.0360   28.9400 C   0  0  0  0  0  0  0  0  0  0  0  0
    5.9280    0.9650   27.7640 S   0  0  0  0  0  0  0  0  0  0  0  0
    4.5750    1.3160   28.2430 O   0  0  0  0  0  0  0  0  0  0  0  0
    6.7510    2.2120   27.5140 O   0  0  0  0  0  0  0  0  0  0  0  0
    5.8450   -0.1380   26.3230 C   0  0  0  0  0  0  0  0  0  0  0  0
    7.3980   -3.1760   23.5190 C   0  0  0  0  0  0  0  0  0  0  0  0
    7.5190   -3.1480   22.3020 C   0  0  0  0  0  0  0  0  0  0  0  0
  1  2  1  0
  2  3  2  0
  2  4  1  0
  4  5  1  0
  5  6  1  0
  6  7  1  0
  7  8  1  0
  8  9  2  0
  8 10  1  0
 10 11  1  0
 11 12  1  0
 12 13  2  0
 13 14  1  0
 14 15  2  0
 15 16  1  0
 12 17  1  0
 16 17  2  0
 18 10  1  6
 18 19  1  0
 19 20  1  0
 21 20  1  0
 21 22  2  0
 21 23  2  0
 18 24  1  0
 21 24  1  0
  7 25  1  0
  4 26  1  0
 25 26  1  0
M  END
