piperidine-amides-31104-covalent
     RDKit          3D

 23 25  0  0  0  0  0  0  0  0999 V2000
    7.0690   -3.2970   19.2900 C   0  0  0  0  0  0  0  0  0  0  0  0
    6.3540   -4.0920   20.2900 C   0  0  0  0  0  0  0  0  0  0  0  0
    5.3320   -4.7060   19.9430 O   0  0  0  0  0  0  0  0  0  0  0  0
    6.8120   -4.2250   21.6160 N   0  0  0  0  0  0  0  0  0  0  0  0
    6.5980   -5.4110   22.3970 C   0  0  0  0  0  0  0  0  0  0  0  0
    5.8050   -4.9720   23.6080 C   0  0  0  0  0  0  0  0  0  0  0  0
    6.3110   -3.7100   24.2710 C   0  0  0  0  0  0  0  0  0  0  0  0
    5.2420   -3.1070   25.1080 C   0  0  0  0  0  0  0  0  0  0  0  0
    4.2350   -2.6190   24.5280 O   0  0  0  0  0  0  0  0  0  0  0  0
    5.2280   -3.0330   26.5230 N   0  0  0  0  0  0  0  0  0  0  0  0
    6.4190   -2.7480   27.2850 C   0  0  0  0  0  0  0  0  0  0  0  0
    5.4500   -2.0900   28.1070 C   0  0  0  0  0  0  0  0  0  0  0  0
    5.3690   -2.8380   29.2730 F   0  0  0  0  0  0  0  0  0  0  0  0
    5.7870   -0.7480   28.6470 C   0  0  0  0  0  0  0  0  0  0  0  0
    6.7300   -0.8490   29.8240 C   0  0  0  0  0  0  0  0  0  0  0  0
    7.1780    0.4440   30.5010 C   0  0  0  0  0  0  0  0  0  0  0  0
    6.6050    1.6700   29.8880 C   0  0  0  0  0  0  0  0  0  0  0  0
    5.7620    1.6360   28.8210 C   0  0  0  0  0  0  0  0  0  0  0  0
    5.3380    0.4720   28.1870 C   0  0  0  0  0  0  0  0  0  0  0  0
    4.1410    0.6440   26.6970 Br  0  0  0  0  0  0  0  0  0  0  0  0
    4.2800   -2.2860   27.3470 C   0  0  0  0  0  0  0  0  0  0  0  0
    6.8080   -2.6210   23.3520 C   0  0  0  0  0  0  0  0  0  0  0  0
    7.6290   -3.2100   22.2340 C   0  0  0  0  0  0  0  0  0  0  0  0
  1  2  1  0
  2  3  2  0
  2  4  1  0
  4  5  1  0
  5  6  1  0
  6  7  1  0
  7  8  1  0
  8  9  2  0
  8 10  1  0
 10 11  1  0
 11 12  1  0
 12 13  1  0
 12 14  1  0
 14 15  2  0
 15 16  1  0
 16 17  2  0
 17 18  1  0
 14 19  1  0
 18 19  2  0
 19 20  1  0
 10 21  1  0
 12 21  1  0
  7 22  1  0
  4 23  1  0
 22 23  1  0
M  END
