piperidine-amides-14901-covalent
     RDKit          3D

 21 23  0  0  0  0  0  0  0  0999 V2000
    7.1470   -3.2960   19.2150 C   0  0  0  0  0  0  0  0  0  0  0  0
    6.3710   -4.0340   20.2000 C   0  0  0  0  0  0  0  0  0  0  0  0
    5.2680   -4.4930   19.8650 O   0  0  0  0  0  0  0  0  0  0  0  0
    6.9170   -4.2660   21.4820 N   0  0  0  0  0  0  0  0  0  0  0  0
    7.5780   -3.1780   22.1410 C   0  0  0  0  0  0  0  0  0  0  0  0
    6.6690   -2.6450   23.2050 C   0  0  0  0  0  0  0  0  0  0  0  0
    6.5230   -3.7420   24.2340 C   0  0  0  0  0  0  0  0  0  0  0  0
    5.7470   -3.2460   25.4120 C   0  0  0  0  0  0  0  0  0  0  0  0
    4.5250   -3.2360   25.2830 O   0  0  0  0  0  0  0  0  0  0  0  0
    6.4360   -2.8360   26.5500 N   0  0  0  0  0  0  0  0  0  0  0  0
    6.6150   -1.4590   26.8670 C   0  0  0  0  0  0  0  0  0  0  0  0
    5.5260   -0.8510   27.5130 C   0  0  0  0  0  0  0  0  0  0  0  0
    5.0000    0.3780   27.4820 C   0  0  0  0  0  0  0  0  0  0  0  0
    3.9370    0.3790   28.3370 C   0  0  0  0  0  0  0  0  0  0  0  0
    3.2590    1.7160   28.3880 C   0  0  0  0  0  0  0  0  0  0  0  0
    2.6090    2.0620   27.2240 C   0  0  0  0  0  0  0  0  0  0  0  0
    1.8180    1.7320   28.5310 C   0  0  0  0  0  0  0  0  0  0  0  0
    3.8030   -0.8970   28.9160 O   0  0  0  0  0  0  0  0  0  0  0  0
    4.7650   -1.7060   28.4420 N   0  0  0  0  0  0  0  0  0  0  0  0
    5.9230   -4.9680   23.6340 C   0  0  0  0  0  0  0  0  0  0  0  0
    6.3910   -5.3710   22.2270 C   0  0  0  0  0  0  0  0  0  0  0  0
  1  2  1  0
  2  3  2  0
  2  4  1  0
  4  5  1  0
  5  6  1  0
  6  7  1  0
  7  8  1  0
  8  9  2  0
  8 10  1  0
 10 11  1  0
 11 12  1  0
 12 13  1  0
 13 14  2  0
 14 15  1  0
 15 16  1  0
 15 17  1  0
 16 17  1  0
 14 18  1  0
 12 19  2  0
 18 19  1  0
  7 20  1  0
  4 21  1  0
 20 21  1  0
M  END
