piperidine-amides-28027-covalent
     RDKit          3D

 26 28  0  0  0  0  0  0  0  0999 V2000
    7.1420   -3.2420   19.1260 C   0  0  0  0  0  0  0  0  0  0  0  0
    6.3200   -4.0040   20.0910 C   0  0  0  0  0  0  0  0  0  0  0  0
    5.1720   -4.3270   19.7570 O   0  0  0  0  0  0  0  0  0  0  0  0
    6.8490   -4.3860   21.3070 N   0  0  0  0  0  0  0  0  0  0  0  0
    6.4160   -5.6090   21.8730 C   0  0  0  0  0  0  0  0  0  0  0  0
    5.7910   -5.4400   23.1640 C   0  0  0  0  0  0  0  0  0  0  0  0
    6.6340   -4.6840   24.0800 C   0  0  0  0  0  0  0  0  0  0  0  0
    5.8800   -3.7000   24.8200 C   0  0  0  0  0  0  0  0  0  0  0  0
    4.6470   -3.5450   24.7000 O   0  0  0  0  0  0  0  0  0  0  0  0
    6.6400   -2.9780   25.6700 N   0  0  0  0  0  0  0  0  0  0  0  0
    8.0010   -3.4250   26.0270 C   0  0  0  0  0  0  0  0  0  0  0  0
    7.7130   -3.9020   27.4800 C   0  0  0  0  0  0  0  0  0  0  0  0
    8.3220   -4.8630   28.0350 O   0  0  0  0  0  0  0  0  0  0  0  0
    6.6350   -3.1490   28.1550 N   0  0  0  0  0  0  0  0  0  0  0  0
    6.5060   -2.1210   27.1940 C   0  0  0  0  0  0  0  0  0  0  0  0
    6.4580   -1.5280   28.4750 C   0  0  0  0  0  0  0  0  0  0  0  0
    6.4530   -1.6390   29.8930 C   0  0  0  0  0  0  0  0  0  0  0  0
    6.3750   -0.2830   29.7040 C   0  0  0  0  0  0  0  0  0  0  0  0
    5.1230    0.2440   29.3630 O   0  0  0  0  0  0  0  0  0  0  0  0
    7.5510    0.4430   29.8930 O   0  0  0  0  0  0  0  0  0  0  0  0
    8.1610   -0.0130   31.0800 C   0  0  0  0  0  0  0  0  0  0  0  0
    6.5230   -2.8830   29.2750 C   0  0  0  0  0  0  0  0  0  0  0  0
    6.5240   -2.6810   28.0540 C   0  0  0  0  0  0  0  0  0  0  0  0
    6.5740   -3.4090   26.8900 C   0  0  0  0  0  0  0  0  0  0  0  0
    7.7630   -3.9100   23.4890 C   0  0  0  0  0  0  0  0  0  0  0  0
    7.4560   -3.3780   22.1370 C   0  0  0  0  0  0  0  0  0  0  0  0
  1  2  1  0
  2  3  2  0
  2  4  1  0
  4  5  1  0
  5  6  1  0
  6  7  1  0
  7  8  1  0
  8  9  2  0
  8 10  1  0
 10 11  1  0
 11 12  1  0
 12 13  2  0
 12 14  1  0
 14 15  1  0
 15 16  2  0
 16 17  1  0
 17 18  1  0
 18 19  2  0
 18 20  1  0
 20 21  1  0
 17 22  2  0
 22 23  1  0
 10 24  1  0
 15 24  1  0
 23 24  2  0
  7 25  1  0
  4 26  1  0
 25 26  1  0
M  END
