piperidine-amides-3693-covalent
     RDKit          3D

 21 22  0  0  0  0  0  0  0  0999 V2000
    7.1200   -3.2720   19.1500 C   0  0  0  0  0  0  0  0  0  0  0  0
    6.3660   -4.0080   20.1810 C   0  0  0  0  0  0  0  0  0  0  0  0
    5.2550   -4.4710   19.8480 O   0  0  0  0  0  0  0  0  0  0  0  0
    6.8980   -4.2380   21.4680 N   0  0  0  0  0  0  0  0  0  0  0  0
    7.6320   -3.1760   22.0670 C   0  0  0  0  0  0  0  0  0  0  0  0
    7.2080   -2.7850   23.4030 C   0  0  0  0  0  0  0  0  0  0  0  0
    6.5490   -3.8260   24.2070 C   0  0  0  0  0  0  0  0  0  0  0  0
    5.9000   -3.2040   25.4060 C   0  0  0  0  0  0  0  0  0  0  0  0
    4.7550   -3.5520   25.7510 O   0  0  0  0  0  0  0  0  0  0  0  0
    6.5910   -2.2050   26.1260 N   0  0  0  0  0  0  0  0  0  0  0  0
    6.4590   -1.8060   27.4770 C   0  0  0  0  0  0  0  0  0  0  0  0
    5.3650   -0.9600   27.9560 C   0  0  0  0  0  0  0  0  0  0  0  0
    4.1910   -1.6160   27.5500 F   0  0  0  0  0  0  0  0  0  0  0  0
    5.3520   -0.9830   29.4960 C   0  0  0  0  0  0  0  0  0  0  0  0
    4.9100    0.2760   29.8570 O   0  0  0  0  0  0  0  0  0  0  0  0
    5.9890    1.1520   29.9640 C   0  0  0  0  0  0  0  0  0  0  0  0
    5.8030    2.2360   28.8980 C   0  0  0  0  0  0  0  0  0  0  0  0
    5.5810    1.7880   27.6170 O   0  0  0  0  0  0  0  0  0  0  0  0
    5.4590    0.4950   27.6490 C   0  0  0  0  0  0  0  0  0  0  0  0
    5.5670   -4.6360   23.3690 C   0  0  0  0  0  0  0  0  0  0  0  0
    6.4170   -5.2980   22.3150 C   0  0  0  0  0  0  0  0  0  0  0  0
  1  2  1  0
  2  3  2  0
  2  4  1  0
  4  5  1  0
  5  6  1  0
  6  7  1  0
  7  8  1  0
  8  9  2  0
  8 10  1  0
 10 11  1  0
 11 12  1  0
 12 13  1  0
 12 14  1  0
 14 15  1  0
 15 16  1  0
 16 17  1  0
 17 18  1  0
 12 19  1  0
 18 19  1  0
  7 20  1  0
  4 21  1  0
 20 21  1  0
M  END
