piperidine-amides-11265-covalent
     RDKit          3D

 19 19  0  0  0  0  0  0  0  0999 V2000
    7.1430   -3.3000   19.2180 C   0  0  0  0  0  0  0  0  0  0  0  0
    6.3490   -3.9900   20.2330 C   0  0  0  0  0  0  0  0  0  0  0  0
    5.3120   -4.5900   19.9020 O   0  0  0  0  0  0  0  0  0  0  0  0
    6.7860   -4.0120   21.5610 N   0  0  0  0  0  0  0  0  0  0  0  0
    7.7490   -3.0370   22.0210 C   0  0  0  0  0  0  0  0  0  0  0  0
    7.5980   -2.9730   23.5040 C   0  0  0  0  0  0  0  0  0  0  0  0
    6.2060   -3.3170   23.9360 C   0  0  0  0  0  0  0  0  0  0  0  0
    6.0070   -3.0290   25.3760 C   0  0  0  0  0  0  0  0  0  0  0  0
    4.8750   -3.2080   25.9230 O   0  0  0  0  0  0  0  0  0  0  0  0
    7.0740   -2.5120   26.1630 N   0  0  0  0  0  0  0  0  0  0  0  0
    7.1320   -2.6740   27.6330 C   0  0  0  0  0  0  0  0  0  0  0  0
    7.7560   -3.9690   27.9210 C   0  0  0  0  0  0  0  0  0  0  0  0
    6.8600   -5.0770   28.2520 C   0  0  0  0  0  0  0  0  0  0  0  0
    6.6760   -5.8520   27.0020 C   0  0  0  0  0  0  0  0  0  0  0  0
    8.0280   -5.9220   26.3280 C   0  0  0  0  0  0  0  0  0  0  0  0
    9.1790   -6.3750   27.0920 N   0  0  0  0  0  0  0  0  0  0  0  0
    8.2310   -5.5720   24.9770 O   0  0  0  0  0  0  0  0  0  0  0  0
    5.9000   -4.7490   23.6070 C   0  0  0  0  0  0  0  0  0  0  0  0
    6.3660   -5.1200   22.3680 C   0  0  0  0  0  0  0  0  0  0  0  0
  1  2  1  0
  2  3  2  0
  2  4  1  0
  4  5  1  0
  5  6  1  0
  6  7  1  0
  7  8  1  0
  8  9  2  0
  8 10  1  0
 10 11  1  0
 11 12  1  0
 12 13  1  0
 13 14  1  0
 14 15  1  0
 15 16  1  0
 15 17  2  0
  7 18  1  0
  4 19  1  0
 18 19  1  0
M  END
