piperidine-amides-19500-covalent
     RDKit          3D

 22 23  0  0  0  0  0  0  0  0999 V2000
    7.1160   -3.3200   19.2000 C   0  0  0  0  0  0  0  0  0  0  0  0
    6.3760   -4.0060   20.2310 C   0  0  0  0  0  0  0  0  0  0  0  0
    5.2710   -4.5300   19.8920 O   0  0  0  0  0  0  0  0  0  0  0  0
    6.8470   -4.1920   21.5490 N   0  0  0  0  0  0  0  0  0  0  0  0
    7.7000   -3.1520   22.1870 C   0  0  0  0  0  0  0  0  0  0  0  0
    6.7290   -2.6110   23.3090 C   0  0  0  0  0  0  0  0  0  0  0  0
    6.3300   -3.8320   24.1010 C   0  0  0  0  0  0  0  0  0  0  0  0
    5.4910   -3.5060   25.4240 C   0  0  0  0  0  0  0  0  0  0  0  0
    4.3640   -3.9600   25.3390 O   0  0  0  0  0  0  0  0  0  0  0  0
    6.2000   -2.8260   26.2290 N   0  0  0  0  0  0  0  0  0  0  0  0
    6.9320   -1.7500   26.6200 C   0  0  0  0  0  0  0  0  0  0  0  0
    6.0470   -3.4040   27.5280 C   0  0  0  0  0  0  0  0  0  0  0  0
    6.0070   -4.8160   27.8120 C   0  0  0  0  0  0  0  0  0  0  0  0
    4.9860   -5.6550   27.1500 C   0  0  0  0  0  0  0  0  0  0  0  0
    5.3710   -5.9750   25.7700 C   0  0  0  0  0  0  0  0  0  0  0  0
    4.2940   -6.7990   25.2840 C   0  0  0  0  0  0  0  0  0  0  0  0
    3.0150   -7.3610   25.7530 C   0  0  0  0  0  0  0  0  0  0  0  0
    2.9210   -6.8280   27.2320 C   0  0  0  0  0  0  0  0  0  0  0  0
    3.9120   -5.9400   28.0120 C   0  0  0  0  0  0  0  0  0  0  0  0
    3.7950   -5.5400   29.1960 O   0  0  0  0  0  0  0  0  0  0  0  0
    5.5460   -4.8000   23.1980 C   0  0  0  0  0  0  0  0  0  0  0  0
    6.4520   -5.3380   22.3330 C   0  0  0  0  0  0  0  0  0  0  0  0
  1  2  1  0
  2  3  2  0
  2  4  1  0
  4  5  1  0
  5  6  1  0
  6  7  1  0
  7  8  1  0
  8  9  2  0
  8 10  1  0
 10 11  1  0
 10 12  1  0
 12 13  1  0
 13 14  1  0
 14 15  2  0
 15 16  1  0
 16 17  2  0
 17 18  1  0
 14 19  1  0
 18 19  2  0
 19 20  1  0
  7 21  1  0
  4 22  1  0
 21 22  1  0
M  END
