piperidine-amides-30105-covalent
     RDKit          3D

 27 29  0  0  0  0  0  0  0  0999 V2000
    6.9700   -3.3790   19.4090 C   0  0  0  0  0  0  0  0  0  0  0  0
    6.3480   -4.2640   20.3950 C   0  0  0  0  0  0  0  0  0  0  0  0
    5.4200   -4.9810   20.0180 O   0  0  0  0  0  0  0  0  0  0  0  0
    6.8230   -4.3380   21.7700 N   0  0  0  0  0  0  0  0  0  0  0  0
    7.6310   -3.2760   22.3400 C   0  0  0  0  0  0  0  0  0  0  0  0
    7.2240   -2.9740   23.7710 C   0  0  0  0  0  0  0  0  0  0  0  0
    5.8340   -3.5620   23.9790 C   0  0  0  0  0  0  0  0  0  0  0  0
    5.0460   -2.9810   25.1580 C   0  0  0  0  0  0  0  0  0  0  0  0
    4.2580   -2.0540   24.9550 O   0  0  0  0  0  0  0  0  0  0  0  0
    5.1200   -3.4200   26.5180 N   0  0  0  0  0  0  0  0  0  0  0  0
    6.2310   -4.1490   26.7630 C   0  0  0  0  0  0  0  0  0  0  0  0
    6.4590   -4.3270   28.2430 C   0  0  0  0  0  0  0  0  0  0  0  0
    5.4800   -4.2250   29.1430 N   0  0  0  0  0  0  0  0  0  0  0  0
    5.2670   -5.3990   29.7520 C   0  0  0  0  0  0  0  0  0  0  0  0
    4.2710   -5.5970   30.7070 C   0  0  0  0  0  0  0  0  0  0  0  0
    4.1670   -6.8360   31.2560 C   0  0  0  0  0  0  0  0  0  0  0  0
    3.1190   -6.9870   32.2470 N   0  0  0  0  0  0  0  0  0  0  0  0
    3.6170   -6.4490   33.4490 C   0  0  0  0  0  0  0  0  0  0  0  0
    2.7500   -8.2830   32.3390 C   0  0  0  0  0  0  0  0  0  0  0  0
    4.9350   -7.8690   30.9540 N   0  0  0  0  0  0  0  0  0  0  0  0
    5.9710   -7.6650   29.9520 C   0  0  0  0  0  0  0  0  0  0  0  0
    6.0730   -6.4200   29.4090 N   0  0  0  0  0  0  0  0  0  0  0  0
    4.4830   -3.3620   28.9030 C   0  0  2  0  0  0  0  0  0  0  0  0
    3.0840   -3.8060   28.8510 C   0  0  0  0  0  0  0  0  0  0  0  0
    4.6430   -2.6130   27.5730 C   0  0  0  0  0  0  0  0  0  0  0  0
    5.9190   -5.0630   23.9230 C   0  0  0  0  0  0  0  0  0  0  0  0
    6.4330   -5.4630   22.5630 C   0  0  0  0  0  0  0  0  0  0  0  0
  1  2  1  0
  2  3  2  0
  2  4  1  0
  4  5  1  0
  5  6  1  0
  6  7  1  0
  7  8  1  0
  8  9  2  0
  8 10  1  0
 10 11  1  0
 11 12  1  0
 12 13  1  0
 13 14  1  0
 14 15  2  0
 15 16  1  0
 16 17  1  0
 17 18  1  0
 17 19  1  0
 16 20  2  0
 20 21  1  0
 14 22  1  0
 21 22  2  0
 13 23  1  0
 23 24  1  6
 10 25  1  0
 23 25  1  0
  7 26  1  0
  4 27  1  0
 26 27  1  0
M  END
