piperidine-amides-23564-covalent
     RDKit          3D

 23 25  0  0  0  0  0  0  0  0999 V2000
    7.1410   -3.3340   19.3230 C   0  0  0  0  0  0  0  0  0  0  0  0
    6.3900   -4.1010   20.3230 C   0  0  0  0  0  0  0  0  0  0  0  0
    5.3270   -4.6440   19.9300 O   0  0  0  0  0  0  0  0  0  0  0  0
    6.8820   -4.2720   21.6430 N   0  0  0  0  0  0  0  0  0  0  0  0
    7.6610   -3.2180   22.2180 C   0  0  0  0  0  0  0  0  0  0  0  0
    7.3050   -2.9440   23.5940 C   0  0  0  0  0  0  0  0  0  0  0  0
    6.0480   -3.6080   23.9570 C   0  0  0  0  0  0  0  0  0  0  0  0
    5.4840   -3.1270   25.2600 C   0  0  0  0  0  0  0  0  0  0  0  0
    4.3070   -2.7240   25.2670 O   0  0  0  0  0  0  0  0  0  0  0  0
    6.1850   -3.1070   26.4780 N   0  0  0  0  0  0  0  0  0  0  0  0
    6.3570   -1.9130   27.2430 C   0  0  0  0  0  0  0  0  0  0  0  0
    6.9870   -1.8070   28.5130 C   0  0  0  0  0  0  0  0  0  0  0  0
    7.1130   -0.4740   29.2750 C   0  0  0  0  0  0  0  0  0  0  0  0
    6.5810    0.6970   28.6830 C   0  0  0  0  0  0  0  0  0  0  0  0
    5.8830    0.6540   27.2890 C   0  0  0  0  0  0  0  0  0  0  0  0
    5.8220   -0.6870   26.6550 C   0  0  0  0  0  0  0  0  0  0  0  0
    6.0590   -4.3290   27.2340 C   0  0  0  0  0  0  0  0  0  0  0  0
    5.3370   -5.4840   26.8010 N   0  0  0  0  0  0  0  0  0  0  0  0
    5.3470   -6.5140   27.6540 N   0  0  0  0  0  0  0  0  0  0  0  0
    6.0100   -6.3690   28.7930 N   0  0  0  0  0  0  0  0  0  0  0  0
    6.6560   -4.8010   28.7450 S   0  0  0  0  0  0  0  0  0  0  0  0
    6.0830   -5.1150   23.8200 C   0  0  0  0  0  0  0  0  0  0  0  0
    6.5880   -5.4620   22.4180 C   0  0  0  0  0  0  0  0  0  0  0  0
  1  2  1  0
  2  3  2  0
  2  4  1  0
  4  5  1  0
  5  6  1  0
  6  7  1  0
  7  8  1  0
  8  9  2  0
  8 10  1  0
 10 11  1  0
 11 12  2  0
 12 13  1  0
 13 14  2  0
 14 15  1  0
 11 16  1  0
 15 16  2  0
 10 17  1  0
 17 18  2  0
 18 19  1  0
 19 20  2  0
 17 21  1  0
 20 21  1  0
  7 22  1  0
  4 23  1  0
 22 23  1  0
M  END
