piperidine-amides-31151-covalent
     RDKit          3D

 28 31  0  0  0  0  0  0  0  0999 V2000
    7.0120   -3.3660   19.4500 C   0  0  0  0  0  0  0  0  0  0  0  0
    6.3570   -4.2420   20.4290 C   0  0  0  0  0  0  0  0  0  0  0  0
    5.4340   -4.9700   20.0160 O   0  0  0  0  0  0  0  0  0  0  0  0
    6.7610   -4.3120   21.7920 N   0  0  0  0  0  0  0  0  0  0  0  0
    6.5930   -5.5290   22.5690 C   0  0  0  0  0  0  0  0  0  0  0  0
    5.9290   -5.1460   23.8820 C   0  0  0  0  0  0  0  0  0  0  0  0
    5.8790   -3.6570   24.0490 C   0  0  0  0  0  0  0  0  0  0  0  0
    5.0760   -3.0990   25.2200 C   0  0  0  0  0  0  0  0  0  0  0  0
    4.2260   -2.2210   24.9520 O   0  0  0  0  0  0  0  0  0  0  0  0
    5.1400   -3.4550   26.6120 N   0  0  0  0  0  0  0  0  0  0  0  0
    6.1520   -4.3960   26.8790 C   0  0  0  0  0  0  0  0  0  0  0  0
    5.8660   -5.0950   28.0940 C   0  0  0  0  0  0  0  0  0  0  0  0
    6.3150   -6.3050   28.5420 N   0  0  0  0  0  0  0  0  0  0  0  0
    5.7350   -6.5710   29.8070 C   0  0  0  0  0  0  0  0  0  0  0  0
    5.9620   -7.7710   30.6520 C   0  0  0  0  0  0  0  0  0  0  0  0
    5.2130   -7.8360   31.9910 C   0  0  0  0  0  0  0  0  0  0  0  0
    4.3320   -6.6470   32.2370 C   0  0  0  0  0  0  0  0  0  0  0  0
    4.2260   -5.6090   31.3500 C   0  0  0  0  0  0  0  0  0  0  0  0
    4.9280   -5.5820   30.1610 C   0  0  0  0  0  0  0  0  0  0  0  0
    5.0500   -4.6320   29.0220 C   0  0  0  0  0  0  0  0  0  0  0  0
    4.4040   -3.2910   28.7630 C   0  0  0  0  0  0  0  0  0  0  0  0
    4.9610   -2.3910   27.6440 C   0  0  2  0  0  0  0  0  0  0  0  0
    5.0440   -1.3800   27.0010 C   0  0  0  0  0  0  0  0  0  0  0  0
    6.0900   -1.1130   26.3720 O   0  0  0  0  0  0  0  0  0  0  0  0
    4.0830   -0.5810   26.9680 O   0  0  0  0  0  0  0  0  0  0  0  0
    2.8620   -0.8660   26.3070 C   0  0  0  0  0  0  0  0  0  0  0  0
    7.2470   -3.0530   23.8020 C   0  0  0  0  0  0  0  0  0  0  0  0
    7.6050   -3.2530   22.3170 C   0  0  0  0  0  0  0  0  0  0  0  0
  1  2  1  0
  2  3  2  0
  2  4  1  0
  4  5  1  0
  5  6  1  0
  6  7  1  0
  7  8  1  0
  8  9  2  0
  8 10  1  0
 10 11  1  0
 11 12  1  0
 12 13  1  0
 13 14  1  0
 14 15  2  0
 15 16  1  0
 16 17  2  0
 17 18  1  0
 14 19  1  0
 18 19  2  0
 12 20  2  0
 19 20  1  0
 20 21  1  0
 10 22  1  0
 21 22  1  0
 22 23  1  6
 23 24  2  0
 23 25  1  0
 25 26  1  0
  7 27  1  0
  4 28  1  0
 27 28  1  0
M  END
