piperidine-amides-2231-covalent
     RDKit          3D

 29 33  0  0  0  0  0  0  0  0999 V2000
    7.1230   -3.2860   19.2500 C   0  0  0  0  0  0  0  0  0  0  0  0
    6.3590   -4.0370   20.2780 C   0  0  0  0  0  0  0  0  0  0  0  0
    5.3250   -4.5930   19.9090 O   0  0  0  0  0  0  0  0  0  0  0  0
    6.8450   -4.1190   21.5900 N   0  0  0  0  0  0  0  0  0  0  0  0
    7.7720   -3.1340   22.1020 C   0  0  0  0  0  0  0  0  0  0  0  0
    7.5960   -3.0140   23.5810 C   0  0  0  0  0  0  0  0  0  0  0  0
    6.2310   -3.5860   23.9280 C   0  0  0  0  0  0  0  0  0  0  0  0
    5.9310   -3.2860   25.3390 C   0  0  0  0  0  0  0  0  0  0  0  0
    5.1860   -4.0530   25.9610 O   0  0  0  0  0  0  0  0  0  0  0  0
    6.4390   -2.1380   25.9750 N   0  0  0  0  0  0  0  0  0  0  0  0
    5.4750   -1.0800   26.1770 C   0  0  2  0  0  0  0  0  0  0  0  0
    5.9930    0.2280   25.5950 C   0  0  0  0  0  0  0  0  0  0  0  0
    6.1740    1.2900   26.4680 C   0  0  0  0  0  0  0  0  0  0  0  0
    6.6100    2.4830   26.1140 C   0  0  0  0  0  0  0  0  0  0  0  0
    6.8840    2.6500   24.8430 C   0  0  0  0  0  0  0  0  0  0  0  0
    6.7480    1.6160   23.7710 C   0  0  0  0  0  0  0  0  0  0  0  0
    6.2490    0.2070   24.0950 C   0  0  0  0  0  0  0  0  0  0  0  0
    5.1630   -0.8490   27.6630 C   0  0  2  0  0  0  0  0  0  0  0  0
    6.3190   -1.0750   28.6060 C   0  0  0  0  0  0  0  0  0  0  0  0
    5.8580   -0.8590   30.0170 C   0  0  1  0  0  0  0  0  0  0  0  0
    5.0440    0.4070   30.1930 C   0  0  0  0  0  0  0  0  0  0  0  0
    3.9110    0.3590   29.2390 C   0  0  2  0  0  0  0  0  0  0  0  0
    3.0390   -0.8140   29.5360 C   0  0  0  0  0  0  0  0  0  0  0  0
    3.7690   -1.9630   29.4180 C   0  0  2  0  0  0  0  0  0  0  0  0
    5.0520   -1.9660   30.2080 C   0  0  0  0  0  0  0  0  0  0  0  0
    4.1450   -1.9730   27.9650 C   0  0  0  0  0  0  0  0  0  0  0  0
    4.4040    0.3070   27.9810 C   0  0  0  0  0  0  0  0  0  0  0  0
    6.0000   -5.0490   23.6350 C   0  0  0  0  0  0  0  0  0  0  0  0
    6.6570   -5.3790   22.2830 C   0  0  0  0  0  0  0  0  0  0  0  0
  1  2  1  0
  2  3  2  0
  2  4  1  0
  4  5  1  0
  5  6  1  0
  6  7  1  0
  7  8  1  0
  8  9  2  0
  8 10  1  0
 11 10  1  1
 11 12  1  0
 12 13  2  0
 13 14  1  0
 14 15  2  0
 15 16  1  0
 12 17  1  0
 16 17  2  0
 11 18  1  0
 18 19  1  1
 20 19  1  6
 20 21  1  0
 22 21  1  1
 22 23  1  0
 24 23  1  6
 20 25  1  0
 24 25  1  0
 18 26  1  0
 24 26  1  0
 18 27  1  0
 22 27  1  0
  7 28  1  0
  4 29  1  0
 28 29  1  0
M  END
