piperidine-amides-13593-covalent
     RDKit          3D

 30 32  0  0  0  0  0  0  0  0999 V2000
    7.0880   -3.3290   19.3070 C   0  0  0  0  0  0  0  0  0  0  0  0
    6.3810   -4.1790   20.2990 C   0  0  0  0  0  0  0  0  0  0  0  0
    5.3500   -4.7840   19.9630 O   0  0  0  0  0  0  0  0  0  0  0  0
    6.9400   -4.3170   21.5850 N   0  0  0  0  0  0  0  0  0  0  0  0
    7.6960   -3.2510   22.1910 C   0  0  0  0  0  0  0  0  0  0  0  0
    6.8050   -2.6810   23.2900 C   0  0  0  0  0  0  0  0  0  0  0  0
    6.6030   -3.7740   24.2750 C   0  0  0  0  0  0  0  0  0  0  0  0
    5.8580   -3.3390   25.4790 C   0  0  0  0  0  0  0  0  0  0  0  0
    4.6300   -3.4690   25.4390 O   0  0  0  0  0  0  0  0  0  0  0  0
    6.5300   -2.7950   26.5780 N   0  0  0  0  0  0  0  0  0  0  0  0
    6.3510   -1.4820   27.0790 C   0  0  0  0  0  0  0  0  0  0  0  0
    5.7500   -0.3930   26.5060 C   0  0  0  0  0  0  0  0  0  0  0  0
    5.6500    0.8470   27.1480 C   0  0  0  0  0  0  0  0  0  0  0  0
    6.1440    1.0830   28.4080 C   0  0  0  0  0  0  0  0  0  0  0  0
    5.9990    2.3170   28.9560 N   0  0  0  0  0  0  0  0  0  0  0  0
    5.1460    2.4960   29.9990 C   0  0  0  0  0  0  0  0  0  0  0  0
    5.4150    3.7580   30.8230 C   0  0  2  0  0  0  0  0  0  0  0  0
    4.0110    4.2880   31.1160 C   0  0  0  0  0  0  0  0  0  0  0  0
    6.2060    4.6600   30.1540 O   0  0  0  0  0  0  0  0  0  0  0  0
    6.7000    4.5300   28.8840 C   0  0  2  0  0  0  0  0  0  0  0  0
    6.5160    5.8740   28.2840 C   0  0  0  0  0  0  0  0  0  0  0  0
    6.0740    3.5050   28.1600 C   0  0  0  0  0  0  0  0  0  0  0  0
    6.8250   -0.0510   29.1140 C   0  0  0  0  0  0  0  0  0  0  0  0
    7.4050    0.1310   30.5290 C   0  0  0  0  0  0  0  0  0  0  0  0
    6.5530   -0.3260   31.4660 F   0  0  0  0  0  0  0  0  0  0  0  0
    8.6120   -0.5140   30.6370 F   0  0  0  0  0  0  0  0  0  0  0  0
    7.7250    1.4800   30.7660 F   0  0  0  0  0  0  0  0  0  0  0  0
    6.9150   -1.2750   28.4600 C   0  0  0  0  0  0  0  0  0  0  0  0
    5.8660   -4.9570   23.6720 C   0  0  0  0  0  0  0  0  0  0  0  0
    6.5160   -5.4320   22.4220 C   0  0  0  0  0  0  0  0  0  0  0  0
  1  2  1  0
  2  3  2  0
  2  4  1  0
  4  5  1  0
  5  6  1  0
  6  7  1  0
  7  8  1  0
  8  9  2  0
  8 10  1  0
 10 11  1  0
 11 12  2  0
 12 13  1  0
 13 14  2  0
 14 15  1  0
 15 16  1  0
 16 17  1  0
 17 18  1  6
 17 19  1  0
 19 20  1  0
 20 21  1  6
 15 22  1  0
 20 22  1  0
 14 23  1  0
 23 24  1  0
 24 25  1  0
 24 26  1  0
 24 27  1  0
 11 28  1  0
 23 28  2  0
  7 29  1  0
  4 30  1  0
 29 30  1  0
M  END
