piperidine-amides-10754-covalent
     RDKit          3D

 22 23  0  0  0  0  0  0  0  0999 V2000
    7.0440   -3.3360   19.3090 C   0  0  0  0  0  0  0  0  0  0  0  0
    6.3670   -4.1490   20.3240 C   0  0  0  0  0  0  0  0  0  0  0  0
    5.3960   -4.8460   19.9830 O   0  0  0  0  0  0  0  0  0  0  0  0
    6.8190   -4.1810   21.6570 N   0  0  0  0  0  0  0  0  0  0  0  0
    7.7340   -3.1730   22.1700 C   0  0  0  0  0  0  0  0  0  0  0  0
    7.4050   -2.9480   23.6190 C   0  0  0  0  0  0  0  0  0  0  0  0
    6.0980   -3.5720   23.9800 C   0  0  0  0  0  0  0  0  0  0  0  0
    5.6650   -3.2650   25.3680 C   0  0  0  0  0  0  0  0  0  0  0  0
    4.4410   -3.3580   25.6760 O   0  0  0  0  0  0  0  0  0  0  0  0
    6.5480   -2.8600   26.3920 N   0  0  0  0  0  0  0  0  0  0  0  0
    6.4290   -1.5280   27.0400 C   0  0  0  0  0  0  0  0  0  0  0  0
    7.0250   -1.6820   28.3850 C   0  0  0  0  0  0  0  0  0  0  0  0
    7.0880   -0.6120   29.2990 C   0  0  0  0  0  0  0  0  0  0  0  0
    6.5170    0.6060   28.7760 C   0  0  0  0  0  0  0  0  0  0  0  0
    5.9570    0.6930   27.4710 N   0  0  0  0  0  0  0  0  0  0  0  0
    5.8190   -0.3590   26.3820 C   0  0  0  0  0  0  0  0  0  0  0  0
    5.3080    1.0120   26.1100 C   0  0  0  0  0  0  0  0  0  0  0  0
    4.2850    1.4100   26.9410 C   0  0  0  0  0  0  0  0  0  0  0  0
    4.3340    2.5050   27.8220 C   0  0  0  0  0  0  0  0  0  0  0  0
    3.3000    2.5520   26.6410 C   0  0  0  0  0  0  0  0  0  0  0  0
    6.0350   -5.0600   23.7640 C   0  0  0  0  0  0  0  0  0  0  0  0
    6.6720   -5.3960   22.4350 C   0  0  0  0  0  0  0  0  0  0  0  0
  1  2  1  0
  2  3  2  0
  2  4  1  0
  4  5  1  0
  5  6  1  0
  6  7  1  0
  7  8  1  0
  8  9  2  0
  8 10  1  0
 10 11  1  0
 11 12  2  0
 12 13  1  0
 13 14  2  0
 14 15  1  0
 11 16  1  0
 15 16  2  0
 16 17  1  0
 17 18  1  0
 18 19  1  0
 18 20  1  0
  7 21  1  0
  4 22  1  0
 21 22  1  0
M  END
