piperidine-amides-5360-covalent
     RDKit          3D

 21 22  0  0  0  0  0  0  0  0999 V2000
    7.0700   -3.3290   19.2930 C   0  0  0  0  0  0  0  0  0  0  0  0
    6.3840   -4.1560   20.2850 C   0  0  0  0  0  0  0  0  0  0  0  0
    5.3480   -4.7580   19.9560 O   0  0  0  0  0  0  0  0  0  0  0  0
    6.8920   -4.3390   21.5810 N   0  0  0  0  0  0  0  0  0  0  0  0
    6.5360   -5.4900   22.3630 C   0  0  0  0  0  0  0  0  0  0  0  0
    5.7540   -4.9310   23.5250 C   0  0  0  0  0  0  0  0  0  0  0  0
    6.4760   -3.8040   24.2270 C   0  0  0  0  0  0  0  0  0  0  0  0
    5.6700   -3.2010   25.3280 C   0  0  0  0  0  0  0  0  0  0  0  0
    4.4750   -2.8420   25.0890 O   0  0  0  0  0  0  0  0  0  0  0  0
    6.1450   -3.0000   26.6700 N   0  0  0  0  0  0  0  0  0  0  0  0
    6.5540   -1.6510   27.1950 C   0  0  0  0  0  0  0  0  0  0  0  0
    6.4180   -0.9130   26.1380 C   0  0  0  0  0  0  0  0  0  0  0  0
    6.1360   -2.2110   26.1120 N   0  0  0  0  0  0  0  0  0  0  0  0
    6.4420   -2.5830   27.5580 N   0  0  0  0  0  0  0  0  0  0  0  0
    6.3000   -3.9340   28.1850 C   0  0  0  0  0  0  0  0  0  0  0  0
    5.0080   -3.9160   28.9700 C   0  0  0  0  0  0  0  0  0  0  0  0
    4.8980   -5.0650   29.7520 F   0  0  0  0  0  0  0  0  0  0  0  0
    4.9750   -2.8530   29.8510 F   0  0  0  0  0  0  0  0  0  0  0  0
    6.9080   -1.4660   28.3570 C   0  0  0  0  0  0  0  0  0  0  0  0
    6.8450   -2.7380   23.2600 C   0  0  0  0  0  0  0  0  0  0  0  0
    7.5350   -3.2120   22.1860 C   0  0  0  0  0  0  0  0  0  0  0  0
  1  2  1  0
  2  3  2  0
  2  4  1  0
  4  5  1  0
  5  6  1  0
  6  7  1  0
  7  8  1  0
  8  9  2  0
  8 10  1  0
 10 11  1  0
 11 12  1  0
 12 13  2  0
 13 14  1  0
 14 15  1  0
 15 16  1  0
 16 17  1  0
 16 18  1  0
 11 19  2  0
 14 19  1  0
  7 20  1  0
  4 21  1  0
 20 21  1  0
M  END
