piperidine-amides-23758-covalent
     RDKit          3D

 24 27  0  0  0  0  0  0  0  0999 V2000
    7.0150   -3.3970   19.3870 C   0  0  0  0  0  0  0  0  0  0  0  0
    6.3970   -4.2920   20.3820 C   0  0  0  0  0  0  0  0  0  0  0  0
    5.3780   -4.9130   19.9980 O   0  0  0  0  0  0  0  0  0  0  0  0
    6.9550   -4.4930   21.6810 N   0  0  0  0  0  0  0  0  0  0  0  0
    6.5240   -5.6260   22.4330 C   0  0  0  0  0  0  0  0  0  0  0  0
    5.8070   -5.2630   23.6520 C   0  0  0  0  0  0  0  0  0  0  0  0
    5.7250   -3.8080   23.8310 C   0  0  0  0  0  0  0  0  0  0  0  0
    4.8850   -3.3310   25.0050 C   0  0  0  0  0  0  0  0  0  0  0  0
    3.8570   -2.6940   24.7540 O   0  0  0  0  0  0  0  0  0  0  0  0
    5.1660   -3.5370   26.3710 N   0  0  0  0  0  0  0  0  0  0  0  0
    4.2710   -3.4120   27.4690 C   0  0  0  0  0  0  0  0  0  0  0  0
    4.7500   -3.7030   28.8310 C   0  0  2  0  0  0  0  0  0  0  0  0
    5.0910   -2.7170   29.5640 O   0  0  0  0  0  0  0  0  0  0  0  0
    5.9520   -4.6200   28.5680 C   0  0  0  0  0  0  0  0  0  0  0  0
    6.2530   -5.7910   29.3590 N   0  0  0  0  0  0  0  0  0  0  0  0
    7.4600   -6.2990   28.6150 C   0  0  0  0  0  0  0  0  0  0  0  0
    7.8300   -5.5330   27.5520 N   0  0  0  0  0  0  0  0  0  0  0  0
    6.9260   -4.4870   27.5050 C   0  0  0  0  0  0  0  0  0  0  0  0
    6.4110   -3.2350   26.8620 C   0  0  0  0  0  0  0  0  0  0  0  0
    6.3250   -2.9320   28.3390 C   0  0  0  0  0  0  0  0  0  0  0  0
    6.8910   -1.6220   28.3720 C   0  0  0  0  0  0  0  0  0  0  0  0
    6.9530   -1.7450   26.8480 C   0  0  0  0  0  0  0  0  0  0  0  0
    7.1370   -3.2290   23.7770 C   0  0  0  0  0  0  0  0  0  0  0  0
    7.5410   -3.2960   22.3360 C   0  0  0  0  0  0  0  0  0  0  0  0
  1  2  1  0
  2  3  2  0
  2  4  1  0
  4  5  1  0
  5  6  1  0
  6  7  1  0
  7  8  1  0
  8  9  2  0
  8 10  1  0
 10 11  1  0
 11 12  1  0
 12 13  1  6
 12 14  1  0
 14 15  1  0
 15 16  2  0
 16 17  1  0
 14 18  2  0
 17 18  1  0
 19 10  1  0
 18 19  1  0
 19 20  1  0
 20 21  1  0
 19 22  1  0
 21 22  1  0
  7 23  1  0
  4 24  1  0
 23 24  1  0
M  END
