piperidine-amides-24149-covalent
     RDKit          3D

 24 25  0  0  0  0  0  0  0  0999 V2000
    7.1030   -3.2740   19.2440 C   0  0  0  0  0  0  0  0  0  0  0  0
    6.3650   -4.0620   20.2510 C   0  0  0  0  0  0  0  0  0  0  0  0
    5.3350   -4.6950   19.9340 O   0  0  0  0  0  0  0  0  0  0  0  0
    6.8360   -4.1360   21.5670 N   0  0  0  0  0  0  0  0  0  0  0  0
    7.6880   -3.0650   22.0410 C   0  0  0  0  0  0  0  0  0  0  0  0
    7.6660   -3.1050   23.5650 C   0  0  0  0  0  0  0  0  0  0  0  0
    6.2990   -3.6150   23.9430 C   0  0  0  0  0  0  0  0  0  0  0  0
    6.0790   -3.4130   25.3860 C   0  0  0  0  0  0  0  0  0  0  0  0
    4.8980   -3.3270   25.7910 O   0  0  0  0  0  0  0  0  0  0  0  0
    7.1970   -3.3130   26.2600 N   0  0  0  0  0  0  0  0  0  0  0  0
    7.8700   -2.0620   26.3290 C   0  0  0  0  0  0  0  0  0  0  0  0
    7.1440   -4.0430   27.4970 C   0  0  0  0  0  0  0  0  0  0  0  0
    6.3100   -3.3170   28.2940 C   0  0  0  0  0  0  0  0  0  0  0  0
    6.7610   -2.1830   28.9620 C   0  0  0  0  0  0  0  0  0  0  0  0
    6.0520   -1.3100   29.8190 C   0  0  0  0  0  0  0  0  0  0  0  0
    6.6900   -0.2530   30.3760 O   0  0  0  0  0  0  0  0  0  0  0  0
    7.9720   -0.2600   30.8640 C   0  0  0  0  0  0  0  0  0  0  0  0
    4.5790   -1.6860   30.0230 C   0  0  0  0  0  0  0  0  0  0  0  0
    3.9860   -2.8800   29.3600 C   0  0  0  0  0  0  0  0  0  0  0  0
    2.7730   -3.2690   29.4740 O   0  0  0  0  0  0  0  0  0  0  0  0
    1.8220   -2.9020   28.5030 C   0  0  0  0  0  0  0  0  0  0  0  0
    4.9620   -3.6370   28.5030 C   0  0  0  0  0  0  0  0  0  0  0  0
    6.2080   -5.0740   23.6180 C   0  0  0  0  0  0  0  0  0  0  0  0
    6.5830   -5.3210   22.3210 C   0  0  0  0  0  0  0  0  0  0  0  0
  1  2  1  0
  2  3  2  0
  2  4  1  0
  4  5  1  0
  5  6  1  0
  6  7  1  0
  7  8  1  0
  8  9  2  0
  8 10  1  0
 10 11  1  0
 10 12  1  0
 12 13  1  0
 13 14  2  0
 14 15  1  0
 15 16  1  0
 16 17  1  0
 15 18  2  0
 18 19  1  0
 19 20  1  0
 20 21  1  0
 13 22  1  0
 19 22  2  0
  7 23  1  0
  4 24  1  0
 23 24  1  0
M  END
