piperidine-amides-4171-covalent
     RDKit          3D

 27 29  0  0  0  0  0  0  0  0999 V2000
    7.0540   -3.3420   19.3440 C   0  0  0  0  0  0  0  0  0  0  0  0
    6.3980   -4.1720   20.3670 C   0  0  0  0  0  0  0  0  0  0  0  0
    5.3820   -4.8080   19.9840 O   0  0  0  0  0  0  0  0  0  0  0  0
    6.9090   -4.3110   21.6920 N   0  0  0  0  0  0  0  0  0  0  0  0
    7.6340   -3.2210   22.2820 C   0  0  0  0  0  0  0  0  0  0  0  0
    7.3270   -2.9890   23.6940 C   0  0  0  0  0  0  0  0  0  0  0  0
    6.1310   -3.7150   24.1480 C   0  0  0  0  0  0  0  0  0  0  0  0
    5.6580   -3.3640   25.5390 C   0  0  0  0  0  0  0  0  0  0  0  0
    4.4600   -3.5720   25.7950 O   0  0  0  0  0  0  0  0  0  0  0  0
    6.4490   -2.7820   26.5630 N   0  0  0  0  0  0  0  0  0  0  0  0
    6.3970   -1.4000   26.8870 C   0  0  0  0  0  0  0  0  0  0  0  0
    6.1000   -0.3650   25.9570 C   0  0  0  0  0  0  0  0  0  0  0  0
    6.0570    1.0810   26.4280 C   0  0  0  0  0  0  0  0  0  0  0  0
    6.2870    1.5270   27.7060 C   0  0  0  0  0  0  0  0  0  0  0  0
    6.2000    2.8870   27.9240 F   0  0  0  0  0  0  0  0  0  0  0  0
    6.6170    0.4770   28.7760 C   0  0  0  0  0  0  0  0  0  0  0  0
    6.6460   -0.9430   28.2840 C   0  0  0  0  0  0  0  0  0  0  0  0
    6.9080   -1.7410   29.2820 N   0  0  0  0  0  0  0  0  0  0  0  0
    6.4840   -1.1700   30.4210 C   0  0  0  0  0  0  0  0  0  0  0  0
    5.0780   -1.2560   30.9640 C   0  0  0  0  0  0  0  0  0  0  0  0
    4.8450   -0.5090   32.2720 C   0  0  0  0  0  0  0  0  0  0  0  0
    5.9830    0.2700   32.9650 C   0  0  0  0  0  0  0  0  0  0  0  0
    7.2700    0.2010   32.2240 C   0  0  0  0  0  0  0  0  0  0  0  0
    7.5230   -0.4650   31.0330 C   0  0  0  0  0  0  0  0  0  0  0  0
    8.8140   -0.3660   30.5490 F   0  0  0  0  0  0  0  0  0  0  0  0
    6.1880   -5.1830   23.8800 C   0  0  0  0  0  0  0  0  0  0  0  0
    6.6010   -5.4940   22.4520 C   0  0  0  0  0  0  0  0  0  0  0  0
  1  2  1  0
  2  3  2  0
  2  4  1  0
  4  5  1  0
  5  6  1  0
  6  7  1  0
  7  8  1  0
  8  9  2  0
  8 10  1  0
 10 11  1  0
 11 12  2  0
 12 13  1  0
 13 14  2  0
 14 15  1  0
 14 16  1  0
 11 17  1  0
 16 17  2  0
 17 18  1  0
 18 19  1  0
 19 20  2  0
 20 21  1  0
 21 22  2  0
 22 23  1  0
 19 24  1  0
 23 24  2  0
 24 25  1  0
  7 26  1  0
  4 27  1  0
 26 27  1  0
M  END
