piperidine-amides-33261-covalent
     RDKit          3D

 28 30  0  0  0  0  0  0  0  0999 V2000
    7.1140   -3.3350   19.2610 C   0  0  0  0  0  0  0  0  0  0  0  0
    6.4260   -4.1490   20.2700 C   0  0  0  0  0  0  0  0  0  0  0  0
    5.3320   -4.6620   19.9350 O   0  0  0  0  0  0  0  0  0  0  0  0
    7.0200   -4.3990   21.5300 N   0  0  0  0  0  0  0  0  0  0  0  0
    6.5520   -5.5190   22.2630 C   0  0  0  0  0  0  0  0  0  0  0  0
    5.9230   -5.1740   23.5370 C   0  0  0  0  0  0  0  0  0  0  0  0
    6.4700   -3.9920   24.2410 C   0  0  0  0  0  0  0  0  0  0  0  0
    5.5150   -3.5740   25.3050 C   0  0  0  0  0  0  0  0  0  0  0  0
    4.6160   -2.7510   25.0580 O   0  0  0  0  0  0  0  0  0  0  0  0
    5.6310   -4.1130   26.5810 N   0  0  0  0  0  0  0  0  0  0  0  0
    6.8600   -4.3850   27.1530 C   0  0  0  0  0  0  0  0  0  0  0  0
    7.0890   -5.3870   28.1700 C   0  0  0  0  0  0  0  0  0  0  0  0
    6.0910   -5.0040   29.2530 C   0  0  0  0  0  0  0  0  0  0  0  0
    4.8340   -4.9020   28.7050 C   0  0  1  0  0  0  0  0  0  0  0  0
    4.2510   -4.1310   29.8910 C   0  0  0  0  0  0  0  0  0  0  0  0
    3.9870   -5.3890   30.6780 C   0  0  0  0  0  0  0  0  0  0  0  0
    2.8790   -5.6280   31.3950 N   0  0  0  0  0  0  0  0  0  0  0  0
    2.7800   -6.7910   32.0480 C   0  0  0  0  0  0  0  0  0  0  0  0
    1.5830   -7.1700   32.8830 C   0  0  0  0  0  0  0  0  0  0  0  0
    1.1730   -8.5170   32.9530 O   0  0  0  0  0  0  0  0  0  0  0  0
    0.8580   -6.2650   33.5910 O   0  0  0  0  0  0  0  0  0  0  0  0
   -0.1770   -6.6710   34.4700 C   0  0  0  0  0  0  0  0  0  0  0  0
    0.4040   -7.2400   35.7740 C   0  0  0  0  0  0  0  0  0  0  0  0
    3.9490   -7.7010   31.8910 C   0  0  0  0  0  0  0  0  0  0  0  0
    5.0020   -6.8150   30.8690 S   0  0  0  0  0  0  0  0  0  0  0  0
    4.7440   -3.8680   27.6870 C   0  0  0  0  0  0  0  0  0  0  0  0
    6.8750   -2.8530   23.3740 C   0  0  0  0  0  0  0  0  0  0  0  0
    7.6830   -3.3180   22.2020 C   0  0  0  0  0  0  0  0  0  0  0  0
  1  2  1  0
  2  3  2  0
  2  4  1  0
  4  5  1  0
  5  6  1  0
  6  7  1  0
  7  8  1  0
  8  9  2  0
  8 10  1  0
 10 11  1  0
 11 12  1  0
 12 13  1  0
 13 14  1  0
 14 15  1  1
 15 16  1  0
 16 17  2  0
 17 18  1  0
 18 19  1  0
 19 20  2  0
 19 21  1  0
 21 22  1  0
 22 23  1  0
 18 24  2  0
 16 25  1  0
 24 25  1  0
 10 26  1  0
 14 26  1  0
  7 27  1  0
  4 28  1  0
 27 28  1  0
M  END
