piperidine-amides-14775-covalent
     RDKit          3D

 22 24  0  0  0  0  0  0  0  0999 V2000
    7.0260   -3.3680   19.3940 C   0  0  0  0  0  0  0  0  0  0  0  0
    6.3560   -4.1940   20.3990 C   0  0  0  0  0  0  0  0  0  0  0  0
    5.4230   -4.9160   20.0020 O   0  0  0  0  0  0  0  0  0  0  0  0
    6.7780   -4.1950   21.7620 N   0  0  0  0  0  0  0  0  0  0  0  0
    7.6910   -3.1820   22.2390 C   0  0  0  0  0  0  0  0  0  0  0  0
    7.4900   -3.0020   23.7120 C   0  0  0  0  0  0  0  0  0  0  0  0
    6.0940   -3.5090   23.9510 C   0  0  0  0  0  0  0  0  0  0  0  0
    5.5340   -3.1510   25.3130 C   0  0  0  0  0  0  0  0  0  0  0  0
    4.3110   -3.0610   25.3490 O   0  0  0  0  0  0  0  0  0  0  0  0
    6.3630   -2.9490   26.4240 N   0  0  0  0  0  0  0  0  0  0  0  0
    6.8290   -1.6580   26.8660 C   0  0  2  0  0  0  0  0  0  0  0  0
    7.0140   -1.4950   28.2200 C   0  0  0  0  0  0  0  0  0  0  0  0
    6.5520   -0.2950   28.7120 C   0  0  0  0  0  0  0  0  0  0  0  0
    5.7200    0.8600   28.2150 C   0  0  0  0  0  0  0  0  0  0  0  0
    5.3040    2.0940   28.8660 C   0  0  0  0  0  0  0  0  0  0  0  0
    5.9390    1.7640   29.9900 C   0  0  0  0  0  0  0  0  0  0  0  0
    6.0890    2.6260   31.5330 Cl  0  0  0  0  0  0  0  0  0  0  0  0
    6.4760    0.4470   29.5290 C   0  0  0  0  0  0  0  0  0  0  0  0
    5.8630    0.3840   27.9240 C   0  0  0  0  0  0  0  0  0  0  0  0
    5.8820   -0.5760   26.6740 C   0  0  0  0  0  0  0  0  0  0  0  0
    6.0800   -5.0210   23.8000 C   0  0  0  0  0  0  0  0  0  0  0  0
    6.6130   -5.3860   22.5660 C   0  0  0  0  0  0  0  0  0  0  0  0
  1  2  1  0
  2  3  2  0
  2  4  1  0
  4  5  1  0
  5  6  1  0
  6  7  1  0
  7  8  1  0
  8  9  2  0
  8 10  1  0
 11 10  1  1
 11 12  1  0
 12 13  1  0
 13 14  1  0
 14 15  2  0
 15 16  1  0
 16 17  1  0
 16 18  2  0
 13 19  2  0
 18 19  1  0
 11 20  1  0
 19 20  1  0
  7 21  1  0
  4 22  1  0
 21 22  1  0
M  END
