piperidine-amides-24205-covalent
     RDKit          3D

 24 27  0  0  0  0  0  0  0  0999 V2000
    7.0880   -3.3390   19.2950 C   0  0  0  0  0  0  0  0  0  0  0  0
    6.4250   -4.1860   20.2940 C   0  0  0  0  0  0  0  0  0  0  0  0
    5.3900   -4.8180   19.9840 O   0  0  0  0  0  0  0  0  0  0  0  0
    6.9840   -4.3380   21.5750 N   0  0  0  0  0  0  0  0  0  0  0  0
    6.6610   -5.4950   22.3710 C   0  0  0  0  0  0  0  0  0  0  0  0
    5.8030   -4.9890   23.5360 C   0  0  0  0  0  0  0  0  0  0  0  0
    6.5700   -3.8930   24.2630 C   0  0  0  0  0  0  0  0  0  0  0  0
    5.7170   -3.2950   25.3020 C   0  0  0  0  0  0  0  0  0  0  0  0
    4.5960   -2.8590   24.9660 O   0  0  0  0  0  0  0  0  0  0  0  0
    6.1650   -3.2300   26.6360 N   0  0  0  0  0  0  0  0  0  0  0  0
    5.2560   -2.9110   27.7160 C   0  0  0  0  0  0  0  0  0  0  0  0
    4.8190   -4.2780   28.2280 C   0  0  0  0  0  0  0  0  0  0  0  0
    3.5460   -4.7370   27.9500 C   0  0  0  0  0  0  0  0  0  0  0  0
    3.2590   -5.8990   28.6000 C   0  0  0  0  0  0  0  0  0  0  0  0
    3.5640   -5.8710   29.9360 O   0  0  0  0  0  0  0  0  0  0  0  0
    4.9350   -5.7390   30.2100 C   0  0  0  0  0  0  0  0  0  0  0  0
    5.3070   -4.5370   29.6020 C   0  0  0  0  0  0  0  0  0  0  0  0
    5.7680   -5.1650   27.5140 C   0  0  2  0  0  0  0  0  0  0  0  0
    6.5340   -6.2810   28.1170 C   0  0  0  0  0  0  0  0  0  0  0  0
    8.0450   -6.1530   27.7720 C   0  0  0  0  0  0  0  0  0  0  0  0
    7.3740   -5.3830   26.7240 C   0  0  0  0  0  0  0  0  0  0  0  0
    6.7470   -4.3300   27.3140 C   0  0  1  0  0  0  0  0  0  0  0  0
    6.8620   -2.7530   23.2900 C   0  0  0  0  0  0  0  0  0  0  0  0
    7.7390   -3.2810   22.2010 C   0  0  0  0  0  0  0  0  0  0  0  0
  1  2  1  0
  2  3  2  0
  2  4  1  0
  4  5  1  0
  5  6  1  0
  6  7  1  0
  7  8  1  0
  8  9  2  0
  8 10  1  0
 10 11  1  0
 12 11  1  0
 12 13  1  0
 13 14  1  0
 14 15  1  0
 15 16  1  0
 12 17  1  0
 16 17  1  0
 12 18  1  0
 18 19  1  1
 19 20  1  0
 20 21  1  0
 10 22  1  0
 18 22  1  0
 22 21  1  6
  7 23  1  0
  4 24  1  0
 23 24  1  0
M  END
