piperidine-amides-9066-covalent
     RDKit          3D

 21 22  0  0  0  0  0  0  0  0999 V2000
    7.1180   -3.2990   19.2240 C   0  0  0  0  0  0  0  0  0  0  0  0
    6.3400   -4.0170   20.2340 C   0  0  0  0  0  0  0  0  0  0  0  0
    5.2870   -4.5860   19.8970 O   0  0  0  0  0  0  0  0  0  0  0  0
    6.7860   -4.1160   21.5560 N   0  0  0  0  0  0  0  0  0  0  0  0
    7.6780   -3.1330   22.1430 C   0  0  0  0  0  0  0  0  0  0  0  0
    7.0040   -2.7040   23.4120 C   0  0  0  0  0  0  0  0  0  0  0  0
    6.7180   -3.8850   24.2890 C   0  0  0  0  0  0  0  0  0  0  0  0
    6.0080   -3.4860   25.5310 C   0  0  0  0  0  0  0  0  0  0  0  0
    4.8310   -3.0130   25.4610 O   0  0  0  0  0  0  0  0  0  0  0  0
    6.5880   -3.5960   26.8200 N   0  0  0  0  0  0  0  0  0  0  0  0
    6.2970   -4.7450   27.7200 C   0  0  2  0  0  0  0  0  0  0  0  0
    7.5200   -5.3050   28.3370 C   0  0  0  0  0  0  0  0  0  0  0  0
    5.7820   -5.9300   26.9150 C   0  0  0  0  0  0  0  0  0  0  0  0
    4.4980   -6.3720   27.5810 C   0  0  0  0  0  0  0  0  0  0  0  0
    3.5050   -6.7320   26.4880 C   0  0  0  0  0  0  0  0  0  0  0  0
    2.3730   -7.4890   27.0980 C   0  0  0  0  0  0  0  0  0  0  0  0
    2.1390   -7.3300   28.4460 C   0  0  0  0  0  0  0  0  0  0  0  0
    2.6260   -6.1910   29.0960 C   0  0  0  0  0  0  0  0  0  0  0  0
    3.9660   -5.6900   28.6280 C   0  0  0  0  0  0  0  0  0  0  0  0
    5.9030   -4.9560   23.6050 C   0  0  0  0  0  0  0  0  0  0  0  0
    6.5820   -5.3330   22.3100 C   0  0  0  0  0  0  0  0  0  0  0  0
  1  2  1  0
  2  3  2  0
  2  4  1  0
  4  5  1  0
  5  6  1  0
  6  7  1  0
  7  8  1  0
  8  9  2  0
  8 10  1  0
 10 11  1  0
 11 12  1  6
 11 13  1  0
 13 14  1  0
 14 15  1  0
 15 16  1  0
 16 17  1  0
 17 18  1  0
 14 19  1  0
 18 19  1  0
  7 20  1  0
  4 21  1  0
 20 21  1  0
M  END
