piperidine-amides-19338-covalent
     RDKit          3D

 22 23  0  0  0  0  0  0  0  0999 V2000
    7.1350   -3.3230   19.4140 C   0  0  0  0  0  0  0  0  0  0  0  0
    6.3700   -4.1010   20.3650 C   0  0  0  0  0  0  0  0  0  0  0  0
    5.3450   -4.7230   19.9440 O   0  0  0  0  0  0  0  0  0  0  0  0
    6.7360   -4.2260   21.7210 N   0  0  0  0  0  0  0  0  0  0  0  0
    7.6860   -3.2300   22.2960 C   0  0  0  0  0  0  0  0  0  0  0  0
    6.8350   -2.6500   23.4930 C   0  0  0  0  0  0  0  0  0  0  0  0
    6.0110   -3.8150   23.9700 C   0  0  0  0  0  0  0  0  0  0  0  0
    5.2840   -3.7020   25.3880 C   0  0  0  0  0  0  0  0  0  0  0  0
    4.1900   -4.2300   25.2870 O   0  0  0  0  0  0  0  0  0  0  0  0
    5.9450   -3.0920   26.2990 N   0  0  0  0  0  0  0  0  0  0  0  0
    6.2750   -2.0140   27.1210 C   0  0  0  0  0  0  0  0  0  0  0  0
    6.8900   -1.9470   28.3820 C   0  0  0  0  0  0  0  0  0  0  0  0
    7.1380   -0.8010   29.1110 C   0  0  0  0  0  0  0  0  0  0  0  0
    6.7120    0.3780   28.4830 C   0  0  0  0  0  0  0  0  0  0  0  0
    6.1230    0.2610   27.2470 N   0  0  0  0  0  0  0  0  0  0  0  0
    5.7460   -0.7810   26.2600 C   0  0  0  0  0  0  0  0  0  0  0  0
    5.4670    0.5490   25.9270 C   0  0  0  0  0  0  0  0  0  0  0  0
    6.5500   -4.0460   27.2270 C   0  0  0  0  0  0  0  0  0  0  0  0
    7.2810   -5.0450   26.3280 C   0  0  0  0  0  0  0  0  0  0  0  0
    5.5580   -4.9040   28.0030 C   0  0  0  0  0  0  0  0  0  0  0  0
    6.6980   -5.1660   23.7320 C   0  0  0  0  0  0  0  0  0  0  0  0
    6.6050   -5.4960   22.4100 C   0  0  0  0  0  0  0  0  0  0  0  0
  1  2  1  0
  2  3  2  0
  2  4  1  0
  4  5  1  0
  5  6  1  0
  6  7  1  0
  7  8  1  0
  8  9  2  0
  8 10  1  0
 10 11  1  0
 11 12  2  0
 12 13  1  0
 13 14  2  0
 14 15  1  0
 11 16  1  0
 15 16  2  0
 16 17  1  0
 10 18  1  0
 18 19  1  0
 18 20  1  0
  7 21  1  0
  4 22  1  0
 21 22  1  0
M  END
