piperidine-amides-4820-covalent
     RDKit          3D

 23 26  0  0  0  0  0  0  0  0999 V2000
    7.0820   -3.3440   19.2810 C   0  0  0  0  0  0  0  0  0  0  0  0
    6.3560   -4.1320   20.2960 C   0  0  0  0  0  0  0  0  0  0  0  0
    5.2910   -4.6580   19.9250 O   0  0  0  0  0  0  0  0  0  0  0  0
    6.8780   -4.3220   21.5850 N   0  0  0  0  0  0  0  0  0  0  0  0
    7.5950   -3.2680   22.2280 C   0  0  0  0  0  0  0  0  0  0  0  0
    7.1260   -2.9090   23.5740 C   0  0  0  0  0  0  0  0  0  0  0  0
    6.3130   -3.9170   24.3030 C   0  0  0  0  0  0  0  0  0  0  0  0
    5.4110   -3.2750   25.3030 C   0  0  0  0  0  0  0  0  0  0  0  0
    4.1980   -3.2440   25.0430 O   0  0  0  0  0  0  0  0  0  0  0  0
    5.8750   -2.7070   26.5140 N   0  0  0  0  0  0  0  0  0  0  0  0
    6.4910   -1.3560   26.5490 C   0  0  2  0  0  0  0  0  0  0  0  0
    7.1630   -1.2130   27.6560 C   0  0  2  0  0  0  0  0  0  0  0  0
    6.6850   -1.8400   28.8230 C   0  0  0  0  0  0  0  0  0  0  0  0
    5.4200   -1.4850   29.1300 C   0  0  0  0  0  0  0  0  0  0  0  0
    5.2980   -0.2420   29.6550 C   0  0  0  0  0  0  0  0  0  0  0  0
    5.4240    1.2590   29.5520 C   0  0  0  0  0  0  0  0  0  0  0  0
    5.0840    1.9980   30.6290 C   0  0  0  0  0  0  0  0  0  0  0  0
    5.1090    0.7770   30.3510 C   0  0  0  0  0  0  0  0  0  0  0  0
    5.6090    1.5860   29.1150 C   0  0  0  0  0  0  0  0  0  0  0  0
    5.7040    0.3000   28.6090 C   0  0  0  0  0  0  0  0  0  0  0  0
    6.1780   -0.0830   27.2000 C   0  0  2  0  0  0  0  0  0  0  0  0
    5.5560   -4.8510   23.3490 C   0  0  0  0  0  0  0  0  0  0  0  0
    6.4410   -5.4140   22.4110 C   0  0  0  0  0  0  0  0  0  0  0  0
  1  2  1  0
  2  3  2  0
  2  4  1  0
  4  5  1  0
  5  6  1  0
  6  7  1  0
  7  8  1  0
  8  9  2  0
  8 10  1  0
 11 10  1  1
 11 12  1  0
 12 13  1  1
 13 14  1  0
 14 15  1  0
 15 16  2  0
 16 17  1  0
 17 18  2  0
 18 19  1  0
 15 20  1  0
 19 20  2  0
 11 21  1  0
 12 21  1  0
 21 20  1  1
  7 22  1  0
  4 23  1  0
 22 23  1  0
M  END
