piperidine-amides-35439-covalent
     RDKit          3D

 34 37  0  0  0  0  0  0  0  0999 V2000
    7.1350   -3.3700   19.3650 C   0  0  0  0  0  0  0  0  0  0  0  0
    6.4470   -4.2140   20.3690 C   0  0  0  0  0  0  0  0  0  0  0  0
    5.4340   -4.8110   19.9890 O   0  0  0  0  0  0  0  0  0  0  0  0
    6.9920   -4.3450   21.6610 N   0  0  0  0  0  0  0  0  0  0  0  0
    6.6220   -5.3830   22.5690 C   0  0  0  0  0  0  0  0  0  0  0  0
    5.9240   -4.7820   23.7710 C   0  0  0  0  0  0  0  0  0  0  0  0
    6.5980   -3.4940   24.3310 C   0  0  0  0  0  0  0  0  0  0  0  0
    5.5850   -2.8110   25.1810 C   0  0  0  0  0  0  0  0  0  0  0  0
    4.6640   -2.2360   24.6030 O   0  0  0  0  0  0  0  0  0  0  0  0
    5.5610   -2.7950   26.6020 N   0  0  0  0  0  0  0  0  0  0  0  0
    5.8010   -4.0920   27.0820 C   0  0  0  0  0  0  0  0  0  0  0  0
    6.0990   -5.3070   27.8980 C   0  0  0  0  0  0  0  0  0  0  0  0
    6.1230   -6.4870   27.4050 C   0  0  0  0  0  0  0  0  0  0  0  0
    7.1650   -7.0900   27.6180 O   0  0  0  0  0  0  0  0  0  0  0  0
    5.0590   -6.9990   26.7080 O   0  0  0  0  0  0  0  0  0  0  0  0
    3.7730   -7.2470   27.2630 C   0  0  0  0  0  0  0  0  0  0  0  0
    3.0360   -7.7320   26.2180 C   0  0  0  0  0  0  0  0  0  0  0  0
    6.4210   -5.6750   29.2760 C   0  0  0  0  0  0  0  0  0  0  0  0
    6.3130   -4.3900   29.3820 N   0  0  0  0  0  0  0  0  0  0  0  0
    6.0290   -3.6580   28.3750 N   0  0  0  0  0  0  0  0  0  0  0  0
    5.9750   -2.3090   28.8920 C   0  0  1  0  0  0  0  0  0  0  0  0
    6.4030   -1.1180   28.0730 C   0  0  0  0  0  0  0  0  0  0  0  0
    5.3440   -0.3840   27.6270 F   0  0  0  0  0  0  0  0  0  0  0  0
    7.2670   -0.2930   28.6880 F   0  0  0  0  0  0  0  0  0  0  0  0
    7.1310   -1.3980   26.8980 F   0  0  0  0  0  0  0  0  0  0  0  0
    4.5420   -2.2400   28.6570 C   0  0  0  0  0  0  0  0  0  0  0  0
    4.2790   -2.3850   27.2260 C   0  0  2  0  0  0  0  0  0  0  0  0
    3.1110   -3.2880   26.8480 C   0  0  0  0  0  0  0  0  0  0  0  0
    2.5940   -3.5440   25.4710 C   0  0  0  0  0  0  0  0  0  0  0  0
    1.4580   -4.4740   25.5890 C   0  0  0  0  0  0  0  0  0  0  0  0
    1.3360   -4.7240   26.9230 C   0  0  0  0  0  0  0  0  0  0  0  0
    2.2830   -4.0510   27.7010 O   0  0  0  0  0  0  0  0  0  0  0  0
    7.0530   -2.5820   23.2310 C   0  0  0  0  0  0  0  0  0  0  0  0
    7.8990   -3.3420   22.2280 C   0  0  0  0  0  0  0  0  0  0  0  0
  1  2  1  0
  2  3  2  0
  2  4  1  0
  4  5  1  0
  5  6  1  0
  6  7  1  0
  7  8  1  0
  8  9  2  0
  8 10  1  0
 10 11  1  0
 11 12  2  0
 12 13  1  0
 13 14  2  0
 13 15  1  0
 15 16  1  0
 16 17  1  0
 12 18  1  0
 18 19  2  0
 11 20  1  0
 19 20  1  0
 20 21  1  0
 21 22  1  6
 22 23  1  0
 22 24  1  0
 22 25  1  0
 21 26  1  0
 10 27  1  0
 26 27  1  0
 27 28  1  1
 28 29  2  0
 29 30  1  0
 30 31  2  0
 28 32  1  0
 31 32  1  0
  7 33  1  0
  4 34  1  0
 33 34  1  0
M  END
