piperidine-amides-8554-covalent
     RDKit          3D

 24 25  0  0  0  0  0  0  0  0999 V2000
    7.0410   -3.3100   19.3310 C   0  0  0  0  0  0  0  0  0  0  0  0
    6.3630   -4.1330   20.3350 C   0  0  0  0  0  0  0  0  0  0  0  0
    5.3700   -4.7850   19.9690 O   0  0  0  0  0  0  0  0  0  0  0  0
    6.8510   -4.2140   21.6750 N   0  0  0  0  0  0  0  0  0  0  0  0
    7.6320   -3.1280   22.2160 C   0  0  0  0  0  0  0  0  0  0  0  0
    7.4740   -3.0700   23.7140 C   0  0  0  0  0  0  0  0  0  0  0  0
    6.0920   -3.6150   24.0060 C   0  0  0  0  0  0  0  0  0  0  0  0
    5.5770   -3.2520   25.3800 C   0  0  0  0  0  0  0  0  0  0  0  0
    4.4490   -2.7670   25.3800 O   0  0  0  0  0  0  0  0  0  0  0  0
    6.3330   -3.4670   26.5410 N   0  0  0  0  0  0  0  0  0  0  0  0
    5.7860   -4.1770   27.6690 C   0  0  1  0  0  0  0  0  0  0  0  0
    6.6450   -4.8730   28.5320 C   0  0  0  0  0  0  0  0  0  0  0  0
    5.1960   -3.1730   28.5770 C   0  0  0  0  0  0  0  0  0  0  0  0
    5.4310   -1.7970   28.4600 C   0  0  0  0  0  0  0  0  0  0  0  0
    4.7730   -0.8650   29.4470 C   0  0  0  0  0  0  0  0  0  0  0  0
    5.0570    0.4600   29.2540 O   0  0  0  0  0  0  0  0  0  0  0  0
    3.8380    1.1320   29.1280 C   0  0  0  0  0  0  0  0  0  0  0  0
    3.9610   -1.3030   30.4510 C   0  0  0  0  0  0  0  0  0  0  0  0
    3.6680   -2.7400   30.6350 C   0  0  0  0  0  0  0  0  0  0  0  0
    4.3630   -3.6470   29.5980 C   0  0  0  0  0  0  0  0  0  0  0  0
    4.1000   -4.9790   29.7550 O   0  0  0  0  0  0  0  0  0  0  0  0
    3.6970   -5.6240   30.9190 C   0  0  0  0  0  0  0  0  0  0  0  0
    6.1790   -5.0980   23.8250 C   0  0  0  0  0  0  0  0  0  0  0  0
    6.5510   -5.4330   22.4000 C   0  0  0  0  0  0  0  0  0  0  0  0
  1  2  1  0
  2  3  2  0
  2  4  1  0
  4  5  1  0
  5  6  1  0
  6  7  1  0
  7  8  1  0
  8  9  2  0
  8 10  1  0
 10 11  1  0
 11 12  1  1
 11 13  1  0
 13 14  2  0
 14 15  1  0
 15 16  1  0
 16 17  1  0
 15 18  2  0
 18 19  1  0
 13 20  1  0
 19 20  2  0
 20 21  1  0
 21 22  1  0
  7 23  1  0
  4 24  1  0
 23 24  1  0
M  END
