piperidine-amides-29502-covalent
     RDKit          3D

 27 30  0  0  0  0  0  0  0  0999 V2000
    7.0400   -3.3710   19.3600 C   0  0  0  0  0  0  0  0  0  0  0  0
    6.3770   -4.2270   20.3360 C   0  0  0  0  0  0  0  0  0  0  0  0
    5.3900   -4.8760   19.9930 O   0  0  0  0  0  0  0  0  0  0  0  0
    6.9020   -4.3500   21.6720 N   0  0  0  0  0  0  0  0  0  0  0  0
    7.7640   -3.3100   22.2030 C   0  0  0  0  0  0  0  0  0  0  0  0
    7.4980   -3.0900   23.6580 C   0  0  0  0  0  0  0  0  0  0  0  0
    6.1270   -3.6680   23.9090 C   0  0  0  0  0  0  0  0  0  0  0  0
    5.5470   -3.1770   25.1900 C   0  0  0  0  0  0  0  0  0  0  0  0
    4.9220   -2.1080   25.2200 O   0  0  0  0  0  0  0  0  0  0  0  0
    5.6320   -3.8720   26.4150 N   0  0  0  0  0  0  0  0  0  0  0  0
    6.3790   -3.1820   27.4030 C   0  0  0  0  0  0  0  0  0  0  0  0
    6.8200   -4.2250   28.3950 C   0  0  0  0  0  0  0  0  0  0  0  0
    6.0260   -4.4670   29.4520 C   0  0  0  0  0  0  0  0  0  0  0  0
    4.7820   -5.0620   29.1890 N   0  0  0  0  0  0  0  0  0  0  0  0
    4.3290   -5.7960   30.3380 C   0  0  0  0  0  0  0  0  0  0  0  0
    3.2050   -5.7670   31.0790 N   0  0  0  0  0  0  0  0  0  0  0  0
    3.3400   -6.6610   32.0420 C   0  0  0  0  0  0  0  0  0  0  0  0
    2.4940   -7.0920   33.1390 C   0  0  0  0  0  0  0  0  0  0  0  0
    2.8450   -8.0600   34.0430 C   0  0  0  0  0  0  0  0  0  0  0  0
    4.0640   -8.6930   33.9500 C   0  0  0  0  0  0  0  0  0  0  0  0
    4.9470   -8.3430   32.9240 C   0  0  0  0  0  0  0  0  0  0  0  0
    4.5610   -7.3010   31.9520 C   0  0  0  0  0  0  0  0  0  0  0  0
    5.1300   -6.7350   30.8820 N   0  0  0  0  0  0  0  0  0  0  0  0
    4.7800   -5.4360   27.8430 C   0  0  0  0  0  0  0  0  0  0  0  0
    4.4310   -4.3540   27.0490 C   0  0  0  0  0  0  0  0  0  0  0  0
    6.1560   -5.1680   23.8100 C   0  0  0  0  0  0  0  0  0  0  0  0
    6.7170   -5.5690   22.4360 C   0  0  0  0  0  0  0  0  0  0  0  0
  1  2  1  0
  2  3  2  0
  2  4  1  0
  4  5  1  0
  5  6  1  0
  6  7  1  0
  7  8  1  0
  8  9  2  0
  8 10  1  0
 10 11  1  0
 11 12  1  0
 12 13  1  0
 13 14  1  0
 14 15  1  0
 15 16  2  0
 16 17  1  0
 17 18  2  0
 18 19  1  0
 19 20  2  0
 20 21  1  0
 17 22  1  0
 21 22  2  0
 15 23  1  0
 22 23  1  0
 14 24  1  0
 10 25  1  0
 24 25  1  0
  7 26  1  0
  4 27  1  0
 26 27  1  0
M  END
