piperidine-amides-4585-covalent
     RDKit          3D

 24 25  0  0  0  0  0  0  0  0999 V2000
    7.0910   -3.3020   19.2490 C   0  0  0  0  0  0  0  0  0  0  0  0
    6.3840   -4.1090   20.2690 C   0  0  0  0  0  0  0  0  0  0  0  0
    5.3200   -4.6500   19.9180 O   0  0  0  0  0  0  0  0  0  0  0  0
    6.9270   -4.2910   21.5470 N   0  0  0  0  0  0  0  0  0  0  0  0
    7.6490   -3.2220   22.1600 C   0  0  0  0  0  0  0  0  0  0  0  0
    7.2130   -2.8720   23.5090 C   0  0  0  0  0  0  0  0  0  0  0  0
    6.4780   -3.9310   24.2260 C   0  0  0  0  0  0  0  0  0  0  0  0
    5.7730   -3.3330   25.3860 C   0  0  0  0  0  0  0  0  0  0  0  0
    4.5580   -3.0780   25.2690 O   0  0  0  0  0  0  0  0  0  0  0  0
    6.4440   -3.0600   26.5890 N   0  0  0  0  0  0  0  0  0  0  0  0
    6.4370   -1.7280   27.2360 C   0  0  0  0  0  0  0  0  0  0  0  0
    5.9010   -0.5430   26.5480 C   0  0  0  0  0  0  0  0  0  0  0  0
    5.8770    0.7610   27.1680 C   0  0  0  0  0  0  0  0  0  0  0  0
    6.3700    0.9160   28.4500 C   0  0  0  0  0  0  0  0  0  0  0  0
    6.3640    2.0300   29.0120 O   0  0  0  0  0  0  0  0  0  0  0  0
    5.2340    2.6750   28.8900 C   0  0  0  0  0  0  0  0  0  0  0  0
    5.0250    3.5310   29.9230 F   0  0  0  0  0  0  0  0  0  0  0  0
    5.2370    3.3860   27.7040 F   0  0  0  0  0  0  0  0  0  0  0  0
    4.1550    1.7970   28.8240 F   0  0  0  0  0  0  0  0  0  0  0  0
    6.9250   -0.2730   29.1810 C   0  0  0  0  0  0  0  0  0  0  0  0
    7.5740    0.0560   30.9450 Br  0  0  0  0  0  0  0  0  0  0  0  0
    6.9570   -1.5210   28.6010 C   0  0  0  0  0  0  0  0  0  0  0  0
    5.6390   -4.8260   23.4030 C   0  0  0  0  0  0  0  0  0  0  0  0
    6.4280   -5.3530   22.3780 C   0  0  0  0  0  0  0  0  0  0  0  0
  1  2  1  0
  2  3  2  0
  2  4  1  0
  4  5  1  0
  5  6  1  0
  6  7  1  0
  7  8  1  0
  8  9  2  0
  8 10  1  0
 10 11  1  0
 11 12  2  0
 12 13  1  0
 13 14  2  0
 14 15  1  0
 15 16  1  0
 16 17  1  0
 16 18  1  0
 16 19  1  0
 14 20  1  0
 20 21  1  0
 11 22  1  0
 20 22  2  0
  7 23  1  0
  4 24  1  0
 23 24  1  0
M  END
