piperidine-amides-33040-covalent
     RDKit          3D

 28 30  0  0  0  0  0  0  0  0999 V2000
    6.9690   -3.3660   19.4350 C   0  0  0  0  0  0  0  0  0  0  0  0
    6.3290   -4.2790   20.4330 C   0  0  0  0  0  0  0  0  0  0  0  0
    5.4190   -5.0190   20.0160 O   0  0  0  0  0  0  0  0  0  0  0  0
    6.7660   -4.3210   21.7930 N   0  0  0  0  0  0  0  0  0  0  0  0
    6.6090   -5.5090   22.6220 C   0  0  0  0  0  0  0  0  0  0  0  0
    5.9630   -5.1420   23.9890 C   0  0  0  0  0  0  0  0  0  0  0  0
    5.8590   -3.6560   24.0820 C   0  0  0  0  0  0  0  0  0  0  0  0
    5.1980   -3.0190   25.2980 C   0  0  0  0  0  0  0  0  0  0  0  0
    4.6470   -1.9540   25.0450 O   0  0  0  0  0  0  0  0  0  0  0  0
    5.1500   -3.5370   26.6230 N   0  0  0  0  0  0  0  0  0  0  0  0
    4.3000   -3.1970   27.6870 C   0  0  0  0  0  0  0  0  0  0  0  0
    4.2100   -3.9840   28.8180 C   0  0  0  0  0  0  0  0  0  0  0  0
    5.5220   -4.5010   29.1290 N   0  0  0  0  0  0  0  0  0  0  0  0
    5.6110   -6.1860   28.8550 S   0  0  0  0  0  0  0  0  0  0  0  0
    5.1400   -6.5290   27.4540 O   0  0  0  0  0  0  0  0  0  0  0  0
    7.0510   -6.5400   28.9970 O   0  0  0  0  0  0  0  0  0  0  0  0
    4.6180   -7.0000   30.0930 C   0  0  0  0  0  0  0  0  0  0  0  0
    3.3820   -7.4400   29.6590 C   0  0  0  0  0  0  0  0  0  0  0  0
    2.4890   -8.1230   30.6210 C   0  0  0  0  0  0  0  0  0  0  0  0
    2.9720   -8.3140   32.0480 C   0  0  0  0  0  0  0  0  0  0  0  0
    1.9190   -9.0340   32.8940 C   0  0  0  0  0  0  0  0  0  0  0  0
    2.0680   -9.5710   34.1130 N   0  0  0  0  0  0  0  0  0  0  0  0
    4.2310   -7.8590   32.4620 C   0  0  0  0  0  0  0  0  0  0  0  0
    5.0390   -7.1860   31.4010 C   0  0  0  0  0  0  0  0  0  0  0  0
    6.5320   -3.8400   28.4100 C   0  0  0  0  0  0  0  0  0  0  0  0
    6.3740   -4.0130   27.0570 C   0  0  0  0  0  0  0  0  0  0  0  0
    7.1440   -2.9620   23.7500 C   0  0  0  0  0  0  0  0  0  0  0  0
    7.6190   -3.2650   22.3420 C   0  0  0  0  0  0  0  0  0  0  0  0
  1  2  1  0
  2  3  2  0
  2  4  1  0
  4  5  1  0
  5  6  1  0
  6  7  1  0
  7  8  1  0
  8  9  2  0
  8 10  1  0
 10 11  1  0
 11 12  1  0
 12 13  1  0
 13 14  1  0
 14 15  2  0
 14 16  2  0
 14 17  1  0
 17 18  2  0
 18 19  1  0
 19 20  2  0
 20 21  1  0
 21 22  3  0
 20 23  1  0
 17 24  1  0
 23 24  2  0
 13 25  1  0
 10 26  1  0
 25 26  1  0
  7 27  1  0
  4 28  1  0
 27 28  1  0
M  END
