piperidine-amides-2673-covalent
     RDKit          3D

 25 27  0  0  0  0  0  0  0  0999 V2000
    7.0190   -3.3290   19.3390 C   0  0  0  0  0  0  0  0  0  0  0  0
    6.3520   -4.1730   20.3680 C   0  0  0  0  0  0  0  0  0  0  0  0
    5.3920   -4.8430   19.9850 O   0  0  0  0  0  0  0  0  0  0  0  0
    6.8330   -4.2200   21.6910 N   0  0  0  0  0  0  0  0  0  0  0  0
    6.6960   -5.4090   22.5030 C   0  0  0  0  0  0  0  0  0  0  0  0
    5.9840   -5.0670   23.7840 C   0  0  0  0  0  0  0  0  0  0  0  0
    6.0660   -3.5580   23.9850 C   0  0  0  0  0  0  0  0  0  0  0  0
    5.6110   -3.2270   25.3530 C   0  0  0  0  0  0  0  0  0  0  0  0
    4.3990   -3.2320   25.5960 O   0  0  0  0  0  0  0  0  0  0  0  0
    6.5210   -2.9080   26.3810 N   0  0  0  0  0  0  0  0  0  0  0  0
    6.3940   -1.6330   27.0590 C   0  0  0  0  0  0  0  0  0  0  0  0
    6.9970   -1.5730   28.4240 C   0  0  0  0  0  0  0  0  0  0  0  0
    7.0000   -0.4910   29.2370 C   0  0  0  0  0  0  0  0  0  0  0  0
    6.3820    0.6150   28.7210 C   0  0  0  0  0  0  0  0  0  0  0  0
    6.2320    1.8900   29.3680 N   0  0  0  0  0  0  0  0  0  0  0  0
    5.5310    2.7930   28.5260 C   0  0  0  0  0  0  0  0  0  0  0  0
    5.1180    4.2360   28.7390 C   0  0  0  0  0  0  0  0  0  0  0  0
    5.9080    5.2660   28.1830 N   0  0  0  0  0  0  0  0  0  0  0  0
    6.5990    6.1930   29.0400 C   0  0  0  0  0  0  0  0  0  0  0  0
    5.5600    5.6830   26.8780 C   0  0  0  0  0  0  0  0  0  0  0  0
    5.2370    2.0540   27.3150 N   0  0  0  0  0  0  0  0  0  0  0  0
    5.7470    0.7700   27.4510 C   0  0  0  0  0  0  0  0  0  0  0  0
    5.7410   -0.4270   26.5310 C   0  0  0  0  0  0  0  0  0  0  0  0
    7.3630   -2.9610   23.6230 C   0  0  0  0  0  0  0  0  0  0  0  0
    7.7080   -3.1590   22.1900 C   0  0  0  0  0  0  0  0  0  0  0  0
  1  2  1  0
  2  3  2  0
  2  4  1  0
  4  5  1  0
  5  6  1  0
  6  7  1  0
  7  8  1  0
  8  9  2  0
  8 10  1  0
 10 11  1  0
 11 12  2  0
 12 13  1  0
 13 14  2  0
 14 15  1  0
 15 16  1  0
 16 17  1  0
 17 18  1  0
 18 19  1  0
 18 20  1  0
 16 21  2  0
 14 22  1  0
 21 22  1  0
 11 23  1  0
 22 23  2  0
  7 24  1  0
  4 25  1  0
 24 25  1  0
M  END
