piperidine-amides-1367-covalent
     RDKit          3D

 22 23  0  0  0  0  0  0  0  0999 V2000
    7.1370   -3.2850   19.2710 C   0  0  0  0  0  0  0  0  0  0  0  0
    6.3240   -4.0500   20.2530 C   0  0  0  0  0  0  0  0  0  0  0  0
    5.2530   -4.5550   19.8840 O   0  0  0  0  0  0  0  0  0  0  0  0
    6.8140   -4.2300   21.5590 N   0  0  0  0  0  0  0  0  0  0  0  0
    6.4750   -5.3980   22.3290 C   0  0  0  0  0  0  0  0  0  0  0  0
    5.6550   -4.9020   23.5230 C   0  0  0  0  0  0  0  0  0  0  0  0
    6.4600   -3.8250   24.1710 C   0  0  0  0  0  0  0  0  0  0  0  0
    5.8060   -3.2690   25.3850 C   0  0  0  0  0  0  0  0  0  0  0  0
    4.8120   -2.5640   25.1800 O   0  0  0  0  0  0  0  0  0  0  0  0
    6.2900   -3.5500   26.6750 N   0  0  0  0  0  0  0  0  0  0  0  0
    5.9240   -4.6570   27.4940 C   0  0  0  0  0  0  0  0  0  0  0  0
    6.0710   -5.9320   27.0170 C   0  0  0  0  0  0  0  0  0  0  0  0
    6.8500   -4.6750   28.6950 C   0  0  0  0  0  0  0  0  0  0  0  0
    4.6330   -4.7300   28.0660 C   0  0  0  0  0  0  0  0  0  0  0  0
    4.2480   -6.0010   28.7570 C   0  0  0  0  0  0  0  0  0  0  0  0
    2.8690   -6.1900   29.4200 C   0  0  0  0  0  0  0  0  0  0  0  0
    1.9630   -4.9640   29.2960 C   0  0  0  0  0  0  0  0  0  0  0  0
    2.3580   -3.8170   28.6520 C   0  0  0  0  0  0  0  0  0  0  0  0
    1.6940   -2.6690   28.4600 N   0  0  0  0  0  0  0  0  0  0  0  0
    3.6990   -3.7190   28.0420 C   0  0  0  0  0  0  0  0  0  0  0  0
    6.8580   -2.7030   23.2730 C   0  0  0  0  0  0  0  0  0  0  0  0
    7.5770   -3.2050   22.2230 C   0  0  0  0  0  0  0  0  0  0  0  0
  1  2  1  0
  2  3  2  0
  2  4  1  0
  4  5  1  0
  5  6  1  0
  6  7  1  0
  7  8  1  0
  8  9  2  0
  8 10  1  0
 11 10  1  0
 11 12  1  0
 11 13  1  0
 11 14  1  0
 14 15  2  0
 15 16  1  0
 16 17  2  0
 17 18  1  0
 18 19  1  0
 14 20  1  0
 18 20  2  0
  7 21  1  0
  4 22  1  0
 21 22  1  0
M  END
