piperidine-amides-19695-covalent
     RDKit          3D

 22 24  0  0  0  0  0  0  0  0999 V2000
    7.1120   -3.3060   19.2840 C   0  0  0  0  0  0  0  0  0  0  0  0
    6.3530   -4.0810   20.2960 C   0  0  0  0  0  0  0  0  0  0  0  0
    5.3030   -4.5900   19.9130 O   0  0  0  0  0  0  0  0  0  0  0  0
    6.8610   -4.2530   21.5940 N   0  0  0  0  0  0  0  0  0  0  0  0
    6.6230   -5.4780   22.3230 C   0  0  0  0  0  0  0  0  0  0  0  0
    6.1220   -5.1710   23.7130 C   0  0  0  0  0  0  0  0  0  0  0  0
    6.0310   -3.6590   23.9240 C   0  0  0  0  0  0  0  0  0  0  0  0
    5.5260   -3.4190   25.2920 C   0  0  0  0  0  0  0  0  0  0  0  0
    4.3370   -3.6810   25.5110 O   0  0  0  0  0  0  0  0  0  0  0  0
    6.2920   -2.9000   26.3560 N   0  0  0  0  0  0  0  0  0  0  0  0
    6.2590   -1.4770   26.4920 C   0  0  0  0  0  0  0  0  0  0  0  0
    5.7100   -1.8480   27.8020 C   0  0  0  0  0  0  0  0  0  0  0  0
    4.3770   -1.4960   27.7540 O   0  0  0  0  0  0  0  0  0  0  0  0
    6.1740   -1.3670   28.9940 C   0  0  0  0  0  0  0  0  0  0  0  0
    7.4650   -1.1330   29.2200 C   0  0  0  0  0  0  0  0  0  0  0  0
    7.6260   -0.6650   30.4640 C   0  0  0  0  0  0  0  0  0  0  0  0
    6.4340   -0.6020   31.0190 N   0  0  0  0  0  0  0  0  0  0  0  0
    5.5280   -1.0310   30.1360 N   0  0  0  0  0  0  0  0  0  0  0  0
    4.0950   -1.0870   30.4480 C   0  0  0  0  0  0  0  0  0  0  0  0
    5.8970   -3.3120   27.7060 C   0  0  0  0  0  0  0  0  0  0  0  0
    7.2810   -2.9490   23.6050 C   0  0  0  0  0  0  0  0  0  0  0  0
    7.6360   -3.1850   22.1820 C   0  0  0  0  0  0  0  0  0  0  0  0
  1  2  1  0
  2  3  2  0
  2  4  1  0
  4  5  1  0
  5  6  1  0
  6  7  1  0
  7  8  1  0
  8  9  2  0
  8 10  1  0
 10 11  1  0
 11 12  1  0
 12 13  1  0
 12 14  1  0
 14 15  2  0
 15 16  1  0
 16 17  2  0
 14 18  1  0
 17 18  1  0
 18 19  1  0
 10 20  1  0
 12 20  1  0
  7 21  1  0
  4 22  1  0
 21 22  1  0
M  END
