piperidine-amides-35101-covalent
     RDKit          3D

 32 34  0  0  0  0  0  0  0  0999 V2000
    7.0020   -3.3690   19.3770 C   0  0  0  0  0  0  0  0  0  0  0  0
    6.3730   -4.2730   20.3730 C   0  0  0  0  0  0  0  0  0  0  0  0
    5.3770   -4.8900   19.9900 O   0  0  0  0  0  0  0  0  0  0  0  0
    6.9180   -4.4540   21.6570 N   0  0  0  0  0  0  0  0  0  0  0  0
    6.5540   -5.5830   22.4500 C   0  0  0  0  0  0  0  0  0  0  0  0
    5.6410   -5.1100   23.5460 C   0  0  0  0  0  0  0  0  0  0  0  0
    6.2400   -3.9170   24.3130 C   0  0  0  0  0  0  0  0  0  0  0  0
    5.1880   -3.4350   25.2660 C   0  0  0  0  0  0  0  0  0  0  0  0
    4.1880   -2.9300   24.7650 O   0  0  0  0  0  0  0  0  0  0  0  0
    5.2970   -3.5310   26.6910 N   0  0  0  0  0  0  0  0  0  0  0  0
    6.5760   -3.2670   27.1890 C   0  0  0  0  0  0  0  0  0  0  0  0
    6.7890   -4.3290   28.2600 C   0  0  0  0  0  0  0  0  0  0  0  0
    5.8490   -4.5070   29.1670 C   0  0  0  0  0  0  0  0  0  0  0  0
    4.6360   -4.5270   28.6000 C   0  0  0  0  0  0  0  0  0  0  0  0
    4.3660   -3.4500   27.7800 C   0  0  2  0  0  0  0  0  0  0  0  0
    2.9290   -3.0220   27.4610 C   0  0  0  0  0  0  0  0  0  0  0  0
    2.6280   -4.3420   26.8070 C   0  0  0  0  0  0  0  0  0  0  0  0
    1.1750   -4.3900   26.6050 N   0  0  0  0  0  0  0  0  0  0  0  0
    0.7570   -5.7670   26.6980 C   0  0  0  0  0  0  0  0  0  0  0  0
    1.4140   -6.6590   27.5270 O   0  0  0  0  0  0  0  0  0  0  0  0
   -0.3350   -6.0780   25.8980 O   0  0  0  0  0  0  0  0  0  0  0  0
   -1.6650   -6.1090   26.3360 C   0  0  0  0  0  0  0  0  0  0  0  0
   -1.7360   -6.9180   27.5890 C   0  0  0  0  0  0  0  0  0  0  0  0
   -2.7820   -6.4930   25.4180 C   0  0  0  0  0  0  0  0  0  0  0  0
   -2.0220   -4.8980   27.1760 C   0  0  0  0  0  0  0  0  0  0  0  0
    2.9440   -1.9000   26.4240 C   0  0  0  0  0  0  0  0  0  0  0  0
    2.2770   -0.7110   26.6790 C   0  0  0  0  0  0  0  0  0  0  0  0
    2.0800   -0.3210   27.9880 O   0  0  0  0  0  0  0  0  0  0  0  0
    1.8770   -1.3040   28.9620 C   0  0  0  0  0  0  0  0  0  0  0  0
    2.1080   -2.7550   28.5480 C   0  0  0  0  0  0  0  0  0  0  0  0
    6.7050   -2.8580   23.3080 C   0  0  0  0  0  0  0  0  0  0  0  0
    7.5720   -3.3950   22.3970 C   0  0  0  0  0  0  0  0  0  0  0  0
  1  2  1  0
  2  3  2  0
  2  4  1  0
  4  5  1  0
  5  6  1  0
  6  7  1  0
  7  8  1  0
  8  9  2  0
  8 10  1  0
 10 11  1  0
 11 12  1  0
 12 13  1  0
 13 14  1  0
 10 15  1  0
 14 15  1  0
 15 16  1  6
 16 17  1  0
 17 18  1  0
 18 19  1  0
 19 20  2  0
 19 21  1  0
 22 21  1  0
 22 23  1  0
 22 24  1  0
 22 25  1  0
 16 26  1  0
 26 27  1  0
 27 28  1  0
 28 29  1  0
 16 30  1  0
 29 30  1  0
  7 31  1  0
  4 32  1  0
 31 32  1  0
M  END
