piperidine-amides-3465-covalent
     RDKit          3D

 20 21  0  0  0  0  0  0  0  0999 V2000
    7.1020   -3.2840   19.1750 C   0  0  0  0  0  0  0  0  0  0  0  0
    6.3480   -4.0230   20.1810 C   0  0  0  0  0  0  0  0  0  0  0  0
    5.2760   -4.5430   19.8800 O   0  0  0  0  0  0  0  0  0  0  0  0
    6.8790   -4.2010   21.4980 N   0  0  0  0  0  0  0  0  0  0  0  0
    7.6920   -3.1730   22.1060 C   0  0  0  0  0  0  0  0  0  0  0  0
    7.0020   -2.6160   23.3080 C   0  0  0  0  0  0  0  0  0  0  0  0
    6.5360   -3.7940   24.1400 C   0  0  0  0  0  0  0  0  0  0  0  0
    5.8010   -3.3040   25.3330 C   0  0  0  0  0  0  0  0  0  0  0  0
    4.5560   -3.2270   25.3780 O   0  0  0  0  0  0  0  0  0  0  0  0
    6.5660   -2.9020   26.4540 N   0  0  0  0  0  0  0  0  0  0  0  0
    6.2930   -3.4440   27.7680 C   0  0  0  0  0  0  0  0  0  0  0  0
    5.8920   -4.8950   27.6720 C   0  0  0  0  0  0  0  0  0  0  0  0
    4.4980   -4.8500   27.8780 F   0  0  0  0  0  0  0  0  0  0  0  0
    6.0050   -5.3650   26.3930 F   0  0  0  0  0  0  0  0  0  0  0  0
    6.3900   -5.8130   28.5690 C   0  0  0  0  0  0  0  0  0  0  0  0
    5.4070   -6.3520   29.4090 C   0  0  0  0  0  0  0  0  0  0  0  0
    5.6110   -7.4510   29.9010 C   0  0  0  0  0  0  0  0  0  0  0  0
    4.6080   -7.3880   28.7790 C   0  0  0  0  0  0  0  0  0  0  0  0
    5.7040   -4.8100   23.3950 C   0  0  0  0  0  0  0  0  0  0  0  0
    6.4560   -5.3080   22.3540 C   0  0  0  0  0  0  0  0  0  0  0  0
  1  2  1  0
  2  3  2  0
  2  4  1  0
  4  5  1  0
  5  6  1  0
  6  7  1  0
  7  8  1  0
  8  9  2  0
  8 10  1  0
 10 11  1  0
 11 12  1  0
 12 13  1  0
 12 14  1  0
 12 15  1  0
 15 16  1  0
 16 17  1  0
 16 18  1  0
 17 18  1  0
  7 19  1  0
  4 20  1  0
 19 20  1  0
M  END
