piperidine-amides-8339-covalent
     RDKit          3D

 24 26  0  0  0  0  0  0  0  0999 V2000
    7.0700   -3.2870   19.2850 C   0  0  0  0  0  0  0  0  0  0  0  0
    6.3710   -4.0900   20.2910 C   0  0  0  0  0  0  0  0  0  0  0  0
    5.3380   -4.6850   19.9360 O   0  0  0  0  0  0  0  0  0  0  0  0
    6.8810   -4.2230   21.6170 N   0  0  0  0  0  0  0  0  0  0  0  0
    6.5150   -5.3930   22.3710 C   0  0  0  0  0  0  0  0  0  0  0  0
    6.2830   -5.0570   23.8260 C   0  0  0  0  0  0  0  0  0  0  0  0
    6.0540   -3.5630   23.9340 C   0  0  0  0  0  0  0  0  0  0  0  0
    5.5840   -3.1420   25.2970 C   0  0  0  0  0  0  0  0  0  0  0  0
    4.7080   -2.2850   25.3120 O   0  0  0  0  0  0  0  0  0  0  0  0
    6.1290   -3.7230   26.4410 N   0  0  0  0  0  0  0  0  0  0  0  0
    5.6830   -4.9980   26.8890 C   0  0  0  0  0  0  0  0  0  0  0  0
    5.1180   -5.0610   28.1720 C   0  0  0  0  0  0  0  0  0  0  0  0
    4.1450   -4.1940   28.6550 C   0  0  0  0  0  0  0  0  0  0  0  0
    3.5840   -4.2680   29.9080 C   0  0  0  0  0  0  0  0  0  0  0  0
    2.6120   -3.3680   30.3230 O   0  0  0  0  0  0  0  0  0  0  0  0
    4.1560   -5.3910   30.6640 C   0  0  0  0  0  0  0  0  0  0  0  0
    3.6660   -5.6650   32.1000 C   0  0  0  0  0  0  0  0  0  0  0  0
    4.2200   -6.7800   32.8890 C   0  0  0  0  0  0  0  0  0  0  0  0
    5.2700   -7.6540   32.2820 C   0  0  0  0  0  0  0  0  0  0  0  0
    5.6980   -7.3080   30.8330 C   0  0  0  0  0  0  0  0  0  0  0  0
    5.2130   -6.2740   30.0490 C   0  0  0  0  0  0  0  0  0  0  0  0
    5.7850   -6.2280   28.8290 N   0  0  0  0  0  0  0  0  0  0  0  0
    7.3580   -2.9260   23.6060 C   0  0  0  0  0  0  0  0  0  0  0  0
    7.6670   -3.1260   22.1530 C   0  0  0  0  0  0  0  0  0  0  0  0
  1  2  1  0
  2  3  2  0
  2  4  1  0
  4  5  1  0
  5  6  1  0
  6  7  1  0
  7  8  1  0
  8  9  2  0
  8 10  1  0
 10 11  1  0
 11 12  1  0
 12 13  2  0
 13 14  1  0
 14 15  1  0
 14 16  2  0
 16 17  1  0
 17 18  2  0
 18 19  1  0
 19 20  2  0
 16 21  1  0
 20 21  1  0
 12 22  1  0
 21 22  2  0
  7 23  1  0
  4 24  1  0
 23 24  1  0
M  END
