piperidine-amides-35165-covalent
     RDKit          3D

 32 34  0  0  0  0  0  0  0  0999 V2000
    7.0310   -3.3470   19.3510 C   0  0  0  0  0  0  0  0  0  0  0  0
    6.3730   -4.2220   20.3530 C   0  0  0  0  0  0  0  0  0  0  0  0
    5.3720   -4.8320   19.9780 O   0  0  0  0  0  0  0  0  0  0  0  0
    6.9020   -4.3800   21.6400 N   0  0  0  0  0  0  0  0  0  0  0  0
    6.4460   -5.4640   22.4570 C   0  0  0  0  0  0  0  0  0  0  0  0
    5.4820   -4.9030   23.4740 C   0  0  0  0  0  0  0  0  0  0  0  0
    6.1400   -3.7860   24.3040 C   0  0  0  0  0  0  0  0  0  0  0  0
    5.1360   -3.2700   25.2970 C   0  0  0  0  0  0  0  0  0  0  0  0
    4.3110   -2.4210   24.9640 O   0  0  0  0  0  0  0  0  0  0  0  0
    5.1460   -3.7770   26.6230 N   0  0  0  0  0  0  0  0  0  0  0  0
    6.3480   -4.4290   26.7350 C   0  0  0  0  0  0  0  0  0  0  0  0
    6.4700   -5.4130   27.8630 C   0  0  0  0  0  0  0  0  0  0  0  0
    5.2700   -5.3590   28.6660 N   0  0  0  0  0  0  0  0  0  0  0  0
    5.8160   -6.1670   29.7380 C   0  0  0  0  0  0  0  0  0  0  0  0
    4.9040   -6.6980   30.5770 C   0  0  0  0  0  0  0  0  0  0  0  0
    3.5760   -6.3150   30.5390 O   0  0  0  0  0  0  0  0  0  0  0  0
    5.1560   -7.6230   31.5200 N   0  0  0  0  0  0  0  0  0  0  0  0
    4.2200   -8.0250   32.5570 C   0  0  0  0  0  0  0  0  0  0  0  0
    4.7090   -8.0610   34.0080 C   0  0  0  0  0  0  0  0  0  0  0  0
    3.6950   -8.4990   35.0140 C   0  0  0  0  0  0  0  0  0  0  0  0
    2.3210   -8.8610   34.5680 C   0  0  0  0  0  0  0  0  0  0  0  0
    1.4250   -9.2600   35.5550 O   0  0  0  0  0  0  0  0  0  0  0  0
    1.5690  -10.3870   36.3770 C   0  0  0  0  0  0  0  0  0  0  0  0
    1.4970  -11.5570   35.6690 F   0  0  0  0  0  0  0  0  0  0  0  0
    0.6270  -10.4220   37.3870 F   0  0  0  0  0  0  0  0  0  0  0  0
    2.8520  -10.3360   36.8450 F   0  0  0  0  0  0  0  0  0  0  0  0
    1.8220   -8.8290   33.1510 C   0  0  0  0  0  0  0  0  0  0  0  0
    2.8240   -8.3890   32.0950 C   0  0  0  0  0  0  0  0  0  0  0  0
    4.8010   -4.0470   28.9960 C   0  0  0  0  0  0  0  0  0  0  0  0
    4.9660   -3.0460   27.8610 C   0  0  0  0  0  0  0  0  0  0  0  0
    6.6470   -2.6940   23.3860 C   0  0  0  0  0  0  0  0  0  0  0  0
    7.5090   -3.2440   22.2680 C   0  0  0  0  0  0  0  0  0  0  0  0
  1  2  1  0
  2  3  2  0
  2  4  1  0
  4  5  1  0
  5  6  1  0
  6  7  1  0
  7  8  1  0
  8  9  2  0
  8 10  1  0
 10 11  1  0
 11 12  1  0
 12 13  1  0
 13 14  1  0
 14 15  1  0
 15 16  2  0
 15 17  1  0
 17 18  1  0
 18 19  2  0
 19 20  1  0
 20 21  2  0
 21 22  1  0
 22 23  1  0
 23 24  1  0
 23 25  1  0
 23 26  1  0
 21 27  1  0
 18 28  1  0
 27 28  2  0
 13 29  1  0
 10 30  1  0
 29 30  1  0
  7 31  1  0
  4 32  1  0
 31 32  1  0
M  END
