piperidine-amides-6572-covalent
     RDKit          3D

 24 25  0  0  0  0  0  0  0  0999 V2000
    7.1070   -3.2790   19.3050 C   0  0  0  0  0  0  0  0  0  0  0  0
    6.3860   -4.0910   20.2990 C   0  0  0  0  0  0  0  0  0  0  0  0
    5.3750   -4.7450   19.9570 O   0  0  0  0  0  0  0  0  0  0  0  0
    6.8430   -4.1700   21.6210 N   0  0  0  0  0  0  0  0  0  0  0  0
    7.7110   -3.1180   22.1400 C   0  0  0  0  0  0  0  0  0  0  0  0
    7.4370   -2.9290   23.6420 C   0  0  0  0  0  0  0  0  0  0  0  0
    6.0870   -3.5500   23.9060 C   0  0  0  0  0  0  0  0  0  0  0  0
    5.6200   -3.2260   25.2750 C   0  0  0  0  0  0  0  0  0  0  0  0
    4.4210   -2.9000   25.4150 O   0  0  0  0  0  0  0  0  0  0  0  0
    6.5080   -3.2740   26.3720 N   0  0  0  0  0  0  0  0  0  0  0  0
    6.0930   -3.7760   27.6620 C   0  0  0  0  0  0  0  0  0  0  0  0
    6.2130   -5.2950   27.6970 C   0  0  0  0  0  0  0  0  0  0  0  0
    5.0850   -5.9010   28.3950 N   0  0  0  0  0  0  0  0  0  0  0  0
    3.6830   -5.5340   28.2250 C   0  0  0  0  0  0  0  0  0  0  0  0
    3.2180   -4.7940   29.1400 O   0  0  0  0  0  0  0  0  0  0  0  0
    3.0770   -6.0460   27.1030 C   0  0  0  0  0  0  0  0  0  0  0  0
    1.7550   -6.0480   26.8240 C   0  0  0  0  0  0  0  0  0  0  0  0
    1.2460   -6.5770   25.6790 C   0  0  0  0  0  0  0  0  0  0  0  0
    1.8850   -7.2620   24.4640 C   0  0  0  0  0  0  0  0  0  0  0  0
    1.1270   -7.9910   22.8620 Br  0  0  0  0  0  0  0  0  0  0  0  0
    3.3580   -7.1730   24.9510 C   0  0  0  0  0  0  0  0  0  0  0  0
    3.7580   -6.6100   26.1380 N   0  0  0  0  0  0  0  0  0  0  0  0
    6.0650   -5.0030   23.6940 C   0  0  0  0  0  0  0  0  0  0  0  0
    6.6050   -5.3500   22.3850 C   0  0  0  0  0  0  0  0  0  0  0  0
  1  2  1  0
  2  3  2  0
  2  4  1  0
  4  5  1  0
  5  6  1  0
  6  7  1  0
  7  8  1  0
  8  9  2  0
  8 10  1  0
 10 11  1  0
 11 12  1  0
 12 13  1  0
 13 14  1  0
 14 15  2  0
 14 16  1  0
 16 17  2  0
 17 18  1  0
 18 19  2  0
 19 20  1  0
 19 21  1  0
 16 22  1  0
 21 22  2  0
  7 23  1  0
  4 24  1  0
 23 24  1  0
M  END
