piperidine-amides-27068-covalent
     RDKit          3D

 26 29  0  0  0  0  0  0  0  0999 V2000
    7.0070   -3.3710   19.3990 C   0  0  0  0  0  0  0  0  0  0  0  0
    6.3910   -4.2440   20.4030 C   0  0  0  0  0  0  0  0  0  0  0  0
    5.4050   -4.9220   20.0000 O   0  0  0  0  0  0  0  0  0  0  0  0
    6.9070   -4.3380   21.7060 N   0  0  0  0  0  0  0  0  0  0  0  0
    6.6380   -5.4700   22.5510 C   0  0  0  0  0  0  0  0  0  0  0  0
    5.7900   -5.0170   23.7210 C   0  0  0  0  0  0  0  0  0  0  0  0
    6.3100   -3.7890   24.4590 C   0  0  0  0  0  0  0  0  0  0  0  0
    5.2750   -3.2550   25.4120 C   0  0  0  0  0  0  0  0  0  0  0  0
    4.2890   -2.7190   24.8770 O   0  0  0  0  0  0  0  0  0  0  0  0
    5.2910   -3.2960   26.8530 N   0  0  0  0  0  0  0  0  0  0  0  0
    4.0940   -3.2280   27.6590 C   0  0  0  0  0  0  0  0  0  0  0  0
    4.2730   -3.7660   29.1030 C   0  0  0  0  0  0  0  0  0  0  0  0
    5.1400   -4.9430   29.0740 N   0  0  0  0  0  0  0  0  0  0  0  0
    5.1460   -6.1050   29.6280 C   0  0  0  0  0  0  0  0  0  0  0  0
    4.3320   -6.7790   30.5110 C   0  0  0  0  0  0  0  0  0  0  0  0
    2.9710   -7.0030   30.3220 C   0  0  0  0  0  0  0  0  0  0  0  0
    2.2600   -7.7030   31.2840 C   0  0  0  0  0  0  0  0  0  0  0  0
    2.8610   -8.1860   32.4240 C   0  0  0  0  0  0  0  0  0  0  0  0
    4.3200   -8.0060   32.7330 C   0  0  0  0  0  0  0  0  0  0  0  0
    5.0250   -7.2280   31.6250 C   0  0  0  0  0  0  0  0  0  0  0  0
    6.2310   -6.7650   29.1980 C   0  0  0  0  0  0  0  0  0  0  0  0
    6.9360   -5.9860   28.3380 N   0  0  0  0  0  0  0  0  0  0  0  0
    6.2810   -4.7850   28.2150 C   0  0  0  0  0  0  0  0  0  0  0  0
    6.4460   -3.5950   27.5230 C   0  0  0  0  0  0  0  0  0  0  0  0
    6.6720   -2.7150   23.4360 C   0  0  0  0  0  0  0  0  0  0  0  0
    7.6140   -3.2580   22.3660 C   0  0  0  0  0  0  0  0  0  0  0  0
  1  2  1  0
  2  3  2  0
  2  4  1  0
  4  5  1  0
  5  6  1  0
  6  7  1  0
  7  8  1  0
  8  9  2  0
  8 10  1  0
 10 11  1  0
 11 12  1  0
 12 13  1  0
 13 14  1  0
 14 15  1  0
 15 16  2  0
 16 17  1  0
 17 18  2  0
 18 19  1  0
 15 20  1  0
 19 20  2  0
 14 21  2  0
 21 22  1  0
 13 23  1  0
 22 23  2  0
 10 24  1  0
 23 24  1  0
  7 25  1  0
  4 26  1  0
 25 26  1  0
M  END
