piperidine-amides-6886-covalent
     RDKit          3D

 22 23  0  0  0  0  0  0  0  0999 V2000
    7.0530   -3.3440   19.3610 C   0  0  0  0  0  0  0  0  0  0  0  0
    6.3390   -4.1770   20.3410 C   0  0  0  0  0  0  0  0  0  0  0  0
    5.3690   -4.8770   19.9840 O   0  0  0  0  0  0  0  0  0  0  0  0
    6.7610   -4.2240   21.6760 N   0  0  0  0  0  0  0  0  0  0  0  0
    7.6550   -3.1850   22.1540 C   0  0  0  0  0  0  0  0  0  0  0  0
    7.4780   -3.0790   23.6680 C   0  0  0  0  0  0  0  0  0  0  0  0
    6.0940   -3.6050   23.9550 C   0  0  0  0  0  0  0  0  0  0  0  0
    5.6780   -3.2040   25.3140 C   0  0  0  0  0  0  0  0  0  0  0  0
    4.4680   -3.2750   25.6150 O   0  0  0  0  0  0  0  0  0  0  0  0
    6.6630   -2.7630   26.2230 N   0  0  0  0  0  0  0  0  0  0  0  0
    6.5210   -1.5660   27.0140 C   0  0  0  0  0  0  0  0  0  0  0  0
    7.0270   -1.5710   28.4320 C   0  0  0  0  0  0  0  0  0  0  0  0
    6.9110   -0.4560   29.2000 C   0  0  0  0  0  0  0  0  0  0  0  0
    7.3730   -0.4820   30.4750 F   0  0  0  0  0  0  0  0  0  0  0  0
    6.3310    0.6680   28.6720 C   0  0  0  0  0  0  0  0  0  0  0  0
    6.1740    2.1150   29.6490 Cl  0  0  0  0  0  0  0  0  0  0  0  0
    5.8360    0.7490   27.3640 C   0  0  0  0  0  0  0  0  0  0  0  0
    5.8940   -0.3180   26.4820 C   0  0  0  0  0  0  0  0  0  0  0  0
    5.4370   -0.3050   25.2160 O   0  0  0  0  0  0  0  0  0  0  0  0
    4.2740   -0.7560   24.6880 C   0  0  0  0  0  0  0  0  0  0  0  0
    5.9850   -5.0760   23.7230 C   0  0  0  0  0  0  0  0  0  0  0  0
    6.6650   -5.4540   22.4430 C   0  0  0  0  0  0  0  0  0  0  0  0
  1  2  1  0
  2  3  2  0
  2  4  1  0
  4  5  1  0
  5  6  1  0
  6  7  1  0
  7  8  1  0
  8  9  2  0
  8 10  1  0
 10 11  1  0
 11 12  2  0
 12 13  1  0
 13 14  1  0
 13 15  2  0
 15 16  1  0
 15 17  1  0
 11 18  1  0
 17 18  2  0
 18 19  1  0
 19 20  1  0
  7 21  1  0
  4 22  1  0
 21 22  1  0
M  END
