piperidine-amides-1264-covalent
     RDKit          3D

 22 23  0  0  0  0  0  0  0  0999 V2000
    7.1010   -3.3300   19.2920 C   0  0  0  0  0  0  0  0  0  0  0  0
    6.4050   -4.1890   20.2860 C   0  0  0  0  0  0  0  0  0  0  0  0
    5.3600   -4.7690   19.9600 O   0  0  0  0  0  0  0  0  0  0  0  0
    6.9890   -4.3660   21.5550 N   0  0  0  0  0  0  0  0  0  0  0  0
    7.7770   -3.3430   22.1960 C   0  0  0  0  0  0  0  0  0  0  0  0
    6.8670   -2.6810   23.2180 C   0  0  0  0  0  0  0  0  0  0  0  0
    6.4810   -3.7600   24.1620 C   0  0  0  0  0  0  0  0  0  0  0  0
    5.6800   -3.2530   25.2830 C   0  0  0  0  0  0  0  0  0  0  0  0
    4.4530   -3.2170   25.1410 O   0  0  0  0  0  0  0  0  0  0  0  0
    6.3410   -2.8360   26.4260 N   0  0  0  0  0  0  0  0  0  0  0  0
    6.3380   -1.5620   27.0350 C   0  0  0  0  0  0  0  0  0  0  0  0
    6.1360   -0.3460   26.4300 C   0  0  0  0  0  0  0  0  0  0  0  0
    6.1520    0.8900   27.1150 C   0  0  0  0  0  0  0  0  0  0  0  0
    5.9590    2.1470   26.5900 C   0  0  0  0  0  0  0  0  0  0  0  0
    6.0430    2.4220   25.2690 N   0  0  0  0  0  0  0  0  0  0  0  0
    6.4080    0.8990   28.5840 C   0  0  0  0  0  0  0  0  0  0  0  0
    6.4330    2.0950   29.2750 F   0  0  0  0  0  0  0  0  0  0  0  0
    6.6440   -0.4070   29.3430 C   0  0  0  0  0  0  0  0  0  0  0  0
    6.5670   -1.5880   28.3950 C   0  0  0  0  0  0  0  0  0  0  0  0
    6.7120   -2.8810   28.8170 C   0  0  0  0  0  0  0  0  0  0  0  0
    5.7710   -4.9170   23.5460 C   0  0  0  0  0  0  0  0  0  0  0  0
    6.5360   -5.4740   22.3610 C   0  0  0  0  0  0  0  0  0  0  0  0
  1  2  1  0
  2  3  2  0
  2  4  1  0
  4  5  1  0
  5  6  1  0
  6  7  1  0
  7  8  1  0
  8  9  2  0
  8 10  1  0
 10 11  1  0
 11 12  2  0
 12 13  1  0
 13 14  1  0
 14 15  3  0
 13 16  2  0
 16 17  1  0
 16 18  1  0
 11 19  1  0
 18 19  2  0
 19 20  1  0
  7 21  1  0
  4 22  1  0
 21 22  1  0
M  END
