piperidine-amides-29611-covalent
     RDKit          3D

 27 29  0  0  0  0  0  0  0  0999 V2000
    7.1340   -3.2890   19.2950 C   0  0  0  0  0  0  0  0  0  0  0  0
    6.3370   -4.0330   20.2620 C   0  0  0  0  0  0  0  0  0  0  0  0
    5.2950   -4.5820   19.9030 O   0  0  0  0  0  0  0  0  0  0  0  0
    6.7940   -4.1770   21.6200 N   0  0  0  0  0  0  0  0  0  0  0  0
    7.6930   -3.1870   22.1860 C   0  0  0  0  0  0  0  0  0  0  0  0
    7.3610   -2.9390   23.6300 C   0  0  0  0  0  0  0  0  0  0  0  0
    6.0280   -3.6090   23.8580 C   0  0  0  0  0  0  0  0  0  0  0  0
    5.4380   -3.2870   25.1840 C   0  0  0  0  0  0  0  0  0  0  0  0
    4.2190   -3.0730   25.3010 O   0  0  0  0  0  0  0  0  0  0  0  0
    6.2260   -3.2250   26.3550 N   0  0  0  0  0  0  0  0  0  0  0  0
    6.4960   -1.8620   26.8230 C   0  0  0  0  0  0  0  0  0  0  0  0
    5.4060   -1.3890   27.7550 C   0  0  0  0  0  0  0  0  0  0  0  0
    4.9140   -2.1800   28.7520 N   0  0  0  0  0  0  0  0  0  0  0  0
    3.9500   -1.6690   29.5600 C   0  0  0  0  0  0  0  0  0  0  0  0
    3.2250   -2.4430   30.4980 C   0  0  0  0  0  0  0  0  0  0  0  0
    2.2520   -1.9310   31.3220 C   0  0  0  0  0  0  0  0  0  0  0  0
    1.9850   -0.5290   31.1930 C   0  0  0  0  0  0  0  0  0  0  0  0
    2.6660    0.2360   30.2990 C   0  0  0  0  0  0  0  0  0  0  0  0
    3.6410   -0.3120   29.4840 C   0  0  0  0  0  0  0  0  0  0  0  0
    4.3240    0.4630   28.5820 C   0  0  0  0  0  0  0  0  0  0  0  0
    4.2970    1.8080   28.8260 O   0  0  0  0  0  0  0  0  0  0  0  0
    4.9390   -0.1310   27.5760 N   0  0  0  0  0  0  0  0  0  0  0  0
    5.9880   -4.1240   27.4720 C   0  0  0  0  0  0  0  0  0  0  0  0
    6.0520   -5.4990   27.2490 C   0  0  0  0  0  0  0  0  0  0  0  0
    6.7670   -3.8680   28.6970 C   0  0  0  0  0  0  0  0  0  0  0  0
    6.1500   -5.1040   23.7180 C   0  0  0  0  0  0  0  0  0  0  0  0
    6.6400   -5.4400   22.3020 C   0  0  0  0  0  0  0  0  0  0  0  0
  1  2  1  0
  2  3  2  0
  2  4  1  0
  4  5  1  0
  5  6  1  0
  6  7  1  0
  7  8  1  0
  8  9  2  0
  8 10  1  0
 10 11  1  0
 11 12  1  0
 12 13  2  0
 13 14  1  0
 14 15  2  0
 15 16  1  0
 16 17  2  0
 17 18  1  0
 14 19  1  0
 18 19  2  0
 19 20  1  0
 20 21  2  0
 12 22  1  0
 20 22  1  0
 10 23  1  0
 23 24  1  0
 23 25  1  0
  7 26  1  0
  4 27  1  0
 26 27  1  0
M  END
