piperidine-amides-12325-covalent
     RDKit          3D

 24 25  0  0  0  0  0  0  0  0999 V2000
    6.9960   -3.3600   19.3350 C   0  0  0  0  0  0  0  0  0  0  0  0
    6.3080   -4.1940   20.3190 C   0  0  0  0  0  0  0  0  0  0  0  0
    5.3360   -4.8610   19.9750 O   0  0  0  0  0  0  0  0  0  0  0  0
    6.7730   -4.2830   21.6750 N   0  0  0  0  0  0  0  0  0  0  0  0
    7.6030   -3.2290   22.2070 C   0  0  0  0  0  0  0  0  0  0  0  0
    7.3410   -3.0570   23.6730 C   0  0  0  0  0  0  0  0  0  0  0  0
    6.0130   -3.7290   23.9600 C   0  0  0  0  0  0  0  0  0  0  0  0
    5.4480   -3.3380   25.3010 C   0  0  0  0  0  0  0  0  0  0  0  0
    4.2230   -3.1630   25.4370 O   0  0  0  0  0  0  0  0  0  0  0  0
    6.2680   -3.1550   26.4560 N   0  0  0  0  0  0  0  0  0  0  0  0
    6.9440   -1.8860   26.6300 C   0  0  2  0  0  0  0  0  0  0  0  0
    8.1860   -2.3040   25.8760 C   0  0  0  0  0  0  0  0  0  0  0  0
    8.4730   -3.6380   26.1020 O   0  0  0  0  0  0  0  0  0  0  0  0
    9.0170   -1.6200   25.0250 O   0  0  0  0  0  0  0  0  0  0  0  0
   10.0230   -2.1830   24.2330 C   0  0  0  0  0  0  0  0  0  0  0  0
    7.4020   -1.7780   28.0370 C   0  0  0  0  0  0  0  0  0  0  0  0
    6.7680   -0.8650   28.8400 C   0  0  0  0  0  0  0  0  0  0  0  0
    5.5730   -0.4360   28.3660 O   0  0  0  0  0  0  0  0  0  0  0  0
    5.5420    0.0320   27.0790 C   0  0  0  0  0  0  0  0  0  0  0  0
    6.1350    1.2720   26.9950 C   0  0  0  0  0  0  0  0  0  0  0  0
    4.2460   -0.1730   26.7190 C   0  0  0  0  0  0  0  0  0  0  0  0
    6.2970   -0.7460   26.1870 C   0  0  0  0  0  0  0  0  0  0  0  0
    5.9910   -5.1610   23.7190 C   0  0  0  0  0  0  0  0  0  0  0  0
    6.5610   -5.4630   22.4840 C   0  0  0  0  0  0  0  0  0  0  0  0
  1  2  1  0
  2  3  2  0
  2  4  1  0
  4  5  1  0
  5  6  1  0
  6  7  1  0
  7  8  1  0
  8  9  2  0
  8 10  1  0
 11 10  1  1
 11 12  1  0
 12 13  2  0
 12 14  1  0
 14 15  1  0
 11 16  1  0
 16 17  1  0
 17 18  1  0
 18 19  1  0
 19 20  1  0
 19 21  1  0
 11 22  1  0
 19 22  1  0
  7 23  1  0
  4 24  1  0
 23 24  1  0
M  END
