piperidine-amides-4005-covalent
     RDKit          3D

 28 30  0  0  0  0  0  0  0  0999 V2000
    7.1210   -3.3370   19.3110 C   0  0  0  0  0  0  0  0  0  0  0  0
    6.3940   -4.1300   20.3120 C   0  0  0  0  0  0  0  0  0  0  0  0
    5.3260   -4.6690   19.9340 O   0  0  0  0  0  0  0  0  0  0  0  0
    6.9150   -4.3190   21.6180 N   0  0  0  0  0  0  0  0  0  0  0  0
    7.6540   -3.2470   22.2010 C   0  0  0  0  0  0  0  0  0  0  0  0
    7.3640   -3.0480   23.6130 C   0  0  0  0  0  0  0  0  0  0  0  0
    6.1330   -3.7310   24.0530 C   0  0  0  0  0  0  0  0  0  0  0  0
    5.7150   -3.3410   25.4350 C   0  0  0  0  0  0  0  0  0  0  0  0
    4.5160   -3.4580   25.7470 O   0  0  0  0  0  0  0  0  0  0  0  0
    6.6120   -2.8300   26.3900 N   0  0  0  0  0  0  0  0  0  0  0  0
    6.4790   -1.6070   27.0760 C   0  0  0  0  0  0  0  0  0  0  0  0
    6.1540   -0.3290   26.5030 C   0  0  0  0  0  0  0  0  0  0  0  0
    6.0240    0.9320   27.3660 C   0  0  0  0  0  0  0  0  0  0  0  0
    6.1820    1.0460   28.7450 C   0  0  0  0  0  0  0  0  0  0  0  0
    5.9930    2.6470   29.7830 Br  0  0  0  0  0  0  0  0  0  0  0  0
    6.5300   -0.3580   29.3090 C   0  0  0  0  0  0  0  0  0  0  0  0
    6.6910   -0.3810   30.7070 O   0  0  0  0  0  0  0  0  0  0  0  0
    7.7130    0.4340   31.2050 C   0  0  0  0  0  0  0  0  0  0  0  0
    7.1690    1.6020   32.0490 C   0  0  0  0  0  0  0  0  0  0  0  0
    7.6940    1.7960   33.4620 C   0  0  0  0  0  0  0  0  0  0  0  0
    9.1190    1.2530   33.4870 C   0  0  0  0  0  0  0  0  0  0  0  0
    9.5470    0.5590   34.7860 C   0  0  0  0  0  0  0  0  0  0  0  0
    8.4460   -0.2990   35.2840 C   0  0  0  0  0  0  0  0  0  0  0  0
    7.1540    0.1140   34.9840 C   0  0  0  0  0  0  0  0  0  0  0  0
    6.9120    1.3980   34.5460 C   0  0  0  0  0  0  0  0  0  0  0  0
    6.6560   -1.4970   28.5420 C   0  0  0  0  0  0  0  0  0  0  0  0
    6.2420   -5.2120   23.8340 C   0  0  0  0  0  0  0  0  0  0  0  0
    6.5370   -5.4800   22.3650 C   0  0  0  0  0  0  0  0  0  0  0  0
  1  2  1  0
  2  3  2  0
  2  4  1  0
  4  5  1  0
  5  6  1  0
  6  7  1  0
  7  8  1  0
  8  9  2  0
  8 10  1  0
 10 11  1  0
 11 12  2  0
 12 13  1  0
 13 14  2  0
 14 15  1  0
 14 16  1  0
 16 17  1  0
 17 18  1  0
 18 19  1  0
 19 20  1  0
 20 21  1  0
 21 22  1  0
 22 23  1  0
 23 24  1  0
 20 25  1  0
 24 25  1  0
 11 26  1  0
 16 26  2  0
  7 27  1  0
  4 28  1  0
 27 28  1  0
M  END
