piperidine-amides-4607-covalent
     RDKit          3D

 24 25  0  0  0  0  0  0  0  0999 V2000
    7.1060   -3.2810   19.2480 C   0  0  0  0  0  0  0  0  0  0  0  0
    6.3830   -4.0650   20.2790 C   0  0  0  0  0  0  0  0  0  0  0  0
    5.3220   -4.6130   19.9100 O   0  0  0  0  0  0  0  0  0  0  0  0
    6.9000   -4.2150   21.5800 N   0  0  0  0  0  0  0  0  0  0  0  0
    6.5840   -5.3670   22.3570 C   0  0  0  0  0  0  0  0  0  0  0  0
    5.9990   -5.0280   23.6550 C   0  0  0  0  0  0  0  0  0  0  0  0
    5.9760   -3.5720   23.9110 C   0  0  0  0  0  0  0  0  0  0  0  0
    5.5620   -3.2680   25.3040 C   0  0  0  0  0  0  0  0  0  0  0  0
    4.3620   -3.0020   25.5060 O   0  0  0  0  0  0  0  0  0  0  0  0
    6.4770   -3.2680   26.3670 N   0  0  0  0  0  0  0  0  0  0  0  0
    6.1310   -2.8000   27.7240 C   0  0  0  0  0  0  0  0  0  0  0  0
    5.8680   -3.8960   28.7080 C   0  0  1  0  0  0  0  0  0  0  0  0
    4.5040   -3.9570   29.2220 C   0  0  0  0  0  0  0  0  0  0  0  0
    4.1170   -5.0280   30.0020 C   0  0  0  0  0  0  0  0  0  0  0  0
    4.7530   -6.2570   29.9050 C   0  0  2  0  0  0  0  0  0  0  0  0
    4.8420   -7.0390   31.0170 C   0  0  0  0  0  0  0  0  0  0  0  0
    4.0140   -8.1720   30.9780 O   0  0  0  0  0  0  0  0  0  0  0  0
    5.6960   -6.7570   32.1100 O   0  0  0  0  0  0  0  0  0  0  0  0
    5.4930   -7.7130   33.1050 C   0  0  0  0  0  0  0  0  0  0  0  0
    4.1580   -7.9110   33.3150 C   0  0  0  0  0  0  0  0  0  0  0  0
    5.9070   -6.3200   29.1620 C   0  0  0  0  0  0  0  0  0  0  0  0
    6.4520   -5.1200   28.5170 C   0  0  0  0  0  0  0  0  0  0  0  0
    7.2620   -2.8880   23.6000 C   0  0  0  0  0  0  0  0  0  0  0  0
    7.7100   -3.1700   22.1900 C   0  0  0  0  0  0  0  0  0  0  0  0
  1  2  1  0
  2  3  2  0
  2  4  1  0
  4  5  1  0
  5  6  1  0
  6  7  1  0
  7  8  1  0
  8  9  2  0
  8 10  1  0
 10 11  1  0
 12 11  1  6
 12 13  1  0
 13 14  1  0
 14 15  1  0
 15 16  1  1
 16 17  2  0
 16 18  1  0
 18 19  1  0
 19 20  1  0
 15 21  1  0
 12 22  1  0
 21 22  1  0
  7 23  1  0
  4 24  1  0
 23 24  1  0
M  END
