piperidine-amides-13655-covalent
     RDKit          3D

 27 29  0  0  0  0  0  0  0  0999 V2000
    7.0800   -3.3410   19.3160 C   0  0  0  0  0  0  0  0  0  0  0  0
    6.3230   -4.1440   20.3090 C   0  0  0  0  0  0  0  0  0  0  0  0
    5.3030   -4.7480   19.9490 O   0  0  0  0  0  0  0  0  0  0  0  0
    6.8200   -4.2350   21.6220 N   0  0  0  0  0  0  0  0  0  0  0  0
    7.6290   -3.1690   22.1730 C   0  0  0  0  0  0  0  0  0  0  0  0
    7.5050   -3.2140   23.6960 C   0  0  0  0  0  0  0  0  0  0  0  0
    6.1170   -3.6560   24.0080 C   0  0  0  0  0  0  0  0  0  0  0  0
    5.6580   -3.1330   25.3130 C   0  0  0  0  0  0  0  0  0  0  0  0
    4.4390   -3.1160   25.5120 O   0  0  0  0  0  0  0  0  0  0  0  0
    6.6050   -2.6950   26.2320 N   0  0  0  0  0  0  0  0  0  0  0  0
    6.5410   -1.5850   27.1160 C   0  0  0  0  0  0  0  0  0  0  0  0
    6.0040   -0.3970   26.6320 C   0  0  0  0  0  0  0  0  0  0  0  0
    5.8620    0.7680   27.3290 C   0  0  0  0  0  0  0  0  0  0  0  0
    6.2750    0.7750   28.5830 C   0  0  0  0  0  0  0  0  0  0  0  0
    6.1760    1.9760   29.4520 C   0  0  0  0  0  0  0  0  0  0  0  0
    6.5920    2.2150   30.8940 C   0  0  0  0  0  0  0  0  0  0  0  0
    6.1470    3.6270   30.9690 C   0  0  0  0  0  0  0  0  0  0  0  0
    6.2270    4.4880   32.0450 C   0  0  0  0  0  0  0  0  0  0  0  0
    6.9080    4.1060   33.1700 F   0  0  0  0  0  0  0  0  0  0  0  0
    4.9010    4.6820   32.5280 F   0  0  0  0  0  0  0  0  0  0  0  0
    6.5960    5.7870   31.6290 F   0  0  0  0  0  0  0  0  0  0  0  0
    5.6060    4.0930   29.8420 N   0  0  0  0  0  0  0  0  0  0  0  0
    5.6100    3.1060   28.8990 N   0  0  0  0  0  0  0  0  0  0  0  0
    6.8120   -0.3630   29.1100 C   0  0  0  0  0  0  0  0  0  0  0  0
    7.0680   -1.7680   28.5350 C   0  0  0  0  0  0  0  0  0  0  0  0
    6.0960   -5.1120   23.8220 C   0  0  0  0  0  0  0  0  0  0  0  0
    6.5920   -5.4270   22.3960 C   0  0  0  0  0  0  0  0  0  0  0  0
  1  2  1  0
  2  3  2  0
  2  4  1  0
  4  5  1  0
  5  6  1  0
  6  7  1  0
  7  8  1  0
  8  9  2  0
  8 10  1  0
 10 11  1  0
 11 12  2  0
 12 13  1  0
 13 14  2  0
 14 15  1  0
 15 16  1  0
 16 17  2  0
 17 18  1  0
 18 19  1  0
 18 20  1  0
 18 21  1  0
 17 22  1  0
 15 23  2  0
 22 23  1  0
 14 24  1  0
 11 25  1  0
 24 25  2  0
  7 26  1  0
  4 27  1  0
 26 27  1  0
M  END
