piperidine-amides-26019-covalent
     RDKit          3D

 25 27  0  0  0  0  0  0  0  0999 V2000
    7.0760   -3.3200   19.2800 C   0  0  0  0  0  0  0  0  0  0  0  0
    6.3190   -4.0900   20.2650 C   0  0  0  0  0  0  0  0  0  0  0  0
    5.2770   -4.6620   19.9200 O   0  0  0  0  0  0  0  0  0  0  0  0
    6.7840   -4.2410   21.5770 N   0  0  0  0  0  0  0  0  0  0  0  0
    6.6830   -5.4990   22.2790 C   0  0  0  0  0  0  0  0  0  0  0  0
    6.0240   -5.1670   23.5950 C   0  0  0  0  0  0  0  0  0  0  0  0
    6.0210   -3.6870   23.8700 C   0  0  0  0  0  0  0  0  0  0  0  0
    5.6330   -3.3440   25.2670 C   0  0  0  0  0  0  0  0  0  0  0  0
    4.4180   -3.0930   25.5410 O   0  0  0  0  0  0  0  0  0  0  0  0
    6.5650   -3.2700   26.3320 N   0  0  0  0  0  0  0  0  0  0  0  0
    6.2470   -2.7690   27.6940 C   0  0  0  0  0  0  0  0  0  0  0  0
    7.2140   -3.6250   28.4530 C   0  0  0  0  0  0  0  0  0  0  0  0
    7.2950   -3.9530   27.0640 C   0  0  0  0  0  0  0  0  0  0  0  0
    8.0210   -3.0920   26.4730 O   0  0  0  0  0  0  0  0  0  0  0  0
    6.7010   -4.9930   26.4970 O   0  0  0  0  0  0  0  0  0  0  0  0
    5.7380   -5.8020   27.1610 C   0  0  0  0  0  0  0  0  0  0  0  0
    6.3210   -6.2930   28.4800 C   0  0  0  0  0  0  0  0  0  0  0  0
    8.2260   -4.6910   28.1750 C   0  0  0  0  0  0  0  0  0  0  0  0
    8.4280   -5.0980   26.8470 N   0  0  0  0  0  0  0  0  0  0  0  0
    9.3150   -5.9520   27.2110 C   0  0  0  0  0  0  0  0  0  0  0  0
    9.0520   -5.8590   25.8610 C   0  0  0  0  0  0  0  0  0  0  0  0
    8.0800   -4.9130   25.5590 N   0  0  0  0  0  0  0  0  0  0  0  0
    7.5280   -4.1960   26.7300 C   0  0  0  0  0  0  0  0  0  0  0  0
    7.3040   -2.9630   23.5450 C   0  0  0  0  0  0  0  0  0  0  0  0
    7.6980   -3.2540   22.1210 C   0  0  0  0  0  0  0  0  0  0  0  0
  1  2  1  0
  2  3  2  0
  2  4  1  0
  4  5  1  0
  5  6  1  0
  6  7  1  0
  7  8  1  0
  8  9  2  0
  8 10  1  0
 10 11  1  0
 11 12  1  0
 12 13  1  0
 13 14  2  0
 13 15  1  0
 15 16  1  0
 16 17  1  0
 12 18  2  0
 18 19  1  0
 19 20  1  0
 20 21  2  0
 21 22  1  0
 10 23  1  0
 19 23  1  0
 22 23  2  0
  7 24  1  0
  4 25  1  0
 24 25  1  0
M  END
