piperidine-amides-3845-covalent
     RDKit          3D

 22 23  0  0  0  0  0  0  0  0999 V2000
    7.1280   -3.2770   19.2160 C   0  0  0  0  0  0  0  0  0  0  0  0
    6.4060   -4.0470   20.2470 C   0  0  0  0  0  0  0  0  0  0  0  0
    5.3190   -4.5710   19.9000 O   0  0  0  0  0  0  0  0  0  0  0  0
    6.9520   -4.2310   21.5430 N   0  0  0  0  0  0  0  0  0  0  0  0
    7.6500   -3.1390   22.1350 C   0  0  0  0  0  0  0  0  0  0  0  0
    7.2290   -2.7740   23.4830 C   0  0  0  0  0  0  0  0  0  0  0  0
    6.4950   -3.7980   24.2530 C   0  0  0  0  0  0  0  0  0  0  0  0
    5.7880   -3.1870   25.4310 C   0  0  0  0  0  0  0  0  0  0  0  0
    4.6860   -2.6390   25.2500 O   0  0  0  0  0  0  0  0  0  0  0  0
    6.3210   -3.2220   26.7390 N   0  0  0  0  0  0  0  0  0  0  0  0
    5.9750   -4.1460   27.7530 C   0  0  0  0  0  0  0  0  0  0  0  0
    5.0430   -5.2210   27.4270 C   0  0  0  0  0  0  0  0  0  0  0  0
    5.7500   -6.2150   26.5290 C   0  0  0  0  0  0  0  0  0  0  0  0
    3.7090   -4.9760   26.8770 C   0  0  0  0  0  0  0  0  0  0  0  0
    4.8180   -6.1190   28.7070 C   0  0  0  0  0  0  0  0  0  0  0  0
    5.6670   -5.7990   29.8740 C   0  0  0  0  0  0  0  0  0  0  0  0
    5.2190   -6.8180   30.9370 C   0  0  0  0  0  0  0  0  0  0  0  0
    3.8590   -7.0310   31.1450 O   0  0  0  0  0  0  0  0  0  0  0  0
    3.0290   -7.3170   30.0300 C   0  0  0  0  0  0  0  0  0  0  0  0
    3.8260   -7.2210   28.7400 C   0  0  0  0  0  0  0  0  0  0  0  0
    5.4910   -4.5750   23.3830 C   0  0  0  0  0  0  0  0  0  0  0  0
    6.3330   -5.2710   22.3720 C   0  0  0  0  0  0  0  0  0  0  0  0
  1  2  1  0
  2  3  2  0
  2  4  1  0
  4  5  1  0
  5  6  1  0
  6  7  1  0
  7  8  1  0
  8  9  2  0
  8 10  1  0
 10 11  1  0
 12 11  1  0
 12 13  1  0
 12 14  1  0
 12 15  1  0
 15 16  2  0
 16 17  1  0
 17 18  1  0
 18 19  1  0
 15 20  1  0
 19 20  1  0
  7 21  1  0
  4 22  1  0
 21 22  1  0
M  END
