piperidine-amides-27551-covalent
     RDKit          3D

 24 25  0  0  0  0  0  0  0  0999 V2000
    7.0470   -3.3350   19.2950 C   0  0  0  0  0  0  0  0  0  0  0  0
    6.3880   -4.1550   20.3150 C   0  0  0  0  0  0  0  0  0  0  0  0
    5.3500   -4.7710   19.9580 O   0  0  0  0  0  0  0  0  0  0  0  0
    6.9350   -4.2740   21.5980 N   0  0  0  0  0  0  0  0  0  0  0  0
    7.7280   -3.2280   22.2060 C   0  0  0  0  0  0  0  0  0  0  0  0
    6.9880   -2.7030   23.4030 C   0  0  0  0  0  0  0  0  0  0  0  0
    6.4800   -3.8120   24.2830 C   0  0  0  0  0  0  0  0  0  0  0  0
    5.7420   -3.2590   25.4550 C   0  0  0  0  0  0  0  0  0  0  0  0
    4.5270   -3.0100   25.2890 O   0  0  0  0  0  0  0  0  0  0  0  0
    6.3080   -2.9800   26.7310 N   0  0  0  0  0  0  0  0  0  0  0  0
    6.2380   -3.9670   27.7960 C   0  0  0  0  0  0  0  0  0  0  0  0
    6.0100   -5.3810   27.2830 C   0  0  0  0  0  0  0  0  0  0  0  0
    4.5980   -5.7240   27.5370 N   0  0  0  0  0  0  0  0  0  0  0  0
    4.0470   -6.8050   27.0230 C   0  0  0  0  0  0  0  0  0  0  0  0
    3.1940   -7.6040   27.7460 C   0  0  0  0  0  0  0  0  0  0  0  0
    4.1850   -7.3450   25.7150 O   0  0  0  0  0  0  0  0  0  0  0  0
    6.6710   -1.6000   26.9930 C   0  0  0  0  0  0  0  0  0  0  0  0
    7.1490   -1.4160   28.3010 C   0  0  0  0  0  0  0  0  0  0  0  0
    6.4220   -0.7930   29.2950 C   0  0  0  0  0  0  0  0  0  0  0  0
    6.4400    0.8550   28.8350 S   0  0  0  0  0  0  0  0  0  0  0  0
    5.7700    0.8200   27.1940 C   0  0  0  0  0  0  0  0  0  0  0  0
    5.6610   -0.5680   26.5750 C   0  0  0  0  0  0  0  0  0  0  0  0
    5.6150   -4.8040   23.4880 C   0  0  0  0  0  0  0  0  0  0  0  0
    6.5400   -5.3890   22.4360 C   0  0  0  0  0  0  0  0  0  0  0  0
  1  2  1  0
  2  3  2  0
  2  4  1  0
  4  5  1  0
  5  6  1  0
  6  7  1  0
  7  8  1  0
  8  9  2  0
  8 10  1  0
 10 11  1  0
 11 12  1  0
 12 13  1  0
 13 14  1  0
 14 15  1  0
 14 16  2  0
 10 17  1  0
 17 18  1  0
 18 19  1  0
 19 20  1  0
 20 21  1  0
 17 22  1  0
 21 22  1  0
  7 23  1  0
  4 24  1  0
 23 24  1  0
M  END
