piperidine-amides-18813-covalent
     RDKit          3D

 21 22  0  0  0  0  0  0  0  0999 V2000
    7.0850   -3.3620   19.4830 C   0  0  0  0  0  0  0  0  0  0  0  0
    6.4180   -4.2210   20.4380 C   0  0  0  0  0  0  0  0  0  0  0  0
    5.4600   -4.9500   20.0100 O   0  0  0  0  0  0  0  0  0  0  0  0
    6.8130   -4.2930   21.7980 N   0  0  0  0  0  0  0  0  0  0  0  0
    6.5450   -5.5300   22.5360 C   0  0  0  0  0  0  0  0  0  0  0  0
    5.4720   -4.9530   23.5320 C   0  0  0  0  0  0  0  0  0  0  0  0
    6.1110   -3.8550   24.3830 C   0  0  0  0  0  0  0  0  0  0  0  0
    4.9190   -3.2720   25.3090 C   0  0  0  0  0  0  0  0  0  0  0  0
    4.0360   -2.8830   24.5720 O   0  0  0  0  0  0  0  0  0  0  0  0
    5.1020   -3.3180   26.5960 N   0  0  0  0  0  0  0  0  0  0  0  0
    4.9090   -3.0920   27.9090 C   0  0  0  0  0  0  0  0  0  0  0  0
    4.4300   -3.8290   28.9400 C   0  0  0  0  0  0  0  0  0  0  0  0
    5.3050   -4.9750   29.0160 N   0  0  0  0  0  0  0  0  0  0  0  0
    4.9610   -6.2690   28.8380 C   0  0  2  0  0  0  0  0  0  0  0  0
    3.5500   -6.3620   29.2610 C   0  0  0  0  0  0  0  0  0  0  0  0
    5.8610   -7.0330   29.7730 C   0  0  0  0  0  0  0  0  0  0  0  0
    5.9150   -6.7450   31.1690 O   0  0  0  0  0  0  0  0  0  0  0  0
    6.4470   -4.5640   28.2880 C   0  0  0  0  0  0  0  0  0  0  0  0
    6.2520   -4.0070   26.9740 C   0  0  0  0  0  0  0  0  0  0  0  0
    7.0280   -2.8870   23.7790 C   0  0  0  0  0  0  0  0  0  0  0  0
    7.6890   -3.4070   22.4480 C   0  0  0  0  0  0  0  0  0  0  0  0
  1  2  1  0
  2  3  2  0
  2  4  1  0
  4  5  1  0
  5  6  1  0
  6  7  1  0
  7  8  1  0
  8  9  2  0
  8 10  1  0
 10 11  1  0
 11 12  1  0
 12 13  1  0
 13 14  1  0
 14 15  1  1
 14 16  1  0
 16 17  1  0
 13 18  1  0
 10 19  1  0
 18 19  1  0
  7 20  1  0
  4 21  1  0
 20 21  1  0
M  END
