piperidine-amides-13188-covalent
     RDKit          3D

 19 19  0  0  0  0  0  0  0  0999 V2000
    7.0970   -3.2620   19.1380 C   0  0  0  0  0  0  0  0  0  0  0  0
    6.3390   -3.9930   20.1810 C   0  0  0  0  0  0  0  0  0  0  0  0
    5.2370   -4.4620   19.8410 O   0  0  0  0  0  0  0  0  0  0  0  0
    6.8650   -4.1980   21.4590 N   0  0  0  0  0  0  0  0  0  0  0  0
    6.4840   -5.3630   22.1800 C   0  0  0  0  0  0  0  0  0  0  0  0
    5.9140   -5.0730   23.4960 C   0  0  0  0  0  0  0  0  0  0  0  0
    6.5060   -3.9070   24.1900 C   0  0  0  0  0  0  0  0  0  0  0  0
    5.5890   -3.4440   25.2570 C   0  0  0  0  0  0  0  0  0  0  0  0
    4.7350   -2.5740   24.9980 O   0  0  0  0  0  0  0  0  0  0  0  0
    5.6920   -4.0000   26.5390 N   0  0  0  0  0  0  0  0  0  0  0  0
    6.6040   -5.1380   26.7690 C   0  0  2  0  0  0  0  0  0  0  0  0
    6.1870   -5.9630   27.9290 C   0  0  0  0  0  0  0  0  0  0  0  0
    7.9680   -4.6560   26.9360 C   0  0  0  0  0  0  0  0  0  0  0  0
    8.9150   -5.1190   26.0360 C   0  0  0  0  0  0  0  0  0  0  0  0
    8.6150   -5.0350   28.2770 C   0  0  0  0  0  0  0  0  0  0  0  0
    7.9900   -3.1600   26.8370 C   0  0  0  0  0  0  0  0  0  0  0  0
    8.0560   -2.5060   28.0830 O   0  0  0  0  0  0  0  0  0  0  0  0
    6.9880   -2.7750   23.3300 C   0  0  0  0  0  0  0  0  0  0  0  0
    7.6000   -3.2070   22.1920 C   0  0  0  0  0  0  0  0  0  0  0  0
  1  2  1  0
  2  3  2  0
  2  4  1  0
  4  5  1  0
  5  6  1  0
  6  7  1  0
  7  8  1  0
  8  9  2  0
  8 10  1  0
 10 11  1  0
 11 12  1  1
 11 13  1  0
 13 14  1  0
 13 15  1  0
 13 16  1  0
 16 17  1  0
  7 18  1  0
  4 19  1  0
 18 19  1  0
M  END
