piperidine-amides-35411-covalent
     RDKit          3D

 33 35  0  0  0  0  0  0  0  0999 V2000
    7.0480   -3.3270   19.3280 C   0  0  0  0  0  0  0  0  0  0  0  0
    6.3810   -4.1790   20.3470 C   0  0  0  0  0  0  0  0  0  0  0  0
    5.3920   -4.8130   19.9760 O   0  0  0  0  0  0  0  0  0  0  0  0
    6.8980   -4.2690   21.6500 N   0  0  0  0  0  0  0  0  0  0  0  0
    6.6320   -5.4080   22.4920 C   0  0  0  0  0  0  0  0  0  0  0  0
    5.9680   -4.9440   23.7660 C   0  0  0  0  0  0  0  0  0  0  0  0
    6.6400   -3.6780   24.3190 C   0  0  0  0  0  0  0  0  0  0  0  0
    5.7800   -3.1390   25.4070 C   0  0  0  0  0  0  0  0  0  0  0  0
    4.5610   -3.0670   25.1990 O   0  0  0  0  0  0  0  0  0  0  0  0
    6.2930   -2.7080   26.6610 N   0  0  0  0  0  0  0  0  0  0  0  0
    6.2730   -3.6480   27.7780 C   0  0  0  0  0  0  0  0  0  0  0  0
    4.8890   -3.7990   28.3830 C   0  0  0  0  0  0  0  0  0  0  0  0
    4.6860   -4.5540   29.4960 C   0  0  0  0  0  0  0  0  0  0  0  0
    3.4880   -4.7220   30.0740 C   0  0  0  0  0  0  0  0  0  0  0  0
    2.3700   -4.1410   29.5790 C   0  0  0  0  0  0  0  0  0  0  0  0
    0.7890   -4.3430   30.3160 Cl  0  0  0  0  0  0  0  0  0  0  0  0
    2.5590   -3.4110   28.4990 N   0  0  0  0  0  0  0  0  0  0  0  0
    3.7410   -3.2300   27.9100 N   0  0  0  0  0  0  0  0  0  0  0  0
    6.0480   -1.5270   27.5020 C   0  0  2  0  0  0  0  0  0  0  0  0
    5.6380   -0.4450   26.5420 C   0  0  0  0  0  0  0  0  0  0  0  0
    5.8670    0.8400   27.3370 C   0  0  0  0  0  0  0  0  0  0  0  0
    5.7100    0.4080   28.7590 C   0  0  0  0  0  0  0  0  0  0  0  0
    6.9640   -0.1220   29.1230 N   0  0  0  0  0  0  0  0  0  0  0  0
    7.2050    0.1070   30.5570 C   0  0  0  0  0  0  0  0  0  0  0  0
    8.2320    0.7220   30.9970 O   0  0  0  0  0  0  0  0  0  0  0  0
    6.4590   -0.2520   31.4950 O   0  0  0  0  0  0  0  0  0  0  0  0
    6.6720    0.3500   32.7910 C   0  0  0  0  0  0  0  0  0  0  0  0
    5.4170    0.0640   33.5390 C   0  0  0  0  0  0  0  0  0  0  0  0
    7.8610    0.0960   33.4820 C   0  0  0  0  0  0  0  0  0  0  0  0
    6.6910    1.8360   32.5560 C   0  0  0  0  0  0  0  0  0  0  0  0
    7.1720   -1.3030   28.3050 C   0  0  0  0  0  0  0  0  0  0  0  0
    6.8110   -2.5640   23.2850 C   0  0  0  0  0  0  0  0  0  0  0  0
    7.6610   -3.1590   22.1790 C   0  0  0  0  0  0  0  0  0  0  0  0
  1  2  1  0
  2  3  2  0
  2  4  1  0
  4  5  1  0
  5  6  1  0
  6  7  1  0
  7  8  1  0
  8  9  2  0
  8 10  1  0
 10 11  1  0
 11 12  1  0
 12 13  2  0
 13 14  1  0
 14 15  2  0
 15 16  1  0
 15 17  1  0
 12 18  1  0
 17 18  2  0
 19 10  1  6
 19 20  1  0
 20 21  1  0
 21 22  1  0
 22 23  1  0
 23 24  1  0
 24 25  2  0
 24 26  1  0
 27 26  1  0
 27 28  1  0
 27 29  1  0
 27 30  1  0
 19 31  1  0
 23 31  1  0
  7 32  1  0
  4 33  1  0
 32 33  1  0
M  END
