piperidine-amides-5343-covalent
     RDKit          3D

 21 22  0  0  0  0  0  0  0  0999 V2000
    7.0710   -3.3320   19.2480 C   0  0  0  0  0  0  0  0  0  0  0  0
    6.3970   -4.1480   20.2820 C   0  0  0  0  0  0  0  0  0  0  0  0
    5.3330   -4.6980   19.9410 O   0  0  0  0  0  0  0  0  0  0  0  0
    6.9670   -4.3380   21.5500 N   0  0  0  0  0  0  0  0  0  0  0  0
    6.5350   -5.4250   22.3600 C   0  0  0  0  0  0  0  0  0  0  0  0
    6.0440   -5.0140   23.6780 C   0  0  0  0  0  0  0  0  0  0  0  0
    6.6120   -3.7470   24.2050 C   0  0  0  0  0  0  0  0  0  0  0  0
    5.7820   -3.2600   25.3290 C   0  0  0  0  0  0  0  0  0  0  0  0
    4.5820   -3.0150   25.1060 O   0  0  0  0  0  0  0  0  0  0  0  0
    6.3100   -3.0810   26.6170 N   0  0  0  0  0  0  0  0  0  0  0  0
    6.3580   -1.7490   27.2600 C   0  0  0  0  0  0  0  0  0  0  0  0
    6.9850   -1.6200   28.5740 C   0  0  0  0  0  0  0  0  0  0  0  0
    7.0550   -0.3550   29.2540 C   0  0  0  0  0  0  0  0  0  0  0  0
    6.5180    0.7750   28.6580 C   0  0  0  0  0  0  0  0  0  0  0  0
    5.8830    0.8500   27.4090 C   0  0  0  0  0  0  0  0  0  0  0  0
    5.4390    2.0860   27.0460 C   0  0  0  0  0  0  0  0  0  0  0  0
    4.2830    2.6380   27.6360 N   0  0  0  0  0  0  0  0  0  0  0  0
    5.8200   -0.4870   26.7150 C   0  0  0  0  0  0  0  0  0  0  0  0
    5.2030   -0.5670   25.4550 F   0  0  0  0  0  0  0  0  0  0  0  0
    6.8900   -2.7020   23.2040 C   0  0  0  0  0  0  0  0  0  0  0  0
    7.6690   -3.2570   22.1980 C   0  0  0  0  0  0  0  0  0  0  0  0
  1  2  1  0
  2  3  2  0
  2  4  1  0
  4  5  1  0
  5  6  1  0
  6  7  1  0
  7  8  1  0
  8  9  2  0
  8 10  1  0
 10 11  1  0
 11 12  2  0
 12 13  1  0
 13 14  2  0
 14 15  1  0
 15 16  1  0
 16 17  3  0
 11 18  1  0
 15 18  2  0
 18 19  1  0
  7 20  1  0
  4 21  1  0
 20 21  1  0
M  END
