piperidine-amides-31403-covalent
     RDKit          3D

 26 27  0  0  0  0  0  0  0  0999 V2000
    7.1610   -3.4110   19.4810 C   0  0  0  0  0  0  0  0  0  0  0  0
    6.4000   -4.2350   20.3900 C   0  0  0  0  0  0  0  0  0  0  0  0
    5.3490   -4.8030   19.9620 O   0  0  0  0  0  0  0  0  0  0  0  0
    6.8120   -4.4600   21.7180 N   0  0  0  0  0  0  0  0  0  0  0  0
    6.3300   -5.6760   22.4030 C   0  0  0  0  0  0  0  0  0  0  0  0
    5.2510   -5.0460   23.3800 C   0  0  0  0  0  0  0  0  0  0  0  0
    5.9530   -4.0460   24.2880 C   0  0  0  0  0  0  0  0  0  0  0  0
    4.9170   -3.3460   25.3250 C   0  0  0  0  0  0  0  0  0  0  0  0
    4.3150   -2.4940   24.6940 O   0  0  0  0  0  0  0  0  0  0  0  0
    4.9050   -3.7800   26.5670 N   0  0  0  0  0  0  0  0  0  0  0  0
    4.4270   -4.3560   27.7530 C   0  0  1  0  0  0  0  0  0  0  0  0
    3.5120   -5.3520   27.9540 C   0  0  0  0  0  0  0  0  0  0  0  0
    5.6070   -4.8930   28.9430 S   0  0  0  0  0  0  0  0  0  0  0  0
    6.7010   -3.8990   28.1210 C   0  0  0  0  0  0  0  0  0  0  0  0
    5.8630   -2.9670   27.3310 C   0  0  1  0  0  0  0  0  0  0  0  0
    6.7970   -2.6890   26.2030 C   0  0  0  0  0  0  0  0  0  0  0  0
    7.2010   -1.3980   25.8090 O   0  0  0  0  0  0  0  0  0  0  0  0
    7.1510   -3.9720   25.6000 N   0  0  0  0  0  0  0  0  0  0  0  0
    7.2910   -5.0280   26.5580 C   0  0  0  0  0  0  0  0  0  0  0  0
    6.4080   -6.0550   26.4410 C   0  0  0  0  0  0  0  0  0  0  0  0
    7.8810   -6.0040   25.9630 C   0  0  0  0  0  0  0  0  0  0  0  0
    8.9620   -6.3080   26.7730 O   0  0  0  0  0  0  0  0  0  0  0  0
    8.0800   -5.6690   24.6570 O   0  0  0  0  0  0  0  0  0  0  0  0
    9.1900   -5.8810   23.8510 C   0  0  0  0  0  0  0  0  0  0  0  0
    6.6720   -2.9540   23.4300 C   0  0  0  0  0  0  0  0  0  0  0  0
    7.5300   -3.4770   22.4930 C   0  0  0  0  0  0  0  0  0  0  0  0
  1  2  1  0
  2  3  2  0
  2  4  1  0
  4  5  1  0
  5  6  1  0
  6  7  1  0
  7  8  1  0
  8  9  2  0
  8 10  1  0
 10 11  1  0
 11 12  1  6
 11 13  1  0
 13 14  1  0
 10 15  1  0
 14 15  1  0
 15 16  1  6
 16 17  2  0
 16 18  1  0
 18 19  1  0
 19 20  1  0
 20 21  1  0
 21 22  2  0
 21 23  1  0
 23 24  1  0
  7 25  1  0
  4 26  1  0
 25 26  1  0
M  END
