piperidine-amides-31260-covalent
     RDKit          3D

 23 24  0  0  0  0  0  0  0  0999 V2000
    7.0890   -3.2800   19.2620 C   0  0  0  0  0  0  0  0  0  0  0  0
    6.3430   -4.0350   20.2720 C   0  0  0  0  0  0  0  0  0  0  0  0
    5.3190   -4.6460   19.9260 O   0  0  0  0  0  0  0  0  0  0  0  0
    6.7860   -4.1230   21.6050 N   0  0  0  0  0  0  0  0  0  0  0  0
    7.6940   -3.1490   22.1760 C   0  0  0  0  0  0  0  0  0  0  0  0
    7.4360   -3.1360   23.6570 C   0  0  0  0  0  0  0  0  0  0  0  0
    6.0700   -3.6790   23.9640 C   0  0  0  0  0  0  0  0  0  0  0  0
    5.5790   -3.4960   25.3580 C   0  0  0  0  0  0  0  0  0  0  0  0
    4.3430   -3.6340   25.5960 O   0  0  0  0  0  0  0  0  0  0  0  0
    6.3880   -3.1600   26.4680 N   0  0  0  0  0  0  0  0  0  0  0  0
    6.2760   -3.9210   27.7580 C   0  0  0  0  0  0  0  0  0  0  0  0
    5.8560   -5.3460   27.5770 C   0  0  0  0  0  0  0  0  0  0  0  0
    6.4390   -6.0970   26.7570 O   0  0  0  0  0  0  0  0  0  0  0  0
    6.7540   -1.7400   26.5750 C   0  0  0  0  0  0  0  0  0  0  0  0
    5.7140   -0.8060   26.0020 C   0  0  0  0  0  0  0  0  0  0  0  0
    4.3250   -0.6050   26.5250 C   0  0  0  0  0  0  0  0  0  0  0  0
    3.4060    0.3380   25.8820 N   0  0  0  0  0  0  0  0  0  0  0  0
    3.9980    1.0180   24.7240 C   0  0  0  0  0  0  0  0  0  0  0  0
    5.2900    0.8170   24.2570 C   0  0  0  0  0  0  0  0  0  0  0  0
    5.8200    1.8200   22.7420 Br  0  0  0  0  0  0  0  0  0  0  0  0
    6.2250   -0.0630   24.8160 C   0  0  0  0  0  0  0  0  0  0  0  0
    5.9260   -5.1610   23.6090 C   0  0  0  0  0  0  0  0  0  0  0  0
    6.6310   -5.4030   22.2680 C   0  0  0  0  0  0  0  0  0  0  0  0
  1  2  1  0
  2  3  2  0
  2  4  1  0
  4  5  1  0
  5  6  1  0
  6  7  1  0
  7  8  1  0
  8  9  2  0
  8 10  1  0
 10 11  1  0
 11 12  1  0
 12 13  1  0
 10 14  1  0
 14 15  1  0
 15 16  2  0
 16 17  1  0
 17 18  2  0
 18 19  1  0
 19 20  1  0
 15 21  1  0
 19 21  2  0
  7 22  1  0
  4 23  1  0
 22 23  1  0
M  END
