piperidine-amides-14700-covalent
     RDKit          3D

 22 22  0  0  0  0  0  0  0  0999 V2000
    7.1450   -3.2730   19.1920 C   0  0  0  0  0  0  0  0  0  0  0  0
    6.4130   -4.0430   20.1940 C   0  0  0  0  0  0  0  0  0  0  0  0
    5.3180   -4.5400   19.8840 O   0  0  0  0  0  0  0  0  0  0  0  0
    6.9910   -4.2570   21.4660 N   0  0  0  0  0  0  0  0  0  0  0  0
    6.4800   -5.3310   22.2510 C   0  0  0  0  0  0  0  0  0  0  0  0
    5.6060   -4.7360   23.3130 C   0  0  0  0  0  0  0  0  0  0  0  0
    6.4970   -3.8970   24.2060 C   0  0  0  0  0  0  0  0  0  0  0  0
    5.7010   -3.3740   25.3490 C   0  0  0  0  0  0  0  0  0  0  0  0
    4.5520   -3.0260   25.0870 O   0  0  0  0  0  0  0  0  0  0  0  0
    6.3050   -3.3150   26.5950 N   0  0  0  0  0  0  0  0  0  0  0  0
    5.7970   -4.0050   27.7290 C   0  0  0  0  0  0  0  0  0  0  0  0
    6.5220   -3.8170   28.8910 C   0  0  0  0  0  0  0  0  0  0  0  0
    6.4290   -2.7100   29.4690 O   0  0  0  0  0  0  0  0  0  0  0  0
    7.1630   -1.6430   29.0600 C   0  0  0  0  0  0  0  0  0  0  0  0
    5.8570   -5.4710   27.4280 C   0  0  0  0  0  0  0  0  0  0  0  0
    6.6010   -6.1550   28.1600 O   0  0  0  0  0  0  0  0  0  0  0  0
    5.9890   -6.8980   29.1980 C   0  0  0  0  0  0  0  0  0  0  0  0
    4.3960   -3.6070   27.8090 C   0  0  0  0  0  0  0  0  0  0  0  0
    4.0740   -2.3950   28.4310 O   0  0  0  0  0  0  0  0  0  0  0  0
    2.7370   -1.9230   28.4910 C   0  0  0  0  0  0  0  0  0  0  0  0
    7.1730   -2.8010   23.4690 C   0  0  0  0  0  0  0  0  0  0  0  0
    7.6760   -3.1430   22.0630 C   0  0  0  0  0  0  0  0  0  0  0  0
  1  2  1  0
  2  3  2  0
  2  4  1  0
  4  5  1  0
  5  6  1  0
  6  7  1  0
  7  8  1  0
  8  9  2  0
  8 10  1  0
 11 10  1  0
 11 12  1  0
 12 13  1  0
 13 14  1  0
 11 15  1  0
 15 16  1  0
 16 17  1  0
 11 18  1  0
 18 19  1  0
 19 20  1  0
  7 21  1  0
  4 22  1  0
 21 22  1  0
M  END
