piperidine-amides-3082-covalent
     RDKit          3D

 23 25  0  0  0  0  0  0  0  0999 V2000
    7.0930   -3.3700   19.3030 C   0  0  0  0  0  0  0  0  0  0  0  0
    6.3600   -4.1490   20.2880 C   0  0  0  0  0  0  0  0  0  0  0  0
    5.3310   -4.7360   19.9570 O   0  0  0  0  0  0  0  0  0  0  0  0
    6.8770   -4.2820   21.6210 N   0  0  0  0  0  0  0  0  0  0  0  0
    7.7080   -3.2440   22.1760 C   0  0  0  0  0  0  0  0  0  0  0  0
    7.0380   -2.6480   23.3720 C   0  0  0  0  0  0  0  0  0  0  0  0
    6.5210   -3.7860   24.2270 C   0  0  0  0  0  0  0  0  0  0  0  0
    5.7380   -3.2350   25.3630 C   0  0  0  0  0  0  0  0  0  0  0  0
    4.5500   -2.8820   25.2480 O   0  0  0  0  0  0  0  0  0  0  0  0
    6.3710   -3.1250   26.6160 N   0  0  0  0  0  0  0  0  0  0  0  0
    6.4540   -1.8550   27.3040 C   0  0  0  0  0  0  0  0  0  0  0  0
    5.9680   -0.6140   26.5870 C   0  0  0  0  0  0  0  0  0  0  0  0
    6.0400    0.6110   27.2420 C   0  0  0  0  0  0  0  0  0  0  0  0
    6.5660    0.6130   28.5440 C   0  0  0  0  0  0  0  0  0  0  0  0
    7.0030   -0.4800   29.2030 C   0  0  0  0  0  0  0  0  0  0  0  0
    7.4520   -0.0690   30.4790 C   0  0  0  0  0  0  0  0  0  0  0  0
    7.2970    1.2910   30.6170 C   0  0  0  0  0  0  0  0  0  0  0  0
    6.7500    1.7340   29.4200 N   0  0  0  0  0  0  0  0  0  0  0  0
    6.4670    3.1250   29.2260 C   0  0  0  0  0  0  0  0  0  0  0  0
    7.3320    3.6290   28.2540 C   0  0  0  0  0  0  0  0  0  0  0  0
    6.9530   -1.7060   28.5970 C   0  0  0  0  0  0  0  0  0  0  0  0
    5.7040   -4.8220   23.4640 C   0  0  0  0  0  0  0  0  0  0  0  0
    6.4910   -5.3770   22.4600 C   0  0  0  0  0  0  0  0  0  0  0  0
  1  2  1  0
  2  3  2  0
  2  4  1  0
  4  5  1  0
  5  6  1  0
  6  7  1  0
  7  8  1  0
  8  9  2  0
  8 10  1  0
 10 11  1  0
 11 12  2  0
 12 13  1  0
 13 14  2  0
 14 15  1  0
 15 16  1  0
 16 17  2  0
 14 18  1  0
 17 18  1  0
 18 19  1  0
 19 20  1  0
 11 21  1  0
 15 21  2  0
  7 22  1  0
  4 23  1  0
 22 23  1  0
M  END
