piperidine-amides-30882-covalent
     RDKit          3D

 28 31  0  0  0  0  0  0  0  0999 V2000
    7.0970   -3.3450   19.3160 C   0  0  0  0  0  0  0  0  0  0  0  0
    6.4250   -4.1970   20.2940 C   0  0  0  0  0  0  0  0  0  0  0  0
    5.3710   -4.7700   19.9680 O   0  0  0  0  0  0  0  0  0  0  0  0
    6.9800   -4.4420   21.5610 N   0  0  0  0  0  0  0  0  0  0  0  0
    6.6610   -5.6150   22.3210 C   0  0  0  0  0  0  0  0  0  0  0  0
    5.8220   -5.1120   23.4620 C   0  0  0  0  0  0  0  0  0  0  0  0
    6.4300   -3.9410   24.1950 C   0  0  0  0  0  0  0  0  0  0  0  0
    5.4860   -3.4340   25.2120 C   0  0  0  0  0  0  0  0  0  0  0  0
    4.5340   -2.6910   24.8500 O   0  0  0  0  0  0  0  0  0  0  0  0
    5.5480   -3.7100   26.5860 N   0  0  0  0  0  0  0  0  0  0  0  0
    4.2860   -4.0780   27.2560 C   0  0  0  0  0  0  0  0  0  0  0  0
    4.5720   -4.7210   28.5600 C   0  0  0  0  0  0  0  0  0  0  0  0
    5.7170   -4.1500   29.2390 C   0  0  0  0  0  0  0  0  0  0  0  0
    5.3760   -2.7900   29.8090 C   0  0  0  0  0  0  0  0  0  0  0  0
    4.1220   -3.1220   30.4490 N   0  0  0  0  0  0  0  0  0  0  0  0
    3.6480   -1.9160   31.0610 C   0  0  0  0  0  0  0  0  0  0  0  0
    2.3610   -1.9830   31.8000 C   0  0  0  0  0  0  0  0  0  0  0  0
    2.1480   -3.0280   32.6790 C   0  0  0  0  0  0  0  0  0  0  0  0
    0.9950   -3.1960   33.4200 C   0  0  0  0  0  0  0  0  0  0  0  0
   -0.1270   -2.2380   33.3220 C   0  0  0  0  0  0  0  0  0  0  0  0
    0.0970   -1.0890   32.3600 C   0  0  0  0  0  0  0  0  0  0  0  0
    1.3580   -0.8660   31.5190 C   0  0  0  0  0  0  0  0  0  0  0  0
    4.4800   -0.9360   30.8410 N   0  0  0  0  0  0  0  0  0  0  0  0
    5.4750   -1.4290   30.1230 N   0  0  0  0  0  0  0  0  0  0  0  0
    6.7960   -4.1080   28.4360 C   0  0  0  0  0  0  0  0  0  0  0  0
    6.3980   -3.0610   27.4650 C   0  0  0  0  0  0  0  0  0  0  0  0
    6.9060   -2.8020   23.3100 C   0  0  0  0  0  0  0  0  0  0  0  0
    7.7440   -3.4200   22.2120 C   0  0  0  0  0  0  0  0  0  0  0  0
  1  2  1  0
  2  3  2  0
  2  4  1  0
  4  5  1  0
  5  6  1  0
  6  7  1  0
  7  8  1  0
  8  9  2  0
  8 10  1  0
 10 11  1  0
 11 12  1  0
 12 13  1  0
 13 14  1  0
 14 15  2  0
 15 16  1  0
 16 17  1  0
 17 18  2  0
 18 19  1  0
 19 20  2  0
 20 21  1  0
 17 22  1  0
 21 22  2  0
 16 23  2  0
 14 24  1  0
 23 24  1  0
 13 25  1  0
 10 26  1  0
 25 26  1  0
  7 27  1  0
  4 28  1  0
 27 28  1  0
M  END
