piperidine-amides-6408-covalent
     RDKit          3D

 20 21  0  0  0  0  0  0  0  0999 V2000
    7.1500   -3.3080   19.2440 C   0  0  0  0  0  0  0  0  0  0  0  0
    6.3940   -4.0600   20.2480 C   0  0  0  0  0  0  0  0  0  0  0  0
    5.3270   -4.6280   19.9280 O   0  0  0  0  0  0  0  0  0  0  0  0
    6.9010   -4.1970   21.5450 N   0  0  0  0  0  0  0  0  0  0  0  0
    6.6930   -5.4480   22.2390 C   0  0  0  0  0  0  0  0  0  0  0  0
    5.9010   -5.0900   23.4900 C   0  0  0  0  0  0  0  0  0  0  0  0
    5.7630   -3.5920   23.4100 C   0  0  0  0  0  0  0  0  0  0  0  0
    4.7890   -3.1400   24.4040 C   0  0  0  0  0  0  0  0  0  0  0  0
    3.5910   -3.1080   24.0930 O   0  0  0  0  0  0  0  0  0  0  0  0
    5.1850   -2.7750   25.6790 N   0  0  0  0  0  0  0  0  0  0  0  0
    4.9890   -3.7400   26.6870 C   0  0  0  0  0  0  0  0  0  0  0  0
    6.2960   -3.7090   27.3080 C   0  0  0  0  0  0  0  0  0  0  0  0
    7.2610   -4.6600   27.3330 C   0  0  0  0  0  0  0  0  0  0  0  0
    8.4300   -4.4660   27.9470 C   0  0  0  0  0  0  0  0  0  0  0  0
    9.3780   -5.4560   27.9500 C   0  0  0  0  0  0  0  0  0  0  0  0
    8.6550   -3.2890   28.5640 C   0  0  0  0  0  0  0  0  0  0  0  0
    7.6740   -2.1840   28.5930 C   0  0  0  0  0  0  0  0  0  0  0  0
    6.5610   -2.4470   27.9730 N   0  0  0  0  0  0  0  0  0  0  0  0
    7.0770   -2.9000   23.4660 C   0  0  0  0  0  0  0  0  0  0  0  0
    7.7490   -3.1740   22.1610 C   0  0  0  0  0  0  0  0  0  0  0  0
  1  2  1  0
  2  3  2  0
  2  4  1  0
  4  5  1  0
  5  6  1  0
  6  7  1  0
  7  8  1  0
  8  9  2  0
  8 10  1  0
 10 11  1  0
 11 12  1  0
 12 13  2  0
 13 14  1  0
 14 15  1  0
 14 16  2  0
 16 17  1  0
 12 18  1  0
 17 18  2  0
  7 19  1  0
  4 20  1  0
 19 20  1  0
M  END
