piperidine-amides-81-covalent
     RDKit          3D

 23 24  0  0  0  0  0  0  0  0999 V2000
    7.2070   -3.3250   19.3690 C   0  0  0  0  0  0  0  0  0  0  0  0
    6.4970   -4.1390   20.3260 C   0  0  0  0  0  0  0  0  0  0  0  0
    5.4150   -4.7040   19.9570 O   0  0  0  0  0  0  0  0  0  0  0  0
    7.0070   -4.3600   21.6230 N   0  0  0  0  0  0  0  0  0  0  0  0
    7.8840   -3.3190   22.2020 C   0  0  0  0  0  0  0  0  0  0  0  0
    6.8270   -2.6100   23.1070 C   0  0  0  0  0  0  0  0  0  0  0  0
    6.3790   -3.6670   24.0860 C   0  0  0  0  0  0  0  0  0  0  0  0
    5.6250   -2.9430   25.2820 C   0  0  0  0  0  0  0  0  0  0  0  0
    4.9350   -2.0370   24.8480 O   0  0  0  0  0  0  0  0  0  0  0  0
    5.9110   -3.4890   26.3900 N   0  0  0  0  0  0  0  0  0  0  0  0
    6.1160   -4.0250   27.6210 C   0  0  0  0  0  0  0  0  0  0  0  0
    5.8810   -5.1270   28.3930 C   0  0  2  0  0  0  0  0  0  0  0  0
    6.8100   -5.3710   29.3410 F   0  0  0  0  0  0  0  0  0  0  0  0
    5.5840   -6.3280   27.7400 C   0  0  0  0  0  0  0  0  0  0  0  0
    4.3490   -6.4110   28.4230 C   0  0  2  0  0  0  0  0  0  0  0  0
    3.5550   -6.6180   27.1150 C   0  0  0  0  0  0  0  0  0  0  0  0
    2.2570   -6.0690   26.9720 O   0  0  0  0  0  0  0  0  0  0  0  0
    3.9810   -7.2700   26.1200 O   0  0  0  0  0  0  0  0  0  0  0  0
    3.0320   -7.5950   25.1710 C   0  0  0  0  0  0  0  0  0  0  0  0
    2.2940   -8.6370   25.7470 C   0  0  0  0  0  0  0  0  0  0  0  0
    4.4680   -5.1250   29.1030 C   0  0  0  0  0  0  0  0  0  0  0  0
    5.6870   -4.8240   23.4150 C   0  0  0  0  0  0  0  0  0  0  0  0
    6.5080   -5.3950   22.4720 C   0  0  0  0  0  0  0  0  0  0  0  0
  1  2  1  0
  2  3  2  0
  2  4  1  0
  4  5  1  0
  5  6  1  0
  6  7  1  0
  7  8  1  0
  8  9  2  0
  8 10  1  0
 10 11  1  0
 11 12  1  0
 12 13  1  1
 12 14  1  0
 14 15  1  0
 15 16  1  6
 16 17  2  0
 16 18  1  0
 18 19  1  0
 19 20  1  0
 12 21  1  0
 15 21  1  0
  7 22  1  0
  4 23  1  0
 22 23  1  0
M  END
