piperidine-amides-12703-covalent
     RDKit          3D

 23 24  0  0  0  0  0  0  0  0999 V2000
    7.1430   -3.2420   19.1570 C   0  0  0  0  0  0  0  0  0  0  0  0
    6.3530   -3.9790   20.1700 C   0  0  0  0  0  0  0  0  0  0  0  0
    5.2460   -4.4250   19.8190 O   0  0  0  0  0  0  0  0  0  0  0  0
    6.8610   -4.2070   21.4450 N   0  0  0  0  0  0  0  0  0  0  0  0
    7.6480   -3.1980   22.0830 C   0  0  0  0  0  0  0  0  0  0  0  0
    7.1810   -2.7890   23.4010 C   0  0  0  0  0  0  0  0  0  0  0  0
    6.5580   -3.8630   24.1900 C   0  0  0  0  0  0  0  0  0  0  0  0
    5.9030   -3.2630   25.3700 C   0  0  0  0  0  0  0  0  0  0  0  0
    4.6800   -3.4320   25.5410 O   0  0  0  0  0  0  0  0  0  0  0  0
    6.6740   -2.4950   26.2570 N   0  0  0  0  0  0  0  0  0  0  0  0
    6.5150   -2.5110   27.7240 C   0  0  0  0  0  0  0  0  0  0  0  0
    6.3380   -3.8590   28.3220 C   0  0  0  0  0  0  0  0  0  0  0  0
    5.3160   -3.8820   29.3540 C   0  0  0  0  0  0  0  0  0  0  0  0
    4.8290   -2.7680   29.7420 O   0  0  0  0  0  0  0  0  0  0  0  0
    4.9770   -5.1960   29.8270 N   0  0  0  0  0  0  0  0  0  0  0  0
    3.9320   -5.4220   30.7560 C   0  0  0  0  0  0  0  0  0  0  0  0
    4.2100   -6.3310   31.7500 C   0  0  0  0  0  0  0  0  0  0  0  0
    5.0730   -7.2990   31.3650 C   0  0  0  0  0  0  0  0  0  0  0  0
    5.3430   -7.3880   30.0290 C   0  0  1  0  0  0  0  0  0  0  0  0
    4.3810   -7.8500   29.1910 C   0  0  0  0  0  0  0  0  0  0  0  0
    5.8110   -6.2530   29.3810 C   0  0  0  0  0  0  0  0  0  0  0  0
    5.6940   -4.7980   23.4490 C   0  0  0  0  0  0  0  0  0  0  0  0
    6.4190   -5.3400   22.2480 C   0  0  0  0  0  0  0  0  0  0  0  0
  1  2  1  0
  2  3  2  0
  2  4  1  0
  4  5  1  0
  5  6  1  0
  6  7  1  0
  7  8  1  0
  8  9  2  0
  8 10  1  0
 10 11  1  0
 11 12  1  0
 12 13  1  0
 13 14  2  0
 13 15  1  0
 15 16  1  0
 16 17  1  0
 17 18  1  0
 18 19  1  0
 19 20  1  6
 15 21  1  0
 19 21  1  0
  7 22  1  0
  4 23  1  0
 22 23  1  0
M  END
