piperidine-amides-4687-covalent
     RDKit          3D

 24 25  0  0  0  0  0  0  0  0999 V2000
    7.1140   -3.2700   19.1590 C   0  0  0  0  0  0  0  0  0  0  0  0
    6.3600   -4.0150   20.1890 C   0  0  0  0  0  0  0  0  0  0  0  0
    5.2530   -4.4680   19.8490 O   0  0  0  0  0  0  0  0  0  0  0  0
    6.8960   -4.2480   21.4610 N   0  0  0  0  0  0  0  0  0  0  0  0
    6.5010   -5.3990   22.1950 C   0  0  0  0  0  0  0  0  0  0  0  0
    5.9600   -5.0920   23.5180 C   0  0  0  0  0  0  0  0  0  0  0  0
    6.6080   -3.9540   24.2020 C   0  0  0  0  0  0  0  0  0  0  0  0
    5.7930   -3.5250   25.3640 C   0  0  0  0  0  0  0  0  0  0  0  0
    4.5580   -3.6790   25.3080 O   0  0  0  0  0  0  0  0  0  0  0  0
    6.3810   -2.9400   26.4920 N   0  0  0  0  0  0  0  0  0  0  0  0
    6.7150   -1.5090   26.4520 C   0  0  0  0  0  0  0  0  0  0  0  0
    7.2320   -0.9290   27.7210 C   0  0  0  0  0  0  0  0  0  0  0  0
    7.9610    0.3180   27.6550 C   0  0  0  0  0  0  0  0  0  0  0  0
    8.4980    0.9630   28.7360 C   0  0  0  0  0  0  0  0  0  0  0  0
    9.1170    2.0310   28.6630 O   0  0  0  0  0  0  0  0  0  0  0  0
    8.5070    2.8940   27.9040 C   0  0  0  0  0  0  0  0  0  0  0  0
    8.2990    0.2950   30.0320 C   0  0  0  0  0  0  0  0  0  0  0  0
    8.8480    0.9100   31.1670 O   0  0  0  0  0  0  0  0  0  0  0  0
   10.1880    0.5310   31.2480 C   0  0  0  0  0  0  0  0  0  0  0  0
    7.5890   -0.8980   30.1000 C   0  0  0  0  0  0  0  0  0  0  0  0
    7.0420   -1.5180   28.9580 C   0  0  0  0  0  0  0  0  0  0  0  0
    6.0500   -3.1460   29.0370 Br  0  0  0  0  0  0  0  0  0  0  0  0
    6.9560   -2.7920   23.3570 C   0  0  0  0  0  0  0  0  0  0  0  0
    7.7180   -3.2650   22.1590 C   0  0  0  0  0  0  0  0  0  0  0  0
  1  2  1  0
  2  3  2  0
  2  4  1  0
  4  5  1  0
  5  6  1  0
  6  7  1  0
  7  8  1  0
  8  9  2  0
  8 10  1  0
 10 11  1  0
 11 12  1  0
 12 13  2  0
 13 14  1  0
 14 15  1  0
 15 16  1  0
 14 17  2  0
 17 18  1  0
 18 19  1  0
 17 20  1  0
 12 21  1  0
 20 21  2  0
 21 22  1  0
  7 23  1  0
  4 24  1  0
 23 24  1  0
M  END
