piperidine-amides-23992-covalent
     RDKit          3D

 24 26  0  0  0  0  0  0  0  0999 V2000
    7.0080   -3.3730   19.4440 C   0  0  0  0  0  0  0  0  0  0  0  0
    6.3800   -4.2670   20.4320 C   0  0  0  0  0  0  0  0  0  0  0  0
    5.4120   -4.9520   20.0110 O   0  0  0  0  0  0  0  0  0  0  0  0
    6.8710   -4.3830   21.7710 N   0  0  0  0  0  0  0  0  0  0  0  0
    6.5070   -5.5140   22.5630 C   0  0  0  0  0  0  0  0  0  0  0  0
    5.9740   -5.1550   23.8800 C   0  0  0  0  0  0  0  0  0  0  0  0
    5.8640   -3.6930   24.0800 C   0  0  0  0  0  0  0  0  0  0  0  0
    5.1670   -3.1940   25.3560 C   0  0  0  0  0  0  0  0  0  0  0  0
    4.4220   -2.2160   25.2400 O   0  0  0  0  0  0  0  0  0  0  0  0
    5.2810   -3.7450   26.6660 N   0  0  0  0  0  0  0  0  0  0  0  0
    6.3760   -4.4260   27.0310 C   0  0  0  0  0  0  0  0  0  0  0  0
    6.5570   -5.0200   28.3330 C   0  0  0  0  0  0  0  0  0  0  0  0
    5.5340   -5.1030   29.1600 N   0  0  0  0  0  0  0  0  0  0  0  0
    5.2400   -6.3240   29.8780 C   0  0  0  0  0  0  0  0  0  0  0  0
    3.9230   -6.3700   30.2770 C   0  0  0  0  0  0  0  0  0  0  0  0
    3.0690   -6.6680   29.2450 N   0  0  0  0  0  0  0  0  0  0  0  0
    1.6970   -6.7040   29.7310 C   0  0  0  0  0  0  0  0  0  0  0  0
    1.9890   -6.3860   31.1270 C   0  0  0  0  0  0  0  0  0  0  0  0
    3.2400   -6.1960   31.4510 N   0  0  0  0  0  0  0  0  0  0  0  0
    3.7210   -5.8990   32.6590 C   0  0  0  0  0  0  0  0  0  0  0  0
    4.5860   -4.0770   29.0530 C   0  0  0  0  0  0  0  0  0  0  0  0
    4.6540   -3.1640   27.8110 C   0  0  0  0  0  0  0  0  0  0  0  0
    7.2230   -3.0170   23.8010 C   0  0  0  0  0  0  0  0  0  0  0  0
    7.5510   -3.1960   22.3440 C   0  0  0  0  0  0  0  0  0  0  0  0
  1  2  1  0
  2  3  2  0
  2  4  1  0
  4  5  1  0
  5  6  1  0
  6  7  1  0
  7  8  1  0
  8  9  2  0
  8 10  1  0
 10 11  1  0
 11 12  1  0
 12 13  1  0
 13 14  1  0
 14 15  1  0
 15 16  2  0
 16 17  1  0
 17 18  2  0
 15 19  1  0
 18 19  1  0
 19 20  1  0
 13 21  1  0
 10 22  1  0
 21 22  1  0
  7 23  1  0
  4 24  1  0
 23 24  1  0
M  END
