piperidine-amides-31589-covalent
     RDKit          3D

 28 31  0  0  0  0  0  0  0  0999 V2000
    7.0610   -3.3620   19.5220 C   0  0  0  0  0  0  0  0  0  0  0  0
    6.3880   -4.2210   20.4780 C   0  0  0  0  0  0  0  0  0  0  0  0
    5.4660   -4.9800   20.0230 O   0  0  0  0  0  0  0  0  0  0  0  0
    6.7320   -4.2500   21.8660 N   0  0  0  0  0  0  0  0  0  0  0  0
    6.5760   -5.5640   22.5680 C   0  0  0  0  0  0  0  0  0  0  0  0
    6.0000   -5.2120   24.0230 C   0  0  0  0  0  0  0  0  0  0  0  0
    6.0860   -3.7130   24.1690 C   0  0  0  0  0  0  0  0  0  0  0  0
    5.1410   -2.9330   25.2410 C   0  0  0  0  0  0  0  0  0  0  0  0
    4.5570   -2.0910   24.5920 O   0  0  0  0  0  0  0  0  0  0  0  0
    5.1260   -3.2770   26.5060 N   0  0  0  0  0  0  0  0  0  0  0  0
    4.6710   -3.3260   27.7800 C   0  0  0  0  0  0  0  0  0  0  0  0
    5.2300   -3.8450   28.8880 C   0  0  1  0  0  0  0  0  0  0  0  0
    4.6770   -5.0690   29.3030 C   0  0  0  0  0  0  0  0  0  0  0  0
    5.4120   -6.0950   28.9540 N   0  0  0  0  0  0  0  0  0  0  0  0
    4.7490   -6.7550   27.9330 C   0  0  0  0  0  0  0  0  0  0  0  0
    5.2490   -6.7770   26.6390 O   0  0  0  0  0  0  0  0  0  0  0  0
    3.4250   -7.4420   28.2780 C   0  0  0  0  0  0  0  0  0  0  0  0
    2.8900   -7.7370   26.9980 C   0  0  0  0  0  0  0  0  0  0  0  0
    1.6570   -8.3860   26.5800 C   0  0  0  0  0  0  0  0  0  0  0  0
    1.0910   -8.6670   28.0120 C   0  0  0  0  0  0  0  0  0  0  0  0
    1.6820   -8.3420   29.4030 C   0  0  0  0  0  0  0  0  0  0  0  0
    2.8400   -7.7340   29.4980 C   0  0  0  0  0  0  0  0  0  0  0  0
    3.3890   -7.4330   30.7110 F   0  0  0  0  0  0  0  0  0  0  0  0
    6.6510   -5.5330   28.5690 C   0  0  0  0  0  0  0  0  0  0  0  0
    6.4750   -4.2320   28.1830 C   0  0  1  0  0  0  0  0  0  0  0  0
    6.3410   -3.9590   26.8020 C   0  0  0  0  0  0  0  0  0  0  0  0
    7.3720   -3.0550   23.8330 C   0  0  0  0  0  0  0  0  0  0  0  0
    7.6510   -3.2360   22.3710 C   0  0  0  0  0  0  0  0  0  0  0  0
  1  2  1  0
  2  3  2  0
  2  4  1  0
  4  5  1  0
  5  6  1  0
  6  7  1  0
  7  8  1  0
  8  9  2  0
  8 10  1  0
 10 11  1  0
 12 11  1  6
 12 13  1  0
 13 14  1  0
 14 15  1  0
 15 16  2  0
 15 17  1  0
 17 18  2  0
 18 19  1  0
 19 20  2  0
 20 21  1  0
 17 22  1  0
 21 22  2  0
 22 23  1  0
 14 24  1  0
 12 25  1  0
 25 24  1  6
 10 26  1  0
 25 26  1  0
  7 27  1  0
  4 28  1  0
 27 28  1  0
M  END
