piperidine-amides-11258-covalent
     RDKit          3D

 18 18  0  0  0  0  0  0  0  0999 V2000
    7.1250   -3.2830   19.1920 C   0  0  0  0  0  0  0  0  0  0  0  0
    6.3890   -4.0180   20.2230 C   0  0  0  0  0  0  0  0  0  0  0  0
    5.3430   -4.6180   19.9170 O   0  0  0  0  0  0  0  0  0  0  0  0
    6.8830   -4.0950   21.5320 N   0  0  0  0  0  0  0  0  0  0  0  0
    7.7870   -3.0800   22.0420 C   0  0  0  0  0  0  0  0  0  0  0  0
    7.4660   -2.9120   23.4950 C   0  0  0  0  0  0  0  0  0  0  0  0
    6.1200   -3.4790   23.8100 C   0  0  0  0  0  0  0  0  0  0  0  0
    5.6610   -3.1890   25.1780 C   0  0  0  0  0  0  0  0  0  0  0  0
    4.4970   -2.7380   25.3780 O   0  0  0  0  0  0  0  0  0  0  0  0
    6.4560   -3.3970   26.3150 N   0  0  0  0  0  0  0  0  0  0  0  0
    5.9490   -4.3370   27.3230 C   0  0  1  0  0  0  0  0  0  0  0  0
    6.1280   -5.7340   26.8860 C   0  0  0  0  0  0  0  0  0  0  0  0
    6.6640   -4.2370   28.6570 C   0  0  0  0  0  0  0  0  0  0  0  0
    5.3440   -5.2150   29.2250 S   0  0  0  0  0  0  0  0  0  0  0  0
    5.8410   -6.8520   29.5640 C   0  0  0  0  0  0  0  0  0  0  0  0
    4.7990   -7.7220   28.9080 C   0  0  0  0  0  0  0  0  0  0  0  0
    6.1300   -4.9480   23.5510 C   0  0  0  0  0  0  0  0  0  0  0  0
    6.5330   -5.2640   22.2850 C   0  0  0  0  0  0  0  0  0  0  0  0
  1  2  1  0
  2  3  2  0
  2  4  1  0
  4  5  1  0
  5  6  1  0
  6  7  1  0
  7  8  1  0
  8  9  2  0
  8 10  1  0
 10 11  1  0
 11 12  1  6
 11 13  1  0
 13 14  1  0
 14 15  1  0
 15 16  1  0
  7 17  1  0
  4 18  1  0
 17 18  1  0
M  END
