piperidine-amides-13660-covalent
     RDKit          3D

 27 30  0  0  0  0  0  0  0  0999 V2000
    7.0880   -3.3430   19.3110 C   0  0  0  0  0  0  0  0  0  0  0  0
    6.3980   -4.1990   20.3100 C   0  0  0  0  0  0  0  0  0  0  0  0
    5.3710   -4.8120   19.9760 O   0  0  0  0  0  0  0  0  0  0  0  0
    6.9780   -4.3220   21.5910 N   0  0  0  0  0  0  0  0  0  0  0  0
    7.6960   -3.2320   22.1820 C   0  0  0  0  0  0  0  0  0  0  0  0
    6.7410   -2.6680   23.2200 C   0  0  0  0  0  0  0  0  0  0  0  0
    6.5500   -3.7450   24.2240 C   0  0  0  0  0  0  0  0  0  0  0  0
    5.7590   -3.3050   25.3990 C   0  0  0  0  0  0  0  0  0  0  0  0
    4.5370   -3.2840   25.2570 O   0  0  0  0  0  0  0  0  0  0  0  0
    6.3770   -2.9690   26.5990 N   0  0  0  0  0  0  0  0  0  0  0  0
    6.4100   -1.7060   27.2660 C   0  0  0  0  0  0  0  0  0  0  0  0
    7.0240   -1.5900   28.5030 C   0  0  0  0  0  0  0  0  0  0  0  0
    7.1190   -0.4100   29.2650 C   0  0  0  0  0  0  0  0  0  0  0  0
    6.5840    0.7740   28.8200 C   0  0  0  0  0  0  0  0  0  0  0  0
    5.9110    0.7560   27.5160 C   0  0  0  0  0  0  0  0  0  0  0  0
    5.8220   -0.5310   26.7130 C   0  0  0  0  0  0  0  0  0  0  0  0
    5.0580   -0.1770   25.4300 C   0  0  0  0  0  0  0  0  0  0  0  0
    5.5330   -0.3130   24.1360 N   0  0  0  0  0  0  0  0  0  0  0  0
    4.5520    0.1260   23.3170 C   0  0  0  0  0  0  0  0  0  0  0  0
    3.4390    0.5480   24.1380 C   0  0  0  0  0  0  0  0  0  0  0  0
    3.7960    0.3440   25.3430 N   0  0  0  0  0  0  0  0  0  0  0  0
    2.9620    0.6370   26.4920 C   0  0  0  0  0  0  0  0  0  0  0  0
    1.7870   -0.1100   26.3040 C   0  0  0  0  0  0  0  0  0  0  0  0
    1.5660    1.1130   25.3280 C   0  0  0  0  0  0  0  0  0  0  0  0
    2.2260    1.0600   23.9590 C   0  0  0  0  0  0  0  0  0  0  0  0
    5.8680   -4.9880   23.6620 C   0  0  0  0  0  0  0  0  0  0  0  0
    6.6080   -5.4420   22.4480 C   0  0  0  0  0  0  0  0  0  0  0  0
  1  2  1  0
  2  3  2  0
  2  4  1  0
  4  5  1  0
  5  6  1  0
  6  7  1  0
  7  8  1  0
  8  9  2  0
  8 10  1  0
 10 11  1  0
 11 12  2  0
 12 13  1  0
 13 14  2  0
 14 15  1  0
 11 16  1  0
 15 16  2  0
 16 17  1  0
 17 18  2  0
 18 19  1  0
 19 20  2  0
 17 21  1  0
 20 21  1  0
 21 22  1  0
 22 23  1  0
 23 24  1  0
 20 25  1  0
 24 25  1  0
  7 26  1  0
  4 27  1  0
 26 27  1  0
M  END
