piperidine-amides-13296-covalent
     RDKit          3D

 20 21  0  0  0  0  0  0  0  0999 V2000
    7.0700   -3.2850   19.2210 C   0  0  0  0  0  0  0  0  0  0  0  0
    6.3200   -4.0510   20.2460 C   0  0  0  0  0  0  0  0  0  0  0  0
    5.2360   -4.5360   19.8710 O   0  0  0  0  0  0  0  0  0  0  0  0
    6.8170   -4.2750   21.5390 N   0  0  0  0  0  0  0  0  0  0  0  0
    6.2450   -5.3320   22.2950 C   0  0  0  0  0  0  0  0  0  0  0  0
    5.5820   -4.8740   23.5220 C   0  0  0  0  0  0  0  0  0  0  0  0
    6.1900   -3.6750   24.1670 C   0  0  0  0  0  0  0  0  0  0  0  0
    5.2290   -3.0710   25.1480 C   0  0  0  0  0  0  0  0  0  0  0  0
    4.1380   -3.6450   25.3030 O   0  0  0  0  0  0  0  0  0  0  0  0
    5.4970   -1.8900   25.9000 N   0  0  0  0  0  0  0  0  0  0  0  0
    6.5970   -1.8300   26.8730 C   0  0  0  0  0  0  0  0  0  0  0  0
    7.5440   -2.8080   26.3920 C   0  0  0  0  0  0  0  0  0  0  0  0
    8.3010   -2.6060   25.1790 N   0  0  0  0  0  0  0  0  0  0  0  0
    8.9910   -3.6710   25.0660 N   0  0  0  0  0  0  0  0  0  0  0  0
    8.7320   -4.5270   26.1290 C   0  0  0  0  0  0  0  0  0  0  0  0
    9.4520   -6.1980   26.5070 Br  0  0  0  0  0  0  0  0  0  0  0  0
    7.8710   -3.9980   26.9150 N   0  0  0  0  0  0  0  0  0  0  0  0
    7.5930   -4.8000   27.9720 C   0  0  0  0  0  0  0  0  0  0  0  0
    6.6780   -2.6580   23.1680 C   0  0  0  0  0  0  0  0  0  0  0  0
    7.4780   -3.1900   22.2000 C   0  0  0  0  0  0  0  0  0  0  0  0
  1  2  1  0
  2  3  2  0
  2  4  1  0
  4  5  1  0
  5  6  1  0
  6  7  1  0
  7  8  1  0
  8  9  2  0
  8 10  1  0
 10 11  1  0
 11 12  1  0
 12 13  2  0
 13 14  1  0
 14 15  2  0
 15 16  1  0
 12 17  1  0
 15 17  1  0
 17 18  1  0
  7 19  1  0
  4 20  1  0
 19 20  1  0
M  END
