piperidine-amides-8199-covalent
     RDKit          3D

 25 27  0  0  0  0  0  0  0  0999 V2000
    7.0490   -3.3460   19.3200 C   0  0  0  0  0  0  0  0  0  0  0  0
    6.3990   -4.1880   20.3210 C   0  0  0  0  0  0  0  0  0  0  0  0
    5.3830   -4.8190   19.9800 O   0  0  0  0  0  0  0  0  0  0  0  0
    6.9620   -4.3030   21.6240 N   0  0  0  0  0  0  0  0  0  0  0  0
    6.5370   -5.3870   22.4550 C   0  0  0  0  0  0  0  0  0  0  0  0
    5.6980   -4.8410   23.5780 C   0  0  0  0  0  0  0  0  0  0  0  0
    6.4970   -3.7620   24.2880 C   0  0  0  0  0  0  0  0  0  0  0  0
    5.6770   -3.1670   25.4040 C   0  0  0  0  0  0  0  0  0  0  0  0
    4.4920   -2.9750   25.1420 O   0  0  0  0  0  0  0  0  0  0  0  0
    6.2760   -2.8820   26.6370 N   0  0  0  0  0  0  0  0  0  0  0  0
    6.6540   -1.5590   27.0500 C   0  0  0  0  0  0  0  0  0  0  0  0
    5.6770   -0.5820   26.6930 C   0  0  0  0  0  0  0  0  0  0  0  0
    5.7230    0.6500   27.2960 C   0  0  0  0  0  0  0  0  0  0  0  0
    6.0270    0.4690   28.6440 N   0  0  0  0  0  0  0  0  0  0  0  0
    5.9190    1.6610   29.3840 C   0  0  0  0  0  0  0  0  0  0  0  0
    4.7710    2.5700   29.1200 C   0  0  0  0  0  0  0  0  0  0  0  0
    4.5470    3.9030   29.8700 C   0  0  0  0  0  0  0  0  0  0  0  0
    5.5310    4.3130   30.9190 C   0  0  0  0  0  0  0  0  0  0  0  0
    5.3560    5.8030   31.8180 Cl  0  0  0  0  0  0  0  0  0  0  0  0
    6.6730    3.3480   31.1390 C   0  0  0  0  0  0  0  0  0  0  0  0
    6.8400    2.0260   30.3530 C   0  0  0  0  0  0  0  0  0  0  0  0
    6.4570   -0.7130   29.2870 C   0  0  0  0  0  0  0  0  0  0  0  0
    7.1460   -1.4670   28.3610 C   0  0  0  0  0  0  0  0  0  0  0  0
    6.9290   -2.6640   23.3780 C   0  0  0  0  0  0  0  0  0  0  0  0
    7.6940   -3.2180   22.2150 C   0  0  0  0  0  0  0  0  0  0  0  0
  1  2  1  0
  2  3  2  0
  2  4  1  0
  4  5  1  0
  5  6  1  0
  6  7  1  0
  7  8  1  0
  8  9  2  0
  8 10  1  0
 10 11  1  0
 11 12  1  0
 12 13  1  0
 13 14  1  0
 14 15  1  0
 15 16  2  0
 16 17  1  0
 17 18  2  0
 18 19  1  0
 18 20  1  0
 15 21  1  0
 20 21  2  0
 14 22  1  0
 11 23  1  0
 22 23  1  0
  7 24  1  0
  4 25  1  0
 24 25  1  0
M  END
