piperidine-amides-19105-covalent
     RDKit          3D

 20 21  0  0  0  0  0  0  0  0999 V2000
    7.0580   -3.4170   19.3690 C   0  0  0  0  0  0  0  0  0  0  0  0
    6.4270   -4.2360   20.3770 C   0  0  0  0  0  0  0  0  0  0  0  0
    5.3980   -4.8870   20.0060 O   0  0  0  0  0  0  0  0  0  0  0  0
    6.9250   -4.4020   21.6990 N   0  0  0  0  0  0  0  0  0  0  0  0
    6.5640   -5.6090   22.4490 C   0  0  0  0  0  0  0  0  0  0  0  0
    5.4580   -4.9620   23.3560 C   0  0  0  0  0  0  0  0  0  0  0  0
    6.1540   -3.9630   24.2610 C   0  0  0  0  0  0  0  0  0  0  0  0
    5.0890   -3.3650   25.2940 C   0  0  0  0  0  0  0  0  0  0  0  0
    4.0790   -3.0810   24.6780 O   0  0  0  0  0  0  0  0  0  0  0  0
    5.5120   -3.3100   26.5030 N   0  0  0  0  0  0  0  0  0  0  0  0
    5.7240   -2.8530   27.7740 C   0  0  0  0  0  0  0  0  0  0  0  0
    5.0860   -3.0900   28.9450 C   0  0  0  0  0  0  0  0  0  0  0  0
    4.7220   -4.6940   29.1230 S   0  0  0  0  0  0  0  0  0  0  0  0
    3.2870   -4.9200   28.8710 O   0  0  0  0  0  0  0  0  0  0  0  0
    5.6840   -5.4080   27.9200 C   0  0  0  0  0  0  0  0  0  0  0  0
    5.0300   -6.1150   26.7990 C   0  0  0  0  0  0  0  0  0  0  0  0
    6.6710   -6.2620   28.6460 C   0  0  0  0  0  0  0  0  0  0  0  0
    6.3580   -4.3950   27.0570 C   0  0  0  0  0  0  0  0  0  0  0  0
    6.9130   -2.8470   23.5420 C   0  0  0  0  0  0  0  0  0  0  0  0
    7.7380   -3.3990   22.3690 C   0  0  0  0  0  0  0  0  0  0  0  0
  1  2  1  0
  2  3  2  0
  2  4  1  0
  4  5  1  0
  5  6  1  0
  6  7  1  0
  7  8  1  0
  8  9  2  0
  8 10  1  0
 10 11  1  0
 11 12  1  0
 13 12  1  6
 13 14  2  0
 13 15  1  0
 15 16  1  0
 15 17  1  0
 10 18  1  0
 15 18  1  0
  7 19  1  0
  4 20  1  0
 19 20  1  0
M  END
