piperidine-amides-798-covalent
     RDKit          3D

 25 26  0  0  0  0  0  0  0  0999 V2000
    7.1060   -3.2900   19.4080 C   0  0  0  0  0  0  0  0  0  0  0  0
    6.3720   -4.0780   20.3720 C   0  0  0  0  0  0  0  0  0  0  0  0
    5.3740   -4.7520   19.9590 O   0  0  0  0  0  0  0  0  0  0  0  0
    6.7390   -4.1630   21.7380 N   0  0  0  0  0  0  0  0  0  0  0  0
    6.6950   -5.5430   22.2840 C   0  0  0  0  0  0  0  0  0  0  0  0
    6.4950   -5.2940   23.8260 C   0  0  0  0  0  0  0  0  0  0  0  0
    6.2600   -3.8170   23.9840 C   0  0  0  0  0  0  0  0  0  0  0  0
    5.4780   -3.5050   25.3360 C   0  0  0  0  0  0  0  0  0  0  0  0
    4.4490   -4.1550   25.3320 O   0  0  0  0  0  0  0  0  0  0  0  0
    6.0360   -2.6580   26.1100 N   0  0  0  0  0  0  0  0  0  0  0  0
    6.3440   -1.7290   27.0580 C   0  0  0  0  0  0  0  0  0  0  0  0
    6.9640   -1.6890   28.2860 C   0  0  0  0  0  0  0  0  0  0  0  0
    7.1210   -0.5390   29.0910 C   0  0  0  0  0  0  0  0  0  0  0  0
    6.6580    0.8320   28.7840 C   0  0  0  0  0  0  0  0  0  0  0  0
    5.9970    0.6820   27.4150 C   0  0  0  0  0  0  0  0  0  0  0  0
    5.5910    2.0050   27.1870 C   0  0  0  0  0  0  0  0  0  0  0  0
    3.7950    2.0290   27.3460 S   0  0  0  0  0  0  0  0  0  0  0  0
    3.2950    3.4110   27.4640 O   0  0  0  0  0  0  0  0  0  0  0  0
    3.5680    1.0630   28.8410 C   0  0  0  0  0  0  0  0  0  0  0  0
    2.0970    1.3950   29.1000 C   0  0  0  0  0  0  0  0  0  0  0  0
    1.9720    2.3320   30.1010 O   0  0  0  0  0  0  0  0  0  0  0  0
    2.7210    2.3510   31.2860 C   0  0  0  0  0  0  0  0  0  0  0  0
    5.7860   -0.3930   26.5310 C   0  0  0  0  0  0  0  0  0  0  0  0
    7.4330   -2.9540   23.6100 C   0  0  0  0  0  0  0  0  0  0  0  0
    7.6770   -3.1760   22.2840 C   0  0  0  0  0  0  0  0  0  0  0  0
  1  2  1  0
  2  3  2  0
  2  4  1  0
  4  5  1  0
  5  6  1  0
  6  7  1  0
  7  8  1  0
  8  9  2  0
  8 10  1  0
 10 11  1  0
 11 12  2  0
 12 13  1  0
 13 14  2  0
 14 15  1  0
 15 16  1  0
 17 16  1  1
 17 18  2  0
 17 19  1  0
 19 20  1  0
 20 21  1  0
 21 22  1  0
 11 23  1  0
 15 23  2  0
  7 24  1  0
  4 25  1  0
 24 25  1  0
M  END
