piperidine-amides-24617-covalent
     RDKit          3D

 24 25  0  0  0  0  0  0  0  0999 V2000
    7.0760   -3.3110   19.3170 C   0  0  0  0  0  0  0  0  0  0  0  0
    6.3720   -4.1630   20.2880 C   0  0  0  0  0  0  0  0  0  0  0  0
    5.3390   -4.7800   19.9570 O   0  0  0  0  0  0  0  0  0  0  0  0
    6.8730   -4.3400   21.5780 N   0  0  0  0  0  0  0  0  0  0  0  0
    7.7210   -3.3250   22.1730 C   0  0  0  0  0  0  0  0  0  0  0  0
    6.9750   -2.7970   23.3920 C   0  0  0  0  0  0  0  0  0  0  0  0
    6.6550   -4.0060   24.2470 C   0  0  0  0  0  0  0  0  0  0  0  0
    6.0110   -3.5390   25.4910 C   0  0  0  0  0  0  0  0  0  0  0  0
    4.7710   -3.7040   25.6170 O   0  0  0  0  0  0  0  0  0  0  0  0
    6.8010   -2.9130   26.4950 N   0  0  0  0  0  0  0  0  0  0  0  0
    7.3530   -3.6740   27.5980 C   0  0  0  0  0  0  0  0  0  0  0  0
    8.0490   -4.9390   27.1230 C   0  0  0  0  0  0  0  0  0  0  0  0
    8.7920   -4.8080   26.0030 F   0  0  0  0  0  0  0  0  0  0  0  0
    7.0060   -5.8710   26.9130 F   0  0  0  0  0  0  0  0  0  0  0  0
    6.5550   -1.4950   26.7730 C   0  0  0  0  0  0  0  0  0  0  0  0
    6.2110   -0.1110   26.8990 C   0  0  0  0  0  0  0  0  0  0  0  0
    5.3740    0.7270   26.0990 N   0  0  0  0  0  0  0  0  0  0  0  0
    4.7600    0.2540   25.0340 C   0  0  0  0  0  0  0  0  0  0  0  0
    3.9490    1.0300   24.2360 C   0  0  0  0  0  0  0  0  0  0  0  0
    3.1190    1.9680   24.7030 N   0  0  0  0  0  0  0  0  0  0  0  0
    5.0160   -1.1690   24.7690 C   0  0  0  0  0  0  0  0  0  0  0  0
    5.8350   -1.8160   25.6290 N   0  0  0  0  0  0  0  0  0  0  0  0
    5.8270   -5.0220   23.5250 C   0  0  0  0  0  0  0  0  0  0  0  0
    6.5830   -5.5330   22.3430 C   0  0  0  0  0  0  0  0  0  0  0  0
  1  2  1  0
  2  3  2  0
  2  4  1  0
  4  5  1  0
  5  6  1  0
  6  7  1  0
  7  8  1  0
  8  9  2  0
  8 10  1  0
 10 11  1  0
 11 12  1  0
 12 13  1  0
 12 14  1  0
 10 15  1  0
 15 16  2  0
 16 17  1  0
 17 18  2  0
 18 19  1  0
 19 20  3  0
 18 21  1  0
 15 22  1  0
 21 22  2  0
  7 23  1  0
  4 24  1  0
 23 24  1  0
M  END
