piperidine-amides-10071-covalent
     RDKit          3D

 25 27  0  0  0  0  0  0  0  0999 V2000
    7.0520   -3.3300   19.3310 C   0  0  0  0  0  0  0  0  0  0  0  0
    6.3140   -4.1260   20.3200 C   0  0  0  0  0  0  0  0  0  0  0  0
    5.2500   -4.6530   19.9120 O   0  0  0  0  0  0  0  0  0  0  0  0
    6.7960   -4.3270   21.6170 N   0  0  0  0  0  0  0  0  0  0  0  0
    6.6760   -5.6350   22.2160 C   0  0  0  0  0  0  0  0  0  0  0  0
    6.4430   -5.4670   23.6840 C   0  0  0  0  0  0  0  0  0  0  0  0
    6.0400   -4.0650   24.0230 C   0  0  0  0  0  0  0  0  0  0  0  0
    5.6290   -3.9610   25.4470 C   0  0  0  0  0  0  0  0  0  0  0  0
    4.3970   -4.0010   25.6580 O   0  0  0  0  0  0  0  0  0  0  0  0
    6.4700   -3.7830   26.5700 N   0  0  0  0  0  0  0  0  0  0  0  0
    6.3250   -2.5000   27.1680 C   0  0  2  0  0  0  0  0  0  0  0  0
    6.6590   -1.5690   26.0300 C   0  0  0  0  0  0  0  0  0  0  0  0
    6.0900   -0.3680   26.0910 C   0  0  0  0  0  0  0  0  0  0  0  0
    5.6490   -0.0340   27.3520 C   0  0  0  0  0  0  0  0  0  0  0  0
    6.5040    0.6330   28.1960 C   0  0  0  0  0  0  0  0  0  0  0  0
    5.8000    1.5710   27.5180 C   0  0  0  0  0  0  0  0  0  0  0  0
    4.9010    1.1170   26.6010 C   0  0  0  0  0  0  0  0  0  0  0  0
    4.0950    1.8820   25.7820 O   0  0  0  0  0  0  0  0  0  0  0  0
    3.4440    1.9910   24.6170 C   0  0  0  0  0  0  0  0  0  0  0  0
    4.8650   -0.2200   26.5560 C   0  0  0  0  0  0  0  0  0  0  0  0
    5.7680   -1.0750   27.4330 C   0  0  0  0  0  0  0  0  0  0  0  0
    6.8350   -0.6950   28.4840 C   0  0  0  0  0  0  0  0  0  0  0  0
    6.8250   -2.0800   28.4240 C   0  0  0  0  0  0  0  0  0  0  0  0
    7.1580   -3.0930   23.6450 C   0  0  0  0  0  0  0  0  0  0  0  0
    7.7150   -3.3980   22.2600 C   0  0  0  0  0  0  0  0  0  0  0  0
  1  2  1  0
  2  3  2  0
  2  4  1  0
  4  5  1  0
  5  6  1  0
  6  7  1  0
  7  8  1  0
  8  9  2  0
  8 10  1  0
 11 10  1  6
 11 12  1  0
 12 13  1  0
 13 14  1  0
 14 15  1  0
 15 16  1  0
 16 17  2  0
 17 18  1  0
 18 19  1  0
 17 20  1  0
 20 21  2  0
 15 22  2  0
 21 22  1  0
 11 23  1  0
 22 23  1  0
  7 24  1  0
  4 25  1  0
 24 25  1  0
M  END
