piperidine-amides-4730-covalent
     RDKit          3D

 24 25  0  0  0  0  0  0  0  0999 V2000
    7.1750   -3.2420   19.1430 C   0  0  0  0  0  0  0  0  0  0  0  0
    6.3790   -3.9670   20.1570 C   0  0  0  0  0  0  0  0  0  0  0  0
    5.2610   -4.3950   19.8110 O   0  0  0  0  0  0  0  0  0  0  0  0
    6.9040   -4.2040   21.4210 N   0  0  0  0  0  0  0  0  0  0  0  0
    6.4740   -5.3400   22.1660 C   0  0  0  0  0  0  0  0  0  0  0  0
    5.9000   -4.9980   23.4640 C   0  0  0  0  0  0  0  0  0  0  0  0
    6.5630   -3.8570   24.1230 C   0  0  0  0  0  0  0  0  0  0  0  0
    5.7690   -3.3720   25.2620 C   0  0  0  0  0  0  0  0  0  0  0  0
    4.5990   -2.9880   25.0640 O   0  0  0  0  0  0  0  0  0  0  0  0
    6.3360   -3.3400   26.5300 N   0  0  0  0  0  0  0  0  0  0  0  0
    5.8430   -4.1320   27.6700 C   0  0  0  0  0  0  0  0  0  0  0  0
    4.4600   -3.6950   28.0140 C   0  0  0  0  0  0  0  0  0  0  0  0
    6.7040   -3.8450   28.8010 C   0  0  0  0  0  0  0  0  0  0  0  0
    5.8920   -5.5560   27.3980 C   0  0  0  0  0  0  0  0  0  0  0  0
    6.8440   -6.1960   27.8480 O   0  0  0  0  0  0  0  0  0  0  0  0
    4.8630   -6.2000   26.7070 N   0  0  0  0  0  0  0  0  0  0  0  0
    3.8750   -6.8340   27.5490 C   0  0  0  0  0  0  0  0  0  0  0  0
    4.3010   -7.2220   28.7830 C   0  0  0  0  0  0  0  0  0  0  0  0
    3.4470   -7.8250   29.6650 C   0  0  0  0  0  0  0  0  0  0  0  0
    2.1300   -8.0710   29.3580 C   0  0  0  0  0  0  0  0  0  0  0  0
    1.6620   -7.6870   28.0990 C   0  0  0  0  0  0  0  0  0  0  0  0
    2.5880   -7.0390   27.1600 C   0  0  0  0  0  0  0  0  0  0  0  0
    6.8800   -2.7250   23.2300 C   0  0  0  0  0  0  0  0  0  0  0  0
    7.7060   -3.1970   22.0870 C   0  0  0  0  0  0  0  0  0  0  0  0
  1  2  1  0
  2  3  2  0
  2  4  1  0
  4  5  1  0
  5  6  1  0
  6  7  1  0
  7  8  1  0
  8  9  2  0
  8 10  1  0
 10 11  1  0
 11 12  1  0
 11 13  1  0
 11 14  1  0
 14 15  2  0
 14 16  1  0
 16 17  1  0
 17 18  2  0
 18 19  1  0
 19 20  2  0
 20 21  1  0
 17 22  1  0
 21 22  2  0
  7 23  1  0
  4 24  1  0
 23 24  1  0
M  END
