piperidine-amides-9276-covalent
     RDKit          3D

 20 21  0  0  0  0  0  0  0  0999 V2000
    7.0810   -3.3310   19.2780 C   0  0  0  0  0  0  0  0  0  0  0  0
    6.3820   -4.1350   20.2790 C   0  0  0  0  0  0  0  0  0  0  0  0
    5.3550   -4.7550   19.9580 O   0  0  0  0  0  0  0  0  0  0  0  0
    6.8860   -4.2550   21.5820 N   0  0  0  0  0  0  0  0  0  0  0  0
    7.7410   -3.2550   22.1800 C   0  0  0  0  0  0  0  0  0  0  0  0
    6.9460   -2.6880   23.3140 C   0  0  0  0  0  0  0  0  0  0  0  0
    6.5310   -3.7700   24.2490 C   0  0  0  0  0  0  0  0  0  0  0  0
    5.7900   -3.2380   25.4160 C   0  0  0  0  0  0  0  0  0  0  0  0
    4.5330   -3.1000   25.3720 O   0  0  0  0  0  0  0  0  0  0  0  0
    6.4430   -2.8670   26.6120 N   0  0  0  0  0  0  0  0  0  0  0  0
    6.0290   -1.6900   27.4140 C   0  0  1  0  0  0  0  0  0  0  0  0
    7.0990   -1.4150   28.3800 C   0  0  0  0  0  0  0  0  0  0  0  0
    6.7480   -0.4380   29.3960 C   0  0  0  0  0  0  0  0  0  0  0  0
    5.7480    0.5530   28.8740 C   0  0  2  0  0  0  0  0  0  0  0  0
    4.5490   -0.0690   29.1080 O   0  0  0  0  0  0  0  0  0  0  0  0
    4.1110    0.2610   30.3630 C   0  0  0  0  0  0  0  0  0  0  0  0
    5.9200    0.7360   27.3470 C   0  0  0  0  0  0  0  0  0  0  0  0
    5.8390   -0.4120   26.5610 C   0  0  0  0  0  0  0  0  0  0  0  0
    5.7200   -4.8440   23.5580 C   0  0  0  0  0  0  0  0  0  0  0  0
    6.5310   -5.3940   22.4030 C   0  0  0  0  0  0  0  0  0  0  0  0
  1  2  1  0
  2  3  2  0
  2  4  1  0
  4  5  1  0
  5  6  1  0
  6  7  1  0
  7  8  1  0
  8  9  2  0
  8 10  1  0
 11 10  1  6
 11 12  1  0
 12 13  1  0
 13 14  1  0
 14 15  1  6
 15 16  1  0
 14 17  1  0
 11 18  1  0
 17 18  1  0
  7 19  1  0
  4 20  1  0
 19 20  1  0
M  END
