piperidine-amides-27114-covalent
     RDKit          3D

 25 27  0  0  0  0  0  0  0  0999 V2000
    7.0300   -3.3520   19.3750 C   0  0  0  0  0  0  0  0  0  0  0  0
    6.3940   -4.2150   20.3740 C   0  0  0  0  0  0  0  0  0  0  0  0
    5.3830   -4.8600   19.9850 O   0  0  0  0  0  0  0  0  0  0  0  0
    6.9240   -4.3450   21.6700 N   0  0  0  0  0  0  0  0  0  0  0  0
    6.5940   -5.4700   22.4960 C   0  0  0  0  0  0  0  0  0  0  0  0
    5.7890   -4.9610   23.6730 C   0  0  0  0  0  0  0  0  0  0  0  0
    6.3300   -3.6760   24.2780 C   0  0  0  0  0  0  0  0  0  0  0  0
    5.2670   -3.0190   25.1310 C   0  0  0  0  0  0  0  0  0  0  0  0
    4.3660   -2.3900   24.5570 O   0  0  0  0  0  0  0  0  0  0  0  0
    5.2510   -3.0970   26.5490 N   0  0  0  0  0  0  0  0  0  0  0  0
    6.2900   -4.0120   27.0160 C   0  0  0  0  0  0  0  0  0  0  0  0
    6.5060   -4.4690   28.4780 C   0  0  1  0  0  0  0  0  0  0  0  0
    5.6820   -3.8480   29.0790 C   0  0  0  0  0  0  0  0  0  0  0  0
    4.5990   -4.1880   28.4060 C   0  0  1  0  0  0  0  0  0  0  0  0
    4.4620   -5.2670   27.5180 C   0  0  0  0  0  0  0  0  0  0  0  0
    4.3920   -5.0410   26.1600 O   0  0  0  0  0  0  0  0  0  0  0  0
    4.3240   -6.5840   27.9380 O   0  0  0  0  0  0  0  0  0  0  0  0
    3.2780   -7.3780   27.4630 C   0  0  0  0  0  0  0  0  0  0  0  0
    3.9350   -4.9280   29.4600 C   0  0  0  0  0  0  0  0  0  0  0  0
    5.0220   -5.9800   29.8240 C   0  0  0  0  0  0  0  0  0  0  0  0
    6.3000   -5.8540   28.8220 C   0  0  1  0  0  0  0  0  0  0  0  0
    5.9330   -6.6240   27.5170 O   0  0  0  0  0  0  0  0  0  0  0  0
    4.2780   -3.1340   27.6720 C   0  0  0  0  0  0  0  0  0  0  0  0
    6.7830   -2.6870   23.2290 C   0  0  0  0  0  0  0  0  0  0  0  0
    7.6690   -3.2880   22.3500 C   0  0  0  0  0  0  0  0  0  0  0  0
  1  2  1  0
  2  3  2  0
  2  4  1  0
  4  5  1  0
  5  6  1  0
  6  7  1  0
  7  8  1  0
  8  9  2  0
  8 10  1  0
 10 11  1  0
 12 11  1  6
 12 13  1  0
 13 14  1  0
 14 15  1  6
 15 16  2  0
 15 17  1  0
 17 18  1  0
 14 19  1  0
 19 20  1  0
 12 21  1  0
 20 21  1  0
 21 22  1  6
 10 23  1  0
 14 23  1  0
  7 24  1  0
  4 25  1  0
 24 25  1  0
M  END
