piperidine-amides-32961-covalent
     RDKit          3D

 29 31  0  0  0  0  0  0  0  0999 V2000
    7.0730   -3.3510   19.3920 C   0  0  0  0  0  0  0  0  0  0  0  0
    6.3390   -4.1870   20.3760 C   0  0  0  0  0  0  0  0  0  0  0  0
    5.3560   -4.8410   19.9800 O   0  0  0  0  0  0  0  0  0  0  0  0
    6.7930   -4.2610   21.7150 N   0  0  0  0  0  0  0  0  0  0  0  0
    6.6450   -5.4900   22.4630 C   0  0  0  0  0  0  0  0  0  0  0  0
    6.2300   -5.1630   23.9110 C   0  0  0  0  0  0  0  0  0  0  0  0
    6.1210   -3.6800   24.0610 C   0  0  0  0  0  0  0  0  0  0  0  0
    5.5500   -3.2030   25.3590 C   0  0  0  0  0  0  0  0  0  0  0  0
    4.3330   -3.0070   25.3070 O   0  0  0  0  0  0  0  0  0  0  0  0
    6.2590   -2.9810   26.5650 N   0  0  0  0  0  0  0  0  0  0  0  0
    6.4270   -4.0420   27.5030 C   0  0  0  0  0  0  0  0  0  0  0  0
    5.9280   -1.7420   27.2230 C   0  0  2  0  0  0  0  0  0  0  0  0
    5.6880   -0.5830   26.4800 C   0  0  0  0  0  0  0  0  0  0  0  0
    5.9380    0.4740   27.3090 C   0  0  0  0  0  0  0  0  0  0  0  0
    6.5420    0.0630   28.4520 N   0  0  0  0  0  0  0  0  0  0  0  0
    6.2080    0.6240   29.6350 C   0  0  0  0  0  0  0  0  0  0  0  0
    5.2960    1.8490   29.8240 C   0  0  0  0  0  0  0  0  0  0  0  0
    5.0070    2.3740   31.2390 C   0  0  0  0  0  0  0  0  0  0  0  0
    4.1730    3.4780   31.2750 O   0  0  0  0  0  0  0  0  0  0  0  0
    2.8850    3.0540   31.0200 C   0  0  0  0  0  0  0  0  0  0  0  0
    5.6170    1.6860   32.4080 C   0  0  0  0  0  0  0  0  0  0  0  0
    6.5130    0.4830   32.1990 C   0  0  0  0  0  0  0  0  0  0  0  0
    7.0750   -0.1440   33.3220 O   0  0  0  0  0  0  0  0  0  0  0  0
    8.3470    0.1430   33.8340 C   0  0  0  0  0  0  0  0  0  0  0  0
    6.7700    0.0050   30.8310 C   0  0  0  0  0  0  0  0  0  0  0  0
    6.6730   -1.3880   28.3410 C   0  0  0  0  0  0  0  0  0  0  0  0
    7.3190   -2.1350   29.1100 O   0  0  0  0  0  0  0  0  0  0  0  0
    7.4030   -2.9730   23.6950 C   0  0  0  0  0  0  0  0  0  0  0  0
    7.6410   -3.1850   22.2450 C   0  0  0  0  0  0  0  0  0  0  0  0
  1  2  1  0
  2  3  2  0
  2  4  1  0
  4  5  1  0
  5  6  1  0
  6  7  1  0
  7  8  1  0
  8  9  2  0
  8 10  1  0
 10 11  1  0
 12 10  1  6
 12 13  1  0
 13 14  1  0
 14 15  1  0
 15 16  1  0
 16 17  2  0
 17 18  1  0
 18 19  1  0
 19 20  1  0
 18 21  2  0
 21 22  1  0
 22 23  1  0
 23 24  1  0
 16 25  1  0
 22 25  2  0
 12 26  1  0
 15 26  1  0
 26 27  2  0
  7 28  1  0
  4 29  1  0
 28 29  1  0
M  END
