piperidine-amides-3340-covalent
     RDKit          3D

 22 23  0  0  0  0  0  0  0  0999 V2000
    7.0460   -3.3460   19.3030 C   0  0  0  0  0  0  0  0  0  0  0  0
    6.3580   -4.1560   20.3050 C   0  0  0  0  0  0  0  0  0  0  0  0
    5.3740   -4.8200   19.9760 O   0  0  0  0  0  0  0  0  0  0  0  0
    6.8490   -4.2200   21.6550 N   0  0  0  0  0  0  0  0  0  0  0  0
    7.7080   -3.1750   22.1510 C   0  0  0  0  0  0  0  0  0  0  0  0
    7.4770   -3.0150   23.6180 C   0  0  0  0  0  0  0  0  0  0  0  0
    6.1050   -3.5920   23.9070 C   0  0  0  0  0  0  0  0  0  0  0  0
    5.6330   -3.2130   25.2760 C   0  0  0  0  0  0  0  0  0  0  0  0
    4.4250   -3.1810   25.5720 O   0  0  0  0  0  0  0  0  0  0  0  0
    6.5980   -2.9010   26.2570 N   0  0  0  0  0  0  0  0  0  0  0  0
    6.5300   -1.6890   27.0590 C   0  0  0  0  0  0  0  0  0  0  0  0
    7.1000   -1.6450   28.4490 C   0  0  0  0  0  0  0  0  0  0  0  0
    7.0520   -0.5050   29.2320 C   0  0  0  0  0  0  0  0  0  0  0  0
    6.4570    0.6790   28.7530 C   0  0  0  0  0  0  0  0  0  0  0  0
    5.9020    0.7440   27.4880 C   0  0  0  0  0  0  0  0  0  0  0  0
    5.9030   -0.3970   26.5900 C   0  0  0  0  0  0  0  0  0  0  0  0
    5.3690   -0.2570   25.4400 O   0  0  0  0  0  0  0  0  0  0  0  0
    4.2140    0.5400   25.5080 C   0  0  0  0  0  0  0  0  0  0  0  0
    3.1180   -0.0920   25.0580 F   0  0  0  0  0  0  0  0  0  0  0  0
    4.3730    1.7680   24.9060 F   0  0  0  0  0  0  0  0  0  0  0  0
    6.1870   -5.1110   23.7700 C   0  0  0  0  0  0  0  0  0  0  0  0
    6.4880   -5.3980   22.4310 C   0  0  0  0  0  0  0  0  0  0  0  0
  1  2  1  0
  2  3  2  0
  2  4  1  0
  4  5  1  0
  5  6  1  0
  6  7  1  0
  7  8  1  0
  8  9  2  0
  8 10  1  0
 10 11  1  0
 11 12  2  0
 12 13  1  0
 13 14  2  0
 14 15  1  0
 11 16  1  0
 15 16  2  0
 16 17  1  0
 17 18  1  0
 18 19  1  0
 18 20  1  0
  7 21  1  0
  4 22  1  0
 21 22  1  0
M  END
