piperidine-amides-5491-covalent
     RDKit          3D

 20 20  0  0  0  0  0  0  0  0999 V2000
    7.0870   -3.2970   19.2360 C   0  0  0  0  0  0  0  0  0  0  0  0
    6.3760   -4.0620   20.2640 C   0  0  0  0  0  0  0  0  0  0  0  0
    5.3570   -4.7020   19.9450 O   0  0  0  0  0  0  0  0  0  0  0  0
    6.8510   -4.1140   21.5880 N   0  0  0  0  0  0  0  0  0  0  0  0
    7.7210   -3.0750   22.1040 C   0  0  0  0  0  0  0  0  0  0  0  0
    7.4460   -2.9890   23.5790 C   0  0  0  0  0  0  0  0  0  0  0  0
    6.0930   -3.5430   23.9070 C   0  0  0  0  0  0  0  0  0  0  0  0
    5.6650   -3.2780   25.3050 C   0  0  0  0  0  0  0  0  0  0  0  0
    4.4340   -3.2100   25.5820 O   0  0  0  0  0  0  0  0  0  0  0  0
    6.5750   -3.0780   26.3630 N   0  0  0  0  0  0  0  0  0  0  0  0
    6.1800   -3.2510   27.7850 C   0  0  0  0  0  0  0  0  0  0  0  0
    6.2810   -4.6750   28.1950 C   0  0  0  0  0  0  0  0  0  0  0  0
    5.2920   -4.9690   29.0560 N   0  0  0  0  0  0  0  0  0  0  0  0
    4.1090   -5.6750   28.7190 C   0  0  0  0  0  0  0  0  0  0  0  0
    3.6260   -5.7400   27.5730 O   0  0  0  0  0  0  0  0  0  0  0  0
    3.4540   -6.3030   29.6600 O   0  0  0  0  0  0  0  0  0  0  0  0
    3.6470   -7.6650   29.9610 C   0  0  0  0  0  0  0  0  0  0  0  0
    3.8200   -7.8170   31.4590 C   0  0  0  0  0  0  0  0  0  0  0  0
    6.0830   -5.0060   23.6160 C   0  0  0  0  0  0  0  0  0  0  0  0
    6.5220   -5.2880   22.3450 C   0  0  0  0  0  0  0  0  0  0  0  0
  1  2  1  0
  2  3  2  0
  2  4  1  0
  4  5  1  0
  5  6  1  0
  6  7  1  0
  7  8  1  0
  8  9  2  0
  8 10  1  0
 10 11  1  0
 11 12  1  0
 12 13  1  0
 13 14  1  0
 14 15  2  0
 14 16  1  0
 16 17  1  0
 17 18  1  0
  7 19  1  0
  4 20  1  0
 19 20  1  0
M  END
