piperidine-amides-5579-covalent
     RDKit          3D

 18 18  0  0  0  0  0  0  0  0999 V2000
    7.0880   -3.2840   19.2630 C   0  0  0  0  0  0  0  0  0  0  0  0
    6.3260   -4.0350   20.2640 C   0  0  0  0  0  0  0  0  0  0  0  0
    5.2900   -4.6210   19.9130 O   0  0  0  0  0  0  0  0  0  0  0  0
    6.7640   -4.1470   21.5950 N   0  0  0  0  0  0  0  0  0  0  0  0
    6.6280   -5.3950   22.3210 C   0  0  0  0  0  0  0  0  0  0  0  0
    6.0490   -5.0660   23.6750 C   0  0  0  0  0  0  0  0  0  0  0  0
    6.0230   -3.5930   23.9560 C   0  0  0  0  0  0  0  0  0  0  0  0
    5.6080   -3.2710   25.3420 C   0  0  0  0  0  0  0  0  0  0  0  0
    4.3950   -3.0080   25.5900 O   0  0  0  0  0  0  0  0  0  0  0  0
    6.5010   -3.2330   26.4370 N   0  0  0  0  0  0  0  0  0  0  0  0
    6.1780   -3.8770   27.7380 C   0  0  0  0  0  0  0  0  0  0  0  0
    6.0490   -5.3500   27.5690 C   0  0  0  0  0  0  0  0  0  0  0  0
    4.9110   -6.0460   28.2020 C   0  0  0  0  0  0  0  0  0  0  0  0
    4.0080   -5.0720   28.5620 F   0  0  0  0  0  0  0  0  0  0  0  0
    5.2610   -6.7090   29.3770 F   0  0  0  0  0  0  0  0  0  0  0  0
    4.3220   -6.9430   27.3320 F   0  0  0  0  0  0  0  0  0  0  0  0
    7.3720   -2.9870   23.6710 C   0  0  0  0  0  0  0  0  0  0  0  0
    7.6380   -3.1620   22.1950 C   0  0  0  0  0  0  0  0  0  0  0  0
  1  2  1  0
  2  3  2  0
  2  4  1  0
  4  5  1  0
  5  6  1  0
  6  7  1  0
  7  8  1  0
  8  9  2  0
  8 10  1  0
 10 11  1  0
 11 12  1  0
 12 13  1  0
 13 14  1  0
 13 15  1  0
 13 16  1  0
  7 17  1  0
  4 18  1  0
 17 18  1  0
M  END
