piperidine-amides-7231-covalent
     RDKit          3D

 21 22  0  0  0  0  0  0  0  0999 V2000
    7.1030   -3.2850   19.2370 C   0  0  0  0  0  0  0  0  0  0  0  0
    6.3930   -4.0730   20.2560 C   0  0  0  0  0  0  0  0  0  0  0  0
    5.2950   -4.5700   19.8980 O   0  0  0  0  0  0  0  0  0  0  0  0
    6.9510   -4.3000   21.5210 N   0  0  0  0  0  0  0  0  0  0  0  0
    6.6290   -5.4760   22.2880 C   0  0  0  0  0  0  0  0  0  0  0  0
    5.9510   -5.0300   23.5550 C   0  0  0  0  0  0  0  0  0  0  0  0
    6.6790   -3.9030   24.2620 C   0  0  0  0  0  0  0  0  0  0  0  0
    5.8350   -3.3730   25.3590 C   0  0  0  0  0  0  0  0  0  0  0  0
    4.8500   -2.6750   25.0340 O   0  0  0  0  0  0  0  0  0  0  0  0
    6.0600   -3.5990   26.7360 N   0  0  0  0  0  0  0  0  0  0  0  0
    6.8550   -4.6990   27.2260 C   0  0  0  0  0  0  0  0  0  0  0  0
    6.1060   -5.9460   27.6430 C   0  0  0  0  0  0  0  0  0  0  0  0
    4.6580   -5.6770   27.7150 N   0  0  0  0  0  0  0  0  0  0  0  0
    3.8890   -6.3440   26.8700 C   0  0  0  0  0  0  0  0  0  0  0  0
    2.7990   -7.0160   27.3690 C   0  0  0  0  0  0  0  0  0  0  0  0
    2.0130   -6.3660   28.2360 N   0  0  0  0  0  0  0  0  0  0  0  0
    2.6710   -5.1550   28.5610 C   0  0  0  0  0  0  0  0  0  0  0  0
    1.9580   -3.9760   28.5800 O   0  0  0  0  0  0  0  0  0  0  0  0
    4.0260   -5.2860   28.8450 C   0  0  0  0  0  0  0  0  0  0  0  0
    6.9230   -2.7050   23.3460 C   0  0  0  0  0  0  0  0  0  0  0  0
    7.6740   -3.1900   22.1410 C   0  0  0  0  0  0  0  0  0  0  0  0
  1  2  1  0
  2  3  2  0
  2  4  1  0
  4  5  1  0
  5  6  1  0
  6  7  1  0
  7  8  1  0
  8  9  2  0
  8 10  1  0
 10 11  1  0
 11 12  1  0
 12 13  1  0
 13 14  1  0
 14 15  1  0
 15 16  1  0
 16 17  1  0
 17 18  2  0
 13 19  1  0
 17 19  1  0
  7 20  1  0
  4 21  1  0
 20 21  1  0
M  END
