piperidine-amides-4653-covalent
     RDKit          3D

 24 26  0  0  0  0  0  0  0  0999 V2000
    7.1150   -3.2750   19.2660 C   0  0  0  0  0  0  0  0  0  0  0  0
    6.3960   -4.0620   20.2940 C   0  0  0  0  0  0  0  0  0  0  0  0
    5.3410   -4.6170   19.9190 O   0  0  0  0  0  0  0  0  0  0  0  0
    6.9070   -4.2090   21.5990 N   0  0  0  0  0  0  0  0  0  0  0  0
    7.7050   -3.1830   22.1980 C   0  0  0  0  0  0  0  0  0  0  0  0
    7.2940   -2.8710   23.5610 C   0  0  0  0  0  0  0  0  0  0  0  0
    6.0290   -3.5350   23.9240 C   0  0  0  0  0  0  0  0  0  0  0  0
    5.5980   -3.1780   25.3010 C   0  0  0  0  0  0  0  0  0  0  0  0
    4.3990   -2.8930   25.4630 O   0  0  0  0  0  0  0  0  0  0  0  0
    6.4710   -3.1500   26.4000 N   0  0  0  0  0  0  0  0  0  0  0  0
    6.1660   -3.8720   27.6600 C   0  0  0  0  0  0  0  0  0  0  0  0
    5.6420   -5.2500   27.4070 C   0  0  0  0  0  0  0  0  0  0  0  0
    5.3530   -6.0680   28.5720 C   0  0  0  0  0  0  0  0  0  0  0  0
    6.2970   -6.3450   29.5450 C   0  0  0  0  0  0  0  0  0  0  0  0
    5.6300   -7.1460   30.4900 N   0  0  0  0  0  0  0  0  0  0  0  0
    4.3010   -7.2870   29.9830 C   0  0  0  0  0  0  0  0  0  0  0  0
    3.3040   -7.9880   30.5800 C   0  0  0  0  0  0  0  0  0  0  0  0
    2.0750   -8.0270   29.9520 C   0  0  0  0  0  0  0  0  0  0  0  0
    1.8460   -7.3780   28.7530 C   0  0  0  0  0  0  0  0  0  0  0  0
    2.8510   -6.6480   28.1190 C   0  0  0  0  0  0  0  0  0  0  0  0
    2.6290   -6.0080   26.9410 F   0  0  0  0  0  0  0  0  0  0  0  0
    4.1340   -6.6410   28.8260 C   0  0  0  0  0  0  0  0  0  0  0  0
    6.0470   -5.0170   23.7320 C   0  0  0  0  0  0  0  0  0  0  0  0
    6.6280   -5.3920   22.3890 C   0  0  0  0  0  0  0  0  0  0  0  0
  1  2  1  0
  2  3  2  0
  2  4  1  0
  4  5  1  0
  5  6  1  0
  6  7  1  0
  7  8  1  0
  8  9  2  0
  8 10  1  0
 10 11  1  0
 11 12  1  0
 12 13  1  0
 13 14  2  0
 14 15  1  0
 15 16  1  0
 16 17  1  0
 17 18  2  0
 18 19  1  0
 19 20  2  0
 20 21  1  0
 13 22  1  0
 16 22  2  0
 20 22  1  0
  7 23  1  0
  4 24  1  0
 23 24  1  0
M  END
