piperidine-amides-3820-covalent
     RDKit          3D

 25 26  0  0  0  0  0  0  0  0999 V2000
    7.0990   -3.2900   19.2720 C   0  0  0  0  0  0  0  0  0  0  0  0
    6.3690   -4.0730   20.2870 C   0  0  0  0  0  0  0  0  0  0  0  0
    5.3070   -4.6270   19.9110 O   0  0  0  0  0  0  0  0  0  0  0  0
    6.8560   -4.2340   21.6120 N   0  0  0  0  0  0  0  0  0  0  0  0
    7.7200   -3.2450   22.1550 C   0  0  0  0  0  0  0  0  0  0  0  0
    7.5590   -3.1630   23.5800 C   0  0  0  0  0  0  0  0  0  0  0  0
    6.2270   -3.6420   23.9700 C   0  0  0  0  0  0  0  0  0  0  0  0
    5.8850   -3.2570   25.3760 C   0  0  0  0  0  0  0  0  0  0  0  0
    5.0360   -3.9160   26.0070 O   0  0  0  0  0  0  0  0  0  0  0  0
    6.4830   -2.1370   25.9900 N   0  0  0  0  0  0  0  0  0  0  0  0
    6.1500   -0.7740   25.7730 C   0  0  0  0  0  0  0  0  0  0  0  0
    5.9850   -0.2110   24.4180 C   0  0  2  0  0  0  0  0  0  0  0  0
    6.7140    1.1500   24.3130 C   0  0  0  0  0  0  0  0  0  0  0  0
    6.1820    2.0280   25.2350 O   0  0  0  0  0  0  0  0  0  0  0  0
    7.6350    1.4480   23.5140 O   0  0  0  0  0  0  0  0  0  0  0  0
    8.1800    2.6340   23.2300 C   0  0  0  0  0  0  0  0  0  0  0  0
    9.4430    2.4800   22.3840 C   0  0  0  0  0  0  0  0  0  0  0  0
    8.4430    3.5550   24.4360 C   0  0  0  0  0  0  0  0  0  0  0  0
    7.5410    3.3490   22.0970 C   0  0  0  0  0  0  0  0  0  0  0  0
    4.5250    0.0360   24.0720 C   0  0  0  0  0  0  0  0  0  0  0  0
    4.6690    0.2180   22.5820 C   0  0  0  0  0  0  0  0  0  0  0  0
    6.0560   -0.2250   22.1740 C   0  0  0  0  0  0  0  0  0  0  0  0
    6.5340   -0.8110   23.3090 O   0  0  0  0  0  0  0  0  0  0  0  0
    6.0620   -5.1060   23.6600 C   0  0  0  0  0  0  0  0  0  0  0  0
    6.6120   -5.4390   22.3980 C   0  0  0  0  0  0  0  0  0  0  0  0
  1  2  1  0
  2  3  2  0
  2  4  1  0
  4  5  1  0
  5  6  1  0
  6  7  1  0
  7  8  1  0
  8  9  2  0
  8 10  1  0
 10 11  1  0
 12 11  1  1
 12 13  1  0
 13 14  2  0
 13 15  1  0
 16 15  1  0
 16 17  1  0
 16 18  1  0
 16 19  1  0
 12 20  1  0
 20 21  1  0
 21 22  1  0
 12 23  1  0
 22 23  1  0
  7 24  1  0
  4 25  1  0
 24 25  1  0
M  END
