piperidine-amides-32464-covalent
     RDKit          3D

 28 30  0  0  0  0  0  0  0  0999 V2000
    7.0900   -3.3360   19.3080 C   0  0  0  0  0  0  0  0  0  0  0  0
    6.4000   -4.2060   20.2940 C   0  0  0  0  0  0  0  0  0  0  0  0
    5.3520   -4.7830   19.9620 O   0  0  0  0  0  0  0  0  0  0  0  0
    6.9740   -4.4030   21.5650 N   0  0  0  0  0  0  0  0  0  0  0  0
    6.4560   -5.4080   22.4460 C   0  0  0  0  0  0  0  0  0  0  0  0
    5.4640   -4.6820   23.3670 C   0  0  0  0  0  0  0  0  0  0  0  0
    6.2020   -3.5890   24.0910 C   0  0  0  0  0  0  0  0  0  0  0  0
    5.3580   -2.8000   25.0310 C   0  0  0  0  0  0  0  0  0  0  0  0
    4.3260   -2.3150   24.5650 O   0  0  0  0  0  0  0  0  0  0  0  0
    5.7420   -2.6740   26.3620 N   0  0  0  0  0  0  0  0  0  0  0  0
    6.1270   -3.8130   27.0460 C   0  0  0  0  0  0  0  0  0  0  0  0
    7.2840   -4.3670   26.7100 C   0  0  0  0  0  0  0  0  0  0  0  0
    7.9730   -3.7480   25.6380 C   0  0  0  0  0  0  0  0  0  0  0  0
    9.1580   -4.1780   25.1490 C   0  0  0  0  0  0  0  0  0  0  0  0
    9.7500   -5.3410   25.7800 C   0  0  0  0  0  0  0  0  0  0  0  0
    9.0840   -6.0260   26.9010 C   0  0  0  0  0  0  0  0  0  0  0  0
    7.7770   -5.4420   27.3300 C   0  0  0  0  0  0  0  0  0  0  0  0
    6.8380   -6.1260   28.6440 Cl  0  0  0  0  0  0  0  0  0  0  0  0
    5.9210   -1.3760   26.9490 C   0  0  0  0  0  0  0  0  0  0  0  0
    5.4200   -0.3160   26.3220 N   0  0  0  0  0  0  0  0  0  0  0  0
    5.6960    0.8070   27.0780 C   0  0  0  0  0  0  0  0  0  0  0  0
    6.4310    0.8470   28.3820 C   0  0  0  0  0  0  0  0  0  0  0  0
    6.9980   -0.1550   29.1320 C   0  0  0  0  0  0  0  0  0  0  0  0
    6.6790   -1.4290   28.2610 C   0  0  0  0  0  0  0  0  0  0  0  0
    7.1390   -2.7580   28.7640 C   0  0  0  0  0  0  0  0  0  0  0  0
    6.1800   -3.5280   29.3130 N   0  0  0  0  0  0  0  0  0  0  0  0
    6.8430   -2.5940   23.1460 C   0  0  0  0  0  0  0  0  0  0  0  0
    7.7080   -3.3000   22.1800 C   0  0  0  0  0  0  0  0  0  0  0  0
  1  2  1  0
  2  3  2  0
  2  4  1  0
  4  5  1  0
  5  6  1  0
  6  7  1  0
  7  8  1  0
  8  9  2  0
  8 10  1  0
 10 11  1  0
 11 12  1  0
 12 13  2  0
 13 14  1  0
 14 15  2  0
 15 16  1  0
 12 17  1  0
 16 17  2  0
 17 18  1  0
 10 19  1  0
 19 20  2  0
 20 21  1  0
 21 22  2  0
 22 23  1  0
 19 24  1  0
 23 24  2  0
 24 25  1  0
 25 26  3  0
  7 27  1  0
  4 28  1  0
 27 28  1  0
M  END
