piperidine-amides-12476-covalent
     RDKit          3D

 23 24  0  0  0  0  0  0  0  0999 V2000
    7.1410   -3.2970   19.2940 C   0  0  0  0  0  0  0  0  0  0  0  0
    6.3500   -4.0410   20.2640 C   0  0  0  0  0  0  0  0  0  0  0  0
    5.3100   -4.5990   19.9130 O   0  0  0  0  0  0  0  0  0  0  0  0
    6.8250   -4.1690   21.6130 N   0  0  0  0  0  0  0  0  0  0  0  0
    7.6320   -3.1140   22.1910 C   0  0  0  0  0  0  0  0  0  0  0  0
    7.1670   -2.7100   23.5770 C   0  0  0  0  0  0  0  0  0  0  0  0
    5.8740   -3.4430   23.9120 C   0  0  0  0  0  0  0  0  0  0  0  0
    5.3360   -3.0770   25.2610 C   0  0  0  0  0  0  0  0  0  0  0  0
    4.3250   -3.6380   25.7220 O   0  0  0  0  0  0  0  0  0  0  0  0
    5.9560   -2.0590   26.0390 N   0  0  0  0  0  0  0  0  0  0  0  0
    5.2720   -1.5800   27.2400 C   0  0  0  0  0  0  0  0  0  0  0  0
    5.8800   -2.2680   28.4230 C   0  0  0  0  0  0  0  0  0  0  0  0
    4.8150   -2.8250   29.1560 F   0  0  0  0  0  0  0  0  0  0  0  0
    6.4860   -1.3680   29.2610 F   0  0  0  0  0  0  0  0  0  0  0  0
    6.7040   -3.2140   28.0360 C   0  0  0  0  0  0  0  0  0  0  0  0
    7.4170   -2.8500   26.8900 C   0  0  0  0  0  0  0  0  0  0  0  0
    8.2740   -3.7070   26.3580 C   0  0  0  0  0  0  0  0  0  0  0  0
    8.4290   -4.9470   26.9930 C   0  0  0  0  0  0  0  0  0  0  0  0
    9.6250   -6.1000   26.2460 Br  0  0  0  0  0  0  0  0  0  0  0  0
    7.7670   -5.3290   28.0980 C   0  0  0  0  0  0  0  0  0  0  0  0
    6.8850   -4.4490   28.6320 C   0  0  0  0  0  0  0  0  0  0  0  0
    5.8960   -4.9080   23.6770 C   0  0  0  0  0  0  0  0  0  0  0  0
    6.4300   -5.2960   22.3770 C   0  0  0  0  0  0  0  0  0  0  0  0
  1  2  1  0
  2  3  2  0
  2  4  1  0
  4  5  1  0
  5  6  1  0
  6  7  1  0
  7  8  1  0
  8  9  2  0
  8 10  1  0
 10 11  1  0
 11 12  1  0
 12 13  1  0
 12 14  1  0
 12 15  1  0
 15 16  2  0
 16 17  1  0
 17 18  2  0
 18 19  1  0
 18 20  1  0
 15 21  1  0
 20 21  2  0
  7 22  1  0
  4 23  1  0
 22 23  1  0
M  END
