piperidine-amides-33023-covalent
     RDKit          3D

 27 29  0  0  0  0  0  0  0  0999 V2000
    7.0710   -3.3350   19.3270 C   0  0  0  0  0  0  0  0  0  0  0  0
    6.3850   -4.2030   20.3230 C   0  0  0  0  0  0  0  0  0  0  0  0
    5.3660   -4.8230   19.9740 O   0  0  0  0  0  0  0  0  0  0  0  0
    6.9280   -4.3450   21.6170 N   0  0  0  0  0  0  0  0  0  0  0  0
    7.7510   -3.3190   22.2220 C   0  0  0  0  0  0  0  0  0  0  0  0
    7.0110   -2.8150   23.4560 C   0  0  0  0  0  0  0  0  0  0  0  0
    6.5160   -4.0060   24.1970 C   0  0  0  0  0  0  0  0  0  0  0  0
    5.6660   -3.6190   25.3560 C   0  0  0  0  0  0  0  0  0  0  0  0
    4.6340   -3.0110   25.0590 O   0  0  0  0  0  0  0  0  0  0  0  0
    6.0040   -3.9050   26.6850 N   0  0  0  0  0  0  0  0  0  0  0  0
    5.8180   -3.0430   27.7680 C   0  0  0  0  0  0  0  0  0  0  0  0
    5.6250   -3.5720   28.9950 C   0  0  0  0  0  0  0  0  0  0  0  0
    4.6320   -4.6170   28.8240 N   0  0  0  0  0  0  0  0  0  0  0  0
    3.3500   -4.5990   29.3810 C   0  0  0  0  0  0  0  0  0  0  0  0
    2.8510   -5.8840   29.4970 C   0  0  0  0  0  0  0  0  0  0  0  0
    2.3190   -6.4440   30.6890 N   0  0  0  0  0  0  0  0  0  0  0  0
    1.8410   -7.8010   30.6220 C   0  0  0  0  0  0  0  0  0  0  0  0
    1.2290   -8.6100   31.7730 C   0  0  0  0  0  0  0  0  0  0  0  0
    0.7860   -9.8450   31.2720 F   0  0  0  0  0  0  0  0  0  0  0  0
    0.1070   -7.9540   32.3200 F   0  0  0  0  0  0  0  0  0  0  0  0
    2.1250   -8.8420   32.7660 F   0  0  0  0  0  0  0  0  0  0  0  0
    1.9940   -8.3220   29.3660 C   0  0  0  0  0  0  0  0  0  0  0  0
    2.7230   -7.1470   28.2710 S   0  0  0  0  0  0  0  0  0  0  0  0
    4.8910   -5.5780   27.9180 C   0  0  0  0  0  0  0  0  0  0  0  0
    6.1520   -5.2450   27.2760 C   0  0  0  0  0  0  0  0  0  0  0  0
    5.7590   -5.0110   23.3830 C   0  0  0  0  0  0  0  0  0  0  0  0
    6.6140   -5.4850   22.4230 C   0  0  0  0  0  0  0  0  0  0  0  0
  1  2  1  0
  2  3  2  0
  2  4  1  0
  4  5  1  0
  5  6  1  0
  6  7  1  0
  7  8  1  0
  8  9  2  0
  8 10  1  0
 10 11  1  0
 11 12  1  0
 12 13  1  0
 13 14  1  0
 14 15  1  0
 15 16  2  0
 16 17  1  0
 17 18  1  0
 18 19  1  0
 18 20  1  0
 18 21  1  0
 17 22  2  0
 15 23  1  0
 22 23  1  0
 13 24  1  0
 10 25  1  0
 24 25  1  0
  7 26  1  0
  4 27  1  0
 26 27  1  0
M  END
