piperidine-amides-3650-covalent
     RDKit          3D

 18 18  0  0  0  0  0  0  0  0999 V2000
    7.1520   -3.2690   19.1480 C   0  0  0  0  0  0  0  0  0  0  0  0
    6.3690   -3.9860   20.1650 C   0  0  0  0  0  0  0  0  0  0  0  0
    5.2430   -4.4140   19.8240 O   0  0  0  0  0  0  0  0  0  0  0  0
    6.8870   -4.2530   21.4530 N   0  0  0  0  0  0  0  0  0  0  0  0
    7.5620   -3.1800   22.1010 C   0  0  0  0  0  0  0  0  0  0  0  0
    7.0540   -2.8330   23.4270 C   0  0  0  0  0  0  0  0  0  0  0  0
    6.4240   -3.9260   24.1990 C   0  0  0  0  0  0  0  0  0  0  0  0
    5.7420   -3.3980   25.4230 C   0  0  0  0  0  0  0  0  0  0  0  0
    4.5680   -2.9930   25.3350 O   0  0  0  0  0  0  0  0  0  0  0  0
    6.3960   -3.3490   26.6730 N   0  0  0  0  0  0  0  0  0  0  0  0
    6.3400   -4.2760   27.7490 C   0  0  2  0  0  0  0  0  0  0  0  0
    6.0830   -5.7030   27.5550 C   0  0  0  0  0  0  0  0  0  0  0  0
    5.2860   -5.8780   26.2550 C   0  0  0  0  0  0  0  0  0  0  0  0
    5.2790   -3.9210   28.6970 C   0  0  0  0  0  0  0  0  0  0  0  0
    5.5340   -2.6550   29.1740 F   0  0  0  0  0  0  0  0  0  0  0  0
    4.0620   -3.8720   28.0470 F   0  0  0  0  0  0  0  0  0  0  0  0
    5.4950   -4.7040   23.3120 C   0  0  0  0  0  0  0  0  0  0  0  0
    6.2760   -5.2970   22.2010 C   0  0  0  0  0  0  0  0  0  0  0  0
  1  2  1  0
  2  3  2  0
  2  4  1  0
  4  5  1  0
  5  6  1  0
  6  7  1  0
  7  8  1  0
  8  9  2  0
  8 10  1  0
 10 11  1  0
 11 12  1  6
 12 13  1  0
 11 14  1  0
 14 15  1  0
 14 16  1  0
  7 17  1  0
  4 18  1  0
 17 18  1  0
M  END
