piperidine-amides-31713-covalent
     RDKit          3D

 28 30  0  0  0  0  0  0  0  0999 V2000
    7.0460   -3.4230   19.3490 C   0  0  0  0  0  0  0  0  0  0  0  0
    6.3500   -4.1710   20.3640 C   0  0  0  0  0  0  0  0  0  0  0  0
    5.3600   -4.8740   19.9900 O   0  0  0  0  0  0  0  0  0  0  0  0
    6.7550   -4.1920   21.7100 N   0  0  0  0  0  0  0  0  0  0  0  0
    6.5820   -5.4400   22.4770 C   0  0  0  0  0  0  0  0  0  0  0  0
    5.4900   -4.9390   23.4980 C   0  0  0  0  0  0  0  0  0  0  0  0
    6.1770   -3.9240   24.3970 C   0  0  0  0  0  0  0  0  0  0  0  0
    5.0930   -3.0560   25.2190 C   0  0  0  0  0  0  0  0  0  0  0  0
    4.3960   -2.4270   24.4500 O   0  0  0  0  0  0  0  0  0  0  0  0
    5.2020   -3.2180   26.4890 N   0  0  0  0  0  0  0  0  0  0  0  0
    5.0460   -3.1060   27.8460 C   0  0  0  0  0  0  0  0  0  0  0  0
    5.3860   -3.7960   28.9990 C   0  0  0  0  0  0  0  0  0  0  0  0
    5.9990   -5.0570   28.7830 C   0  0  0  0  0  0  0  0  0  0  0  0
    5.4580   -6.2110   29.5600 C   0  0  2  0  0  0  0  0  0  0  0  0
    6.5020   -7.1050   29.7770 O   0  0  0  0  0  0  0  0  0  0  0  0
    4.4470   -6.6560   28.4820 C   0  0  0  0  0  0  0  0  0  0  0  0
    3.2310   -6.7220   29.0950 C   0  0  0  0  0  0  0  0  0  0  0  0
    1.9360   -7.0790   28.6140 C   0  0  0  0  0  0  0  0  0  0  0  0
    2.1440   -7.4300   27.0600 C   0  0  0  0  0  0  0  0  0  0  0  0
    1.0560   -7.8200   26.3130 O   0  0  0  0  0  0  0  0  0  0  0  0
    0.6240   -9.1480   26.2040 C   0  0  0  0  0  0  0  0  0  0  0  0
    1.5470   -9.7820   25.4120 C   0  0  0  0  0  0  0  0  0  0  0  0
    3.5170   -7.3270   26.4780 C   0  0  0  0  0  0  0  0  0  0  0  0
    4.6370   -6.9740   27.0790 C   0  0  0  0  0  0  0  0  0  0  0  0
    6.0920   -5.3070   27.4600 C   0  0  0  0  0  0  0  0  0  0  0  0
    6.1760   -4.1560   26.7020 C   0  0  0  0  0  0  0  0  0  0  0  0
    7.3370   -3.1490   23.8340 C   0  0  0  0  0  0  0  0  0  0  0  0
    7.5410   -3.1770   22.3470 C   0  0  0  0  0  0  0  0  0  0  0  0
  1  2  1  0
  2  3  2  0
  2  4  1  0
  4  5  1  0
  5  6  1  0
  6  7  1  0
  7  8  1  0
  8  9  2  0
  8 10  1  0
 10 11  1  0
 11 12  1  0
 12 13  1  0
 13 14  1  0
 14 15  1  6
 14 16  1  0
 16 17  2  0
 17 18  1  0
 18 19  2  0
 19 20  1  0
 20 21  1  0
 21 22  1  0
 19 23  1  0
 16 24  1  0
 23 24  2  0
 13 25  1  0
 10 26  1  0
 25 26  1  0
  7 27  1  0
  4 28  1  0
 27 28  1  0
M  END
