piperidine-amides-6296-covalent
     RDKit          3D

 25 26  0  0  0  0  0  0  0  0999 V2000
    7.1040   -3.2860   19.2540 C   0  0  0  0  0  0  0  0  0  0  0  0
    6.3240   -4.0180   20.2640 C   0  0  0  0  0  0  0  0  0  0  0  0
    5.2910   -4.6300   19.9180 O   0  0  0  0  0  0  0  0  0  0  0  0
    6.7470   -4.0870   21.6050 N   0  0  0  0  0  0  0  0  0  0  0  0
    6.6090   -5.3550   22.2960 C   0  0  0  0  0  0  0  0  0  0  0  0
    6.1780   -5.0730   23.7450 C   0  0  0  0  0  0  0  0  0  0  0  0
    6.0600   -3.5740   23.8840 C   0  0  0  0  0  0  0  0  0  0  0  0
    5.6330   -3.1250   25.2300 C   0  0  0  0  0  0  0  0  0  0  0  0
    4.6340   -2.3810   25.2910 O   0  0  0  0  0  0  0  0  0  0  0  0
    6.3180   -3.5220   26.4060 N   0  0  0  0  0  0  0  0  0  0  0  0
    5.6930   -4.4760   27.2830 C   0  0  1  0  0  0  0  0  0  0  0  0
    5.7760   -5.8510   26.6640 C   0  0  0  0  0  0  0  0  0  0  0  0
    6.2830   -4.5360   28.6350 C   0  0  0  0  0  0  0  0  0  0  0  0
    6.3970   -5.7810   29.2010 C   0  0  0  0  0  0  0  0  0  0  0  0
    7.3750   -6.6670   28.8190 O   0  0  0  0  0  0  0  0  0  0  0  0
    5.5020   -6.1550   30.1550 O   0  0  0  0  0  0  0  0  0  0  0  0
    4.6330   -7.1770   29.8150 C   0  0  0  0  0  0  0  0  0  0  0  0
    4.2560   -4.0820   27.4480 C   0  0  0  0  0  0  0  0  0  0  0  0
    3.8800   -3.2320   28.6530 C   0  0  0  0  0  0  0  0  0  0  0  0
    2.3690   -3.0550   28.4580 C   0  0  0  0  0  0  0  0  0  0  0  0
    1.2580   -3.4470   27.5010 C   0  0  0  0  0  0  0  0  0  0  0  0
    2.0100   -4.2210   26.5270 C   0  0  0  0  0  0  0  0  0  0  0  0
    3.3480   -4.5220   26.4780 C   0  0  0  0  0  0  0  0  0  0  0  0
    7.4270   -2.9870   23.6070 C   0  0  0  0  0  0  0  0  0  0  0  0
    7.6840   -3.1050   22.1330 C   0  0  0  0  0  0  0  0  0  0  0  0
  1  2  1  0
  2  3  2  0
  2  4  1  0
  4  5  1  0
  5  6  1  0
  6  7  1  0
  7  8  1  0
  8  9  2  0
  8 10  1  0
 11 10  1  0
 11 12  1  6
 11 13  1  0
 13 14  1  0
 14 15  2  0
 14 16  1  0
 16 17  1  0
 11 18  1  0
 18 19  2  0
 19 20  1  0
 20 21  2  0
 21 22  1  0
 18 23  1  0
 22 23  2  0
  7 24  1  0
  4 25  1  0
 24 25  1  0
M  END
