piperidine-amides-25047-covalent
     RDKit          3D

 24 26  0  0  0  0  0  0  0  0999 V2000
    7.0900   -3.3410   19.3690 C   0  0  0  0  0  0  0  0  0  0  0  0
    6.3620   -4.1750   20.3570 C   0  0  0  0  0  0  0  0  0  0  0  0
    5.3490   -4.7490   19.9590 O   0  0  0  0  0  0  0  0  0  0  0  0
    6.8580   -4.3160   21.6570 N   0  0  0  0  0  0  0  0  0  0  0  0
    6.7580   -5.5960   22.3270 C   0  0  0  0  0  0  0  0  0  0  0  0
    6.1900   -5.3950   23.6970 C   0  0  0  0  0  0  0  0  0  0  0  0
    6.1330   -3.9050   23.9580 C   0  0  0  0  0  0  0  0  0  0  0  0
    5.5020   -3.6900   25.2750 C   0  0  0  0  0  0  0  0  0  0  0  0
    4.3260   -3.3040   25.3050 O   0  0  0  0  0  0  0  0  0  0  0  0
    6.1640   -3.8930   26.4890 N   0  0  0  0  0  0  0  0  0  0  0  0
    5.7990   -5.0680   27.2700 C   0  0  0  0  0  0  0  0  0  0  0  0
    6.1350   -4.5870   28.6120 C   0  0  0  0  0  0  0  0  0  0  0  0
    6.2700   -3.2760   28.5290 C   0  0  0  0  0  0  0  0  0  0  0  0
    6.3690   -2.2110   29.4620 C   0  0  0  0  0  0  0  0  0  0  0  0
    6.4610   -0.9500   28.8960 C   0  0  0  0  0  0  0  0  0  0  0  0
    6.5520    0.5670   29.0560 C   0  0  0  0  0  0  0  0  0  0  0  0
    5.3550    1.1520   29.4910 F   0  0  0  0  0  0  0  0  0  0  0  0
    7.4840    1.0150   30.0050 F   0  0  0  0  0  0  0  0  0  0  0  0
    6.8630    1.1590   27.8580 F   0  0  0  0  0  0  0  0  0  0  0  0
    6.4800   -0.7660   27.4890 C   0  0  0  0  0  0  0  0  0  0  0  0
    6.4010   -1.9500   28.3970 C   0  0  0  0  0  0  0  0  0  0  0  0
    6.3180   -2.6010   27.1480 C   0  0  0  0  0  0  0  0  0  0  0  0
    7.4610   -3.2560   23.7320 C   0  0  0  0  0  0  0  0  0  0  0  0
    7.6660   -3.2370   22.2280 C   0  0  0  0  0  0  0  0  0  0  0  0
  1  2  1  0
  2  3  2  0
  2  4  1  0
  4  5  1  0
  5  6  1  0
  6  7  1  0
  7  8  1  0
  8  9  2  0
  8 10  1  0
 10 11  1  0
 11 12  1  0
 12 13  1  0
 13 14  1  0
 14 15  2  0
 15 16  1  0
 16 17  1  0
 16 18  1  0
 16 19  1  0
 15 20  1  0
 20 21  2  0
 10 22  1  0
 13 22  2  0
 21 22  1  0
  7 23  1  0
  4 24  1  0
 23 24  1  0
M  END
