piperidine-amides-32987-covalent
     RDKit          3D

 28 30  0  0  0  0  0  0  0  0999 V2000
    7.0810   -3.3330   19.3070 C   0  0  0  0  0  0  0  0  0  0  0  0
    6.3860   -4.1870   20.3070 C   0  0  0  0  0  0  0  0  0  0  0  0
    5.3560   -4.7940   19.9680 O   0  0  0  0  0  0  0  0  0  0  0  0
    6.9440   -4.3300   21.5950 N   0  0  0  0  0  0  0  0  0  0  0  0
    6.6380   -5.4670   22.4190 C   0  0  0  0  0  0  0  0  0  0  0  0
    5.7700   -4.9430   23.5660 C   0  0  0  0  0  0  0  0  0  0  0  0
    6.4700   -3.7820   24.2110 C   0  0  0  0  0  0  0  0  0  0  0  0
    5.7000   -3.2690   25.3670 C   0  0  0  0  0  0  0  0  0  0  0  0
    4.4850   -3.1540   25.1760 O   0  0  0  0  0  0  0  0  0  0  0  0
    6.2990   -2.9320   26.5940 N   0  0  0  0  0  0  0  0  0  0  0  0
    6.2270   -3.7870   27.7240 C   0  0  0  0  0  0  0  0  0  0  0  0
    5.0760   -3.8910   28.4760 C   0  0  0  0  0  0  0  0  0  0  0  0
    4.3290   -2.7890   28.9170 C   0  0  0  0  0  0  0  0  0  0  0  0
    3.1820   -2.9630   29.6670 C   0  0  0  0  0  0  0  0  0  0  0  0
    2.7160   -4.3350   30.0220 C   0  0  0  0  0  0  0  0  0  0  0  0
    1.6070   -4.4340   30.7500 O   0  0  0  0  0  0  0  0  0  0  0  0
    1.4030   -4.4600   32.0860 C   0  0  0  0  0  0  0  0  0  0  0  0
    3.4600   -5.3760   29.5800 C   0  0  0  0  0  0  0  0  0  0  0  0
    4.5860   -5.1170   28.8410 C   0  0  0  0  0  0  0  0  0  0  0  0
    5.4370   -6.0590   28.3280 O   0  0  0  0  0  0  0  0  0  0  0  0
    6.6850   -6.3530   28.8760 C   0  0  0  0  0  0  0  0  0  0  0  0
    6.2420   -1.4730   26.7110 C   0  0  0  0  0  0  0  0  0  0  0  0
    6.4810   -0.8470   27.9240 N   0  0  0  0  0  0  0  0  0  0  0  0
    6.3800    0.4600   27.8720 C   0  0  0  0  0  0  0  0  0  0  0  0
    6.0380    1.0980   26.5750 C   0  0  0  0  0  0  0  0  0  0  0  0
    5.8880   -0.2260   25.5320 S   0  0  0  0  0  0  0  0  0  0  0  0
    6.8170   -2.6630   23.2850 C   0  0  0  0  0  0  0  0  0  0  0  0
    7.7100   -3.2670   22.2140 C   0  0  0  0  0  0  0  0  0  0  0  0
  1  2  1  0
  2  3  2  0
  2  4  1  0
  4  5  1  0
  5  6  1  0
  6  7  1  0
  7  8  1  0
  8  9  2  0
  8 10  1  0
 10 11  1  0
 11 12  1  0
 12 13  2  0
 13 14  1  0
 14 15  2  0
 15 16  1  0
 16 17  1  0
 15 18  1  0
 12 19  1  0
 18 19  2  0
 19 20  1  0
 20 21  1  0
 10 22  1  0
 22 23  2  0
 23 24  1  0
 24 25  2  0
 22 26  1  0
 25 26  1  0
  7 27  1  0
  4 28  1  0
 27 28  1  0
M  END
