piperidine-amides-19186-covalent
     RDKit          3D

 22 24  0  0  0  0  0  0  0  0999 V2000
    7.0120   -3.3580   19.2910 C   0  0  0  0  0  0  0  0  0  0  0  0
    6.3070   -4.0970   20.3220 C   0  0  0  0  0  0  0  0  0  0  0  0
    5.2910   -4.7550   19.9510 O   0  0  0  0  0  0  0  0  0  0  0  0
    6.6980   -4.1710   21.6790 N   0  0  0  0  0  0  0  0  0  0  0  0
    6.6510   -5.5380   22.2740 C   0  0  0  0  0  0  0  0  0  0  0  0
    6.1680   -5.2880   23.7600 C   0  0  0  0  0  0  0  0  0  0  0  0
    6.0500   -3.7990   23.8920 C   0  0  0  0  0  0  0  0  0  0  0  0
    5.3760   -3.2620   25.2330 C   0  0  0  0  0  0  0  0  0  0  0  0
    4.8940   -2.1610   25.0260 O   0  0  0  0  0  0  0  0  0  0  0  0
    5.4860   -4.0950   26.2000 N   0  0  0  0  0  0  0  0  0  0  0  0
    5.4350   -5.1430   27.0210 C   0  0  0  0  0  0  0  0  0  0  0  0
    5.7950   -4.7900   28.2060 C   0  0  0  0  0  0  0  0  0  0  0  0
    6.9280   -5.3300   28.8150 O   0  0  0  0  0  0  0  0  0  0  0  0
    4.9420   -4.1560   29.1380 C   0  0  0  0  0  0  0  0  0  0  0  0
    5.1530   -2.7880   29.6580 C   0  0  0  0  0  0  0  0  0  0  0  0
    4.0790   -2.3420   30.6610 C   0  0  0  0  0  0  0  0  0  0  0  0
    3.0340   -3.2150   31.0010 C   0  0  0  0  0  0  0  0  0  0  0  0
    2.6130   -4.5140   30.6730 C   0  0  0  0  0  0  0  0  0  0  0  0
    3.7320   -4.8480   29.6880 C   0  0  0  0  0  0  0  0  0  0  0  0
    5.9050   -3.4390   27.4980 C   0  0  0  0  0  0  0  0  0  0  0  0
    7.3910   -3.1280   23.5790 C   0  0  0  0  0  0  0  0  0  0  0  0
    7.6430   -3.2030   22.2380 C   0  0  0  0  0  0  0  0  0  0  0  0
  1  2  1  0
  2  3  2  0
  2  4  1  0
  4  5  1  0
  5  6  1  0
  6  7  1  0
  7  8  1  0
  8  9  2  0
  8 10  1  0
 10 11  1  0
 11 12  1  0
 12 13  1  0
 12 14  1  0
 14 15  2  0
 15 16  1  0
 16 17  2  0
 17 18  1  0
 14 19  1  0
 18 19  2  0
 10 20  1  0
 12 20  1  0
  7 21  1  0
  4 22  1  0
 21 22  1  0
M  END
