piperidine-amides-9195-covalent
     RDKit          3D

 20 20  0  0  0  0  0  0  0  0999 V2000
    7.1280   -3.2950   19.2320 C   0  0  0  0  0  0  0  0  0  0  0  0
    6.3260   -4.0080   20.2250 C   0  0  0  0  0  0  0  0  0  0  0  0
    5.2600   -4.5400   19.8770 O   0  0  0  0  0  0  0  0  0  0  0  0
    6.7690   -4.1450   21.5410 N   0  0  0  0  0  0  0  0  0  0  0  0
    7.6720   -3.1970   22.1470 C   0  0  0  0  0  0  0  0  0  0  0  0
    6.9520   -2.6830   23.3540 C   0  0  0  0  0  0  0  0  0  0  0  0
    6.4550   -3.8080   24.2130 C   0  0  0  0  0  0  0  0  0  0  0  0
    5.7800   -3.3310   25.4420 C   0  0  0  0  0  0  0  0  0  0  0  0
    4.5190   -3.1960   25.4750 O   0  0  0  0  0  0  0  0  0  0  0  0
    6.4990   -3.0020   26.6130 N   0  0  0  0  0  0  0  0  0  0  0  0
    6.5840   -3.9610   27.7370 C   0  0  0  0  0  0  0  0  0  0  0  0
    7.8420   -4.7240   27.6280 C   0  0  0  0  0  0  0  0  0  0  0  0
    8.6410   -4.6840   26.3920 C   0  0  0  0  0  0  0  0  0  0  0  0
    9.9840   -5.1570   26.8080 C   0  0  0  0  0  0  0  0  0  0  0  0
    8.2540   -5.6400   25.3250 C   0  0  0  0  0  0  0  0  0  0  0  0
    8.9370   -3.4240   25.5090 C   0  0  0  0  0  0  0  0  0  0  0  0
   10.1860   -2.8720   25.3220 C   0  0  0  0  0  0  0  0  0  0  0  0
   11.4450   -3.4650   25.4260 C   0  0  0  0  0  0  0  0  0  0  0  0
    5.5260   -4.7750   23.4590 C   0  0  0  0  0  0  0  0  0  0  0  0
    6.3610   -5.3130   22.2850 C   0  0  0  0  0  0  0  0  0  0  0  0
  1  2  1  0
  2  3  2  0
  2  4  1  0
  4  5  1  0
  5  6  1  0
  6  7  1  0
  7  8  1  0
  8  9  2  0
  8 10  1  0
 10 11  1  0
 11 12  1  0
 13 12  1  0
 13 14  1  0
 13 15  1  0
 13 16  1  0
 16 17  1  0
 17 18  2  3
  7 19  1  0
  4 20  1  0
 19 20  1  0
M  END
