piperidine-amides-14822-covalent
     RDKit          3D

 23 24  0  0  0  0  0  0  0  0999 V2000
    7.2290   -3.2790   19.1840 C   0  0  0  0  0  0  0  0  0  0  0  0
    6.4180   -3.9610   20.1970 C   0  0  0  0  0  0  0  0  0  0  0  0
    5.3340   -4.4730   19.8620 O   0  0  0  0  0  0  0  0  0  0  0  0
    6.8990   -4.0540   21.5180 N   0  0  0  0  0  0  0  0  0  0  0  0
    7.6330   -2.9330   22.0440 C   0  0  0  0  0  0  0  0  0  0  0  0
    6.8300   -2.2700   23.0970 C   0  0  0  0  0  0  0  0  0  0  0  0
    6.4280   -3.3730   24.0320 C   0  0  0  0  0  0  0  0  0  0  0  0
    5.6950   -2.7480   25.1770 C   0  0  0  0  0  0  0  0  0  0  0  0
    4.5320   -3.1070   25.3720 O   0  0  0  0  0  0  0  0  0  0  0  0
    6.3850   -1.7800   25.9220 N   0  0  0  0  0  0  0  0  0  0  0  0
    7.4260   -2.1090   26.8340 C   0  0  0  0  0  0  0  0  0  0  0  0
    7.3850   -3.4220   27.2340 C   0  0  0  0  0  0  0  0  0  0  0  0
    7.6590   -4.3720   26.3070 C   0  0  0  0  0  0  0  0  0  0  0  0
    8.6250   -4.0100   25.4020 O   0  0  0  0  0  0  0  0  0  0  0  0
    6.9730   -5.6000   26.4010 N   0  0  0  0  0  0  0  0  0  0  0  0
    5.5640   -5.5410   26.2800 C   0  0  0  0  0  0  0  0  0  0  0  0
    4.8180   -5.2290   27.5250 C   0  0  0  0  0  0  0  0  0  0  0  0
    5.6950   -5.3140   28.7770 C   0  0  0  0  0  0  0  0  0  0  0  0
    6.7670   -6.3310   28.7070 C   0  0  0  0  0  0  0  0  0  0  0  0
    7.6840   -6.1210   27.5110 C   0  0  2  0  0  0  0  0  0  0  0  0
    8.9050   -5.3670   27.9990 C   0  0  0  0  0  0  0  0  0  0  0  0
    5.5220   -4.3280   23.2780 C   0  0  0  0  0  0  0  0  0  0  0  0
    6.3420   -5.0390   22.4220 C   0  0  0  0  0  0  0  0  0  0  0  0
  1  2  1  0
  2  3  2  0
  2  4  1  0
  4  5  1  0
  5  6  1  0
  6  7  1  0
  7  8  1  0
  8  9  2  0
  8 10  1  0
 10 11  1  0
 11 12  1  0
 12 13  1  0
 13 14  2  0
 13 15  1  0
 15 16  1  0
 16 17  1  0
 17 18  1  0
 18 19  1  0
 15 20  1  0
 19 20  1  0
 20 21  1  1
  7 22  1  0
  4 23  1  0
 22 23  1  0
M  END
