piperidine-amides-12025-covalent
     RDKit          3D

 26 28  0  0  0  0  0  0  0  0999 V2000
    7.0870   -3.3630   19.2740 C   0  0  0  0  0  0  0  0  0  0  0  0
    6.3560   -4.1430   20.2630 C   0  0  0  0  0  0  0  0  0  0  0  0
    5.3200   -4.7190   19.9450 O   0  0  0  0  0  0  0  0  0  0  0  0
    6.8850   -4.2850   21.5900 N   0  0  0  0  0  0  0  0  0  0  0  0
    7.6890   -3.2450   22.1700 C   0  0  0  0  0  0  0  0  0  0  0  0
    6.9550   -2.6240   23.3130 C   0  0  0  0  0  0  0  0  0  0  0  0
    6.6050   -3.7340   24.2700 C   0  0  0  0  0  0  0  0  0  0  0  0
    5.7990   -3.1670   25.3810 C   0  0  0  0  0  0  0  0  0  0  0  0
    4.6100   -2.8260   25.2380 O   0  0  0  0  0  0  0  0  0  0  0  0
    6.4140   -3.0220   26.6450 N   0  0  0  0  0  0  0  0  0  0  0  0
    6.4470   -1.7350   27.3040 C   0  0  0  0  0  0  0  0  0  0  0  0
    5.9660   -0.5320   26.5680 C   0  0  0  0  0  0  0  0  0  0  0  0
    6.0030    0.6840   27.2180 C   0  0  0  0  0  0  0  0  0  0  0  0
    6.4890    0.7470   28.5430 C   0  0  0  0  0  0  0  0  0  0  0  0
    6.9400   -0.3770   29.2400 C   0  0  0  0  0  0  0  0  0  0  0  0
    7.4380   -0.3310   30.6170 C   0  0  0  0  0  0  0  0  0  0  0  0
    7.7220    0.9530   30.9040 N   0  0  0  0  0  0  0  0  0  0  0  0
    8.9590    1.6450   31.1920 C   0  0  0  0  0  0  0  0  0  0  0  0
    8.7500    2.9670   31.4320 N   0  0  0  0  0  0  0  0  0  0  0  0
    7.3130    3.0070   31.2690 C   0  0  0  0  0  0  0  0  0  0  0  0
    6.0800    3.6560   31.2520 C   0  0  0  0  0  0  0  0  0  0  0  0
    6.6100    1.7480   30.9350 C   0  0  0  0  0  0  0  0  0  0  0  0
    5.2440    1.5480   30.7410 C   0  0  0  0  0  0  0  0  0  0  0  0
    6.9110   -1.5920   28.6030 C   0  0  0  0  0  0  0  0  0  0  0  0
    5.7910   -4.8300   23.6070 C   0  0  0  0  0  0  0  0  0  0  0  0
    6.5530   -5.4170   22.4120 C   0  0  0  0  0  0  0  0  0  0  0  0
  1  2  1  0
  2  3  2  0
  2  4  1  0
  4  5  1  0
  5  6  1  0
  6  7  1  0
  7  8  1  0
  8  9  2  0
  8 10  1  0
 10 11  1  0
 11 12  2  0
 12 13  1  0
 13 14  2  0
 14 15  1  0
 15 16  1  0
 16 17  1  0
 17 18  1  0
 18 19  2  0
 19 20  1  0
 20 21  1  0
 17 22  1  0
 20 22  2  0
 22 23  1  0
 11 24  1  0
 15 24  2  0
  7 25  1  0
  4 26  1  0
 25 26  1  0
M  END
