piperidine-amides-33461-covalent
     RDKit          3D

 25 27  0  0  0  0  0  0  0  0999 V2000
    7.0460   -3.3770   19.4260 C   0  0  0  0  0  0  0  0  0  0  0  0
    6.4300   -4.2770   20.4160 C   0  0  0  0  0  0  0  0  0  0  0  0
    5.4220   -4.9140   20.0080 O   0  0  0  0  0  0  0  0  0  0  0  0
    6.9720   -4.4640   21.7270 N   0  0  0  0  0  0  0  0  0  0  0  0
    6.4810   -5.5170   22.5320 C   0  0  0  0  0  0  0  0  0  0  0  0
    6.0270   -5.1300   23.8820 C   0  0  0  0  0  0  0  0  0  0  0  0
    6.3590   -3.7780   24.4310 C   0  0  0  0  0  0  0  0  0  0  0  0
    5.2730   -3.3040   25.4030 C   0  0  0  0  0  0  0  0  0  0  0  0
    4.2750   -2.7870   24.8920 O   0  0  0  0  0  0  0  0  0  0  0  0
    5.3100   -3.4050   26.8450 N   0  0  0  0  0  0  0  0  0  0  0  0
    6.4320   -3.5720   27.6190 C   0  0  0  0  0  0  0  0  0  0  0  0
    6.6980   -4.8720   28.2860 C   0  0  0  0  0  0  0  0  0  0  0  0
    5.4510   -5.3770   28.9650 C   0  0  0  0  0  0  0  0  0  0  0  0
    4.3590   -4.6160   28.6480 C   0  0  0  0  0  0  0  0  0  0  0  0
    3.4220   -5.2030   29.7360 C   0  0  0  0  0  0  0  0  0  0  0  0
    3.7400   -6.5750   31.0650 Br  0  0  0  0  0  0  0  0  0  0  0  0
    2.0650   -4.5080   29.6300 C   0  0  0  0  0  0  0  0  0  0  0  0
    1.9410   -3.4340   28.5220 C   0  0  0  0  0  0  0  0  0  0  0  0
    2.9110   -2.9320   27.5060 C   0  0  0  0  0  0  0  0  0  0  0  0
    2.6150   -1.9170   26.5530 N   0  0  0  0  0  0  0  0  0  0  0  0
    1.2640   -2.0600   26.2100 O   0  0  0  0  0  0  0  0  0  0  0  0
    3.0160   -0.7270   27.0480 O   0  0  0  0  0  0  0  0  0  0  0  0
    4.1970   -3.6710   27.6860 C   0  0  0  0  0  0  0  0  0  0  0  0
    6.5750   -2.7240   23.3190 C   0  0  0  0  0  0  0  0  0  0  0  0
    7.5870   -3.3050   22.3910 C   0  0  0  0  0  0  0  0  0  0  0  0
  1  2  1  0
  2  3  2  0
  2  4  1  0
  4  5  1  0
  5  6  1  0
  6  7  1  0
  7  8  1  0
  8  9  2  0
  8 10  1  0
 10 11  1  0
 11 12  1  0
 12 13  1  0
 13 14  1  0
 14 15  2  0
 15 16  1  0
 15 17  1  0
 17 18  2  0
 18 19  1  0
 19 20  1  0
 20 21  2  0
 20 22  1  0
 10 23  1  0
 14 23  1  0
 19 23  2  0
  7 24  1  0
  4 25  1  0
 24 25  1  0
M  CHG  2  20   1  22  -1
M  END
