piperidine-amides-25838-covalent
     RDKit          3D

 25 27  0  0  0  0  0  0  0  0999 V2000
    7.0750   -3.2810   19.2290 C   0  0  0  0  0  0  0  0  0  0  0  0
    6.3590   -4.0550   20.2810 C   0  0  0  0  0  0  0  0  0  0  0  0
    5.3360   -4.6410   19.9240 O   0  0  0  0  0  0  0  0  0  0  0  0
    6.8640   -4.1340   21.5890 N   0  0  0  0  0  0  0  0  0  0  0  0
    6.6490   -5.2870   22.4190 C   0  0  0  0  0  0  0  0  0  0  0  0
    5.9320   -4.8750   23.6810 C   0  0  0  0  0  0  0  0  0  0  0  0
    6.4980   -3.5660   24.2670 C   0  0  0  0  0  0  0  0  0  0  0  0
    5.4820   -3.0990   25.2410 C   0  0  0  0  0  0  0  0  0  0  0  0
    4.3700   -3.6400   25.2380 O   0  0  0  0  0  0  0  0  0  0  0  0
    5.7150   -2.0610   26.1740 N   0  0  0  0  0  0  0  0  0  0  0  0
    4.5490   -1.4570   26.7550 C   0  0  0  0  0  0  0  0  0  0  0  0
    5.1460   -1.8670   28.0420 C   0  0  0  0  0  0  0  0  0  0  0  0
    5.3690   -0.6930   28.9070 N   0  0  0  0  0  0  0  0  0  0  0  0
    6.6590   -0.9430   29.5950 C   0  0  0  0  0  0  0  0  0  0  0  0
    6.7240   -0.1460   30.6650 C   0  0  0  0  0  0  0  0  0  0  0  0
    7.5450    0.1750   31.7110 C   0  0  0  0  0  0  0  0  0  0  0  0
    8.2810    1.2030   31.2790 N   0  0  0  0  0  0  0  0  0  0  0  0
    5.8500    0.8150   31.2210 C   0  0  0  0  0  0  0  0  0  0  0  0
    6.1540    1.6230   32.2890 O   0  0  0  0  0  0  0  0  0  0  0  0
    4.6280    0.8680   30.5710 N   0  0  0  0  0  0  0  0  0  0  0  0
    4.2870   -0.2030   29.5970 C   0  0  0  0  0  0  0  0  0  0  0  0
    2.9940   -0.6450   29.4250 O   0  0  0  0  0  0  0  0  0  0  0  0
    6.4550   -2.3870   27.4060 C   0  0  0  0  0  0  0  0  0  0  0  0
    6.8890   -2.5230   23.3030 C   0  0  0  0  0  0  0  0  0  0  0  0
    7.6430   -3.0550   22.1350 C   0  0  0  0  0  0  0  0  0  0  0  0
  1  2  1  0
  2  3  2  0
  2  4  1  0
  4  5  1  0
  5  6  1  0
  6  7  1  0
  7  8  1  0
  8  9  2  0
  8 10  1  0
 10 11  1  0
 11 12  1  0
 12 13  1  0
 13 14  1  0
 14 15  2  0
 15 16  1  0
 16 17  3  0
 15 18  1  0
 18 19  2  0
 18 20  1  0
 13 21  1  0
 20 21  1  0
 21 22  2  0
 10 23  1  0
 12 23  1  0
  7 24  1  0
  4 25  1  0
 24 25  1  0
M  END
