piperidine-amides-31135-covalent
     RDKit          3D

 25 27  0  0  0  0  0  0  0  0999 V2000
    7.0300   -3.3610   19.4350 C   0  0  0  0  0  0  0  0  0  0  0  0
    6.3840   -4.2370   20.4190 C   0  0  0  0  0  0  0  0  0  0  0  0
    5.4330   -4.9360   20.0140 O   0  0  0  0  0  0  0  0  0  0  0  0
    6.8140   -4.3590   21.7710 N   0  0  0  0  0  0  0  0  0  0  0  0
    6.5840   -5.5810   22.5160 C   0  0  0  0  0  0  0  0  0  0  0  0
    6.1400   -5.2020   23.9210 C   0  0  0  0  0  0  0  0  0  0  0  0
    5.8960   -3.7270   24.0850 C   0  0  0  0  0  0  0  0  0  0  0  0
    5.0320   -3.3420   25.2800 C   0  0  0  0  0  0  0  0  0  0  0  0
    3.7890   -3.3660   25.0930 O   0  0  0  0  0  0  0  0  0  0  0  0
    5.3790   -2.9430   26.6180 N   0  0  0  0  0  0  0  0  0  0  0  0
    6.6150   -3.2930   27.1840 C   0  0  0  0  0  0  0  0  0  0  0  0
    6.4520   -4.5710   27.9640 C   0  0  0  0  0  0  0  0  0  0  0  0
    5.1840   -4.6560   28.6680 C   0  0  0  0  0  0  0  0  0  0  0  0
    4.9340   -5.8720   29.5320 C   0  0  0  0  0  0  0  0  0  0  0  0
    6.1860   -7.1030   29.6240 Cl  0  0  0  0  0  0  0  0  0  0  0  0
    3.5980   -5.9420   30.2640 C   0  0  0  0  0  0  0  0  0  0  0  0
    2.6690   -4.8010   30.0490 C   0  0  0  0  0  0  0  0  0  0  0  0
    1.1050   -4.7740   30.8430 Cl  0  0  0  0  0  0  0  0  0  0  0  0
    3.0360   -3.7750   29.2310 C   0  0  0  0  0  0  0  0  0  0  0  0
    4.2430   -3.6850   28.5520 C   0  0  0  0  0  0  0  0  0  0  0  0
    4.5350   -2.5000   27.6540 C   0  0  2  0  0  0  0  0  0  0  0  0
    3.2740   -1.7710   27.1770 C   0  0  0  0  0  0  0  0  0  0  0  0
    2.6080   -0.8500   28.1680 C   0  0  0  0  0  0  0  0  0  0  0  0
    7.1650   -3.0010   23.7810 C   0  0  0  0  0  0  0  0  0  0  0  0
    7.5400   -3.2490   22.3530 C   0  0  0  0  0  0  0  0  0  0  0  0
  1  2  1  0
  2  3  2  0
  2  4  1  0
  4  5  1  0
  5  6  1  0
  6  7  1  0
  7  8  1  0
  8  9  2  0
  8 10  1  0
 10 11  1  0
 11 12  1  0
 12 13  1  0
 13 14  2  0
 14 15  1  0
 14 16  1  0
 16 17  2  0
 17 18  1  0
 17 19  1  0
 13 20  1  0
 19 20  2  0
 10 21  1  0
 20 21  1  0
 21 22  1  6
 22 23  1  0
  7 24  1  0
  4 25  1  0
 24 25  1  0
M  END
