piperidine-amides-14134-covalent
     RDKit          3D

 25 26  0  0  0  0  0  0  0  0999 V2000
    7.0500   -3.3280   19.3780 C   0  0  0  0  0  0  0  0  0  0  0  0
    6.3620   -4.1990   20.3740 C   0  0  0  0  0  0  0  0  0  0  0  0
    5.3950   -4.8810   19.9930 O   0  0  0  0  0  0  0  0  0  0  0  0
    6.8360   -4.2670   21.7100 N   0  0  0  0  0  0  0  0  0  0  0  0
    6.7100   -5.4760   22.4980 C   0  0  0  0  0  0  0  0  0  0  0  0
    6.1170   -5.1340   23.8800 C   0  0  0  0  0  0  0  0  0  0  0  0
    6.0870   -3.6500   24.0190 C   0  0  0  0  0  0  0  0  0  0  0  0
    5.5600   -3.1450   25.3160 C   0  0  0  0  0  0  0  0  0  0  0  0
    4.3520   -2.8930   25.3170 O   0  0  0  0  0  0  0  0  0  0  0  0
    6.3500   -2.9700   26.4610 N   0  0  0  0  0  0  0  0  0  0  0  0
    6.4250   -1.7490   27.2050 C   0  0  0  0  0  0  0  0  0  0  0  0
    7.0390   -1.5970   28.4290 C   0  0  0  0  0  0  0  0  0  0  0  0
    7.0650   -0.3610   29.1000 C   0  0  0  0  0  0  0  0  0  0  0  0
    6.4620    0.7470   28.5310 C   0  0  0  0  0  0  0  0  0  0  0  0
    6.4500    2.0890   29.1800 C   0  0  0  0  0  0  0  0  0  0  0  0
    5.8020    3.0670   28.5470 O   0  0  0  0  0  0  0  0  0  0  0  0
    7.1540    2.0990   30.4010 N   0  0  0  0  0  0  0  0  0  0  0  0
    6.3810    2.1220   31.6090 C   0  0  0  0  0  0  0  0  0  0  0  0
    5.1980    1.1570   31.6350 C   0  0  0  0  0  0  0  0  0  0  0  0
    5.4910   -0.1910   31.6410 C   0  0  0  0  0  0  0  0  0  0  0  0
    4.4650    1.4550   32.8850 C   0  0  0  0  0  0  0  0  0  0  0  0
    5.8500    0.5940   27.3110 C   0  0  0  0  0  0  0  0  0  0  0  0
    5.8300   -0.6120   26.6630 C   0  0  0  0  0  0  0  0  0  0  0  0
    7.3830   -2.9890   23.7040 C   0  0  0  0  0  0  0  0  0  0  0  0
    7.6940   -3.2050   22.2440 C   0  0  0  0  0  0  0  0  0  0  0  0
  1  2  1  0
  2  3  2  0
  2  4  1  0
  4  5  1  0
  5  6  1  0
  6  7  1  0
  7  8  1  0
  8  9  2  0
  8 10  1  0
 10 11  1  0
 11 12  2  0
 12 13  1  0
 13 14  2  0
 14 15  1  0
 15 16  2  0
 15 17  1  0
 17 18  1  0
 18 19  1  0
 19 20  1  0
 19 21  1  0
 14 22  1  0
 11 23  1  0
 22 23  2  0
  7 24  1  0
  4 25  1  0
 24 25  1  0
M  END
