piperidine-amides-33318-covalent
     RDKit          3D

 25 27  0  0  0  0  0  0  0  0999 V2000
    7.0810   -3.3460   19.2980 C   0  0  0  0  0  0  0  0  0  0  0  0
    6.4160   -4.1670   20.3210 C   0  0  0  0  0  0  0  0  0  0  0  0
    5.3760   -4.7760   19.9680 O   0  0  0  0  0  0  0  0  0  0  0  0
    6.9640   -4.3060   21.6210 N   0  0  0  0  0  0  0  0  0  0  0  0
    6.5850   -5.4400   22.3930 C   0  0  0  0  0  0  0  0  0  0  0  0
    5.9360   -5.0480   23.6300 C   0  0  0  0  0  0  0  0  0  0  0  0
    6.0870   -3.5990   23.8630 C   0  0  0  0  0  0  0  0  0  0  0  0
    5.6110   -3.1520   25.2200 C   0  0  0  0  0  0  0  0  0  0  0  0
    4.4220   -2.8090   25.3530 O   0  0  0  0  0  0  0  0  0  0  0  0
    6.4550   -3.1180   26.3510 N   0  0  0  0  0  0  0  0  0  0  0  0
    7.7090   -3.6490   26.4250 C   0  0  0  0  0  0  0  0  0  0  0  0
    7.6530   -4.8520   27.3620 C   0  0  0  0  0  0  0  0  0  0  0  0
    8.5840   -5.8400   26.6080 C   0  0  0  0  0  0  0  0  0  0  0  0
    8.3530   -4.6850   28.5840 C   0  0  0  0  0  0  0  0  0  0  0  0
    6.4670   -5.6330   27.8300 N   0  0  0  0  0  0  0  0  0  0  0  0
    6.8990   -6.5070   28.8670 C   0  0  0  0  0  0  0  0  0  0  0  0
    5.7940   -4.4610   28.5320 C   0  0  0  0  0  0  0  0  0  0  0  0
    5.7690   -5.6850   29.2230 C   0  0  0  0  0  0  0  0  0  0  0  0
    6.2710   -6.6070   28.4910 C   0  0  0  0  0  0  0  0  0  0  0  0
    5.9240   -4.9210   28.4540 C   0  0  0  0  0  0  0  0  0  0  0  0
    6.6260   -5.0630   26.6630 Br  0  0  0  0  0  0  0  0  0  0  0  0
    5.6720   -3.2310   28.1810 C   0  0  0  0  0  0  0  0  0  0  0  0
    6.2140   -4.0260   27.3510 C   0  0  0  0  0  0  0  0  0  0  0  0
    7.4620   -3.1190   23.5370 C   0  0  0  0  0  0  0  0  0  0  0  0
    7.7560   -3.2270   22.1860 C   0  0  0  0  0  0  0  0  0  0  0  0
  1  2  1  0
  2  3  2  0
  2  4  1  0
  4  5  1  0
  5  6  1  0
  6  7  1  0
  7  8  1  0
  8  9  2  0
  8 10  1  0
 10 11  1  0
 11 12  1  0
 12 13  1  0
 12 14  1  0
 12 15  1  0
 15 16  1  0
 15 17  1  0
 17 18  2  0
 18 19  1  0
 19 20  2  0
 20 21  1  0
 20 22  1  0
 10 23  1  0
 17 23  1  0
 22 23  2  0
  7 24  1  0
  4 25  1  0
 24 25  1  0
M  END
