piperidine-amides-7332-covalent
     RDKit          3D

 20 21  0  0  0  0  0  0  0  0999 V2000
    7.1040   -3.2720   19.2070 C   0  0  0  0  0  0  0  0  0  0  0  0
    6.3660   -4.0200   20.2290 C   0  0  0  0  0  0  0  0  0  0  0  0
    5.2760   -4.5380   19.8770 O   0  0  0  0  0  0  0  0  0  0  0  0
    6.9010   -4.1810   21.5050 N   0  0  0  0  0  0  0  0  0  0  0  0
    7.6910   -3.1530   22.1470 C   0  0  0  0  0  0  0  0  0  0  0  0
    6.9620   -2.7030   23.3770 C   0  0  0  0  0  0  0  0  0  0  0  0
    6.5820   -3.8710   24.2400 C   0  0  0  0  0  0  0  0  0  0  0  0
    5.8540   -3.3700   25.4320 C   0  0  0  0  0  0  0  0  0  0  0  0
    4.6020   -3.3400   25.3950 O   0  0  0  0  0  0  0  0  0  0  0  0
    6.5130   -2.9090   26.5870 N   0  0  0  0  0  0  0  0  0  0  0  0
    6.2090   -3.3850   27.9220 C   0  0  0  0  0  0  0  0  0  0  0  0
    6.1370   -4.9040   28.0770 C   0  0  0  0  0  0  0  0  0  0  0  0
    5.0390   -5.5850   28.5450 C   0  0  2  0  0  0  0  0  0  0  0  0
    4.2320   -5.0330   29.5280 C   0  0  0  0  0  0  0  0  0  0  0  0
    3.9210   -5.9640   30.4930 C   0  0  0  0  0  0  0  0  0  0  0  0
    4.5880   -7.1170   30.1870 C   0  0  2  0  0  0  0  0  0  0  0  0
    5.9430   -7.3640   30.2580 C   0  0  0  0  0  0  0  0  0  0  0  0
    5.4440   -6.8710   28.9260 C   0  0  0  0  0  0  0  0  0  0  0  0
    5.7280   -4.8530   23.5110 C   0  0  0  0  0  0  0  0  0  0  0  0
    6.4050   -5.3330   22.2510 C   0  0  0  0  0  0  0  0  0  0  0  0
  1  2  1  0
  2  3  2  0
  2  4  1  0
  4  5  1  0
  5  6  1  0
  6  7  1  0
  7  8  1  0
  8  9  2  0
  8 10  1  0
 10 11  1  0
 11 12  1  0
 13 12  1  1
 13 14  1  0
 14 15  1  0
 15 16  1  0
 16 17  1  1
 13 18  1  0
 16 18  1  0
  7 19  1  0
  4 20  1  0
 19 20  1  0
M  END
