piperidine-amides-15034-covalent
     RDKit          3D

 20 21  0  0  0  0  0  0  0  0999 V2000
    7.0420   -3.3400   19.3220 C   0  0  0  0  0  0  0  0  0  0  0  0
    6.3730   -4.1760   20.3160 C   0  0  0  0  0  0  0  0  0  0  0  0
    5.3530   -4.7920   19.9680 O   0  0  0  0  0  0  0  0  0  0  0  0
    6.9140   -4.3080   21.6210 N   0  0  0  0  0  0  0  0  0  0  0  0
    7.6380   -3.2080   22.2000 C   0  0  0  0  0  0  0  0  0  0  0  0
    6.8590   -2.6550   23.3510 C   0  0  0  0  0  0  0  0  0  0  0  0
    6.5870   -3.8290   24.2550 C   0  0  0  0  0  0  0  0  0  0  0  0
    5.7830   -3.3940   25.4520 C   0  0  0  0  0  0  0  0  0  0  0  0
    4.5510   -3.3890   25.3590 O   0  0  0  0  0  0  0  0  0  0  0  0
    6.4740   -3.0300   26.6030 N   0  0  0  0  0  0  0  0  0  0  0  0
    6.4000   -1.7160   27.1610 C   0  0  0  0  0  0  0  0  0  0  0  0
    5.8610   -0.5780   26.5650 C   0  0  0  0  0  0  0  0  0  0  0  0
    5.8390    0.6530   27.2220 C   0  0  0  0  0  0  0  0  0  0  0  0
    5.2460    1.5760   26.3900 O   0  0  0  0  0  0  0  0  0  0  0  0
    6.3400    0.8990   28.5220 C   0  0  0  0  0  0  0  0  0  0  0  0
    6.9390   -0.3000   29.2120 C   0  0  0  0  0  0  0  0  0  0  0  0
    7.4350   -0.1220   30.4620 F   0  0  0  0  0  0  0  0  0  0  0  0
    6.9480   -1.6280   28.4700 C   0  0  0  0  0  0  0  0  0  0  0  0
    5.8310   -4.9490   23.6250 C   0  0  0  0  0  0  0  0  0  0  0  0
    6.4870   -5.4400   22.3680 C   0  0  0  0  0  0  0  0  0  0  0  0
  1  2  1  0
  2  3  2  0
  2  4  1  0
  4  5  1  0
  5  6  1  0
  6  7  1  0
  7  8  1  0
  8  9  2  0
  8 10  1  0
 10 11  1  0
 11 12  2  0
 12 13  1  0
 13 14  1  0
 13 15  2  0
 15 16  1  0
 16 17  1  0
 11 18  1  0
 16 18  2  0
  7 19  1  0
  4 20  1  0
 19 20  1  0
M  END
