piperidine-amides-12124-covalent
     RDKit          3D

 25 27  0  0  0  0  0  0  0  0999 V2000
    7.0440   -3.2980   19.2470 C   0  0  0  0  0  0  0  0  0  0  0  0
    6.3090   -4.0610   20.2550 C   0  0  0  0  0  0  0  0  0  0  0  0
    5.2900   -4.6630   19.9260 O   0  0  0  0  0  0  0  0  0  0  0  0
    6.7830   -4.1640   21.6120 N   0  0  0  0  0  0  0  0  0  0  0  0
    7.6650   -3.1470   22.1400 C   0  0  0  0  0  0  0  0  0  0  0  0
    7.3750   -2.9330   23.5910 C   0  0  0  0  0  0  0  0  0  0  0  0
    6.0740   -3.6600   23.8520 C   0  0  0  0  0  0  0  0  0  0  0  0
    5.5300   -3.3640   25.2050 C   0  0  0  0  0  0  0  0  0  0  0  0
    4.3150   -3.4500   25.4530 O   0  0  0  0  0  0  0  0  0  0  0  0
    6.4060   -2.9740   26.2370 N   0  0  0  0  0  0  0  0  0  0  0  0
    6.6620   -1.5710   26.4170 C   0  0  0  0  0  0  0  0  0  0  0  0
    6.0300   -1.1380   27.7140 C   0  0  0  0  0  0  0  0  0  0  0  0
    5.6250    0.1800   27.9620 N   0  0  0  0  0  0  0  0  0  0  0  0
    5.1160    0.2170   29.1750 N   0  0  0  0  0  0  0  0  0  0  0  0
    5.2090   -1.0820   29.6760 C   0  0  0  0  0  0  0  0  0  0  0  0
    4.7090   -1.2230   30.9700 C   0  0  0  0  0  0  0  0  0  0  0  0
    3.8030   -2.2260   31.2890 C   0  0  0  0  0  0  0  0  0  0  0  0
    3.3140   -2.3310   32.6440 C   0  0  0  0  0  0  0  0  0  0  0  0
    3.7150   -1.4740   33.6160 C   0  0  0  0  0  0  0  0  0  0  0  0
    4.6090   -0.4960   33.2750 C   0  0  0  0  0  0  0  0  0  0  0  0
    5.1150   -0.3490   31.9790 C   0  0  0  0  0  0  0  0  0  0  0  0
    5.7610   -1.9290   28.8070 N   0  0  0  0  0  0  0  0  0  0  0  0
    6.0210   -3.2460   28.9090 C   0  0  0  0  0  0  0  0  0  0  0  0
    6.1740   -5.1520   23.6130 C   0  0  0  0  0  0  0  0  0  0  0  0
    6.6470   -5.4140   22.3230 C   0  0  0  0  0  0  0  0  0  0  0  0
  1  2  1  0
  2  3  2  0
  2  4  1  0
  4  5  1  0
  5  6  1  0
  6  7  1  0
  7  8  1  0
  8  9  2  0
  8 10  1  0
 10 11  1  0
 11 12  1  0
 12 13  2  0
 13 14  1  0
 14 15  2  0
 15 16  1  0
 16 17  2  0
 17 18  1  0
 18 19  2  0
 19 20  1  0
 16 21  1  0
 20 21  2  0
 12 22  1  0
 15 22  1  0
 22 23  1  0
  7 24  1  0
  4 25  1  0
 24 25  1  0
M  END
