piperidine-amides-31687-covalent
     RDKit          3D

 28 30  0  0  0  0  0  0  0  0999 V2000
    7.1160   -3.2650   19.3530 C   0  0  0  0  0  0  0  0  0  0  0  0
    6.3420   -4.0140   20.3270 C   0  0  0  0  0  0  0  0  0  0  0  0
    5.3430   -4.6890   19.9260 O   0  0  0  0  0  0  0  0  0  0  0  0
    6.6700   -4.0430   21.6950 N   0  0  0  0  0  0  0  0  0  0  0  0
    7.6400   -3.0100   22.1530 C   0  0  0  0  0  0  0  0  0  0  0  0
    7.3030   -2.8550   23.6890 C   0  0  0  0  0  0  0  0  0  0  0  0
    5.9330   -3.4570   23.8760 C   0  0  0  0  0  0  0  0  0  0  0  0
    5.2270   -2.9440   25.2230 C   0  0  0  0  0  0  0  0  0  0  0  0
    4.1070   -2.5140   25.0040 O   0  0  0  0  0  0  0  0  0  0  0  0
    6.0380   -3.1360   26.1760 N   0  0  0  0  0  0  0  0  0  0  0  0
    6.8650   -3.7380   27.0410 C   0  0  0  0  0  0  0  0  0  0  0  0
    7.8890   -4.5130   26.7250 C   0  0  0  0  0  0  0  0  0  0  0  0
    8.1890   -5.8000   27.2000 C   0  0  0  0  0  0  0  0  0  0  0  0
    9.3930   -6.3750   26.6090 C   0  0  0  0  0  0  0  0  0  0  0  0
    9.6560   -5.1670   25.7650 C   0  0  0  0  0  0  0  0  0  0  0  0
    8.8180   -4.0710   25.8000 O   0  0  0  0  0  0  0  0  0  0  0  0
    6.7880   -2.0520   26.8320 C   0  0  0  0  0  0  0  0  0  0  0  0
    6.1070   -0.8230   26.8570 C   0  0  0  0  0  0  0  0  0  0  0  0
    6.5770   -0.6040   28.2480 C   0  0  0  0  0  0  0  0  0  0  0  0
    5.9460    0.7360   28.5220 C   0  0  0  0  0  0  0  0  0  0  0  0
    5.2350    1.1710   27.4170 C   0  0  0  0  0  0  0  0  0  0  0  0
    4.5650    2.3660   27.3840 C   0  0  0  0  0  0  0  0  0  0  0  0
    3.3280    2.5330   27.2690 O   0  0  0  0  0  0  0  0  0  0  0  0
    5.3460    3.5150   27.4810 O   0  0  0  0  0  0  0  0  0  0  0  0
    6.7630    3.4080   27.4440 C   0  0  0  0  0  0  0  0  0  0  0  0
    5.3550    0.1490   26.3680 O   0  0  0  0  0  0  0  0  0  0  0  0
    5.8160   -4.9270   23.6150 C   0  0  0  0  0  0  0  0  0  0  0  0
    6.5250   -5.2520   22.4570 C   0  0  0  0  0  0  0  0  0  0  0  0
  1  2  1  0
  2  3  2  0
  2  4  1  0
  4  5  1  0
  5  6  1  0
  6  7  1  0
  7  8  1  0
  8  9  2  0
  8 10  1  0
 10 11  1  0
 11 12  1  0
 12 13  2  0
 13 14  1  0
 14 15  2  0
 12 16  1  0
 15 16  1  0
 10 17  1  0
 17 18  1  0
 18 19  2  0
 19 20  1  0
 20 21  2  0
 21 22  1  0
 22 23  2  0
 22 24  1  0
 24 25  1  0
 18 26  1  0
 21 26  1  0
  7 27  1  0
  4 28  1  0
 27 28  1  0
M  END
