piperidine-amides-10748-covalent
     RDKit          3D

 22 24  0  0  0  0  0  0  0  0999 V2000
    7.0470   -3.3360   19.3290 C   0  0  0  0  0  0  0  0  0  0  0  0
    6.3710   -4.1480   20.3410 C   0  0  0  0  0  0  0  0  0  0  0  0
    5.4110   -4.8560   19.9900 O   0  0  0  0  0  0  0  0  0  0  0  0
    6.8150   -4.1700   21.6790 N   0  0  0  0  0  0  0  0  0  0  0  0
    7.7260   -3.1540   22.1830 C   0  0  0  0  0  0  0  0  0  0  0  0
    7.4580   -3.0210   23.6540 C   0  0  0  0  0  0  0  0  0  0  0  0
    6.0980   -3.5390   23.9790 C   0  0  0  0  0  0  0  0  0  0  0  0
    5.5990   -3.1630   25.3280 C   0  0  0  0  0  0  0  0  0  0  0  0
    4.3540   -3.0380   25.5200 O   0  0  0  0  0  0  0  0  0  0  0  0
    6.4320   -2.9340   26.4460 N   0  0  0  0  0  0  0  0  0  0  0  0
    6.6330   -1.5790   27.0290 C   0  0  2  0  0  0  0  0  0  0  0  0
    6.6350   -1.7860   28.5030 C   0  0  0  0  0  0  0  0  0  0  0  0
    6.9050   -0.5970   29.3130 C   0  0  0  0  0  0  0  0  0  0  0  0
    6.4320    0.5940   28.5520 C   0  0  0  0  0  0  0  0  0  0  0  0
    5.7880    0.5760   27.2400 C   0  0  0  0  0  0  0  0  0  0  0  0
    5.5410    2.0230   26.9880 N   0  0  0  0  0  0  0  0  0  0  0  0
    5.9870    2.7920   28.0280 N   0  0  0  0  0  0  0  0  0  0  0  0
    6.5260    2.0130   28.9910 C   0  0  0  0  0  0  0  0  0  0  0  0
    7.0680    2.4440   30.1730 C   0  0  0  0  0  0  0  0  0  0  0  0
    5.5570   -0.6200   26.5700 C   0  0  0  0  0  0  0  0  0  0  0  0
    5.9960   -5.0600   23.7890 C   0  0  0  0  0  0  0  0  0  0  0  0
    6.6370   -5.3980   22.4290 C   0  0  0  0  0  0  0  0  0  0  0  0
  1  2  1  0
  2  3  2  0
  2  4  1  0
  4  5  1  0
  5  6  1  0
  6  7  1  0
  7  8  1  0
  8  9  2  0
  8 10  1  0
 11 10  1  6
 11 12  1  0
 12 13  1  0
 13 14  1  0
 14 15  1  0
 15 16  2  0
 16 17  1  0
 14 18  2  0
 17 18  1  0
 18 19  1  0
 11 20  1  0
 15 20  1  0
  7 21  1  0
  4 22  1  0
 21 22  1  0
M  END
