piperidine-amides-6307-covalent
     RDKit          3D

 25 27  0  0  0  0  0  0  0  0999 V2000
    7.0660   -3.3000   19.2740 C   0  0  0  0  0  0  0  0  0  0  0  0
    6.3580   -4.1080   20.2820 C   0  0  0  0  0  0  0  0  0  0  0  0
    5.3420   -4.7570   19.9550 O   0  0  0  0  0  0  0  0  0  0  0  0
    6.8300   -4.1990   21.6010 N   0  0  0  0  0  0  0  0  0  0  0  0
    7.6900   -3.1440   22.1190 C   0  0  0  0  0  0  0  0  0  0  0  0
    7.4090   -2.9710   23.6160 C   0  0  0  0  0  0  0  0  0  0  0  0
    6.0570   -3.5940   23.8490 C   0  0  0  0  0  0  0  0  0  0  0  0
    5.5500   -3.2790   25.1990 C   0  0  0  0  0  0  0  0  0  0  0  0
    4.3150   -3.1990   25.3430 O   0  0  0  0  0  0  0  0  0  0  0  0
    6.4370   -3.0820   26.2810 N   0  0  0  0  0  0  0  0  0  0  0  0
    6.3720   -1.8640   27.0360 C   0  0  0  0  0  0  0  0  0  0  0  0
    5.5270   -2.1130   28.2690 C   0  0  0  0  0  0  0  0  0  0  0  0
    5.4570   -3.4660   28.7470 N   0  0  0  0  0  0  0  0  0  0  0  0
    4.6770   -3.4530   29.8160 N   0  0  0  0  0  0  0  0  0  0  0  0
    4.2700   -2.1530   30.0140 C   0  0  0  0  0  0  0  0  0  0  0  0
    3.4610   -1.6260   30.9850 C   0  0  0  0  0  0  0  0  0  0  0  0
    3.1920   -0.2690   30.9700 C   0  0  0  0  0  0  0  0  0  0  0  0
    3.7080    0.5590   30.0140 C   0  0  0  0  0  0  0  0  0  0  0  0
    3.4550    1.9480   29.9590 N   0  0  0  0  0  0  0  0  0  0  0  0
    2.0750    2.3790   29.8570 C   0  0  0  0  0  0  0  0  0  0  0  0
    4.5480    2.8100   29.5750 C   0  0  0  0  0  0  0  0  0  0  0  0
    4.4900   -0.0330   29.1050 N   0  0  0  0  0  0  0  0  0  0  0  0
    4.7870   -1.3270   29.0670 N   0  0  0  0  0  0  0  0  0  0  0  0
    6.0500   -5.0490   23.6540 C   0  0  0  0  0  0  0  0  0  0  0  0
    6.6150   -5.3960   22.3530 C   0  0  0  0  0  0  0  0  0  0  0  0
  1  2  1  0
  2  3  2  0
  2  4  1  0
  4  5  1  0
  5  6  1  0
  6  7  1  0
  7  8  1  0
  8  9  2  0
  8 10  1  0
 10 11  1  0
 11 12  1  0
 12 13  2  0
 13 14  1  0
 14 15  2  0
 15 16  1  0
 16 17  2  0
 17 18  1  0
 18 19  1  0
 19 20  1  0
 19 21  1  0
 18 22  2  0
 12 23  1  0
 15 23  1  0
 22 23  1  0
  7 24  1  0
  4 25  1  0
 24 25  1  0
M  END
