piperidine-amides-35637-covalent
     RDKit          3D

 40 43  0  0  0  0  0  0  0  0999 V2000
    7.0780   -3.3110   19.3210 C   0  0  0  0  0  0  0  0  0  0  0  0
    6.3880   -4.1810   20.3030 C   0  0  0  0  0  0  0  0  0  0  0  0
    5.3420   -4.7110   19.9400 O   0  0  0  0  0  0  0  0  0  0  0  0
    6.9530   -4.4140   21.5590 N   0  0  0  0  0  0  0  0  0  0  0  0
    7.6670   -3.3970   22.2850 C   0  0  0  0  0  0  0  0  0  0  0  0
    6.9570   -3.0990   23.5750 C   0  0  0  0  0  0  0  0  0  0  0  0
    6.4510   -4.3750   24.2730 C   0  0  0  0  0  0  0  0  0  0  0  0
    5.6330   -3.9290   25.4090 C   0  0  0  0  0  0  0  0  0  0  0  0
    4.4270   -3.7150   25.2150 O   0  0  0  0  0  0  0  0  0  0  0  0
    6.1530   -3.7080   26.6930 N   0  0  0  0  0  0  0  0  0  0  0  0
    5.4800   -4.3980   27.7580 C   0  0  0  0  0  0  0  0  0  0  0  0
    4.3160   -3.6950   28.3870 C   0  0  0  0  0  0  0  0  0  0  0  0
    3.5820   -4.1930   29.3830 C   0  0  0  0  0  0  0  0  0  0  0  0
    3.9330   -5.4030   29.8310 C   0  0  0  0  0  0  0  0  0  0  0  0
    4.9730   -6.1800   29.3670 C   0  0  0  0  0  0  0  0  0  0  0  0
    5.3440   -7.5400   29.8960 C   0  0  0  0  0  0  0  0  0  0  0  0
    3.8830   -7.8170   30.0700 C   0  0  0  0  0  0  0  0  0  0  0  0
    5.9140   -5.7920   28.2460 C   0  0  0  0  0  0  0  0  0  0  0  0
    6.1790   -2.3060   26.8380 C   0  0  0  0  0  0  0  0  0  0  0  0
    5.9080   -1.6340   25.7090 N   0  0  0  0  0  0  0  0  0  0  0  0
    5.9310   -0.2620   25.9600 C   0  0  0  0  0  0  0  0  0  0  0  0
    6.2280    0.2400   27.3700 N   0  0  0  0  0  0  0  0  0  0  0  0
    6.5370   -0.4010   28.6350 C   0  0  0  0  0  0  0  0  0  0  0  0
    6.5340    1.0310   28.8470 C   0  0  0  0  0  0  0  0  0  0  0  0
    6.1980    1.6890   27.5830 C   0  0  0  0  0  0  0  0  0  0  0  0
    6.1230    3.0660   27.5160 O   0  0  0  0  0  0  0  0  0  0  0  0
    5.8820    3.8430   28.6570 C   0  0  0  0  0  0  0  0  0  0  0  0
    5.1740    5.1780   28.6980 C   0  0  0  0  0  0  0  0  0  0  0  0
    4.0940    5.2850   27.8410 O   0  0  0  0  0  0  0  0  0  0  0  0
    3.2310    4.9770   26.9090 C   0  0  0  0  0  0  0  0  0  0  0  0
    5.9620    0.9080   26.4720 C   0  0  0  0  0  0  0  0  0  0  0  0
    5.6760    1.4470   25.3650 O   0  0  0  0  0  0  0  0  0  0  0  0
    4.3210    1.3930   24.8900 C   0  0  0  0  0  0  0  0  0  0  0  0
    4.0990    1.8340   23.4310 C   0  0  0  0  0  0  0  0  0  0  0  0
    4.9450    1.2990   22.4660 O   0  0  0  0  0  0  0  0  0  0  0  0
    4.4260    0.2170   21.7740 C   0  0  0  0  0  0  0  0  0  0  0  0
    6.0790   -0.5940   26.6970 C   0  0  0  0  0  0  0  0  0  0  0  0
    6.4040   -1.5360   27.9060 C   0  0  0  0  0  0  0  0  0  0  0  0
    5.7300   -5.2900   23.3460 C   0  0  0  0  0  0  0  0  0  0  0  0
    6.6870   -5.6480   22.2230 C   0  0  0  0  0  0  0  0  0  0  0  0
  1  2  1  0
  2  3  2  0
  2  4  1  0
  4  5  1  0
  5  6  1  0
  6  7  1  0
  7  8  1  0
  8  9  2  0
  8 10  1  0
 10 11  1  0
 11 12  2  0
 12 13  1  0
 13 14  2  0
 14 15  1  0
 15 16  1  0
 16 17  3  0
 11 18  1  0
 15 18  2  0
 10 19  1  0
 19 20  2  0
 20 21  1  0
 21 22  2  0
 22 23  1  0
 23 24  1  0
 24 25  2  0
 25 26  1  0
 26 27  1  0
 27 28  1  0
 28 29  1  0
 29 30  1  0
 25 31  1  0
 31 32  1  0
 32 33  1  0
 33 34  1  0
 34 35  1  0
 35 36  1  0
 31 37  2  0
 19 38  1  0
 23 38  2  0
 37 38  1  0
  7 39  1  0
  4 40  1  0
 39 40  1  0
M  END
