piperidine-amides-29893-covalent
     RDKit          3D

 25 27  0  0  0  0  0  0  0  0999 V2000
    7.0720   -3.3630   19.4040 C   0  0  0  0  0  0  0  0  0  0  0  0
    6.3540   -4.1830   20.3680 C   0  0  0  0  0  0  0  0  0  0  0  0
    5.3880   -4.8520   19.9920 O   0  0  0  0  0  0  0  0  0  0  0  0
    6.8050   -4.2450   21.7380 N   0  0  0  0  0  0  0  0  0  0  0  0
    6.6280   -5.4690   22.4860 C   0  0  0  0  0  0  0  0  0  0  0  0
    6.1270   -5.1600   23.8720 C   0  0  0  0  0  0  0  0  0  0  0  0
    6.1450   -3.6490   24.0280 C   0  0  0  0  0  0  0  0  0  0  0  0
    5.5420   -3.2380   25.3450 C   0  0  0  0  0  0  0  0  0  0  0  0
    4.3050   -3.1630   25.4580 O   0  0  0  0  0  0  0  0  0  0  0  0
    6.3260   -2.9050   26.4940 N   0  0  0  0  0  0  0  0  0  0  0  0
    6.2760   -3.8070   27.6400 C   0  0  0  0  0  0  0  0  0  0  0  0
    4.9420   -3.6860   28.3390 C   0  0  1  0  0  0  0  0  0  0  0  0
    3.7670   -4.1880   27.8090 C   0  0  0  0  0  0  0  0  0  0  0  0
    3.2010   -5.0170   28.7530 C   0  0  0  0  0  0  0  0  0  0  0  0
    4.0530   -5.0600   29.8200 C   0  0  0  0  0  0  0  0  0  0  0  0
    5.0280   -4.3010   29.6010 O   0  0  0  0  0  0  0  0  0  0  0  0
    6.7060   -1.5340   26.9070 C   0  0  2  0  0  0  0  0  0  0  0  0
    6.8790   -1.4470   28.3030 C   0  0  0  0  0  0  0  0  0  0  0  0
    6.5810   -0.2620   28.9070 C   0  0  0  0  0  0  0  0  0  0  0  0
    5.7180    0.6780   27.7600 S   0  0  0  0  0  0  0  0  0  0  0  0
    6.4940    1.8760   27.3450 O   0  0  0  0  0  0  0  0  0  0  0  0
    4.3160    1.0560   28.2000 O   0  0  0  0  0  0  0  0  0  0  0  0
    5.7140   -0.5730   26.5940 C   0  0  0  0  0  0  0  0  0  0  0  0
    7.4000   -3.0170   23.6740 C   0  0  0  0  0  0  0  0  0  0  0  0
    7.6490   -3.2120   22.3190 C   0  0  0  0  0  0  0  0  0  0  0  0
  1  2  1  0
  2  3  2  0
  2  4  1  0
  4  5  1  0
  5  6  1  0
  6  7  1  0
  7  8  1  0
  8  9  2  0
  8 10  1  0
 10 11  1  0
 12 11  1  6
 12 13  1  0
 13 14  1  0
 14 15  1  0
 12 16  1  0
 15 16  1  0
 17 10  1  1
 17 18  1  0
 18 19  1  0
 20 19  1  0
 20 21  2  0
 20 22  2  0
 17 23  1  0
 20 23  1  0
  7 24  1  0
  4 25  1  0
 24 25  1  0
M  END
