piperidine-amides-1255-covalent
     RDKit          3D

 23 24  0  0  0  0  0  0  0  0999 V2000
    7.0910   -3.3470   19.3320 C   0  0  0  0  0  0  0  0  0  0  0  0
    6.4190   -4.2170   20.3380 C   0  0  0  0  0  0  0  0  0  0  0  0
    5.4120   -4.8620   19.9920 O   0  0  0  0  0  0  0  0  0  0  0  0
    6.9760   -4.3180   21.6370 N   0  0  0  0  0  0  0  0  0  0  0  0
    7.7530   -3.2460   22.2010 C   0  0  0  0  0  0  0  0  0  0  0  0
    6.9070   -2.6730   23.3360 C   0  0  0  0  0  0  0  0  0  0  0  0
    6.5190   -3.8040   24.2280 C   0  0  0  0  0  0  0  0  0  0  0  0
    5.7870   -3.3050   25.4180 C   0  0  0  0  0  0  0  0  0  0  0  0
    4.5590   -3.1940   25.2940 O   0  0  0  0  0  0  0  0  0  0  0  0
    6.4570   -2.9810   26.5990 N   0  0  0  0  0  0  0  0  0  0  0  0
    6.4660   -1.7160   27.2520 C   0  0  0  0  0  0  0  0  0  0  0  0
    5.9480   -0.5360   26.7490 C   0  0  0  0  0  0  0  0  0  0  0  0
    5.9940    0.6720   27.4700 C   0  0  0  0  0  0  0  0  0  0  0  0
    6.5700    0.7200   28.7230 C   0  0  0  0  0  0  0  0  0  0  0  0
    7.1370   -0.5320   29.2850 C   0  0  0  0  0  0  0  0  0  0  0  0
    7.7180   -0.4280   30.5770 N   0  0  0  0  0  0  0  0  0  0  0  0
    6.9620    0.4850   31.8010 S   0  0  0  0  0  0  0  0  0  0  0  0
    5.2270    0.2160   31.8150 C   0  0  0  0  0  0  0  0  0  0  0  0
    7.1910    1.9740   31.5970 O   0  0  0  0  0  0  0  0  0  0  0  0
    7.5300    0.0720   33.1170 O   0  0  0  0  0  0  0  0  0  0  0  0
    7.0470   -1.6450   28.5280 C   0  0  0  0  0  0  0  0  0  0  0  0
    5.6330   -4.8260   23.4900 C   0  0  0  0  0  0  0  0  0  0  0  0
    6.5200   -5.4070   22.4510 C   0  0  0  0  0  0  0  0  0  0  0  0
  1  2  1  0
  2  3  2  0
  2  4  1  0
  4  5  1  0
  5  6  1  0
  6  7  1  0
  7  8  1  0
  8  9  2  0
  8 10  1  0
 10 11  1  0
 11 12  2  0
 12 13  1  0
 13 14  2  0
 14 15  1  0
 15 16  1  0
 17 16  1  0
 17 18  1  0
 17 19  2  0
 17 20  2  0
 11 21  1  0
 15 21  2  0
  7 22  1  0
  4 23  1  0
 22 23  1  0
M  END
