piperidine-amides-31059-covalent
     RDKit          3D

 28 30  0  0  0  0  0  0  0  0999 V2000
    7.1030   -3.2850   19.2470 C   0  0  0  0  0  0  0  0  0  0  0  0
    6.3700   -4.0550   20.2530 C   0  0  0  0  0  0  0  0  0  0  0  0
    5.3170   -4.6190   19.9190 O   0  0  0  0  0  0  0  0  0  0  0  0
    6.8620   -4.2180   21.5660 N   0  0  0  0  0  0  0  0  0  0  0  0
    6.6930   -5.4680   22.2810 C   0  0  0  0  0  0  0  0  0  0  0  0
    5.9620   -5.1250   23.5520 C   0  0  0  0  0  0  0  0  0  0  0  0
    5.8070   -3.6440   23.6810 C   0  0  0  0  0  0  0  0  0  0  0  0
    5.1070   -3.2560   24.9230 C   0  0  0  0  0  0  0  0  0  0  0  0
    3.8480   -3.2370   24.9470 O   0  0  0  0  0  0  0  0  0  0  0  0
    5.7280   -2.9000   26.1200 N   0  0  0  0  0  0  0  0  0  0  0  0
    5.8140   -1.4470   26.4080 C   0  0  0  0  0  0  0  0  0  0  0  0
    5.5910   -3.8810   27.2380 C   0  0  0  0  0  0  0  0  0  0  0  0
    5.0230   -3.3710   28.5230 C   0  0  0  0  0  0  0  0  0  0  0  0
    4.1530   -4.4920   29.1290 C   0  0  0  0  0  0  0  0  0  0  0  0
    4.0880   -5.6540   28.4030 O   0  0  0  0  0  0  0  0  0  0  0  0
    3.7860   -6.7050   29.2340 C   0  0  0  0  0  0  0  0  0  0  0  0
    4.8560   -6.7330   30.2630 C   0  0  0  0  0  0  0  0  0  0  0  0
    5.9000   -7.4870   29.8050 C   0  0  0  0  0  0  0  0  0  0  0  0
    3.4530   -4.2310   30.4510 C   0  0  0  0  0  0  0  0  0  0  0  0
    3.5610   -2.9490   31.2030 C   0  0  0  0  0  0  0  0  0  0  0  0
    4.4170   -1.8910   30.5790 C   0  0  0  0  0  0  0  0  0  0  0  0
    4.7540   -0.5340   31.0220 C   0  0  0  0  0  0  0  0  0  0  0  0
    5.3050    0.4500   30.8400 C   0  0  0  0  0  0  0  0  0  0  0  0
    6.0140    0.3130   29.5750 C   0  0  0  0  0  0  0  0  0  0  0  0
    5.9430   -0.8710   28.8230 C   0  0  0  0  0  0  0  0  0  0  0  0
    5.1170   -2.1640   29.2400 C   0  0  0  0  0  0  0  0  0  0  0  0
    7.0750   -2.8900   23.5660 C   0  0  0  0  0  0  0  0  0  0  0  0
    7.6900   -3.2250   22.2310 C   0  0  0  0  0  0  0  0  0  0  0  0
  1  2  1  0
  2  3  2  0
  2  4  1  0
  4  5  1  0
  5  6  1  0
  6  7  1  0
  7  8  1  0
  8  9  2  0
  8 10  1  0
 10 11  1  0
 10 12  1  0
 12 13  1  0
 13 14  2  0
 14 15  1  0
 15 16  1  0
 16 17  1  0
 17 18  1  0
 14 19  1  0
 19 20  2  0
 20 21  1  0
 21 22  1  0
 22 23  2  0
 23 24  1  0
 24 25  2  0
 13 26  1  0
 21 26  2  0
 25 26  1  0
  7 27  1  0
  4 28  1  0
 27 28  1  0
M  END
