piperidine-amides-44-covalent
     RDKit          3D

 24 26  0  0  0  0  0  0  0  0999 V2000
    7.0930   -3.3660   19.2320 C   0  0  0  0  0  0  0  0  0  0  0  0
    6.3390   -4.1450   20.1950 C   0  0  0  0  0  0  0  0  0  0  0  0
    5.1820   -4.5160   19.8580 O   0  0  0  0  0  0  0  0  0  0  0  0
    6.8490   -4.5800   21.4320 N   0  0  0  0  0  0  0  0  0  0  0  0
    7.7380   -3.6670   22.1770 C   0  0  0  0  0  0  0  0  0  0  0  0
    6.6600   -3.0980   23.1270 C   0  0  0  0  0  0  0  0  0  0  0  0
    6.2060   -4.3110   23.8930 C   0  0  0  0  0  0  0  0  0  0  0  0
    5.4760   -3.8190   25.1970 C   0  0  0  0  0  0  0  0  0  0  0  0
    4.5370   -4.4920   25.5870 O   0  0  0  0  0  0  0  0  0  0  0  0
    6.1510   -2.8100   25.4140 N   0  0  0  0  0  0  0  0  0  0  0  0
    6.9430   -1.7490   25.4480 C   0  0  0  0  0  0  0  0  0  0  0  0
    7.5230   -0.9840   24.4320 C   0  0  0  0  0  0  0  0  0  0  0  0
    8.8910   -1.3480   24.1550 C   0  0  0  0  0  0  0  0  0  0  0  0
    9.2670   -2.7570   24.4930 C   0  0  0  0  0  0  0  0  0  0  0  0
   10.7790   -3.0380   24.1750 C   0  0  0  0  0  0  0  0  0  0  0  0
   11.5160   -1.9860   23.6510 C   0  0  0  0  0  0  0  0  0  0  0  0
   11.0200   -0.7460   23.3960 C   0  0  0  0  0  0  0  0  0  0  0  0
   12.1090    0.4560   22.7510 Cl  0  0  0  0  0  0  0  0  0  0  0  0
    9.7680   -0.4810   23.6430 N   0  0  0  0  0  0  0  0  0  0  0  0
    6.2430   -0.7650   26.3670 C   0  0  0  0  0  0  0  0  0  0  0  0
    7.1520   -1.4480   27.3700 C   0  0  0  0  0  0  0  0  0  0  0  0
    7.9840   -2.1220   26.5800 C   0  0  0  0  0  0  0  0  0  0  0  0
    5.4670   -5.3230   23.0520 C   0  0  0  0  0  0  0  0  0  0  0  0
    6.3070   -5.7590   22.0710 C   0  0  0  0  0  0  0  0  0  0  0  0
  1  2  1  0
  2  3  2  0
  2  4  1  0
  4  5  1  0
  5  6  1  0
  6  7  1  0
  7  8  1  0
  8  9  2  0
  8 10  1  0
 11 10  1  0
 11 12  1  0
 12 13  1  0
 13 14  2  0
 14 15  1  0
 15 16  2  0
 16 17  1  0
 17 18  1  0
 13 19  1  0
 17 19  2  0
 11 20  1  0
 20 21  1  0
 11 22  1  0
 21 22  1  0
  7 23  1  0
  4 24  1  0
 23 24  1  0
M  END
