piperidine-amides-25717-covalent
     RDKit          3D

 25 28  0  0  0  0  0  0  0  0999 V2000
    7.1030   -3.3190   19.2460 C   0  0  0  0  0  0  0  0  0  0  0  0
    6.4040   -4.1570   20.2480 C   0  0  0  0  0  0  0  0  0  0  0  0
    5.3240   -4.6420   19.9210 O   0  0  0  0  0  0  0  0  0  0  0  0
    7.0080   -4.4260   21.4770 N   0  0  0  0  0  0  0  0  0  0  0  0
    6.6310   -5.5700   22.2430 C   0  0  0  0  0  0  0  0  0  0  0  0
    5.6780   -5.1110   23.3030 C   0  0  0  0  0  0  0  0  0  0  0  0
    6.3240   -3.9990   24.1360 C   0  0  0  0  0  0  0  0  0  0  0  0
    5.3060   -3.5150   25.0750 C   0  0  0  0  0  0  0  0  0  0  0  0
    4.3390   -2.8650   24.6720 O   0  0  0  0  0  0  0  0  0  0  0  0
    5.4620   -3.7910   26.4160 N   0  0  0  0  0  0  0  0  0  0  0  0
    4.7130   -3.0120   27.4060 C   0  0  0  0  0  0  0  0  0  0  0  0
    4.6300   -3.7810   28.7230 C   0  0  0  0  0  0  0  0  0  0  0  0
    5.3410   -4.9060   28.9010 C   0  0  0  0  0  0  0  0  0  0  0  0
    5.3740   -6.1120   29.6240 N   0  0  0  0  0  0  0  0  0  0  0  0
    6.5310   -6.9040   29.2480 C   0  0  0  0  0  0  0  0  0  0  0  0
    7.2190   -6.2040   28.3040 N   0  0  0  0  0  0  0  0  0  0  0  0
    6.5330   -4.9710   28.0460 C   0  0  0  0  0  0  0  0  0  0  0  0
    6.6200   -3.7230   27.1850 C   0  0  0  0  0  0  0  0  0  0  0  0
    7.8050   -4.1290   26.3620 C   0  0  0  0  0  0  0  0  0  0  0  0
    8.4900   -5.0640   27.2790 C   0  0  0  0  0  0  0  0  0  0  0  0
    8.4170   -4.2210   28.5170 C   0  0  0  0  0  0  0  0  0  0  0  0
    8.2000   -2.7410   28.3130 C   0  0  0  0  0  0  0  0  0  0  0  0
    6.8280   -2.4640   27.9600 C   0  0  0  0  0  0  0  0  0  0  0  0
    6.8250   -2.8570   23.2800 C   0  0  0  0  0  0  0  0  0  0  0  0
    7.7060   -3.3790   22.1930 C   0  0  0  0  0  0  0  0  0  0  0  0
  1  2  1  0
  2  3  2  0
  2  4  1  0
  4  5  1  0
  5  6  1  0
  6  7  1  0
  7  8  1  0
  8  9  2  0
  8 10  1  0
 10 11  1  0
 11 12  1  0
 12 13  1  0
 13 14  1  0
 14 15  1  0
 15 16  2  0
 13 17  2  0
 16 17  1  0
 18 10  1  0
 17 18  1  0
 18 19  1  0
 19 20  1  0
 20 21  1  0
 21 22  1  0
 18 23  1  0
 22 23  1  0
  7 24  1  0
  4 25  1  0
 24 25  1  0
M  END
