piperidine-amides-25745-covalent
     RDKit          3D

 25 27  0  0  0  0  0  0  0  0999 V2000
    7.0780   -3.2710   19.3230 C   0  0  0  0  0  0  0  0  0  0  0  0
    6.2880   -4.0430   20.3150 C   0  0  0  0  0  0  0  0  0  0  0  0
    5.2800   -4.6100   19.8990 O   0  0  0  0  0  0  0  0  0  0  0  0
    6.6920   -4.1570   21.6450 N   0  0  0  0  0  0  0  0  0  0  0  0
    6.2930   -5.3050   22.3970 C   0  0  0  0  0  0  0  0  0  0  0  0
    5.4710   -4.8490   23.5900 C   0  0  0  0  0  0  0  0  0  0  0  0
    5.7230   -3.3520   23.8350 C   0  0  0  0  0  0  0  0  0  0  0  0
    5.1090   -2.8370   25.1360 C   0  0  0  0  0  0  0  0  0  0  0  0
    4.2650   -1.9560   25.0220 O   0  0  0  0  0  0  0  0  0  0  0  0
    5.3800   -3.2600   26.4760 N   0  0  0  0  0  0  0  0  0  0  0  0
    4.4910   -2.7750   27.4970 C   0  0  0  0  0  0  0  0  0  0  0  0
    4.6310   -3.7160   28.6540 C   0  0  0  0  0  0  0  0  0  0  0  0
    5.8510   -4.0530   29.0630 C   0  0  0  0  0  0  0  0  0  0  0  0
    6.6860   -4.3310   28.1140 C   0  0  0  0  0  0  0  0  0  0  0  0
    6.6100   -3.6270   26.9500 C   0  0  1  0  0  0  0  0  0  0  0  0
    7.1260   -4.4580   25.9920 C   0  0  0  0  0  0  0  0  0  0  0  0
    6.0890   -4.7350   24.9580 C   0  0  0  0  0  0  0  0  0  0  0  0
    6.5050   -5.6550   23.8620 C   0  0  0  0  0  0  0  0  0  0  0  0
    7.8780   -6.1420   24.0210 C   0  0  0  0  0  0  0  0  0  0  0  0
    8.7760   -5.7580   25.1700 C   0  0  0  0  0  0  0  0  0  0  0  0
    8.4540   -4.8890   26.1740 C   0  0  0  0  0  0  0  0  0  0  0  0
    9.3780   -4.6130   27.1230 O   0  0  0  0  0  0  0  0  0  0  0  0
    9.2540   -5.4160   28.1660 C   0  0  0  0  0  0  0  0  0  0  0  0
    7.1970   -2.9860   23.6370 C   0  0  0  0  0  0  0  0  0  0  0  0
    7.5580   -3.1700   22.3000 C   0  0  0  0  0  0  0  0  0  0  0  0
  1  2  1  0
  2  3  2  0
  2  4  1  0
  4  5  1  0
  5  6  1  0
  6  7  1  0
  7  8  1  0
  8  9  2  0
  8 10  1  0
 10 11  1  0
 11 12  1  0
 12 13  1  0
 13 14  1  0
 10 15  1  0
 14 15  1  0
 15 16  1  6
 16 17  2  0
 17 18  1  0
 18 19  2  0
 19 20  1  0
 16 21  1  0
 20 21  2  0
 21 22  1  0
 22 23  1  0
  7 24  1  0
  4 25  1  0
 24 25  1  0
M  END
