piperidine-amides-28065-covalent
     RDKit          3D

 25 27  0  0  0  0  0  0  0  0999 V2000
    7.1030   -3.3230   19.2040 C   0  0  0  0  0  0  0  0  0  0  0  0
    6.4010   -4.1040   20.2460 C   0  0  0  0  0  0  0  0  0  0  0  0
    5.3230   -4.6330   19.9170 O   0  0  0  0  0  0  0  0  0  0  0  0
    6.9720   -4.2740   21.5140 N   0  0  0  0  0  0  0  0  0  0  0  0
    6.5670   -5.3580   22.3390 C   0  0  0  0  0  0  0  0  0  0  0  0
    6.0630   -4.9480   23.6560 C   0  0  0  0  0  0  0  0  0  0  0  0
    6.6300   -3.6890   24.2080 C   0  0  0  0  0  0  0  0  0  0  0  0
    5.7290   -3.1510   25.2440 C   0  0  0  0  0  0  0  0  0  0  0  0
    4.6240   -2.7100   24.8810 O   0  0  0  0  0  0  0  0  0  0  0  0
    6.0860   -3.1400   26.5960 N   0  0  0  0  0  0  0  0  0  0  0  0
    6.2640   -1.8330   27.2910 C   0  0  0  0  0  0  0  0  0  0  0  0
    5.6750   -0.6300   26.6520 C   0  0  0  0  0  0  0  0  0  0  0  0
    5.8630    0.6170   27.3620 C   0  0  0  0  0  0  0  0  0  0  0  0
    6.5560    0.6290   28.5510 C   0  0  0  0  0  0  0  0  0  0  0  0
    7.1070   -0.5080   29.1360 C   0  0  0  0  0  0  0  0  0  0  0  0
    7.7270   -0.2710   30.2590 O   0  0  0  0  0  0  0  0  0  0  0  0
    6.9830   -1.7390   28.5450 C   0  0  0  0  0  0  0  0  0  0  0  0
    5.8630   -4.3880   27.3220 C   0  0  0  0  0  0  0  0  0  0  0  0
    5.1470   -5.3600   26.7990 N   0  0  0  0  0  0  0  0  0  0  0  0
    5.1200   -6.4910   27.7750 C   0  0  0  0  0  0  0  0  0  0  0  0
    5.8060   -6.3520   29.0010 C   0  0  0  0  0  0  0  0  0  0  0  0
    5.8480   -7.4030   30.0470 C   0  0  0  0  0  0  0  0  0  0  0  0
    6.4990   -4.7360   28.8940 S   0  0  0  0  0  0  0  0  0  0  0  0
    6.9190   -2.6300   23.2190 C   0  0  0  0  0  0  0  0  0  0  0  0
    7.7380   -3.2160   22.1270 C   0  0  0  0  0  0  0  0  0  0  0  0
  1  2  1  0
  2  3  2  0
  2  4  1  0
  4  5  1  0
  5  6  1  0
  6  7  1  0
  7  8  1  0
  8  9  2  0
  8 10  1  0
 10 11  1  0
 11 12  2  0
 12 13  1  0
 13 14  2  0
 14 15  1  0
 15 16  1  0
 11 17  1  0
 15 17  2  0
 10 18  1  0
 18 19  2  0
 19 20  1  0
 20 21  2  0
 21 22  1  0
 18 23  1  0
 21 23  1  0
  7 24  1  0
  4 25  1  0
 24 25  1  0
M  END
