piperidine-amides-3385-covalent
     RDKit          3D

 21 23  0  0  0  0  0  0  0  0999 V2000
    7.1170   -3.3370   19.2680 C   0  0  0  0  0  0  0  0  0  0  0  0
    6.3460   -4.0920   20.2420 C   0  0  0  0  0  0  0  0  0  0  0  0
    5.2850   -4.6220   19.9140 O   0  0  0  0  0  0  0  0  0  0  0  0
    6.8650   -4.2770   21.5590 N   0  0  0  0  0  0  0  0  0  0  0  0
    6.4500   -5.4160   22.3290 C   0  0  0  0  0  0  0  0  0  0  0  0
    5.6620   -4.9450   23.5200 C   0  0  0  0  0  0  0  0  0  0  0  0
    6.5000   -3.9190   24.2670 C   0  0  0  0  0  0  0  0  0  0  0  0
    5.7510   -3.3610   25.4230 C   0  0  0  0  0  0  0  0  0  0  0  0
    4.4990   -3.3850   25.5290 O   0  0  0  0  0  0  0  0  0  0  0  0
    6.5250   -2.7640   26.4390 N   0  0  0  0  0  0  0  0  0  0  0  0
    6.0160   -1.6250   27.1620 C   0  0  1  0  0  0  0  0  0  0  0  0
    6.9030   -1.5160   28.3780 C   0  0  0  0  0  0  0  0  0  0  0  0
    6.6490   -0.4770   29.2460 C   0  0  0  0  0  0  0  0  0  0  0  0
    6.3120    0.7830   28.7260 C   0  0  0  0  0  0  0  0  0  0  0  0
    5.9540    0.8210   27.3940 C   0  0  0  0  0  0  0  0  0  0  0  0
    5.6660    1.9600   26.5280 C   0  0  0  0  0  0  0  0  0  0  0  0
    5.3600    1.4930   25.2980 C   0  0  0  0  0  0  0  0  0  0  0  0
    5.4540    0.2120   25.4150 O   0  0  0  0  0  0  0  0  0  0  0  0
    5.8210   -0.3660   26.6700 C   0  0  0  0  0  0  0  0  0  0  0  0
    7.1420   -2.8460   23.4700 C   0  0  0  0  0  0  0  0  0  0  0  0
    7.6050   -3.2200   22.1460 C   0  0  0  0  0  0  0  0  0  0  0  0
  1  2  1  0
  2  3  2  0
  2  4  1  0
  4  5  1  0
  5  6  1  0
  6  7  1  0
  7  8  1  0
  8  9  2  0
  8 10  1  0
 11 10  1  6
 11 12  1  0
 12 13  1  0
 13 14  1  0
 14 15  1  0
 15 16  1  0
 16 17  2  0
 17 18  1  0
 11 19  1  0
 15 19  2  0
 18 19  1  0
  7 20  1  0
  4 21  1  0
 20 21  1  0
M  END
