piperidine-amides-14404-covalent
     RDKit          3D

 23 25  0  0  0  0  0  0  0  0999 V2000
    7.0230   -3.3450   19.3520 C   0  0  0  0  0  0  0  0  0  0  0  0
    6.3690   -4.1900   20.3550 C   0  0  0  0  0  0  0  0  0  0  0  0
    5.3980   -4.8760   19.9860 O   0  0  0  0  0  0  0  0  0  0  0  0
    6.8520   -4.2500   21.6920 N   0  0  0  0  0  0  0  0  0  0  0  0
    7.7260   -3.2100   22.1850 C   0  0  0  0  0  0  0  0  0  0  0  0
    7.4080   -2.8900   23.6120 C   0  0  0  0  0  0  0  0  0  0  0  0
    6.0870   -3.5530   23.8870 C   0  0  0  0  0  0  0  0  0  0  0  0
    5.6390   -3.2560   25.2870 C   0  0  0  0  0  0  0  0  0  0  0  0
    4.4440   -3.4070   25.5240 O   0  0  0  0  0  0  0  0  0  0  0  0
    6.5980   -2.8350   26.1950 N   0  0  0  0  0  0  0  0  0  0  0  0
    6.4730   -1.6260   26.9430 C   0  0  0  0  0  0  0  0  0  0  0  0
    5.9250   -0.3720   26.5510 C   0  0  0  0  0  0  0  0  0  0  0  0
    5.8600    0.7560   27.3830 C   0  0  0  0  0  0  0  0  0  0  0  0
    5.3110    1.9140   26.9150 F   0  0  0  0  0  0  0  0  0  0  0  0
    6.3410    0.7460   28.6910 C   0  0  0  0  0  0  0  0  0  0  0  0
    6.3350    1.8030   29.6140 N   0  0  0  0  0  0  0  0  0  0  0  0
    6.9240    1.4500   30.9150 C   0  0  0  0  0  0  0  0  0  0  0  0
    6.9750    2.5350   32.0150 C   0  0  0  0  0  0  0  0  0  0  0  0
    7.4300   -0.2190   30.8200 S   0  0  0  0  0  0  0  0  0  0  0  0
    6.8830   -0.4200   29.1430 C   0  0  0  0  0  0  0  0  0  0  0  0
    6.9970   -1.6550   28.3600 C   0  0  0  0  0  0  0  0  0  0  0  0
    6.0510   -5.0090   23.6850 C   0  0  0  0  0  0  0  0  0  0  0  0
    6.6670   -5.4240   22.5220 C   0  0  0  0  0  0  0  0  0  0  0  0
  1  2  1  0
  2  3  2  0
  2  4  1  0
  4  5  1  0
  5  6  1  0
  6  7  1  0
  7  8  1  0
  8  9  2  0
  8 10  1  0
 10 11  1  0
 11 12  2  0
 12 13  1  0
 13 14  1  0
 13 15  2  0
 15 16  1  0
 16 17  2  0
 17 18  1  0
 17 19  1  0
 15 20  1  0
 19 20  1  0
 11 21  1  0
 20 21  2  0
  7 22  1  0
  4 23  1  0
 22 23  1  0
M  END
