piperidine-amides-24855-covalent
     RDKit          3D

 24 25  0  0  0  0  0  0  0  0999 V2000
    7.0560   -3.3270   19.3710 C   0  0  0  0  0  0  0  0  0  0  0  0
    6.3890   -4.2140   20.3370 C   0  0  0  0  0  0  0  0  0  0  0  0
    5.3870   -4.8750   19.9860 O   0  0  0  0  0  0  0  0  0  0  0  0
    6.8930   -4.3660   21.6430 N   0  0  0  0  0  0  0  0  0  0  0  0
    6.6270   -5.6110   22.3400 C   0  0  0  0  0  0  0  0  0  0  0  0
    6.3870   -5.3000   23.8330 C   0  0  0  0  0  0  0  0  0  0  0  0
    6.1940   -3.8060   23.9470 C   0  0  0  0  0  0  0  0  0  0  0  0
    5.7360   -3.3700   25.2910 C   0  0  0  0  0  0  0  0  0  0  0  0
    4.8080   -2.5320   25.3070 O   0  0  0  0  0  0  0  0  0  0  0  0
    6.2730   -3.8650   26.5110 N   0  0  0  0  0  0  0  0  0  0  0  0
    7.7090   -3.9140   26.7730 C   0  0  0  0  0  0  0  0  0  0  0  0
    7.8280   -4.8090   27.9530 C   0  0  0  0  0  0  0  0  0  0  0  0
    6.6240   -4.8320   28.5210 C   0  0  0  0  0  0  0  0  0  0  0  0
    5.8410   -3.8710   27.9310 C   0  0  2  0  0  0  0  0  0  0  0  0
    4.4810   -4.1670   27.7420 C   0  0  0  0  0  0  0  0  0  0  0  0
    4.1850   -5.5050   27.9290 C   0  0  0  0  0  0  0  0  0  0  0  0
    4.6600   -6.5510   26.9340 C   0  0  0  0  0  0  0  0  0  0  0  0
    6.1010   -2.6080   28.4080 C   0  0  0  0  0  0  0  0  0  0  0  0
    6.7520   -1.7320   27.7810 O   0  0  0  0  0  0  0  0  0  0  0  0
    5.6550   -2.3010   29.5710 O   0  0  0  0  0  0  0  0  0  0  0  0
    5.8970   -1.0060   30.0870 C   0  0  0  0  0  0  0  0  0  0  0  0
    7.3420   -0.7650   30.1660 C   0  0  0  0  0  0  0  0  0  0  0  0
    7.4630   -3.1300   23.5490 C   0  0  0  0  0  0  0  0  0  0  0  0
    7.6670   -3.3010   22.2160 C   0  0  0  0  0  0  0  0  0  0  0  0
  1  2  1  0
  2  3  2  0
  2  4  1  0
  4  5  1  0
  5  6  1  0
  6  7  1  0
  7  8  1  0
  8  9  2  0
  8 10  1  0
 10 11  1  0
 11 12  1  0
 12 13  1  0
 10 14  1  0
 13 14  1  0
 14 15  1  6
 15 16  1  0
 16 17  1  0
 14 18  1  0
 18 19  2  0
 18 20  1  0
 20 21  1  0
 21 22  1  0
  7 23  1  0
  4 24  1  0
 23 24  1  0
M  END
