piperidine-amides-3571-covalent
     RDKit          3D

 19 20  0  0  0  0  0  0  0  0999 V2000
    7.1710   -3.2790   19.1520 C   0  0  0  0  0  0  0  0  0  0  0  0
    6.3840   -3.9700   20.1830 C   0  0  0  0  0  0  0  0  0  0  0  0
    5.2730   -4.4420   19.8460 O   0  0  0  0  0  0  0  0  0  0  0  0
    6.8980   -4.1540   21.4840 N   0  0  0  0  0  0  0  0  0  0  0  0
    7.5140   -3.0170   22.0730 C   0  0  0  0  0  0  0  0  0  0  0  0
    6.8900   -2.5770   23.3050 C   0  0  0  0  0  0  0  0  0  0  0  0
    6.5270   -3.6590   24.2370 C   0  0  0  0  0  0  0  0  0  0  0  0
    5.8240   -3.1270   25.4440 C   0  0  0  0  0  0  0  0  0  0  0  0
    4.7360   -2.5350   25.3030 O   0  0  0  0  0  0  0  0  0  0  0  0
    6.3460   -3.2920   26.7420 N   0  0  0  0  0  0  0  0  0  0  0  0
    6.0280   -4.3000   27.6780 C   0  0  0  0  0  0  0  0  0  0  0  0
    5.0380   -5.3260   27.3560 C   0  0  0  0  0  0  0  0  0  0  0  0
    4.1960   -5.4350   26.3100 N   0  0  0  0  0  0  0  0  0  0  0  0
    3.4610   -6.5300   26.4100 N   0  0  0  0  0  0  0  0  0  0  0  0
    3.7640   -7.2220   27.5260 C   0  0  0  0  0  0  0  0  0  0  0  0
    4.7540   -6.5100   28.1630 C   0  0  0  0  0  0  0  0  0  0  0  0
    5.5840   -7.0170   29.8160 Br  0  0  0  0  0  0  0  0  0  0  0  0
    5.7350   -4.7260   23.5260 C   0  0  0  0  0  0  0  0  0  0  0  0
    6.3820   -5.2170   22.2820 C   0  0  0  0  0  0  0  0  0  0  0  0
  1  2  1  0
  2  3  2  0
  2  4  1  0
  4  5  1  0
  5  6  1  0
  6  7  1  0
  7  8  1  0
  8  9  2  0
  8 10  1  0
 10 11  1  0
 11 12  1  0
 12 13  1  0
 13 14  1  0
 14 15  2  0
 12 16  2  0
 15 16  1  0
 16 17  1  0
  7 18  1  0
  4 19  1  0
 18 19  1  0
M  END
