piperidine-amides-30479-covalent
     RDKit          3D

 27 28  0  0  0  0  0  0  0  0999 V2000
    7.0880   -3.3570   19.3080 C   0  0  0  0  0  0  0  0  0  0  0  0
    6.4340   -4.2080   20.2990 C   0  0  0  0  0  0  0  0  0  0  0  0
    5.3950   -4.8160   19.9810 O   0  0  0  0  0  0  0  0  0  0  0  0
    6.9930   -4.4010   21.5790 N   0  0  0  0  0  0  0  0  0  0  0  0
    7.7640   -3.3780   22.2320 C   0  0  0  0  0  0  0  0  0  0  0  0
    6.8580   -2.8520   23.3120 C   0  0  0  0  0  0  0  0  0  0  0  0
    6.3360   -3.9170   24.2410 C   0  0  0  0  0  0  0  0  0  0  0  0
    5.3940   -3.3250   25.2250 C   0  0  0  0  0  0  0  0  0  0  0  0
    4.5290   -2.4980   24.8280 O   0  0  0  0  0  0  0  0  0  0  0  0
    5.3730   -3.6180   26.6010 N   0  0  0  0  0  0  0  0  0  0  0  0
    6.4530   -3.2100   27.4450 C   0  0  0  0  0  0  0  0  0  0  0  0
    6.6390   -4.3580   28.3680 C   0  0  0  0  0  0  0  0  0  0  0  0
    5.4330   -4.6360   29.1200 C   0  0  0  0  0  0  0  0  0  0  0  0
    5.6650   -5.7830   30.0650 C   0  0  0  0  0  0  0  0  0  0  0  0
    6.1480   -6.9790   29.4590 N   0  0  0  0  0  0  0  0  0  0  0  0
    5.0090   -3.6190   29.8660 N   0  0  0  0  0  0  0  0  0  0  0  0
    3.8400   -3.6480   30.5250 C   0  0  0  0  0  0  0  0  0  0  0  0
    3.2320   -4.8890   30.8210 O   0  0  0  0  0  0  0  0  0  0  0  0
    3.2480   -2.5770   30.9120 O   0  0  0  0  0  0  0  0  0  0  0  0
    2.9200   -2.4360   32.2620 C   0  0  0  0  0  0  0  0  0  0  0  0
    3.4460   -1.8120   33.3670 C   0  0  0  0  0  0  0  0  0  0  0  0
    3.3090   -3.4030   33.3630 C   0  0  0  0  0  0  0  0  0  0  0  0
    1.5280   -1.9000   32.5830 C   0  0  0  0  0  0  0  0  0  0  0  0
    4.3710   -4.8950   28.3070 C   0  0  0  0  0  0  0  0  0  0  0  0
    4.1150   -3.8710   27.2340 C   0  0  0  0  0  0  0  0  0  0  0  0
    5.7140   -5.0690   23.4970 C   0  0  0  0  0  0  0  0  0  0  0  0
    6.5120   -5.5010   22.3260 C   0  0  0  0  0  0  0  0  0  0  0  0
  1  2  1  0
  2  3  2  0
  2  4  1  0
  4  5  1  0
  5  6  1  0
  6  7  1  0
  7  8  1  0
  8  9  2  0
  8 10  1  0
 10 11  1  0
 11 12  1  0
 12 13  1  0
 13 14  1  0
 14 15  3  0
 13 16  1  0
 16 17  1  0
 17 18  2  0
 17 19  1  0
 20 19  1  0
 20 21  1  0
 20 22  1  0
 20 23  1  0
 13 24  1  0
 10 25  1  0
 24 25  1  0
  7 26  1  0
  4 27  1  0
 26 27  1  0
M  END
