piperidine-amides-33168-covalent
     RDKit          3D

 30 33  0  0  0  0  0  0  0  0999 V2000
    7.0800   -3.3610   19.3760 C   0  0  0  0  0  0  0  0  0  0  0  0
    6.4480   -4.2440   20.3690 C   0  0  0  0  0  0  0  0  0  0  0  0
    5.4090   -4.8490   19.9930 O   0  0  0  0  0  0  0  0  0  0  0  0
    7.0200   -4.4440   21.6570 N   0  0  0  0  0  0  0  0  0  0  0  0
    6.5240   -5.5040   22.4500 C   0  0  0  0  0  0  0  0  0  0  0  0
    5.9520   -5.0900   23.7380 C   0  0  0  0  0  0  0  0  0  0  0  0
    6.3920   -3.7940   24.3420 C   0  0  0  0  0  0  0  0  0  0  0  0
    5.3220   -3.2270   25.2440 C   0  0  0  0  0  0  0  0  0  0  0  0
    4.3350   -2.7120   24.7060 O   0  0  0  0  0  0  0  0  0  0  0  0
    5.3640   -3.2450   26.6650 N   0  0  0  0  0  0  0  0  0  0  0  0
    6.4520   -3.3650   27.4740 C   0  0  0  0  0  0  0  0  0  0  0  0
    6.5880   -4.5650   28.3300 C   0  0  0  0  0  0  0  0  0  0  0  0
    5.2690   -4.6260   29.1000 C   0  0  0  0  0  0  0  0  0  0  0  0
    5.2920   -3.3870   29.7030 O   0  0  0  0  0  0  0  0  0  0  0  0
    5.1080   -5.5660   30.0930 C   0  0  0  0  0  0  0  0  0  0  0  0
    6.1680   -6.6310   29.8770 C   0  0  0  0  0  0  0  0  0  0  0  0
    6.0630   -7.7090   30.9580 C   0  0  0  0  0  0  0  0  0  0  0  0
    4.9320   -7.5040   32.0200 C   0  0  0  0  0  0  0  0  0  0  0  0
    4.7380   -8.5000   33.1450 C   0  0  0  0  0  0  0  0  0  0  0  0
    3.3140   -8.5900   33.6220 C   0  0  0  0  0  0  0  0  0  0  0  0
    2.9090   -9.5300   34.7480 C   0  0  0  0  0  0  0  0  0  0  0  0
    4.0510  -10.3160   35.2930 C   0  0  0  0  0  0  0  0  0  0  0  0
    5.3630  -10.1840   34.8000 C   0  0  0  0  0  0  0  0  0  0  0  0
    5.6890   -9.3100   33.7660 C   0  0  0  0  0  0  0  0  0  0  0  0
    4.0720   -6.4360   31.9970 C   0  0  0  0  0  0  0  0  0  0  0  0
    4.1640   -5.4880   31.0460 C   0  0  0  0  0  0  0  0  0  0  0  0
    4.1400   -4.5560   28.3300 C   0  0  0  0  0  0  0  0  0  0  0  0
    4.1800   -3.3520   27.4120 C   0  0  0  0  0  0  0  0  0  0  0  0
    6.6910   -2.7330   23.2730 C   0  0  0  0  0  0  0  0  0  0  0  0
    7.6910   -3.3250   22.2800 C   0  0  0  0  0  0  0  0  0  0  0  0
  1  2  1  0
  2  3  2  0
  2  4  1  0
  4  5  1  0
  5  6  1  0
  6  7  1  0
  7  8  1  0
  8  9  2  0
  8 10  1  0
 10 11  1  0
 11 12  1  0
 12 13  1  0
 13 14  1  0
 13 15  1  0
 15 16  2  0
 16 17  1  0
 17 18  2  0
 18 19  1  0
 19 20  2  0
 20 21  1  0
 21 22  2  0
 22 23  1  0
 19 24  1  0
 23 24  2  0
 18 25  1  0
 15 26  1  0
 25 26  2  0
 13 27  1  0
 10 28  1  0
 27 28  1  0
  7 29  1  0
  4 30  1  0
 29 30  1  0
M  END
