piperidine-amides-27128-covalent
     RDKit          3D

 25 26  0  0  0  0  0  0  0  0999 V2000
    6.9860   -3.3850   19.4380 C   0  0  0  0  0  0  0  0  0  0  0  0
    6.3740   -4.2770   20.4350 C   0  0  0  0  0  0  0  0  0  0  0  0
    5.4100   -4.9720   20.0080 O   0  0  0  0  0  0  0  0  0  0  0  0
    6.8620   -4.3630   21.7560 N   0  0  0  0  0  0  0  0  0  0  0  0
    6.7190   -5.5970   22.5170 C   0  0  0  0  0  0  0  0  0  0  0  0
    6.2000   -5.2690   23.8980 C   0  0  0  0  0  0  0  0  0  0  0  0
    6.1160   -3.7860   24.0590 C   0  0  0  0  0  0  0  0  0  0  0  0
    5.6520   -3.2810   25.3960 C   0  0  0  0  0  0  0  0  0  0  0  0
    5.0950   -2.1690   25.3610 O   0  0  0  0  0  0  0  0  0  0  0  0
    5.7010   -3.8800   26.6920 N   0  0  0  0  0  0  0  0  0  0  0  0
    4.5700   -3.5890   27.5550 C   0  0  0  0  0  0  0  0  0  0  0  0
    4.2660   -4.6070   28.6790 C   0  0  0  0  0  0  0  0  0  0  0  0
    5.4620   -5.3450   29.1060 N   0  0  0  0  0  0  0  0  0  0  0  0
    5.3540   -6.5480   29.6460 C   0  0  0  0  0  0  0  0  0  0  0  0
    4.3680   -6.7730   30.5890 C   0  0  0  0  0  0  0  0  0  0  0  0
    3.3370   -7.3120   29.9830 O   0  0  0  0  0  0  0  0  0  0  0  0
    4.4830   -6.4620   31.8950 N   0  0  0  0  0  0  0  0  0  0  0  0
    4.3770   -7.6420   32.6770 C   0  0  0  0  0  0  0  0  0  0  0  0
    5.6130   -8.1230   33.0700 C   0  0  0  0  0  0  0  0  0  0  0  0
    5.6990   -9.2140   33.9070 C   0  0  0  0  0  0  0  0  0  0  0  0
    6.5850   -9.0950   35.1220 C   0  0  0  0  0  0  0  0  0  0  0  0
    6.6540   -5.0110   28.4930 C   0  0  0  0  0  0  0  0  0  0  0  0
    6.3890   -3.6420   27.9180 C   0  0  0  0  0  0  0  0  0  0  0  0
    7.4230   -3.1480   23.6840 C   0  0  0  0  0  0  0  0  0  0  0  0
    7.7140   -3.3000   22.3390 C   0  0  0  0  0  0  0  0  0  0  0  0
  1  2  1  0
  2  3  2  0
  2  4  1  0
  4  5  1  0
  5  6  1  0
  6  7  1  0
  7  8  1  0
  8  9  2  0
  8 10  1  0
 10 11  1  0
 11 12  1  0
 12 13  1  0
 13 14  1  0
 14 15  1  0
 15 16  2  0
 15 17  1  0
 17 18  1  0
 18 19  1  0
 19 20  1  0
 20 21  1  0
 13 22  1  0
 10 23  1  0
 22 23  1  0
  7 24  1  0
  4 25  1  0
 24 25  1  0
M  END
