piperidine-amides-25027-covalent
     RDKit          3D

 24 25  0  0  0  0  0  0  0  0999 V2000
    7.1150   -3.3250   19.2360 C   0  0  0  0  0  0  0  0  0  0  0  0
    6.3660   -4.1030   20.2480 C   0  0  0  0  0  0  0  0  0  0  0  0
    5.2990   -4.6030   19.9030 O   0  0  0  0  0  0  0  0  0  0  0  0
    6.9180   -4.2850   21.5130 N   0  0  0  0  0  0  0  0  0  0  0  0
    6.6610   -5.4590   22.3020 C   0  0  0  0  0  0  0  0  0  0  0  0
    5.8790   -5.0500   23.5170 C   0  0  0  0  0  0  0  0  0  0  0  0
    6.5760   -3.8750   24.2060 C   0  0  0  0  0  0  0  0  0  0  0  0
    5.6340   -3.3490   25.2100 C   0  0  0  0  0  0  0  0  0  0  0  0
    4.7800   -2.5330   24.8520 O   0  0  0  0  0  0  0  0  0  0  0  0
    5.6550   -3.7550   26.5440 N   0  0  0  0  0  0  0  0  0  0  0  0
    4.4360   -4.4020   26.9690 C   0  0  0  0  0  0  0  0  0  0  0  0
    4.6860   -5.0880   28.2890 C   0  0  0  0  0  0  0  0  0  0  0  0
    5.6180   -4.6030   29.1040 C   0  0  0  0  0  0  0  0  0  0  0  0
    6.6270   -4.1660   28.4170 C   0  0  0  0  0  0  0  0  0  0  0  0
    6.2730   -3.1170   27.6160 C   0  0  2  0  0  0  0  0  0  0  0  0
    5.4140   -1.9650   28.1140 C   0  0  0  0  0  0  0  0  0  0  0  0
    6.5080   -1.3020   28.8930 C   0  0  0  0  0  0  0  0  0  0  0  0
    5.8200   -0.1240   29.4210 N   0  0  0  0  0  0  0  0  0  0  0  0
    6.2550    0.9990   28.6330 C   0  0  0  0  0  0  0  0  0  0  0  0
    6.0320    0.1580   30.8350 C   0  0  0  0  0  0  0  0  0  0  0  0
    7.4090    0.3380   31.3820 C   0  0  0  0  0  0  0  0  0  0  0  0
    7.4040    0.6740   32.6160 O   0  0  0  0  0  0  0  0  0  0  0  0
    7.1200   -2.8090   23.3510 C   0  0  0  0  0  0  0  0  0  0  0  0
    7.7520   -3.2590   22.1000 C   0  0  0  0  0  0  0  0  0  0  0  0
  1  2  1  0
  2  3  2  0
  2  4  1  0
  4  5  1  0
  5  6  1  0
  6  7  1  0
  7  8  1  0
  8  9  2  0
  8 10  1  0
 10 11  1  0
 11 12  1  0
 12 13  1  0
 13 14  1  0
 10 15  1  0
 14 15  1  0
 15 16  1  1
 16 17  1  0
 17 18  1  0
 18 19  1  0
 18 20  1  0
 20 21  1  0
 21 22  1  0
  7 23  1  0
  4 24  1  0
 23 24  1  0
M  END
