piperidine-amides-12396-covalent
     RDKit          3D

 24 25  0  0  0  0  0  0  0  0999 V2000
    7.0440   -3.3310   19.3760 C   0  0  0  0  0  0  0  0  0  0  0  0
    6.3550   -4.1790   20.3420 C   0  0  0  0  0  0  0  0  0  0  0  0
    5.3900   -4.8520   19.9830 O   0  0  0  0  0  0  0  0  0  0  0  0
    6.8250   -4.2660   21.7000 N   0  0  0  0  0  0  0  0  0  0  0  0
    7.7140   -3.2520   22.2250 C   0  0  0  0  0  0  0  0  0  0  0  0
    7.3870   -2.9530   23.6580 C   0  0  0  0  0  0  0  0  0  0  0  0
    6.0070   -3.5280   23.9050 C   0  0  0  0  0  0  0  0  0  0  0  0
    5.4890   -3.1460   25.2460 C   0  0  0  0  0  0  0  0  0  0  0  0
    4.2710   -3.0590   25.4810 O   0  0  0  0  0  0  0  0  0  0  0  0
    6.4050   -2.8770   26.2760 N   0  0  0  0  0  0  0  0  0  0  0  0
    6.2980   -1.6690   27.0680 C   0  0  0  0  0  0  0  0  0  0  0  0
    6.3660   -0.4150   26.2520 C   0  0  0  0  0  0  0  0  0  0  0  0
    6.2910    0.8250   26.8650 C   0  0  0  0  0  0  0  0  0  0  0  0
    6.1630    0.8880   28.2510 C   0  0  0  0  0  0  0  0  0  0  0  0
    6.0970    2.0800   28.9350 C   0  0  0  0  0  0  0  0  0  0  0  0
    6.2540    3.2720   28.1120 C   0  0  0  0  0  0  0  0  0  0  0  0
    4.8830    2.3810   29.4970 C   0  0  0  0  0  0  0  0  0  0  0  0
    6.0950   -0.2790   28.9420 C   0  0  0  0  0  0  0  0  0  0  0  0
    6.1470   -1.5530   28.4040 C   0  0  0  0  0  0  0  0  0  0  0  0
    6.0180   -2.6550   29.3380 C   0  0  0  0  0  0  0  0  0  0  0  0
    4.7570   -2.8720   29.8630 C   0  0  0  0  0  0  0  0  0  0  0  0
    6.4450   -3.9740   28.7960 C   0  0  0  0  0  0  0  0  0  0  0  0
    6.0330   -5.0370   23.7980 C   0  0  0  0  0  0  0  0  0  0  0  0
    6.6540   -5.4740   22.4630 C   0  0  0  0  0  0  0  0  0  0  0  0
  1  2  1  0
  2  3  2  0
  2  4  1  0
  4  5  1  0
  5  6  1  0
  6  7  1  0
  7  8  1  0
  8  9  2  0
  8 10  1  0
 10 11  1  0
 11 12  2  0
 12 13  1  0
 13 14  2  0
 14 15  1  0
 15 16  1  0
 15 17  1  0
 14 18  1  0
 11 19  1  0
 18 19  2  0
 19 20  1  0
 20 21  1  0
 20 22  1  0
  7 23  1  0
  4 24  1  0
 23 24  1  0
M  END
