piperidine-amides-27898-covalent
     RDKit          3D

 26 28  0  0  0  0  0  0  0  0999 V2000
    7.0460   -3.3580   19.3660 C   0  0  0  0  0  0  0  0  0  0  0  0
    6.4080   -4.2320   20.3710 C   0  0  0  0  0  0  0  0  0  0  0  0
    5.4040   -4.8710   19.9880 O   0  0  0  0  0  0  0  0  0  0  0  0
    6.9420   -4.3610   21.6670 N   0  0  0  0  0  0  0  0  0  0  0  0
    6.5660   -5.4530   22.4910 C   0  0  0  0  0  0  0  0  0  0  0  0
    5.9980   -5.0750   23.8020 C   0  0  0  0  0  0  0  0  0  0  0  0
    6.3790   -3.7460   24.3710 C   0  0  0  0  0  0  0  0  0  0  0  0
    5.3150   -3.2380   25.3050 C   0  0  0  0  0  0  0  0  0  0  0  0
    4.3170   -2.7370   24.7720 O   0  0  0  0  0  0  0  0  0  0  0  0
    5.3830   -3.2990   26.7280 N   0  0  0  0  0  0  0  0  0  0  0  0
    4.2530   -2.9410   27.5910 C   0  0  0  0  0  0  0  0  0  0  0  0
    4.3350   -3.7770   28.8080 C   0  0  0  0  0  0  0  0  0  0  0  0
    5.1910   -4.8780   28.7670 N   0  0  0  0  0  0  0  0  0  0  0  0
    5.2070   -5.8100   29.8500 C   0  0  0  0  0  0  0  0  0  0  0  0
    4.2500   -5.5890   30.8110 C   0  0  0  0  0  0  0  0  0  0  0  0
    4.1570   -6.4160   31.9260 C   0  0  0  0  0  0  0  0  0  0  0  0
    5.0360   -7.4590   32.0510 C   0  0  0  0  0  0  0  0  0  0  0  0
    4.9660   -8.2840   33.1410 C   0  0  0  0  0  0  0  0  0  0  0  0
    3.7470   -8.2810   33.7100 N   0  0  0  0  0  0  0  0  0  0  0  0
    5.9550   -8.9340   33.5110 O   0  0  0  0  0  0  0  0  0  0  0  0
    6.0000   -7.6920   31.0840 C   0  0  0  0  0  0  0  0  0  0  0  0
    6.0620   -6.8490   29.9890 C   0  0  0  0  0  0  0  0  0  0  0  0
    6.5180   -4.8470   28.1510 C   0  0  0  0  0  0  0  0  0  0  0  0
    6.5150   -3.4810   27.4600 C   0  0  0  0  0  0  0  0  0  0  0  0
    6.7460   -2.7420   23.2700 C   0  0  0  0  0  0  0  0  0  0  0  0
    7.6430   -3.2870   22.3290 C   0  0  0  0  0  0  0  0  0  0  0  0
  1  2  1  0
  2  3  2  0
  2  4  1  0
  4  5  1  0
  5  6  1  0
  6  7  1  0
  7  8  1  0
  8  9  2  0
  8 10  1  0
 10 11  1  0
 11 12  1  0
 12 13  1  0
 13 14  1  0
 14 15  2  0
 15 16  1  0
 16 17  2  0
 17 18  1  0
 18 19  1  0
 18 20  2  0
 17 21  1  0
 14 22  1  0
 21 22  2  0
 13 23  1  0
 10 24  1  0
 23 24  1  0
  7 25  1  0
  4 26  1  0
 25 26  1  0
M  END
