piperidine-amides-14808-covalent
     RDKit          3D

 22 23  0  0  0  0  0  0  0  0999 V2000
    7.1720   -3.2620   19.1720 C   0  0  0  0  0  0  0  0  0  0  0  0
    6.4270   -4.0040   20.1850 C   0  0  0  0  0  0  0  0  0  0  0  0
    5.3280   -4.4940   19.8740 O   0  0  0  0  0  0  0  0  0  0  0  0
    6.9990   -4.2020   21.4630 N   0  0  0  0  0  0  0  0  0  0  0  0
    6.4020   -5.1890   22.2980 C   0  0  0  0  0  0  0  0  0  0  0  0
    5.4730   -4.4890   23.2490 C   0  0  0  0  0  0  0  0  0  0  0  0
    6.2830   -3.5230   24.1100 C   0  0  0  0  0  0  0  0  0  0  0  0
    5.3770   -2.8380   25.0630 C   0  0  0  0  0  0  0  0  0  0  0  0
    4.5800   -2.0360   24.5960 O   0  0  0  0  0  0  0  0  0  0  0  0
    5.4850   -3.1640   26.3880 N   0  0  0  0  0  0  0  0  0  0  0  0
    5.0510   -4.4350   26.8190 C   0  0  0  0  0  0  0  0  0  0  0  0
    6.0700   -5.1940   27.3140 C   0  0  0  0  0  0  0  0  0  0  0  0
    5.9260   -5.6750   28.5830 C   0  0  0  0  0  0  0  0  0  0  0  0
    4.7590   -5.3310   29.2110 O   0  0  0  0  0  0  0  0  0  0  0  0
    6.9020   -6.4290   29.1440 N   0  0  0  0  0  0  0  0  0  0  0  0
    7.9420   -6.6350   28.4450 N   0  0  0  0  0  0  0  0  0  0  0  0
    8.1690   -6.2060   27.2360 C   0  0  0  0  0  0  0  0  0  0  0  0
    9.4320   -6.4680   26.5270 C   0  0  0  0  0  0  0  0  0  0  0  0
    7.2430   -5.4610   26.5470 C   0  0  0  0  0  0  0  0  0  0  0  0
    7.4750   -4.9850   25.1750 C   0  0  0  0  0  0  0  0  0  0  0  0
    7.0880   -2.5630   23.3160 C   0  0  0  0  0  0  0  0  0  0  0  0
    7.7230   -3.0970   22.0340 C   0  0  0  0  0  0  0  0  0  0  0  0
  1  2  1  0
  2  3  2  0
  2  4  1  0
  4  5  1  0
  5  6  1  0
  6  7  1  0
  7  8  1  0
  8  9  2  0
  8 10  1  0
 10 11  1  0
 11 12  1  0
 12 13  2  0
 13 14  1  0
 13 15  1  0
 15 16  2  0
 16 17  1  0
 17 18  1  0
 12 19  1  0
 17 19  2  0
 19 20  1  0
  7 21  1  0
  4 22  1  0
 21 22  1  0
M  END
