piperidine-amides-12987-covalent
     RDKit          3D

 21 21  0  0  0  0  0  0  0  0999 V2000
    7.1680   -3.2560   19.1940 C   0  0  0  0  0  0  0  0  0  0  0  0
    6.4190   -3.9980   20.2310 C   0  0  0  0  0  0  0  0  0  0  0  0
    5.3320   -4.5080   19.8810 O   0  0  0  0  0  0  0  0  0  0  0  0
    6.9490   -4.1530   21.5200 N   0  0  0  0  0  0  0  0  0  0  0  0
    7.7590   -3.1260   22.1070 C   0  0  0  0  0  0  0  0  0  0  0  0
    7.3770   -2.8240   23.4790 C   0  0  0  0  0  0  0  0  0  0  0  0
    6.0620   -3.3850   23.8270 C   0  0  0  0  0  0  0  0  0  0  0  0
    5.6370   -2.9550   25.1830 C   0  0  0  0  0  0  0  0  0  0  0  0
    4.6200   -2.2460   25.2640 O   0  0  0  0  0  0  0  0  0  0  0  0
    6.3060   -3.3220   26.3580 N   0  0  0  0  0  0  0  0  0  0  0  0
    5.6620   -4.3130   27.2250 C   0  0  2  0  0  0  0  0  0  0  0  0
    6.2820   -4.4400   28.5540 C   0  0  0  0  0  0  0  0  0  0  0  0
    5.9790   -5.6670   29.2510 C   0  0  0  0  0  0  0  0  0  0  0  0
    6.5080   -6.7980   28.7750 C   0  0  0  0  0  0  0  0  0  0  0  0
    5.4770   -5.5710   26.5070 C   0  0  0  0  0  0  0  0  0  0  0  0
    6.3140   -5.7790   25.5530 O   0  0  0  0  0  0  0  0  0  0  0  0
    4.4820   -6.6200   26.6180 N   0  0  0  0  0  0  0  0  0  0  0  0
    3.8490   -7.1400   25.5400 C   0  0  0  0  0  0  0  0  0  0  0  0
    4.1330   -7.2490   27.8510 C   0  0  0  0  0  0  0  0  0  0  0  0
    5.9070   -4.8380   23.5350 C   0  0  0  0  0  0  0  0  0  0  0  0
    6.5260   -5.2510   22.3490 C   0  0  0  0  0  0  0  0  0  0  0  0
  1  2  1  0
  2  3  2  0
  2  4  1  0
  4  5  1  0
  5  6  1  0
  6  7  1  0
  7  8  1  0
  8  9  2  0
  8 10  1  0
 10 11  1  0
 11 12  1  1
 12 13  1  0
 13 14  1  0
 11 15  1  0
 15 16  2  0
 15 17  1  0
 17 18  1  0
 17 19  1  0
  7 20  1  0
  4 21  1  0
 20 21  1  0
M  END
