piperidine-amides-35181-covalent
     RDKit          3D

 32 36  0  0  0  0  0  0  0  0999 V2000
    7.0420   -3.3500   19.3210 C   0  0  0  0  0  0  0  0  0  0  0  0
    6.3810   -4.2160   20.3340 C   0  0  0  0  0  0  0  0  0  0  0  0
    5.3710   -4.8180   19.9720 O   0  0  0  0  0  0  0  0  0  0  0  0
    6.9240   -4.3680   21.6170 N   0  0  0  0  0  0  0  0  0  0  0  0
    6.6160   -5.5150   22.4220 C   0  0  0  0  0  0  0  0  0  0  0  0
    5.8590   -5.0670   23.6470 C   0  0  0  0  0  0  0  0  0  0  0  0
    6.5200   -3.8220   24.2570 C   0  0  0  0  0  0  0  0  0  0  0  0
    5.6640   -3.2930   25.3570 C   0  0  0  0  0  0  0  0  0  0  0  0
    4.9310   -2.3330   25.1090 O   0  0  0  0  0  0  0  0  0  0  0  0
    5.6190   -3.8430   26.6640 N   0  0  0  0  0  0  0  0  0  0  0  0
    6.4570   -3.3350   27.6850 C   0  0  0  0  0  0  0  0  0  0  0  0
    6.8360   -4.5720   28.4850 C   0  0  0  0  0  0  0  0  0  0  0  0
    5.6860   -4.9030   29.3220 N   0  0  0  0  0  0  0  0  0  0  0  0
    5.8040   -6.3640   29.3830 C   0  0  0  0  0  0  0  0  0  0  0  0
    4.7820   -6.9210   30.0790 C   0  0  0  0  0  0  0  0  0  0  0  0
    3.6510   -7.5390   29.6360 N   0  0  0  0  0  0  0  0  0  0  0  0
    2.6820   -8.1390   30.5040 C   0  0  0  0  0  0  0  0  0  0  0  0
    1.1230   -8.7720   30.2840 S   0  0  0  0  0  0  0  0  0  0  0  0
    0.9240   -9.2330   31.9460 C   0  0  0  0  0  0  0  0  0  0  0  0
    2.0640   -8.9310   32.8390 C   0  0  0  0  0  0  0  0  0  0  0  0
    3.1030   -8.2700   31.9270 C   0  0  0  0  0  0  0  0  0  0  0  0
    4.4170   -7.8000   32.3990 C   0  0  0  0  0  0  0  0  0  0  0  0
    4.8680   -8.3470   33.6100 O   0  0  0  0  0  0  0  0  0  0  0  0
    4.9490   -6.8440   31.4610 N   0  0  0  0  0  0  0  0  0  0  0  0
    2.1100   -9.2200   34.1960 C   0  0  0  0  0  0  0  0  0  0  0  0
    0.7000   -9.0580   34.7610 C   0  0  0  0  0  0  0  0  0  0  0  0
   -0.3260   -9.8800   34.0640 C   0  0  0  0  0  0  0  0  0  0  0  0
   -0.2730   -9.9020   32.5640 C   0  0  0  0  0  0  0  0  0  0  0  0
    4.5100   -4.5000   28.6620 C   0  0  0  0  0  0  0  0  0  0  0  0
    4.3540   -4.2190   27.1830 C   0  0  0  0  0  0  0  0  0  0  0  0
    6.7420   -2.6880   23.2590 C   0  0  0  0  0  0  0  0  0  0  0  0
    7.6620   -3.2670   22.1990 C   0  0  0  0  0  0  0  0  0  0  0  0
  1  2  1  0
  2  3  2  0
  2  4  1  0
  4  5  1  0
  5  6  1  0
  6  7  1  0
  7  8  1  0
  8  9  2  0
  8 10  1  0
 10 11  1  0
 11 12  1  0
 12 13  1  0
 13 14  1  0
 14 15  1  0
 15 16  2  0
 16 17  1  0
 17 18  1  0
 18 19  1  0
 19 20  2  0
 17 21  2  0
 20 21  1  0
 21 22  1  0
 22 23  2  0
 15 24  1  0
 22 24  1  0
 20 25  1  0
 25 26  1  0
 26 27  1  0
 19 28  1  0
 27 28  1  0
 13 29  1  0
 10 30  1  0
 29 30  1  0
  7 31  1  0
  4 32  1  0
 31 32  1  0
M  END
