piperidine-amides-13966-covalent
     RDKit          3D

 26 28  0  0  0  0  0  0  0  0999 V2000
    7.1290   -3.2720   19.2390 C   0  0  0  0  0  0  0  0  0  0  0  0
    6.3690   -4.0770   20.2330 C   0  0  0  0  0  0  0  0  0  0  0  0
    5.2850   -4.5850   19.8940 O   0  0  0  0  0  0  0  0  0  0  0  0
    6.9160   -4.2960   21.5130 N   0  0  0  0  0  0  0  0  0  0  0  0
    6.6130   -5.4770   22.2640 C   0  0  0  0  0  0  0  0  0  0  0  0
    5.7380   -5.0120   23.4260 C   0  0  0  0  0  0  0  0  0  0  0  0
    6.5060   -3.9940   24.2170 C   0  0  0  0  0  0  0  0  0  0  0  0
    5.7140   -3.4990   25.3560 C   0  0  0  0  0  0  0  0  0  0  0  0
    4.9210   -2.5780   25.1280 O   0  0  0  0  0  0  0  0  0  0  0  0
    5.8750   -4.0830   26.6090 N   0  0  0  0  0  0  0  0  0  0  0  0
    5.2050   -3.7310   27.8090 C   0  0  0  0  0  0  0  0  0  0  0  0
    5.2470   -2.4850   28.4020 C   0  0  0  0  0  0  0  0  0  0  0  0
    5.4430   -1.3170   27.6170 C   0  0  0  0  0  0  0  0  0  0  0  0
    5.5150   -0.0220   28.1270 C   0  0  0  0  0  0  0  0  0  0  0  0
    5.3840    0.2510   29.5850 C   0  0  0  0  0  0  0  0  0  0  0  0
    5.4520    1.4760   30.1040 O   0  0  0  0  0  0  0  0  0  0  0  0
    6.4120    2.4280   30.0260 C   0  0  0  0  0  0  0  0  0  0  0  0
    7.8570    2.0000   30.1130 C   0  0  0  0  0  0  0  0  0  0  0  0
    8.8540    2.9510   30.0330 C   0  0  0  0  0  0  0  0  0  0  0  0
    8.5780    4.4190   29.8590 C   0  0  0  0  0  0  0  0  0  0  0  0
    7.0730    4.7180   29.7850 C   0  0  0  0  0  0  0  0  0  0  0  0
    6.0370    3.8250   29.8580 C   0  0  0  0  0  0  0  0  0  0  0  0
    5.1790   -0.9330   30.3750 C   0  0  0  0  0  0  0  0  0  0  0  0
    5.1140   -2.2920   29.7550 C   0  0  0  0  0  0  0  0  0  0  0  0
    6.9040   -2.7810   23.3940 C   0  0  0  0  0  0  0  0  0  0  0  0
    7.6430   -3.2160   22.1820 C   0  0  0  0  0  0  0  0  0  0  0  0
  1  2  1  0
  2  3  2  0
  2  4  1  0
  4  5  1  0
  5  6  1  0
  6  7  1  0
  7  8  1  0
  8  9  2  0
  8 10  1  0
 10 11  1  0
 11 12  1  0
 12 13  2  0
 13 14  1  0
 14 15  2  0
 15 16  1  0
 16 17  1  0
 17 18  2  0
 18 19  1  0
 19 20  2  0
 20 21  1  0
 17 22  1  0
 21 22  2  0
 15 23  1  0
 12 24  1  0
 23 24  2  0
  7 25  1  0
  4 26  1  0
 25 26  1  0
M  END
