piperidine-amides-33629-covalent
     RDKit          3D

 30 33  0  0  0  0  0  0  0  0999 V2000
    7.1010   -3.3530   19.3400 C   0  0  0  0  0  0  0  0  0  0  0  0
    6.4240   -4.2150   20.3220 C   0  0  0  0  0  0  0  0  0  0  0  0
    5.3530   -4.7560   19.9580 O   0  0  0  0  0  0  0  0  0  0  0  0
    6.9900   -4.4790   21.5950 N   0  0  0  0  0  0  0  0  0  0  0  0
    6.4170   -5.5340   22.3350 C   0  0  0  0  0  0  0  0  0  0  0  0
    5.6900   -5.0800   23.5200 C   0  0  0  0  0  0  0  0  0  0  0  0
    6.2990   -3.9680   24.2970 C   0  0  0  0  0  0  0  0  0  0  0  0
    5.3480   -3.4780   25.3610 C   0  0  0  0  0  0  0  0  0  0  0  0
    4.4030   -2.7620   25.0030 O   0  0  0  0  0  0  0  0  0  0  0  0
    5.4730   -3.7720   26.7430 N   0  0  0  0  0  0  0  0  0  0  0  0
    6.4200   -3.2580   27.5670 C   0  0  0  0  0  0  0  0  0  0  0  0
    6.9320   -4.2250   28.4800 C   0  0  0  0  0  0  0  0  0  0  0  0
    5.8050   -4.4810   29.4050 C   0  0  0  0  0  0  0  0  0  0  0  0
    4.6840   -4.8760   28.7410 C   0  0  2  0  0  0  0  0  0  0  0  0
    3.6320   -5.0960   29.6080 O   0  0  0  0  0  0  0  0  0  0  0  0
    5.4010   -6.2470   28.6210 C   0  0  0  0  0  0  0  0  0  0  0  0
    5.0570   -6.7550   30.0080 C   0  0  0  0  0  0  0  0  0  0  0  0
    3.9500   -7.4120   30.2820 N   0  0  0  0  0  0  0  0  0  0  0  0
    4.0170   -7.7060   31.5740 C   0  0  0  0  0  0  0  0  0  0  0  0
    2.9720   -8.4780   32.3460 C   0  0  0  0  0  0  0  0  0  0  0  0
    3.4120   -8.8630   33.7440 C   0  0  0  0  0  0  0  0  0  0  0  0
    2.4720   -9.6500   34.6410 C   0  0  0  0  0  0  0  0  0  0  0  0
    1.1670   -9.9750   34.0310 C   0  0  0  0  0  0  0  0  0  0  0  0
    0.8120   -9.5920   32.7310 C   0  0  0  0  0  0  0  0  0  0  0  0
    1.6920   -8.8690   31.9260 C   0  0  0  0  0  0  0  0  0  0  0  0
    5.1670   -7.2380   32.1710 N   0  0  0  0  0  0  0  0  0  0  0  0
    5.8800   -6.6050   31.1580 O   0  0  0  0  0  0  0  0  0  0  0  0
    4.3300   -4.2440   27.5150 C   0  0  0  0  0  0  0  0  0  0  0  0
    6.8080   -2.8570   23.4150 C   0  0  0  0  0  0  0  0  0  0  0  0
    7.6490   -3.4150   22.2820 C   0  0  0  0  0  0  0  0  0  0  0  0
  1  2  1  0
  2  3  2  0
  2  4  1  0
  4  5  1  0
  5  6  1  0
  6  7  1  0
  7  8  1  0
  8  9  2  0
  8 10  1  0
 10 11  1  0
 11 12  1  0
 12 13  1  0
 13 14  1  0
 14 15  1  1
 14 16  1  0
 16 17  1  0
 17 18  2  0
 18 19  1  0
 19 20  1  0
 20 21  2  0
 21 22  1  0
 22 23  2  0
 23 24  1  0
 20 25  1  0
 24 25  2  0
 19 26  2  0
 17 27  1  0
 26 27  1  0
 10 28  1  0
 14 28  1  0
  7 29  1  0
  4 30  1  0
 29 30  1  0
M  END
