piperidine-amides-32460-covalent
     RDKit          3D

 29 31  0  0  0  0  0  0  0  0999 V2000
    7.0670   -3.2610   19.2810 C   0  0  0  0  0  0  0  0  0  0  0  0
    6.3110   -4.0690   20.2810 C   0  0  0  0  0  0  0  0  0  0  0  0
    5.2710   -4.6330   19.9110 O   0  0  0  0  0  0  0  0  0  0  0  0
    6.7950   -4.2270   21.6050 N   0  0  0  0  0  0  0  0  0  0  0  0
    6.6270   -5.4830   22.3030 C   0  0  0  0  0  0  0  0  0  0  0  0
    6.3060   -5.2070   23.7820 C   0  0  0  0  0  0  0  0  0  0  0  0
    6.1390   -3.7370   23.9660 C   0  0  0  0  0  0  0  0  0  0  0  0
    5.5370   -3.3480   25.2690 C   0  0  0  0  0  0  0  0  0  0  0  0
    4.3100   -3.2140   25.2580 O   0  0  0  0  0  0  0  0  0  0  0  0
    6.2910   -3.1330   26.4320 N   0  0  0  0  0  0  0  0  0  0  0  0
    6.7320   -1.8270   26.7860 C   0  0  0  0  0  0  0  0  0  0  0  0
    6.1190   -4.0310   27.5440 C   0  0  0  0  0  0  0  0  0  0  0  0
    6.0530   -5.4240   27.3240 C   0  0  0  0  0  0  0  0  0  0  0  0
    4.8610   -6.1060   27.4370 C   0  0  0  0  0  0  0  0  0  0  0  0
    3.9760   -5.9100   28.6180 C   0  0  0  0  0  0  0  0  0  0  0  0
    4.4820   -5.2820   29.9200 C   0  0  0  0  0  0  0  0  0  0  0  0
    4.5530   -6.4170   30.9480 C   0  0  0  0  0  0  0  0  0  0  0  0
    3.4640   -7.0820   31.3590 C   0  0  0  0  0  0  0  0  0  0  0  0
    3.9160   -8.0370   32.2940 C   0  0  0  0  0  0  0  0  0  0  0  0
    2.7510   -8.8520   32.8250 C   0  0  0  0  0  0  0  0  0  0  0  0
    1.6600   -8.9970   31.9070 C   0  0  0  0  0  0  0  0  0  0  0  0
    0.6610   -9.8780   32.7480 C   0  0  0  0  0  0  0  0  0  0  0  0
    0.8030  -10.4160   34.1260 C   0  0  0  0  0  0  0  0  0  0  0  0
    2.0250  -10.1280   34.8770 C   0  0  0  0  0  0  0  0  0  0  0  0
    2.9870   -9.3150   34.1440 C   0  0  0  0  0  0  0  0  0  0  0  0
    5.3310   -7.9690   32.4750 N   0  0  0  0  0  0  0  0  0  0  0  0
    5.6560   -6.9360   31.6010 N   0  0  0  0  0  0  0  0  0  0  0  0
    7.3980   -3.0070   23.5650 C   0  0  0  0  0  0  0  0  0  0  0  0
    7.6140   -3.1860   22.2300 C   0  0  0  0  0  0  0  0  0  0  0  0
  1  2  1  0
  2  3  2  0
  2  4  1  0
  4  5  1  0
  5  6  1  0
  6  7  1  0
  7  8  1  0
  8  9  2  0
  8 10  1  0
 10 11  1  0
 10 12  1  0
 12 13  1  0
 13 14  1  0
 14 15  1  0
 15 16  1  0
 16 17  1  0
 17 18  2  0
 18 19  1  0
 19 20  1  0
 20 21  2  0
 21 22  1  0
 22 23  2  0
 23 24  1  0
 20 25  1  0
 24 25  2  0
 19 26  2  0
 17 27  1  0
 26 27  1  0
  7 28  1  0
  4 29  1  0
 28 29  1  0
M  END
