piperidine-amides-4890-covalent
     RDKit          3D

 20 21  0  0  0  0  0  0  0  0999 V2000
    7.1040   -3.3230   19.2910 C   0  0  0  0  0  0  0  0  0  0  0  0
    6.3600   -4.1160   20.2910 C   0  0  0  0  0  0  0  0  0  0  0  0
    5.2940   -4.6370   19.9110 O   0  0  0  0  0  0  0  0  0  0  0  0
    6.8720   -4.3030   21.5780 N   0  0  0  0  0  0  0  0  0  0  0  0
    7.5900   -3.2390   22.2020 C   0  0  0  0  0  0  0  0  0  0  0  0
    7.1940   -2.9700   23.5810 C   0  0  0  0  0  0  0  0  0  0  0  0
    6.4590   -4.0680   24.2460 C   0  0  0  0  0  0  0  0  0  0  0  0
    5.7200   -3.5450   25.4280 C   0  0  0  0  0  0  0  0  0  0  0  0
    4.4820   -3.4100   25.3840 O   0  0  0  0  0  0  0  0  0  0  0  0
    6.4000   -3.2130   26.6050 N   0  0  0  0  0  0  0  0  0  0  0  0
    6.4160   -1.8620   27.1980 C   0  0  0  0  0  0  0  0  0  0  0  0
    6.8790   -1.2750   28.3780 C   0  0  0  0  0  0  0  0  0  0  0  0
    6.8330    0.1900   28.9140 C   0  0  0  0  0  0  0  0  0  0  0  0
    7.3050   -0.7690   29.4570 N   0  0  0  0  0  0  0  0  0  0  0  0
    6.5810   -0.3120   28.1930 N   0  0  0  0  0  0  0  0  0  0  0  0
    6.0280   -0.7340   26.8900 C   0  0  0  0  0  0  0  0  0  0  0  0
    5.4360   -0.3470   25.8680 O   0  0  0  0  0  0  0  0  0  0  0  0
    4.1760   -0.1390   26.1110 C   0  0  0  0  0  0  0  0  0  0  0  0
    5.6510   -4.9370   23.3370 C   0  0  0  0  0  0  0  0  0  0  0  0
    6.4590   -5.4210   22.3540 C   0  0  0  0  0  0  0  0  0  0  0  0
  1  2  1  0
  2  3  2  0
  2  4  1  0
  4  5  1  0
  5  6  1  0
  6  7  1  0
  7  8  1  0
  8  9  2  0
  8 10  1  0
 10 11  1  0
 11 12  2  0
 12 13  1  0
 13 14  2  0
 14 15  1  0
 11 16  1  0
 15 16  2  0
 16 17  1  0
 17 18  1  0
  7 19  1  0
  4 20  1  0
 19 20  1  0
M  END
