piperidine-amides-23581-covalent
     RDKit          3D

 24 26  0  0  0  0  0  0  0  0999 V2000
    7.0510   -3.4010   19.4480 C   0  0  0  0  0  0  0  0  0  0  0  0
    6.4000   -4.2670   20.4430 C   0  0  0  0  0  0  0  0  0  0  0  0
    5.4330   -4.9540   20.0150 O   0  0  0  0  0  0  0  0  0  0  0  0
    6.8750   -4.3520   21.7920 N   0  0  0  0  0  0  0  0  0  0  0  0
    6.5340   -5.4910   22.5770 C   0  0  0  0  0  0  0  0  0  0  0  0
    5.9290   -5.1080   23.8480 C   0  0  0  0  0  0  0  0  0  0  0  0
    5.8810   -3.6420   23.9700 C   0  0  0  0  0  0  0  0  0  0  0  0
    5.0190   -3.0810   25.1130 C   0  0  0  0  0  0  0  0  0  0  0  0
    4.0230   -2.4320   24.7840 O   0  0  0  0  0  0  0  0  0  0  0  0
    5.2180   -3.2230   26.5120 N   0  0  0  0  0  0  0  0  0  0  0  0
    4.3710   -2.8750   27.5780 C   0  0  0  0  0  0  0  0  0  0  0  0
    4.2210   -3.8020   28.7070 C   0  0  0  0  0  0  0  0  0  0  0  0
    5.6000   -4.1390   29.2730 C   0  0  0  0  0  0  0  0  0  0  0  0
    5.2760   -5.3510   30.0140 N   0  0  0  0  0  0  0  0  0  0  0  0
    5.8320   -6.4980   29.3880 C   0  0  0  0  0  0  0  0  0  0  0  0
    5.9940   -7.7850   30.2300 C   0  0  0  0  0  0  0  0  0  0  0  0
    5.5110   -7.6400   31.6670 C   0  0  0  0  0  0  0  0  0  0  0  0
    4.5260   -6.4840   31.7730 C   0  0  0  0  0  0  0  0  0  0  0  0
    4.0920   -5.5790   30.6880 C   0  0  0  0  0  0  0  0  0  0  0  0
    2.7820   -5.1140   30.4760 O   0  0  0  0  0  0  0  0  0  0  0  0
    6.5870   -4.1960   28.3390 C   0  0  0  0  0  0  0  0  0  0  0  0
    6.3480   -3.8830   26.8580 C   0  0  0  0  0  0  0  0  0  0  0  0
    7.2590   -3.0900   23.7870 C   0  0  0  0  0  0  0  0  0  0  0  0
    7.6050   -3.2400   22.4160 C   0  0  0  0  0  0  0  0  0  0  0  0
  1  2  1  0
  2  3  2  0
  2  4  1  0
  4  5  1  0
  5  6  1  0
  6  7  1  0
  7  8  1  0
  8  9  2  0
  8 10  1  0
 10 11  1  0
 11 12  1  0
 12 13  1  0
 13 14  1  0
 14 15  1  0
 15 16  2  0
 16 17  1  0
 17 18  2  0
 14 19  1  0
 18 19  1  0
 19 20  2  0
 13 21  1  0
 10 22  1  0
 21 22  1  0
  7 23  1  0
  4 24  1  0
 23 24  1  0
M  END
