piperidine-amides-1496-covalent
     RDKit          3D

 21 22  0  0  0  0  0  0  0  0999 V2000
    7.1320   -3.3590   19.3430 C   0  0  0  0  0  0  0  0  0  0  0  0
    6.3760   -4.1750   20.3230 C   0  0  0  0  0  0  0  0  0  0  0  0
    5.3210   -4.7190   19.9530 O   0  0  0  0  0  0  0  0  0  0  0  0
    6.9110   -4.3600   21.6170 N   0  0  0  0  0  0  0  0  0  0  0  0
    6.5380   -5.4940   22.4070 C   0  0  0  0  0  0  0  0  0  0  0  0
    5.7190   -4.9280   23.5700 C   0  0  0  0  0  0  0  0  0  0  0  0
    6.4890   -3.8040   24.2070 C   0  0  0  0  0  0  0  0  0  0  0  0
    5.7720   -3.2690   25.3900 C   0  0  0  0  0  0  0  0  0  0  0  0
    4.5370   -3.3350   25.3420 O   0  0  0  0  0  0  0  0  0  0  0  0
    6.4440   -2.7120   26.4840 N   0  0  0  0  0  0  0  0  0  0  0  0
    6.3410   -1.3460   26.8690 C   0  0  0  0  0  0  0  0  0  0  0  0
    5.8890   -0.2890   26.1000 C   0  0  0  0  0  0  0  0  0  0  0  0
    5.8040    1.0540   26.5620 C   0  0  0  0  0  0  0  0  0  0  0  0
    6.1720    1.4240   27.8370 C   0  0  0  0  0  0  0  0  0  0  0  0
    6.6600    0.3650   28.6990 C   0  0  0  0  0  0  0  0  0  0  0  0
    6.7260   -1.0290   28.1630 C   0  0  0  0  0  0  0  0  0  0  0  0
    7.2420   -1.8220   29.2890 C   0  0  0  0  0  0  0  0  0  0  0  0
    8.4140   -1.3930   29.8070 F   0  0  0  0  0  0  0  0  0  0  0  0
    6.2800   -1.7780   30.2790 F   0  0  0  0  0  0  0  0  0  0  0  0
    6.7420   -2.6540   23.2260 C   0  0  0  0  0  0  0  0  0  0  0  0
    7.6220   -3.2520   22.2050 C   0  0  0  0  0  0  0  0  0  0  0  0
  1  2  1  0
  2  3  2  0
  2  4  1  0
  4  5  1  0
  5  6  1  0
  6  7  1  0
  7  8  1  0
  8  9  2  0
  8 10  1  0
 10 11  1  0
 11 12  2  0
 12 13  1  0
 13 14  2  0
 14 15  1  0
 11 16  1  0
 15 16  2  0
 16 17  1  0
 17 18  1  0
 17 19  1  0
  7 20  1  0
  4 21  1  0
 20 21  1  0
M  END
