piperidine-amides-31137-covalent
     RDKit          3D

 25 27  0  0  0  0  0  0  0  0999 V2000
    7.0510   -3.3700   19.3790 C   0  0  0  0  0  0  0  0  0  0  0  0
    6.3930   -4.2380   20.3650 C   0  0  0  0  0  0  0  0  0  0  0  0
    5.3960   -4.8850   19.9960 O   0  0  0  0  0  0  0  0  0  0  0  0
    6.8780   -4.3970   21.6820 N   0  0  0  0  0  0  0  0  0  0  0  0
    6.6240   -5.6080   22.4470 C   0  0  0  0  0  0  0  0  0  0  0  0
    6.1780   -5.1960   23.8390 C   0  0  0  0  0  0  0  0  0  0  0  0
    6.0860   -3.7040   23.9860 C   0  0  0  0  0  0  0  0  0  0  0  0
    5.4350   -3.1720   25.2190 C   0  0  0  0  0  0  0  0  0  0  0  0
    4.8010   -2.0880   25.1340 O   0  0  0  0  0  0  0  0  0  0  0  0
    5.4050   -3.7440   26.5090 N   0  0  0  0  0  0  0  0  0  0  0  0
    6.4180   -3.3670   27.4520 C   0  0  0  0  0  0  0  0  0  0  0  0
    6.5380   -4.5260   28.3830 C   0  0  0  0  0  0  0  0  0  0  0  0
    5.2530   -4.6780   29.0650 C   0  0  0  0  0  0  0  0  0  0  0  0
    5.1360   -5.6730   30.1820 C   0  0  0  0  0  0  0  0  0  0  0  0
    6.1110   -6.8190   30.2030 C   0  0  0  0  0  0  0  0  0  0  0  0
    5.9640   -7.7650   31.3470 C   0  0  0  0  0  0  0  0  0  0  0  0
    5.0220   -7.6550   32.3410 C   0  0  0  0  0  0  0  0  0  0  0  0
    4.9670   -8.8370   33.6390 Cl  0  0  0  0  0  0  0  0  0  0  0  0
    4.1440   -6.5910   32.2660 C   0  0  0  0  0  0  0  0  0  0  0  0
    4.1860   -5.5700   31.1680 C   0  0  0  0  0  0  0  0  0  0  0  0
    3.0880   -4.1900   31.0400 Cl  0  0  0  0  0  0  0  0  0  0  0  0
    4.1670   -4.7580   28.2510 C   0  0  0  0  0  0  0  0  0  0  0  0
    4.0960   -3.8110   27.0880 C   0  0  0  0  0  0  0  0  0  0  0  0
    7.4100   -3.1110   23.6570 C   0  0  0  0  0  0  0  0  0  0  0  0
    7.6630   -3.3120   22.2190 C   0  0  0  0  0  0  0  0  0  0  0  0
  1  2  1  0
  2  3  2  0
  2  4  1  0
  4  5  1  0
  5  6  1  0
  6  7  1  0
  7  8  1  0
  8  9  2  0
  8 10  1  0
 10 11  1  0
 11 12  1  0
 12 13  1  0
 13 14  1  0
 14 15  2  0
 15 16  1  0
 16 17  2  0
 17 18  1  0
 17 19  1  0
 14 20  1  0
 19 20  2  0
 20 21  1  0
 13 22  1  0
 10 23  1  0
 22 23  1  0
  7 24  1  0
  4 25  1  0
 24 25  1  0
M  END
