piperidine-amides-35119-covalent
     RDKit          3D

 31 33  0  0  0  0  0  0  0  0999 V2000
    7.0450   -3.3380   19.3690 C   0  0  0  0  0  0  0  0  0  0  0  0
    6.4050   -4.2150   20.3850 C   0  0  0  0  0  0  0  0  0  0  0  0
    5.4410   -4.8830   19.9980 O   0  0  0  0  0  0  0  0  0  0  0  0
    6.9200   -4.2830   21.6960 N   0  0  0  0  0  0  0  0  0  0  0  0
    7.8130   -3.2590   22.2200 C   0  0  0  0  0  0  0  0  0  0  0  0
    7.5020   -3.0190   23.6640 C   0  0  0  0  0  0  0  0  0  0  0  0
    6.1290   -3.6240   23.8800 C   0  0  0  0  0  0  0  0  0  0  0  0
    5.4910   -3.2030   25.1560 C   0  0  0  0  0  0  0  0  0  0  0  0
    4.2790   -2.9580   25.1140 O   0  0  0  0  0  0  0  0  0  0  0  0
    6.1230   -3.0740   26.4070 N   0  0  0  0  0  0  0  0  0  0  0  0
    6.1970   -1.7020   26.9670 C   0  0  0  0  0  0  0  0  0  0  0  0
    6.7930   -1.7260   28.3620 C   0  0  0  0  0  0  0  0  0  0  0  0
    6.9770   -0.6310   29.1600 C   0  0  0  0  0  0  0  0  0  0  0  0
    6.6080    0.5910   28.6960 C   0  0  0  0  0  0  0  0  0  0  0  0
    6.7460    1.8170   29.4490 N   0  0  0  0  0  0  0  0  0  0  0  0
    7.6520    1.7020   30.4350 O   0  0  0  0  0  0  0  0  0  0  0  0
    5.6530    2.5630   29.6520 O   0  0  0  0  0  0  0  0  0  0  0  0
    6.0710    0.7150   27.4450 C   0  0  0  0  0  0  0  0  0  0  0  0
    5.8290   -0.4290   26.4820 C   0  0  0  0  0  0  0  0  0  0  0  0
    5.1300   -0.2970   24.8260 S   0  0  0  0  0  0  0  0  0  0  0  0
    3.4260    0.0830   24.7990 N   0  0  0  0  0  0  0  0  0  0  0  0
    5.3690   -1.4780   23.9440 O   0  0  0  0  0  0  0  0  0  0  0  0
    5.7400    0.9560   24.1490 O   0  0  0  0  0  0  0  0  0  0  0  0
    5.6790   -4.1290   27.2890 C   0  0  0  0  0  0  0  0  0  0  0  0
    4.2030   -4.3940   27.4430 C   0  0  0  0  0  0  0  0  0  0  0  0
    4.1690   -5.8910   27.4700 C   0  0  0  0  0  0  0  0  0  0  0  0
    5.1170   -6.4750   28.4630 C   0  0  0  0  0  0  0  0  0  0  0  0
    6.1620   -5.5690   29.0830 C   0  0  0  0  0  0  0  0  0  0  0  0
    6.2780   -4.1890   28.5330 C   0  0  0  0  0  0  0  0  0  0  0  0
    6.1850   -5.1390   23.7480 C   0  0  0  0  0  0  0  0  0  0  0  0
    6.7080   -5.4840   22.5090 C   0  0  0  0  0  0  0  0  0  0  0  0
  1  2  1  0
  2  3  2  0
  2  4  1  0
  4  5  1  0
  5  6  1  0
  6  7  1  0
  7  8  1  0
  8  9  2  0
  8 10  1  0
 10 11  1  0
 11 12  2  0
 12 13  1  0
 13 14  2  0
 14 15  1  0
 15 16  2  0
 15 17  1  0
 14 18  1  0
 11 19  1  0
 18 19  2  0
 19 20  1  0
 20 21  1  0
 20 22  2  0
 20 23  2  0
 10 24  1  0
 24 25  1  0
 25 26  1  0
 26 27  1  0
 27 28  1  0
 24 29  1  0
 28 29  1  0
  7 30  1  0
  4 31  1  0
 30 31  1  0
M  CHG  2  15   1  17  -1
M  END
