piperidine-amides-4496-covalent
     RDKit          3D

 25 26  0  0  0  0  0  0  0  0999 V2000
    7.0770   -3.2830   19.2160 C   0  0  0  0  0  0  0  0  0  0  0  0
    6.3430   -4.0390   20.2600 C   0  0  0  0  0  0  0  0  0  0  0  0
    5.2850   -4.5860   19.8950 O   0  0  0  0  0  0  0  0  0  0  0  0
    6.8340   -4.1720   21.5720 N   0  0  0  0  0  0  0  0  0  0  0  0
    7.6540   -3.1550   22.1440 C   0  0  0  0  0  0  0  0  0  0  0  0
    7.3490   -2.9130   23.5480 C   0  0  0  0  0  0  0  0  0  0  0  0
    6.0780   -3.5330   23.9740 C   0  0  0  0  0  0  0  0  0  0  0  0
    5.7790   -3.2720   25.4120 C   0  0  0  0  0  0  0  0  0  0  0  0
    4.5810   -3.1180   25.7200 O   0  0  0  0  0  0  0  0  0  0  0  0
    6.7900   -3.1800   26.4000 N   0  0  0  0  0  0  0  0  0  0  0  0
    6.8250   -4.0140   27.6350 C   0  0  2  0  0  0  0  0  0  0  0  0
    8.0970   -4.7540   27.6260 C   0  0  0  0  0  0  0  0  0  0  0  0
    8.4510   -5.4340   28.6140 O   0  0  0  0  0  0  0  0  0  0  0  0
    8.9360   -4.7400   26.5580 O   0  0  0  0  0  0  0  0  0  0  0  0
    9.4490   -5.9250   26.0640 C   0  0  0  0  0  0  0  0  0  0  0  0
    5.7100   -4.9320   27.5320 C   0  0  1  0  0  0  0  0  0  0  0  0
    5.7050   -5.9550   26.6150 C   0  0  0  0  0  0  0  0  0  0  0  0
    5.4150   -5.5520   28.8560 C   0  0  0  0  0  0  0  0  0  0  0  0
    4.3590   -5.0260   29.5440 C   0  0  0  0  0  0  0  0  0  0  0  0
    3.9760   -5.5060   30.7650 C   0  0  0  0  0  0  0  0  0  0  0  0
    4.6720   -6.5660   31.3450 C   0  0  0  0  0  0  0  0  0  0  0  0
    5.8280   -7.2090   30.6900 C   0  0  0  0  0  0  0  0  0  0  0  0
    6.1500   -6.5870   29.3520 C   0  0  0  0  0  0  0  0  0  0  0  0
    6.0210   -5.0310   23.6040 C   0  0  0  0  0  0  0  0  0  0  0  0
    6.6140   -5.3710   22.3570 C   0  0  0  0  0  0  0  0  0  0  0  0
  1  2  1  0
  2  3  2  0
  2  4  1  0
  4  5  1  0
  5  6  1  0
  6  7  1  0
  7  8  1  0
  8  9  2  0
  8 10  1  0
 11 10  1  6
 11 12  1  0
 12 13  2  0
 12 14  1  0
 14 15  1  0
 11 16  1  0
 16 17  1  6
 16 18  1  0
 18 19  2  0
 19 20  1  0
 20 21  2  0
 21 22  1  0
 18 23  1  0
 22 23  2  0
  7 24  1  0
  4 25  1  0
 24 25  1  0
M  END
