piperidine-amides-14757-covalent
     RDKit          3D

 22 23  0  0  0  0  0  0  0  0999 V2000
    7.0860   -3.2560   19.1980 C   0  0  0  0  0  0  0  0  0  0  0  0
    6.3230   -4.0170   20.1930 C   0  0  0  0  0  0  0  0  0  0  0  0
    5.2370   -4.5090   19.8540 O   0  0  0  0  0  0  0  0  0  0  0  0
    6.8380   -4.2280   21.4900 N   0  0  0  0  0  0  0  0  0  0  0  0
    6.4650   -5.4080   22.2250 C   0  0  0  0  0  0  0  0  0  0  0  0
    5.7890   -5.0050   23.5020 C   0  0  0  0  0  0  0  0  0  0  0  0
    6.7250   -4.0100   24.1510 C   0  0  0  0  0  0  0  0  0  0  0  0
    6.2050   -3.5600   25.4740 C   0  0  0  0  0  0  0  0  0  0  0  0
    5.0360   -3.1620   25.5130 O   0  0  0  0  0  0  0  0  0  0  0  0
    7.0870   -3.6280   26.5570 N   0  0  0  0  0  0  0  0  0  0  0  0
    8.2540   -4.4610   26.5480 C   0  0  0  0  0  0  0  0  0  0  0  0
    9.3880   -3.8760   25.9420 C   0  0  0  0  0  0  0  0  0  0  0  0
    9.1190   -2.6780   25.1630 N   0  0  0  0  0  0  0  0  0  0  0  0
   10.2800   -2.1710   24.6200 C   0  0  0  0  0  0  0  0  0  0  0  0
   11.2630   -3.0370   25.0470 C   0  0  0  0  0  0  0  0  0  0  0  0
   12.6020   -2.5940   24.5260 C   0  0  0  0  0  0  0  0  0  0  0  0
   12.8460   -2.9520   23.2470 F   0  0  0  0  0  0  0  0  0  0  0  0
   12.6440   -1.2160   24.5940 F   0  0  0  0  0  0  0  0  0  0  0  0
   13.5170   -3.1050   25.4420 F   0  0  0  0  0  0  0  0  0  0  0  0
   10.7470   -4.0950   25.8560 N   0  0  0  0  0  0  0  0  0  0  0  0
    6.8950   -2.7610   23.3470 C   0  0  0  0  0  0  0  0  0  0  0  0
    7.5670   -3.0880   22.0780 C   0  0  0  0  0  0  0  0  0  0  0  0
  1  2  1  0
  2  3  2  0
  2  4  1  0
  4  5  1  0
  5  6  1  0
  6  7  1  0
  7  8  1  0
  8  9  2  0
  8 10  1  0
 10 11  1  0
 11 12  1  0
 12 13  2  0
 13 14  1  0
 14 15  2  0
 15 16  1  0
 16 17  1  0
 16 18  1  0
 16 19  1  0
 12 20  1  0
 15 20  1  0
  7 21  1  0
  4 22  1  0
 21 22  1  0
M  END
