piperidine-amides-2760-covalent
     RDKit          3D

 24 25  0  0  0  0  0  0  0  0999 V2000
    7.1150   -3.2720   19.2280 C   0  0  0  0  0  0  0  0  0  0  0  0
    6.2700   -3.9810   20.1800 C   0  0  0  0  0  0  0  0  0  0  0  0
    5.2090   -4.4850   19.8370 O   0  0  0  0  0  0  0  0  0  0  0  0
    6.7030   -4.1370   21.5290 N   0  0  0  0  0  0  0  0  0  0  0  0
    7.6040   -3.1750   22.0980 C   0  0  0  0  0  0  0  0  0  0  0  0
    7.3660   -3.0910   23.5700 C   0  0  0  0  0  0  0  0  0  0  0  0
    6.0570   -3.8100   23.8440 C   0  0  0  0  0  0  0  0  0  0  0  0
    5.6730   -3.6670   25.2690 C   0  0  0  0  0  0  0  0  0  0  0  0
    4.8500   -2.8020   25.6420 O   0  0  0  0  0  0  0  0  0  0  0  0
    6.2310   -4.5560   26.2280 N   0  0  0  0  0  0  0  0  0  0  0  0
    7.6590   -4.5870   26.4670 C   0  0  0  0  0  0  0  0  0  0  0  0
    7.8530   -4.1970   27.9020 C   0  0  0  0  0  0  0  0  0  0  0  0
    6.8420   -3.7270   28.6570 N   0  0  0  0  0  0  0  0  0  0  0  0
    6.3810   -2.0820   28.7660 S   0  0  0  0  0  0  0  0  0  0  0  0
    5.2890   -1.8480   27.7780 O   0  0  0  0  0  0  0  0  0  0  0  0
    5.8150   -1.8100   30.1120 O   0  0  0  0  0  0  0  0  0  0  0  0
    7.7260   -1.0180   28.3950 C   0  0  0  0  0  0  0  0  0  0  0  0
    8.1190   -0.9790   27.0470 C   0  0  0  0  0  0  0  0  0  0  0  0
    8.1010   -0.0030   26.1300 C   0  0  0  0  0  0  0  0  0  0  0  0
    8.6070   -0.3900   24.8730 C   0  0  0  0  0  0  0  0  0  0  0  0
    8.9310   -1.6550   25.0660 O   0  0  0  0  0  0  0  0  0  0  0  0
    8.6470   -2.0170   26.3340 N   0  0  0  0  0  0  0  0  0  0  0  0
    6.0180   -5.2660   23.4520 C   0  0  0  0  0  0  0  0  0  0  0  0
    6.5920   -5.4300   22.2050 C   0  0  0  0  0  0  0  0  0  0  0  0
  1  2  1  0
  2  3  2  0
  2  4  1  0
  4  5  1  0
  5  6  1  0
  6  7  1  0
  7  8  1  0
  8  9  2  0
  8 10  1  0
 10 11  1  0
 11 12  1  0
 12 13  1  0
 14 13  1  0
 14 15  2  0
 14 16  2  0
 14 17  1  0
 17 18  1  0
 18 19  1  0
 19 20  2  0
 20 21  1  0
 18 22  2  0
 21 22  1  0
  7 23  1  0
  4 24  1  0
 23 24  1  0
M  END
