piperidine-amides-581-covalent
     RDKit          3D

 26 28  0  0  0  0  0  0  0  0999 V2000
    7.1270   -3.3080   19.3910 C   0  0  0  0  0  0  0  0  0  0  0  0
    6.4090   -4.1110   20.3530 C   0  0  0  0  0  0  0  0  0  0  0  0
    5.4030   -4.7860   19.9630 O   0  0  0  0  0  0  0  0  0  0  0  0
    6.8150   -4.1950   21.6970 N   0  0  0  0  0  0  0  0  0  0  0  0
    7.6590   -3.0860   22.2240 C   0  0  0  0  0  0  0  0  0  0  0  0
    7.6100   -3.2980   23.7910 C   0  0  0  0  0  0  0  0  0  0  0  0
    6.2200   -3.7960   24.0970 C   0  0  0  0  0  0  0  0  0  0  0  0
    5.8420   -3.7430   25.6390 C   0  0  0  0  0  0  0  0  0  0  0  0
    5.3630   -4.8090   25.9680 O   0  0  0  0  0  0  0  0  0  0  0  0
    6.0950   -2.6180   26.1590 N   0  0  0  0  0  0  0  0  0  0  0  0
    6.1640   -1.4150   26.7820 C   0  0  0  0  0  0  0  0  0  0  0  0
    5.8210   -0.0560   26.6270 C   0  0  0  0  0  0  0  0  0  0  0  0
    6.0530    0.9950   27.5660 C   0  0  0  0  0  0  0  0  0  0  0  0
    6.7030    0.6970   28.8200 C   0  0  0  0  0  0  0  0  0  0  0  0
    6.7470    2.0780   29.5020 C   0  0  0  0  0  0  0  0  0  0  0  0
    8.0900    2.6790   29.5770 N   0  0  0  0  0  0  0  0  0  0  0  0
    7.7590    3.8800   30.2300 C   0  0  0  0  0  0  0  0  0  0  0  0
    6.3960    3.8900   30.4610 C   0  0  0  0  0  0  0  0  0  0  0  0
    6.4640    5.2630   31.1340 C   0  0  0  0  0  0  0  0  0  0  0  0
    5.0410    5.8510   31.4410 C   0  0  0  0  0  0  0  0  0  0  0  0
    7.2080    5.1600   32.4200 C   0  0  0  0  0  0  0  0  0  0  0  0
    5.6560    2.8300   30.0580 O   0  0  0  0  0  0  0  0  0  0  0  0
    7.0870   -0.5430   29.1050 C   0  0  0  0  0  0  0  0  0  0  0  0
    6.8520   -1.5080   28.1970 C   0  0  0  0  0  0  0  0  0  0  0  0
    5.8420   -5.1110   23.5050 C   0  0  0  0  0  0  0  0  0  0  0  0
    6.6610   -5.4120   22.4310 C   0  0  0  0  0  0  0  0  0  0  0  0
  1  2  1  0
  2  3  2  0
  2  4  1  0
  4  5  1  0
  5  6  1  0
  6  7  1  0
  7  8  1  0
  8  9  2  0
  8 10  1  0
 10 11  1  0
 11 12  2  0
 12 13  1  0
 13 14  2  0
 14 15  1  0
 15 16  2  0
 16 17  1  0
 17 18  2  0
 18 19  1  0
 19 20  1  0
 19 21  1  0
 15 22  1  0
 18 22  1  0
 14 23  1  0
 11 24  1  0
 23 24  2  0
  7 25  1  0
  4 26  1  0
 25 26  1  0
M  END
