piperidine-amides-34889-covalent
     RDKit          3D

 30 32  0  0  0  0  0  0  0  0999 V2000
    7.1020   -3.3260   19.3080 C   0  0  0  0  0  0  0  0  0  0  0  0
    6.4130   -4.1870   20.2950 C   0  0  0  0  0  0  0  0  0  0  0  0
    5.3600   -4.7190   19.9470 O   0  0  0  0  0  0  0  0  0  0  0  0
    7.0030   -4.4080   21.5390 N   0  0  0  0  0  0  0  0  0  0  0  0
    6.6940   -5.5730   22.3160 C   0  0  0  0  0  0  0  0  0  0  0  0
    5.8500   -5.1410   23.4740 C   0  0  0  0  0  0  0  0  0  0  0  0
    6.4090   -3.8660   24.1150 C   0  0  0  0  0  0  0  0  0  0  0  0
    5.3310   -3.2970   24.9330 C   0  0  0  0  0  0  0  0  0  0  0  0
    4.7820   -2.2400   24.6220 O   0  0  0  0  0  0  0  0  0  0  0  0
    4.9320   -3.9790   26.0760 N   0  0  0  0  0  0  0  0  0  0  0  0
    6.0210   -4.4870   26.7970 C   0  0  0  0  0  0  0  0  0  0  0  0
    5.6110   -4.5460   28.2010 C   0  0  1  0  0  0  0  0  0  0  0  0
    6.4530   -4.3300   29.2540 C   0  0  0  0  0  0  0  0  0  0  0  0
    6.3640   -2.4810   29.4720 S   0  0  0  0  0  0  0  0  0  0  0  0
    5.5420   -1.8190   30.5260 O   0  0  0  0  0  0  0  0  0  0  0  0
    7.7110   -1.8450   29.2930 O   0  0  0  0  0  0  0  0  0  0  0  0
    5.4400   -2.4640   28.0240 C   0  0  0  0  0  0  0  0  0  0  0  0
    4.5320   -3.4720   28.1780 C   0  0  2  0  0  0  0  0  0  0  0  0
    4.3830   -4.5880   29.2040 C   0  0  0  0  0  0  0  0  0  0  0  0
    3.2310   -4.2280   29.8190 N   0  0  0  0  0  0  0  0  0  0  0  0
    2.1420   -4.8080   29.2570 C   0  0  0  0  0  0  0  0  0  0  0  0
    1.5260   -5.6390   30.1530 O   0  0  0  0  0  0  0  0  0  0  0  0
    1.6710   -4.6100   27.9510 O   0  0  0  0  0  0  0  0  0  0  0  0
    0.9390   -3.4390   27.5790 C   0  0  0  0  0  0  0  0  0  0  0  0
   -0.4910   -3.5520   27.9920 C   0  0  0  0  0  0  0  0  0  0  0  0
    1.5320   -2.2440   28.3010 C   0  0  0  0  0  0  0  0  0  0  0  0
    1.0130   -3.1660   26.0920 C   0  0  0  0  0  0  0  0  0  0  0  0
    3.8880   -3.8170   27.0380 C   0  0  0  0  0  0  0  0  0  0  0  0
    6.8530   -2.8120   23.1120 C   0  0  0  0  0  0  0  0  0  0  0  0
    7.7340   -3.3580   22.2210 C   0  0  0  0  0  0  0  0  0  0  0  0
  1  2  1  0
  2  3  2  0
  2  4  1  0
  4  5  1  0
  5  6  1  0
  6  7  1  0
  7  8  1  0
  8  9  2  0
  8 10  1  0
 10 11  1  0
 12 11  1  6
 12 13  1  0
 14 13  1  0
 14 15  2  0
 14 16  2  0
 14 17  1  0
 12 18  1  0
 17 18  1  0
 18 19  1  1
 19 20  1  0
 20 21  1  0
 21 22  2  0
 21 23  1  0
 24 23  1  0
 24 25  1  0
 24 26  1  0
 24 27  1  0
 10 28  1  0
 18 28  1  0
  7 29  1  0
  4 30  1  0
 29 30  1  0
M  END
