piperidine-amides-11956-covalent
     RDKit          3D

 26 28  0  0  0  0  0  0  0  0999 V2000
    7.1020   -3.3770   19.3060 C   0  0  0  0  0  0  0  0  0  0  0  0
    6.3800   -4.1670   20.2910 C   0  0  0  0  0  0  0  0  0  0  0  0
    5.3460   -4.7470   19.9650 O   0  0  0  0  0  0  0  0  0  0  0  0
    6.9230   -4.3150   21.6130 N   0  0  0  0  0  0  0  0  0  0  0  0
    7.6930   -3.2530   22.1960 C   0  0  0  0  0  0  0  0  0  0  0  0
    6.9250   -2.6470   23.3270 C   0  0  0  0  0  0  0  0  0  0  0  0
    6.5390   -3.7580   24.2890 C   0  0  0  0  0  0  0  0  0  0  0  0
    5.7020   -3.1930   25.3840 C   0  0  0  0  0  0  0  0  0  0  0  0
    4.5090   -2.8890   25.2020 O   0  0  0  0  0  0  0  0  0  0  0  0
    6.2620   -3.0120   26.6700 N   0  0  0  0  0  0  0  0  0  0  0  0
    6.6370   -1.6820   27.1370 C   0  0  0  0  0  0  0  0  0  0  0  0
    5.5940   -0.6910   26.6630 C   0  0  0  0  0  0  0  0  0  0  0  0
    5.4680    0.5260   27.3310 C   0  0  0  0  0  0  0  0  0  0  0  0
    5.5900    0.4160   28.7610 N   0  0  0  0  0  0  0  0  0  0  0  0
    5.1830    1.5900   29.4740 C   0  0  0  0  0  0  0  0  0  0  0  0
    5.4770    1.8410   30.7980 C   0  0  0  0  0  0  0  0  0  0  0  0
    5.0010    3.0750   31.3860 C   0  0  0  0  0  0  0  0  0  0  0  0
    4.2700    4.0350   30.7340 C   0  0  0  0  0  0  0  0  0  0  0  0
    3.7740    5.2340   31.2040 C   0  0  0  0  0  0  0  0  0  0  0  0
    3.3700    5.3250   32.4850 N   0  0  0  0  0  0  0  0  0  0  0  0
    3.9940    3.6740   29.2810 C   0  0  0  0  0  0  0  0  0  0  0  0
    4.4690    2.4880   28.7680 N   0  0  0  0  0  0  0  0  0  0  0  0
    6.6930   -0.3250   28.9770 C   0  0  0  0  0  0  0  0  0  0  0  0
    6.8390   -1.6070   28.5220 C   0  0  0  0  0  0  0  0  0  0  0  0
    5.7570   -4.8610   23.6100 C   0  0  0  0  0  0  0  0  0  0  0  0
    6.4730   -5.3930   22.4120 C   0  0  0  0  0  0  0  0  0  0  0  0
  1  2  1  0
  2  3  2  0
  2  4  1  0
  4  5  1  0
  5  6  1  0
  6  7  1  0
  7  8  1  0
  8  9  2  0
  8 10  1  0
 10 11  1  0
 11 12  1  0
 12 13  1  0
 13 14  1  0
 14 15  1  0
 15 16  2  0
 16 17  1  0
 17 18  2  0
 18 19  1  0
 19 20  3  0
 18 21  1  0
 15 22  1  0
 21 22  2  0
 14 23  1  0
 11 24  1  0
 23 24  1  0
  7 25  1  0
  4 26  1  0
 25 26  1  0
M  END
