piperidine-amides-21655-covalent
     RDKit          3D

 23 25  0  0  0  0  0  0  0  0999 V2000
    7.1320   -3.3090   19.2500 C   0  0  0  0  0  0  0  0  0  0  0  0
    6.4470   -4.1250   20.2570 C   0  0  0  0  0  0  0  0  0  0  0  0
    5.3330   -4.6000   19.9130 O   0  0  0  0  0  0  0  0  0  0  0  0
    7.0580   -4.4110   21.4870 N   0  0  0  0  0  0  0  0  0  0  0  0
    6.6570   -5.5370   22.2750 C   0  0  0  0  0  0  0  0  0  0  0  0
    5.7340   -5.0180   23.3370 C   0  0  0  0  0  0  0  0  0  0  0  0
    6.2240   -3.7500   24.0020 C   0  0  0  0  0  0  0  0  0  0  0  0
    5.1250   -3.1910   24.8040 C   0  0  0  0  0  0  0  0  0  0  0  0
    4.9780   -1.9550   24.8290 O   0  0  0  0  0  0  0  0  0  0  0  0
    4.2320   -3.9710   25.5500 N   0  0  0  0  0  0  0  0  0  0  0  0
    3.0210   -4.5320   25.1000 C   0  0  0  0  0  0  0  0  0  0  0  0
    2.7160   -4.1160   26.4980 C   0  0  0  0  0  0  0  0  0  0  0  0
    1.7490   -3.1990   26.8300 C   0  0  0  0  0  0  0  0  0  0  0  0
    2.5040   -5.3030   27.4030 C   0  0  0  0  0  0  0  0  0  0  0  0
    3.9390   -3.5290   26.9060 C   0  0  1  0  0  0  0  0  0  0  0  0
    4.9770   -3.9670   27.6970 C   0  0  0  0  0  0  0  0  0  0  0  0
    4.7950   -5.3460   27.5570 N   0  0  0  0  0  0  0  0  0  0  0  0
    5.6730   -6.1100   28.2150 C   0  0  0  0  0  0  0  0  0  0  0  0
    6.4840   -5.0920   28.8270 C   0  0  0  0  0  0  0  0  0  0  0  0
    5.9270   -3.8670   28.4130 N   0  0  0  0  0  0  0  0  0  0  0  0
    6.4970   -2.7220   28.8330 C   0  0  0  0  0  0  0  0  0  0  0  0
    6.7260   -2.6740   23.0260 C   0  0  0  0  0  0  0  0  0  0  0  0
    7.7790   -3.3720   22.2020 C   0  0  0  0  0  0  0  0  0  0  0  0
  1  2  1  0
  2  3  2  0
  2  4  1  0
  4  5  1  0
  5  6  1  0
  6  7  1  0
  7  8  1  0
  8  9  2  0
  8 10  1  0
 10 11  1  0
 11 12  1  0
 12 13  1  0
 12 14  1  0
 10 15  1  0
 12 15  1  0
 15 16  1  1
 16 17  2  0
 17 18  1  0
 18 19  2  0
 16 20  1  0
 19 20  1  0
 20 21  1  0
  7 22  1  0
  4 23  1  0
 22 23  1  0
M  END
