piperidine-amides-15157-covalent
     RDKit          3D

 20 21  0  0  0  0  0  0  0  0999 V2000
    7.0920   -3.2820   19.2740 C   0  0  0  0  0  0  0  0  0  0  0  0
    6.3820   -4.0710   20.2840 C   0  0  0  0  0  0  0  0  0  0  0  0
    5.3380   -4.6510   19.9280 O   0  0  0  0  0  0  0  0  0  0  0  0
    6.8880   -4.2130   21.6080 N   0  0  0  0  0  0  0  0  0  0  0  0
    6.6450   -5.4280   22.3410 C   0  0  0  0  0  0  0  0  0  0  0  0
    6.0840   -5.1190   23.7020 C   0  0  0  0  0  0  0  0  0  0  0  0
    6.0280   -3.6120   23.8210 C   0  0  0  0  0  0  0  0  0  0  0  0
    5.6200   -3.1860   25.1980 C   0  0  0  0  0  0  0  0  0  0  0  0
    4.4200   -2.9820   25.3530 O   0  0  0  0  0  0  0  0  0  0  0  0
    6.5880   -3.0400   26.1850 N   0  0  0  0  0  0  0  0  0  0  0  0
    6.2620   -3.1310   27.5710 C   0  0  0  0  0  0  0  0  0  0  0  0
    5.5690   -4.2830   27.9550 C   0  0  0  0  0  0  0  0  0  0  0  0
    5.9960   -5.4470   28.4810 C   0  0  0  0  0  0  0  0  0  0  0  0
    4.8270   -6.1750   28.6440 N   0  0  0  0  0  0  0  0  0  0  0  0
    4.8290   -7.4700   29.1810 C   0  0  0  0  0  0  0  0  0  0  0  0
    5.9060   -7.6240   30.2040 C   0  0  0  0  0  0  0  0  0  0  0  0
    3.7030   -5.6020   28.2750 N   0  0  0  0  0  0  0  0  0  0  0  0
    4.1010   -4.3870   27.8240 N   0  0  0  0  0  0  0  0  0  0  0  0
    7.3270   -2.9380   23.5250 C   0  0  0  0  0  0  0  0  0  0  0  0
    7.7510   -3.1230   22.1240 C   0  0  0  0  0  0  0  0  0  0  0  0
  1  2  1  0
  2  3  2  0
  2  4  1  0
  4  5  1  0
  5  6  1  0
  6  7  1  0
  7  8  1  0
  8  9  2  0
  8 10  1  0
 10 11  1  0
 11 12  1  0
 12 13  2  0
 13 14  1  0
 14 15  1  0
 15 16  1  0
 14 17  1  0
 12 18  1  0
 17 18  2  0
  7 19  1  0
  4 20  1  0
 19 20  1  0
M  END
