piperidine-amides-2589-covalent
     RDKit          3D

 25 26  0  0  0  0  0  0  0  0999 V2000
    7.0800   -3.2700   19.2150 C   0  0  0  0  0  0  0  0  0  0  0  0
    6.3480   -4.0390   20.2620 C   0  0  0  0  0  0  0  0  0  0  0  0
    5.3120   -4.5940   19.9040 O   0  0  0  0  0  0  0  0  0  0  0  0
    6.8430   -4.1540   21.5700 N   0  0  0  0  0  0  0  0  0  0  0  0
    6.6700   -5.3630   22.3400 C   0  0  0  0  0  0  0  0  0  0  0  0
    5.9980   -5.0400   23.6470 C   0  0  0  0  0  0  0  0  0  0  0  0
    6.0000   -3.5270   23.8610 C   0  0  0  0  0  0  0  0  0  0  0  0
    5.5710   -3.2580   25.2470 C   0  0  0  0  0  0  0  0  0  0  0  0
    4.3840   -2.9980   25.4770 O   0  0  0  0  0  0  0  0  0  0  0  0
    6.5040   -3.2910   26.2900 N   0  0  0  0  0  0  0  0  0  0  0  0
    6.0780   -3.3360   27.6710 C   0  0  0  0  0  0  0  0  0  0  0  0
    5.5810   -4.7280   28.0580 C   0  0  1  0  0  0  0  0  0  0  0  0
    4.2810   -5.1690   27.9580 C   0  0  0  0  0  0  0  0  0  0  0  0
    3.3860   -4.7430   28.8980 C   0  0  0  0  0  0  0  0  0  0  0  0
    3.0940   -3.4140   28.9000 C   0  0  0  0  0  0  0  0  0  0  0  0
    2.1370   -2.6870   29.8290 C   0  0  0  0  0  0  0  0  0  0  0  0
    1.4890   -3.6130   30.8200 C   0  0  0  0  0  0  0  0  0  0  0  0
    1.8120   -5.0870   30.8170 C   0  0  0  0  0  0  0  0  0  0  0  0
    2.7880   -5.5960   29.8100 C   0  0  0  0  0  0  0  0  0  0  0  0
    3.1640   -7.3070   29.7990 Cl  0  0  0  0  0  0  0  0  0  0  0  0
    5.8660   -5.9010   27.1860 C   0  0  0  0  0  0  0  0  0  0  0  0
    6.7080   -6.8120   27.8070 N   0  0  0  0  0  0  0  0  0  0  0  0
    5.3700   -6.0160   26.0150 O   0  0  0  0  0  0  0  0  0  0  0  0
    7.2580   -2.8350   23.4960 C   0  0  0  0  0  0  0  0  0  0  0  0
    7.7330   -3.1440   22.1250 C   0  0  0  0  0  0  0  0  0  0  0  0
  1  2  1  0
  2  3  2  0
  2  4  1  0
  4  5  1  0
  5  6  1  0
  6  7  1  0
  7  8  1  0
  8  9  2  0
  8 10  1  0
 10 11  1  0
 12 11  1  6
 12 13  1  0
 13 14  1  0
 14 15  2  0
 15 16  1  0
 16 17  2  0
 17 18  1  0
 14 19  1  0
 18 19  2  0
 19 20  1  0
 12 21  1  0
 21 22  1  0
 21 23  2  0
  7 24  1  0
  4 25  1  0
 24 25  1  0
M  END
