piperidine-amides-14717-covalent
     RDKit          3D

 22 23  0  0  0  0  0  0  0  0999 V2000
    7.0950   -3.3070   19.3010 C   0  0  0  0  0  0  0  0  0  0  0  0
    6.3390   -4.0590   20.3040 C   0  0  0  0  0  0  0  0  0  0  0  0
    5.3170   -4.6610   19.9270 O   0  0  0  0  0  0  0  0  0  0  0  0
    6.7870   -4.1260   21.6490 N   0  0  0  0  0  0  0  0  0  0  0  0
    7.7030   -3.1160   22.1350 C   0  0  0  0  0  0  0  0  0  0  0  0
    7.4110   -2.7950   23.5670 C   0  0  0  0  0  0  0  0  0  0  0  0
    6.1140   -3.4940   23.8780 C   0  0  0  0  0  0  0  0  0  0  0  0
    5.6800   -3.1990   25.2850 C   0  0  0  0  0  0  0  0  0  0  0  0
    4.4940   -2.9160   25.4270 O   0  0  0  0  0  0  0  0  0  0  0  0
    6.6230   -3.2420   26.3070 N   0  0  0  0  0  0  0  0  0  0  0  0
    6.3660   -3.8290   27.5870 C   0  0  0  0  0  0  0  0  0  0  0  0
    5.9950   -5.1820   27.5720 C   0  0  1  0  0  0  0  0  0  0  0  0
    6.0280   -5.6520   28.8880 F   0  0  0  0  0  0  0  0  0  0  0  0
    4.7690   -5.5500   27.0640 C   0  0  0  0  0  0  0  0  0  0  0  0
    3.7830   -4.5750   26.8850 C   0  0  0  0  0  0  0  0  0  0  0  0
    2.4420   -4.9770   26.3230 C   0  0  0  0  0  0  0  0  0  0  0  0
    2.1370   -6.4420   25.9460 C   0  0  0  0  0  0  0  0  0  0  0  0
    0.4400   -7.0030   25.2270 Br  0  0  0  0  0  0  0  0  0  0  0  0
    3.2440   -7.3830   26.1800 C   0  0  0  0  0  0  0  0  0  0  0  0
    4.5260   -6.8600   26.7430 C   0  0  0  0  0  0  0  0  0  0  0  0
    6.0960   -4.9490   23.6670 C   0  0  0  0  0  0  0  0  0  0  0  0
    6.6240   -5.3230   22.4490 C   0  0  0  0  0  0  0  0  0  0  0  0
  1  2  1  0
  2  3  2  0
  2  4  1  0
  4  5  1  0
  5  6  1  0
  6  7  1  0
  7  8  1  0
  8  9  2  0
  8 10  1  0
 10 11  1  0
 11 12  1  0
 12 13  1  1
 12 14  1  0
 14 15  2  0
 15 16  1  0
 16 17  2  0
 17 18  1  0
 17 19  1  0
 14 20  1  0
 19 20  2  0
  7 21  1  0
  4 22  1  0
 21 22  1  0
M  END
