piperidine-amides-27811-covalent
     RDKit          3D

 26 28  0  0  0  0  0  0  0  0999 V2000
    7.0260   -3.3650   19.3080 C   0  0  0  0  0  0  0  0  0  0  0  0
    6.3990   -4.2170   20.3460 C   0  0  0  0  0  0  0  0  0  0  0  0
    5.3860   -4.8530   19.9850 O   0  0  0  0  0  0  0  0  0  0  0  0
    6.9520   -4.3400   21.6350 N   0  0  0  0  0  0  0  0  0  0  0  0
    6.5760   -5.4080   22.5020 C   0  0  0  0  0  0  0  0  0  0  0  0
    6.0340   -4.9870   23.8100 C   0  0  0  0  0  0  0  0  0  0  0  0
    6.4970   -3.6770   24.3600 C   0  0  0  0  0  0  0  0  0  0  0  0
    5.5560   -3.2150   25.4330 C   0  0  0  0  0  0  0  0  0  0  0  0
    4.7450   -2.3370   25.1110 O   0  0  0  0  0  0  0  0  0  0  0  0
    5.5170   -3.7180   26.7680 N   0  0  0  0  0  0  0  0  0  0  0  0
    6.4420   -3.3380   27.8120 C   0  0  0  0  0  0  0  0  0  0  0  0
    6.8210   -4.5760   28.5600 C   0  0  0  0  0  0  0  0  0  0  0  0
    5.9790   -5.0950   29.5250 N   0  0  0  0  0  0  0  0  0  0  0  0
    5.8700   -6.5440   29.5130 C   0  0  0  0  0  0  0  0  0  0  0  0
    4.7160   -6.9770   30.1200 C   0  0  0  0  0  0  0  0  0  0  0  0
    3.7210   -7.6230   29.3910 C   0  0  0  0  0  0  0  0  0  0  0  0
    2.5710   -8.0650   29.9860 C   0  0  0  0  0  0  0  0  0  0  0  0
    2.3820   -7.8710   31.3250 C   0  0  0  0  0  0  0  0  0  0  0  0
    3.3380   -7.2430   32.0650 C   0  0  0  0  0  0  0  0  0  0  0  0
    4.5110   -6.7920   31.4710 C   0  0  0  0  0  0  0  0  0  0  0  0
    4.6420   -4.5920   29.5930 C   0  0  0  0  0  0  0  0  0  0  0  0
    4.0710   -5.1440   28.3120 C   0  0  0  0  0  0  0  0  0  0  0  0
    4.2180   -4.1070   27.2300 C   0  0  2  0  0  0  0  0  0  0  0  0
    3.4740   -4.3710   26.0600 C   0  0  0  0  0  0  0  0  0  0  0  0
    6.8490   -2.7030   23.3290 C   0  0  0  0  0  0  0  0  0  0  0  0
    7.7150   -3.2710   22.2650 C   0  0  0  0  0  0  0  0  0  0  0  0
  1  2  1  0
  2  3  2  0
  2  4  1  0
  4  5  1  0
  5  6  1  0
  6  7  1  0
  7  8  1  0
  8  9  2  0
  8 10  1  0
 10 11  1  0
 11 12  1  0
 12 13  1  0
 13 14  1  0
 14 15  1  0
 15 16  2  0
 16 17  1  0
 17 18  2  0
 18 19  1  0
 15 20  1  0
 19 20  2  0
 13 21  1  0
 21 22  1  0
 10 23  1  0
 22 23  1  0
 23 24  1  6
  7 25  1  0
  4 26  1  0
 25 26  1  0
M  END
