piperidine-amides-28018-covalent
     RDKit          3D

 20 21  0  0  0  0  0  0  0  0999 V2000
    7.0820   -3.3160   19.2600 C   0  0  0  0  0  0  0  0  0  0  0  0
    6.3370   -4.0590   20.3000 C   0  0  0  0  0  0  0  0  0  0  0  0
    5.2860   -4.6130   19.9140 O   0  0  0  0  0  0  0  0  0  0  0  0
    6.8250   -4.1770   21.6150 N   0  0  0  0  0  0  0  0  0  0  0  0
    6.5890   -5.3760   22.3450 C   0  0  0  0  0  0  0  0  0  0  0  0
    6.0790   -5.0990   23.6820 C   0  0  0  0  0  0  0  0  0  0  0  0
    6.0570   -3.6510   23.9650 C   0  0  0  0  0  0  0  0  0  0  0  0
    5.6190   -3.3720   25.3620 C   0  0  0  0  0  0  0  0  0  0  0  0
    4.4150   -3.5550   25.6200 O   0  0  0  0  0  0  0  0  0  0  0  0
    6.4780   -2.9020   26.3740 N   0  0  0  0  0  0  0  0  0  0  0  0
    6.9770   -1.5130   26.3060 C   0  0  0  0  0  0  0  0  0  0  0  0
    6.2470   -3.4140   27.6810 C   0  0  0  0  0  0  0  0  0  0  0  0
    5.9450   -2.4510   28.7360 C   0  0  0  0  0  0  0  0  0  0  0  0
    4.7380   -2.2110   29.3250 C   0  0  0  0  0  0  0  0  0  0  0  0
    4.7130   -0.9430   30.6030 S   0  0  0  0  0  0  0  0  0  0  0  0
    6.4560   -0.6720   30.3710 C   0  0  0  0  0  0  0  0  0  0  0  0
    7.5900    0.5660   31.2860 Br  0  0  0  0  0  0  0  0  0  0  0  0
    6.9420   -1.5190   29.3820 C   0  0  0  0  0  0  0  0  0  0  0  0
    7.2780   -2.8920   23.5480 C   0  0  0  0  0  0  0  0  0  0  0  0
    7.6710   -3.1830   22.2580 C   0  0  0  0  0  0  0  0  0  0  0  0
  1  2  1  0
  2  3  2  0
  2  4  1  0
  4  5  1  0
  5  6  1  0
  6  7  1  0
  7  8  1  0
  8  9  2  0
  8 10  1  0
 10 11  1  0
 10 12  1  0
 12 13  1  0
 13 14  2  0
 14 15  1  0
 15 16  1  0
 16 17  1  0
 13 18  1  0
 16 18  2  0
  7 19  1  0
  4 20  1  0
 19 20  1  0
M  END
