piperidine-amides-23435-covalent
     RDKit          3D

 24 26  0  0  0  0  0  0  0  0999 V2000
    7.0630   -3.3720   19.3590 C   0  0  0  0  0  0  0  0  0  0  0  0
    6.3590   -4.1670   20.3780 C   0  0  0  0  0  0  0  0  0  0  0  0
    5.3610   -4.8170   19.9780 O   0  0  0  0  0  0  0  0  0  0  0  0
    6.8100   -4.2460   21.7250 N   0  0  0  0  0  0  0  0  0  0  0  0
    6.6220   -5.4580   22.4440 C   0  0  0  0  0  0  0  0  0  0  0  0
    6.3050   -5.1920   23.8350 C   0  0  0  0  0  0  0  0  0  0  0  0
    6.1330   -3.7440   24.0740 C   0  0  0  0  0  0  0  0  0  0  0  0
    5.6320   -3.3840   25.4660 C   0  0  0  0  0  0  0  0  0  0  0  0
    4.4220   -3.0970   25.5310 O   0  0  0  0  0  0  0  0  0  0  0  0
    6.3450   -3.3270   26.7070 N   0  0  0  0  0  0  0  0  0  0  0  0
    5.7090   -2.9990   27.9250 C   0  0  0  0  0  0  0  0  0  0  0  0
    5.5140   -4.1270   28.7890 C   0  0  0  0  0  0  0  0  0  0  0  0
    4.2840   -4.0310   29.6410 C   0  0  0  0  0  0  0  0  0  0  0  0
    3.9250   -5.0080   30.5080 C   0  0  0  0  0  0  0  0  0  0  0  0
    4.8190   -6.2650   30.6100 C   0  0  0  0  0  0  0  0  0  0  0  0
    6.0730   -6.3600   29.7400 C   0  0  0  0  0  0  0  0  0  0  0  0
    6.4520   -5.2080   28.7650 C   0  0  0  0  0  0  0  0  0  0  0  0
    7.6490   -5.1380   27.8350 C   0  0  0  0  0  0  0  0  0  0  0  0
    7.6460   -3.8770   26.9380 C   0  0  1  0  0  0  0  0  0  0  0  0
    8.4960   -4.0700   25.6910 C   0  0  0  0  0  0  0  0  0  0  0  0
    9.3490   -5.2310   25.9740 C   0  0  0  0  0  0  0  0  0  0  0  0
    8.8650   -6.3290   25.7830 O   0  0  0  0  0  0  0  0  0  0  0  0
    7.2260   -2.8580   23.5330 C   0  0  0  0  0  0  0  0  0  0  0  0
    7.6960   -3.2350   22.2710 C   0  0  0  0  0  0  0  0  0  0  0  0
  1  2  1  0
  2  3  2  0
  2  4  1  0
  4  5  1  0
  5  6  1  0
  6  7  1  0
  7  8  1  0
  8  9  2  0
  8 10  1  0
 10 11  1  0
 11 12  1  0
 12 13  2  0
 13 14  1  0
 14 15  2  0
 15 16  1  0
 12 17  1  0
 16 17  2  0
 17 18  1  0
 10 19  1  0
 18 19  1  0
 19 20  1  6
 20 21  1  0
 21 22  1  0
  7 23  1  0
  4 24  1  0
 23 24  1  0
M  END
