piperidine-amides-30534-covalent
     RDKit          3D

 26 28  0  0  0  0  0  0  0  0999 V2000
    7.1250   -3.2860   19.1910 C   0  0  0  0  0  0  0  0  0  0  0  0
    6.3750   -4.0300   20.2060 C   0  0  0  0  0  0  0  0  0  0  0  0
    5.3160   -4.6020   19.9030 O   0  0  0  0  0  0  0  0  0  0  0  0
    6.8700   -4.1490   21.5070 N   0  0  0  0  0  0  0  0  0  0  0  0
    7.7990   -3.1750   22.0450 C   0  0  0  0  0  0  0  0  0  0  0  0
    7.2030   -2.6750   23.3200 C   0  0  0  0  0  0  0  0  0  0  0  0
    6.8230   -3.8030   24.2100 C   0  0  0  0  0  0  0  0  0  0  0  0
    5.9050   -3.3350   25.2450 C   0  0  0  0  0  0  0  0  0  0  0  0
    4.7150   -3.0050   24.9560 O   0  0  0  0  0  0  0  0  0  0  0  0
    6.2960   -3.2770   26.5800 N   0  0  0  0  0  0  0  0  0  0  0  0
    6.3830   -1.9480   27.2740 C   0  0  0  0  0  0  0  0  0  0  0  0
    7.1230   -1.8690   28.5290 C   0  0  0  0  0  0  0  0  0  0  0  0
    7.2170   -0.5960   29.2560 C   0  0  0  0  0  0  0  0  0  0  0  0
    6.5670    0.6760   28.7480 C   0  0  0  0  0  0  0  0  0  0  0  0
    6.7700    2.1310   29.7520 Cl  0  0  0  0  0  0  0  0  0  0  0  0
    5.7960    0.6290   27.4330 C   0  0  0  0  0  0  0  0  0  0  0  0
    5.7460   -0.7020   26.7590 C   0  0  0  0  0  0  0  0  0  0  0  0
    5.0700   -0.8290   25.5770 C   0  0  0  0  0  0  0  0  0  0  0  0
    6.0700   -4.4790   27.3190 C   0  0  2  0  0  0  0  0  0  0  0  0
    5.5780   -4.4530   28.7050 C   0  0  0  0  0  0  0  0  0  0  0  0
    6.1320   -5.7720   29.2090 C   0  0  0  0  0  0  0  0  0  0  0  0
    7.2690   -5.9950   28.6500 O   0  0  0  0  0  0  0  0  0  0  0  0
    7.2170   -5.4590   27.3280 C   0  0  2  0  0  0  0  0  0  0  0  0
    8.3210   -5.1120   27.0000 C   0  0  0  0  0  0  0  0  0  0  0  0
    6.1840   -4.9780   23.5800 C   0  0  0  0  0  0  0  0  0  0  0  0
    6.5780   -5.2900   22.3040 C   0  0  0  0  0  0  0  0  0  0  0  0
  1  2  1  0
  2  3  2  0
  2  4  1  0
  4  5  1  0
  5  6  1  0
  6  7  1  0
  7  8  1  0
  8  9  2  0
  8 10  1  0
 10 11  1  0
 11 12  2  0
 12 13  1  0
 13 14  2  0
 14 15  1  0
 14 16  1  0
 11 17  1  0
 16 17  2  0
 17 18  1  0
 19 10  1  1
 19 20  1  0
 20 21  1  0
 21 22  1  0
 19 23  1  0
 22 23  1  0
 23 24  1  1
  7 25  1  0
  4 26  1  0
 25 26  1  0
M  END
