piperidine-amides-12408-covalent
     RDKit          3D

 24 26  0  0  0  0  0  0  0  0999 V2000
    7.0660   -3.3450   19.2530 C   0  0  0  0  0  0  0  0  0  0  0  0
    6.3760   -4.1500   20.2540 C   0  0  0  0  0  0  0  0  0  0  0  0
    5.3410   -4.7430   19.9530 O   0  0  0  0  0  0  0  0  0  0  0  0
    6.9330   -4.3060   21.5690 N   0  0  0  0  0  0  0  0  0  0  0  0
    7.6810   -3.2210   22.1530 C   0  0  0  0  0  0  0  0  0  0  0  0
    6.9150   -2.6230   23.2960 C   0  0  0  0  0  0  0  0  0  0  0  0
    6.5840   -3.7450   24.2580 C   0  0  0  0  0  0  0  0  0  0  0  0
    5.8160   -3.1920   25.4030 C   0  0  0  0  0  0  0  0  0  0  0  0
    4.6210   -2.8510   25.3090 O   0  0  0  0  0  0  0  0  0  0  0  0
    6.4780   -3.0730   26.6420 N   0  0  0  0  0  0  0  0  0  0  0  0
    6.4810   -1.8120   27.3490 C   0  0  0  0  0  0  0  0  0  0  0  0
    5.9920   -0.6430   26.5510 C   0  0  0  0  0  0  0  0  0  0  0  0
    5.9450    0.6100   27.1300 C   0  0  0  0  0  0  0  0  0  0  0  0
    6.3510    0.7900   28.4670 C   0  0  0  0  0  0  0  0  0  0  0  0
    6.2960    2.0450   29.0320 C   0  0  0  0  0  0  0  0  0  0  0  0
    6.7980   -0.3080   29.1780 C   0  0  0  0  0  0  0  0  0  0  0  0
    7.1270    0.0770   30.4250 N   0  0  0  0  0  0  0  0  0  0  0  0
    8.3530   -0.0110   31.1110 C   0  0  0  0  0  0  0  0  0  0  0  0
    8.2490    0.4860   32.3250 N   0  0  0  0  0  0  0  0  0  0  0  0
    7.0350    0.9160   32.5380 N   0  0  0  0  0  0  0  0  0  0  0  0
    6.3580    0.6630   31.3730 N   0  0  0  0  0  0  0  0  0  0  0  0
    6.8560   -1.5410   28.6270 C   0  0  0  0  0  0  0  0  0  0  0  0
    5.9550   -4.9570   23.6750 C   0  0  0  0  0  0  0  0  0  0  0  0
    6.4690   -5.3780   22.3730 C   0  0  0  0  0  0  0  0  0  0  0  0
  1  2  1  0
  2  3  2  0
  2  4  1  0
  4  5  1  0
  5  6  1  0
  6  7  1  0
  7  8  1  0
  8  9  2  0
  8 10  1  0
 10 11  1  0
 11 12  2  0
 12 13  1  0
 13 14  2  0
 14 15  1  0
 14 16  1  0
 16 17  1  0
 17 18  1  0
 18 19  2  0
 19 20  1  0
 17 21  1  0
 20 21  2  0
 11 22  1  0
 16 22  2  0
  7 23  1  0
  4 24  1  0
 23 24  1  0
M  END
