piperidine-amides-24791-covalent
     RDKit          3D

 25 27  0  0  0  0  0  0  0  0999 V2000
    7.1270   -3.3440   19.3420 C   0  0  0  0  0  0  0  0  0  0  0  0
    6.3930   -4.1720   20.3000 C   0  0  0  0  0  0  0  0  0  0  0  0
    5.3410   -4.7550   19.9600 O   0  0  0  0  0  0  0  0  0  0  0  0
    6.9090   -4.3680   21.5870 N   0  0  0  0  0  0  0  0  0  0  0  0
    6.4120   -5.4700   22.3640 C   0  0  0  0  0  0  0  0  0  0  0  0
    5.4940   -4.8260   23.4040 C   0  0  0  0  0  0  0  0  0  0  0  0
    6.3710   -3.9000   24.2170 C   0  0  0  0  0  0  0  0  0  0  0  0
    5.5900   -3.3330   25.3310 C   0  0  0  0  0  0  0  0  0  0  0  0
    4.4730   -2.8450   25.0660 O   0  0  0  0  0  0  0  0  0  0  0  0
    6.0880   -3.3450   26.6530 N   0  0  0  0  0  0  0  0  0  0  0  0
    5.5690   -4.3450   27.5450 C   0  0  0  0  0  0  0  0  0  0  0  0
    4.4840   -3.9490   28.5240 C   0  0  0  0  0  0  0  0  0  0  0  0
    3.9920   -4.9020   29.3730 C   0  0  0  0  0  0  0  0  0  0  0  0
    4.4530   -6.2010   29.3630 C   0  0  0  0  0  0  0  0  0  0  0  0
    5.4530   -6.5850   28.4710 C   0  0  0  0  0  0  0  0  0  0  0  0
    6.0480   -5.7580   27.5590 C   0  0  0  0  0  0  0  0  0  0  0  0
    6.3130   -2.0380   27.2880 C   0  0  0  0  0  0  0  0  0  0  0  0
    5.7610   -0.7750   26.6750 C   0  0  0  0  0  0  0  0  0  0  0  0
    5.8980    0.6600   27.2070 C   0  0  0  0  0  0  0  0  0  0  0  0
    6.7150    0.3680   28.4380 C   0  0  0  0  0  0  0  0  0  0  0  0
    7.1130    1.2530   29.2100 O   0  0  0  0  0  0  0  0  0  0  0  0
    7.1890   -0.8450   28.9430 C   0  0  0  0  0  0  0  0  0  0  0  0
    6.9980   -2.0130   28.3980 C   0  0  0  0  0  0  0  0  0  0  0  0
    6.9360   -2.7620   23.3960 C   0  0  0  0  0  0  0  0  0  0  0  0
    7.6690   -3.3140   22.2070 C   0  0  0  0  0  0  0  0  0  0  0  0
  1  2  1  0
  2  3  2  0
  2  4  1  0
  4  5  1  0
  5  6  1  0
  6  7  1  0
  7  8  1  0
  8  9  2  0
  8 10  1  0
 10 11  1  0
 11 12  2  0
 12 13  1  0
 13 14  2  0
 14 15  1  0
 11 16  1  0
 15 16  2  0
 10 17  1  0
 17 18  2  0
 18 19  1  0
 19 20  2  0
 20 21  1  0
 20 22  1  0
 17 23  1  0
 22 23  2  0
  7 24  1  0
  4 25  1  0
 24 25  1  0
M  END
