piperidine-amides-24585-covalent
     RDKit          3D

 24 26  0  0  0  0  0  0  0  0999 V2000
    7.0540   -3.3470   19.3940 C   0  0  0  0  0  0  0  0  0  0  0  0
    6.4010   -4.2560   20.3510 C   0  0  0  0  0  0  0  0  0  0  0  0
    5.3890   -4.8980   19.9930 O   0  0  0  0  0  0  0  0  0  0  0  0
    6.9240   -4.4610   21.6460 N   0  0  0  0  0  0  0  0  0  0  0  0
    6.4470   -5.5890   22.3850 C   0  0  0  0  0  0  0  0  0  0  0  0
    5.4900   -4.9870   23.4170 C   0  0  0  0  0  0  0  0  0  0  0  0
    6.3050   -4.0700   24.3100 C   0  0  0  0  0  0  0  0  0  0  0  0
    5.3970   -3.3780   25.2680 C   0  0  0  0  0  0  0  0  0  0  0  0
    4.6830   -2.4740   24.7950 O   0  0  0  0  0  0  0  0  0  0  0  0
    5.2930   -3.6900   26.6630 N   0  0  0  0  0  0  0  0  0  0  0  0
    6.3980   -3.4300   27.4690 C   0  0  0  0  0  0  0  0  0  0  0  0
    6.6250   -4.6650   28.3480 C   0  0  0  0  0  0  0  0  0  0  0  0
    5.4480   -4.8050   29.1520 N   0  0  0  0  0  0  0  0  0  0  0  0
    4.5470   -5.9440   29.0690 C   0  0  2  0  0  0  0  0  0  0  0  0
    3.4960   -5.6530   29.9110 C   0  0  0  0  0  0  0  0  0  0  0  0
    2.7850   -6.7240   30.4330 C   0  0  0  0  0  0  0  0  0  0  0  0
    3.5340   -7.8520   30.5830 C   0  0  0  0  0  0  0  0  0  0  0  0
    4.8590   -7.7520   30.4850 N   0  0  0  0  0  0  0  0  0  0  0  0
    5.3420   -7.3960   31.6860 C   0  0  0  0  0  0  0  0  0  0  0  0
    5.2380   -7.1220   29.2350 C   0  0  0  0  0  0  0  0  0  0  0  0
    4.6750   -3.5920   28.9440 C   0  0  0  0  0  0  0  0  0  0  0  0
    4.1930   -3.4490   27.5600 C   0  0  0  0  0  0  0  0  0  0  0  0
    6.9940   -2.9920   23.4930 C   0  0  0  0  0  0  0  0  0  0  0  0
    7.5920   -3.4020   22.3250 C   0  0  0  0  0  0  0  0  0  0  0  0
  1  2  1  0
  2  3  2  0
  2  4  1  0
  4  5  1  0
  5  6  1  0
  6  7  1  0
  7  8  1  0
  8  9  2  0
  8 10  1  0
 10 11  1  0
 11 12  1  0
 12 13  1  0
 14 13  1  1
 14 15  1  0
 15 16  1  0
 16 17  1  0
 17 18  1  0
 18 19  1  0
 14 20  1  0
 18 20  1  0
 13 21  1  0
 10 22  1  0
 21 22  1  0
  7 23  1  0
  4 24  1  0
 23 24  1  0
M  END
