piperidine-amides-11480-covalent
     RDKit          3D

 27 28  0  0  0  0  0  0  0  0999 V2000
    7.1200   -3.3230   19.2940 C   0  0  0  0  0  0  0  0  0  0  0  0
    6.3680   -4.0670   20.3020 C   0  0  0  0  0  0  0  0  0  0  0  0
    5.3520   -4.6920   19.9490 O   0  0  0  0  0  0  0  0  0  0  0  0
    6.8070   -4.1270   21.6410 N   0  0  0  0  0  0  0  0  0  0  0  0
    7.6540   -3.0840   22.2010 C   0  0  0  0  0  0  0  0  0  0  0  0
    7.4390   -3.0670   23.7000 C   0  0  0  0  0  0  0  0  0  0  0  0
    6.1070   -3.6370   24.0780 C   0  0  0  0  0  0  0  0  0  0  0  0
    5.6220   -3.2700   25.4400 C   0  0  0  0  0  0  0  0  0  0  0  0
    4.4470   -2.8140   25.5630 O   0  0  0  0  0  0  0  0  0  0  0  0
    6.3660   -3.3870   26.6450 N   0  0  0  0  0  0  0  0  0  0  0  0
    5.7290   -3.9910   27.8470 C   0  0  1  0  0  0  0  0  0  0  0  0
    6.6120   -4.9420   28.5640 C   0  0  0  0  0  0  0  0  0  0  0  0
    5.3680   -2.9480   28.9200 C   0  0  0  0  0  0  0  0  0  0  0  0
    4.3350   -2.6670   29.9250 N   0  0  0  0  0  0  0  0  0  0  0  0
    4.8130   -1.3980   30.5430 C   0  0  0  0  0  0  0  0  0  0  0  0
    4.0960   -0.6670   31.6590 C   0  0  0  0  0  0  0  0  0  0  0  0
    6.1080   -0.7550   30.0500 C   0  0  0  0  0  0  0  0  0  0  0  0
    6.4740    0.4120   30.6660 C   0  0  0  0  0  0  0  0  0  0  0  0
    6.9230    1.3100   29.8780 O   0  0  0  0  0  0  0  0  0  0  0  0
    6.3790    0.6370   31.8880 O   0  0  0  0  0  0  0  0  0  0  0  0
    7.5440    0.9530   32.5620 C   0  0  0  0  0  0  0  0  0  0  0  0
    7.7970    2.4030   32.9240 C   0  0  0  0  0  0  0  0  0  0  0  0
    8.6640    0.5180   31.6650 C   0  0  0  0  0  0  0  0  0  0  0  0
    7.6660    0.1050   33.7940 C   0  0  0  0  0  0  0  0  0  0  0  0
    6.6840   -1.7910   28.8120 S   0  0  0  0  0  0  0  0  0  0  0  0
    6.1410   -5.0970   23.7850 C   0  0  0  0  0  0  0  0  0  0  0  0
    6.4900   -5.3250   22.3620 C   0  0  0  0  0  0  0  0  0  0  0  0
  1  2  1  0
  2  3  2  0
  2  4  1  0
  4  5  1  0
  5  6  1  0
  6  7  1  0
  7  8  1  0
  8  9  2  0
  8 10  1  0
 10 11  1  0
 11 12  1  1
 11 13  1  0
 13 14  2  0
 14 15  1  0
 15 16  1  0
 15 17  2  0
 17 18  1  0
 18 19  2  0
 18 20  1  0
 21 20  1  0
 21 22  1  0
 21 23  1  0
 21 24  1  0
 13 25  1  0
 17 25  1  0
  7 26  1  0
  4 27  1  0
 26 27  1  0
M  END
