piperidine-amides-12369-covalent
     RDKit          3D

 24 25  0  0  0  0  0  0  0  0999 V2000
    7.0890   -3.3010   19.2280 C   0  0  0  0  0  0  0  0  0  0  0  0
    6.3500   -4.0640   20.2280 C   0  0  0  0  0  0  0  0  0  0  0  0
    5.3010   -4.6220   19.9130 O   0  0  0  0  0  0  0  0  0  0  0  0
    6.8640   -4.2140   21.5600 N   0  0  0  0  0  0  0  0  0  0  0  0
    7.6840   -3.1810   22.1400 C   0  0  0  0  0  0  0  0  0  0  0  0
    7.0580   -2.6760   23.4040 C   0  0  0  0  0  0  0  0  0  0  0  0
    6.5230   -3.8660   24.1800 C   0  0  0  0  0  0  0  0  0  0  0  0
    5.7550   -3.3650   25.3500 C   0  0  0  0  0  0  0  0  0  0  0  0
    4.5510   -3.0470   25.2820 O   0  0  0  0  0  0  0  0  0  0  0  0
    6.4410   -3.2480   26.5760 N   0  0  0  0  0  0  0  0  0  0  0  0
    5.7630   -3.5780   27.8050 C   0  0  0  0  0  0  0  0  0  0  0  0
    5.8100   -5.0660   28.0960 C   0  0  0  0  0  0  0  0  0  0  0  0
    6.7470   -5.6550   28.9100 C   0  0  0  0  0  0  0  0  0  0  0  0
    5.7190   -5.8840   26.7920 C   0  0  0  0  0  0  0  0  0  0  0  0
    4.4580   -5.3830   28.8490 C   0  0  0  0  0  0  0  0  0  0  0  0
    4.3580   -6.8310   28.8980 C   0  0  0  0  0  0  0  0  0  0  0  0
    3.2970   -7.4550   29.4900 C   0  0  0  0  0  0  0  0  0  0  0  0
    2.2700   -6.7410   30.0670 C   0  0  0  0  0  0  0  0  0  0  0  0
    1.2690   -7.4710   30.6260 F   0  0  0  0  0  0  0  0  0  0  0  0
    2.3340   -5.3400   30.0380 C   0  0  0  0  0  0  0  0  0  0  0  0
    3.4550   -4.6060   29.4140 C   0  0  0  0  0  0  0  0  0  0  0  0
    3.4090   -2.8410   29.4490 Cl  0  0  0  0  0  0  0  0  0  0  0  0
    5.6840   -4.8250   23.3560 C   0  0  0  0  0  0  0  0  0  0  0  0
    6.5030   -5.3440   22.3610 C   0  0  0  0  0  0  0  0  0  0  0  0
  1  2  1  0
  2  3  2  0
  2  4  1  0
  4  5  1  0
  5  6  1  0
  6  7  1  0
  7  8  1  0
  8  9  2  0
  8 10  1  0
 10 11  1  0
 12 11  1  0
 12 13  1  0
 12 14  1  0
 12 15  1  0
 15 16  2  0
 16 17  1  0
 17 18  2  0
 18 19  1  0
 18 20  1  0
 15 21  1  0
 20 21  2  0
 21 22  1  0
  7 23  1  0
  4 24  1  0
 23 24  1  0
M  END
