piperidine-amides-30567-covalent
     RDKit          3D

 23 25  0  0  0  0  0  0  0  0999 V2000
    7.1140   -3.3410   19.2650 C   0  0  0  0  0  0  0  0  0  0  0  0
    6.4360   -4.1370   20.2850 C   0  0  0  0  0  0  0  0  0  0  0  0
    5.4090   -4.7730   19.9740 O   0  0  0  0  0  0  0  0  0  0  0  0
    6.9720   -4.2230   21.5800 N   0  0  0  0  0  0  0  0  0  0  0  0
    7.8410   -3.2080   22.1210 C   0  0  0  0  0  0  0  0  0  0  0  0
    7.1060   -2.6750   23.3030 C   0  0  0  0  0  0  0  0  0  0  0  0
    6.5230   -3.7760   24.1280 C   0  0  0  0  0  0  0  0  0  0  0  0
    5.7220   -3.2180   25.2330 C   0  0  0  0  0  0  0  0  0  0  0  0
    4.5770   -2.7300   25.0040 O   0  0  0  0  0  0  0  0  0  0  0  0
    6.1540   -3.2070   26.5630 N   0  0  0  0  0  0  0  0  0  0  0  0
    6.2730   -1.8780   27.2410 C   0  0  0  0  0  0  0  0  0  0  0  0
    5.6830   -0.6820   26.6270 C   0  0  0  0  0  0  0  0  0  0  0  0
    5.7870    0.6170   27.3060 C   0  0  0  0  0  0  0  0  0  0  0  0
    6.4940    0.7540   28.6320 C   0  0  0  0  0  0  0  0  0  0  0  0
    6.5930    2.4730   29.4830 Br  0  0  0  0  0  0  0  0  0  0  0  0
    7.1210   -0.4810   29.2790 C   0  0  0  0  0  0  0  0  0  0  0  0
    6.9740   -1.7610   28.5310 C   0  0  0  0  0  0  0  0  0  0  0  0
    5.7560   -4.3730   27.3020 C   0  0  0  0  0  0  0  0  0  0  0  0
    4.4280   -4.4720   27.5320 C   0  0  0  0  0  0  0  0  0  0  0  0
    4.7560   -4.6400   28.9230 C   0  0  0  0  0  0  0  0  0  0  0  0
    6.3180   -4.4990   28.8170 C   0  0  0  0  0  0  0  0  0  0  0  0
    5.7010   -4.7440   23.2470 C   0  0  0  0  0  0  0  0  0  0  0  0
    6.4530   -5.2650   22.4600 C   0  0  0  0  0  0  0  0  0  0  0  0
  1  2  1  0
  2  3  2  0
  2  4  1  0
  4  5  1  0
  5  6  1  0
  6  7  1  0
  7  8  1  0
  8  9  2  0
  8 10  1  0
 10 11  1  0
 11 12  2  0
 12 13  1  0
 13 14  2  0
 14 15  1  0
 14 16  1  0
 11 17  1  0
 16 17  2  0
 10 18  1  0
 18 19  1  0
 19 20  1  0
 18 21  1  0
 20 21  1  0
  7 22  1  0
  4 23  1  0
 22 23  1  0
M  END
