piperidine-amides-26154-covalent
     RDKit          3D

 25 26  0  0  0  0  0  0  0  0999 V2000
    7.0880   -3.3010   19.2940 C   0  0  0  0  0  0  0  0  0  0  0  0
    6.3710   -4.0990   20.2870 C   0  0  0  0  0  0  0  0  0  0  0  0
    5.3340   -4.6900   19.9440 O   0  0  0  0  0  0  0  0  0  0  0  0
    6.8610   -4.2630   21.5970 N   0  0  0  0  0  0  0  0  0  0  0  0
    6.6640   -5.5040   22.3290 C   0  0  0  0  0  0  0  0  0  0  0  0
    6.0380   -5.1560   23.6660 C   0  0  0  0  0  0  0  0  0  0  0  0
    5.9370   -3.6760   23.8520 C   0  0  0  0  0  0  0  0  0  0  0  0
    5.4130   -3.2740   25.1840 C   0  0  0  0  0  0  0  0  0  0  0  0
    4.1930   -2.9630   25.2900 O   0  0  0  0  0  0  0  0  0  0  0  0
    6.1550   -3.2070   26.3760 N   0  0  0  0  0  0  0  0  0  0  0  0
    5.9560   -4.3500   27.2950 C   0  0  0  0  0  0  0  0  0  0  0  0
    6.5030   -4.0540   28.6240 C   0  0  0  0  0  0  0  0  0  0  0  0
    6.6900   -5.0010   29.4210 O   0  0  0  0  0  0  0  0  0  0  0  0
    6.5420   -6.2620   28.9730 C   0  0  0  0  0  0  0  0  0  0  0  0
    6.4800   -1.9010   26.8370 C   0  0  0  0  0  0  0  0  0  0  0  0
    6.1750   -1.4190   28.2500 C   0  0  0  0  0  0  0  0  0  0  0  0
    7.3910   -1.1660   29.0610 C   0  0  0  0  0  0  0  0  0  0  0  0
    7.1900   -0.7170   30.3360 C   0  0  0  0  0  0  0  0  0  0  0  0
    5.8900   -0.5150   30.8270 C   0  0  0  0  0  0  0  0  0  0  0  0
    5.5530   -0.0140   32.2180 C   0  0  0  0  0  0  0  0  0  0  0  0
    4.4880   -0.7960   32.9910 C   0  0  0  0  0  0  0  0  0  0  0  0
    4.7510   -0.8200   29.8900 C   0  0  0  0  0  0  0  0  0  0  0  0
    4.9280   -1.2160   28.7620 C   0  0  0  0  0  0  0  0  0  0  0  0
    7.1520   -2.9210   23.5060 C   0  0  0  0  0  0  0  0  0  0  0  0
    7.6210   -3.2390   22.2560 C   0  0  0  0  0  0  0  0  0  0  0  0
  1  2  1  0
  2  3  2  0
  2  4  1  0
  4  5  1  0
  5  6  1  0
  6  7  1  0
  7  8  1  0
  8  9  2  0
  8 10  1  0
 10 11  1  0
 11 12  1  0
 12 13  1  0
 13 14  1  0
 10 15  1  0
 15 16  1  0
 16 17  2  0
 17 18  1  0
 18 19  2  0
 19 20  1  0
 20 21  1  0
 19 22  1  0
 16 23  1  0
 22 23  2  0
  7 24  1  0
  4 25  1  0
 24 25  1  0
M  END
