piperidine-amides-1517-covalent
     RDKit          3D

 21 22  0  0  0  0  0  0  0  0999 V2000
    7.1120   -3.2860   19.2490 C   0  0  0  0  0  0  0  0  0  0  0  0
    6.3170   -4.0360   20.2600 C   0  0  0  0  0  0  0  0  0  0  0  0
    5.2680   -4.5910   19.8990 O   0  0  0  0  0  0  0  0  0  0  0  0
    6.7930   -4.1440   21.5890 N   0  0  0  0  0  0  0  0  0  0  0  0
    6.6210   -5.3760   22.3360 C   0  0  0  0  0  0  0  0  0  0  0  0
    6.1640   -5.0770   23.7830 C   0  0  0  0  0  0  0  0  0  0  0  0
    6.0860   -3.5980   24.0080 C   0  0  0  0  0  0  0  0  0  0  0  0
    5.5940   -3.1950   25.3510 C   0  0  0  0  0  0  0  0  0  0  0  0
    4.4880   -2.6510   25.3720 O   0  0  0  0  0  0  0  0  0  0  0  0
    6.3430   -3.4210   26.5140 N   0  0  0  0  0  0  0  0  0  0  0  0
    6.1010   -4.4000   27.5200 C   0  0  0  0  0  0  0  0  0  0  0  0
    6.1500   -5.7610   27.2980 C   0  0  0  0  0  0  0  0  0  0  0  0
    4.9580   -6.3800   27.8510 N   0  0  0  0  0  0  0  0  0  0  0  0
    4.8990   -7.0240   29.0520 C   0  0  0  0  0  0  0  0  0  0  0  0
    5.9980   -7.1490   29.8680 C   0  0  0  0  0  0  0  0  0  0  0  0
    3.6390   -7.4520   29.2040 N   0  0  0  0  0  0  0  0  0  0  0  0
    2.9660   -7.0780   28.1240 N   0  0  0  0  0  0  0  0  0  0  0  0
    3.7680   -6.4050   27.2540 C   0  0  0  0  0  0  0  0  0  0  0  0
    3.3040   -5.7270   25.6820 S   0  0  0  0  0  0  0  0  0  0  0  0
    7.3860   -2.9620   23.6290 C   0  0  0  0  0  0  0  0  0  0  0  0
    7.6670   -3.1620   22.1540 C   0  0  0  0  0  0  0  0  0  0  0  0
  1  2  1  0
  2  3  2  0
  2  4  1  0
  4  5  1  0
  5  6  1  0
  6  7  1  0
  7  8  1  0
  8  9  2  0
  8 10  1  0
 10 11  1  0
 11 12  1  0
 12 13  1  0
 13 14  1  0
 14 15  1  0
 14 16  2  0
 16 17  1  0
 13 18  1  0
 17 18  2  0
 18 19  1  0
  7 20  1  0
  4 21  1  0
 20 21  1  0
M  END
