piperidine-amides-5251-covalent
     RDKit          3D

 21 23  0  0  0  0  0  0  0  0999 V2000
    7.0590   -3.3390   19.2590 C   0  0  0  0  0  0  0  0  0  0  0  0
    6.3790   -4.1450   20.2980 C   0  0  0  0  0  0  0  0  0  0  0  0
    5.3340   -4.7240   19.9470 O   0  0  0  0  0  0  0  0  0  0  0  0
    6.9220   -4.2930   21.5870 N   0  0  0  0  0  0  0  0  0  0  0  0
    6.5500   -5.3970   22.4010 C   0  0  0  0  0  0  0  0  0  0  0  0
    6.1290   -5.0190   23.7570 C   0  0  0  0  0  0  0  0  0  0  0  0
    6.6610   -3.7250   24.2640 C   0  0  0  0  0  0  0  0  0  0  0  0
    5.8550   -3.2780   25.4310 C   0  0  0  0  0  0  0  0  0  0  0  0
    4.6170   -3.4250   25.3700 O   0  0  0  0  0  0  0  0  0  0  0  0
    6.4350   -2.6880   26.5800 N   0  0  0  0  0  0  0  0  0  0  0  0
    5.7910   -1.5130   27.2120 C   0  0  2  0  0  0  0  0  0  0  0  0
    5.9570   -0.2990   26.3710 C   0  0  0  0  0  0  0  0  0  0  0  0
    5.8770    0.9760   27.0520 C   0  0  0  0  0  0  0  0  0  0  0  0
    6.0910    0.9400   28.3990 C   0  0  0  0  0  0  0  0  0  0  0  0
    5.8690   -0.2410   29.0750 C   0  0  1  0  0  0  0  0  0  0  0  0
    5.9610   -1.3630   28.6630 C   0  0  2  0  0  0  0  0  0  0  0  0
    7.1380   -0.8920   29.4570 C   0  0  0  0  0  0  0  0  0  0  0  0
    7.3530   -1.1080   30.8130 F   0  0  0  0  0  0  0  0  0  0  0  0
    8.2010   -1.1240   28.6920 F   0  0  0  0  0  0  0  0  0  0  0  0
    6.8630   -2.6750   23.2450 C   0  0  0  0  0  0  0  0  0  0  0  0
    7.6290   -3.2010   22.2100 C   0  0  0  0  0  0  0  0  0  0  0  0
  1  2  1  0
  2  3  2  0
  2  4  1  0
  4  5  1  0
  5  6  1  0
  6  7  1  0
  7  8  1  0
  8  9  2  0
  8 10  1  0
 11 10  1  6
 11 12  1  0
 12 13  1  0
 13 14  1  0
 15 14  1  6
 11 16  1  0
 15 16  1  0
 15 17  1  0
 16 17  1  6
 17 18  1  0
 17 19  1  0
  7 20  1  0
  4 21  1  0
 20 21  1  0
M  END
