piperidine-amides-11721-covalent
     RDKit          3D

 28 30  0  0  0  0  0  0  0  0999 V2000
    7.0610   -3.3560   19.3150 C   0  0  0  0  0  0  0  0  0  0  0  0
    6.3770   -4.1800   20.3090 C   0  0  0  0  0  0  0  0  0  0  0  0
    5.3820   -4.8270   19.9820 O   0  0  0  0  0  0  0  0  0  0  0  0
    6.8930   -4.2900   21.6460 N   0  0  0  0  0  0  0  0  0  0  0  0
    7.8020   -3.2780   22.1360 C   0  0  0  0  0  0  0  0  0  0  0  0
    7.6120   -3.0770   23.6020 C   0  0  0  0  0  0  0  0  0  0  0  0
    6.2340   -3.6020   23.9230 C   0  0  0  0  0  0  0  0  0  0  0  0
    5.8580   -3.2520   25.3140 C   0  0  0  0  0  0  0  0  0  0  0  0
    4.8570   -3.7360   25.8770 O   0  0  0  0  0  0  0  0  0  0  0  0
    6.6630   -2.3130   26.0050 N   0  0  0  0  0  0  0  0  0  0  0  0
    6.1030   -1.6470   27.1530 C   0  0  1  0  0  0  0  0  0  0  0  0
    7.1470   -1.4290   28.2080 C   0  0  0  0  0  0  0  0  0  0  0  0
    6.8310   -0.6100   29.2460 C   0  0  0  0  0  0  0  0  0  0  0  0
    6.2750    0.6250   28.9500 C   0  0  0  0  0  0  0  0  0  0  0  0
    5.6040    0.7670   27.7500 C   0  0  0  0  0  0  0  0  0  0  0  0
    5.5440   -0.2820   26.7250 C   0  0  1  0  0  0  0  0  0  0  0  0
    5.7580    0.0630   25.4040 C   0  0  0  0  0  0  0  0  0  0  0  0
    6.4860    1.1930   25.0400 C   0  0  0  0  0  0  0  0  0  0  0  0
    6.7200    1.5900   23.7200 C   0  0  0  0  0  0  0  0  0  0  0  0
    6.2120    0.8340   22.5810 C   0  0  0  0  0  0  0  0  0  0  0  0
    6.3450    1.0890   21.2290 C   0  0  0  0  0  0  0  0  0  0  0  0
    5.2520    1.5250   20.6180 F   0  0  0  0  0  0  0  0  0  0  0  0
    6.7890    0.0080   20.4610 F   0  0  0  0  0  0  0  0  0  0  0  0
    7.3260    2.1150   21.1290 F   0  0  0  0  0  0  0  0  0  0  0  0
    5.4410   -0.3670   22.9550 C   0  0  0  0  0  0  0  0  0  0  0  0
    5.2370   -0.7250   24.3850 C   0  0  0  0  0  0  0  0  0  0  0  0
    6.0900   -5.0860   23.7710 C   0  0  0  0  0  0  0  0  0  0  0  0
    6.6630   -5.4800   22.4190 C   0  0  0  0  0  0  0  0  0  0  0  0
  1  2  1  0
  2  3  2  0
  2  4  1  0
  4  5  1  0
  5  6  1  0
  6  7  1  0
  7  8  1  0
  8  9  2  0
  8 10  1  0
 11 10  1  6
 11 12  1  0
 12 13  1  0
 13 14  1  0
 14 15  1  0
 11 16  1  0
 15 16  1  0
 16 17  1  6
 17 18  2  0
 18 19  1  0
 19 20  2  0
 20 21  1  0
 21 22  1  0
 21 23  1  0
 21 24  1  0
 20 25  1  0
 17 26  1  0
 25 26  2  0
  7 27  1  0
  4 28  1  0
 27 28  1  0
M  END
