piperidine-amides-13182-covalent
     RDKit          3D

 19 20  0  0  0  0  0  0  0  0999 V2000
    7.0800   -3.3330   19.2630 C   0  0  0  0  0  0  0  0  0  0  0  0
    6.3210   -4.0860   20.2810 C   0  0  0  0  0  0  0  0  0  0  0  0
    5.2620   -4.6160   19.9010 O   0  0  0  0  0  0  0  0  0  0  0  0
    6.8070   -4.2370   21.5840 N   0  0  0  0  0  0  0  0  0  0  0  0
    7.5370   -3.1660   22.1890 C   0  0  0  0  0  0  0  0  0  0  0  0
    7.0330   -2.7500   23.5010 C   0  0  0  0  0  0  0  0  0  0  0  0
    6.4760   -3.8540   24.3000 C   0  0  0  0  0  0  0  0  0  0  0  0
    5.7000   -3.3790   25.4910 C   0  0  0  0  0  0  0  0  0  0  0  0
    4.4510   -3.3460   25.4350 O   0  0  0  0  0  0  0  0  0  0  0  0
    6.3310   -2.9670   26.6870 N   0  0  0  0  0  0  0  0  0  0  0  0
    6.6980   -1.5570   27.0010 C   0  0  1  0  0  0  0  0  0  0  0  0
    5.6700   -0.5760   26.5700 C   0  0  0  0  0  0  0  0  0  0  0  0
    5.5550    0.6610   27.3380 C   0  0  0  0  0  0  0  0  0  0  0  0
    6.1450    0.7310   28.5830 C   0  0  1  0  0  0  0  0  0  0  0  0
    5.6200    1.5770   29.3320 O   0  0  0  0  0  0  0  0  0  0  0  0
    6.4920   -0.4900   29.1330 C   0  0  0  0  0  0  0  0  0  0  0  0
    7.1410   -1.4110   28.3720 C   0  0  0  0  0  0  0  0  0  0  0  0
    5.7580   -4.9210   23.5310 C   0  0  0  0  0  0  0  0  0  0  0  0
    6.4480   -5.3400   22.4300 C   0  0  0  0  0  0  0  0  0  0  0  0
  1  2  1  0
  2  3  2  0
  2  4  1  0
  4  5  1  0
  5  6  1  0
  6  7  1  0
  7  8  1  0
  8  9  2  0
  8 10  1  0
 11 10  1  1
 11 12  1  0
 12 13  1  0
 13 14  1  0
 14 15  1  1
 14 16  1  0
 11 17  1  0
 16 17  1  0
  7 18  1  0
  4 19  1  0
 18 19  1  0
M  END
