piperidine-amides-2323-covalent
     RDKit          3D

 27 29  0  0  0  0  0  0  0  0999 V2000
    7.0680   -3.3460   19.3680 C   0  0  0  0  0  0  0  0  0  0  0  0
    6.3580   -4.1700   20.3760 C   0  0  0  0  0  0  0  0  0  0  0  0
    5.3820   -4.8100   19.9800 O   0  0  0  0  0  0  0  0  0  0  0  0
    6.8340   -4.2200   21.6950 N   0  0  0  0  0  0  0  0  0  0  0  0
    7.7290   -3.2070   22.2150 C   0  0  0  0  0  0  0  0  0  0  0  0
    7.4370   -2.9750   23.6660 C   0  0  0  0  0  0  0  0  0  0  0  0
    6.0780   -3.5820   23.9600 C   0  0  0  0  0  0  0  0  0  0  0  0
    5.6890   -3.3030   25.3590 C   0  0  0  0  0  0  0  0  0  0  0  0
    4.5220   -3.5290   25.7070 O   0  0  0  0  0  0  0  0  0  0  0  0
    6.6010   -2.7710   26.2920 N   0  0  0  0  0  0  0  0  0  0  0  0
    6.4230   -1.3900   26.6810 C   0  0  0  0  0  0  0  0  0  0  0  0
    5.8980   -0.3480   25.7470 C   0  0  0  0  0  0  0  0  0  0  0  0
    5.8670    0.8750   26.5230 N   0  0  0  0  0  0  0  0  0  0  0  0
    6.2890    0.7090   27.7540 N   0  0  0  0  0  0  0  0  0  0  0  0
    6.2890    1.7900   28.5500 C   0  0  0  0  0  0  0  0  0  0  0  0
    5.3670    1.4730   29.4560 C   0  0  0  0  0  0  0  0  0  0  0  0
    5.0280    2.2440   30.4510 C   0  0  0  0  0  0  0  0  0  0  0  0
    5.5490    3.5730   30.7950 C   0  0  0  0  0  0  0  0  0  0  0  0
    5.1040    4.6160   32.1220 Cl  0  0  0  0  0  0  0  0  0  0  0  0
    6.6020    3.9260   29.7520 C   0  0  0  0  0  0  0  0  0  0  0  0
    7.0920    3.0900   28.5210 C   0  0  0  0  0  0  0  0  0  0  0  0
    6.6760   -0.6860   27.9800 C   0  0  0  0  0  0  0  0  0  0  0  0
    7.2010   -1.4530   29.1190 C   0  0  0  0  0  0  0  0  0  0  0  0
    7.0020   -0.7630   30.4530 C   0  0  0  0  0  0  0  0  0  0  0  0
    6.3130   -2.6960   29.1520 C   0  0  0  0  0  0  0  0  0  0  0  0
    6.0920   -5.0890   23.7230 C   0  0  0  0  0  0  0  0  0  0  0  0
    6.6590   -5.4210   22.5020 C   0  0  0  0  0  0  0  0  0  0  0  0
  1  2  1  0
  2  3  2  0
  2  4  1  0
  4  5  1  0
  5  6  1  0
  6  7  1  0
  7  8  1  0
  8  9  2  0
  8 10  1  0
 10 11  1  0
 11 12  1  0
 12 13  2  0
 13 14  1  0
 14 15  1  0
 15 16  2  0
 16 17  1  0
 17 18  2  0
 18 19  1  0
 18 20  1  0
 15 21  1  0
 20 21  2  0
 11 22  2  0
 14 22  1  0
 22 23  1  0
 23 24  1  0
 23 25  1  0
  7 26  1  0
  4 27  1  0
 26 27  1  0
M  END
