piperidine-amides-30698-covalent
     RDKit          3D

 27 29  0  0  0  0  0  0  0  0999 V2000
    7.0180   -3.3840   19.3770 C   0  0  0  0  0  0  0  0  0  0  0  0
    6.3690   -4.2430   20.3770 C   0  0  0  0  0  0  0  0  0  0  0  0
    5.4230   -4.9610   20.0110 O   0  0  0  0  0  0  0  0  0  0  0  0
    6.8280   -4.2830   21.7130 N   0  0  0  0  0  0  0  0  0  0  0  0
    7.7590   -3.2590   22.1700 C   0  0  0  0  0  0  0  0  0  0  0  0
    7.5610   -3.0250   23.6380 C   0  0  0  0  0  0  0  0  0  0  0  0
    6.3250   -3.6760   24.1650 C   0  0  0  0  0  0  0  0  0  0  0  0
    6.1670   -3.2780   25.6000 C   0  0  0  0  0  0  0  0  0  0  0  0
    6.5760   -2.1440   25.9040 O   0  0  0  0  0  0  0  0  0  0  0  0
    5.5390   -3.9610   26.6760 N   0  0  0  0  0  0  0  0  0  0  0  0
    4.1700   -3.4100   27.0610 C   0  0  0  0  0  0  0  0  0  0  0  0
    3.8660   -4.1490   28.3120 C   0  0  0  0  0  0  0  0  0  0  0  0
    4.9410   -5.0180   28.1620 C   0  0  2  0  0  0  0  0  0  0  0  0
    5.5650   -5.9510   29.1260 C   0  0  0  0  0  0  0  0  0  0  0  0
    6.8490   -5.5680   28.4570 C   0  0  0  0  0  0  0  0  0  0  0  0
    6.2460   -4.3170   27.8940 C   0  0  1  0  0  0  0  0  0  0  0  0
    6.5010   -3.1450   28.5870 C   0  0  0  0  0  0  0  0  0  0  0  0
    6.1210   -1.9050   27.9070 N   0  0  0  0  0  0  0  0  0  0  0  0
    5.9570   -0.8000   28.8420 C   0  0  0  0  0  0  0  0  0  0  0  0
    6.7750   -0.7490   29.9740 O   0  0  0  0  0  0  0  0  0  0  0  0
    5.0080    0.1960   28.6190 O   0  0  0  0  0  0  0  0  0  0  0  0
    5.3970    1.4080   28.0200 C   0  0  0  0  0  0  0  0  0  0  0  0
    6.5510    2.1470   28.7040 C   0  0  0  0  0  0  0  0  0  0  0  0
    5.8050    1.0390   26.5870 C   0  0  0  0  0  0  0  0  0  0  0  0
    4.2930    2.4590   27.9100 C   0  0  0  0  0  0  0  0  0  0  0  0
    6.2370   -5.1170   23.8670 C   0  0  0  0  0  0  0  0  0  0  0  0
    6.6150   -5.4300   22.5650 C   0  0  0  0  0  0  0  0  0  0  0  0
  1  2  1  0
  2  3  2  0
  2  4  1  0
  4  5  1  0
  5  6  1  0
  6  7  1  0
  7  8  1  0
  8  9  2  0
  8 10  1  0
 10 11  1  0
 11 12  1  0
 13 12  1  1
 13 14  1  0
 14 15  1  0
 10 16  1  0
 13 16  1  0
 15 16  1  0
 16 17  1  1
 17 18  1  0
 18 19  1  0
 19 20  2  0
 19 21  1  0
 22 21  1  0
 22 23  1  0
 22 24  1  0
 22 25  1  0
  7 26  1  0
  4 27  1  0
 26 27  1  0
M  END
