piperidine-amides-5223-covalent
     RDKit          3D

 21 22  0  0  0  0  0  0  0  0999 V2000
    7.0350   -3.3460   19.3350 C   0  0  0  0  0  0  0  0  0  0  0  0
    6.3690   -4.2320   20.3170 C   0  0  0  0  0  0  0  0  0  0  0  0
    5.3130   -4.7730   19.9500 O   0  0  0  0  0  0  0  0  0  0  0  0
    6.9400   -4.4860   21.5740 N   0  0  0  0  0  0  0  0  0  0  0  0
    6.5610   -5.6470   22.3080 C   0  0  0  0  0  0  0  0  0  0  0  0
    5.9270   -5.3370   23.5910 C   0  0  0  0  0  0  0  0  0  0  0  0
    5.9500   -3.9060   23.9470 C   0  0  0  0  0  0  0  0  0  0  0  0
    5.5690   -3.7410   25.3730 C   0  0  0  0  0  0  0  0  0  0  0  0
    5.3660   -4.7540   26.0420 O   0  0  0  0  0  0  0  0  0  0  0  0
    5.3940   -2.4900   25.9780 N   0  0  0  0  0  0  0  0  0  0  0  0
    6.4850   -1.5290   26.2040 C   0  0  0  0  0  0  0  0  0  0  0  0
    7.3330   -1.1820   25.0100 C   0  0  0  0  0  0  0  0  0  0  0  0
    8.4130   -1.7980   24.7930 O   0  0  0  0  0  0  0  0  0  0  0  0
    6.9750   -0.1480   24.0880 N   0  0  0  0  0  0  0  0  0  0  0  0
    8.0370    0.3350   23.2200 C   0  0  0  0  0  0  0  0  0  0  0  0
    7.8520    1.6960   23.2650 C   0  0  0  0  0  0  0  0  0  0  0  0
    7.6950    0.0040   21.7470 C   0  0  0  0  0  0  0  0  0  0  0  0
    6.7980   -1.2230   27.5950 C   0  0  0  0  0  0  0  0  0  0  0  0
    6.0710   -0.2990   26.9670 C   0  0  0  0  0  0  0  0  0  0  0  0
    7.1960   -3.2030   23.5670 C   0  0  0  0  0  0  0  0  0  0  0  0
    7.6190   -3.4220   22.2610 C   0  0  0  0  0  0  0  0  0  0  0  0
  1  2  1  0
  2  3  2  0
  2  4  1  0
  4  5  1  0
  5  6  1  0
  6  7  1  0
  7  8  1  0
  8  9  2  0
  8 10  1  0
 10 11  1  0
 11 12  1  0
 12 13  2  0
 12 14  1  0
 14 15  1  0
 15 16  1  0
 15 17  1  0
 11 18  1  0
 11 19  1  0
 18 19  1  0
  7 20  1  0
  4 21  1  0
 20 21  1  0
M  END
