piperidine-amides-30166-covalent
     RDKit          3D

 26 28  0  0  0  0  0  0  0  0999 V2000
    7.0700   -3.3030   19.2100 C   0  0  0  0  0  0  0  0  0  0  0  0
    6.3050   -4.0900   20.1740 C   0  0  0  0  0  0  0  0  0  0  0  0
    5.2110   -4.5430   19.8660 O   0  0  0  0  0  0  0  0  0  0  0  0
    6.8500   -4.4010   21.4600 N   0  0  0  0  0  0  0  0  0  0  0  0
    6.3690   -5.5730   22.1460 C   0  0  0  0  0  0  0  0  0  0  0  0
    5.4920   -5.1840   23.3140 C   0  0  0  0  0  0  0  0  0  0  0  0
    6.2470   -4.1500   24.1320 C   0  0  0  0  0  0  0  0  0  0  0  0
    5.5050   -3.7600   25.3620 C   0  0  0  0  0  0  0  0  0  0  0  0
    4.2700   -3.8630   25.4900 O   0  0  0  0  0  0  0  0  0  0  0  0
    6.2700   -3.2180   26.4080 N   0  0  0  0  0  0  0  0  0  0  0  0
    6.9470   -4.1470   27.2990 C   0  0  0  0  0  0  0  0  0  0  0  0
    6.9400   -2.0570   25.9610 C   0  0  0  0  0  0  0  0  0  0  0  0
    8.0560   -2.3210   25.2180 C   0  0  0  0  0  0  0  0  0  0  0  0
    8.6770   -3.5560   25.0690 C   0  0  0  0  0  0  0  0  0  0  0  0
    9.8230   -3.4830   24.2680 N   0  0  0  0  0  0  0  0  0  0  0  0
    9.8570   -2.1950   23.9680 N   0  0  0  0  0  0  0  0  0  0  0  0
   10.8300   -1.6420   23.2980 C   0  0  0  0  0  0  0  0  0  0  0  0
   11.8170   -2.2920   22.5280 C   0  0  0  0  0  0  0  0  0  0  0  0
   12.8420   -1.7040   21.9250 C   0  0  0  0  0  0  0  0  0  0  0  0
   12.9880   -0.3710   22.0340 C   0  0  0  0  0  0  0  0  0  0  0  0
   12.0910    0.4330   22.7290 C   0  0  0  0  0  0  0  0  0  0  0  0
   12.3030    2.1670   22.8150 Cl  0  0  0  0  0  0  0  0  0  0  0  0
   10.9750   -0.2810   23.3680 C   0  0  0  0  0  0  0  0  0  0  0  0
    8.8520   -1.5240   24.4640 C   0  0  0  0  0  0  0  0  0  0  0  0
    6.4960   -2.9330   23.2890 C   0  0  0  0  0  0  0  0  0  0  0  0
    7.3980   -3.3150   22.1780 C   0  0  0  0  0  0  0  0  0  0  0  0
  1  2  1  0
  2  3  2  0
  2  4  1  0
  4  5  1  0
  5  6  1  0
  6  7  1  0
  7  8  1  0
  8  9  2  0
  8 10  1  0
 10 11  1  0
 10 12  1  0
 12 13  1  0
 13 14  1  0
 14 15  2  0
 15 16  1  0
 16 17  1  0
 17 18  2  0
 18 19  1  0
 19 20  2  0
 20 21  1  0
 21 22  1  0
 17 23  1  0
 21 23  2  0
 13 24  2  0
 16 24  1  0
  7 25  1  0
  4 26  1  0
 25 26  1  0
M  END
