piperidine-amides-30022-covalent
     RDKit          3D

 27 29  0  0  0  0  0  0  0  0999 V2000
    7.0530   -3.3460   19.3660 C   0  0  0  0  0  0  0  0  0  0  0  0
    6.3790   -4.2010   20.3360 C   0  0  0  0  0  0  0  0  0  0  0  0
    5.3980   -4.8660   19.9890 O   0  0  0  0  0  0  0  0  0  0  0  0
    6.8890   -4.3050   21.6770 N   0  0  0  0  0  0  0  0  0  0  0  0
    7.7360   -3.2370   22.1920 C   0  0  0  0  0  0  0  0  0  0  0  0
    7.5070   -3.0190   23.6560 C   0  0  0  0  0  0  0  0  0  0  0  0
    6.1500   -3.6060   23.9350 C   0  0  0  0  0  0  0  0  0  0  0  0
    5.6070   -3.2010   25.2610 C   0  0  0  0  0  0  0  0  0  0  0  0
    4.7360   -2.3230   25.3550 O   0  0  0  0  0  0  0  0  0  0  0  0
    6.0400   -3.8130   26.4520 N   0  0  0  0  0  0  0  0  0  0  0  0
    5.2850   -4.9850   26.7880 C   0  0  0  0  0  0  0  0  0  0  0  0
    4.5480   -4.6580   28.0580 C   0  0  0  0  0  0  0  0  0  0  0  0
    5.2090   -4.3440   29.1530 N   0  0  0  0  0  0  0  0  0  0  0  0
    5.2030   -5.4480   29.9040 C   0  0  0  0  0  0  0  0  0  0  0  0
    6.0940   -6.5510   29.7590 C   0  0  0  0  0  0  0  0  0  0  0  0
    5.9820   -7.6410   30.6050 C   0  0  0  0  0  0  0  0  0  0  0  0
    4.9640   -7.6170   31.6040 C   0  0  0  0  0  0  0  0  0  0  0  0
    4.1240   -6.5930   31.7430 C   0  0  0  0  0  0  0  0  0  0  0  0
    4.2260   -5.5120   30.9120 C   0  0  0  0  0  0  0  0  0  0  0  0
    3.3030   -4.4990   31.1440 O   0  0  0  0  0  0  0  0  0  0  0  0
    2.5760   -4.6380   32.3390 C   0  0  0  0  0  0  0  0  0  0  0  0
    3.4780   -4.5880   33.5010 C   0  0  0  0  0  0  0  0  0  0  0  0
    1.6930   -3.4140   32.5590 C   0  0  0  0  0  0  0  0  0  0  0  0
    6.3970   -3.6830   28.7230 C   0  0  0  0  0  0  0  0  0  0  0  0
    6.3900   -2.8800   27.4650 C   0  0  0  0  0  0  0  0  0  0  0  0
    6.1130   -5.0880   23.7940 C   0  0  0  0  0  0  0  0  0  0  0  0
    6.6640   -5.5070   22.4470 C   0  0  0  0  0  0  0  0  0  0  0  0
  1  2  1  0
  2  3  2  0
  2  4  1  0
  4  5  1  0
  5  6  1  0
  6  7  1  0
  7  8  1  0
  8  9  2  0
  8 10  1  0
 10 11  1  0
 11 12  1  0
 12 13  1  0
 13 14  1  0
 14 15  2  0
 15 16  1  0
 16 17  2  0
 17 18  1  0
 14 19  1  0
 18 19  2  0
 19 20  1  0
 20 21  1  0
 21 22  1  0
 21 23  1  0
 13 24  1  0
 10 25  1  0
 24 25  1  0
  7 26  1  0
  4 27  1  0
 26 27  1  0
M  END
