piperidine-amides-28864-covalent
     RDKit          3D

 25 27  0  0  0  0  0  0  0  0999 V2000
    7.0180   -3.3490   19.3340 C   0  0  0  0  0  0  0  0  0  0  0  0
    6.3470   -4.2080   20.3100 C   0  0  0  0  0  0  0  0  0  0  0  0
    5.3320   -4.8260   19.9610 O   0  0  0  0  0  0  0  0  0  0  0  0
    6.8850   -4.3500   21.6050 N   0  0  0  0  0  0  0  0  0  0  0  0
    6.6040   -5.5540   22.3470 C   0  0  0  0  0  0  0  0  0  0  0  0
    5.7810   -5.2560   23.5810 C   0  0  0  0  0  0  0  0  0  0  0  0
    5.9210   -3.7860   23.9140 C   0  0  0  0  0  0  0  0  0  0  0  0
    5.5080   -3.4560   25.3240 C   0  0  0  0  0  0  0  0  0  0  0  0
    4.4640   -2.8180   25.4150 O   0  0  0  0  0  0  0  0  0  0  0  0
    6.2770   -3.8560   26.4170 N   0  0  0  0  0  0  0  0  0  0  0  0
    6.0340   -3.3680   27.7440 C   0  0  0  0  0  0  0  0  0  0  0  0
    5.4040   -4.2620   28.6050 C   0  0  1  0  0  0  0  0  0  0  0  0
    4.2550   -3.8220   29.2280 C   0  0  0  0  0  0  0  0  0  0  0  0
    4.1480   -2.4630   29.5500 C   0  0  0  0  0  0  0  0  0  0  0  0
    2.8780   -2.0280   30.2290 C   0  0  0  0  0  0  0  0  0  0  0  0
    1.7680   -3.0450   30.5450 C   0  0  0  0  0  0  0  0  0  0  0  0
    1.9250   -4.4600   30.1910 C   0  0  0  0  0  0  0  0  0  0  0  0
    0.7090   -5.6770   30.5160 Cl  0  0  0  0  0  0  0  0  0  0  0  0
    3.2400   -4.7220   29.5230 C   0  0  0  0  0  0  0  0  0  0  0  0
    5.0690   -5.3430   28.1100 O   0  0  0  0  0  0  0  0  0  0  0  0
    6.1960   -5.9300   27.5880 C   0  0  0  0  0  0  0  0  0  0  0  0
    6.9780   -5.0140   26.9560 C   0  0  1  0  0  0  0  0  0  0  0  0
    7.8100   -5.4850   25.9640 C   0  0  0  0  0  0  0  0  0  0  0  0
    7.2840   -3.2860   23.6650 C   0  0  0  0  0  0  0  0  0  0  0  0
    7.6110   -3.2820   22.2180 C   0  0  0  0  0  0  0  0  0  0  0  0
  1  2  1  0
  2  3  2  0
  2  4  1  0
  4  5  1  0
  5  6  1  0
  6  7  1  0
  7  8  1  0
  8  9  2  0
  8 10  1  0
 10 11  1  0
 11 12  1  0
 12 13  1  6
 13 14  2  0
 14 15  1  0
 15 16  2  0
 16 17  1  0
 17 18  1  0
 13 19  1  0
 17 19  2  0
 12 20  1  0
 20 21  1  0
 10 22  1  0
 21 22  1  0
 22 23  1  6
  7 24  1  0
  4 25  1  0
 24 25  1  0
M  END
