piperidine-amides-617-covalent
     RDKit          3D

 26 28  0  0  0  0  0  0  0  0999 V2000
    7.0590   -3.3550   19.3030 C   0  0  0  0  0  0  0  0  0  0  0  0
    6.3600   -4.0960   20.3350 C   0  0  0  0  0  0  0  0  0  0  0  0
    5.3480   -4.7670   19.9680 O   0  0  0  0  0  0  0  0  0  0  0  0
    6.7630   -4.1470   21.6920 N   0  0  0  0  0  0  0  0  0  0  0  0
    6.6550   -5.4780   22.3610 C   0  0  0  0  0  0  0  0  0  0  0  0
    6.0810   -5.1350   23.8010 C   0  0  0  0  0  0  0  0  0  0  0  0
    6.2250   -3.6460   23.9370 C   0  0  0  0  0  0  0  0  0  0  0  0
    5.5410   -2.9690   25.2040 C   0  0  0  0  0  0  0  0  0  0  0  0
    4.8130   -2.0670   24.8210 O   0  0  0  0  0  0  0  0  0  0  0  0
    5.8700   -3.5050   26.3130 N   0  0  0  0  0  0  0  0  0  0  0  0
    6.0510   -3.9650   27.5850 C   0  0  0  0  0  0  0  0  0  0  0  0
    5.9120   -5.0330   28.4150 C   0  0  0  0  0  0  0  0  0  0  0  0
    4.6130   -5.5600   28.6290 N   0  0  0  0  0  0  0  0  0  0  0  0
    4.8650   -6.5470   29.4680 C   0  0  0  0  0  0  0  0  0  0  0  0
    3.6430   -7.2810   29.8640 C   0  0  0  0  0  0  0  0  0  0  0  0
    3.8690   -6.7890   31.3040 C   0  0  0  0  0  0  0  0  0  0  0  0
    2.7970   -5.8840   31.5200 C   0  0  0  0  0  0  0  0  0  0  0  0
    2.4180   -5.0710   32.6740 C   0  0  0  0  0  0  0  0  0  0  0  0
    3.5800   -5.5170   33.6180 C   0  0  0  0  0  0  0  0  0  0  0  0
    4.7430   -6.5030   33.3760 C   0  0  0  0  0  0  0  0  0  0  0  0
    4.8540   -7.1100   32.2200 C   0  0  0  0  0  0  0  0  0  0  0  0
    5.8710   -7.9790   31.9840 F   0  0  0  0  0  0  0  0  0  0  0  0
    6.1990   -6.6690   29.7800 N   0  0  0  0  0  0  0  0  0  0  0  0
    6.8850   -5.7190   29.1260 O   0  0  0  0  0  0  0  0  0  0  0  0
    7.5700   -3.0870   23.5410 C   0  0  0  0  0  0  0  0  0  0  0  0
    7.6980   -3.1560   22.2020 C   0  0  0  0  0  0  0  0  0  0  0  0
  1  2  1  0
  2  3  2  0
  2  4  1  0
  4  5  1  0
  5  6  1  0
  6  7  1  0
  7  8  1  0
  8  9  2  0
  8 10  1  0
 10 11  1  0
 11 12  1  0
 12 13  2  0
 13 14  1  0
 14 15  1  0
 15 16  1  0
 16 17  2  0
 17 18  1  0
 18 19  2  0
 19 20  1  0
 16 21  1  0
 20 21  2  0
 21 22  1  0
 14 23  2  0
 12 24  1  0
 23 24  1  0
  7 25  1  0
  4 26  1  0
 25 26  1  0
M  END
