piperidine-amides-30173-covalent
     RDKit          3D

 27 30  0  0  0  0  0  0  0  0999 V2000
    7.1820   -4.0370   19.7210 C   0  0  0  0  0  0  0  0  0  0  0  0
    5.9640   -3.9390   20.3700 C   0  0  0  0  0  0  0  0  0  0  0  0
    4.9670   -4.1580   19.7000 O   0  0  0  0  0  0  0  0  0  0  0  0
    5.9960   -3.7040   21.7540 N   0  0  0  0  0  0  0  0  0  0  0  0
    7.0770   -2.8590   22.1750 C   0  0  0  0  0  0  0  0  0  0  0  0
    6.8740   -2.4980   23.6040 C   0  0  0  0  0  0  0  0  0  0  0  0
    6.9700   -3.7670   24.4200 C   0  0  0  0  0  0  0  0  0  0  0  0
    5.9030   -3.8180   25.4570 C   0  0  0  0  0  0  0  0  0  0  0  0
    4.7880   -4.2940   25.1840 O   0  0  0  0  0  0  0  0  0  0  0  0
    6.0510   -3.2990   26.7730 N   0  0  0  0  0  0  0  0  0  0  0  0
    4.8000   -2.7100   27.1290 C   0  0  0  0  0  0  0  0  0  0  0  0
    4.3510   -3.7550   28.0840 C   0  0  0  0  0  0  0  0  0  0  0  0
    5.3990   -4.0470   28.8510 C   0  0  2  0  0  0  0  0  0  0  0  0
    6.4090   -4.2210   27.9440 C   0  0  0  0  0  0  0  0  0  0  0  0
    5.0370   -4.9060   29.6950 O   0  0  0  0  0  0  0  0  0  0  0  0
    3.8830   -4.6570   30.4720 C   0  0  0  0  0  0  0  0  0  0  0  0
    3.1160   -5.7070   30.9280 O   0  0  0  0  0  0  0  0  0  0  0  0
    3.6350   -3.2850   30.7050 N   0  0  0  0  0  0  0  0  0  0  0  0
    4.7820   -2.5080   30.3680 C   0  0  0  0  0  0  0  0  0  0  0  0
    4.8310   -1.3250   31.1170 C   0  0  0  0  0  0  0  0  0  0  0  0
    3.8700   -1.0270   32.0110 F   0  0  0  0  0  0  0  0  0  0  0  0
    5.8820   -0.4450   30.9480 C   0  0  0  0  0  0  0  0  0  0  0  0
    6.8870   -0.7140   30.0500 C   0  0  0  0  0  0  0  0  0  0  0  0
    6.8120   -1.9380   29.2820 C   0  0  0  0  0  0  0  0  0  0  0  0
    5.7790   -2.8420   29.4220 C   0  0  0  0  0  0  0  0  0  0  0  0
    6.8110   -5.0140   23.5800 C   0  0  0  0  0  0  0  0  0  0  0  0
    5.7540   -4.8540   22.5490 C   0  0  0  0  0  0  0  0  0  0  0  0
  1  2  1  0
  2  3  2  0
  2  4  1  0
  4  5  1  0
  5  6  1  0
  6  7  1  0
  7  8  1  0
  8  9  2  0
  8 10  1  0
 10 11  1  0
 11 12  1  0
 13 12  1  6
 10 14  1  0
 13 14  1  0
 13 15  1  0
 15 16  1  0
 16 17  2  0
 16 18  1  0
 18 19  1  0
 19 20  2  0
 20 21  1  0
 20 22  1  0
 22 23  2  0
 23 24  1  0
 13 25  1  0
 19 25  1  0
 24 25  2  0
  7 26  1  0
  4 27  1  0
 26 27  1  0
M  END
