piperidine-amides-14361-covalent
     RDKit          3D

 22 23  0  0  0  0  0  0  0  0999 V2000
    7.0820   -3.2980   19.2530 C   0  0  0  0  0  0  0  0  0  0  0  0
    6.2940   -4.0440   20.2270 C   0  0  0  0  0  0  0  0  0  0  0  0
    5.2200   -4.5420   19.8640 O   0  0  0  0  0  0  0  0  0  0  0  0
    6.7840   -4.2300   21.5340 N   0  0  0  0  0  0  0  0  0  0  0  0
    6.5260   -5.4600   22.2200 C   0  0  0  0  0  0  0  0  0  0  0  0
    5.7340   -5.1370   23.4460 C   0  0  0  0  0  0  0  0  0  0  0  0
    5.6790   -3.6280   23.4690 C   0  0  0  0  0  0  0  0  0  0  0  0
    5.0220   -3.1400   24.7250 C   0  0  0  0  0  0  0  0  0  0  0  0
    3.8170   -3.3240   24.8370 O   0  0  0  0  0  0  0  0  0  0  0  0
    5.8050   -2.5320   25.6710 N   0  0  0  0  0  0  0  0  0  0  0  0
    6.7620   -3.3140   26.3160 C   0  0  0  0  0  0  0  0  0  0  0  0
    8.0450   -3.1020   25.8520 C   0  0  0  0  0  0  0  0  0  0  0  0
    8.4880   -2.0460   25.0830 C   0  0  0  0  0  0  0  0  0  0  0  0
    9.8270   -1.9190   24.6880 C   0  0  0  0  0  0  0  0  0  0  0  0
   10.7330   -3.0080   25.1700 C   0  0  0  0  0  0  0  0  0  0  0  0
   12.2250   -2.9020   24.7890 C   0  0  0  0  0  0  0  0  0  0  0  0
   10.1760   -4.0100   25.9190 C   0  0  0  0  0  0  0  0  0  0  0  0
   10.8180   -4.9280   26.3580 O   0  0  0  0  0  0  0  0  0  0  0  0
    9.8890   -5.4970   27.2480 C   0  0  0  0  0  0  0  0  0  0  0  0
    8.8900   -4.0460   26.2350 C   0  0  0  0  0  0  0  0  0  0  0  0
    7.0980   -3.1020   23.4740 C   0  0  0  0  0  0  0  0  0  0  0  0
    7.5500   -3.1940   22.1800 C   0  0  0  0  0  0  0  0  0  0  0  0
  1  2  1  0
  2  3  2  0
  2  4  1  0
  4  5  1  0
  5  6  1  0
  6  7  1  0
  7  8  1  0
  8  9  2  0
  8 10  1  0
 10 11  1  0
 11 12  1  0
 12 13  2  0
 13 14  1  0
 14 15  2  0
 15 16  1  0
 15 17  1  0
 17 18  1  0
 18 19  1  0
 12 20  1  0
 17 20  2  0
  7 21  1  0
  4 22  1  0
 21 22  1  0
M  END
