piperidine-amides-25006-covalent
     RDKit          3D

 24 25  0  0  0  0  0  0  0  0999 V2000
    7.0500   -3.3690   19.3930 C   0  0  0  0  0  0  0  0  0  0  0  0
    6.3720   -4.2260   20.3750 C   0  0  0  0  0  0  0  0  0  0  0  0
    5.3960   -4.9170   20.0040 O   0  0  0  0  0  0  0  0  0  0  0  0
    6.8320   -4.3190   21.7040 N   0  0  0  0  0  0  0  0  0  0  0  0
    6.6390   -5.5320   22.4500 C   0  0  0  0  0  0  0  0  0  0  0  0
    5.8740   -5.1240   23.7140 C   0  0  0  0  0  0  0  0  0  0  0  0
    6.6390   -4.0020   24.4110 C   0  0  0  0  0  0  0  0  0  0  0  0
    5.8490   -3.5520   25.6110 C   0  0  0  0  0  0  0  0  0  0  0  0
    4.6300   -3.3640   25.4080 O   0  0  0  0  0  0  0  0  0  0  0  0
    6.3850   -3.3130   26.9400 N   0  0  0  0  0  0  0  0  0  0  0  0
    5.6320   -2.4100   27.7670 C   0  0  0  0  0  0  0  0  0  0  0  0
    4.6880   -3.1800   28.7070 C   0  0  0  0  0  0  0  0  0  0  0  0
    4.6730   -4.5460   28.7120 C   0  0  0  0  0  0  0  0  0  0  0  0
    5.8020   -5.0760   28.2860 C   0  0  2  0  0  0  0  0  0  0  0  0
    6.2640   -6.1950   28.9690 C   0  0  0  0  0  0  0  0  0  0  0  0
    7.4920   -6.6700   28.8640 O   0  0  0  0  0  0  0  0  0  0  0  0
    5.2920   -6.7350   29.7170 N   0  0  0  0  0  0  0  0  0  0  0  0
    5.5730   -7.2580   31.0190 C   0  0  0  0  0  0  0  0  0  0  0  0
    4.3920   -7.5620   29.1610 C   0  0  0  0  0  0  0  0  0  0  0  0
    3.2160   -7.5950   30.1050 C   0  0  0  0  0  0  0  0  0  0  0  0
    3.2570   -8.2200   31.2130 O   0  0  0  0  0  0  0  0  0  0  0  0
    6.5480   -3.9660   28.2370 C   0  0  0  0  0  0  0  0  0  0  0  0
    6.8580   -2.8390   23.4580 C   0  0  0  0  0  0  0  0  0  0  0  0
    7.6010   -3.2760   22.3450 C   0  0  0  0  0  0  0  0  0  0  0  0
  1  2  1  0
  2  3  2  0
  2  4  1  0
  4  5  1  0
  5  6  1  0
  6  7  1  0
  7  8  1  0
  8  9  2  0
  8 10  1  0
 10 11  1  0
 11 12  1  0
 12 13  1  0
 13 14  1  0
 14 15  1  1
 15 16  2  0
 15 17  1  0
 17 18  1  0
 17 19  1  0
 19 20  1  0
 20 21  1  0
 10 22  1  0
 14 22  1  0
  7 23  1  0
  4 24  1  0
 23 24  1  0
M  END
