piperidine-amides-10623-covalent
     RDKit          3D

 25 27  0  0  0  0  0  0  0  0999 V2000
    7.1260   -3.2900   19.2140 C   0  0  0  0  0  0  0  0  0  0  0  0
    6.3250   -4.0000   20.2110 C   0  0  0  0  0  0  0  0  0  0  0  0
    5.2210   -4.4640   19.8380 O   0  0  0  0  0  0  0  0  0  0  0  0
    6.8220   -4.1880   21.4960 N   0  0  0  0  0  0  0  0  0  0  0  0
    7.6770   -3.1970   22.1110 C   0  0  0  0  0  0  0  0  0  0  0  0
    6.9570   -2.6530   23.3010 C   0  0  0  0  0  0  0  0  0  0  0  0
    6.5530   -3.7630   24.2160 C   0  0  0  0  0  0  0  0  0  0  0  0
    5.8710   -3.2200   25.4120 C   0  0  0  0  0  0  0  0  0  0  0  0
    4.6190   -3.1760   25.4250 O   0  0  0  0  0  0  0  0  0  0  0  0
    6.5960   -2.7590   26.5280 N   0  0  0  0  0  0  0  0  0  0  0  0
    6.0880   -1.7710   27.4460 C   0  0  0  0  0  0  0  0  0  0  0  0
    6.5340   -0.3360   27.1620 C   0  0  2  0  0  0  0  0  0  0  0  0
    6.7270    0.1380   25.8970 C   0  0  0  0  0  0  0  0  0  0  0  0
    6.7880    1.4980   25.7270 C   0  0  0  0  0  0  0  0  0  0  0  0
    7.1180    2.2120   26.8700 C   0  0  0  0  0  0  0  0  0  0  0  0
    7.7370    1.4850   27.8770 C   0  0  0  0  0  0  0  0  0  0  0  0
    8.6550    2.0640   28.7370 C   0  0  0  0  0  0  0  0  0  0  0  0
    9.3580    1.3210   29.8420 C   0  0  0  0  0  0  0  0  0  0  0  0
   10.2640    1.9240   30.6810 O   0  0  0  0  0  0  0  0  0  0  0  0
   11.0360    3.0490   30.5340 C   0  0  0  0  0  0  0  0  0  0  0  0
    9.0040    0.0050   29.9190 C   0  0  0  0  0  0  0  0  0  0  0  0
    7.9980   -0.6110   28.9710 C   0  0  0  0  0  0  0  0  0  0  0  0
    7.3860    0.1350   27.9760 C   0  0  0  0  0  0  0  0  0  0  0  0
    5.6650   -4.7380   23.4630 C   0  0  0  0  0  0  0  0  0  0  0  0
    6.4520   -5.3320   22.3020 C   0  0  0  0  0  0  0  0  0  0  0  0
  1  2  1  0
  2  3  2  0
  2  4  1  0
  4  5  1  0
  5  6  1  0
  6  7  1  0
  7  8  1  0
  8  9  2  0
  8 10  1  0
 10 11  1  0
 12 11  1  6
 12 13  1  0
 13 14  1  0
 14 15  1  0
 15 16  1  0
 16 17  2  0
 17 18  1  0
 18 19  1  0
 19 20  1  0
 18 21  2  0
 21 22  1  0
 12 23  1  0
 16 23  1  0
 22 23  2  0
  7 24  1  0
  4 25  1  0
 24 25  1  0
M  END
