piperidine-amides-24850-covalent
     RDKit          3D

 24 25  0  0  0  0  0  0  0  0999 V2000
    7.1410   -3.2720   19.2040 C   0  0  0  0  0  0  0  0  0  0  0  0
    6.3520   -4.0000   20.2090 C   0  0  0  0  0  0  0  0  0  0  0  0
    5.2800   -4.5580   19.8860 O   0  0  0  0  0  0  0  0  0  0  0  0
    6.8180   -4.1210   21.5190 N   0  0  0  0  0  0  0  0  0  0  0  0
    6.4950   -5.3160   22.2520 C   0  0  0  0  0  0  0  0  0  0  0  0
    5.8800   -4.8830   23.5960 C   0  0  0  0  0  0  0  0  0  0  0  0
    6.0730   -3.3820   23.7920 C   0  0  0  0  0  0  0  0  0  0  0  0
    5.8540   -3.0250   25.2040 C   0  0  0  0  0  0  0  0  0  0  0  0
    4.7830   -2.4710   25.5220 O   0  0  0  0  0  0  0  0  0  0  0  0
    6.8640   -3.3490   26.1390 N   0  0  0  0  0  0  0  0  0  0  0  0
    7.3250   -2.4410   27.1600 C   0  0  0  0  0  0  0  0  0  0  0  0
    6.1480   -1.6890   27.7450 C   0  0  0  0  0  0  0  0  0  0  0  0
    5.5880   -1.8610   28.9760 C   0  0  0  0  0  0  0  0  0  0  0  0
    6.6590   -1.0150   29.0110 C   0  0  0  0  0  0  0  0  0  0  0  0
    7.1550   -4.5560   26.8950 C   0  0  1  0  0  0  0  0  0  0  0  0
    7.9700   -5.1850   25.9870 C   0  0  0  0  0  0  0  0  0  0  0  0
    7.9500   -4.5420   28.1710 C   0  0  0  0  0  0  0  0  0  0  0  0
    8.8800   -5.7160   28.0920 C   0  0  0  0  0  0  0  0  0  0  0  0
    6.1780   -5.5030   27.1300 C   0  0  0  0  0  0  0  0  0  0  0  0
    5.6440   -6.1950   26.1600 O   0  0  0  0  0  0  0  0  0  0  0  0
    5.7270   -5.7210   28.4320 O   0  0  0  0  0  0  0  0  0  0  0  0
    5.4790   -7.0510   28.8350 C   0  0  0  0  0  0  0  0  0  0  0  0
    7.4560   -2.9620   23.4040 C   0  0  0  0  0  0  0  0  0  0  0  0
    7.6410   -3.0990   22.0730 C   0  0  0  0  0  0  0  0  0  0  0  0
  1  2  1  0
  2  3  2  0
  2  4  1  0
  4  5  1  0
  5  6  1  0
  6  7  1  0
  7  8  1  0
  8  9  2  0
  8 10  1  0
 10 11  1  0
 11 12  1  0
 12 13  1  0
 12 14  1  0
 13 14  1  0
 10 15  1  0
 15 16  1  6
 15 17  1  0
 17 18  1  0
 15 19  1  0
 19 20  2  0
 19 21  1  0
 21 22  1  0
  7 23  1  0
  4 24  1  0
 23 24  1  0
M  END
