piperidine-amides-8965-covalent
     RDKit          3D

 22 22  0  0  0  0  0  0  0  0999 V2000
    7.1190   -3.2930   19.2340 C   0  0  0  0  0  0  0  0  0  0  0  0
    6.3250   -4.0030   20.2300 C   0  0  0  0  0  0  0  0  0  0  0  0
    5.2660   -4.5500   19.8860 O   0  0  0  0  0  0  0  0  0  0  0  0
    6.7740   -4.1190   21.5570 N   0  0  0  0  0  0  0  0  0  0  0  0
    7.6810   -3.1630   22.1480 C   0  0  0  0  0  0  0  0  0  0  0  0
    7.0850   -2.7950   23.4780 C   0  0  0  0  0  0  0  0  0  0  0  0
    6.6900   -3.9960   24.2880 C   0  0  0  0  0  0  0  0  0  0  0  0
    5.9830   -3.6170   25.5320 C   0  0  0  0  0  0  0  0  0  0  0  0
    4.8150   -3.1160   25.4820 O   0  0  0  0  0  0  0  0  0  0  0  0
    6.5590   -3.7820   26.8140 N   0  0  0  0  0  0  0  0  0  0  0  0
    7.2100   -5.0640   27.1960 C   0  0  0  0  0  0  0  0  0  0  0  0
    6.2010   -5.9670   27.8380 C   0  0  0  0  0  0  0  0  0  0  0  0
    6.6230   -6.7500   29.0350 C   0  0  0  0  0  0  0  0  0  0  0  0
    5.7320   -7.9120   29.5270 C   0  0  0  0  0  0  0  0  0  0  0  0
    6.2580   -9.2270   29.2230 O   0  0  0  0  0  0  0  0  0  0  0  0
    7.3530   -9.6780   29.9780 C   0  0  0  0  0  0  0  0  0  0  0  0
    8.1650  -10.9580   29.7600 C   0  0  0  0  0  0  0  0  0  0  0  0
    8.1270  -11.9040   30.8030 F   0  0  0  0  0  0  0  0  0  0  0  0
    8.1450  -11.3640   28.5940 F   0  0  0  0  0  0  0  0  0  0  0  0
    9.5350  -10.8090   29.6800 F   0  0  0  0  0  0  0  0  0  0  0  0
    5.8280   -4.9390   23.4640 C   0  0  0  0  0  0  0  0  0  0  0  0
    6.4760   -5.3230   22.2830 C   0  0  0  0  0  0  0  0  0  0  0  0
  1  2  1  0
  2  3  2  0
  2  4  1  0
  4  5  1  0
  5  6  1  0
  6  7  1  0
  7  8  1  0
  8  9  2  0
  8 10  1  0
 10 11  1  0
 11 12  1  0
 12 13  1  0
 13 14  1  0
 14 15  1  0
 15 16  1  0
 16 17  1  0
 17 18  1  0
 17 19  1  0
 17 20  1  0
  7 21  1  0
  4 22  1  0
 21 22  1  0
M  END
