piperidine-amides-27661-covalent
     RDKit          3D

 26 28  0  0  0  0  0  0  0  0999 V2000
    7.0950   -3.2800   19.2240 C   0  0  0  0  0  0  0  0  0  0  0  0
    6.3670   -4.0380   20.2480 C   0  0  0  0  0  0  0  0  0  0  0  0
    5.2800   -4.5570   19.8850 O   0  0  0  0  0  0  0  0  0  0  0  0
    6.8970   -4.2070   21.5310 N   0  0  0  0  0  0  0  0  0  0  0  0
    6.5490   -5.3660   22.3070 C   0  0  0  0  0  0  0  0  0  0  0  0
    5.7880   -4.8810   23.5130 C   0  0  0  0  0  0  0  0  0  0  0  0
    6.5170   -3.8060   24.2950 C   0  0  0  0  0  0  0  0  0  0  0  0
    5.6090   -3.3020   25.3520 C   0  0  0  0  0  0  0  0  0  0  0  0
    4.5810   -2.6950   24.9820 O   0  0  0  0  0  0  0  0  0  0  0  0
    5.8320   -3.4670   26.7340 N   0  0  0  0  0  0  0  0  0  0  0  0
    6.1050   -2.3220   27.5460 C   0  0  0  0  0  0  0  0  0  0  0  0
    7.1940   -1.5010   26.9160 C   0  0  0  0  0  0  0  0  0  0  0  0
    5.7510   -4.6810   27.4590 C   0  0  2  0  0  0  0  0  0  0  0  0
    6.4580   -5.7030   26.9070 C   0  0  0  0  0  0  0  0  0  0  0  0
    7.7730   -5.4310   26.7580 C   0  0  0  0  0  0  0  0  0  0  0  0
    8.4030   -5.0970   25.5800 C   0  0  0  0  0  0  0  0  0  0  0  0
    9.7270   -4.8130   25.5150 C   0  0  0  0  0  0  0  0  0  0  0  0
   10.5670   -4.8610   26.7190 C   0  0  0  0  0  0  0  0  0  0  0  0
   12.0600   -4.4920   26.4290 C   0  0  0  0  0  0  0  0  0  0  0  0
    9.9300   -5.1930   27.8560 C   0  0  0  0  0  0  0  0  0  0  0  0
    8.4690   -5.5000   27.9220 C   0  0  0  0  0  0  0  0  0  0  0  0
    4.4400   -4.9260   27.7550 C   0  0  0  0  0  0  0  0  0  0  0  0
    4.0960   -5.9050   28.6480 C   0  0  0  0  0  0  0  0  0  0  0  0
    3.4830   -4.4350   28.7190 C   0  0  0  0  0  0  0  0  0  0  0  0
    7.0430   -2.7150   23.4170 C   0  0  0  0  0  0  0  0  0  0  0  0
    7.6440   -3.1430   22.1350 C   0  0  0  0  0  0  0  0  0  0  0  0
  1  2  1  0
  2  3  2  0
  2  4  1  0
  4  5  1  0
  5  6  1  0
  6  7  1  0
  7  8  1  0
  8  9  2  0
  8 10  1  0
 10 11  1  0
 11 12  1  0
 10 13  1  0
 13 14  1  6
 14 15  1  0
 15 16  2  0
 16 17  1  0
 17 18  2  0
 18 19  1  0
 18 20  1  0
 15 21  1  0
 20 21  2  0
 13 22  1  0
 22 23  1  0
 22 24  1  0
 23 24  1  0
  7 25  1  0
  4 26  1  0
 25 26  1  0
M  END
