piperidine-amides-30487-covalent
     RDKit          3D

 26 28  0  0  0  0  0  0  0  0999 V2000
    7.0500   -3.3840   19.4210 C   0  0  0  0  0  0  0  0  0  0  0  0
    6.3530   -4.2390   20.3880 C   0  0  0  0  0  0  0  0  0  0  0  0
    5.3710   -4.8890   19.9940 O   0  0  0  0  0  0  0  0  0  0  0  0
    6.7820   -4.3920   21.7230 N   0  0  0  0  0  0  0  0  0  0  0  0
    6.6850   -5.6660   22.3960 C   0  0  0  0  0  0  0  0  0  0  0  0
    6.2470   -5.3550   23.7950 C   0  0  0  0  0  0  0  0  0  0  0  0
    6.1750   -3.8830   23.9930 C   0  0  0  0  0  0  0  0  0  0  0  0
    5.6760   -3.4300   25.3360 C   0  0  0  0  0  0  0  0  0  0  0  0
    4.8830   -2.4450   25.3800 O   0  0  0  0  0  0  0  0  0  0  0  0
    5.9760   -4.0090   26.6070 N   0  0  0  0  0  0  0  0  0  0  0  0
    6.0630   -3.0970   27.7880 C   0  0  0  0  0  0  0  0  0  0  0  0
    5.6990   -3.7510   29.0700 C   0  0  0  0  0  0  0  0  0  0  0  0
    6.0860   -5.1540   29.2800 C   0  0  0  0  0  0  0  0  0  0  0  0
    5.0440   -6.0500   28.8500 N   0  0  0  0  0  0  0  0  0  0  0  0
    5.2100   -7.2960   29.6690 C   0  0  0  0  0  0  0  0  0  0  0  0
    6.0160   -8.3390   29.3140 O   0  0  0  0  0  0  0  0  0  0  0  0
    4.4650   -7.4850   30.9750 C   0  0  0  0  0  0  0  0  0  0  0  0
    5.4000   -7.3130   32.4930 S   0  0  0  0  0  0  0  0  0  0  0  0
    3.8340   -7.6770   33.4360 C   0  0  0  0  0  0  0  0  0  0  0  0
    2.7780   -7.8910   32.5960 N   0  0  0  0  0  0  0  0  0  0  0  0
    3.0130   -7.8090   31.1710 C   0  0  0  0  0  0  0  0  0  0  0  0
    2.1130   -7.9850   30.1150 C   0  0  0  0  0  0  0  0  0  0  0  0
    4.8480   -5.9540   27.5430 C   0  0  0  0  0  0  0  0  0  0  0  0
    6.0240   -5.4710   26.7700 C   0  0  0  0  0  0  0  0  0  0  0  0
    7.5370   -3.3250   23.5410 C   0  0  0  0  0  0  0  0  0  0  0  0
    7.5330   -3.2600   22.3200 C   0  0  0  0  0  0  0  0  0  0  0  0
  1  2  1  0
  2  3  2  0
  2  4  1  0
  4  5  1  0
  5  6  1  0
  6  7  1  0
  7  8  1  0
  8  9  2  0
  8 10  1  0
 10 11  1  0
 11 12  1  0
 12 13  1  0
 13 14  1  0
 14 15  1  0
 15 16  2  0
 15 17  1  0
 17 18  1  0
 18 19  1  0
 19 20  2  0
 17 21  2  0
 20 21  1  0
 21 22  1  0
 14 23  1  0
 10 24  1  0
 23 24  1  0
  7 25  1  0
  4 26  1  0
 25 26  1  0
M  END
