piperidine-amides-7326-covalent
     RDKit          3D

 19 20  0  0  0  0  0  0  0  0999 V2000
    7.0420   -3.3410   19.3300 C   0  0  0  0  0  0  0  0  0  0  0  0
    6.3880   -4.1690   20.3500 C   0  0  0  0  0  0  0  0  0  0  0  0
    5.3790   -4.8230   19.9780 O   0  0  0  0  0  0  0  0  0  0  0  0
    6.9120   -4.2330   21.6480 N   0  0  0  0  0  0  0  0  0  0  0  0
    7.7780   -3.1940   22.1650 C   0  0  0  0  0  0  0  0  0  0  0  0
    7.5180   -3.0510   23.6290 C   0  0  0  0  0  0  0  0  0  0  0  0
    6.1580   -3.5780   23.9700 C   0  0  0  0  0  0  0  0  0  0  0  0
    5.8080   -3.2540   25.3690 C   0  0  0  0  0  0  0  0  0  0  0  0
    4.7060   -3.6460   25.8050 O   0  0  0  0  0  0  0  0  0  0  0  0
    6.6560   -2.5090   26.2130 N   0  0  0  0  0  0  0  0  0  0  0  0
    6.1200   -1.4970   27.0910 C   0  0  1  0  0  0  0  0  0  0  0  0
    6.9760   -1.3760   28.3430 C   0  0  0  0  0  0  0  0  0  0  0  0
    6.7210   -0.4100   29.2710 C   0  0  0  0  0  0  0  0  0  0  0  0
    6.2460    0.8040   28.8290 C   0  0  0  0  0  0  0  0  0  0  0  0
    5.8600    0.8480   27.4910 C   0  0  0  0  0  0  0  0  0  0  0  0
    5.7870   -0.2250   26.6160 C   0  0  0  0  0  0  0  0  0  0  0  0
    5.2360    0.0180   24.7900 Br  0  0  0  0  0  0  0  0  0  0  0  0
    6.0740   -5.0880   23.7940 C   0  0  0  0  0  0  0  0  0  0  0  0
    6.6100   -5.4430   22.4240 C   0  0  0  0  0  0  0  0  0  0  0  0
  1  2  1  0
  2  3  2  0
  2  4  1  0
  4  5  1  0
  5  6  1  0
  6  7  1  0
  7  8  1  0
  8  9  2  0
  8 10  1  0
 11 10  1  6
 11 12  1  0
 12 13  1  0
 13 14  1  0
 14 15  1  0
 11 16  1  0
 15 16  2  0
 16 17  1  0
  7 18  1  0
  4 19  1  0
 18 19  1  0
M  END
