piperidine-amides-910-covalent
     RDKit          3D

 24 26  0  0  0  0  0  0  0  0999 V2000
    7.1350   -3.2690   19.2260 C   0  0  0  0  0  0  0  0  0  0  0  0
    6.3700   -4.0670   20.2250 C   0  0  0  0  0  0  0  0  0  0  0  0
    5.2810   -4.5650   19.8890 O   0  0  0  0  0  0  0  0  0  0  0  0
    6.9170   -4.2960   21.5030 N   0  0  0  0  0  0  0  0  0  0  0  0
    6.5460   -5.4670   22.2420 C   0  0  0  0  0  0  0  0  0  0  0  0
    5.6990   -4.9530   23.4070 C   0  0  0  0  0  0  0  0  0  0  0  0
    6.4890   -3.8870   24.1100 C   0  0  0  0  0  0  0  0  0  0  0  0
    5.8020   -3.4070   25.3250 C   0  0  0  0  0  0  0  0  0  0  0  0
    4.5670   -3.4210   25.3020 O   0  0  0  0  0  0  0  0  0  0  0  0
    6.5480   -2.9630   26.4180 N   0  0  0  0  0  0  0  0  0  0  0  0
    6.1410   -2.9160   27.7730 C   0  0  0  0  0  0  0  0  0  0  0  0
    5.8950   -1.7200   28.4150 C   0  0  1  0  0  0  0  0  0  0  0  0
    4.4610   -1.4390   28.4090 N   0  0  0  0  0  0  0  0  0  0  0  0
    3.8890   -0.4840   29.2600 C   0  0  0  0  0  0  0  0  0  0  0  0
    2.8310    0.3410   28.9190 O   0  0  0  0  0  0  0  0  0  0  0  0
    4.4960   -0.4500   30.4880 C   0  0  2  0  0  0  0  0  0  0  0  0
    4.1610    0.6250   31.4390 C   0  0  0  0  0  0  0  0  0  0  0  0
    5.3400    0.7780   32.1100 N   0  0  0  0  0  0  0  0  0  0  0  0
    6.2180   -0.1170   31.6730 N   0  0  0  0  0  0  0  0  0  0  0  0
    7.5880    0.3210   31.6710 C   0  0  0  0  0  0  0  0  0  0  0  0
    5.8280   -0.4960   30.3570 C   0  0  1  0  0  0  0  0  0  0  0  0
    6.3270   -1.7630   29.8240 N   0  0  0  0  0  0  0  0  0  0  0  0
    6.7300   -2.6970   23.1780 C   0  0  0  0  0  0  0  0  0  0  0  0
    7.6290   -3.2060   22.1230 C   0  0  0  0  0  0  0  0  0  0  0  0
  1  2  1  0
  2  3  2  0
  2  4  1  0
  4  5  1  0
  5  6  1  0
  6  7  1  0
  7  8  1  0
  8  9  2  0
  8 10  1  0
 10 11  1  0
 12 11  1  1
 12 13  1  0
 13 14  1  0
 14 15  2  0
 14 16  1  0
 16 17  1  6
 17 18  1  0
 18 19  1  0
 19 20  1  0
 16 21  1  0
 19 21  1  0
 12 22  1  0
 21 22  1  1
  7 23  1  0
  4 24  1  0
 23 24  1  0
M  END
