piperidine-amides-3047-covalent
     RDKit          3D

 23 25  0  0  0  0  0  0  0  0999 V2000
    7.0650   -3.2940   19.3110 C   0  0  0  0  0  0  0  0  0  0  0  0
    6.3480   -4.0980   20.3000 C   0  0  0  0  0  0  0  0  0  0  0  0
    5.3560   -4.7430   19.9540 O   0  0  0  0  0  0  0  0  0  0  0  0
    6.8090   -4.1800   21.6630 N   0  0  0  0  0  0  0  0  0  0  0  0
    7.7000   -3.1690   22.1860 C   0  0  0  0  0  0  0  0  0  0  0  0
    7.4710   -3.0170   23.6580 C   0  0  0  0  0  0  0  0  0  0  0  0
    6.1120   -3.6260   23.9210 C   0  0  0  0  0  0  0  0  0  0  0  0
    5.6090   -3.3130   25.2920 C   0  0  0  0  0  0  0  0  0  0  0  0
    4.3920   -3.3190   25.5440 O   0  0  0  0  0  0  0  0  0  0  0  0
    6.5340   -2.9920   26.3180 N   0  0  0  0  0  0  0  0  0  0  0  0
    6.2550   -3.3060   27.7170 C   0  0  0  0  0  0  0  0  0  0  0  0
    4.9900   -4.1160   27.8310 C   0  0  2  0  0  0  0  0  0  0  0  0
    3.8410   -3.3360   27.9590 C   0  0  0  0  0  0  0  0  0  0  0  0
    3.3020   -2.9790   29.2080 C   0  0  0  0  0  0  0  0  0  0  0  0
    3.4970   -3.9170   30.2330 N   0  0  0  0  0  0  0  0  0  0  0  0
    4.3340   -4.9910   29.9900 C   0  0  0  0  0  0  0  0  0  0  0  0
    4.4610   -6.0470   30.9710 C   0  0  0  0  0  0  0  0  0  0  0  0
    5.2640   -7.1230   30.7910 C   0  0  0  0  0  0  0  0  0  0  0  0
    6.0100   -7.2730   29.6530 C   0  0  0  0  0  0  0  0  0  0  0  0
    5.9350   -6.2860   28.6590 C   0  0  0  0  0  0  0  0  0  0  0  0
    5.0680   -5.0930   28.8180 C   0  0  0  0  0  0  0  0  0  0  0  0
    6.0590   -5.1170   23.6330 C   0  0  0  0  0  0  0  0  0  0  0  0
    6.6540   -5.4110   22.3990 C   0  0  0  0  0  0  0  0  0  0  0  0
  1  2  1  0
  2  3  2  0
  2  4  1  0
  4  5  1  0
  5  6  1  0
  6  7  1  0
  7  8  1  0
  8  9  2  0
  8 10  1  0
 10 11  1  0
 12 11  1  1
 12 13  1  0
 13 14  1  0
 14 15  1  0
 15 16  1  0
 16 17  2  0
 17 18  1  0
 18 19  2  0
 19 20  1  0
 12 21  1  0
 16 21  1  0
 20 21  2  0
  7 22  1  0
  4 23  1  0
 22 23  1  0
M  END
