piperidine-amides-3548-covalent
     RDKit          3D

 19 19  0  0  0  0  0  0  0  0999 V2000
    7.0890   -3.3130   19.2830 C   0  0  0  0  0  0  0  0  0  0  0  0
    6.3680   -4.0980   20.2810 C   0  0  0  0  0  0  0  0  0  0  0  0
    5.3550   -4.7120   19.9540 O   0  0  0  0  0  0  0  0  0  0  0  0
    6.8560   -4.2090   21.6320 N   0  0  0  0  0  0  0  0  0  0  0  0
    7.6480   -3.1270   22.1730 C   0  0  0  0  0  0  0  0  0  0  0  0
    7.4540   -3.0410   23.6640 C   0  0  0  0  0  0  0  0  0  0  0  0
    6.1260   -3.7060   23.9890 C   0  0  0  0  0  0  0  0  0  0  0  0
    5.6130   -3.2320   25.3140 C   0  0  0  0  0  0  0  0  0  0  0  0
    4.7130   -2.3770   25.3930 O   0  0  0  0  0  0  0  0  0  0  0  0
    6.1330   -3.7580   26.5260 N   0  0  0  0  0  0  0  0  0  0  0  0
    5.8830   -5.1530   26.8460 C   0  0  2  0  0  0  0  0  0  0  0  0
    4.4270   -5.4140   26.7590 C   0  0  0  0  0  0  0  0  0  0  0  0
    3.9850   -5.2130   25.4680 O   0  0  0  0  0  0  0  0  0  0  0  0
    6.2670   -5.5010   28.2330 C   0  0  0  0  0  0  0  0  0  0  0  0
    5.3130   -6.0940   29.0820 C   0  0  0  0  0  0  0  0  0  0  0  0
    5.7120   -6.9610   30.0660 C   0  0  0  0  0  0  0  0  0  0  0  0
    5.3860   -6.7680   31.3900 O   0  0  0  0  0  0  0  0  0  0  0  0
    6.3530   -5.1400   23.7360 C   0  0  0  0  0  0  0  0  0  0  0  0
    6.5200   -5.3580   22.3830 C   0  0  0  0  0  0  0  0  0  0  0  0
  1  2  1  0
  2  3  2  0
  2  4  1  0
  4  5  1  0
  5  6  1  0
  6  7  1  0
  7  8  1  0
  8  9  2  0
  8 10  1  0
 10 11  1  0
 11 12  1  1
 12 13  1  0
 11 14  1  0
 14 15  1  0
 15 16  1  0
 16 17  1  0
  7 18  1  0
  4 19  1  0
 18 19  1  0
M  END
