piperidine-amides-19760-covalent
     RDKit          3D

 21 23  0  0  0  0  0  0  0  0999 V2000
    7.0680   -3.3410   19.3660 C   0  0  0  0  0  0  0  0  0  0  0  0
    6.3770   -4.2020   20.3630 C   0  0  0  0  0  0  0  0  0  0  0  0
    5.3810   -4.8130   19.9750 O   0  0  0  0  0  0  0  0  0  0  0  0
    6.8860   -4.3310   21.6670 N   0  0  0  0  0  0  0  0  0  0  0  0
    6.7120   -5.5720   22.4020 C   0  0  0  0  0  0  0  0  0  0  0  0
    6.0770   -5.2970   23.7380 C   0  0  0  0  0  0  0  0  0  0  0  0
    6.0380   -3.7930   23.9410 C   0  0  0  0  0  0  0  0  0  0  0  0
    5.4230   -3.4890   25.2450 C   0  0  0  0  0  0  0  0  0  0  0  0
    4.2840   -3.0160   25.2630 O   0  0  0  0  0  0  0  0  0  0  0  0
    6.0630   -3.7060   26.4680 N   0  0  0  0  0  0  0  0  0  0  0  0
    5.4460   -4.6470   27.3840 C   0  0  0  0  0  0  0  0  0  0  0  0
    5.8540   -4.1010   28.7150 C   0  0  0  0  0  0  0  0  0  0  0  0
    6.5900   -2.9810   28.6030 C   0  0  2  0  0  0  0  0  0  0  0  0
    6.2880   -1.9850   29.4690 C   0  0  0  0  0  0  0  0  0  0  0  0
    5.1760   -1.5870   30.1150 C   0  0  0  0  0  0  0  0  0  0  0  0
    5.1490   -0.4060   31.0380 C   0  0  0  0  0  0  0  0  0  0  0  0
    6.5820    0.0480   30.9520 C   0  0  0  0  0  0  0  0  0  0  0  0
    7.5510   -0.9150   29.9090 S   0  0  0  0  0  0  0  0  0  0  0  0
    6.4700   -2.5330   27.1790 C   0  0  0  0  0  0  0  0  0  0  0  0
    7.3090   -3.1070   23.6770 C   0  0  0  0  0  0  0  0  0  0  0  0
    7.6520   -3.2370   22.2350 C   0  0  0  0  0  0  0  0  0  0  0  0
  1  2  1  0
  2  3  2  0
  2  4  1  0
  4  5  1  0
  5  6  1  0
  6  7  1  0
  7  8  1  0
  8  9  2  0
  8 10  1  0
 10 11  1  0
 11 12  1  0
 12 13  1  0
 13 14  1  1
 14 15  2  0
 15 16  1  0
 16 17  2  0
 14 18  1  0
 17 18  1  0
 10 19  1  0
 13 19  1  0
  7 20  1  0
  4 21  1  0
 20 21  1  0
M  END
