piperidine-amides-31250-covalent
     RDKit          3D

 28 31  0  0  0  0  0  0  0  0999 V2000
    7.0960   -3.3260   19.2470 C   0  0  0  0  0  0  0  0  0  0  0  0
    6.3840   -4.1200   20.2480 C   0  0  0  0  0  0  0  0  0  0  0  0
    5.3380   -4.7100   19.9380 O   0  0  0  0  0  0  0  0  0  0  0  0
    6.9010   -4.2720   21.5380 N   0  0  0  0  0  0  0  0  0  0  0  0
    6.7270   -5.5030   22.2910 C   0  0  0  0  0  0  0  0  0  0  0  0
    6.0500   -5.1320   23.5860 C   0  0  0  0  0  0  0  0  0  0  0  0
    6.7340   -3.9870   24.2690 C   0  0  0  0  0  0  0  0  0  0  0  0
    5.9520   -3.4750   25.4100 C   0  0  0  0  0  0  0  0  0  0  0  0
    5.1190   -2.5350   25.2540 O   0  0  0  0  0  0  0  0  0  0  0  0
    6.0960   -4.0150   26.7040 N   0  0  0  0  0  0  0  0  0  0  0  0
    6.9280   -5.2170   26.8930 C   0  0  0  0  0  0  0  0  0  0  0  0
    7.0830   -5.2200   28.3400 C   0  0  0  0  0  0  0  0  0  0  0  0
    6.2620   -4.1300   28.8970 C   0  0  0  0  0  0  0  0  0  0  0  0
    5.4220   -3.4580   27.8340 C   0  0  2  0  0  0  0  0  0  0  0  0
    3.9470   -3.7570   28.1130 C   0  0  1  0  0  0  0  0  0  0  0  0
    3.2640   -2.4590   28.1400 C   0  0  0  0  0  0  0  0  0  0  0  0
    2.2570   -2.6710   27.2330 C   0  0  0  0  0  0  0  0  0  0  0  0
    2.3490   -3.9800   26.6980 C   0  0  0  0  0  0  0  0  0  0  0  0
    3.3500   -4.7310   27.1990 N   0  0  0  0  0  0  0  0  0  0  0  0
    3.9940   -5.6990   26.5040 C   0  0  0  0  0  0  0  0  0  0  0  0
    3.2070   -6.4450   25.4240 C   0  0  0  0  0  0  0  0  0  0  0  0
    2.7930   -7.8600   25.3980 C   0  0  0  0  0  0  0  0  0  0  0  0
    2.2600   -8.7370   24.8680 C   0  0  0  0  0  0  0  0  0  0  0  0
    1.7100   -8.2710   23.5910 C   0  0  0  0  0  0  0  0  0  0  0  0
    1.8810   -6.9370   23.1990 C   0  0  0  0  0  0  0  0  0  0  0  0
    2.6510   -5.8940   24.0860 C   0  0  0  0  0  0  0  0  0  0  0  0
    6.9600   -2.8310   23.3710 C   0  0  0  0  0  0  0  0  0  0  0  0
    7.7170   -3.2570   22.1640 C   0  0  0  0  0  0  0  0  0  0  0  0
  1  2  1  0
  2  3  2  0
  2  4  1  0
  4  5  1  0
  5  6  1  0
  6  7  1  0
  7  8  1  0
  8  9  2  0
  8 10  1  0
 10 11  1  0
 11 12  1  0
 12 13  1  0
 10 14  1  0
 14 13  1  1
 14 15  1  0
 15 16  1  6
 16 17  1  0
 17 18  1  0
 15 19  1  0
 18 19  1  0
 19 20  1  0
 20 21  1  0
 21 22  2  0
 22 23  1  0
 23 24  2  0
 24 25  1  0
 21 26  1  0
 25 26  2  0
  7 27  1  0
  4 28  1  0
 27 28  1  0
M  END
