piperidine-amides-24437-covalent
     RDKit          3D

 23 24  0  0  0  0  0  0  0  0999 V2000
    7.1120   -3.3580   19.3200 C   0  0  0  0  0  0  0  0  0  0  0  0
    6.3960   -4.1780   20.3000 C   0  0  0  0  0  0  0  0  0  0  0  0
    5.3600   -4.7950   19.9710 O   0  0  0  0  0  0  0  0  0  0  0  0
    6.9070   -4.3140   21.5900 N   0  0  0  0  0  0  0  0  0  0  0  0
    6.6700   -5.5200   22.3250 C   0  0  0  0  0  0  0  0  0  0  0  0
    5.8480   -5.0980   23.5380 C   0  0  0  0  0  0  0  0  0  0  0  0
    6.6210   -4.0140   24.2810 C   0  0  0  0  0  0  0  0  0  0  0  0
    5.7240   -3.4960   25.3270 C   0  0  0  0  0  0  0  0  0  0  0  0
    4.6190   -3.0380   24.9720 O   0  0  0  0  0  0  0  0  0  0  0  0
    6.1050   -3.5240   26.6800 N   0  0  0  0  0  0  0  0  0  0  0  0
    5.2370   -3.9640   27.7530 C   0  0  0  0  0  0  0  0  0  0  0  0
    5.7680   -5.2410   28.3690 C   0  0  0  0  0  0  0  0  0  0  0  0
    7.1110   -5.4020   28.5080 C   0  0  0  0  0  0  0  0  0  0  0  0
    7.8830   -4.4020   28.0100 C   0  0  0  0  0  0  0  0  0  0  0  0
    7.2490   -3.2620   27.5200 C   0  0  2  0  0  0  0  0  0  0  0  0
    6.5410   -2.4110   28.3770 C   0  0  2  0  0  0  0  0  0  0  0  0
    5.3740   -1.8510   27.9630 O   0  0  0  0  0  0  0  0  0  0  0  0
    7.2560   -1.2420   29.0030 C   0  0  0  0  0  0  0  0  0  0  0  0
    7.0010   -0.0250   28.4540 F   0  0  0  0  0  0  0  0  0  0  0  0
    6.8720   -1.0860   30.3350 F   0  0  0  0  0  0  0  0  0  0  0  0
    8.5710   -1.5780   29.0020 F   0  0  0  0  0  0  0  0  0  0  0  0
    7.1110   -2.8790   23.4390 C   0  0  0  0  0  0  0  0  0  0  0  0
    7.7760   -3.3240   22.1900 C   0  0  0  0  0  0  0  0  0  0  0  0
  1  2  1  0
  2  3  2  0
  2  4  1  0
  4  5  1  0
  5  6  1  0
  6  7  1  0
  7  8  1  0
  8  9  2  0
  8 10  1  0
 10 11  1  0
 11 12  1  0
 12 13  1  0
 13 14  1  0
 10 15  1  0
 15 14  1  1
 15 16  1  0
 16 17  1  6
 16 18  1  0
 18 19  1  0
 18 20  1  0
 18 21  1  0
  7 22  1  0
  4 23  1  0
 22 23  1  0
M  END
