piperidine-amides-1522-covalent
     RDKit          3D

 21 23  0  0  0  0  0  0  0  0999 V2000
    7.0490   -3.3220   19.3560 C   0  0  0  0  0  0  0  0  0  0  0  0
    6.3510   -4.1780   20.3530 C   0  0  0  0  0  0  0  0  0  0  0  0
    5.3720   -4.8450   19.9810 O   0  0  0  0  0  0  0  0  0  0  0  0
    6.8400   -4.2500   21.6800 N   0  0  0  0  0  0  0  0  0  0  0  0
    6.7050   -5.4720   22.4410 C   0  0  0  0  0  0  0  0  0  0  0  0
    6.0630   -5.1170   23.7880 C   0  0  0  0  0  0  0  0  0  0  0  0
    6.2000   -3.6460   23.9560 C   0  0  0  0  0  0  0  0  0  0  0  0
    5.8100   -3.1740   25.3050 C   0  0  0  0  0  0  0  0  0  0  0  0
    4.6740   -3.4950   25.6700 O   0  0  0  0  0  0  0  0  0  0  0  0
    6.6680   -2.3970   26.0980 N   0  0  0  0  0  0  0  0  0  0  0  0
    6.2460   -1.5320   27.1470 C   0  0  1  0  0  0  0  0  0  0  0  0
    6.9580   -1.4280   28.3210 C   0  0  0  0  0  0  0  0  0  0  0  0
    6.3400   -0.6890   29.3390 C   0  0  1  0  0  0  0  0  0  0  0  0
    7.0520    0.2520   30.0120 C   0  0  0  0  0  0  0  0  0  0  0  0
    6.9040    1.6720   29.5360 C   0  0  0  0  0  0  0  0  0  0  0  0
    6.3760    1.8260   28.0820 C   0  0  0  0  0  0  0  0  0  0  0  0
    5.3380    0.7220   27.8500 C   0  0  2  0  0  0  0  0  0  0  0  0
    5.1900   -0.1190   28.9150 C   0  0  0  0  0  0  0  0  0  0  0  0
    5.8310   -0.1730   26.7620 C   0  0  0  0  0  0  0  0  0  0  0  0
    7.5350   -3.1100   23.5720 C   0  0  0  0  0  0  0  0  0  0  0  0
    7.6900   -3.2060   22.2120 C   0  0  0  0  0  0  0  0  0  0  0  0
  1  2  1  0
  2  3  2  0
  2  4  1  0
  4  5  1  0
  5  6  1  0
  6  7  1  0
  7  8  1  0
  8  9  2  0
  8 10  1  0
 11 10  1  6
 11 12  1  0
 13 12  1  6
 13 14  1  0
 14 15  1  0
 15 16  1  0
 17 16  1  1
 13 18  1  0
 17 18  1  0
 11 19  1  0
 17 19  1  0
  7 20  1  0
  4 21  1  0
 20 21  1  0
M  END
