piperidine-amides-1417-covalent
     RDKit          3D

 22 22  0  0  0  0  0  0  0  0999 V2000
    7.1130   -3.2830   19.2120 C   0  0  0  0  0  0  0  0  0  0  0  0
    6.3610   -4.0550   20.2380 C   0  0  0  0  0  0  0  0  0  0  0  0
    5.3130   -4.6340   19.9160 O   0  0  0  0  0  0  0  0  0  0  0  0
    6.8910   -4.1470   21.5440 N   0  0  0  0  0  0  0  0  0  0  0  0
    7.7610   -3.1380   22.0960 C   0  0  0  0  0  0  0  0  0  0  0  0
    7.0320   -2.5520   23.2960 C   0  0  0  0  0  0  0  0  0  0  0  0
    6.5990   -3.7080   24.1300 C   0  0  0  0  0  0  0  0  0  0  0  0
    5.8210   -3.2790   25.3120 C   0  0  0  0  0  0  0  0  0  0  0  0
    4.6310   -3.0290   25.1140 O   0  0  0  0  0  0  0  0  0  0  0  0
    6.4370   -3.1650   26.5670 N   0  0  0  0  0  0  0  0  0  0  0  0
    6.1630   -3.9170   27.7480 C   0  0  0  0  0  0  0  0  0  0  0  0
    5.7480   -5.2340   27.7810 C   0  0  0  0  0  0  0  0  0  0  0  0
    4.3980   -5.5870   27.5390 C   0  0  2  0  0  0  0  0  0  0  0  0
    3.5930   -4.4000   27.8200 N   0  0  0  0  0  0  0  0  0  0  0  0
    2.8570   -3.7380   26.8890 C   0  0  0  0  0  0  0  0  0  0  0  0
    3.4530   -4.0550   29.1140 C   0  0  0  0  0  0  0  0  0  0  0  0
    3.9790   -6.7530   28.1380 C   0  0  0  0  0  0  0  0  0  0  0  0
    5.0010   -7.4540   28.7910 F   0  0  0  0  0  0  0  0  0  0  0  0
    3.3720   -7.6340   27.2200 F   0  0  0  0  0  0  0  0  0  0  0  0
    3.0480   -6.4070   29.0620 F   0  0  0  0  0  0  0  0  0  0  0  0
    5.7950   -4.7580   23.4070 C   0  0  0  0  0  0  0  0  0  0  0  0
    6.5350   -5.2690   22.3590 C   0  0  0  0  0  0  0  0  0  0  0  0
  1  2  1  0
  2  3  2  0
  2  4  1  0
  4  5  1  0
  5  6  1  0
  6  7  1  0
  7  8  1  0
  8  9  2  0
  8 10  1  0
 10 11  1  0
 11 12  1  0
 13 12  1  1
 13 14  1  0
 14 15  1  0
 14 16  1  0
 13 17  1  0
 17 18  1  0
 17 19  1  0
 17 20  1  0
  7 21  1  0
  4 22  1  0
 21 22  1  0
M  END
