piperidine-amides-33626-covalent
     RDKit          3D

 30 33  0  0  0  0  0  0  0  0999 V2000
    7.1750   -3.3050   19.2330 C   0  0  0  0  0  0  0  0  0  0  0  0
    6.3790   -4.0570   20.2100 C   0  0  0  0  0  0  0  0  0  0  0  0
    5.2510   -4.4630   19.8480 O   0  0  0  0  0  0  0  0  0  0  0  0
    6.9080   -4.3730   21.4810 N   0  0  0  0  0  0  0  0  0  0  0  0
    6.2550   -5.3970   22.1960 C   0  0  0  0  0  0  0  0  0  0  0  0
    5.5850   -4.9220   23.4050 C   0  0  0  0  0  0  0  0  0  0  0  0
    6.2920   -3.8610   24.1670 C   0  0  0  0  0  0  0  0  0  0  0  0
    5.4460   -3.3710   25.2950 C   0  0  0  0  0  0  0  0  0  0  0  0
    4.2460   -3.1190   25.0870 O   0  0  0  0  0  0  0  0  0  0  0  0
    5.9590   -3.1900   26.5840 N   0  0  0  0  0  0  0  0  0  0  0  0
    6.1470   -1.9140   27.2010 C   0  0  0  0  0  0  0  0  0  0  0  0
    6.8770   -0.8980   26.4430 C   0  0  0  0  0  0  0  0  0  0  0  0
    7.9610   -1.1130   25.7110 N   0  0  0  0  0  0  0  0  0  0  0  0
    8.4570    0.0130   25.1100 C   0  0  0  0  0  0  0  0  0  0  0  0
    9.5910   -0.1930   24.3560 C   0  0  0  0  0  0  0  0  0  0  0  0
   10.1850    1.2410   24.3130 C   0  0  0  0  0  0  0  0  0  0  0  0
   11.5170    1.3470   23.5340 C   0  0  0  0  0  0  0  0  0  0  0  0
   11.9480   -0.0280   22.9720 C   0  0  0  0  0  0  0  0  0  0  0  0
   11.2930   -1.2980   23.0800 C   0  0  0  0  0  0  0  0  0  0  0  0
   10.0400   -1.3490   23.8240 C   0  0  0  0  0  0  0  0  0  0  0  0
   11.9280   -2.3050   22.4750 O   0  0  0  0  0  0  0  0  0  0  0  0
   13.0910   -1.6300   22.0480 C   0  0  0  0  0  0  0  0  0  0  0  0
   12.9860   -0.3340   22.2860 O   0  0  0  0  0  0  0  0  0  0  0  0
    7.6730    1.0410   25.4360 C   0  0  0  0  0  0  0  0  0  0  0  0
    6.6400    0.4810   26.3010 N   0  0  0  0  0  0  0  0  0  0  0  0
    6.1610   -4.3100   27.5080 C   0  0  0  0  0  0  0  0  0  0  0  0
    5.0450   -4.8630   28.0510 C   0  0  0  0  0  0  0  0  0  0  0  0
    6.8740   -4.0360   28.6390 C   0  0  0  0  0  0  0  0  0  0  0  0
    6.7920   -2.7550   23.2880 C   0  0  0  0  0  0  0  0  0  0  0  0
    7.6190   -3.3460   22.1690 C   0  0  0  0  0  0  0  0  0  0  0  0
  1  2  1  0
  2  3  2  0
  2  4  1  0
  4  5  1  0
  5  6  1  0
  6  7  1  0
  7  8  1  0
  8  9  2  0
  8 10  1  0
 10 11  1  0
 11 12  1  0
 12 13  2  0
 13 14  1  0
 14 15  1  0
 15 16  2  0
 16 17  1  0
 17 18  2  0
 18 19  1  0
 15 20  1  0
 19 20  2  0
 19 21  1  0
 21 22  1  0
 18 23  1  0
 22 23  1  0
 14 24  2  0
 12 25  1  0
 24 25  1  0
 10 26  1  0
 26 27  1  0
 26 28  1  0
  7 29  1  0
  4 30  1  0
 29 30  1  0
M  END
