piperidine-amides-10282-covalent
     RDKit          3D

 24 25  0  0  0  0  0  0  0  0999 V2000
    7.0780   -3.3290   19.2760 C   0  0  0  0  0  0  0  0  0  0  0  0
    6.3990   -4.1400   20.2900 C   0  0  0  0  0  0  0  0  0  0  0  0
    5.3380   -4.7170   19.9430 O   0  0  0  0  0  0  0  0  0  0  0  0
    6.9680   -4.2820   21.5530 N   0  0  0  0  0  0  0  0  0  0  0  0
    7.7180   -3.2060   22.1590 C   0  0  0  0  0  0  0  0  0  0  0  0
    6.9160   -2.6900   23.3100 C   0  0  0  0  0  0  0  0  0  0  0  0
    6.5810   -3.8120   24.2410 C   0  0  0  0  0  0  0  0  0  0  0  0
    5.8270   -3.2830   25.3940 C   0  0  0  0  0  0  0  0  0  0  0  0
    4.6170   -3.0140   25.2400 O   0  0  0  0  0  0  0  0  0  0  0  0
    6.4160   -3.0820   26.6530 N   0  0  0  0  0  0  0  0  0  0  0  0
    6.3730   -1.8100   27.3330 C   0  0  0  0  0  0  0  0  0  0  0  0
    5.8760   -0.5610   26.6590 C   0  0  0  0  0  0  0  0  0  0  0  0
    5.8620    0.5990   27.3840 C   0  0  0  0  0  0  0  0  0  0  0  0
    5.4210    1.8000   26.8610 C   0  0  0  0  0  0  0  0  0  0  0  0
    6.3570    2.6950   27.0670 O   0  0  0  0  0  0  0  0  0  0  0  0
    6.0010    3.8610   26.6250 C   0  0  0  0  0  0  0  0  0  0  0  0
    6.3250    0.4630   28.6850 C   0  0  0  0  0  0  0  0  0  0  0  0
    6.4020    1.4880   29.5940 C   0  0  0  0  0  0  0  0  0  0  0  0
    7.6940    1.7560   29.8680 O   0  0  0  0  0  0  0  0  0  0  0  0
    5.4200    2.0820   30.1020 O   0  0  0  0  0  0  0  0  0  0  0  0
    4.1390    1.4990   30.2410 C   0  0  0  0  0  0  0  0  0  0  0  0
    6.7790   -1.2700   28.8980 S   0  0  0  0  0  0  0  0  0  0  0  0
    5.7780   -4.8800   23.5720 C   0  0  0  0  0  0  0  0  0  0  0  0
    6.4730   -5.4080   22.3400 C   0  0  0  0  0  0  0  0  0  0  0  0
  1  2  1  0
  2  3  2  0
  2  4  1  0
  4  5  1  0
  5  6  1  0
  6  7  1  0
  7  8  1  0
  8  9  2  0
  8 10  1  0
 10 11  1  0
 11 12  2  0
 12 13  1  0
 13 14  1  0
 14 15  1  0
 15 16  1  0
 13 17  2  0
 17 18  1  0
 18 19  2  0
 18 20  1  0
 20 21  1  0
 11 22  1  0
 17 22  1  0
  7 23  1  0
  4 24  1  0
 23 24  1  0
M  END
