piperidine-amides-13092-covalent
     RDKit          3D

 20 21  0  0  0  0  0  0  0  0999 V2000
    7.0790   -3.3560   19.3150 C   0  0  0  0  0  0  0  0  0  0  0  0
    6.3660   -4.1440   20.3410 C   0  0  0  0  0  0  0  0  0  0  0  0
    5.3330   -4.7310   19.9570 O   0  0  0  0  0  0  0  0  0  0  0  0
    6.8720   -4.2590   21.6510 N   0  0  0  0  0  0  0  0  0  0  0  0
    7.6650   -3.2170   22.2260 C   0  0  0  0  0  0  0  0  0  0  0  0
    7.2860   -2.9400   23.6010 C   0  0  0  0  0  0  0  0  0  0  0  0
    6.0480   -3.6400   23.9770 C   0  0  0  0  0  0  0  0  0  0  0  0
    5.6180   -3.2260   25.3310 C   0  0  0  0  0  0  0  0  0  0  0  0
    4.3970   -3.1740   25.5650 O   0  0  0  0  0  0  0  0  0  0  0  0
    6.5430   -2.8900   26.3310 N   0  0  0  0  0  0  0  0  0  0  0  0
    6.4790   -1.6450   27.1210 C   0  0  0  0  0  0  0  0  0  0  0  0
    5.9400   -0.3990   26.5620 C   0  0  0  0  0  0  0  0  0  0  0  0
    5.8860    0.8040   27.3580 C   0  0  0  0  0  0  0  0  0  0  0  0
    6.3470    0.7830   28.6600 C   0  0  0  0  0  0  0  0  0  0  0  0
    6.8900   -0.3120   29.3490 C   0  0  0  0  0  0  0  0  0  0  0  0
    7.2660   -0.0640   30.6340 C   0  0  0  0  0  0  0  0  0  0  0  0
    6.2530   -0.0100   31.5650 F   0  0  0  0  0  0  0  0  0  0  0  0
    6.9460   -1.5660   28.5150 C   0  0  0  0  0  0  0  0  0  0  0  0
    6.0610   -5.1100   23.7380 C   0  0  0  0  0  0  0  0  0  0  0  0
    6.5690   -5.4220   22.4600 C   0  0  0  0  0  0  0  0  0  0  0  0
  1  2  1  0
  2  3  2  0
  2  4  1  0
  4  5  1  0
  5  6  1  0
  6  7  1  0
  7  8  1  0
  8  9  2  0
  8 10  1  0
 10 11  1  0
 11 12  2  0
 12 13  1  0
 13 14  2  0
 14 15  1  0
 15 16  1  0
 16 17  1  0
 11 18  1  0
 15 18  2  0
  7 19  1  0
  4 20  1  0
 19 20  1  0
M  END
