piperidine-amides-8396-covalent
     RDKit          3D

 24 25  0  0  0  0  0  0  0  0999 V2000
    7.0910   -3.2390   19.1520 C   0  0  0  0  0  0  0  0  0  0  0  0
    6.3120   -3.9540   20.1630 C   0  0  0  0  0  0  0  0  0  0  0  0
    5.2330   -4.4700   19.8350 O   0  0  0  0  0  0  0  0  0  0  0  0
    6.8050   -4.0920   21.4760 N   0  0  0  0  0  0  0  0  0  0  0  0
    6.4760   -5.2760   22.2160 C   0  0  0  0  0  0  0  0  0  0  0  0
    5.7820   -4.8750   23.4850 C   0  0  0  0  0  0  0  0  0  0  0  0
    6.6890   -3.8430   24.1110 C   0  0  0  0  0  0  0  0  0  0  0  0
    6.0880   -3.2760   25.3610 C   0  0  0  0  0  0  0  0  0  0  0  0
    4.8790   -3.0210   25.3350 O   0  0  0  0  0  0  0  0  0  0  0  0
    6.9470   -3.0840   26.4450 N   0  0  0  0  0  0  0  0  0  0  0  0
    7.4150   -4.1650   27.2490 C   0  0  1  0  0  0  0  0  0  0  0  0
    6.4230   -5.0840   27.6420 C   0  0  0  0  0  0  0  0  0  0  0  0
    5.4810   -5.6090   26.7520 C   0  0  0  0  0  0  0  0  0  0  0  0
    4.4470   -6.5210   27.0410 C   0  0  0  0  0  0  0  0  0  0  0  0
    4.3860   -6.9480   28.4760 C   0  0  0  0  0  0  0  0  0  0  0  0
    3.4150   -7.8150   28.8430 F   0  0  0  0  0  0  0  0  0  0  0  0
    5.4180   -6.3790   29.4400 C   0  0  0  0  0  0  0  0  0  0  0  0
    6.4240   -5.4410   28.9590 C   0  0  0  0  0  0  0  0  0  0  0  0
    8.3490   -4.9460   26.3410 C   0  0  0  0  0  0  0  0  0  0  0  0
    9.0860   -4.1050   25.5440 F   0  0  0  0  0  0  0  0  0  0  0  0
    9.2140   -5.7220   27.0640 F   0  0  0  0  0  0  0  0  0  0  0  0
    7.6580   -5.8330   25.5550 F   0  0  0  0  0  0  0  0  0  0  0  0
    7.0460   -2.7070   23.2560 C   0  0  0  0  0  0  0  0  0  0  0  0
    7.6490   -3.0850   22.0860 C   0  0  0  0  0  0  0  0  0  0  0  0
  1  2  1  0
  2  3  2  0
  2  4  1  0
  4  5  1  0
  5  6  1  0
  6  7  1  0
  7  8  1  0
  8  9  2  0
  8 10  1  0
 11 10  1  6
 11 12  1  0
 12 13  2  0
 13 14  1  0
 14 15  2  0
 15 16  1  0
 15 17  1  0
 12 18  1  0
 17 18  2  0
 11 19  1  0
 19 20  1  0
 19 21  1  0
 19 22  1  0
  7 23  1  0
  4 24  1  0
 23 24  1  0
M  END
