piperidine-amides-34996-covalent
     RDKit          3D

 32 35  0  0  0  0  0  0  0  0999 V2000
    7.0700   -3.3390   19.3830 C   0  0  0  0  0  0  0  0  0  0  0  0
    6.4200   -4.2160   20.3890 C   0  0  0  0  0  0  0  0  0  0  0  0
    5.4440   -4.8650   19.9990 O   0  0  0  0  0  0  0  0  0  0  0  0
    6.9450   -4.3120   21.6920 N   0  0  0  0  0  0  0  0  0  0  0  0
    7.8040   -3.2570   22.2300 C   0  0  0  0  0  0  0  0  0  0  0  0
    7.4080   -2.9000   23.6380 C   0  0  0  0  0  0  0  0  0  0  0  0
    6.0880   -3.5900   23.8990 C   0  0  0  0  0  0  0  0  0  0  0  0
    5.4460   -3.0520   25.1190 C   0  0  0  0  0  0  0  0  0  0  0  0
    4.2590   -2.7210   25.0210 O   0  0  0  0  0  0  0  0  0  0  0  0
    6.0500   -2.8860   26.3770 N   0  0  0  0  0  0  0  0  0  0  0  0
    5.2280   -3.4890   27.3960 C   0  0  0  0  0  0  0  0  0  0  0  0
    5.6360   -4.3410   28.3720 N   0  0  0  0  0  0  0  0  0  0  0  0
    4.7070   -4.7700   29.2130 C   0  0  0  0  0  0  0  0  0  0  0  0
    4.6840   -5.5860   30.2900 C   0  0  0  0  0  0  0  0  0  0  0  0
    3.8060   -5.4640   31.3540 C   0  0  0  0  0  0  0  0  0  0  0  0
    3.9030   -6.3410   32.3710 C   0  0  0  0  0  0  0  0  0  0  0  0
    4.9450   -7.3690   32.2640 C   0  0  0  0  0  0  0  0  0  0  0  0
    5.2420   -8.4430   33.2630 C   0  0  0  0  0  0  0  0  0  0  0  0
    5.9990   -7.7890   31.3370 C   0  0  0  0  0  0  0  0  0  0  0  0
    5.7510   -6.7300   30.2950 C   0  0  0  0  0  0  0  0  0  0  0  0
    3.3130   -4.3020   29.0270 C   0  0  0  0  0  0  0  0  0  0  0  0
    3.4770   -3.2740   27.6440 S   0  0  0  0  0  0  0  0  0  0  0  0
    6.1730   -1.5460   27.0050 C   0  0  0  0  0  0  0  0  0  0  0  0
    5.7460   -0.3170   26.2360 C   0  0  0  0  0  0  0  0  0  0  0  0
    5.8120    1.1000   26.7850 C   0  0  0  0  0  0  0  0  0  0  0  0
    5.4370    2.2480   26.1220 C   0  0  0  0  0  0  0  0  0  0  0  0
    6.3350    1.2800   28.1800 C   0  0  0  0  0  0  0  0  0  0  0  0
    6.7530    0.0460   28.9170 C   0  0  0  0  0  0  0  0  0  0  0  0
    6.6480   -1.3060   28.2830 C   0  0  0  0  0  0  0  0  0  0  0  0
    7.0450   -2.3250   29.0200 C   0  0  0  0  0  0  0  0  0  0  0  0
    6.1350   -5.0440   23.8180 C   0  0  0  0  0  0  0  0  0  0  0  0
    6.7180   -5.4640   22.5100 C   0  0  0  0  0  0  0  0  0  0  0  0
  1  2  1  0
  2  3  2  0
  2  4  1  0
  4  5  1  0
  5  6  1  0
  6  7  1  0
  7  8  1  0
  8  9  2  0
  8 10  1  0
 10 11  1  0
 11 12  2  0
 12 13  1  0
 13 14  1  0
 14 15  2  0
 15 16  1  0
 16 17  2  0
 17 18  1  0
 17 19  1  0
 14 20  1  0
 19 20  2  0
 13 21  2  0
 11 22  1  0
 21 22  1  0
 10 23  1  0
 23 24  2  0
 24 25  1  0
 25 26  1  0
 25 27  2  0
 27 28  1  0
 23 29  1  0
 28 29  2  0
 29 30  1  0
  7 31  1  0
  4 32  1  0
 31 32  1  0
M  END
