piperidine-amides-29834-covalent
     RDKit          3D

 27 30  0  0  0  0  0  0  0  0999 V2000
    6.9860   -3.3790   19.4350 C   0  0  0  0  0  0  0  0  0  0  0  0
    6.3450   -4.2600   20.4120 C   0  0  0  0  0  0  0  0  0  0  0  0
    5.4180   -4.9730   20.0180 O   0  0  0  0  0  0  0  0  0  0  0  0
    6.7950   -4.3410   21.7920 N   0  0  0  0  0  0  0  0  0  0  0  0
    7.6130   -3.2880   22.3810 C   0  0  0  0  0  0  0  0  0  0  0  0
    7.1930   -2.9880   23.8020 C   0  0  0  0  0  0  0  0  0  0  0  0
    5.8320   -3.6310   23.9920 C   0  0  0  0  0  0  0  0  0  0  0  0
    5.0260   -3.1010   25.1760 C   0  0  0  0  0  0  0  0  0  0  0  0
    4.1370   -2.2710   24.9540 O   0  0  0  0  0  0  0  0  0  0  0  0
    5.1710   -3.4510   26.5570 N   0  0  0  0  0  0  0  0  0  0  0  0
    6.1710   -4.3230   26.8260 C   0  0  0  0  0  0  0  0  0  0  0  0
    5.9130   -5.1270   28.0480 C   0  0  0  0  0  0  0  0  0  0  0  0
    5.5700   -4.3690   29.1170 C   0  0  0  0  0  0  0  0  0  0  0  0
    4.6410   -4.8830   30.0340 C   0  0  0  0  0  0  0  0  0  0  0  0
    4.5540   -6.1780   30.5410 N   0  0  0  0  0  0  0  0  0  0  0  0
    3.4740   -6.0810   31.3890 C   0  0  0  0  0  0  0  0  0  0  0  0
    2.9220   -7.1450   32.2000 C   0  0  0  0  0  0  0  0  0  0  0  0
    3.5670   -8.3340   32.0780 F   0  0  0  0  0  0  0  0  0  0  0  0
    1.8440   -6.9700   33.0190 C   0  0  0  0  0  0  0  0  0  0  0  0
    1.2530   -5.7220   33.0810 C   0  0  0  0  0  0  0  0  0  0  0  0
    1.7230   -4.6350   32.3320 C   0  0  0  0  0  0  0  0  0  0  0  0
    2.8860   -4.8340   31.4480 C   0  0  0  0  0  0  0  0  0  0  0  0
    3.6630   -4.0770   30.5590 N   0  0  0  0  0  0  0  0  0  0  0  0
    4.9740   -3.1490   28.8660 C   0  0  0  0  0  0  0  0  0  0  0  0
    5.2300   -2.4990   27.6510 C   0  0  0  0  0  0  0  0  0  0  0  0
    5.9670   -5.1360   23.9360 C   0  0  0  0  0  0  0  0  0  0  0  0
    6.5740   -5.5460   22.5730 C   0  0  0  0  0  0  0  0  0  0  0  0
  1  2  1  0
  2  3  2  0
  2  4  1  0
  4  5  1  0
  5  6  1  0
  6  7  1  0
  7  8  1  0
  8  9  2  0
  8 10  1  0
 10 11  1  0
 11 12  1  0
 12 13  1  0
 13 14  1  0
 14 15  2  0
 15 16  1  0
 16 17  2  0
 17 18  1  0
 17 19  1  0
 19 20  2  0
 20 21  1  0
 16 22  1  0
 21 22  2  0
 14 23  1  0
 22 23  1  0
 13 24  1  0
 10 25  1  0
 24 25  1  0
  7 26  1  0
  4 27  1  0
 26 27  1  0
M  END
