piperidine-amides-10037-covalent
     RDKit          3D

 26 27  0  0  0  0  0  0  0  0999 V2000
    7.0570   -3.3150   19.2640 C   0  0  0  0  0  0  0  0  0  0  0  0
    6.3640   -4.1160   20.2800 C   0  0  0  0  0  0  0  0  0  0  0  0
    5.3060   -4.6970   19.9260 O   0  0  0  0  0  0  0  0  0  0  0  0
    6.8990   -4.2490   21.5570 N   0  0  0  0  0  0  0  0  0  0  0  0
    7.7160   -3.1960   22.1240 C   0  0  0  0  0  0  0  0  0  0  0  0
    6.9990   -2.6580   23.3150 C   0  0  0  0  0  0  0  0  0  0  0  0
    6.6320   -3.7920   24.2110 C   0  0  0  0  0  0  0  0  0  0  0  0
    5.8460   -3.2980   25.3600 C   0  0  0  0  0  0  0  0  0  0  0  0
    4.6280   -3.0610   25.1960 O   0  0  0  0  0  0  0  0  0  0  0  0
    6.4170   -3.0870   26.6290 N   0  0  0  0  0  0  0  0  0  0  0  0
    6.4020   -1.7970   27.2780 C   0  0  0  0  0  0  0  0  0  0  0  0
    5.7560   -0.5810   26.6900 C   0  0  0  0  0  0  0  0  0  0  0  0
    5.7570    0.6330   27.3530 C   0  0  0  0  0  0  0  0  0  0  0  0
    6.3380    0.8860   28.6120 C   0  0  0  0  0  0  0  0  0  0  0  0
    6.3240    2.3900   29.4250 S   0  0  0  0  0  0  0  0  0  0  0  0
    4.7600    2.7070   30.2650 C   0  0  0  0  0  0  0  0  0  0  0  0
    4.4650    2.0400   31.4480 C   0  0  0  0  0  0  0  0  0  0  0  0
    3.1390    1.7050   31.6330 C   0  0  0  0  0  0  0  0  0  0  0  0
    2.7270    0.5490   32.3130 O   0  0  0  0  0  0  0  0  0  0  0  0
    2.2740    2.5950   31.0960 O   0  0  0  0  0  0  0  0  0  0  0  0
    1.1170    1.9540   30.7170 C   0  0  0  0  0  0  0  0  0  0  0  0
    6.9740   -0.2000   29.2360 C   0  0  0  0  0  0  0  0  0  0  0  0
    7.7150    0.0490   30.8010 Cl  0  0  0  0  0  0  0  0  0  0  0  0
    7.0250   -1.5610   28.5930 C   0  0  0  0  0  0  0  0  0  0  0  0
    5.8450   -4.8420   23.4770 C   0  0  0  0  0  0  0  0  0  0  0  0
    6.5540   -5.3770   22.4220 C   0  0  0  0  0  0  0  0  0  0  0  0
  1  2  1  0
  2  3  2  0
  2  4  1  0
  4  5  1  0
  5  6  1  0
  6  7  1  0
  7  8  1  0
  8  9  2  0
  8 10  1  0
 10 11  1  0
 11 12  2  0
 12 13  1  0
 13 14  2  0
 14 15  1  0
 15 16  1  0
 16 17  1  0
 17 18  1  0
 18 19  2  0
 18 20  1  0
 20 21  1  0
 14 22  1  0
 22 23  1  0
 11 24  1  0
 22 24  2  0
  7 25  1  0
  4 26  1  0
 25 26  1  0
M  END
