piperidine-amides-29368-covalent
     RDKit          3D

 27 29  0  0  0  0  0  0  0  0999 V2000
    7.0780   -3.2690   19.2510 C   0  0  0  0  0  0  0  0  0  0  0  0
    6.3430   -4.0360   20.2600 C   0  0  0  0  0  0  0  0  0  0  0  0
    5.2980   -4.6060   19.9040 O   0  0  0  0  0  0  0  0  0  0  0  0
    6.8280   -4.1610   21.5900 N   0  0  0  0  0  0  0  0  0  0  0  0
    7.6660   -3.1210   22.1290 C   0  0  0  0  0  0  0  0  0  0  0  0
    7.5870   -3.1330   23.6240 C   0  0  0  0  0  0  0  0  0  0  0  0
    6.2250   -3.6850   23.9720 C   0  0  0  0  0  0  0  0  0  0  0  0
    5.8260   -3.3190   25.3710 C   0  0  0  0  0  0  0  0  0  0  0  0
    4.6250   -3.4100   25.6230 O   0  0  0  0  0  0  0  0  0  0  0  0
    6.8190   -2.8960   26.2670 N   0  0  0  0  0  0  0  0  0  0  0  0
    6.8020   -3.2080   27.6490 C   0  0  0  0  0  0  0  0  0  0  0  0
    7.3240   -4.4350   28.0330 C   0  0  0  0  0  0  0  0  0  0  0  0
    6.5140   -5.2130   28.8180 C   0  0  0  0  0  0  0  0  0  0  0  0
    6.8790   -6.5270   28.9420 C   0  0  0  0  0  0  0  0  0  0  0  0
    6.0520   -7.4660   29.7770 C   0  0  0  0  0  0  0  0  0  0  0  0
    4.7880   -6.9950   30.5130 C   0  0  0  0  0  0  0  0  0  0  0  0
    4.4720   -5.5740   30.3300 C   0  0  0  0  0  0  0  0  0  0  0  0
    5.3780   -4.7550   29.4740 C   0  0  0  0  0  0  0  0  0  0  0  0
    4.8840   -3.2870   29.4080 C   0  0  0  0  0  0  0  0  0  0  0  0
    7.5030   -1.6990   26.6680 C   0  0  0  0  0  0  0  0  0  0  0  0
    6.6970   -0.8210   27.3910 C   0  0  0  0  0  0  0  0  0  0  0  0
    7.0250   -0.1600   28.5240 N   0  0  0  0  0  0  0  0  0  0  0  0
    5.8440    0.5790   28.8100 C   0  0  0  0  0  0  0  0  0  0  0  0
    4.8650    0.2540   27.7330 C   0  0  0  0  0  0  0  0  0  0  0  0
    5.4260   -0.6170   26.8690 N   0  0  0  0  0  0  0  0  0  0  0  0
    6.2660   -5.1890   23.7470 C   0  0  0  0  0  0  0  0  0  0  0  0
    6.5920   -5.4250   22.2640 C   0  0  0  0  0  0  0  0  0  0  0  0
  1  2  1  0
  2  3  2  0
  2  4  1  0
  4  5  1  0
  5  6  1  0
  6  7  1  0
  7  8  1  0
  8  9  2  0
  8 10  1  0
 10 11  1  0
 11 12  1  0
 12 13  1  0
 13 14  2  0
 14 15  1  0
 15 16  2  0
 16 17  1  0
 13 18  1  0
 17 18  2  0
 18 19  1  0
 10 20  1  0
 20 21  1  0
 21 22  2  0
 22 23  1  0
 23 24  2  0
 21 25  1  0
 24 25  1  0
  7 26  1  0
  4 27  1  0
 26 27  1  0
M  END
