piperidine-amides-19165-covalent
     RDKit          3D

 21 22  0  0  0  0  0  0  0  0999 V2000
    7.0660   -3.4210   19.3230 C   0  0  0  0  0  0  0  0  0  0  0  0
    6.4370   -4.2000   20.3630 C   0  0  0  0  0  0  0  0  0  0  0  0
    5.4320   -4.8980   20.0140 O   0  0  0  0  0  0  0  0  0  0  0  0
    6.9270   -4.2550   21.6980 N   0  0  0  0  0  0  0  0  0  0  0  0
    6.6260   -5.4550   22.4990 C   0  0  0  0  0  0  0  0  0  0  0  0
    5.7650   -4.8200   23.6670 C   0  0  0  0  0  0  0  0  0  0  0  0
    6.4810   -3.5850   24.2170 C   0  0  0  0  0  0  0  0  0  0  0  0
    5.6110   -3.0440   25.4400 C   0  0  0  0  0  0  0  0  0  0  0  0
    4.5930   -2.5290   25.0180 O   0  0  0  0  0  0  0  0  0  0  0  0
    6.1810   -3.2780   26.5470 N   0  0  0  0  0  0  0  0  0  0  0  0
    6.6400   -4.0480   27.5790 C   0  0  0  0  0  0  0  0  0  0  0  0
    6.4460   -1.9740   27.0800 C   0  0  0  0  0  0  0  0  0  0  0  0
    6.5250   -1.9350   28.4870 C   0  0  0  0  0  0  0  0  0  0  0  0
    7.1010   -0.6730   28.9420 C   0  0  0  0  0  0  0  0  0  0  0  0
    5.7740    0.1010   28.8100 C   0  0  0  0  0  0  0  0  0  0  0  0
    4.6520   -0.6120   29.2350 F   0  0  0  0  0  0  0  0  0  0  0  0
    5.8330    1.3110   29.5120 F   0  0  0  0  0  0  0  0  0  0  0  0
    5.8640    0.2530   27.4100 C   0  0  0  0  0  0  0  0  0  0  0  0
    5.7540   -0.9190   26.6260 C   0  0  0  0  0  0  0  0  0  0  0  0
    6.9320   -2.5780   23.2940 C   0  0  0  0  0  0  0  0  0  0  0  0
    7.8230   -3.3500   22.2920 C   0  0  0  0  0  0  0  0  0  0  0  0
  1  2  1  0
  2  3  2  0
  2  4  1  0
  4  5  1  0
  5  6  1  0
  6  7  1  0
  7  8  1  0
  8  9  2  0
  8 10  1  0
 10 11  1  0
 10 12  1  0
 12 13  1  0
 13 14  1  0
 14 15  1  0
 15 16  1  0
 15 17  1  0
 15 18  1  0
 12 19  1  0
 18 19  1  0
  7 20  1  0
  4 21  1  0
 20 21  1  0
M  END
