piperidine-amides-21588-covalent
     RDKit          3D

 23 24  0  0  0  0  0  0  0  0999 V2000
    7.1160   -3.2480   19.1810 C   0  0  0  0  0  0  0  0  0  0  0  0
    6.3450   -3.9850   20.1900 C   0  0  0  0  0  0  0  0  0  0  0  0
    5.2370   -4.4550   19.8350 O   0  0  0  0  0  0  0  0  0  0  0  0
    6.8610   -4.1930   21.4610 N   0  0  0  0  0  0  0  0  0  0  0  0
    6.4810   -5.3640   22.2130 C   0  0  0  0  0  0  0  0  0  0  0  0
    5.8390   -4.8880   23.4820 C   0  0  0  0  0  0  0  0  0  0  0  0
    6.7050   -3.8430   24.1250 C   0  0  0  0  0  0  0  0  0  0  0  0
    6.0740   -3.2740   25.3240 C   0  0  0  0  0  0  0  0  0  0  0  0
    4.8610   -2.9510   25.2980 O   0  0  0  0  0  0  0  0  0  0  0  0
    6.8330   -3.1000   26.4860 N   0  0  0  0  0  0  0  0  0  0  0  0
    7.1920   -1.7730   26.9110 C   0  0  0  0  0  0  0  0  0  0  0  0
    7.6800   -4.2060   26.8390 C   0  0  2  0  0  0  0  0  0  0  0  0
    7.0920   -5.4090   26.5310 C   0  0  0  0  0  0  0  0  0  0  0  0
    7.9760   -4.1790   28.2950 C   0  0  0  0  0  0  0  0  0  0  0  0
    6.8090   -4.8500   28.6150 C   0  0  0  0  0  0  0  0  0  0  0  0
    5.5750   -4.2560   28.8510 C   0  0  0  0  0  0  0  0  0  0  0  0
    4.4080   -4.9500   29.1720 C   0  0  0  0  0  0  0  0  0  0  0  0
    4.3200   -6.4650   29.3130 C   0  0  0  0  0  0  0  0  0  0  0  0
    5.6870   -7.0690   29.0460 C   0  0  0  0  0  0  0  0  0  0  0  0
    6.8560   -6.1970   28.7070 C   0  0  0  0  0  0  0  0  0  0  0  0
    8.1040   -6.7750   28.4560 O   0  0  0  0  0  0  0  0  0  0  0  0
    6.9890   -2.7070   23.1920 C   0  0  0  0  0  0  0  0  0  0  0  0
    7.7030   -3.1940   22.1330 C   0  0  0  0  0  0  0  0  0  0  0  0
  1  2  1  0
  2  3  2  0
  2  4  1  0
  4  5  1  0
  5  6  1  0
  6  7  1  0
  7  8  1  0
  8  9  2  0
  8 10  1  0
 10 11  1  0
 10 12  1  0
 12 13  1  1
 12 14  1  0
 14 15  1  0
 15 16  2  0
 16 17  1  0
 17 18  2  0
 18 19  1  0
 15 20  1  0
 19 20  2  0
 20 21  1  0
  7 22  1  0
  4 23  1  0
 22 23  1  0
M  END
