piperidine-amides-30860-covalent
     RDKit          3D

 27 28  0  0  0  0  0  0  0  0999 V2000
    7.1340   -3.2860   19.2150 C   0  0  0  0  0  0  0  0  0  0  0  0
    6.4050   -4.0600   20.2210 C   0  0  0  0  0  0  0  0  0  0  0  0
    5.3230   -4.5840   19.9070 O   0  0  0  0  0  0  0  0  0  0  0  0
    6.9330   -4.2800   21.5040 N   0  0  0  0  0  0  0  0  0  0  0  0
    6.6240   -5.4610   22.2600 C   0  0  0  0  0  0  0  0  0  0  0  0
    5.9430   -4.9600   23.5090 C   0  0  0  0  0  0  0  0  0  0  0  0
    6.6560   -3.8130   24.1870 C   0  0  0  0  0  0  0  0  0  0  0  0
    5.8980   -3.3590   25.3690 C   0  0  0  0  0  0  0  0  0  0  0  0
    4.7680   -2.8010   25.2450 O   0  0  0  0  0  0  0  0  0  0  0  0
    6.3890   -3.5350   26.6640 N   0  0  0  0  0  0  0  0  0  0  0  0
    6.6680   -2.3060   27.4630 C   0  0  0  0  0  0  0  0  0  0  0  0
    5.4330   -1.5020   27.5640 C   0  0  0  0  0  0  0  0  0  0  0  0
    4.1980   -1.9990   28.2090 C   0  0  0  0  0  0  0  0  0  0  0  0
    2.9480   -1.1560   28.3010 C   0  0  0  0  0  0  0  0  0  0  0  0
    2.9020    0.2460   27.7340 C   0  0  0  0  0  0  0  0  0  0  0  0
    4.1870    0.6470   27.1130 C   0  0  0  0  0  0  0  0  0  0  0  0
    4.7790    1.7060   26.4660 C   0  0  0  0  0  0  0  0  0  0  0  0
    4.0400    2.8210   26.2070 F   0  0  0  0  0  0  0  0  0  0  0  0
    5.2150    1.2920   25.2280 F   0  0  0  0  0  0  0  0  0  0  0  0
    5.9260    2.0970   27.0900 F   0  0  0  0  0  0  0  0  0  0  0  0
    5.4870   -0.1220   26.9730 C   0  0  0  0  0  0  0  0  0  0  0  0
    6.8620   -4.7900   27.1520 C   0  0  1  0  0  0  0  0  0  0  0  0
    7.4380   -4.8650   28.5540 C   0  0  0  0  0  0  0  0  0  0  0  0
    5.7350   -5.8120   27.1800 C   0  0  0  0  0  0  0  0  0  0  0  0
    4.7010   -6.7140   27.2050 N   0  0  0  0  0  0  0  0  0  0  0  0
    6.8980   -2.6740   23.2460 C   0  0  0  0  0  0  0  0  0  0  0  0
    7.6510   -3.1980   22.0940 C   0  0  0  0  0  0  0  0  0  0  0  0
  1  2  1  0
  2  3  2  0
  2  4  1  0
  4  5  1  0
  5  6  1  0
  6  7  1  0
  7  8  1  0
  8  9  2  0
  8 10  1  0
 10 11  1  0
 11 12  1  0
 12 13  2  0
 13 14  1  0
 14 15  2  0
 15 16  1  0
 16 17  1  0
 17 18  1  0
 17 19  1  0
 17 20  1  0
 12 21  1  0
 16 21  2  0
 10 22  1  0
 22 23  1  1
 22 24  1  0
 24 25  3  0
  7 26  1  0
  4 27  1  0
 26 27  1  0
M  END
