piperidine-amides-541-covalent
     RDKit          3D

 26 27  0  0  0  0  0  0  0  0999 V2000
    7.0820   -3.3780   19.2790 C   0  0  0  0  0  0  0  0  0  0  0  0
    6.3630   -4.0780   20.3170 C   0  0  0  0  0  0  0  0  0  0  0  0
    5.3370   -4.7320   19.9600 O   0  0  0  0  0  0  0  0  0  0  0  0
    6.7730   -4.1170   21.6680 N   0  0  0  0  0  0  0  0  0  0  0  0
    7.6520   -3.0190   22.1800 C   0  0  0  0  0  0  0  0  0  0  0  0
    7.6530   -3.2790   23.7440 C   0  0  0  0  0  0  0  0  0  0  0  0
    6.2370   -3.6870   24.0720 C   0  0  0  0  0  0  0  0  0  0  0  0
    5.7800   -3.6660   25.5950 C   0  0  0  0  0  0  0  0  0  0  0  0
    5.0950   -4.6480   25.7950 O   0  0  0  0  0  0  0  0  0  0  0  0
    6.1830   -2.6550   26.2580 N   0  0  0  0  0  0  0  0  0  0  0  0
    6.3830   -1.5880   27.0900 C   0  0  0  0  0  0  0  0  0  0  0  0
    6.9340   -1.2700   28.3430 C   0  0  0  0  0  0  0  0  0  0  0  0
    6.9770    0.0010   29.0070 C   0  0  0  0  0  0  0  0  0  0  0  0
    7.5610    0.3010   30.3290 C   0  0  0  0  0  0  0  0  0  0  0  0
    7.6850   -0.5080   31.4520 N   0  0  0  0  0  0  0  0  0  0  0  0
    8.0180    1.6190   30.4020 O   0  0  0  0  0  0  0  0  0  0  0  0
    6.3880    1.1790   28.3450 C   0  0  0  0  0  0  0  0  0  0  0  0
    5.8420    0.9470   27.1240 C   0  0  0  0  0  0  0  0  0  0  0  0
    5.8070   -0.2840   26.4990 C   0  0  0  0  0  0  0  0  0  0  0  0
    5.2150   -0.3950   25.2520 O   0  0  0  0  0  0  0  0  0  0  0  0
    5.2940    0.6350   24.2740 C   0  0  0  0  0  0  0  0  0  0  0  0
    3.9270    1.3970   24.1720 C   0  0  0  0  0  0  0  0  0  0  0  0
    3.9450    2.3870   23.1850 F   0  0  0  0  0  0  0  0  0  0  0  0
    2.8280    0.6460   23.9290 F   0  0  0  0  0  0  0  0  0  0  0  0
    5.9500   -5.0950   23.5290 C   0  0  0  0  0  0  0  0  0  0  0  0
    6.6850   -5.3490   22.4150 C   0  0  0  0  0  0  0  0  0  0  0  0
  1  2  1  0
  2  3  2  0
  2  4  1  0
  4  5  1  0
  5  6  1  0
  6  7  1  0
  7  8  1  0
  8  9  2  0
  8 10  1  0
 10 11  1  0
 11 12  2  0
 12 13  1  0
 13 14  1  0
 14 15  1  0
 14 16  2  0
 13 17  2  0
 17 18  1  0
 11 19  1  0
 18 19  2  0
 19 20  1  0
 20 21  1  0
 21 22  1  0
 22 23  1  0
 22 24  1  0
  7 25  1  0
  4 26  1  0
 25 26  1  0
M  END
