piperidine-amides-27389-covalent
     RDKit          3D

 26 29  0  0  0  0  0  0  0  0999 V2000
    7.0270   -3.3720   19.3660 C   0  0  0  0  0  0  0  0  0  0  0  0
    6.3940   -4.2320   20.3710 C   0  0  0  0  0  0  0  0  0  0  0  0
    5.3850   -4.8790   19.9880 O   0  0  0  0  0  0  0  0  0  0  0  0
    6.9280   -4.3500   21.6650 N   0  0  0  0  0  0  0  0  0  0  0  0
    6.5860   -5.4480   22.5250 C   0  0  0  0  0  0  0  0  0  0  0  0
    5.7450   -4.9110   23.6600 C   0  0  0  0  0  0  0  0  0  0  0  0
    6.3250   -3.6900   24.3600 C   0  0  0  0  0  0  0  0  0  0  0  0
    5.3100   -3.0510   25.2660 C   0  0  0  0  0  0  0  0  0  0  0  0
    4.4190   -2.3740   24.7220 O   0  0  0  0  0  0  0  0  0  0  0  0
    5.2970   -3.1720   26.6910 N   0  0  0  0  0  0  0  0  0  0  0  0
    4.2610   -2.7180   27.5770 C   0  0  0  0  0  0  0  0  0  0  0  0
    4.6260   -3.1160   29.0130 C   0  0  0  0  0  0  0  0  0  0  0  0
    5.7830   -3.7650   29.2890 C   0  0  0  0  0  0  0  0  0  0  0  0
    6.3680   -4.3530   28.2460 C   0  0  1  0  0  0  0  0  0  0  0  0
    5.6700   -5.5490   28.0130 C   0  0  0  0  0  0  0  0  0  0  0  0
    5.8160   -6.7200   28.7610 C   0  0  0  0  0  0  0  0  0  0  0  0
    4.9550   -7.6280   28.2500 N   0  0  0  0  0  0  0  0  0  0  0  0
    4.3160   -7.0400   27.2300 C   0  0  0  0  0  0  0  0  0  0  0  0
    3.3620   -7.7150   26.5000 N   0  0  0  0  0  0  0  0  0  0  0  0
    2.7040   -7.0460   25.4120 C   0  0  0  0  0  0  0  0  0  0  0  0
    3.0720   -5.6000   25.0950 C   0  0  0  0  0  0  0  0  0  0  0  0
    4.1060   -4.9250   25.9240 C   0  0  0  0  0  0  0  0  0  0  0  0
    4.7140   -5.7380   27.0210 C   0  0  0  0  0  0  0  0  0  0  0  0
    6.4960   -3.3610   27.2780 C   0  0  0  0  0  0  0  0  0  0  0  0
    6.7670   -2.6660   23.3190 C   0  0  0  0  0  0  0  0  0  0  0  0
    7.6990   -3.3070   22.3030 C   0  0  0  0  0  0  0  0  0  0  0  0
  1  2  1  0
  2  3  2  0
  2  4  1  0
  4  5  1  0
  5  6  1  0
  6  7  1  0
  7  8  1  0
  8  9  2  0
  8 10  1  0
 10 11  1  0
 11 12  1  0
 12 13  1  0
 13 14  1  0
 14 15  1  6
 15 16  2  0
 16 17  1  0
 17 18  1  0
 18 19  1  0
 19 20  2  0
 20 21  1  0
 21 22  2  0
 15 23  1  0
 18 23  2  0
 22 23  1  0
 10 24  1  0
 14 24  1  0
  7 25  1  0
  4 26  1  0
 25 26  1  0
M  END
