piperidine-amides-15324-covalent
     RDKit          3D

 17 17  0  0  0  0  0  0  0  0999 V2000
    7.1280   -3.2500   19.2170 C   0  0  0  0  0  0  0  0  0  0  0  0
    6.3490   -4.0150   20.2040 C   0  0  0  0  0  0  0  0  0  0  0  0
    5.2690   -4.5550   19.8800 O   0  0  0  0  0  0  0  0  0  0  0  0
    6.8330   -4.1940   21.5000 N   0  0  0  0  0  0  0  0  0  0  0  0
    6.3730   -5.3290   22.2610 C   0  0  0  0  0  0  0  0  0  0  0  0
    5.4850   -4.7490   23.3660 C   0  0  0  0  0  0  0  0  0  0  0  0
    6.4360   -3.9990   24.2620 C   0  0  0  0  0  0  0  0  0  0  0  0
    5.7060   -3.4880   25.4400 C   0  0  0  0  0  0  0  0  0  0  0  0
    4.4620   -3.4120   25.3760 O   0  0  0  0  0  0  0  0  0  0  0  0
    6.4150   -3.0860   26.5980 N   0  0  0  0  0  0  0  0  0  0  0  0
    6.7580   -1.6940   26.7200 C   0  0  0  0  0  0  0  0  0  0  0  0
    6.2610   -3.8550   27.8220 C   0  0  0  0  0  0  0  0  0  0  0  0
    6.1210   -5.1790   27.4920 C   0  0  0  0  0  0  0  0  0  0  0  0
    6.3250   -6.1260   28.4600 C   0  0  0  0  0  0  0  0  0  0  0  0
    5.4210   -7.1630   28.6910 C   0  0  0  0  0  0  0  0  0  0  0  0
    7.1510   -2.8920   23.5740 C   0  0  0  0  0  0  0  0  0  0  0  0
    7.6050   -3.1670   22.1620 C   0  0  0  0  0  0  0  0  0  0  0  0
  1  2  1  0
  2  3  2  0
  2  4  1  0
  4  5  1  0
  5  6  1  0
  6  7  1  0
  7  8  1  0
  8  9  2  0
  8 10  1  0
 10 11  1  0
 10 12  1  0
 12 13  1  0
 13 14  3  0
 14 15  1  0
  7 16  1  0
  4 17  1  0
 16 17  1  0
M  END
