piperidine-amides-30224-covalent
     RDKit          3D

 27 29  0  0  0  0  0  0  0  0999 V2000
    7.0290   -3.3770   19.4540 C   0  0  0  0  0  0  0  0  0  0  0  0
    6.3720   -4.2690   20.4040 C   0  0  0  0  0  0  0  0  0  0  0  0
    5.4270   -4.9600   20.0140 O   0  0  0  0  0  0  0  0  0  0  0  0
    6.8470   -4.3650   21.7690 N   0  0  0  0  0  0  0  0  0  0  0  0
    7.6590   -3.3030   22.3310 C   0  0  0  0  0  0  0  0  0  0  0  0
    7.2660   -3.0090   23.7570 C   0  0  0  0  0  0  0  0  0  0  0  0
    5.9360   -3.6920   24.0260 C   0  0  0  0  0  0  0  0  0  0  0  0
    5.2260   -3.1830   25.2690 C   0  0  0  0  0  0  0  0  0  0  0  0
    4.4260   -2.2510   25.1500 O   0  0  0  0  0  0  0  0  0  0  0  0
    5.4010   -3.6780   26.6020 N   0  0  0  0  0  0  0  0  0  0  0  0
    6.6240   -3.3670   27.1780 C   0  0  0  0  0  0  0  0  0  0  0  0
    6.8740   -4.5180   28.1230 C   0  0  0  0  0  0  0  0  0  0  0  0
    5.9010   -4.6940   29.0050 C   0  0  0  0  0  0  0  0  0  0  0  0
    4.6080   -4.5480   28.5450 C   0  0  0  0  0  0  0  0  0  0  0  0
    4.3380   -3.5800   27.5810 C   0  0  1  0  0  0  0  0  0  0  0  0
    3.9150   -2.2690   28.0820 C   0  0  0  0  0  0  0  0  0  0  0  0
    4.9430   -1.5350   28.5330 N   0  0  0  0  0  0  0  0  0  0  0  0
    4.4030   -0.4250   28.9320 N   0  0  0  0  0  0  0  0  0  0  0  0
    3.1250   -0.7040   28.6440 C   0  0  0  0  0  0  0  0  0  0  0  0
    2.5970   -1.8680   28.0770 C   0  0  0  0  0  0  0  0  0  0  0  0
    1.3670   -2.4020   27.6870 C   0  0  0  0  0  0  0  0  0  0  0  0
    0.4410   -2.3650   28.6930 O   0  0  0  0  0  0  0  0  0  0  0  0
    1.1560   -2.8930   26.4260 N   0  0  0  0  0  0  0  0  0  0  0  0
    2.0990   -3.0790   25.4870 C   0  0  0  0  0  0  0  0  0  0  0  0
   -0.2630   -3.2070   26.2680 C   0  0  0  0  0  0  0  0  0  0  0  0
    6.0580   -5.1840   23.9190 C   0  0  0  0  0  0  0  0  0  0  0  0
    6.5240   -5.5340   22.5300 C   0  0  0  0  0  0  0  0  0  0  0  0
  1  2  1  0
  2  3  2  0
  2  4  1  0
  4  5  1  0
  5  6  1  0
  6  7  1  0
  7  8  1  0
  8  9  2  0
  8 10  1  0
 10 11  1  0
 11 12  1  0
 12 13  1  0
 13 14  1  0
 10 15  1  0
 14 15  1  0
 15 16  1  1
 16 17  1  0
 17 18  1  0
 18 19  2  0
 16 20  2  0
 19 20  1  0
 20 21  1  0
 21 22  2  0
 21 23  1  0
 23 24  1  0
 23 25  1  0
  7 26  1  0
  4 27  1  0
 26 27  1  0
M  END
