piperidine-amides-31232-covalent
     RDKit          3D

 28 31  0  0  0  0  0  0  0  0999 V2000
    7.0910   -3.3660   19.3780 C   0  0  0  0  0  0  0  0  0  0  0  0
    6.3780   -4.1790   20.3570 C   0  0  0  0  0  0  0  0  0  0  0  0
    5.3700   -4.8050   19.9830 O   0  0  0  0  0  0  0  0  0  0  0  0
    6.8420   -4.3180   21.6840 N   0  0  0  0  0  0  0  0  0  0  0  0
    6.6870   -5.5630   22.4120 C   0  0  0  0  0  0  0  0  0  0  0  0
    5.9390   -5.2240   23.6800 C   0  0  0  0  0  0  0  0  0  0  0  0
    5.6870   -3.7520   23.7720 C   0  0  0  0  0  0  0  0  0  0  0  0
    4.8980   -3.3710   24.9830 C   0  0  0  0  0  0  0  0  0  0  0  0
    3.7080   -3.7650   25.0880 O   0  0  0  0  0  0  0  0  0  0  0  0
    5.3570   -2.5930   26.0560 N   0  0  0  0  0  0  0  0  0  0  0  0
    6.5220   -3.0230   26.7290 C   0  0  0  0  0  0  0  0  0  0  0  0
    6.6950   -1.9540   27.6960 C   0  0  0  0  0  0  0  0  0  0  0  0
    6.7440   -2.2160   29.1300 C   0  0  0  0  0  0  0  0  0  0  0  0
    6.9130   -1.0530   30.0720 C   0  0  0  0  0  0  0  0  0  0  0  0
    7.0220    0.3500   29.5300 C   0  0  0  0  0  0  0  0  0  0  0  0
    6.9470    0.3910   28.0410 C   0  0  0  0  0  0  0  0  0  0  0  0
    6.7990   -0.7010   27.2160 C   0  0  0  0  0  0  0  0  0  0  0  0
    6.7300   -0.7260   25.7970 C   0  0  0  0  0  0  0  0  0  0  0  0
    4.6280   -1.6740   26.8660 C   0  0  1  0  0  0  0  0  0  0  0  0
    5.0200   -1.4860   28.3360 C   0  0  0  0  0  0  0  0  0  0  0  0
    4.4290   -0.2440   28.8110 N   0  0  0  0  0  0  0  0  0  0  0  0
    5.0730    0.9100   28.2650 C   0  0  0  0  0  0  0  0  0  0  0  0
    5.3460    0.7150   27.0960 C   0  0  0  0  0  0  0  0  0  0  0  0
    4.4340   -0.2430   26.4170 C   0  0  0  0  0  0  0  0  0  0  0  0
    3.1330   -0.1420   26.8060 C   0  0  0  0  0  0  0  0  0  0  0  0
    3.0920   -0.2210   28.3270 C   0  0  0  0  0  0  0  0  0  0  0  0
    6.9280   -2.9450   23.6290 C   0  0  0  0  0  0  0  0  0  0  0  0
    7.6530   -3.3160   22.3570 C   0  0  0  0  0  0  0  0  0  0  0  0
  1  2  1  0
  2  3  2  0
  2  4  1  0
  4  5  1  0
  5  6  1  0
  6  7  1  0
  7  8  1  0
  8  9  2  0
  8 10  1  0
 10 11  1  0
 11 12  1  0
 12 13  2  0
 13 14  1  0
 14 15  2  0
 15 16  1  0
 12 17  1  0
 16 17  2  0
 17 18  1  0
 19 10  1  6
 19 20  1  0
 20 21  1  0
 21 22  1  0
 22 23  1  0
 19 24  1  0
 23 24  1  0
 24 25  1  0
 21 26  1  0
 25 26  1  0
  7 27  1  0
  4 28  1  0
 27 28  1  0
M  END
