piperidine-amides-35423-covalent
     RDKit          3D

 34 37  0  0  0  0  0  0  0  0999 V2000
    7.0980   -3.3690   19.3460 C   0  0  0  0  0  0  0  0  0  0  0  0
    6.4170   -4.2180   20.3520 C   0  0  0  0  0  0  0  0  0  0  0  0
    5.4000   -4.8080   19.9820 O   0  0  0  0  0  0  0  0  0  0  0  0
    6.9610   -4.3600   21.6340 N   0  0  0  0  0  0  0  0  0  0  0  0
    7.7570   -3.3280   22.2290 C   0  0  0  0  0  0  0  0  0  0  0  0
    6.8760   -2.5320   23.1360 C   0  0  0  0  0  0  0  0  0  0  0  0
    6.0420   -3.4340   24.0650 C   0  0  0  0  0  0  0  0  0  0  0  0
    5.0230   -2.5290   24.6760 C   0  0  0  0  0  0  0  0  0  0  0  0
    4.3560   -1.7980   23.9750 O   0  0  0  0  0  0  0  0  0  0  0  0
    4.7940   -2.4960   26.0510 N   0  0  0  0  0  0  0  0  0  0  0  0
    5.1040   -3.7570   26.5040 C   0  0  0  0  0  0  0  0  0  0  0  0
    6.3260   -3.9870   26.5250 N   0  0  0  0  0  0  0  0  0  0  0  0
    6.7970   -5.0800   26.8800 C   0  0  0  0  0  0  0  0  0  0  0  0
    8.0850   -4.9720   26.8000 C   0  0  0  0  0  0  0  0  0  0  0  0
    8.5470   -4.6790   25.5810 C   0  0  0  0  0  0  0  0  0  0  0  0
    9.8230   -4.4790   25.3840 C   0  0  0  0  0  0  0  0  0  0  0  0
   10.8600   -4.5560   26.4050 C   0  0  0  0  0  0  0  0  0  0  0  0
   12.3180   -4.3590   26.2970 N   0  0  0  0  0  0  0  0  0  0  0  0
   12.9390   -4.4610   27.3830 O   0  0  0  0  0  0  0  0  0  0  0  0
   13.1370   -3.8900   25.3500 O   0  0  0  0  0  0  0  0  0  0  0  0
   10.1180   -4.9010   27.7380 C   0  0  0  0  0  0  0  0  0  0  0  0
    8.6840   -5.1560   28.0960 C   0  0  0  0  0  0  0  0  0  0  0  0
    5.8210   -6.1130   27.2900 C   0  0  0  0  0  0  0  0  0  0  0  0
    4.3420   -5.2450   27.0650 S   0  0  0  0  0  0  0  0  0  0  0  0
    5.5060   -1.5240   26.9340 C   0  0  0  0  0  0  0  0  0  0  0  0
    6.3300   -1.9210   28.1600 C   0  0  0  0  0  0  0  0  0  0  0  0
    6.9740   -0.8580   28.9790 C   0  0  0  0  0  0  0  0  0  0  0  0
    6.8030    0.5830   28.5850 C   0  0  0  0  0  0  0  0  0  0  0  0
    6.0630    0.8880   27.4670 C   0  0  0  0  0  0  0  0  0  0  0  0
    5.4070   -0.1830   26.6260 C   0  0  0  0  0  0  0  0  0  0  0  0
    4.6840    0.1740   25.5240 O   0  0  0  0  0  0  0  0  0  0  0  0
    5.1420    0.7040   24.3110 C   0  0  0  0  0  0  0  0  0  0  0  0
    5.4070   -4.5910   23.2730 C   0  0  0  0  0  0  0  0  0  0  0  0
    6.3920   -5.2540   22.5970 C   0  0  0  0  0  0  0  0  0  0  0  0
  1  2  1  0
  2  3  2  0
  2  4  1  0
  4  5  1  0
  5  6  1  0
  6  7  1  0
  7  8  1  0
  8  9  2  0
  8 10  1  0
 10 11  1  0
 11 12  2  0
 12 13  1  0
 13 14  1  0
 14 15  2  0
 15 16  1  0
 16 17  2  0
 17 18  1  0
 18 19  2  0
 18 20  1  0
 17 21  1  0
 14 22  1  0
 21 22  2  0
 13 23  2  0
 11 24  1  0
 23 24  1  0
 10 25  1  0
 25 26  2  0
 26 27  1  0
 27 28  2  0
 28 29  1  0
 25 30  1  0
 29 30  2  0
 30 31  1  0
 31 32  1  0
  7 33  1  0
  4 34  1  0
 33 34  1  0
M  CHG  2  18   1  20  -1
M  END
