piperidine-amides-34286-covalent
     RDKit          3D

 30 31  0  0  0  0  0  0  0  0999 V2000
    7.0350   -3.3540   19.3720 C   0  0  0  0  0  0  0  0  0  0  0  0
    6.3850   -4.2310   20.3580 C   0  0  0  0  0  0  0  0  0  0  0  0
    5.4090   -4.9280   20.0040 O   0  0  0  0  0  0  0  0  0  0  0  0
    6.8730   -4.3310   21.6800 N   0  0  0  0  0  0  0  0  0  0  0  0
    6.7000   -5.5920   22.3820 C   0  0  0  0  0  0  0  0  0  0  0  0
    6.1370   -5.2860   23.7840 C   0  0  0  0  0  0  0  0  0  0  0  0
    6.0160   -3.7870   23.8230 C   0  0  0  0  0  0  0  0  0  0  0  0
    5.2500   -3.2540   24.9790 C   0  0  0  0  0  0  0  0  0  0  0  0
    4.4280   -2.3610   24.7210 O   0  0  0  0  0  0  0  0  0  0  0  0
    5.3950   -3.6840   26.3150 N   0  0  0  0  0  0  0  0  0  0  0  0
    6.4550   -3.1040   26.9910 C   0  0  0  0  0  0  0  0  0  0  0  0
    6.6500   -4.0240   28.1630 C   0  0  0  0  0  0  0  0  0  0  0  0
    5.6540   -4.0150   28.9970 C   0  0  1  0  0  0  0  0  0  0  0  0
    5.7180   -2.7980   29.7120 N   0  0  0  0  0  0  0  0  0  0  0  0
    4.7760   -1.7730   29.5020 C   0  0  0  0  0  0  0  0  0  0  0  0
    3.4090   -2.0050   29.4880 O   0  0  0  0  0  0  0  0  0  0  0  0
    5.1910   -0.4910   29.3150 O   0  0  0  0  0  0  0  0  0  0  0  0
    6.0640    0.0430   30.2410 C   0  0  0  0  0  0  0  0  0  0  0  0
    7.2340   -0.6600   30.0660 C   0  0  0  0  0  0  0  0  0  0  0  0
    5.7860    0.0090   31.7480 C   0  0  0  0  0  0  0  0  0  0  0  0
    6.2300    1.4730   29.8300 C   0  0  0  0  0  0  0  0  0  0  0  0
    4.4940   -4.3560   28.4180 C   0  0  2  0  0  0  0  0  0  0  0  0
    4.1690   -5.7820   28.4570 C   0  0  0  0  0  0  0  0  0  0  0  0
    4.6610   -6.5490   27.3970 O   0  0  0  0  0  0  0  0  0  0  0  0
    3.4250   -6.3710   29.4470 O   0  0  0  0  0  0  0  0  0  0  0  0
    3.2870   -7.7620   29.6080 C   0  0  0  0  0  0  0  0  0  0  0  0
    2.0800   -8.2350   29.1760 C   0  0  0  0  0  0  0  0  0  0  0  0
    4.2500   -3.8120   27.1520 C   0  0  0  0  0  0  0  0  0  0  0  0
    7.3510   -3.1060   23.6970 C   0  0  0  0  0  0  0  0  0  0  0  0
    7.7190   -3.2750   22.2170 C   0  0  0  0  0  0  0  0  0  0  0  0
  1  2  1  0
  2  3  2  0
  2  4  1  0
  4  5  1  0
  5  6  1  0
  6  7  1  0
  7  8  1  0
  8  9  2  0
  8 10  1  0
 10 11  1  0
 11 12  1  0
 12 13  1  0
 13 14  1  6
 14 15  1  0
 15 16  2  0
 15 17  1  0
 18 17  1  0
 18 19  1  0
 18 20  1  0
 18 21  1  0
 13 22  1  0
 22 23  1  6
 23 24  2  0
 23 25  1  0
 25 26  1  0
 26 27  1  0
 10 28  1  0
 22 28  1  0
  7 29  1  0
  4 30  1  0
 29 30  1  0
M  END
