piperidine-amides-7391-covalent
     RDKit          3D

 19 20  0  0  0  0  0  0  0  0999 V2000
    7.1010   -3.2650   19.2060 C   0  0  0  0  0  0  0  0  0  0  0  0
    6.3700   -3.9980   20.2430 C   0  0  0  0  0  0  0  0  0  0  0  0
    5.3000   -4.5650   19.8900 O   0  0  0  0  0  0  0  0  0  0  0  0
    6.8760   -4.0860   21.5380 N   0  0  0  0  0  0  0  0  0  0  0  0
    7.7620   -3.0800   22.0860 C   0  0  0  0  0  0  0  0  0  0  0  0
    7.3970   -2.8910   23.5250 C   0  0  0  0  0  0  0  0  0  0  0  0
    6.0500   -3.4890   23.8120 C   0  0  0  0  0  0  0  0  0  0  0  0
    5.6290   -3.2100   25.1960 C   0  0  0  0  0  0  0  0  0  0  0  0
    4.4740   -2.7750   25.3870 O   0  0  0  0  0  0  0  0  0  0  0  0
    6.4560   -3.4170   26.3130 N   0  0  0  0  0  0  0  0  0  0  0  0
    6.1060   -4.4250   27.2690 C   0  0  1  0  0  0  0  0  0  0  0  0
    6.7450   -5.6970   26.9950 C   0  0  0  0  0  0  0  0  0  0  0  0
    7.2490   -5.6560   28.2150 C   0  0  1  0  0  0  0  0  0  0  0  0
    8.6580   -5.6940   28.3640 O   0  0  0  0  0  0  0  0  0  0  0  0
    9.5280   -5.0200   27.5930 C   0  0  0  0  0  0  0  0  0  0  0  0
    9.7140   -5.5050   26.3070 C   0  0  0  0  0  0  0  0  0  0  0  0
    6.6250   -4.4280   28.6160 C   0  0  0  0  0  0  0  0  0  0  0  0
    6.0250   -5.0050   23.6320 C   0  0  0  0  0  0  0  0  0  0  0  0
    6.5760   -5.3180   22.2630 C   0  0  0  0  0  0  0  0  0  0  0  0
  1  2  1  0
  2  3  2  0
  2  4  1  0
  4  5  1  0
  5  6  1  0
  6  7  1  0
  7  8  1  0
  8  9  2  0
  8 10  1  0
 11 10  1  6
 11 12  1  0
 12 13  1  0
 13 14  1  6
 14 15  1  0
 15 16  1  0
 11 17  1  0
 13 17  1  0
  7 18  1  0
  4 19  1  0
 18 19  1  0
M  END
