piperidine-amides-26106-covalent
     RDKit          3D

 25 28  0  0  0  0  0  0  0  0999 V2000
    7.1080   -3.2700   19.2290 C   0  0  0  0  0  0  0  0  0  0  0  0
    6.3610   -4.0250   20.2380 C   0  0  0  0  0  0  0  0  0  0  0  0
    5.3090   -4.5950   19.9050 O   0  0  0  0  0  0  0  0  0  0  0  0
    6.8340   -4.1590   21.5510 N   0  0  0  0  0  0  0  0  0  0  0  0
    6.6370   -5.3520   22.3380 C   0  0  0  0  0  0  0  0  0  0  0  0
    5.9550   -4.8990   23.6060 C   0  0  0  0  0  0  0  0  0  0  0  0
    6.6010   -3.6890   24.2250 C   0  0  0  0  0  0  0  0  0  0  0  0
    5.7730   -3.1330   25.3260 C   0  0  0  0  0  0  0  0  0  0  0  0
    4.5120   -3.2660   25.2820 O   0  0  0  0  0  0  0  0  0  0  0  0
    6.2800   -2.4440   26.4590 N   0  0  0  0  0  0  0  0  0  0  0  0
    6.0790   -0.9990   26.5250 C   0  0  0  0  0  0  0  0  0  0  0  0
    5.5580   -1.3750   27.8170 C   0  0  0  0  0  0  0  0  0  0  0  0
    6.1820   -0.6980   28.8070 N   0  0  0  0  0  0  0  0  0  0  0  0
    5.6570   -0.5830   30.1320 C   0  0  0  0  0  0  0  0  0  0  0  0
    6.0940    0.7320   30.7440 C   0  0  0  0  0  0  0  0  0  0  0  0
    7.4780    0.8550   30.5490 N   0  0  0  0  0  0  0  0  0  0  0  0
    8.2890    1.7000   31.1780 C   0  0  0  0  0  0  0  0  0  0  0  0
    8.1000    2.7360   32.2210 C   0  0  0  0  0  0  0  0  0  0  0  0
    9.5190    1.4680   30.6760 N   0  0  0  0  0  0  0  0  0  0  0  0
    9.4650    0.5010   29.7590 N   0  0  0  0  0  0  0  0  0  0  0  0
    8.1830    0.0520   29.6200 C   0  0  0  0  0  0  0  0  0  0  0  0
    7.6250   -0.9310   28.8060 C   0  0  0  0  0  0  0  0  0  0  0  0
    5.8920   -2.7390   27.8340 C   0  0  0  0  0  0  0  0  0  0  0  0
    6.9090   -2.5670   23.2780 C   0  0  0  0  0  0  0  0  0  0  0  0
    7.6840   -3.1400   22.1280 C   0  0  0  0  0  0  0  0  0  0  0  0
  1  2  1  0
  2  3  2  0
  2  4  1  0
  4  5  1  0
  5  6  1  0
  6  7  1  0
  7  8  1  0
  8  9  2  0
  8 10  1  0
 10 11  1  0
 11 12  1  0
 12 13  1  0
 13 14  1  0
 14 15  1  0
 15 16  1  0
 16 17  1  0
 17 18  1  0
 17 19  2  0
 19 20  1  0
 16 21  1  0
 20 21  2  0
 13 22  1  0
 21 22  1  0
 10 23  1  0
 12 23  1  0
  7 24  1  0
  4 25  1  0
 24 25  1  0
M  END
