piperidine-amides-34869-covalent
     RDKit          3D

 32 35  0  0  0  0  0  0  0  0999 V2000
    6.9840   -3.3220   19.3740 C   0  0  0  0  0  0  0  0  0  0  0  0
    6.3340   -4.1720   20.4100 C   0  0  0  0  0  0  0  0  0  0  0  0
    5.4180   -4.8890   20.0000 O   0  0  0  0  0  0  0  0  0  0  0  0
    6.7570   -4.1760   21.7600 N   0  0  0  0  0  0  0  0  0  0  0  0
    7.5520   -3.1040   22.3360 C   0  0  0  0  0  0  0  0  0  0  0  0
    7.0400   -2.7820   23.7220 C   0  0  0  0  0  0  0  0  0  0  0  0
    5.7280   -3.5500   23.9280 C   0  0  0  0  0  0  0  0  0  0  0  0
    4.8980   -3.0810   25.1070 C   0  0  0  0  0  0  0  0  0  0  0  0
    3.7020   -2.8900   24.8890 O   0  0  0  0  0  0  0  0  0  0  0  0
    5.3350   -2.8470   26.4460 N   0  0  0  0  0  0  0  0  0  0  0  0
    4.3930   -3.0350   27.5370 C   0  0  0  0  0  0  0  0  0  0  0  0
    5.0210   -4.2330   28.1690 C   0  0  1  0  0  0  0  0  0  0  0  0
    6.2320   -4.4420   27.6070 C   0  0  1  0  0  0  0  0  0  0  0  0
    6.5580   -3.3320   26.8460 C   0  0  0  0  0  0  0  0  0  0  0  0
    6.2230   -4.1070   29.0770 C   0  0  2  0  0  0  0  0  0  0  0  0
    4.9570   -4.6870   29.6840 C   0  0  0  0  0  0  0  0  0  0  0  0
    3.9060   -3.9030   30.0860 O   0  0  0  0  0  0  0  0  0  0  0  0
    5.0320   -6.0350   29.7540 N   0  0  0  0  0  0  0  0  0  0  0  0
    4.3370   -6.5740   30.7890 C   0  0  0  0  0  0  0  0  0  0  0  0
    3.8610   -5.8530   32.0250 C   0  0  0  0  0  0  0  0  0  0  0  0
    5.3250   -7.4620   31.5160 C   0  0  0  0  0  0  0  0  0  0  0  0
    3.4080   -7.4510   30.2510 C   0  0  0  0  0  0  0  0  0  0  0  0
    2.2240   -7.3910   30.6630 O   0  0  0  0  0  0  0  0  0  0  0  0
    1.4940   -8.6310   30.7750 C   0  0  0  0  0  0  0  0  0  0  0  0
    0.7780   -9.0600   29.7010 N   0  0  0  0  0  0  0  0  0  0  0  0
    0.0760  -10.2160   29.7410 C   0  0  0  0  0  0  0  0  0  0  0  0
    0.0990  -11.0210   31.0020 C   0  0  0  0  0  0  0  0  0  0  0  0
    0.7940  -10.6110   32.0600 C   0  0  0  0  0  0  0  0  0  0  0  0
    1.5460   -9.3380   31.9590 C   0  0  0  0  0  0  0  0  0  0  0  0
    2.3640   -8.8310   33.1500 C   0  0  0  0  0  0  0  0  0  0  0  0
    6.0750   -5.0300   23.8710 C   0  0  0  0  0  0  0  0  0  0  0  0
    6.5400   -5.3370   22.6110 C   0  0  0  0  0  0  0  0  0  0  0  0
  1  2  1  0
  2  3  2  0
  2  4  1  0
  4  5  1  0
  5  6  1  0
  6  7  1  0
  7  8  1  0
  8  9  2  0
  8 10  1  0
 10 11  1  0
 12 11  1  6
 12 13  1  0
 10 14  1  0
 13 14  1  6
 12 15  1  0
 13 15  1  0
 15 16  1  1
 16 17  2  0
 16 18  1  0
 19 18  1  0
 19 20  1  0
 19 21  1  0
 19 22  1  0
 22 23  1  0
 23 24  1  0
 24 25  2  0
 25 26  1  0
 26 27  2  0
 27 28  1  0
 24 29  1  0
 28 29  2  0
 29 30  1  0
  7 31  1  0
  4 32  1  0
 31 32  1  0
M  END
