piperidine-amides-8675-covalent
     RDKit          3D

 23 25  0  0  0  0  0  0  0  0999 V2000
    7.0090   -3.3350   19.3490 C   0  0  0  0  0  0  0  0  0  0  0  0
    6.3460   -4.1690   20.3570 C   0  0  0  0  0  0  0  0  0  0  0  0
    5.3990   -4.8830   19.9860 O   0  0  0  0  0  0  0  0  0  0  0  0
    6.7900   -4.1810   21.7060 N   0  0  0  0  0  0  0  0  0  0  0  0
    7.6820   -3.1480   22.1490 C   0  0  0  0  0  0  0  0  0  0  0  0
    7.5030   -2.9990   23.6120 C   0  0  0  0  0  0  0  0  0  0  0  0
    6.1070   -3.5060   23.8720 C   0  0  0  0  0  0  0  0  0  0  0  0
    5.6920   -3.1860   25.2780 C   0  0  0  0  0  0  0  0  0  0  0  0
    4.5080   -3.3540   25.5610 O   0  0  0  0  0  0  0  0  0  0  0  0
    6.6860   -2.7320   26.1370 N   0  0  0  0  0  0  0  0  0  0  0  0
    6.5620   -1.6050   27.0130 C   0  0  0  0  0  0  0  0  0  0  0  0
    7.0780   -1.5950   28.3080 C   0  0  0  0  0  0  0  0  0  0  0  0
    6.9630   -0.5070   29.1520 C   0  0  0  0  0  0  0  0  0  0  0  0
    6.3260    0.7060   28.8370 C   0  0  0  0  0  0  0  0  0  0  0  0
    5.7430    0.7550   27.4470 C   0  0  0  0  0  0  0  0  0  0  0  0
    5.8700   -0.4530   26.5000 C   0  0  0  0  0  0  0  0  0  0  0  0
    5.3410   -0.2870   25.3710 O   0  0  0  0  0  0  0  0  0  0  0  0
    5.7680    0.8170   24.6810 C   0  0  0  0  0  0  0  0  0  0  0  0
    4.6770    1.8370   24.5250 C   0  0  0  0  0  0  0  0  0  0  0  0
    4.0790    1.9970   25.9400 C   0  0  0  0  0  0  0  0  0  0  0  0
    5.0560    1.8460   26.8860 O   0  0  0  0  0  0  0  0  0  0  0  0
    6.0560   -5.0160   23.7070 C   0  0  0  0  0  0  0  0  0  0  0  0
    6.6700   -5.3790   22.5110 C   0  0  0  0  0  0  0  0  0  0  0  0
  1  2  1  0
  2  3  2  0
  2  4  1  0
  4  5  1  0
  5  6  1  0
  6  7  1  0
  7  8  1  0
  8  9  2  0
  8 10  1  0
 10 11  1  0
 11 12  2  0
 12 13  1  0
 13 14  2  0
 14 15  1  0
 11 16  1  0
 15 16  2  0
 16 17  1  0
 17 18  1  0
 18 19  1  0
 19 20  1  0
 15 21  1  0
 20 21  1  0
  7 22  1  0
  4 23  1  0
 22 23  1  0
M  END
