piperidine-amides-32506-covalent
     RDKit          3D

 28 29  0  0  0  0  0  0  0  0999 V2000
    7.0580   -3.3790   19.4460 C   0  0  0  0  0  0  0  0  0  0  0  0
    6.3470   -4.2570   20.4120 C   0  0  0  0  0  0  0  0  0  0  0  0
    5.3730   -4.9110   19.9990 O   0  0  0  0  0  0  0  0  0  0  0  0
    6.8150   -4.3690   21.7470 N   0  0  0  0  0  0  0  0  0  0  0  0
    6.6420   -5.5820   22.5260 C   0  0  0  0  0  0  0  0  0  0  0  0
    6.0230   -5.2360   23.9030 C   0  0  0  0  0  0  0  0  0  0  0  0
    5.8590   -3.7550   23.9760 C   0  0  0  0  0  0  0  0  0  0  0  0
    5.1050   -3.1850   25.1480 C   0  0  0  0  0  0  0  0  0  0  0  0
    4.1940   -2.4250   24.8320 O   0  0  0  0  0  0  0  0  0  0  0  0
    5.3610   -3.4620   26.5030 N   0  0  0  0  0  0  0  0  0  0  0  0
    4.4840   -3.4370   27.5920 C   0  0  0  0  0  0  0  0  0  0  0  0
    5.1590   -3.4190   28.7730 C   0  0  1  0  0  0  0  0  0  0  0  0
    4.7640   -4.6230   29.4940 N   0  0  0  0  0  0  0  0  0  0  0  0
    3.7930   -4.6510   30.4990 C   0  0  0  0  0  0  0  0  0  0  0  0
    3.4380   -3.5900   31.3160 O   0  0  0  0  0  0  0  0  0  0  0  0
    3.1980   -5.8920   30.5940 O   0  0  0  0  0  0  0  0  0  0  0  0
    3.9010   -7.1380   30.6860 C   0  0  0  0  0  0  0  0  0  0  0  0
    3.1890   -8.0170   31.6500 C   0  0  0  0  0  0  0  0  0  0  0  0
    3.8030   -7.7940   29.4670 C   0  0  0  0  0  0  0  0  0  0  0  0
    5.2590   -6.9690   30.8570 C   0  0  0  0  0  0  0  0  0  0  0  0
    6.5180   -3.3740   28.4890 C   0  0  1  0  0  0  0  0  0  0  0  0
    6.5500   -4.8340   28.3630 C   0  0  0  0  0  0  0  0  0  0  0  0
    7.4290   -5.6670   28.9960 O   0  0  0  0  0  0  0  0  0  0  0  0
    5.5310   -5.3240   27.5500 O   0  0  0  0  0  0  0  0  0  0  0  0
    5.6720   -6.6490   27.1870 C   0  0  0  0  0  0  0  0  0  0  0  0
    6.5760   -2.9190   26.9820 C   0  0  0  0  0  0  0  0  0  0  0  0
    7.1210   -2.9970   23.7260 C   0  0  0  0  0  0  0  0  0  0  0  0
    7.6400   -3.3190   22.3470 C   0  0  0  0  0  0  0  0  0  0  0  0
  1  2  1  0
  2  3  2  0
  2  4  1  0
  4  5  1  0
  5  6  1  0
  6  7  1  0
  7  8  1  0
  8  9  2  0
  8 10  1  0
 10 11  1  0
 11 12  1  0
 12 13  1  6
 13 14  1  0
 14 15  2  0
 14 16  1  0
 17 16  1  0
 17 18  1  0
 17 19  1  0
 17 20  1  0
 12 21  1  0
 21 22  1  6
 22 23  2  0
 22 24  1  0
 24 25  1  0
 10 26  1  0
 21 26  1  0
  7 27  1  0
  4 28  1  0
 27 28  1  0
M  END
