piperidine-amides-6769-covalent
     RDKit          3D

 23 24  0  0  0  0  0  0  0  0999 V2000
    7.1110   -3.2960   19.2180 C   0  0  0  0  0  0  0  0  0  0  0  0
    6.3400   -4.0420   20.2210 C   0  0  0  0  0  0  0  0  0  0  0  0
    5.2710   -4.5970   19.9000 O   0  0  0  0  0  0  0  0  0  0  0  0
    6.8260   -4.1860   21.5230 N   0  0  0  0  0  0  0  0  0  0  0  0
    6.5190   -5.3830   22.2670 C   0  0  0  0  0  0  0  0  0  0  0  0
    5.6700   -4.9180   23.4510 C   0  0  0  0  0  0  0  0  0  0  0  0
    6.5070   -3.9060   24.2050 C   0  0  0  0  0  0  0  0  0  0  0  0
    5.7460   -3.4490   25.3780 C   0  0  0  0  0  0  0  0  0  0  0  0
    4.5040   -3.3410   25.2760 O   0  0  0  0  0  0  0  0  0  0  0  0
    6.4400   -3.1400   26.5690 N   0  0  0  0  0  0  0  0  0  0  0  0
    6.1320   -3.7590   27.8360 C   0  0  1  0  0  0  0  0  0  0  0  0
    5.1970   -2.7790   28.5260 C   0  0  0  0  0  0  0  0  0  0  0  0
    5.8370   -1.7620   29.3130 N   0  0  0  0  0  0  0  0  0  0  0  0
    4.7570   -1.0510   29.7910 O   0  0  0  0  0  0  0  0  0  0  0  0
    3.5990   -1.6370   29.3030 C   0  0  0  0  0  0  0  0  0  0  0  0
    2.4160   -1.1230   29.6310 O   0  0  0  0  0  0  0  0  0  0  0  0
    3.8540   -2.7170   28.5120 N   0  0  0  0  0  0  0  0  0  0  0  0
    5.6640   -5.1700   27.8390 C   0  0  0  0  0  0  0  0  0  0  0  0
    5.4130   -5.7120   26.5760 C   0  0  0  0  0  0  0  0  0  0  0  0
    4.5350   -5.2160   28.6070 C   0  0  0  0  0  0  0  0  0  0  0  0
    6.5210   -5.8970   28.6500 C   0  0  0  0  0  0  0  0  0  0  0  0
    6.9590   -2.7470   23.3740 C   0  0  0  0  0  0  0  0  0  0  0  0
    7.6760   -3.1940   22.1520 C   0  0  0  0  0  0  0  0  0  0  0  0
  1  2  1  0
  2  3  2  0
  2  4  1  0
  4  5  1  0
  5  6  1  0
  6  7  1  0
  7  8  1  0
  8  9  2  0
  8 10  1  0
 11 10  1  6
 11 12  1  0
 12 13  2  0
 13 14  1  0
 14 15  1  0
 15 16  1  0
 12 17  1  0
 15 17  2  0
 11 18  1  0
 18 19  1  0
 18 20  1  0
 18 21  1  0
  7 22  1  0
  4 23  1  0
 22 23  1  0
M  END
