piperidine-amides-418-covalent
     RDKit          3D

 31 33  0  0  0  0  0  0  0  0999 V2000
    7.0480   -3.3630   19.2930 C   0  0  0  0  0  0  0  0  0  0  0  0
    6.3640   -4.1110   20.3270 C   0  0  0  0  0  0  0  0  0  0  0  0
    5.3560   -4.8020   19.9740 O   0  0  0  0  0  0  0  0  0  0  0  0
    6.7770   -4.1540   21.6800 N   0  0  0  0  0  0  0  0  0  0  0  0
    7.6990   -3.0620   22.1400 C   0  0  0  0  0  0  0  0  0  0  0  0
    7.5930   -3.1220   23.7130 C   0  0  0  0  0  0  0  0  0  0  0  0
    6.1920   -3.5990   23.9620 C   0  0  0  0  0  0  0  0  0  0  0  0
    5.4820   -3.0160   25.2600 C   0  0  0  0  0  0  0  0  0  0  0  0
    4.6170   -2.2230   24.9210 O   0  0  0  0  0  0  0  0  0  0  0  0
    5.9510   -3.5000   26.3410 N   0  0  0  0  0  0  0  0  0  0  0  0
    6.3430   -3.9380   27.5670 C   0  0  0  0  0  0  0  0  0  0  0  0
    6.4940   -5.0450   28.3540 C   0  0  0  0  0  0  0  0  0  0  0  0
    5.3600   -5.3680   29.1320 C   0  0  0  0  0  0  0  0  0  0  0  0
    4.9910   -6.7910   29.1080 C   0  0  0  0  0  0  0  0  0  0  0  0
    5.0840   -7.2630   30.4190 O   0  0  0  0  0  0  0  0  0  0  0  0
    3.8500   -7.7630   30.8250 C   0  0  0  0  0  0  0  0  0  0  0  0
    3.0080   -8.0770   29.7350 C   0  0  0  0  0  0  0  0  0  0  0  0
    1.6630   -8.6090   29.5930 C   0  0  0  0  0  0  0  0  0  0  0  0
    1.2630   -8.7990   31.1010 C   0  0  0  0  0  0  0  0  0  0  0  0
   -0.0010   -9.3070   31.3260 O   0  0  0  0  0  0  0  0  0  0  0  0
   -0.2920  -10.5180   31.9770 C   0  0  0  0  0  0  0  0  0  0  0  0
    0.1160  -11.5230   31.1310 C   0  0  0  0  0  0  0  0  0  0  0  0
    0.4560  -11.2720   29.8310 C   0  0  0  0  0  0  0  0  0  0  0  0
    0.8570  -12.2820   29.0270 C   0  0  0  0  0  0  0  0  0  0  0  0
    0.9300  -13.5750   29.4890 C   0  0  0  0  0  0  0  0  0  0  0  0
    0.6210  -14.0130   30.7770 C   0  0  0  0  0  0  0  0  0  0  0  0
    0.1910  -12.8160   31.5870 C   0  0  0  0  0  0  0  0  0  0  0  0
    2.0610   -8.5040   32.1630 C   0  0  0  0  0  0  0  0  0  0  0  0
    3.4260   -7.9570   32.0680 C   0  0  0  0  0  0  0  0  0  0  0  0
    6.0840   -5.0960   23.7530 C   0  0  0  0  0  0  0  0  0  0  0  0
    6.6840   -5.4100   22.4030 C   0  0  0  0  0  0  0  0  0  0  0  0
  1  2  1  0
  2  3  2  0
  2  4  1  0
  4  5  1  0
  5  6  1  0
  6  7  1  0
  7  8  1  0
  8  9  2  0
  8 10  1  0
 10 11  1  0
 11 12  1  0
 12 13  1  0
 13 14  1  0
 14 15  1  0
 15 16  1  0
 16 17  2  0
 17 18  1  0
 18 19  2  0
 19 20  1  0
 20 21  1  0
 21 22  1  0
 22 23  2  0
 23 24  1  0
 24 25  2  0
 25 26  1  0
 22 27  1  0
 26 27  2  0
 19 28  1  0
 16 29  1  0
 28 29  2  0
  7 30  1  0
  4 31  1  0
 30 31  1  0
M  END
