piperidine-amides-34116-covalent
     RDKit          3D

 26 28  0  0  0  0  0  0  0  0999 V2000
    7.1530   -3.3450   19.3420 C   0  0  0  0  0  0  0  0  0  0  0  0
    6.4360   -4.1790   20.3060 C   0  0  0  0  0  0  0  0  0  0  0  0
    5.3820   -4.7720   19.9770 O   0  0  0  0  0  0  0  0  0  0  0  0
    6.9850   -4.3570   21.5800 N   0  0  0  0  0  0  0  0  0  0  0  0
    7.7790   -3.2970   22.1530 C   0  0  0  0  0  0  0  0  0  0  0  0
    6.8780   -2.6500   23.1860 C   0  0  0  0  0  0  0  0  0  0  0  0
    6.5980   -3.7200   24.2090 C   0  0  0  0  0  0  0  0  0  0  0  0
    5.7740   -3.1110   25.2590 C   0  0  0  0  0  0  0  0  0  0  0  0
    4.6840   -2.6120   24.9080 O   0  0  0  0  0  0  0  0  0  0  0  0
    6.1800   -3.0950   26.6120 N   0  0  0  0  0  0  0  0  0  0  0  0
    6.2810   -1.7950   27.2480 C   0  0  0  0  0  0  0  0  0  0  0  0
    6.9950   -1.6520   28.5660 C   0  0  0  0  0  0  0  0  0  0  0  0
    7.0460   -0.4190   29.1420 C   0  0  0  0  0  0  0  0  0  0  0  0
    6.4720    0.6890   28.5590 C   0  0  0  0  0  0  0  0  0  0  0  0
    6.5900    2.3860   29.4580 Br  0  0  0  0  0  0  0  0  0  0  0  0
    5.8040    0.6180   27.3280 C   0  0  0  0  0  0  0  0  0  0  0  0
    5.6770   -0.5720   26.6350 C   0  0  0  0  0  0  0  0  0  0  0  0
    5.5980   -4.2030   27.4020 C   0  0  0  0  0  0  0  0  0  0  0  0
    4.2910   -4.5880   26.7530 C   0  0  0  0  0  0  0  0  0  0  0  0
    3.2520   -3.5720   27.1310 C   0  0  0  0  0  0  0  0  0  0  0  0
    3.1370   -3.4590   28.4470 N   0  0  0  0  0  0  0  0  0  0  0  0
    1.8890   -2.8320   28.8130 C   0  0  0  0  0  0  0  0  0  0  0  0
    4.3870   -3.0460   28.9880 C   0  0  0  0  0  0  0  0  0  0  0  0
    5.4500   -3.8610   28.7100 C   0  0  0  0  0  0  0  0  0  0  0  0
    5.8240   -4.8980   23.6240 C   0  0  0  0  0  0  0  0  0  0  0  0
    6.5360   -5.4380   22.4060 C   0  0  0  0  0  0  0  0  0  0  0  0
  1  2  1  0
  2  3  2  0
  2  4  1  0
  4  5  1  0
  5  6  1  0
  6  7  1  0
  7  8  1  0
  8  9  2  0
  8 10  1  0
 10 11  1  0
 11 12  2  0
 12 13  1  0
 13 14  2  0
 14 15  1  0
 14 16  1  0
 11 17  1  0
 16 17  2  0
 10 18  1  0
 18 19  1  0
 19 20  1  0
 20 21  1  0
 21 22  1  0
 21 23  1  0
 18 24  1  0
 23 24  1  0
  7 25  1  0
  4 26  1  0
 25 26  1  0
M  END
