piperidine-amides-12546-covalent
     RDKit          3D

 23 24  0  0  0  0  0  0  0  0999 V2000
    7.1120   -3.2530   19.2350 C   0  0  0  0  0  0  0  0  0  0  0  0
    6.3570   -4.0250   20.2480 C   0  0  0  0  0  0  0  0  0  0  0  0
    5.2750   -4.5170   19.8720 O   0  0  0  0  0  0  0  0  0  0  0  0
    6.8640   -4.2360   21.5390 N   0  0  0  0  0  0  0  0  0  0  0  0
    7.5930   -3.2070   22.2150 C   0  0  0  0  0  0  0  0  0  0  0  0
    7.1500   -2.8880   23.5830 C   0  0  0  0  0  0  0  0  0  0  0  0
    6.3710   -3.9320   24.3010 C   0  0  0  0  0  0  0  0  0  0  0  0
    5.5250   -3.3080   25.3650 C   0  0  0  0  0  0  0  0  0  0  0  0
    4.5660   -2.6120   24.9840 O   0  0  0  0  0  0  0  0  0  0  0  0
    5.7650   -3.4570   26.7590 N   0  0  0  0  0  0  0  0  0  0  0  0
    6.0410   -4.7610   27.4200 C   0  0  0  0  0  0  0  0  0  0  0  0
    5.0260   -5.2520   28.3860 C   0  0  0  0  0  0  0  0  0  0  0  0
    4.0800   -6.1050   27.6650 C   0  0  0  0  0  0  0  0  0  0  0  0
    3.7340   -5.7640   26.3770 C   0  0  0  0  0  0  0  0  0  0  0  0
    2.8030   -6.4170   25.8760 O   0  0  0  0  0  0  0  0  0  0  0  0
    3.1750   -7.6240   25.5300 C   0  0  0  0  0  0  0  0  0  0  0  0
    5.5540   -6.0210   29.3910 C   0  0  0  0  0  0  0  0  0  0  0  0
    4.6280   -6.5360   30.2470 C   0  0  0  0  0  0  0  0  0  0  0  0
    3.6260   -5.7640   30.7600 C   0  0  0  0  0  0  0  0  0  0  0  0
    3.4710   -4.5200   30.1470 C   0  0  0  0  0  0  0  0  0  0  0  0
    4.3430   -4.2160   28.9890 C   0  0  0  0  0  0  0  0  0  0  0  0
    5.5500   -4.8090   23.4210 C   0  0  0  0  0  0  0  0  0  0  0  0
    6.4050   -5.3530   22.3180 C   0  0  0  0  0  0  0  0  0  0  0  0
  1  2  1  0
  2  3  2  0
  2  4  1  0
  4  5  1  0
  5  6  1  0
  6  7  1  0
  7  8  1  0
  8  9  2  0
  8 10  1  0
 10 11  1  0
 12 11  1  0
 12 13  1  0
 13 14  1  0
 14 15  1  0
 15 16  1  0
 12 17  1  0
 17 18  1  0
 18 19  1  0
 19 20  1  0
 12 21  1  0
 20 21  1  0
  7 22  1  0
  4 23  1  0
 22 23  1  0
M  END
