piperidine-amides-26915-covalent
     RDKit          3D

 25 27  0  0  0  0  0  0  0  0999 V2000
    7.1150   -3.3460   19.3410 C   0  0  0  0  0  0  0  0  0  0  0  0
    6.3880   -4.1570   20.3140 C   0  0  0  0  0  0  0  0  0  0  0  0
    5.3010   -4.6500   19.9240 O   0  0  0  0  0  0  0  0  0  0  0  0
    6.9410   -4.4160   21.5740 N   0  0  0  0  0  0  0  0  0  0  0  0
    6.6190   -5.6030   22.3060 C   0  0  0  0  0  0  0  0  0  0  0  0
    5.7960   -5.1720   23.4810 C   0  0  0  0  0  0  0  0  0  0  0  0
    6.4100   -4.0190   24.2390 C   0  0  0  0  0  0  0  0  0  0  0  0
    5.5020   -3.6570   25.3520 C   0  0  0  0  0  0  0  0  0  0  0  0
    4.6340   -2.7810   25.1690 O   0  0  0  0  0  0  0  0  0  0  0  0
    5.6120   -4.2830   26.6050 N   0  0  0  0  0  0  0  0  0  0  0  0
    6.9350   -4.5730   26.9030 C   0  0  0  0  0  0  0  0  0  0  0  0
    7.0910   -5.2880   28.2150 C   0  0  0  0  0  0  0  0  0  0  0  0
    6.1810   -5.0190   29.1670 C   0  0  0  0  0  0  0  0  0  0  0  0
    4.8890   -4.7750   28.7550 C   0  0  1  0  0  0  0  0  0  0  0  0
    4.1810   -5.8890   28.3550 C   0  0  0  0  0  0  0  0  0  0  0  0
    2.9380   -5.8200   28.9040 C   0  0  0  0  0  0  0  0  0  0  0  0
    1.9320   -6.6930   28.5460 C   0  0  0  0  0  0  0  0  0  0  0  0
    1.0830   -7.3200   29.4720 O   0  0  0  0  0  0  0  0  0  0  0  0
    1.8530   -6.8780   27.2050 O   0  0  0  0  0  0  0  0  0  0  0  0
    2.5550   -8.0030   26.8260 C   0  0  0  0  0  0  0  0  0  0  0  0
    2.9060   -4.8050   29.7800 N   0  0  0  0  0  0  0  0  0  0  0  0
    4.1530   -4.2010   29.7870 O   0  0  0  0  0  0  0  0  0  0  0  0
    4.9750   -3.7710   27.7830 C   0  0  0  0  0  0  0  0  0  0  0  0
    6.7180   -2.8110   23.3320 C   0  0  0  0  0  0  0  0  0  0  0  0
    7.6730   -3.3820   22.2980 C   0  0  0  0  0  0  0  0  0  0  0  0
  1  2  1  0
  2  3  2  0
  2  4  1  0
  4  5  1  0
  5  6  1  0
  6  7  1  0
  7  8  1  0
  8  9  2  0
  8 10  1  0
 10 11  1  0
 11 12  1  0
 12 13  1  0
 14 13  1  1
 14 15  1  0
 15 16  1  0
 16 17  1  0
 17 18  2  0
 17 19  1  0
 19 20  1  0
 16 21  2  0
 14 22  1  0
 21 22  1  0
 10 23  1  0
 14 23  1  0
  7 24  1  0
  4 25  1  0
 24 25  1  0
M  END
