piperidine-amides-23366-covalent
     RDKit          3D

 24 26  0  0  0  0  0  0  0  0999 V2000
    7.0710   -3.3330   19.2590 C   0  0  0  0  0  0  0  0  0  0  0  0
    6.3910   -4.1360   20.2850 C   0  0  0  0  0  0  0  0  0  0  0  0
    5.3380   -4.7230   19.9460 O   0  0  0  0  0  0  0  0  0  0  0  0
    6.9380   -4.2830   21.5820 N   0  0  0  0  0  0  0  0  0  0  0  0
    6.5670   -5.4190   22.3490 C   0  0  0  0  0  0  0  0  0  0  0  0
    6.2190   -5.1060   23.7310 C   0  0  0  0  0  0  0  0  0  0  0  0
    6.7340   -3.8200   24.2380 C   0  0  0  0  0  0  0  0  0  0  0  0
    5.9270   -3.3640   25.4230 C   0  0  0  0  0  0  0  0  0  0  0  0
    5.0110   -2.5340   25.2610 O   0  0  0  0  0  0  0  0  0  0  0  0
    6.1500   -3.8850   26.7150 N   0  0  0  0  0  0  0  0  0  0  0  0
    5.6140   -5.1020   27.1840 C   0  0  0  0  0  0  0  0  0  0  0  0
    5.6980   -5.4750   28.5970 C   0  0  0  0  0  0  0  0  0  0  0  0
    5.1020   -4.3140   29.3800 C   0  0  0  0  0  0  0  0  0  0  0  0
    4.1950   -4.6310   30.4190 C   0  0  0  0  0  0  0  0  0  0  0  0
    3.6670   -3.3700   31.1200 C   0  0  0  0  0  0  0  0  0  0  0  0
    2.7660   -3.4720   32.1730 O   0  0  0  0  0  0  0  0  0  0  0  0
    3.1110   -2.5280   33.1380 C   0  0  0  0  0  0  0  0  0  0  0  0
    4.1600   -2.0190   30.6370 C   0  0  0  0  0  0  0  0  0  0  0  0
    5.1150   -1.8210   29.5300 C   0  0  0  0  0  0  0  0  0  0  0  0
    5.5950   -3.1030   28.8760 C   0  0  0  0  0  0  0  0  0  0  0  0
    6.5360   -2.9640   27.7390 C   0  0  2  0  0  0  0  0  0  0  0  0
    6.7550   -1.5240   27.4490 C   0  0  0  0  0  0  0  0  0  0  0  0
    6.8500   -2.7640   23.1990 C   0  0  0  0  0  0  0  0  0  0  0  0
    7.6750   -3.2120   22.1910 C   0  0  0  0  0  0  0  0  0  0  0  0
  1  2  1  0
  2  3  2  0
  2  4  1  0
  4  5  1  0
  5  6  1  0
  6  7  1  0
  7  8  1  0
  8  9  2  0
  8 10  1  0
 10 11  1  0
 11 12  1  0
 12 13  1  0
 13 14  2  0
 14 15  1  0
 15 16  1  0
 16 17  1  0
 15 18  2  0
 18 19  1  0
 13 20  1  0
 19 20  2  0
 10 21  1  0
 20 21  1  0
 21 22  1  6
  7 23  1  0
  4 24  1  0
 23 24  1  0
M  END
