piperidine-amides-24021-covalent
     RDKit          3D

 24 26  0  0  0  0  0  0  0  0999 V2000
    7.0560   -3.3860   19.3690 C   0  0  0  0  0  0  0  0  0  0  0  0
    6.4280   -4.2600   20.3710 C   0  0  0  0  0  0  0  0  0  0  0  0
    5.4050   -4.8840   19.9980 O   0  0  0  0  0  0  0  0  0  0  0  0
    6.9930   -4.4320   21.6680 N   0  0  0  0  0  0  0  0  0  0  0  0
    6.6220   -5.5650   22.4510 C   0  0  0  0  0  0  0  0  0  0  0  0
    6.1170   -5.1970   23.7700 C   0  0  0  0  0  0  0  0  0  0  0  0
    6.0950   -3.7370   23.9470 C   0  0  0  0  0  0  0  0  0  0  0  0
    5.4450   -3.2200   25.1990 C   0  0  0  0  0  0  0  0  0  0  0  0
    4.7000   -2.2360   25.0880 O   0  0  0  0  0  0  0  0  0  0  0  0
    5.5850   -3.7630   26.4860 N   0  0  0  0  0  0  0  0  0  0  0  0
    4.5890   -4.4410   27.1900 C   0  0  0  0  0  0  0  0  0  0  0  0
    4.9380   -5.2530   28.3520 C   0  0  0  0  0  0  0  0  0  0  0  0
    5.6360   -4.3990   29.4190 C   0  0  0  0  0  0  0  0  0  0  0  0
    4.9790   -3.2400   29.8010 C   0  0  0  0  0  0  0  0  0  0  0  0
    3.6200   -3.2940   30.1910 N   0  0  0  0  0  0  0  0  0  0  0  0
    3.3610   -2.0170   30.4830 N   0  0  0  0  0  0  0  0  0  0  0  0
    4.5050   -1.1370   30.2970 C   0  0  0  0  0  0  0  0  0  0  0  0
    4.3410    0.3170   30.5950 C   0  0  0  0  0  0  0  0  0  0  0  0
    3.1790    0.3320   29.5950 C   0  0  0  0  0  0  0  0  0  0  0  0
    5.4440   -1.9800   29.8780 N   0  0  0  0  0  0  0  0  0  0  0  0
    6.7310   -4.1860   28.4730 C   0  0  0  0  0  0  0  0  0  0  0  0
    6.3850   -3.1440   27.4230 C   0  0  0  0  0  0  0  0  0  0  0  0
    7.4850   -3.1560   23.7000 C   0  0  0  0  0  0  0  0  0  0  0  0
    7.7140   -3.2560   22.2290 C   0  0  0  0  0  0  0  0  0  0  0  0
  1  2  1  0
  2  3  2  0
  2  4  1  0
  4  5  1  0
  5  6  1  0
  6  7  1  0
  7  8  1  0
  8  9  2  0
  8 10  1  0
 10 11  1  0
 11 12  1  0
 12 13  1  0
 13 14  1  0
 14 15  2  0
 15 16  1  0
 16 17  1  0
 17 18  1  0
 18 19  1  0
 14 20  1  0
 17 20  2  0
 13 21  1  0
 10 22  1  0
 21 22  1  0
  7 23  1  0
  4 24  1  0
 23 24  1  0
M  END
