piperidine-amides-32645-covalent
     RDKit          3D

 28 31  0  0  0  0  0  0  0  0999 V2000
    7.0890   -3.3250   19.3050 C   0  0  0  0  0  0  0  0  0  0  0  0
    6.3890   -4.1720   20.3100 C   0  0  0  0  0  0  0  0  0  0  0  0
    5.3670   -4.7930   19.9680 O   0  0  0  0  0  0  0  0  0  0  0  0
    6.9320   -4.2890   21.6060 N   0  0  0  0  0  0  0  0  0  0  0  0
    7.7860   -3.2870   22.2010 C   0  0  0  0  0  0  0  0  0  0  0  0
    6.9640   -2.5760   23.2680 C   0  0  0  0  0  0  0  0  0  0  0  0
    6.4200   -3.6190   24.1870 C   0  0  0  0  0  0  0  0  0  0  0  0
    5.5180   -3.0220   25.2030 C   0  0  0  0  0  0  0  0  0  0  0  0
    4.3880   -2.7140   24.8160 O   0  0  0  0  0  0  0  0  0  0  0  0
    5.9510   -2.8460   26.5200 N   0  0  0  0  0  0  0  0  0  0  0  0
    6.1780   -1.6350   27.2190 C   0  0  0  0  0  0  0  0  0  0  0  0
    6.8870   -1.5600   28.4110 C   0  0  0  0  0  0  0  0  0  0  0  0
    7.1100   -0.3720   29.1350 C   0  0  0  0  0  0  0  0  0  0  0  0
    6.6210    0.8350   28.6820 C   0  0  0  0  0  0  0  0  0  0  0  0
    5.8630    0.8420   27.4180 C   0  0  0  0  0  0  0  0  0  0  0  0
    5.6450   -0.4600   26.6710 C   0  0  0  0  0  0  0  0  0  0  0  0
    6.3770   -4.0570   27.1520 C   0  0  0  0  0  0  0  0  0  0  0  0
    7.5440   -4.5180   26.7140 N   0  0  0  0  0  0  0  0  0  0  0  0
    8.1040   -5.6530   27.1880 C   0  0  0  0  0  0  0  0  0  0  0  0
    9.6060   -6.0800   26.4690 Cl  0  0  0  0  0  0  0  0  0  0  0  0
    7.4990   -6.3950   28.1620 N   0  0  0  0  0  0  0  0  0  0  0  0
    6.2450   -5.8910   28.6200 C   0  0  0  0  0  0  0  0  0  0  0  0
    5.4150   -6.3420   29.5150 N   0  0  0  0  0  0  0  0  0  0  0  0
    4.3200   -5.5690   29.6600 C   0  0  0  0  0  0  0  0  0  0  0  0
    4.4380   -4.4960   28.7750 N   0  0  0  0  0  0  0  0  0  0  0  0
    5.6380   -4.6770   28.1120 C   0  0  0  0  0  0  0  0  0  0  0  0
    5.6480   -4.7320   23.5200 C   0  0  0  0  0  0  0  0  0  0  0  0
    6.5320   -5.3790   22.4700 C   0  0  0  0  0  0  0  0  0  0  0  0
  1  2  1  0
  2  3  2  0
  2  4  1  0
  4  5  1  0
  5  6  1  0
  6  7  1  0
  7  8  1  0
  8  9  2  0
  8 10  1  0
 10 11  1  0
 11 12  2  0
 12 13  1  0
 13 14  2  0
 14 15  1  0
 11 16  1  0
 15 16  2  0
 10 17  1  0
 17 18  2  0
 18 19  1  0
 19 20  1  0
 19 21  2  0
 21 22  1  0
 22 23  1  0
 23 24  2  0
 24 25  1  0
 17 26  1  0
 22 26  2  0
 25 26  1  0
  7 27  1  0
  4 28  1  0
 27 28  1  0
M  END
