piperidine-amides-2326-covalent
     RDKit          3D

 27 29  0  0  0  0  0  0  0  0999 V2000
    7.0570   -3.2870   19.2190 C   0  0  0  0  0  0  0  0  0  0  0  0
    6.3330   -4.0650   20.2620 C   0  0  0  0  0  0  0  0  0  0  0  0
    5.3100   -4.6490   19.9170 O   0  0  0  0  0  0  0  0  0  0  0  0
    6.8430   -4.1380   21.5610 N   0  0  0  0  0  0  0  0  0  0  0  0
    7.7360   -3.1280   22.0670 C   0  0  0  0  0  0  0  0  0  0  0  0
    7.3620   -2.8510   23.4770 C   0  0  0  0  0  0  0  0  0  0  0  0
    5.9420   -3.3660   23.6750 C   0  0  0  0  0  0  0  0  0  0  0  0
    5.4750   -2.9750   25.0190 C   0  0  0  0  0  0  0  0  0  0  0  0
    4.6900   -3.7000   25.6450 O   0  0  0  0  0  0  0  0  0  0  0  0
    5.9110   -1.7520   25.5670 N   0  0  0  0  0  0  0  0  0  0  0  0
    5.6100   -1.4390   26.9400 C   0  0  0  0  0  0  0  0  0  0  0  0
    6.8830   -1.7290   27.6340 C   0  0  0  0  0  0  0  0  0  0  0  0
    7.4770   -2.8280   27.2630 C   0  0  0  0  0  0  0  0  0  0  0  0
    8.1730   -3.1320   26.1050 C   0  0  0  0  0  0  0  0  0  0  0  0
    8.7140   -4.3780   25.9110 C   0  0  0  0  0  0  0  0  0  0  0  0
    8.5450   -5.4030   26.9700 C   0  0  0  0  0  0  0  0  0  0  0  0
    9.1380   -6.6690   26.7240 C   0  0  0  0  0  0  0  0  0  0  0  0
    8.6520   -7.6080   27.3690 N   0  0  0  0  0  0  0  0  0  0  0  0
    9.7280   -9.2040   26.9800 C   0  0  0  0  0  0  0  0  0  0  0  0
    9.5800  -10.7970   27.9580 C   0  0  0  0  0  0  0  0  0  0  0  0
    8.9090  -10.9470   29.2910 C   0  0  0  0  0  0  0  0  0  0  0  0
   10.1830   -8.7190   26.3300 N   0  0  0  0  0  0  0  0  0  0  0  0
    9.9910   -7.2010   26.0860 O   0  0  0  0  0  0  0  0  0  0  0  0
    7.8250   -5.1640   28.2100 C   0  0  0  0  0  0  0  0  0  0  0  0
    7.2820   -3.8600   28.3590 C   0  0  0  0  0  0  0  0  0  0  0  0
    5.8820   -4.8840   23.5040 C   0  0  0  0  0  0  0  0  0  0  0  0
    6.6020   -5.3090   22.3960 C   0  0  0  0  0  0  0  0  0  0  0  0
  1  2  1  0
  2  3  2  0
  2  4  1  0
  4  5  1  0
  5  6  1  0
  6  7  1  0
  7  8  1  0
  8  9  2  0
  8 10  1  0
 10 11  1  0
 11 12  1  0
 12 13  1  0
 13 14  2  0
 14 15  1  0
 15 16  2  0
 16 17  1  0
 17 18  2  0
 18 19  1  0
 19 20  1  0
 20 21  1  0
 19 22  2  0
 17 23  1  0
 22 23  1  0
 16 24  1  0
 13 25  1  0
 24 25  2  0
  7 26  1  0
  4 27  1  0
 26 27  1  0
M  END
