piperidine-amides-30054-covalent
     RDKit          3D

 21 22  0  0  0  0  0  0  0  0999 V2000
    7.0660   -3.3330   19.2790 C   0  0  0  0  0  0  0  0  0  0  0  0
    6.3450   -4.1370   20.2570 C   0  0  0  0  0  0  0  0  0  0  0  0
    5.3100   -4.7150   19.9410 O   0  0  0  0  0  0  0  0  0  0  0  0
    6.8690   -4.3090   21.5780 N   0  0  0  0  0  0  0  0  0  0  0  0
    6.5630   -5.5090   22.3090 C   0  0  0  0  0  0  0  0  0  0  0  0
    6.0310   -5.1460   23.6660 C   0  0  0  0  0  0  0  0  0  0  0  0
    6.0760   -3.6280   23.7990 C   0  0  0  0  0  0  0  0  0  0  0  0
    5.6810   -3.1920   25.1620 C   0  0  0  0  0  0  0  0  0  0  0  0
    4.4960   -3.1520   25.5650 O   0  0  0  0  0  0  0  0  0  0  0  0
    6.7270   -2.8030   26.0130 N   0  0  0  0  0  0  0  0  0  0  0  0
    7.8840   -3.6730   26.0760 C   0  0  0  0  0  0  0  0  0  0  0  0
    6.5810   -1.6120   26.8260 C   0  0  0  0  0  0  0  0  0  0  0  0
    5.9370   -0.4450   26.4060 C   0  0  0  0  0  0  0  0  0  0  0  0
    5.8400    0.6700   27.2720 C   0  0  0  0  0  0  0  0  0  0  0  0
    4.9660    2.2780   26.7290 Br  0  0  0  0  0  0  0  0  0  0  0  0
    6.3860    0.6050   28.5350 C   0  0  0  0  0  0  0  0  0  0  0  0
    7.0410   -0.6130   28.9300 C   0  0  0  0  0  0  0  0  0  0  0  0
    7.1090   -1.6620   28.0630 C   0  0  0  0  0  0  0  0  0  0  0  0
    7.8760   -3.1670   28.4630 Cl  0  0  0  0  0  0  0  0  0  0  0  0
    7.5000   -3.1720   23.5160 C   0  0  0  0  0  0  0  0  0  0  0  0
    7.6090   -3.1920   22.1390 C   0  0  0  0  0  0  0  0  0  0  0  0
  1  2  1  0
  2  3  2  0
  2  4  1  0
  4  5  1  0
  5  6  1  0
  6  7  1  0
  7  8  1  0
  8  9  2  0
  8 10  1  0
 10 11  1  0
 10 12  1  0
 12 13  2  0
 13 14  1  0
 14 15  1  0
 14 16  2  0
 16 17  1  0
 12 18  1  0
 17 18  2  0
 18 19  1  0
  7 20  1  0
  4 21  1  0
 20 21  1  0
M  END
