piperidine-amides-1389-covalent
     RDKit          3D

 22 23  0  0  0  0  0  0  0  0999 V2000
    7.1380   -3.2620   19.2040 C   0  0  0  0  0  0  0  0  0  0  0  0
    6.3780   -4.0290   20.2280 C   0  0  0  0  0  0  0  0  0  0  0  0
    5.3140   -4.5870   19.9020 O   0  0  0  0  0  0  0  0  0  0  0  0
    6.9100   -4.1460   21.5270 N   0  0  0  0  0  0  0  0  0  0  0  0
    7.7870   -3.1600   22.1130 C   0  0  0  0  0  0  0  0  0  0  0  0
    7.0110   -2.5220   23.2560 C   0  0  0  0  0  0  0  0  0  0  0  0
    6.6430   -3.6280   24.1770 C   0  0  0  0  0  0  0  0  0  0  0  0
    5.8550   -3.1370   25.3280 C   0  0  0  0  0  0  0  0  0  0  0  0
    4.7670   -2.6200   25.0520 O   0  0  0  0  0  0  0  0  0  0  0  0
    6.3320   -3.2690   26.6300 N   0  0  0  0  0  0  0  0  0  0  0  0
    5.8710   -4.2280   27.5630 C   0  0  0  0  0  0  0  0  0  0  0  0
    4.9310   -5.1650   27.2020 C   0  0  2  0  0  0  0  0  0  0  0  0
    3.6120   -5.0090   27.6630 C   0  0  0  0  0  0  0  0  0  0  0  0
    3.2400   -3.7870   28.2080 O   0  0  0  0  0  0  0  0  0  0  0  0
    5.3540   -6.5870   27.4130 C   0  0  0  0  0  0  0  0  0  0  0  0
    5.4070   -6.8480   28.8580 C   0  0  0  0  0  0  0  0  0  0  0  0
    4.4800   -7.6610   29.7700 C   0  0  0  0  0  0  0  0  0  0  0  0
    5.0350   -7.5720   31.1860 C   0  0  0  0  0  0  0  0  0  0  0  0
    6.1770   -6.8050   31.1950 O   0  0  0  0  0  0  0  0  0  0  0  0
    6.3890   -6.3880   29.8540 C   0  0  0  0  0  0  0  0  0  0  0  0
    5.8910   -4.7590   23.5530 C   0  0  0  0  0  0  0  0  0  0  0  0
    6.5810   -5.3080   22.3140 C   0  0  0  0  0  0  0  0  0  0  0  0
  1  2  1  0
  2  3  2  0
  2  4  1  0
  4  5  1  0
  5  6  1  0
  6  7  1  0
  7  8  1  0
  8  9  2  0
  8 10  1  0
 10 11  1  0
 12 11  1  1
 12 13  1  0
 13 14  1  0
 12 15  1  0
 15 16  1  0
 16 17  1  0
 17 18  2  0
 18 19  1  0
 16 20  2  0
 19 20  1  0
  7 21  1  0
  4 22  1  0
 21 22  1  0
M  END
