piperidine-amides-6731-covalent
     RDKit          3D

 23 24  0  0  0  0  0  0  0  0999 V2000
    7.0610   -3.2690   19.2000 C   0  0  0  0  0  0  0  0  0  0  0  0
    6.2920   -4.0340   20.2040 C   0  0  0  0  0  0  0  0  0  0  0  0
    5.2420   -4.6240   19.8880 O   0  0  0  0  0  0  0  0  0  0  0  0
    6.7380   -4.1420   21.5140 N   0  0  0  0  0  0  0  0  0  0  0  0
    7.5880   -3.1110   22.0390 C   0  0  0  0  0  0  0  0  0  0  0  0
    7.3470   -3.1530   23.5260 C   0  0  0  0  0  0  0  0  0  0  0  0
    5.9390   -3.6260   23.7230 C   0  0  0  0  0  0  0  0  0  0  0  0
    5.5730   -3.3820   25.1220 C   0  0  0  0  0  0  0  0  0  0  0  0
    4.3920   -3.0790   25.4000 O   0  0  0  0  0  0  0  0  0  0  0  0
    6.5780   -3.4930   26.0950 N   0  0  0  0  0  0  0  0  0  0  0  0
    6.2610   -3.3590   27.4800 C   0  0  0  0  0  0  0  0  0  0  0  0
    6.8390   -4.5560   28.1930 C   0  0  0  0  0  0  0  0  0  0  0  0
    6.0820   -5.3240   29.0000 C   0  0  0  0  0  0  0  0  0  0  0  0
    6.5290   -6.6120   29.2410 C   0  0  0  0  0  0  0  0  0  0  0  0
    5.8890   -7.5680   30.0580 C   0  0  0  0  0  0  0  0  0  0  0  0
    4.7240   -7.2460   30.6910 C   0  0  0  0  0  0  0  0  0  0  0  0
    3.9750   -8.0130   31.5040 O   0  0  0  0  0  0  0  0  0  0  0  0
    4.2890   -5.8570   30.3990 C   0  0  0  0  0  0  0  0  0  0  0  0
    3.1010   -6.1260   31.2940 C   0  0  0  0  0  0  0  0  0  0  0  0
    2.1820   -5.2470   31.3870 O   0  0  0  0  0  0  0  0  0  0  0  0
    4.9280   -4.8750   29.5700 C   0  0  0  0  0  0  0  0  0  0  0  0
    5.8020   -5.0960   23.3920 C   0  0  0  0  0  0  0  0  0  0  0  0
    6.5920   -5.3730   22.2570 C   0  0  0  0  0  0  0  0  0  0  0  0
  1  2  1  0
  2  3  2  0
  2  4  1  0
  4  5  1  0
  5  6  1  0
  6  7  1  0
  7  8  1  0
  8  9  2  0
  8 10  1  0
 10 11  1  0
 11 12  1  0
 12 13  1  0
 13 14  2  0
 14 15  1  0
 15 16  2  0
 16 17  1  0
 16 18  1  0
 18 19  1  0
 19 20  1  0
 13 21  1  0
 18 21  2  0
  7 22  1  0
  4 23  1  0
 22 23  1  0
M  END
