piperidine-amides-2288-covalent
     RDKit          3D

 30 33  0  0  0  0  0  0  0  0999 V2000
    7.2730   -3.1370   18.8640 C   0  0  0  0  0  0  0  0  0  0  0  0
    6.3600   -3.6200   19.9190 C   0  0  0  0  0  0  0  0  0  0  0  0
    5.2550   -4.0580   19.6090 O   0  0  0  0  0  0  0  0  0  0  0  0
    6.7770   -3.6110   21.2220 N   0  0  0  0  0  0  0  0  0  0  0  0
    7.7780   -2.7040   21.7050 C   0  0  0  0  0  0  0  0  0  0  0  0
    7.5230   -2.4120   23.1450 C   0  0  0  0  0  0  0  0  0  0  0  0
    6.0190   -2.3370   23.4300 C   0  0  0  0  0  0  0  0  0  0  0  0
    5.8520   -2.1250   24.8890 C   0  0  0  0  0  0  0  0  0  0  0  0
    4.7360   -1.7720   25.3080 O   0  0  0  0  0  0  0  0  0  0  0  0
    6.9090   -2.2990   25.8250 N   0  0  0  0  0  0  0  0  0  0  0  0
    6.5260   -2.7540   27.1420 C   0  0  0  0  0  0  0  0  0  0  0  0
    6.0790   -4.2240   27.0600 C   0  0  1  0  0  0  0  0  0  0  0  0
    5.8900   -5.0340   28.1380 C   0  0  0  0  0  0  0  0  0  0  0  0
    6.6290   -6.1650   28.2990 C   0  0  0  0  0  0  0  0  0  0  0  0
    6.3400   -6.8530   29.3810 C   0  0  0  0  0  0  0  0  0  0  0  0
    5.3380   -6.4990   30.3660 C   0  0  0  0  0  0  0  0  0  0  0  0
    5.6610   -5.6650   29.1050 C   0  0  0  0  0  0  0  0  0  0  0  0
    4.7520   -4.4830   29.0640 C   0  0  0  0  0  0  0  0  0  0  0  0
    4.5150   -3.3470   28.1020 C   0  0  0  0  0  0  0  0  0  0  0  0
    4.1070   -2.0790   28.5460 O   0  0  0  0  0  0  0  0  0  0  0  0
    4.7840   -3.8680   26.8370 N   0  0  0  0  0  0  0  0  0  0  0  0
    4.8270   -3.2850   25.5570 C   0  0  0  0  0  0  0  0  0  0  0  0
    5.7260   -4.1210   24.6220 C   0  0  0  0  0  0  0  0  0  0  0  0
    5.2270   -5.4120   24.0250 C   0  0  0  0  0  0  0  0  0  0  0  0
    6.0830   -6.2490   23.0890 C   0  0  0  0  0  0  0  0  0  0  0  0
    7.3520   -5.8450   22.7610 C   0  0  0  0  0  0  0  0  0  0  0  0
    7.8700   -4.5620   23.3450 C   0  0  0  0  0  0  0  0  0  0  0  0
    7.0110   -3.7360   24.2760 C   0  0  0  0  0  0  0  0  0  0  0  0
    5.2320   -3.5300   22.8430 C   0  0  0  0  0  0  0  0  0  0  0  0
    6.0640   -4.3760   22.1780 C   0  0  0  0  0  0  0  0  0  0  0  0
  1  2  1  0
  2  3  2  0
  2  4  1  0
  4  5  1  0
  5  6  1  0
  6  7  1  0
  7  8  1  0
  8  9  2  0
  8 10  1  0
 10 11  1  0
 12 11  1  1
 12 13  1  0
 13 14  2  0
 14 15  1  0
 15 16  2  0
 16 17  1  0
 13 18  1  0
 17 18  2  0
 18 19  1  0
 19 20  2  0
 12 21  1  0
 19 21  1  0
 21 22  1  0
 22 23  1  0
 23 24  2  0
 24 25  1  0
 25 26  2  0
 26 27  1  0
 23 28  1  0
 27 28  2  0
  7 29  1  0
  4 30  1  0
 29 30  1  0
M  END
