piperidine-amides-26895-covalent
     RDKit          3D

 24 25  0  0  0  0  0  0  0  0999 V2000
    6.9930   -3.3760   19.4200 C   0  0  0  0  0  0  0  0  0  0  0  0
    6.3740   -4.2650   20.4150 C   0  0  0  0  0  0  0  0  0  0  0  0
    5.3930   -4.9370   19.9990 O   0  0  0  0  0  0  0  0  0  0  0  0
    6.8700   -4.3850   21.7310 N   0  0  0  0  0  0  0  0  0  0  0  0
    6.5460   -5.5120   22.5640 C   0  0  0  0  0  0  0  0  0  0  0  0
    5.6770   -5.0320   23.7120 C   0  0  0  0  0  0  0  0  0  0  0  0
    6.2160   -3.8130   24.4360 C   0  0  0  0  0  0  0  0  0  0  0  0
    5.2140   -3.2710   25.4450 C   0  0  0  0  0  0  0  0  0  0  0  0
    4.4310   -2.3900   25.0510 O   0  0  0  0  0  0  0  0  0  0  0  0
    5.1030   -3.7110   26.8100 N   0  0  0  0  0  0  0  0  0  0  0  0
    6.1790   -4.4810   27.1460 C   0  0  0  0  0  0  0  0  0  0  0  0
    6.2330   -5.2470   28.4470 C   0  0  0  0  0  0  0  0  0  0  0  0
    5.1020   -4.8000   29.2270 N   0  0  0  0  0  0  0  0  0  0  0  0
    4.5390   -5.6290   30.1140 C   0  0  0  0  0  0  0  0  0  0  0  0
    5.2570   -6.7470   30.5430 C   0  0  0  0  0  0  0  0  0  0  0  0
    5.5400   -6.6070   31.8310 O   0  0  0  0  0  0  0  0  0  0  0  0
    4.5890   -7.0610   32.6200 C   0  0  0  0  0  0  0  0  0  0  0  0
    3.4580   -7.3710   31.9430 F   0  0  0  0  0  0  0  0  0  0  0  0
    4.2190   -6.1940   33.6000 F   0  0  0  0  0  0  0  0  0  0  0  0
    5.0340   -8.2630   33.1550 F   0  0  0  0  0  0  0  0  0  0  0  0
    4.5280   -3.6020   29.0690 C   0  0  0  0  0  0  0  0  0  0  0  0
    4.6970   -2.8670   27.8870 C   0  0  0  0  0  0  0  0  0  0  0  0
    6.5910   -2.7080   23.4260 C   0  0  0  0  0  0  0  0  0  0  0  0
    7.5460   -3.2850   22.3680 C   0  0  0  0  0  0  0  0  0  0  0  0
  1  2  1  0
  2  3  2  0
  2  4  1  0
  4  5  1  0
  5  6  1  0
  6  7  1  0
  7  8  1  0
  8  9  2  0
  8 10  1  0
 10 11  1  0
 11 12  1  0
 12 13  1  0
 13 14  1  0
 14 15  1  0
 15 16  1  0
 16 17  1  0
 17 18  1  0
 17 19  1  0
 17 20  1  0
 13 21  1  0
 10 22  1  0
 21 22  1  0
  7 23  1  0
  4 24  1  0
 23 24  1  0
M  END
