piperidine-amides-8130-covalent
     RDKit          3D

 26 28  0  0  0  0  0  0  0  0999 V2000
    7.0520   -3.3460   19.3310 C   0  0  0  0  0  0  0  0  0  0  0  0
    6.4050   -4.2040   20.3210 C   0  0  0  0  0  0  0  0  0  0  0  0
    5.3850   -4.8300   19.9760 O   0  0  0  0  0  0  0  0  0  0  0  0
    6.9610   -4.3500   21.6190 N   0  0  0  0  0  0  0  0  0  0  0  0
    7.6760   -3.2440   22.1890 C   0  0  0  0  0  0  0  0  0  0  0  0
    6.8410   -2.6270   23.2650 C   0  0  0  0  0  0  0  0  0  0  0  0
    6.5880   -3.7140   24.2790 C   0  0  0  0  0  0  0  0  0  0  0  0
    5.8090   -3.1470   25.4350 C   0  0  0  0  0  0  0  0  0  0  0  0
    4.5970   -3.0330   25.2650 O   0  0  0  0  0  0  0  0  0  0  0  0
    6.5010   -2.8000   26.5980 N   0  0  0  0  0  0  0  0  0  0  0  0
    6.2370   -1.6110   27.3650 C   0  0  2  0  0  0  0  0  0  0  0  0
    5.8940   -0.5310   26.5500 C   0  0  0  0  0  0  0  0  0  0  0  0
    5.8520    0.5110   27.3600 C   0  0  0  0  0  0  0  0  0  0  0  0
    6.3700   -0.0840   28.5220 N   0  0  0  0  0  0  0  0  0  0  0  0
    5.3930   -0.4430   29.4860 C   0  0  0  0  0  0  0  0  0  0  0  0
    5.7320   -0.2010   30.9340 C   0  0  0  0  0  0  0  0  0  0  0  0
    7.1540    0.3020   31.3090 C   0  0  0  0  0  0  0  0  0  0  0  0
    7.5110    0.5410   32.7420 C   0  0  0  0  0  0  0  0  0  0  0  0
    6.4690    0.2870   33.7970 C   0  0  0  0  0  0  0  0  0  0  0  0
    6.7500    0.4960   35.1340 F   0  0  0  0  0  0  0  0  0  0  0  0
    5.0980   -0.2070   33.2970 C   0  0  0  0  0  0  0  0  0  0  0  0
    4.7050   -0.4480   32.0080 C   0  0  0  0  0  0  0  0  0  0  0  0
    7.2250   -1.2570   28.3230 C   0  0  0  0  0  0  0  0  0  0  0  0
    7.9440   -0.7270   29.2080 O   0  0  0  0  0  0  0  0  0  0  0  0
    5.8490   -4.8790   23.6940 C   0  0  0  0  0  0  0  0  0  0  0  0
    6.5410   -5.4240   22.4710 C   0  0  0  0  0  0  0  0  0  0  0  0
  1  2  1  0
  2  3  2  0
  2  4  1  0
  4  5  1  0
  5  6  1  0
  6  7  1  0
  7  8  1  0
  8  9  2  0
  8 10  1  0
 11 10  1  6
 11 12  1  0
 12 13  1  0
 13 14  1  0
 14 15  1  0
 15 16  1  0
 16 17  2  0
 17 18  1  0
 18 19  2  0
 19 20  1  0
 19 21  1  0
 16 22  1  0
 21 22  2  0
 11 23  1  0
 14 23  1  0
 23 24  2  0
  7 25  1  0
  4 26  1  0
 25 26  1  0
M  END
