piperidine-amides-5328-covalent
     RDKit          3D

 21 22  0  0  0  0  0  0  0  0999 V2000
    7.0770   -3.2930   19.2780 C   0  0  0  0  0  0  0  0  0  0  0  0
    6.3620   -4.1030   20.2890 C   0  0  0  0  0  0  0  0  0  0  0  0
    5.3090   -4.6580   19.9190 O   0  0  0  0  0  0  0  0  0  0  0  0
    6.8780   -4.2690   21.5810 N   0  0  0  0  0  0  0  0  0  0  0  0
    6.4770   -5.4050   22.3440 C   0  0  0  0  0  0  0  0  0  0  0  0
    5.9470   -5.0630   23.6660 C   0  0  0  0  0  0  0  0  0  0  0  0
    6.5490   -3.8470   24.2620 C   0  0  0  0  0  0  0  0  0  0  0  0
    5.7830   -3.3700   25.4490 C   0  0  0  0  0  0  0  0  0  0  0  0
    4.5370   -3.2840   25.4060 O   0  0  0  0  0  0  0  0  0  0  0  0
    6.4490   -3.0240   26.6340 N   0  0  0  0  0  0  0  0  0  0  0  0
    6.4130   -1.6730   27.2380 C   0  0  0  0  0  0  0  0  0  0  0  0
    6.9270   -1.5380   28.5980 C   0  0  0  0  0  0  0  0  0  0  0  0
    6.9050   -0.2520   29.2350 C   0  0  0  0  0  0  0  0  0  0  0  0
    7.4940   -0.0140   30.8670 Cl  0  0  0  0  0  0  0  0  0  0  0  0
    6.4020    0.8330   28.5450 C   0  0  0  0  0  0  0  0  0  0  0  0
    6.4030    1.9280   29.1370 O   0  0  0  0  0  0  0  0  0  0  0  0
    5.9110    0.7060   27.2340 C   0  0  0  0  0  0  0  0  0  0  0  0
    5.2910    2.1400   26.4340 Cl  0  0  0  0  0  0  0  0  0  0  0  0
    5.9010   -0.5050   26.5620 C   0  0  0  0  0  0  0  0  0  0  0  0
    6.8860   -2.7520   23.3050 C   0  0  0  0  0  0  0  0  0  0  0  0
    7.6300   -3.2600   22.2780 C   0  0  0  0  0  0  0  0  0  0  0  0
  1  2  1  0
  2  3  2  0
  2  4  1  0
  4  5  1  0
  5  6  1  0
  6  7  1  0
  7  8  1  0
  8  9  2  0
  8 10  1  0
 10 11  1  0
 11 12  2  0
 12 13  1  0
 13 14  1  0
 13 15  2  0
 15 16  1  0
 15 17  1  0
 17 18  1  0
 11 19  1  0
 17 19  2  0
  7 20  1  0
  4 21  1  0
 20 21  1  0
M  END
