piperidine-amides-29120-covalent
     RDKit          3D

 25 27  0  0  0  0  0  0  0  0999 V2000
    7.0180   -3.3600   19.3710 C   0  0  0  0  0  0  0  0  0  0  0  0
    6.3590   -4.2410   20.3370 C   0  0  0  0  0  0  0  0  0  0  0  0
    5.3430   -4.8510   19.9710 O   0  0  0  0  0  0  0  0  0  0  0  0
    6.8930   -4.4250   21.6370 N   0  0  0  0  0  0  0  0  0  0  0  0
    6.6140   -5.6610   22.3210 C   0  0  0  0  0  0  0  0  0  0  0  0
    6.2710   -5.4270   23.7750 C   0  0  0  0  0  0  0  0  0  0  0  0
    6.0290   -3.9520   23.9630 C   0  0  0  0  0  0  0  0  0  0  0  0
    5.5310   -3.6050   25.3460 C   0  0  0  0  0  0  0  0  0  0  0  0
    4.3930   -3.1450   25.3580 O   0  0  0  0  0  0  0  0  0  0  0  0
    6.2910   -3.7880   26.5160 N   0  0  0  0  0  0  0  0  0  0  0  0
    6.9840   -5.0280   26.7290 C   0  0  0  0  0  0  0  0  0  0  0  0
    7.2230   -5.4210   28.0700 C   0  0  0  0  0  0  0  0  0  0  0  0
    6.7570   -4.7020   28.9820 O   0  0  0  0  0  0  0  0  0  0  0  0
    5.7460   -3.8550   28.6950 C   0  0  0  0  0  0  0  0  0  0  0  0
    5.7330   -2.9990   27.6140 C   0  0  1  0  0  0  0  0  0  0  0  0
    6.5830   -1.8470   28.0680 C   0  0  0  0  0  0  0  0  0  0  0  0
    5.8320   -0.5780   28.5350 C   0  0  1  0  0  0  0  0  0  0  0  0
    4.5320   -0.5020   28.3690 O   0  0  0  0  0  0  0  0  0  0  0  0
    6.1890   -0.2160   29.9320 C   0  0  0  0  0  0  0  0  0  0  0  0
    7.5760   -0.4480   30.4230 C   0  0  0  0  0  0  0  0  0  0  0  0
    7.6370    0.0240   31.8740 C   0  0  0  0  0  0  0  0  0  0  0  0
    6.5120    0.5370   32.4550 C   0  0  0  0  0  0  0  0  0  0  0  0
    5.2860    0.4800   31.2420 S   0  0  0  0  0  0  0  0  0  0  0  0
    7.3200   -3.3030   23.6890 C   0  0  0  0  0  0  0  0  0  0  0  0
    7.5950   -3.3050   22.2210 C   0  0  0  0  0  0  0  0  0  0  0  0
  1  2  1  0
  2  3  2  0
  2  4  1  0
  4  5  1  0
  5  6  1  0
  6  7  1  0
  7  8  1  0
  8  9  2  0
  8 10  1  0
 10 11  1  0
 11 12  1  0
 12 13  1  0
 13 14  1  0
 10 15  1  0
 14 15  1  0
 15 16  1  1
 16 17  1  0
 17 18  1  1
 17 19  1  0
 19 20  2  0
 20 21  1  0
 21 22  2  0
 19 23  1  0
 22 23  1  0
  7 24  1  0
  4 25  1  0
 24 25  1  0
M  END
