piperidine-amides-13357-covalent
     RDKit          3D

 22 22  0  0  0  0  0  0  0  0999 V2000
    7.1430   -3.2470   19.1550 C   0  0  0  0  0  0  0  0  0  0  0  0
    6.3770   -3.9930   20.1800 C   0  0  0  0  0  0  0  0  0  0  0  0
    5.2660   -4.4440   19.8370 O   0  0  0  0  0  0  0  0  0  0  0  0
    6.9110   -4.2270   21.4490 N   0  0  0  0  0  0  0  0  0  0  0  0
    6.4690   -5.3470   22.2000 C   0  0  0  0  0  0  0  0  0  0  0  0
    5.8950   -4.9830   23.4910 C   0  0  0  0  0  0  0  0  0  0  0  0
    6.5520   -3.8410   24.1820 C   0  0  0  0  0  0  0  0  0  0  0  0
    5.6650   -3.3270   25.2520 C   0  0  0  0  0  0  0  0  0  0  0  0
    4.5320   -2.9240   24.9320 O   0  0  0  0  0  0  0  0  0  0  0  0
    6.0790   -3.2880   26.5920 N   0  0  0  0  0  0  0  0  0  0  0  0
    5.9560   -4.4440   27.5100 C   0  0  2  0  0  0  0  0  0  0  0  0
    7.0410   -4.3840   28.4790 C   0  0  0  0  0  0  0  0  0  0  0  0
    8.3700   -4.5990   27.9970 C   0  0  0  0  0  0  0  0  0  0  0  0
    8.8290   -5.8680   27.8750 C   0  0  0  0  0  0  0  0  0  0  0  0
    8.3030   -4.2020   26.5100 C   0  0  0  0  0  0  0  0  0  0  0  0
    5.8130   -5.7230   26.8580 C   0  0  0  0  0  0  0  0  0  0  0  0
    4.2500   -6.6490   27.0850 S   0  0  0  0  0  0  0  0  0  0  0  0
    2.9740   -5.3400   27.2450 C   0  0  0  0  0  0  0  0  0  0  0  0
    4.0020   -7.4270   25.8500 O   0  0  0  0  0  0  0  0  0  0  0  0
    4.2870   -7.4380   28.3360 O   0  0  0  0  0  0  0  0  0  0  0  0
    7.0610   -2.7640   23.2980 C   0  0  0  0  0  0  0  0  0  0  0  0
    7.6610   -3.1950   22.1230 C   0  0  0  0  0  0  0  0  0  0  0  0
  1  2  1  0
  2  3  2  0
  2  4  1  0
  4  5  1  0
  5  6  1  0
  6  7  1  0
  7  8  1  0
  8  9  2  0
  8 10  1  0
 10 11  1  0
 11 12  1  6
 12 13  1  0
 13 14  1  0
 13 15  1  0
 11 16  1  0
 17 16  1  0
 17 18  1  0
 17 19  2  0
 17 20  2  0
  7 21  1  0
  4 22  1  0
 21 22  1  0
M  END
