piperidine-amides-32283-covalent
     RDKit          3D

 24 26  0  0  0  0  0  0  0  0999 V2000
    7.1450   -3.3670   19.3290 C   0  0  0  0  0  0  0  0  0  0  0  0
    6.4220   -4.2080   20.3100 C   0  0  0  0  0  0  0  0  0  0  0  0
    5.3610   -4.7590   19.9660 O   0  0  0  0  0  0  0  0  0  0  0  0
    7.0070   -4.4020   21.5770 N   0  0  0  0  0  0  0  0  0  0  0  0
    6.6150   -5.4960   22.4140 C   0  0  0  0  0  0  0  0  0  0  0  0
    5.7570   -4.8670   23.5170 C   0  0  0  0  0  0  0  0  0  0  0  0
    6.5480   -3.8210   24.2650 C   0  0  0  0  0  0  0  0  0  0  0  0
    5.7380   -3.3130   25.3930 C   0  0  0  0  0  0  0  0  0  0  0  0
    4.5160   -3.4580   25.2820 O   0  0  0  0  0  0  0  0  0  0  0  0
    6.3080   -2.6950   26.5140 N   0  0  0  0  0  0  0  0  0  0  0  0
    5.4950   -2.2020   27.5560 C   0  0  0  0  0  0  0  0  0  0  0  0
    5.3990   -2.8870   28.7350 C   0  0  0  0  0  0  0  0  0  0  0  0
    6.0240   -4.1160   28.8000 C   0  0  0  0  0  0  0  0  0  0  0  0
    5.6780   -5.0960   29.6700 C   0  0  0  0  0  0  0  0  0  0  0  0
    6.4450   -6.3500   29.6160 C   0  0  0  0  0  0  0  0  0  0  0  0
    6.1210   -7.3120   30.4790 O   0  0  0  0  0  0  0  0  0  0  0  0
    5.1500   -7.4460   31.4100 C   0  0  0  0  0  0  0  0  0  0  0  0
    7.4380   -6.4390   28.6920 C   0  0  0  0  0  0  0  0  0  0  0  0
    7.8000   -5.5030   27.8050 C   0  0  0  0  0  0  0  0  0  0  0  0
    9.1940   -5.7700   26.5390 Br  0  0  0  0  0  0  0  0  0  0  0  0
    7.0350   -4.3190   27.9140 C   0  0  0  0  0  0  0  0  0  0  0  0
    7.5290   -3.3560   26.8780 C   0  0  0  0  0  0  0  0  0  0  0  0
    6.9560   -2.7540   23.3310 C   0  0  0  0  0  0  0  0  0  0  0  0
    7.7800   -3.3660   22.1940 C   0  0  0  0  0  0  0  0  0  0  0  0
  1  2  1  0
  2  3  2  0
  2  4  1  0
  4  5  1  0
  5  6  1  0
  6  7  1  0
  7  8  1  0
  8  9  2  0
  8 10  1  0
 10 11  1  0
 11 12  1  0
 12 13  1  0
 13 14  2  0
 14 15  1  0
 15 16  1  0
 16 17  1  0
 15 18  2  0
 18 19  1  0
 19 20  1  0
 13 21  1  0
 19 21  2  0
 10 22  1  0
 21 22  1  0
  7 23  1  0
  4 24  1  0
 23 24  1  0
M  END
