piperidine-amides-13715-covalent
     RDKit          3D

 27 30  0  0  0  0  0  0  0  0999 V2000
    7.0830   -3.3490   19.3460 C   0  0  0  0  0  0  0  0  0  0  0  0
    6.3390   -4.1640   20.3430 C   0  0  0  0  0  0  0  0  0  0  0  0
    5.3490   -4.8130   19.9710 O   0  0  0  0  0  0  0  0  0  0  0  0
    6.8160   -4.2020   21.6680 N   0  0  0  0  0  0  0  0  0  0  0  0
    7.7090   -3.1770   22.1830 C   0  0  0  0  0  0  0  0  0  0  0  0
    7.5310   -3.0410   23.6990 C   0  0  0  0  0  0  0  0  0  0  0  0
    6.1910   -3.5830   24.0350 C   0  0  0  0  0  0  0  0  0  0  0  0
    5.7130   -3.2880   25.4070 C   0  0  0  0  0  0  0  0  0  0  0  0
    4.5160   -3.5140   25.6160 O   0  0  0  0  0  0  0  0  0  0  0  0
    6.5700   -2.7620   26.3850 N   0  0  0  0  0  0  0  0  0  0  0  0
    6.3980   -1.5220   27.0600 C   0  0  0  0  0  0  0  0  0  0  0  0
    5.9010   -0.3950   26.5490 C   0  0  0  0  0  0  0  0  0  0  0  0
    5.7690    0.7760   27.3080 C   0  0  0  0  0  0  0  0  0  0  0  0
    6.0800    1.0550   28.6570 C   0  0  0  0  0  0  0  0  0  0  0  0
    6.4170    1.2150   29.9670 N   0  0  0  0  0  0  0  0  0  0  0  0
    7.6750    1.6460   30.0570 N   0  0  0  0  0  0  0  0  0  0  0  0
    8.5150    0.9960   31.0080 C   0  0  0  0  0  0  0  0  0  0  0  0
    9.9960    1.2620   31.3510 C   0  0  0  0  0  0  0  0  0  0  0  0
    9.9950    1.8730   32.5480 C   0  0  0  0  0  0  0  0  0  0  0  0
   10.5170    2.6480   31.4160 C   0  0  0  0  0  0  0  0  0  0  0  0
    7.7220    0.0420   31.5710 C   0  0  0  0  0  0  0  0  0  0  0  0
    6.3380    0.2480   30.9980 C   0  0  0  0  0  0  0  0  0  0  0  0
    5.3160   -0.5090   31.5680 O   0  0  0  0  0  0  0  0  0  0  0  0
    6.5800   -0.2280   28.9940 N   0  0  0  0  0  0  0  0  0  0  0  0
    6.7570   -1.4070   28.3630 C   0  0  0  0  0  0  0  0  0  0  0  0
    6.0660   -5.0540   23.8000 C   0  0  0  0  0  0  0  0  0  0  0  0
    6.6430   -5.4180   22.4550 C   0  0  0  0  0  0  0  0  0  0  0  0
  1  2  1  0
  2  3  2  0
  2  4  1  0
  4  5  1  0
  5  6  1  0
  6  7  1  0
  7  8  1  0
  8  9  2  0
  8 10  1  0
 10 11  1  0
 11 12  2  0
 12 13  1  0
 13 14  2  0
 14 15  1  0
 15 16  1  0
 16 17  2  0
 17 18  1  0
 18 19  1  0
 18 20  1  0
 19 20  1  0
 17 21  1  0
 15 22  1  0
 21 22  1  0
 22 23  2  0
 14 24  1  0
 11 25  1  0
 24 25  2  0
  7 26  1  0
  4 27  1  0
 26 27  1  0
M  END
