piperidine-amides-32387-covalent
     RDKit          3D

 27 29  0  0  0  0  0  0  0  0999 V2000
    7.0690   -3.3360   19.3130 C   0  0  0  0  0  0  0  0  0  0  0  0
    6.3740   -4.1960   20.3080 C   0  0  0  0  0  0  0  0  0  0  0  0
    5.3430   -4.7980   19.9650 O   0  0  0  0  0  0  0  0  0  0  0  0
    6.9350   -4.3510   21.5920 N   0  0  0  0  0  0  0  0  0  0  0  0
    7.6980   -3.3080   22.2460 C   0  0  0  0  0  0  0  0  0  0  0  0
    6.8200   -2.7540   23.3660 C   0  0  0  0  0  0  0  0  0  0  0  0
    6.5410   -3.8920   24.2820 C   0  0  0  0  0  0  0  0  0  0  0  0
    5.7090   -3.5210   25.4620 C   0  0  0  0  0  0  0  0  0  0  0  0
    4.6460   -2.9520   25.1910 O   0  0  0  0  0  0  0  0  0  0  0  0
    6.0910   -3.7910   26.7950 N   0  0  0  0  0  0  0  0  0  0  0  0
    5.8260   -2.9860   27.8960 C   0  0  0  0  0  0  0  0  0  0  0  0
    5.8440   -3.5800   29.1250 C   0  0  0  0  0  0  0  0  0  0  0  0
    4.9210   -4.7040   29.0830 N   0  0  0  0  0  0  0  0  0  0  0  0
    3.5620   -4.6620   29.4200 C   0  0  0  0  0  0  0  0  0  0  0  0
    2.7860   -3.5190   29.2970 O   0  0  0  0  0  0  0  0  0  0  0  0
    3.0270   -5.8490   29.8960 C   0  0  0  0  0  0  0  0  0  0  0  0
    2.6860   -6.9660   28.9680 C   0  0  0  0  0  0  0  0  0  0  0  0
    2.9050   -6.8070   27.6160 F   0  0  0  0  0  0  0  0  0  0  0  0
    2.1000   -8.2760   29.4940 C   0  0  0  0  0  0  0  0  0  0  0  0
    1.8960   -8.3480   30.9980 C   0  0  0  0  0  0  0  0  0  0  0  0
    2.2260   -7.2830   31.8070 C   0  0  0  0  0  0  0  0  0  0  0  0
    2.7950   -6.0200   31.2530 C   0  0  0  0  0  0  0  0  0  0  0  0
    3.1570   -4.7510   32.3970 Cl  0  0  0  0  0  0  0  0  0  0  0  0
    5.0120   -5.4640   27.8840 C   0  0  0  0  0  0  0  0  0  0  0  0
    6.1290   -5.1990   27.1820 C   0  0  0  0  0  0  0  0  0  0  0  0
    5.8740   -5.0680   23.6330 C   0  0  0  0  0  0  0  0  0  0  0  0
    6.6060   -5.5150   22.3900 C   0  0  0  0  0  0  0  0  0  0  0  0
  1  2  1  0
  2  3  2  0
  2  4  1  0
  4  5  1  0
  5  6  1  0
  6  7  1  0
  7  8  1  0
  8  9  2  0
  8 10  1  0
 10 11  1  0
 11 12  1  0
 12 13  1  0
 13 14  1  0
 14 15  2  0
 14 16  1  0
 16 17  2  0
 17 18  1  0
 17 19  1  0
 19 20  2  0
 20 21  1  0
 16 22  1  0
 21 22  2  0
 22 23  1  0
 13 24  1  0
 10 25  1  0
 24 25  1  0
  7 26  1  0
  4 27  1  0
 26 27  1  0
M  END
