piperidine-amides-9973-covalent
     RDKit          3D

 26 27  0  0  0  0  0  0  0  0999 V2000
    7.0680   -3.2840   19.2790 C   0  0  0  0  0  0  0  0  0  0  0  0
    6.3550   -4.0590   20.3070 C   0  0  0  0  0  0  0  0  0  0  0  0
    5.3130   -4.6500   19.9240 O   0  0  0  0  0  0  0  0  0  0  0  0
    6.8440   -4.1570   21.6210 N   0  0  0  0  0  0  0  0  0  0  0  0
    7.7380   -3.1570   22.1690 C   0  0  0  0  0  0  0  0  0  0  0  0
    7.4360   -2.9940   23.6310 C   0  0  0  0  0  0  0  0  0  0  0  0
    6.0700   -3.5360   23.9460 C   0  0  0  0  0  0  0  0  0  0  0  0
    5.6110   -3.1910   25.3210 C   0  0  0  0  0  0  0  0  0  0  0  0
    4.6060   -2.4550   25.4100 O   0  0  0  0  0  0  0  0  0  0  0  0
    6.2120   -3.6210   26.5240 N   0  0  0  0  0  0  0  0  0  0  0  0
    5.8630   -4.8970   27.1260 C   0  0  1  0  0  0  0  0  0  0  0  0
    6.2280   -4.9800   28.5950 C   0  0  0  0  0  0  0  0  0  0  0  0
    6.1790   -6.1750   29.2590 C   0  0  0  0  0  0  0  0  0  0  0  0
    5.3690   -6.3610   30.3620 C   0  0  0  0  0  0  0  0  0  0  0  0
    4.2900   -5.5610   30.6870 C   0  0  0  0  0  0  0  0  0  0  0  0
    3.5240   -5.8120   31.8210 C   0  0  0  0  0  0  0  0  0  0  0  0
    3.8100   -6.8720   32.6720 C   0  0  0  0  0  0  0  0  0  0  0  0
    4.9700   -7.8030   32.3990 C   0  0  0  0  0  0  0  0  0  0  0  0
    5.7270   -7.4300   31.1380 C   0  0  0  0  0  0  0  0  0  0  0  0
    4.4490   -5.2870   26.9370 C   0  0  0  0  0  0  0  0  0  0  0  0
    4.0980   -5.7400   25.6530 O   0  0  0  0  0  0  0  0  0  0  0  0
    3.5690   -5.1990   27.9810 O   0  0  0  0  0  0  0  0  0  0  0  0
    2.7510   -6.2570   28.2130 C   0  0  0  0  0  0  0  0  0  0  0  0
    3.2940   -7.5150   28.0640 C   0  0  0  0  0  0  0  0  0  0  0  0
    6.0910   -5.0400   23.7230 C   0  0  0  0  0  0  0  0  0  0  0  0
    6.7320   -5.3980   22.3770 C   0  0  0  0  0  0  0  0  0  0  0  0
  1  2  1  0
  2  3  2  0
  2  4  1  0
  4  5  1  0
  5  6  1  0
  6  7  1  0
  7  8  1  0
  8  9  2  0
  8 10  1  0
 10 11  1  0
 11 12  1  1
 12 13  1  0
 13 14  1  0
 14 15  2  0
 15 16  1  0
 16 17  2  0
 17 18  1  0
 14 19  1  0
 18 19  2  0
 11 20  1  0
 20 21  2  0
 20 22  1  0
 22 23  1  0
 23 24  1  0
  7 25  1  0
  4 26  1  0
 25 26  1  0
M  END
