piperidine-amides-6646-covalent
     RDKit          3D

 24 25  0  0  0  0  0  0  0  0999 V2000
    7.1750   -4.0100   19.7170 C   0  0  0  0  0  0  0  0  0  0  0  0
    5.8970   -3.8420   20.2640 C   0  0  0  0  0  0  0  0  0  0  0  0
    4.9230   -3.8980   19.5030 O   0  0  0  0  0  0  0  0  0  0  0  0
    5.8300   -3.7250   21.6220 N   0  0  0  0  0  0  0  0  0  0  0  0
    6.7690   -2.7870   22.1510 C   0  0  0  0  0  0  0  0  0  0  0  0
    6.1650   -2.3280   23.4680 C   0  0  0  0  0  0  0  0  0  0  0  0
    5.9620   -3.5430   24.3580 C   0  0  0  0  0  0  0  0  0  0  0  0
    5.1750   -3.1100   25.5100 C   0  0  0  0  0  0  0  0  0  0  0  0
    3.9400   -2.9880   25.3580 O   0  0  0  0  0  0  0  0  0  0  0  0
    5.7960   -2.8470   26.7430 N   0  0  0  0  0  0  0  0  0  0  0  0
    6.1920   -3.9330   27.5720 C   0  0  0  0  0  0  0  0  0  0  0  0
    7.6730   -3.8350   27.6200 C   0  0  0  0  0  0  0  0  0  0  0  0
    8.3270   -4.9590   28.0670 C   0  0  0  0  0  0  0  0  0  0  0  0
    9.0690   -5.6560   27.1530 C   0  0  0  0  0  0  0  0  0  0  0  0
    8.0270   -2.6680   28.4240 C   0  0  0  0  0  0  0  0  0  0  0  0
    8.2110   -1.4080   27.9030 C   0  0  0  0  0  0  0  0  0  0  0  0
    8.0610   -3.6100   26.1680 C   0  0  0  0  0  0  0  0  0  0  0  0
    8.4810   -2.2560   25.6480 C   0  0  0  0  0  0  0  0  0  0  0  0
    8.8890   -1.8220   24.2530 C   0  0  0  0  0  0  0  0  0  0  0  0
    8.7670   -3.1040   23.5010 C   0  0  0  0  0  0  0  0  0  0  0  0
    8.3670   -4.3450   24.0240 C   0  0  0  0  0  0  0  0  0  0  0  0
    8.0320   -4.5990   25.2840 C   0  0  0  0  0  0  0  0  0  0  0  0
    5.1880   -4.6860   23.7180 C   0  0  0  0  0  0  0  0  0  0  0  0
    5.7010   -4.9580   22.3410 C   0  0  0  0  0  0  0  0  0  0  0  0
  1  2  1  0
  2  3  2  0
  2  4  1  0
  4  5  1  0
  5  6  1  0
  6  7  1  0
  7  8  1  0
  8  9  2  0
  8 10  1  0
 10 11  1  0
 12 11  1  0
 12 13  1  0
 13 14  1  0
 12 15  1  0
 15 16  1  0
 12 17  1  0
 17 18  2  0
 18 19  1  0
 19 20  2  0
 20 21  1  0
 17 22  1  0
 21 22  2  0
  7 23  1  0
  4 24  1  0
 23 24  1  0
M  END
