piperidine-amides-13037-covalent
     RDKit          3D

 20 21  0  0  0  0  0  0  0  0999 V2000
    7.1120   -3.2810   19.2230 C   0  0  0  0  0  0  0  0  0  0  0  0
    6.3250   -4.0150   20.2350 C   0  0  0  0  0  0  0  0  0  0  0  0
    5.2400   -4.4980   19.8600 O   0  0  0  0  0  0  0  0  0  0  0  0
    6.8180   -4.1940   21.5330 N   0  0  0  0  0  0  0  0  0  0  0  0
    6.5200   -5.3770   22.2630 C   0  0  0  0  0  0  0  0  0  0  0  0
    6.0820   -5.0990   23.6280 C   0  0  0  0  0  0  0  0  0  0  0  0
    6.0850   -3.6600   23.9850 C   0  0  0  0  0  0  0  0  0  0  0  0
    5.9560   -3.4980   25.4500 C   0  0  0  0  0  0  0  0  0  0  0  0
    4.7990   -3.4330   25.9160 O   0  0  0  0  0  0  0  0  0  0  0  0
    7.0900   -3.4200   26.2910 N   0  0  0  0  0  0  0  0  0  0  0  0
    7.0010   -3.0660   27.7250 C   0  0  0  0  0  0  0  0  0  0  0  0
    6.7560   -1.5930   27.9130 C   0  0  1  0  0  0  0  0  0  0  0  0
    5.9830   -0.9860   26.8470 C   0  0  0  0  0  0  0  0  0  0  0  0
    5.3700    0.0820   27.3730 C   0  0  0  0  0  0  0  0  0  0  0  0
    5.6740    0.0980   28.7030 C   0  0  0  0  0  0  0  0  0  0  0  0
    6.4070   -0.9990   29.1350 C   0  0  0  0  0  0  0  0  0  0  0  0
    7.4300   -0.7760   30.0230 F   0  0  0  0  0  0  0  0  0  0  0  0
    5.4760   -1.7820   29.8500 F   0  0  0  0  0  0  0  0  0  0  0  0
    7.1920   -2.8050   23.4320 C   0  0  0  0  0  0  0  0  0  0  0  0
    7.6390   -3.2230   22.2090 C   0  0  0  0  0  0  0  0  0  0  0  0
  1  2  1  0
  2  3  2  0
  2  4  1  0
  4  5  1  0
  5  6  1  0
  6  7  1  0
  7  8  1  0
  8  9  2  0
  8 10  1  0
 10 11  1  0
 12 11  1  1
 12 13  1  0
 13 14  1  0
 14 15  1  0
 12 16  1  0
 15 16  1  0
 16 17  1  0
 16 18  1  0
  7 19  1  0
  4 20  1  0
 19 20  1  0
M  END
