piperidine-amides-10406-covalent
     RDKit          3D

 25 27  0  0  0  0  0  0  0  0999 V2000
    7.1150   -3.3010   19.2110 C   0  0  0  0  0  0  0  0  0  0  0  0
    6.3260   -4.0170   20.2110 C   0  0  0  0  0  0  0  0  0  0  0  0
    5.2220   -4.4900   19.8460 O   0  0  0  0  0  0  0  0  0  0  0  0
    6.8450   -4.1960   21.4830 N   0  0  0  0  0  0  0  0  0  0  0  0
    7.6390   -3.1610   22.1010 C   0  0  0  0  0  0  0  0  0  0  0  0
    6.8940   -2.7070   23.3120 C   0  0  0  0  0  0  0  0  0  0  0  0
    6.6800   -3.8620   24.2380 C   0  0  0  0  0  0  0  0  0  0  0  0
    5.9690   -3.4130   25.4540 C   0  0  0  0  0  0  0  0  0  0  0  0
    4.7750   -3.7500   25.6060 O   0  0  0  0  0  0  0  0  0  0  0  0
    6.5890   -2.6330   26.4510 N   0  0  0  0  0  0  0  0  0  0  0  0
    6.1130   -1.3260   26.8290 C   0  0  0  0  0  0  0  0  0  0  0  0
    5.7890   -0.3850   25.6660 C   0  0  0  0  0  0  0  0  0  0  0  0
    5.6290    0.9640   25.8720 C   0  0  0  0  0  0  0  0  0  0  0  0
    4.3880    1.5300   26.1020 C   0  0  0  0  0  0  0  0  0  0  0  0
    3.3690    1.0870   25.3310 N   0  0  0  0  0  0  0  0  0  0  0  0
    2.3460    1.9010   25.0590 C   0  0  0  0  0  0  0  0  0  0  0  0
    1.2790    1.2370   24.4220 C   0  0  0  0  0  0  0  0  0  0  0  0
    0.0150    1.8070   24.4010 C   0  0  0  0  0  0  0  0  0  0  0  0
   -0.1580    2.6580   25.4730 O   0  0  0  0  0  0  0  0  0  0  0  0
    0.5520    3.1110   26.4770 C   0  0  0  0  0  0  0  0  0  0  0  0
    1.9630    2.5420   26.3800 C   0  0  0  0  0  0  0  0  0  0  0  0
    3.4200   -0.2830   24.8600 C   0  0  0  0  0  0  0  0  0  0  0  0
    4.8060   -0.9020   24.7850 C   0  0  0  0  0  0  0  0  0  0  0  0
    5.9570   -5.0030   23.6090 C   0  0  0  0  0  0  0  0  0  0  0  0
    6.4820   -5.3610   22.2390 C   0  0  0  0  0  0  0  0  0  0  0  0
  1  2  1  0
  2  3  2  0
  2  4  1  0
  4  5  1  0
  5  6  1  0
  6  7  1  0
  7  8  1  0
  8  9  2  0
  8 10  1  0
 10 11  1  0
 11 12  1  0
 12 13  1  0
 13 14  1  0
 14 15  1  0
 15 16  1  0
 16 17  1  0
 17 18  1  0
 18 19  1  0
 19 20  1  0
 16 21  1  0
 20 21  1  0
 15 22  1  0
 12 23  1  0
 22 23  1  0
  7 24  1  0
  4 25  1  0
 24 25  1  0
M  END
