piperidine-amides-21752-covalent
     RDKit          3D

 23 25  0  0  0  0  0  0  0  0999 V2000
    7.0190   -3.3880   19.4150 C   0  0  0  0  0  0  0  0  0  0  0  0
    6.3940   -4.2790   20.4040 C   0  0  0  0  0  0  0  0  0  0  0  0
    5.3890   -4.9200   19.9970 O   0  0  0  0  0  0  0  0  0  0  0  0
    6.9170   -4.4310   21.7030 N   0  0  0  0  0  0  0  0  0  0  0  0
    6.5850   -5.5610   22.5490 C   0  0  0  0  0  0  0  0  0  0  0  0
    6.2910   -5.0490   23.9510 C   0  0  0  0  0  0  0  0  0  0  0  0
    5.8270   -3.6130   23.9420 C   0  0  0  0  0  0  0  0  0  0  0  0
    5.2890   -3.0930   25.2550 C   0  0  0  0  0  0  0  0  0  0  0  0
    4.3690   -2.2640   25.1510 O   0  0  0  0  0  0  0  0  0  0  0  0
    5.6420   -3.4210   26.5980 N   0  0  0  0  0  0  0  0  0  0  0  0
    4.6400   -3.9510   27.4810 C   0  0  0  0  0  0  0  0  0  0  0  0
    5.3180   -4.8630   28.4800 C   0  0  0  0  0  0  0  0  0  0  0  0
    6.6470   -4.7270   28.6930 C   0  0  0  0  0  0  0  0  0  0  0  0
    7.1790   -3.4920   28.3980 C   0  0  0  0  0  0  0  0  0  0  0  0
    6.9060   -3.0150   27.1220 C   0  0  1  0  0  0  0  0  0  0  0  0
    7.7930   -3.4970   26.3140 C   0  0  0  0  0  0  0  0  0  0  0  0
    8.2140   -3.0320   25.1410 N   0  0  0  0  0  0  0  0  0  0  0  0
    9.1060   -3.9150   24.7470 N   0  0  0  0  0  0  0  0  0  0  0  0
    9.1570   -4.8980   25.7930 C   0  0  0  0  0  0  0  0  0  0  0  0
    9.9380   -6.0740   25.9510 C   0  0  0  0  0  0  0  0  0  0  0  0
    8.3330   -4.5840   26.7030 N   0  0  0  0  0  0  0  0  0  0  0  0
    6.8640   -2.6750   23.4010 C   0  0  0  0  0  0  0  0  0  0  0  0
    7.6400   -3.2850   22.2580 C   0  0  0  0  0  0  0  0  0  0  0  0
  1  2  1  0
  2  3  2  0
  2  4  1  0
  4  5  1  0
  5  6  1  0
  6  7  1  0
  7  8  1  0
  8  9  2  0
  8 10  1  0
 10 11  1  0
 11 12  1  0
 12 13  1  0
 13 14  1  0
 10 15  1  0
 14 15  1  0
 15 16  1  6
 16 17  2  0
 17 18  1  0
 18 19  1  0
 19 20  1  0
 16 21  1  0
 19 21  2  0
  7 22  1  0
  4 23  1  0
 22 23  1  0
M  END
