piperidine-amides-33727-covalent
     RDKit          3D

 30 32  0  0  0  0  0  0  0  0999 V2000
    7.0970   -3.2980   19.2750 C   0  0  0  0  0  0  0  0  0  0  0  0
    6.3680   -4.1220   20.2550 C   0  0  0  0  0  0  0  0  0  0  0  0
    5.2680   -4.5920   19.8980 O   0  0  0  0  0  0  0  0  0  0  0  0
    6.9210   -4.4220   21.5200 N   0  0  0  0  0  0  0  0  0  0  0  0
    6.3150   -5.4500   22.2960 C   0  0  0  0  0  0  0  0  0  0  0  0
    5.8400   -5.0560   23.6360 C   0  0  0  0  0  0  0  0  0  0  0  0
    5.7540   -3.6010   23.9300 C   0  0  0  0  0  0  0  0  0  0  0  0
    5.6900   -3.3200   25.4010 C   0  0  0  0  0  0  0  0  0  0  0  0
    4.5780   -3.3040   25.9610 O   0  0  0  0  0  0  0  0  0  0  0  0
    6.8560   -3.0480   26.1540 N   0  0  0  0  0  0  0  0  0  0  0  0
    7.6560   -1.9040   25.9740 C   0  0  0  0  0  0  0  0  0  0  0  0
    8.2400   -1.5820   24.6630 C   0  0  0  0  0  0  0  0  0  0  0  0
    9.3790   -2.5010   24.3120 C   0  0  0  0  0  0  0  0  0  0  0  0
   10.0850   -2.3970   23.1620 C   0  0  0  0  0  0  0  0  0  0  0  0
    9.7200   -1.2920   22.1530 C   0  0  0  0  0  0  0  0  0  0  0  0
    8.5660   -0.3400   22.4750 C   0  0  0  0  0  0  0  0  0  0  0  0
    8.3620    0.6060   21.4580 F   0  0  0  0  0  0  0  0  0  0  0  0
    7.7770   -0.4910   23.8090 C   0  0  0  0  0  0  0  0  0  0  0  0
    7.5340   -3.9200   27.0450 C   0  0  2  0  0  0  0  0  0  0  0  0
    8.3740   -5.0000   26.4100 C   0  0  0  0  0  0  0  0  0  0  0  0
    9.0730   -5.9400   27.3680 C   0  0  0  0  0  0  0  0  0  0  0  0
    6.6070   -4.5820   28.0480 C   0  0  0  0  0  0  0  0  0  0  0  0
    6.6710   -5.9390   28.4170 C   0  0  0  0  0  0  0  0  0  0  0  0
    5.7920   -6.4910   29.3400 C   0  0  0  0  0  0  0  0  0  0  0  0
    4.7160   -5.6660   29.9980 C   0  0  0  0  0  0  0  0  0  0  0  0
    3.8970   -6.3130   30.8980 F   0  0  0  0  0  0  0  0  0  0  0  0
    4.6340   -4.3350   29.6530 C   0  0  0  0  0  0  0  0  0  0  0  0
    5.6190   -3.7930   28.6460 C   0  0  0  0  0  0  0  0  0  0  0  0
    6.8420   -2.8280   23.3190 C   0  0  0  0  0  0  0  0  0  0  0  0
    7.6340   -3.4450   22.2610 C   0  0  0  0  0  0  0  0  0  0  0  0
  1  2  1  0
  2  3  2  0
  2  4  1  0
  4  5  1  0
  5  6  1  0
  6  7  1  0
  7  8  1  0
  8  9  2  0
  8 10  1  0
 10 11  1  0
 11 12  1  0
 12 13  2  0
 13 14  1  0
 14 15  2  0
 15 16  1  0
 16 17  1  0
 12 18  1  0
 16 18  2  0
 10 19  1  0
 19 20  1  6
 20 21  1  0
 19 22  1  0
 22 23  2  0
 23 24  1  0
 24 25  2  0
 25 26  1  0
 25 27  1  0
 22 28  1  0
 27 28  2  0
  7 29  1  0
  4 30  1  0
 29 30  1  0
M  END
