piperidine-amides-7237-covalent
     RDKit          3D

 21 22  0  0  0  0  0  0  0  0999 V2000
    7.1160   -3.2700   19.1920 C   0  0  0  0  0  0  0  0  0  0  0  0
    6.3880   -4.0200   20.2230 C   0  0  0  0  0  0  0  0  0  0  0  0
    5.2930   -4.5340   19.8790 O   0  0  0  0  0  0  0  0  0  0  0  0
    6.9390   -4.1830   21.4940 N   0  0  0  0  0  0  0  0  0  0  0  0
    7.7040   -3.1410   22.1350 C   0  0  0  0  0  0  0  0  0  0  0  0
    6.9340   -2.6780   23.3310 C   0  0  0  0  0  0  0  0  0  0  0  0
    6.5540   -3.8380   24.2070 C   0  0  0  0  0  0  0  0  0  0  0  0
    5.7670   -3.3380   25.3540 C   0  0  0  0  0  0  0  0  0  0  0  0
    4.5190   -3.4280   25.2930 O   0  0  0  0  0  0  0  0  0  0  0  0
    6.3480   -2.7570   26.5000 N   0  0  0  0  0  0  0  0  0  0  0  0
    6.1770   -1.3460   26.7570 C   0  0  0  0  0  0  0  0  0  0  0  0
    6.5160   -0.9410   28.1860 C   0  0  1  0  0  0  0  0  0  0  0  0
    7.7260   -0.7180   28.3640 O   0  0  0  0  0  0  0  0  0  0  0  0
    5.9620    0.1940   28.7510 C   0  0  0  0  0  0  0  0  0  0  0  0
    4.7700    0.1820   29.4440 C   0  0  0  0  0  0  0  0  0  0  0  0
    4.2540   -1.0580   29.7580 C   0  0  1  0  0  0  0  0  0  0  0  0
    2.8720   -1.1720   29.7420 C   0  0  0  0  0  0  0  0  0  0  0  0
    4.8420   -2.0780   29.0740 C   0  0  0  0  0  0  0  0  0  0  0  0
    6.3490   -2.1640   29.1240 C   0  0  0  0  0  0  0  0  0  0  0  0
    5.7520   -4.8690   23.4830 C   0  0  0  0  0  0  0  0  0  0  0  0
    6.4580   -5.3420   22.2360 C   0  0  0  0  0  0  0  0  0  0  0  0
  1  2  1  0
  2  3  2  0
  2  4  1  0
  4  5  1  0
  5  6  1  0
  6  7  1  0
  7  8  1  0
  8  9  2  0
  8 10  1  0
 10 11  1  0
 11 12  1  0
 12 13  1  6
 12 14  1  0
 14 15  1  0
 15 16  1  0
 16 17  1  6
 16 18  1  0
 12 19  1  0
 18 19  1  0
  7 20  1  0
  4 21  1  0
 20 21  1  0
M  END
