piperidine-amides-19415-covalent
     RDKit          3D

 22 24  0  0  0  0  0  0  0  0999 V2000
    7.1020   -3.3690   19.5200 C   0  0  0  0  0  0  0  0  0  0  0  0
    6.4410   -4.2430   20.4620 C   0  0  0  0  0  0  0  0  0  0  0  0
    5.4740   -4.9510   20.0190 O   0  0  0  0  0  0  0  0  0  0  0  0
    6.8540   -4.3600   21.8220 N   0  0  0  0  0  0  0  0  0  0  0  0
    6.5220   -5.5760   22.5630 C   0  0  0  0  0  0  0  0  0  0  0  0
    5.4520   -4.9570   23.5420 C   0  0  0  0  0  0  0  0  0  0  0  0
    6.0680   -3.8080   24.3480 C   0  0  0  0  0  0  0  0  0  0  0  0
    4.8870   -3.2140   25.3000 C   0  0  0  0  0  0  0  0  0  0  0  0
    3.9120   -3.0530   24.5940 O   0  0  0  0  0  0  0  0  0  0  0  0
    5.1670   -3.0360   26.5570 N   0  0  0  0  0  0  0  0  0  0  0  0
    5.0360   -2.6140   27.8830 C   0  0  0  0  0  0  0  0  0  0  0  0
    4.8500   -3.2130   29.1240 C   0  0  0  0  0  0  0  0  0  0  0  0
    5.3360   -4.5090   28.8270 N   0  0  0  0  0  0  0  0  0  0  0  0
    6.0880   -4.7860   27.7500 C   0  0  0  0  0  0  0  0  0  0  0  0
    6.3960   -6.1140   27.7100 N   0  0  0  0  0  0  0  0  0  0  0  0
    5.8180   -6.5590   28.7860 C   0  0  0  0  0  0  0  0  0  0  0  0
    5.5720   -7.8180   29.6240 C   0  0  0  0  0  0  0  0  0  0  0  0
    5.0450   -5.6390   29.6700 C   0  0  0  0  0  0  0  0  0  0  0  0
    4.3010   -5.7250   30.8550 C   0  0  0  0  0  0  0  0  0  0  0  0
    6.3980   -3.5850   26.8620 C   0  0  0  0  0  0  0  0  0  0  0  0
    6.8680   -2.8070   23.5260 C   0  0  0  0  0  0  0  0  0  0  0  0
    7.6260   -3.3680   22.5070 C   0  0  0  0  0  0  0  0  0  0  0  0
  1  2  1  0
  2  3  2  0
  2  4  1  0
  4  5  1  0
  5  6  1  0
  6  7  1  0
  7  8  1  0
  8  9  2  0
  8 10  1  0
 10 11  1  0
 11 12  1  0
 12 13  1  0
 13 14  1  0
 14 15  2  0
 15 16  1  0
 16 17  1  0
 13 18  1  0
 16 18  2  0
 18 19  1  0
 10 20  1  0
 14 20  1  0
  7 21  1  0
  4 22  1  0
 21 22  1  0
M  END
