piperidine-amides-27896-covalent
     RDKit          3D

 26 28  0  0  0  0  0  0  0  0999 V2000
    7.0240   -3.3700   19.4210 C   0  0  0  0  0  0  0  0  0  0  0  0
    6.3930   -4.2580   20.4250 C   0  0  0  0  0  0  0  0  0  0  0  0
    5.4320   -4.9470   20.0100 O   0  0  0  0  0  0  0  0  0  0  0  0
    6.8840   -4.3340   21.7500 N   0  0  0  0  0  0  0  0  0  0  0  0
    6.6110   -5.4820   22.5640 C   0  0  0  0  0  0  0  0  0  0  0  0
    6.1090   -5.1430   23.9090 C   0  0  0  0  0  0  0  0  0  0  0  0
    6.1200   -3.6870   24.1380 C   0  0  0  0  0  0  0  0  0  0  0  0
    5.6240   -3.1710   25.4660 C   0  0  0  0  0  0  0  0  0  0  0  0
    5.1890   -2.0130   25.4410 O   0  0  0  0  0  0  0  0  0  0  0  0
    5.5480   -3.8440   26.7160 N   0  0  0  0  0  0  0  0  0  0  0  0
    4.2040   -4.0400   27.2830 C   0  0  0  0  0  0  0  0  0  0  0  0
    4.3030   -4.5250   28.6920 C   0  0  0  0  0  0  0  0  0  0  0  0
    5.4270   -5.2780   29.0450 N   0  0  0  0  0  0  0  0  0  0  0  0
    5.3270   -6.6850   28.7570 C   0  0  0  0  0  0  0  0  0  0  0  0
    4.9400   -7.1430   27.6330 O   0  0  0  0  0  0  0  0  0  0  0  0
    5.7110   -7.3500   29.8920 C   0  0  0  0  0  0  0  0  0  0  0  0
    4.7540   -7.5010   30.8740 C   0  0  0  0  0  0  0  0  0  0  0  0
    3.4910   -7.8720   30.5860 C   0  0  0  0  0  0  0  0  0  0  0  0
    2.5390   -8.0250   31.5570 C   0  0  0  0  0  0  0  0  0  0  0  0
    2.8120   -7.8120   32.8700 N   0  0  0  0  0  0  0  0  0  0  0  0
    4.0740   -7.4400   33.1820 C   0  0  0  0  0  0  0  0  0  0  0  0
    5.0440   -7.2840   32.1910 C   0  0  0  0  0  0  0  0  0  0  0  0
    6.7090   -4.9300   28.4720 C   0  0  0  0  0  0  0  0  0  0  0  0
    6.3660   -3.6070   27.8020 C   0  0  0  0  0  0  0  0  0  0  0  0
    7.4750   -3.1230   23.7050 C   0  0  0  0  0  0  0  0  0  0  0  0
    7.7020   -3.2580   22.3130 C   0  0  0  0  0  0  0  0  0  0  0  0
  1  2  1  0
  2  3  2  0
  2  4  1  0
  4  5  1  0
  5  6  1  0
  6  7  1  0
  7  8  1  0
  8  9  2  0
  8 10  1  0
 10 11  1  0
 11 12  1  0
 12 13  1  0
 13 14  1  0
 14 15  2  0
 14 16  1  0
 16 17  1  0
 17 18  2  0
 18 19  1  0
 19 20  2  0
 20 21  1  0
 17 22  1  0
 21 22  2  0
 13 23  1  0
 10 24  1  0
 23 24  1  0
  7 25  1  0
  4 26  1  0
 25 26  1  0
M  END
