piperidine-amides-12648-covalent
     RDKit          3D

 22 24  0  0  0  0  0  0  0  0999 V2000
    7.1270   -3.2750   19.1300 C   0  0  0  0  0  0  0  0  0  0  0  0
    6.3700   -3.9960   20.1780 C   0  0  0  0  0  0  0  0  0  0  0  0
    5.2720   -4.4800   19.8500 O   0  0  0  0  0  0  0  0  0  0  0  0
    6.9110   -4.1670   21.4510 N   0  0  0  0  0  0  0  0  0  0  0  0
    6.5290   -5.2740   22.2600 C   0  0  0  0  0  0  0  0  0  0  0  0
    6.0550   -4.8990   23.5950 C   0  0  0  0  0  0  0  0  0  0  0  0
    6.6750   -3.6830   24.1690 C   0  0  0  0  0  0  0  0  0  0  0  0
    5.8560   -3.1520   25.2690 C   0  0  0  0  0  0  0  0  0  0  0  0
    4.6260   -3.0680   25.0960 O   0  0  0  0  0  0  0  0  0  0  0  0
    6.4450   -2.7580   26.4780 N   0  0  0  0  0  0  0  0  0  0  0  0
    6.1630   -3.4670   27.7330 C   0  0  0  0  0  0  0  0  0  0  0  0
    4.9600   -2.8930   28.3990 C   0  0  2  0  0  0  0  0  0  0  0  0
    4.9620   -1.6360   28.5360 O   0  0  0  0  0  0  0  0  0  0  0  0
    4.8960   -3.3330   29.7840 C   0  0  0  0  0  0  0  0  0  0  0  0
    3.6350   -3.5620   30.2650 C   0  0  2  0  0  0  0  0  0  0  0  0
    3.1370   -4.8390   30.0320 C   0  0  0  0  0  0  0  0  0  0  0  0
    2.5070   -4.7510   28.8210 C   0  0  0  0  0  0  0  0  0  0  0  0
    2.5980   -3.4480   28.4470 C   0  0  1  0  0  0  0  0  0  0  0  0
    2.7700   -2.7450   29.5760 C   0  0  0  0  0  0  0  0  0  0  0  0
    3.7280   -3.0630   27.7090 C   0  0  0  0  0  0  0  0  0  0  0  0
    7.0070   -2.6020   23.2260 C   0  0  0  0  0  0  0  0  0  0  0  0
    7.7660   -3.1610   22.0700 C   0  0  0  0  0  0  0  0  0  0  0  0
  1  2  1  0
  2  3  2  0
  2  4  1  0
  4  5  1  0
  5  6  1  0
  6  7  1  0
  7  8  1  0
  8  9  2  0
  8 10  1  0
 10 11  1  0
 11 12  1  0
 12 13  1  1
 12 14  1  0
 15 14  1  6
 15 16  1  0
 16 17  1  0
 18 17  1  1
 15 19  1  0
 18 19  1  0
 12 20  1  0
 18 20  1  0
  7 21  1  0
  4 22  1  0
 21 22  1  0
M  END
