piperidine-amides-27787-covalent
     RDKit          3D

 26 28  0  0  0  0  0  0  0  0999 V2000
    7.0460   -3.3460   19.3360 C   0  0  0  0  0  0  0  0  0  0  0  0
    6.4030   -4.2000   20.3600 C   0  0  0  0  0  0  0  0  0  0  0  0
    5.4040   -4.8540   19.9860 O   0  0  0  0  0  0  0  0  0  0  0  0
    6.9280   -4.2900   21.6640 N   0  0  0  0  0  0  0  0  0  0  0  0
    6.6510   -5.4210   22.4930 C   0  0  0  0  0  0  0  0  0  0  0  0
    6.1090   -5.0600   23.8100 C   0  0  0  0  0  0  0  0  0  0  0  0
    6.2510   -3.6210   24.1160 C   0  0  0  0  0  0  0  0  0  0  0  0
    5.7080   -3.2300   25.4600 C   0  0  0  0  0  0  0  0  0  0  0  0
    5.0980   -2.1540   25.5170 O   0  0  0  0  0  0  0  0  0  0  0  0
    5.8010   -4.0110   26.6320 N   0  0  0  0  0  0  0  0  0  0  0  0
    6.3540   -3.5590   27.9050 C   0  0  0  0  0  0  0  0  0  0  0  0
    6.4210   -4.8000   28.7440 C   0  0  0  0  0  0  0  0  0  0  0  0
    5.1870   -5.4060   29.0700 N   0  0  0  0  0  0  0  0  0  0  0  0
    4.9050   -5.9080   30.3920 C   0  0  0  0  0  0  0  0  0  0  0  0
    3.8780   -5.1820   30.9580 C   0  0  0  0  0  0  0  0  0  0  0  0
    3.4090   -5.4560   32.2330 C   0  0  0  0  0  0  0  0  0  0  0  0
    3.9950   -6.4750   32.9210 C   0  0  0  0  0  0  0  0  0  0  0  0
    3.5810   -6.7910   34.1770 C   0  0  0  0  0  0  0  0  0  0  0  0
    5.0180   -7.1890   32.3320 C   0  0  0  0  0  0  0  0  0  0  0  0
    5.6520   -8.2450   32.9890 C   0  0  0  0  0  0  0  0  0  0  0  0
    5.4930   -6.9280   31.0680 C   0  0  0  0  0  0  0  0  0  0  0  0
    4.1360   -5.0230   28.2220 C   0  0  0  0  0  0  0  0  0  0  0  0
    4.6760   -4.8610   26.8360 C   0  0  2  0  0  0  0  0  0  0  0  0
    5.0370   -6.0800   26.2410 C   0  0  0  0  0  0  0  0  0  0  0  0
    7.5440   -3.0970   23.6910 C   0  0  0  0  0  0  0  0  0  0  0  0
    7.7820   -3.2300   22.2230 C   0  0  0  0  0  0  0  0  0  0  0  0
  1  2  1  0
  2  3  2  0
  2  4  1  0
  4  5  1  0
  5  6  1  0
  6  7  1  0
  7  8  1  0
  8  9  2  0
  8 10  1  0
 10 11  1  0
 11 12  1  0
 12 13  1  0
 13 14  1  0
 14 15  2  0
 15 16  1  0
 16 17  2  0
 17 18  1  0
 17 19  1  0
 19 20  1  0
 14 21  1  0
 19 21  2  0
 13 22  1  0
 10 23  1  0
 22 23  1  0
 23 24  1  1
  7 25  1  0
  4 26  1  0
 25 26  1  0
M  END
