piperidine-amides-34025-covalent
     RDKit          3D

 30 31  0  0  0  0  0  0  0  0999 V2000
    7.1490   -3.2420   19.2010 C   0  0  0  0  0  0  0  0  0  0  0  0
    6.3690   -4.0030   20.1880 C   0  0  0  0  0  0  0  0  0  0  0  0
    5.2840   -4.5360   19.8750 O   0  0  0  0  0  0  0  0  0  0  0  0
    6.8640   -4.1830   21.4790 N   0  0  0  0  0  0  0  0  0  0  0  0
    7.7080   -3.1610   22.0630 C   0  0  0  0  0  0  0  0  0  0  0  0
    6.9820   -2.6740   23.3090 C   0  0  0  0  0  0  0  0  0  0  0  0
    6.6640   -3.9200   24.0940 C   0  0  0  0  0  0  0  0  0  0  0  0
    5.9560   -3.5230   25.3100 C   0  0  0  0  0  0  0  0  0  0  0  0
    4.7590   -3.1540   25.2420 O   0  0  0  0  0  0  0  0  0  0  0  0
    6.6810   -3.5790   26.5110 N   0  0  0  0  0  0  0  0  0  0  0  0
    7.4160   -2.4110   26.8670 C   0  0  0  0  0  0  0  0  0  0  0  0
    6.8770   -1.8320   28.1520 C   0  0  0  0  0  0  0  0  0  0  0  0
    5.9890   -2.3070   29.0850 C   0  0  0  0  0  0  0  0  0  0  0  0
    5.6640   -1.5530   30.1910 C   0  0  0  0  0  0  0  0  0  0  0  0
    6.2030   -0.2900   30.4380 C   0  0  0  0  0  0  0  0  0  0  0  0
    7.0990    0.3400   29.6230 C   0  0  0  0  0  0  0  0  0  0  0  0
    7.6430    1.5650   29.8180 O   0  0  0  0  0  0  0  0  0  0  0  0
    8.6100    2.2460   29.1380 C   0  0  0  0  0  0  0  0  0  0  0  0
    7.4780   -0.4190   28.4240 C   0  0  0  0  0  0  0  0  0  0  0  0
    8.2950    0.0790   27.6000 O   0  0  0  0  0  0  0  0  0  0  0  0
    7.8320    0.3900   26.3010 C   0  0  0  0  0  0  0  0  0  0  0  0
    7.1660   -4.7590   27.2020 C   0  0  0  0  0  0  0  0  0  0  0  0
    8.4120   -5.3870   26.9730 C   0  0  0  0  0  0  0  0  0  0  0  0
    8.2020   -4.6230   28.2410 C   0  0  0  0  0  0  0  0  0  0  0  0
    6.1620   -5.8280   27.6760 C   0  0  0  0  0  0  0  0  0  0  0  0
    5.3530   -6.5170   26.8030 O   0  0  0  0  0  0  0  0  0  0  0  0
    6.0040   -6.1450   29.0240 O   0  0  0  0  0  0  0  0  0  0  0  0
    5.6100   -7.4560   29.4140 C   0  0  0  0  0  0  0  0  0  0  0  0
    5.8490   -4.9640   23.3990 C   0  0  0  0  0  0  0  0  0  0  0  0
    6.4100   -5.3410   22.2050 C   0  0  0  0  0  0  0  0  0  0  0  0
  1  2  1  0
  2  3  2  0
  2  4  1  0
  4  5  1  0
  5  6  1  0
  6  7  1  0
  7  8  1  0
  8  9  2  0
  8 10  1  0
 10 11  1  0
 11 12  1  0
 12 13  2  0
 13 14  1  0
 14 15  2  0
 15 16  1  0
 16 17  1  0
 17 18  1  0
 12 19  1  0
 16 19  2  0
 19 20  1  0
 20 21  1  0
 10 22  1  0
 22 23  1  0
 22 24  1  0
 22 25  1  0
 25 26  2  0
 25 27  1  0
 27 28  1  0
  7 29  1  0
  4 30  1  0
 29 30  1  0
M  END
