piperidine-amides-32241-covalent
     RDKit          3D

 27 29  0  0  0  0  0  0  0  0999 V2000
    7.0670   -3.3310   19.3480 C   0  0  0  0  0  0  0  0  0  0  0  0
    6.3620   -4.1920   20.3340 C   0  0  0  0  0  0  0  0  0  0  0  0
    5.3600   -4.8340   19.9740 O   0  0  0  0  0  0  0  0  0  0  0  0
    6.8800   -4.2900   21.6420 N   0  0  0  0  0  0  0  0  0  0  0  0
    7.6870   -3.2190   22.2020 C   0  0  0  0  0  0  0  0  0  0  0  0
    7.5870   -3.2980   23.7280 C   0  0  0  0  0  0  0  0  0  0  0  0
    6.2250   -3.8170   24.0250 C   0  0  0  0  0  0  0  0  0  0  0  0
    5.6350   -3.2810   25.2800 C   0  0  0  0  0  0  0  0  0  0  0  0
    4.7660   -2.4210   25.1310 O   0  0  0  0  0  0  0  0  0  0  0  0
    6.0170   -3.7290   26.5460 N   0  0  0  0  0  0  0  0  0  0  0  0
    6.4480   -2.9360   27.5880 C   0  0  0  0  0  0  0  0  0  0  0  0
    6.7120   -3.5610   28.7760 C   0  0  0  0  0  0  0  0  0  0  0  0
    5.8850   -4.6190   29.1680 C   0  0  0  0  0  0  0  0  0  0  0  0
    4.6570   -4.2310   29.6430 C   0  0  0  0  0  0  0  0  0  0  0  0
    4.1330   -2.9430   29.6750 N   0  0  0  0  0  0  0  0  0  0  0  0
    2.8950   -2.9260   30.2160 N   0  0  0  0  0  0  0  0  0  0  0  0
    2.2670   -4.1080   30.6720 C   0  0  0  0  0  0  0  0  0  0  0  0
    0.9360   -4.5280   31.3140 C   0  0  0  0  0  0  0  0  0  0  0  0
    0.4910   -5.8300   31.1450 O   0  0  0  0  0  0  0  0  0  0  0  0
    0.1360   -3.6800   32.0590 O   0  0  0  0  0  0  0  0  0  0  0  0
    0.6410   -2.4650   32.6300 C   0  0  0  0  0  0  0  0  0  0  0  0
   -0.3690   -1.5280   32.7360 C   0  0  0  0  0  0  0  0  0  0  0  0
    3.4540   -5.3350   30.3390 S   0  0  0  0  0  0  0  0  0  0  0  0
    5.8370   -5.5540   28.1660 C   0  0  0  0  0  0  0  0  0  0  0  0
    5.2540   -4.8810   26.9290 C   0  0  0  0  0  0  0  0  0  0  0  0
    6.2880   -5.2700   23.8480 C   0  0  0  0  0  0  0  0  0  0  0  0
    6.6950   -5.5160   22.3810 C   0  0  0  0  0  0  0  0  0  0  0  0
  1  2  1  0
  2  3  2  0
  2  4  1  0
  4  5  1  0
  5  6  1  0
  6  7  1  0
  7  8  1  0
  8  9  2  0
  8 10  1  0
 10 11  1  0
 11 12  1  0
 12 13  1  0
 13 14  1  0
 14 15  2  0
 15 16  1  0
 16 17  2  0
 17 18  1  0
 18 19  2  0
 18 20  1  0
 20 21  1  0
 21 22  1  0
 14 23  1  0
 17 23  1  0
 13 24  1  0
 10 25  1  0
 24 25  1  0
  7 26  1  0
  4 27  1  0
 26 27  1  0
M  END
