piperidine-amides-23452-covalent
     RDKit          3D

 24 26  0  0  0  0  0  0  0  0999 V2000
    7.1380   -3.2520   19.1910 C   0  0  0  0  0  0  0  0  0  0  0  0
    6.3730   -3.9910   20.2110 C   0  0  0  0  0  0  0  0  0  0  0  0
    5.2740   -4.4800   19.8560 O   0  0  0  0  0  0  0  0  0  0  0  0
    6.8760   -4.2010   21.5160 N   0  0  0  0  0  0  0  0  0  0  0  0
    7.6020   -3.1380   22.1440 C   0  0  0  0  0  0  0  0  0  0  0  0
    7.2920   -2.8960   23.5540 C   0  0  0  0  0  0  0  0  0  0  0  0
    6.4730   -3.9410   24.1990 C   0  0  0  0  0  0  0  0  0  0  0  0
    5.6750   -3.3930   25.3560 C   0  0  0  0  0  0  0  0  0  0  0  0
    4.4450   -3.2370   25.2130 O   0  0  0  0  0  0  0  0  0  0  0  0
    6.2590   -3.0290   26.5870 N   0  0  0  0  0  0  0  0  0  0  0  0
    6.8120   -1.7410   26.8070 C   0  0  0  0  0  0  0  0  0  0  0  0
    5.5920   -3.5110   27.8010 C   0  0  0  0  0  0  0  0  0  0  0  0
    5.5890   -5.0000   28.2500 C   0  0  1  0  0  0  0  0  0  0  0  0
    6.9180   -5.1390   28.5100 O   0  0  0  0  0  0  0  0  0  0  0  0
    4.9960   -5.2180   29.5440 C   0  0  0  0  0  0  0  0  0  0  0  0
    3.6740   -6.0740   29.2790 C   0  0  0  0  0  0  0  0  0  0  0  0
    4.0230   -6.2480   27.8840 C   0  0  0  0  0  0  0  0  0  0  0  0
    3.0080   -7.1820   27.2580 C   0  0  0  0  0  0  0  0  0  0  0  0
    3.1190   -7.5460   25.8020 C   0  0  0  0  0  0  0  0  0  0  0  0
    4.3050   -6.8970   25.0780 C   0  0  0  0  0  0  0  0  0  0  0  0
    5.2940   -5.9460   25.8280 C   0  0  0  0  0  0  0  0  0  0  0  0
    5.0070   -5.7200   27.2620 C   0  0  0  0  0  0  0  0  0  0  0  0
    5.6000   -4.6660   23.2380 C   0  0  0  0  0  0  0  0  0  0  0  0
    6.3780   -5.2910   22.2930 C   0  0  0  0  0  0  0  0  0  0  0  0
  1  2  1  0
  2  3  2  0
  2  4  1  0
  4  5  1  0
  5  6  1  0
  6  7  1  0
  7  8  1  0
  8  9  2  0
  8 10  1  0
 10 11  1  0
 10 12  1  0
 12 13  1  0
 13 14  1  1
 13 15  1  0
 15 16  1  0
 16 17  1  0
 17 18  1  0
 18 19  2  0
 19 20  1  0
 20 21  2  0
 13 22  1  0
 17 22  2  0
 21 22  1  0
  7 23  1  0
  4 24  1  0
 23 24  1  0
M  END
