piperidine-amides-11009-covalent
     RDKit          3D

 21 22  0  0  0  0  0  0  0  0999 V2000
    7.0420   -3.3290   19.3170 C   0  0  0  0  0  0  0  0  0  0  0  0
    6.3590   -4.1500   20.3240 C   0  0  0  0  0  0  0  0  0  0  0  0
    5.3750   -4.8200   19.9740 O   0  0  0  0  0  0  0  0  0  0  0  0
    6.8080   -4.2360   21.6560 N   0  0  0  0  0  0  0  0  0  0  0  0
    6.7330   -5.4770   22.3990 C   0  0  0  0  0  0  0  0  0  0  0  0
    6.0890   -5.1400   23.7140 C   0  0  0  0  0  0  0  0  0  0  0  0
    6.0830   -3.6610   23.9520 C   0  0  0  0  0  0  0  0  0  0  0  0
    5.6440   -3.3070   25.3250 C   0  0  0  0  0  0  0  0  0  0  0  0
    4.4090   -3.2740   25.6160 O   0  0  0  0  0  0  0  0  0  0  0  0
    6.5440   -2.9910   26.3600 N   0  0  0  0  0  0  0  0  0  0  0  0
    6.4770   -1.6950   27.0730 C   0  0  0  0  0  0  0  0  0  0  0  0
    7.0360   -1.6370   28.4440 C   0  0  0  0  0  0  0  0  0  0  0  0
    7.0280   -0.4110   29.2560 C   0  0  0  0  0  0  0  0  0  0  0  0
    6.4380    0.8770   28.7360 C   0  0  0  0  0  0  0  0  0  0  0  0
    6.4100    2.4860   29.7770 Br  0  0  0  0  0  0  0  0  0  0  0  0
    5.8740    0.7950   27.3380 C   0  0  0  0  0  0  0  0  0  0  0  0
    5.2840    2.0350   26.7760 C   0  0  0  0  0  0  0  0  0  0  0  0
    4.0130    2.3630   27.3270 N   0  0  0  0  0  0  0  0  0  0  0  0
    5.8480   -0.4380   26.4330 C   0  0  0  0  0  0  0  0  0  0  0  0
    7.4350   -3.0710   23.6640 C   0  0  0  0  0  0  0  0  0  0  0  0
    7.6960   -3.1950   22.1780 C   0  0  0  0  0  0  0  0  0  0  0  0
  1  2  1  0
  2  3  2  0
  2  4  1  0
  4  5  1  0
  5  6  1  0
  6  7  1  0
  7  8  1  0
  8  9  2  0
  8 10  1  0
 10 11  1  0
 11 12  2  0
 12 13  1  0
 13 14  2  0
 14 15  1  0
 14 16  1  0
 16 17  1  0
 17 18  3  0
 11 19  1  0
 16 19  2  0
  7 20  1  0
  4 21  1  0
 20 21  1  0
M  END
