piperidine-amides-11003-covalent
     RDKit          3D

 21 22  0  0  0  0  0  0  0  0999 V2000
    7.0660   -3.3620   19.3730 C   0  0  0  0  0  0  0  0  0  0  0  0
    6.3600   -4.1760   20.3630 C   0  0  0  0  0  0  0  0  0  0  0  0
    5.3790   -4.8420   19.9870 O   0  0  0  0  0  0  0  0  0  0  0  0
    6.7860   -4.2600   21.7040 N   0  0  0  0  0  0  0  0  0  0  0  0
    6.6800   -5.4830   22.4780 C   0  0  0  0  0  0  0  0  0  0  0  0
    6.0700   -5.1070   23.8080 C   0  0  0  0  0  0  0  0  0  0  0  0
    6.0590   -3.6220   24.0300 C   0  0  0  0  0  0  0  0  0  0  0  0
    5.5680   -3.2290   25.3840 C   0  0  0  0  0  0  0  0  0  0  0  0
    4.3210   -3.1950   25.5880 O   0  0  0  0  0  0  0  0  0  0  0  0
    6.3820   -2.8830   26.4930 N   0  0  0  0  0  0  0  0  0  0  0  0
    6.6340   -1.4590   26.8490 C   0  0  2  0  0  0  0  0  0  0  0  0
    7.1680   -1.3930   28.2370 C   0  0  0  0  0  0  0  0  0  0  0  0
    6.5900   -0.4730   29.2360 C   0  0  0  0  0  0  0  0  0  0  0  0
    5.6590    0.6050   28.7340 C   0  0  1  0  0  0  0  0  0  0  0  0
    6.0730    1.9610   29.2720 C   0  0  0  0  0  0  0  0  0  0  0  0
    4.9690    2.8750   29.1550 F   0  0  0  0  0  0  0  0  0  0  0  0
    6.5100    1.9010   30.5390 F   0  0  0  0  0  0  0  0  0  0  0  0
    5.7690    0.6360   27.2100 C   0  0  0  0  0  0  0  0  0  0  0  0
    5.3610   -0.5960   26.7740 C   0  0  0  0  0  0  0  0  0  0  0  0
    7.3990   -3.0240   23.7120 C   0  0  0  0  0  0  0  0  0  0  0  0
    7.6720   -3.2250   22.2350 C   0  0  0  0  0  0  0  0  0  0  0  0
  1  2  1  0
  2  3  2  0
  2  4  1  0
  4  5  1  0
  5  6  1  0
  6  7  1  0
  7  8  1  0
  8  9  2  0
  8 10  1  0
 11 10  1  1
 11 12  1  0
 12 13  1  0
 13 14  1  0
 14 15  1  1
 15 16  1  0
 15 17  1  0
 14 18  1  0
 11 19  1  0
 18 19  1  0
  7 20  1  0
  4 21  1  0
 20 21  1  0
M  END
