piperidine-amides-2137-covalent
     RDKit          3D

 37 40  0  0  0  0  0  0  0  0999 V2000
    7.0950   -3.2670   19.2260 C   0  0  0  0  0  0  0  0  0  0  0  0
    6.3620   -4.0410   20.2640 C   0  0  0  0  0  0  0  0  0  0  0  0
    5.3260   -4.6020   19.9100 O   0  0  0  0  0  0  0  0  0  0  0  0
    6.8710   -4.1460   21.5610 N   0  0  0  0  0  0  0  0  0  0  0  0
    6.6590   -5.3350   22.3480 C   0  0  0  0  0  0  0  0  0  0  0  0
    6.0760   -4.9690   23.6890 C   0  0  0  0  0  0  0  0  0  0  0  0
    6.1760   -3.4580   23.9350 C   0  0  0  0  0  0  0  0  0  0  0  0
    5.7260   -3.1590   25.3070 C   0  0  0  0  0  0  0  0  0  0  0  0
    4.5670   -3.4490   25.6250 O   0  0  0  0  0  0  0  0  0  0  0  0
    6.5950   -2.5350   26.2330 N   0  0  0  0  0  0  0  0  0  0  0  0
    6.3640   -2.6820   27.6590 C   0  0  1  0  0  0  0  0  0  0  0  0
    5.3860   -1.6230   28.1260 C   0  0  0  0  0  0  0  0  0  0  0  0
    4.3340   -1.3160   27.2790 C   0  0  0  0  0  0  0  0  0  0  0  0
    3.4040   -0.4200   27.5430 C   0  0  0  0  0  0  0  0  0  0  0  0
    3.5080    0.2050   28.6910 C   0  0  0  0  0  0  0  0  0  0  0  0
    4.5780   -0.0060   29.7160 C   0  0  0  0  0  0  0  0  0  0  0  0
    5.6950   -1.0250   29.4890 C   0  0  0  0  0  0  0  0  0  0  0  0
    5.6680   -3.9980   27.9840 C   0  0  1  0  0  0  0  0  0  0  0  0
    6.3840   -4.7220   28.7430 N   0  0  0  0  0  0  0  0  0  0  0  0
    6.1280   -6.3740   28.4100 S   0  0  0  0  0  0  0  0  0  0  0  0
    7.4110   -7.0340   28.6890 O   0  0  0  0  0  0  0  0  0  0  0  0
    5.7050   -6.5850   26.9860 O   0  0  0  0  0  0  0  0  0  0  0  0
    4.8820   -7.0180   29.5270 C   0  0  0  0  0  0  0  0  0  0  0  0
    5.1620   -7.0750   30.9960 C   0  0  0  0  0  0  0  0  0  0  0  0
    4.1630   -7.6140   32.0010 C   0  0  0  0  0  0  0  0  0  0  0  0
    2.8570   -8.1030   31.4990 C   0  0  0  0  0  0  0  0  0  0  0  0
    1.7810   -8.6680   32.3910 C   0  0  0  0  0  0  0  0  0  0  0  0
    2.6170   -8.0290   30.0420 C   0  0  0  0  0  0  0  0  0  0  0  0
    3.6490   -7.4820   29.0870 C   0  0  0  0  0  0  0  0  0  0  0  0
    4.3260   -3.8090   28.6940 C   0  0  0  0  0  0  0  0  0  0  0  0
    3.0890   -4.3340   27.9590 C   0  0  0  0  0  0  0  0  0  0  0  0
    1.8410   -4.2280   28.4980 C   0  0  0  0  0  0  0  0  0  0  0  0
    1.7030   -3.5660   29.8710 C   0  0  0  0  0  0  0  0  0  0  0  0
    2.8890   -3.0480   30.6040 C   0  0  0  0  0  0  0  0  0  0  0  0
    4.2330   -3.2120   29.9180 C   0  0  0  0  0  0  0  0  0  0  0  0
    7.5860   -3.0410   23.5980 C   0  0  0  0  0  0  0  0  0  0  0  0
    7.7190   -3.0990   22.0890 C   0  0  0  0  0  0  0  0  0  0  0  0
  1  2  1  0
  2  3  2  0
  2  4  1  0
  4  5  1  0
  5  6  1  0
  6  7  1  0
  7  8  1  0
  8  9  2  0
  8 10  1  0
 11 10  1  6
 11 12  1  0
 12 13  2  0
 13 14  1  0
 14 15  2  0
 15 16  1  0
 12 17  1  0
 16 17  2  0
 11 18  1  0
 18 19  1  1
 20 19  1  0
 20 21  2  0
 20 22  2  0
 20 23  1  0
 23 24  2  0
 24 25  1  0
 25 26  2  0
 26 27  1  0
 26 28  1  0
 23 29  1  0
 28 29  2  0
 18 30  1  0
 30 31  2  0
 31 32  1  0
 32 33  2  0
 33 34  1  0
 30 35  1  0
 34 35  2  0
  7 36  1  0
  4 37  1  0
 36 37  1  0
M  END
