piperidine-amides-4238-covalent
     RDKit          3D

 26 28  0  0  0  0  0  0  0  0999 V2000
    7.1090   -3.3310   19.2980 C   0  0  0  0  0  0  0  0  0  0  0  0
    6.3670   -4.1180   20.2970 C   0  0  0  0  0  0  0  0  0  0  0  0
    5.2960   -4.6450   19.9190 O   0  0  0  0  0  0  0  0  0  0  0  0
    6.8790   -4.3150   21.6010 N   0  0  0  0  0  0  0  0  0  0  0  0
    7.6090   -3.2470   22.1940 C   0  0  0  0  0  0  0  0  0  0  0  0
    7.3900   -3.0560   23.6210 C   0  0  0  0  0  0  0  0  0  0  0  0
    6.4680   -4.0160   24.2650 C   0  0  0  0  0  0  0  0  0  0  0  0
    5.7140   -3.3470   25.3810 C   0  0  0  0  0  0  0  0  0  0  0  0
    4.4700   -3.2770   25.3070 O   0  0  0  0  0  0  0  0  0  0  0  0
    6.3660   -2.7880   26.5060 N   0  0  0  0  0  0  0  0  0  0  0  0
    6.0640   -1.5690   27.1790 C   0  0  2  0  0  0  0  0  0  0  0  0
    5.9380   -0.3430   26.3860 C   0  0  0  0  0  0  0  0  0  0  0  0
    5.8700    0.8780   27.3260 C   0  0  0  0  0  0  0  0  0  0  0  0
    6.0810    0.5750   28.6480 C   0  0  0  0  0  0  0  0  0  0  0  0
    6.1490   -0.7960   28.9070 N   0  0  0  0  0  0  0  0  0  0  0  0
    5.2730   -1.3430   29.8840 C   0  0  0  0  0  0  0  0  0  0  0  0
    4.7520   -2.7190   29.5320 C   0  0  0  0  0  0  0  0  0  0  0  0
    3.8080   -3.2110   30.6580 C   0  0  0  0  0  0  0  0  0  0  0  0
    3.3810   -2.5550   31.9490 C   0  0  0  0  0  0  0  0  0  0  0  0
    3.9440   -1.1970   32.2210 C   0  0  0  0  0  0  0  0  0  0  0  0
    4.8810   -0.6300   31.1670 C   0  0  0  0  0  0  0  0  0  0  0  0
    5.3730    0.6270   31.4630 F   0  0  0  0  0  0  0  0  0  0  0  0
    7.1250   -1.4260   28.2420 C   0  0  0  0  0  0  0  0  0  0  0  0
    7.7490   -1.1410   29.2990 O   0  0  0  0  0  0  0  0  0  0  0  0
    5.5390   -4.7170   23.3260 C   0  0  0  0  0  0  0  0  0  0  0  0
    6.3700   -5.3650   22.4310 C   0  0  0  0  0  0  0  0  0  0  0  0
  1  2  1  0
  2  3  2  0
  2  4  1  0
  4  5  1  0
  5  6  1  0
  6  7  1  0
  7  8  1  0
  8  9  2  0
  8 10  1  0
 11 10  1  6
 11 12  1  0
 12 13  1  0
 13 14  1  0
 14 15  1  0
 15 16  1  0
 16 17  2  0
 17 18  1  0
 18 19  2  0
 19 20  1  0
 16 21  1  0
 20 21  2  0
 21 22  1  0
 11 23  1  0
 15 23  1  0
 23 24  2  0
  7 25  1  0
  4 26  1  0
 25 26  1  0
M  END
