piperidine-amides-35186-covalent
     RDKit          3D

 32 35  0  0  0  0  0  0  0  0999 V2000
    7.1250   -3.2490   19.1790 C   0  0  0  0  0  0  0  0  0  0  0  0
    6.3760   -4.0150   20.2070 C   0  0  0  0  0  0  0  0  0  0  0  0
    5.3000   -4.4980   19.8680 O   0  0  0  0  0  0  0  0  0  0  0  0
    6.9120   -4.2290   21.4770 N   0  0  0  0  0  0  0  0  0  0  0  0
    6.4070   -5.3070   22.2520 C   0  0  0  0  0  0  0  0  0  0  0  0
    5.5820   -4.6750   23.3360 C   0  0  0  0  0  0  0  0  0  0  0  0
    6.4690   -3.7050   24.1390 C   0  0  0  0  0  0  0  0  0  0  0  0
    5.6730   -3.2290   25.3060 C   0  0  0  0  0  0  0  0  0  0  0  0
    4.4840   -2.9250   25.1320 O   0  0  0  0  0  0  0  0  0  0  0  0
    6.2370   -3.1080   26.5990 N   0  0  0  0  0  0  0  0  0  0  0  0
    6.0650   -4.1460   27.6210 C   0  0  0  0  0  0  0  0  0  0  0  0
    5.0480   -5.2330   27.2600 C   0  0  0  0  0  0  0  0  0  0  0  0
    4.1280   -5.5310   28.2290 C   0  0  0  0  0  0  0  0  0  0  0  0
    4.2210   -4.8120   29.4060 F   0  0  0  0  0  0  0  0  0  0  0  0
    3.1840   -6.4030   28.1830 C   0  0  0  0  0  0  0  0  0  0  0  0
    3.1060   -7.0700   27.0790 C   0  0  0  0  0  0  0  0  0  0  0  0
    3.9690   -6.9550   25.8580 C   0  0  0  0  0  0  0  0  0  0  0  0
    5.1230   -5.9050   25.8870 C   0  0  0  0  0  0  0  0  0  0  0  0
    6.3020   -5.5170   24.6570 Cl  0  0  0  0  0  0  0  0  0  0  0  0
    6.3220   -1.7880   27.1950 C   0  0  0  0  0  0  0  0  0  0  0  0
    6.9420   -1.7380   28.5530 C   0  0  0  0  0  0  0  0  0  0  0  0
    7.0460   -0.4230   29.2300 C   0  0  0  0  0  0  0  0  0  0  0  0
    6.5370    0.8310   28.5560 C   0  0  0  0  0  0  0  0  0  0  0  0
    5.9410    0.6920   27.2050 C   0  0  0  0  0  0  0  0  0  0  0  0
    5.8460   -0.6660   26.5340 C   0  0  0  0  0  0  0  0  0  0  0  0
    5.4220    1.8640   26.4630 C   0  0  0  0  0  0  0  0  0  0  0  0
    5.8660    3.1860   27.0350 C   0  0  0  0  0  0  0  0  0  0  0  0
    6.0100    3.1070   28.5640 C   0  0  0  0  0  0  0  0  0  0  0  0
    5.5620    4.0490   29.2840 O   0  0  0  0  0  0  0  0  0  0  0  0
    6.6140    2.0480   29.1440 N   0  0  0  0  0  0  0  0  0  0  0  0
    6.8970   -2.6170   23.1730 C   0  0  0  0  0  0  0  0  0  0  0  0
    7.6610   -3.2170   22.2060 C   0  0  0  0  0  0  0  0  0  0  0  0
  1  2  1  0
  2  3  2  0
  2  4  1  0
  4  5  1  0
  5  6  1  0
  6  7  1  0
  7  8  1  0
  8  9  2  0
  8 10  1  0
 10 11  1  0
 11 12  1  0
 12 13  2  0
 13 14  1  0
 13 15  1  0
 15 16  2  0
 16 17  1  0
 12 18  1  0
 17 18  2  0
 18 19  1  0
 10 20  1  0
 20 21  2  0
 21 22  1  0
 22 23  2  0
 23 24  1  0
 20 25  1  0
 24 25  2  0
 24 26  1  0
 26 27  1  0
 27 28  1  0
 28 29  2  0
 23 30  1  0
 28 30  1  0
  7 31  1  0
  4 32  1  0
 31 32  1  0
M  END
