piperidine-amides-24337-covalent
     RDKit          3D

 24 26  0  0  0  0  0  0  0  0999 V2000
    7.1950   -3.2610   19.1830 C   0  0  0  0  0  0  0  0  0  0  0  0
    6.4310   -4.0350   20.1700 C   0  0  0  0  0  0  0  0  0  0  0  0
    5.3220   -4.5310   19.8780 O   0  0  0  0  0  0  0  0  0  0  0  0
    6.9790   -4.2750   21.4280 N   0  0  0  0  0  0  0  0  0  0  0  0
    7.7720   -3.2320   22.0240 C   0  0  0  0  0  0  0  0  0  0  0  0
    6.8750   -2.6280   23.0840 C   0  0  0  0  0  0  0  0  0  0  0  0
    6.5790   -3.7660   24.0220 C   0  0  0  0  0  0  0  0  0  0  0  0
    5.7580   -3.2320   25.0890 C   0  0  0  0  0  0  0  0  0  0  0  0
    4.5830   -2.8970   24.8560 O   0  0  0  0  0  0  0  0  0  0  0  0
    6.3150   -3.1150   26.3490 N   0  0  0  0  0  0  0  0  0  0  0  0
    6.6880   -1.8060   26.8070 C   0  0  0  0  0  0  0  0  0  0  0  0
    5.8460   -4.0900   27.2820 C   0  0  0  0  0  0  0  0  0  0  0  0
    6.1770   -3.6240   28.4840 C   0  0  0  0  0  0  0  0  0  0  0  0
    7.0300   -4.1940   29.1780 O   0  0  0  0  0  0  0  0  0  0  0  0
    5.4380   -2.4590   28.8490 N   0  0  0  0  0  0  0  0  0  0  0  0
    5.9870   -1.4640   29.6800 C   0  0  2  0  0  0  0  0  0  0  0  0
    4.9710   -0.9860   30.5410 C   0  0  0  0  0  0  0  0  0  0  0  0
    5.0710    0.4080   30.6090 C   0  0  1  0  0  0  0  0  0  0  0  0
    6.0020    0.9300   31.6700 C   0  0  0  0  0  0  0  0  0  0  0  0
    6.7590    0.8520   30.2990 C   0  0  0  0  0  0  0  0  0  0  0  0
    6.5170   -0.2750   29.2990 C   0  0  2  0  0  0  0  0  0  0  0  0
    5.6190    0.7930   29.4520 C   0  0  0  0  0  0  0  0  0  0  0  0
    5.8070   -4.8590   23.3420 C   0  0  0  0  0  0  0  0  0  0  0  0
    6.4080   -5.3150   22.2120 C   0  0  0  0  0  0  0  0  0  0  0  0
  1  2  1  0
  2  3  2  0
  2  4  1  0
  4  5  1  0
  5  6  1  0
  6  7  1  0
  7  8  1  0
  8  9  2  0
  8 10  1  0
 10 11  1  0
 10 12  1  0
 12 13  1  0
 13 14  2  0
 13 15  1  0
 16 15  1  6
 16 17  1  0
 18 17  1  6
 18 19  1  0
 19 20  1  0
 16 21  1  0
 21 20  1  1
 18 22  1  0
 21 22  1  0
  7 23  1  0
  4 24  1  0
 23 24  1  0
M  END
