piperidine-amides-15133-covalent
     RDKit          3D

 19 19  0  0  0  0  0  0  0  0999 V2000
    7.1010   -3.2920   19.2420 C   0  0  0  0  0  0  0  0  0  0  0  0
    6.3830   -4.0760   20.2510 C   0  0  0  0  0  0  0  0  0  0  0  0
    5.3170   -4.6190   19.9130 O   0  0  0  0  0  0  0  0  0  0  0  0
    6.9290   -4.2510   21.5520 N   0  0  0  0  0  0  0  0  0  0  0  0
    7.6910   -3.1820   22.1400 C   0  0  0  0  0  0  0  0  0  0  0  0
    6.9410   -2.6460   23.3130 C   0  0  0  0  0  0  0  0  0  0  0  0
    6.6570   -3.8350   24.1940 C   0  0  0  0  0  0  0  0  0  0  0  0
    5.8970   -3.3620   25.3890 C   0  0  0  0  0  0  0  0  0  0  0  0
    4.6720   -3.3010   25.2920 O   0  0  0  0  0  0  0  0  0  0  0  0
    6.6470   -3.0190   26.5060 N   0  0  0  0  0  0  0  0  0  0  0  0
    6.2530   -3.2820   27.8480 C   0  0  0  0  0  0  0  0  0  0  0  0
    6.6720   -4.5000   28.4060 C   0  0  0  0  0  0  0  0  0  0  0  0
    6.8520   -5.9560   27.5650 S   0  0  0  0  0  0  0  0  0  0  0  0
    5.2320   -6.6010   27.7670 C   0  0  0  0  0  0  0  0  0  0  0  0
    4.3320   -5.9010   28.5580 C   0  0  0  0  0  0  0  0  0  0  0  0
    4.7870   -6.1850   29.9590 C   0  0  0  0  0  0  0  0  0  0  0  0
    5.7190   -7.3420   30.3840 C   0  0  0  0  0  0  0  0  0  0  0  0
    5.8300   -4.8970   23.5500 C   0  0  0  0  0  0  0  0  0  0  0  0
    6.4740   -5.3820   22.2790 C   0  0  0  0  0  0  0  0  0  0  0  0
  1  2  1  0
  2  3  2  0
  2  4  1  0
  4  5  1  0
  5  6  1  0
  6  7  1  0
  7  8  1  0
  8  9  2  0
  8 10  1  0
 10 11  1  0
 11 12  1  0
 12 13  1  0
 13 14  1  0
 14 15  1  0
 15 16  1  0
 16 17  2  3
  7 18  1  0
  4 19  1  0
 18 19  1  0
M  END
