piperidine-amides-31661-covalent
     RDKit          3D

 28 29  0  0  0  0  0  0  0  0999 V2000
    7.0550   -3.3270   19.1920 C   0  0  0  0  0  0  0  0  0  0  0  0
    6.3130   -4.0040   20.2320 C   0  0  0  0  0  0  0  0  0  0  0  0
    5.2500   -4.6080   19.9010 O   0  0  0  0  0  0  0  0  0  0  0  0
    6.7440   -4.0660   21.5680 N   0  0  0  0  0  0  0  0  0  0  0  0
    6.6220   -5.3730   22.2490 C   0  0  0  0  0  0  0  0  0  0  0  0
    5.7040   -4.9330   23.4450 C   0  0  0  0  0  0  0  0  0  0  0  0
    6.5720   -4.0360   24.2970 C   0  0  0  0  0  0  0  0  0  0  0  0
    5.8170   -3.6820   25.6550 C   0  0  0  0  0  0  0  0  0  0  0  0
    4.5940   -3.8450   25.5360 O   0  0  0  0  0  0  0  0  0  0  0  0
    6.6640   -3.2830   26.5400 N   0  0  0  0  0  0  0  0  0  0  0  0
    7.2230   -2.3680   27.3730 C   0  0  0  0  0  0  0  0  0  0  0  0
    6.9640   -1.8690   28.6240 C   0  0  0  0  0  0  0  0  0  0  0  0
    6.7800   -0.4620   28.6080 C   0  0  0  0  0  0  0  0  0  0  0  0
    5.6940    0.2840   27.9360 C   0  0  0  0  0  0  0  0  0  0  0  0
    6.0290    1.7550   28.2510 C   0  0  0  0  0  0  0  0  0  0  0  0
    5.3580    2.0230   29.4360 C   0  0  0  0  0  0  0  0  0  0  0  0
    5.4290    3.2860   30.0450 N   0  0  0  0  0  0  0  0  0  0  0  0
    6.2100    4.3790   29.4650 C   0  0  0  0  0  0  0  0  0  0  0  0
    6.9450    4.0570   28.1480 C   0  0  0  0  0  0  0  0  0  0  0  0
    7.6000    5.0010   27.6660 O   0  0  0  0  0  0  0  0  0  0  0  0
    6.7650    6.0990   27.5260 C   0  0  0  0  0  0  0  0  0  0  0  0
    6.8200    2.6910   27.5610 C   0  0  0  0  0  0  0  0  0  0  0  0
    7.4660   -4.5020   26.9370 C   0  0  0  0  0  0  0  0  0  0  0  0
    7.9750   -4.3820   28.1930 C   0  0  0  0  0  0  0  0  0  0  0  0
    8.4410   -4.8450   26.0130 C   0  0  0  0  0  0  0  0  0  0  0  0
    6.5700   -5.5230   26.8580 C   0  0  0  0  0  0  0  0  0  0  0  0
    7.2390   -2.8750   23.6310 C   0  0  0  0  0  0  0  0  0  0  0  0
    7.5980   -3.0960   22.1920 C   0  0  0  0  0  0  0  0  0  0  0  0
  1  2  1  0
  2  3  2  0
  2  4  1  0
  4  5  1  0
  5  6  1  0
  6  7  1  0
  7  8  1  0
  8  9  2  0
  8 10  1  0
 10 11  1  0
 11 12  1  0
 12 13  1  0
 13 14  2  3
 14 15  1  0
 15 16  2  0
 16 17  1  0
 17 18  2  0
 18 19  1  0
 19 20  1  0
 20 21  1  0
 15 22  1  0
 19 22  2  0
 23 10  1  0
 23 24  1  0
 23 25  1  0
 23 26  1  0
  7 27  1  0
  4 28  1  0
 27 28  1  0
M  END
