piperidine-amides-25234-covalent
     RDKit          3D

 25 28  0  0  0  0  0  0  0  0999 V2000
    6.9880   -3.3730   19.4090 C   0  0  0  0  0  0  0  0  0  0  0  0
    6.3590   -4.2650   20.4240 C   0  0  0  0  0  0  0  0  0  0  0  0
    5.4320   -4.9660   20.0120 O   0  0  0  0  0  0  0  0  0  0  0  0
    6.8310   -4.3120   21.7540 N   0  0  0  0  0  0  0  0  0  0  0  0
    6.6960   -5.5150   22.5600 C   0  0  0  0  0  0  0  0  0  0  0  0
    6.1290   -5.1780   23.9210 C   0  0  0  0  0  0  0  0  0  0  0  0
    6.1760   -3.6650   24.0770 C   0  0  0  0  0  0  0  0  0  0  0  0
    5.8400   -3.1480   25.4460 C   0  0  0  0  0  0  0  0  0  0  0  0
    5.5300   -1.9600   25.5260 O   0  0  0  0  0  0  0  0  0  0  0  0
    5.7910   -3.9050   26.6540 N   0  0  0  0  0  0  0  0  0  0  0  0
    4.6190   -3.7240   27.4810 C   0  0  0  0  0  0  0  0  0  0  0  0
    4.8840   -4.7090   28.6620 C   0  0  0  0  0  0  0  0  0  0  0  0
    6.0230   -5.5080   28.4800 C   0  0  0  0  0  0  0  0  0  0  0  0
    6.4730   -6.4460   29.3120 C   0  0  0  0  0  0  0  0  0  0  0  0
    5.8080   -6.6800   30.4400 C   0  0  0  0  0  0  0  0  0  0  0  0
    4.5700   -5.9710   30.8850 C   0  0  0  0  0  0  0  0  0  0  0  0
    4.0370   -4.8950   29.9560 C   0  0  0  0  0  0  0  0  0  0  0  0
    5.1870   -5.3660   29.2970 N   0  0  0  0  0  0  0  0  0  0  0  0
    4.3150   -5.8080   28.2370 C   0  0  0  0  0  0  0  0  0  0  0  0
    3.4380   -4.6250   27.9690 C   0  0  0  0  0  0  0  0  0  0  0  0
    4.2350   -3.5100   28.6230 C   0  0  0  0  0  0  0  0  0  0  0  0
    5.6330   -4.0510   28.9760 C   0  0  2  0  0  0  0  0  0  0  0  0
    6.5280   -4.0100   27.8400 C   0  0  0  0  0  0  0  0  0  0  0  0
    7.5440   -3.1650   23.6460 C   0  0  0  0  0  0  0  0  0  0  0  0
    7.6830   -3.2330   22.2720 C   0  0  0  0  0  0  0  0  0  0  0  0
  1  2  1  0
  2  3  2  0
  2  4  1  0
  4  5  1  0
  5  6  1  0
  6  7  1  0
  7  8  1  0
  8  9  2  0
  8 10  1  0
 10 11  1  0
 11 12  1  0
 12 13  1  0
 13 14  2  0
 14 15  1  0
 15 16  2  0
 12 17  2  0
 16 17  1  0
 17 18  1  0
 18 19  1  0
 19 20  1  0
 20 21  1  0
 18 22  1  0
 22 21  1  6
 10 23  1  0
 22 23  1  0
  7 24  1  0
  4 25  1  0
 24 25  1  0
M  END
