piperidine-amides-28776-covalent
     RDKit          3D

 25 27  0  0  0  0  0  0  0  0999 V2000
    7.1050   -3.3070   19.3600 C   0  0  0  0  0  0  0  0  0  0  0  0
    6.4230   -4.1630   20.3260 C   0  0  0  0  0  0  0  0  0  0  0  0
    5.3570   -4.6850   19.9490 O   0  0  0  0  0  0  0  0  0  0  0  0
    6.9660   -4.4540   21.6130 N   0  0  0  0  0  0  0  0  0  0  0  0
    6.2780   -5.4070   22.3780 C   0  0  0  0  0  0  0  0  0  0  0  0
    5.1110   -4.6710   22.9270 C   0  0  0  0  0  0  0  0  0  0  0  0
    5.5830   -3.4310   23.6780 C   0  0  0  0  0  0  0  0  0  0  0  0
    5.8550   -3.8550   25.0780 C   0  0  0  0  0  0  0  0  0  0  0  0
    6.3190   -4.9620   25.1770 O   0  0  0  0  0  0  0  0  0  0  0  0
    5.5100   -3.0440   26.1520 N   0  0  0  0  0  0  0  0  0  0  0  0
    6.4770   -2.4450   26.9940 C   0  0  0  0  0  0  0  0  0  0  0  0
    6.7310   -3.1260   28.1980 C   0  0  0  0  0  0  0  0  0  0  0  0
    5.6680   -3.4600   28.9170 C   0  0  0  0  0  0  0  0  0  0  0  0
    5.0630   -2.4390   29.6430 C   0  0  0  0  0  0  0  0  0  0  0  0
    4.0950   -2.9300   30.5120 O   0  0  0  0  0  0  0  0  0  0  0  0
    5.3810   -1.0730   29.5220 N   0  0  0  0  0  0  0  0  0  0  0  0
    6.1330   -0.4250   30.5940 C   0  0  0  0  0  0  0  0  0  0  0  0
    5.6430    0.2240   31.6610 N   0  0  0  0  0  0  0  0  0  0  0  0
    6.6510    0.6800   32.4270 C   0  0  0  0  0  0  0  0  0  0  0  0
    7.9380    0.2950   31.8050 C   0  0  0  0  0  0  0  0  0  0  0  0
    7.8410   -0.5950   30.3300 S   0  0  0  0  0  0  0  0  0  0  0  0
    4.7590   -4.2050   28.2640 C   0  0  0  0  0  0  0  0  0  0  0  0
    4.3800   -3.5500   26.9270 C   0  0  0  0  0  0  0  0  0  0  0  0
    6.7930   -2.6700   23.0850 C   0  0  0  0  0  0  0  0  0  0  0  0
    7.6860   -3.5010   22.4140 C   0  0  0  0  0  0  0  0  0  0  0  0
  1  2  1  0
  2  3  2  0
  2  4  1  0
  4  5  1  0
  5  6  1  0
  6  7  1  0
  7  8  1  0
  8  9  2  0
  8 10  1  0
 10 11  1  0
 11 12  1  0
 12 13  1  0
 13 14  1  0
 14 15  2  0
 14 16  1  0
 16 17  1  0
 17 18  2  0
 18 19  1  0
 19 20  2  0
 17 21  1  0
 20 21  1  0
 13 22  1  0
 10 23  1  0
 22 23  1  0
  7 24  1  0
  4 25  1  0
 24 25  1  0
M  END
