piperidine-amides-28831-covalent
     RDKit          3D

 26 28  0  0  0  0  0  0  0  0999 V2000
    7.0930   -3.3610   19.3300 C   0  0  0  0  0  0  0  0  0  0  0  0
    6.4010   -4.1860   20.3100 C   0  0  0  0  0  0  0  0  0  0  0  0
    5.3610   -4.7740   19.9630 O   0  0  0  0  0  0  0  0  0  0  0  0
    6.9550   -4.3440   21.6050 N   0  0  0  0  0  0  0  0  0  0  0  0
    6.7170   -5.5930   22.2880 C   0  0  0  0  0  0  0  0  0  0  0  0
    6.2930   -5.3330   23.7040 C   0  0  0  0  0  0  0  0  0  0  0  0
    6.1330   -3.8430   23.8060 C   0  0  0  0  0  0  0  0  0  0  0  0
    5.4710   -3.4280   25.0660 C   0  0  0  0  0  0  0  0  0  0  0  0
    4.3770   -2.8920   24.9400 O   0  0  0  0  0  0  0  0  0  0  0  0
    6.0750   -3.6500   26.2750 N   0  0  0  0  0  0  0  0  0  0  0  0
    5.9540   -2.6110   27.2140 C   0  0  0  0  0  0  0  0  0  0  0  0
    5.5430   -3.2060   28.3750 C   0  0  2  0  0  0  0  0  0  0  0  0
    6.1890   -2.9200   29.4990 C   0  0  0  0  0  0  0  0  0  0  0  0
    5.7240   -4.6450   28.2590 C   0  0  1  0  0  0  0  0  0  0  0  0
    4.9550   -5.5060   29.0590 N   0  0  0  0  0  0  0  0  0  0  0  0
    3.8640   -4.8970   29.8170 C   0  0  0  0  0  0  0  0  0  0  0  0
    3.4640   -5.8000   30.9950 C   0  0  0  0  0  0  0  0  0  0  0  0
    3.8600   -7.0580   30.9280 N   0  0  0  0  0  0  0  0  0  0  0  0
    4.1710   -7.7430   32.1320 C   0  0  0  0  0  0  0  0  0  0  0  0
    5.5980   -7.8740   32.5750 C   0  0  0  0  0  0  0  0  0  0  0  0
    3.2810   -8.2540   32.8620 O   0  0  0  0  0  0  0  0  0  0  0  0
    4.6050   -7.6360   29.9660 C   0  0  0  0  0  0  0  0  0  0  0  0
    5.1010   -6.9290   28.8890 C   0  0  0  0  0  0  0  0  0  0  0  0
    5.7500   -4.9000   26.9140 C   0  0  0  0  0  0  0  0  0  0  0  0
    7.4170   -3.1380   23.6200 C   0  0  0  0  0  0  0  0  0  0  0  0
    7.7870   -3.3080   22.1870 C   0  0  0  0  0  0  0  0  0  0  0  0
  1  2  1  0
  2  3  2  0
  2  4  1  0
  4  5  1  0
  5  6  1  0
  6  7  1  0
  7  8  1  0
  8  9  2  0
  8 10  1  0
 10 11  1  0
 11 12  1  0
 12 13  1  1
 12 14  1  0
 14 15  1  1
 15 16  1  0
 16 17  1  0
 17 18  1  0
 18 19  1  0
 19 20  1  0
 19 21  2  0
 18 22  1  0
 15 23  1  0
 22 23  1  0
 10 24  1  0
 14 24  1  0
  7 25  1  0
  4 26  1  0
 25 26  1  0
M  END
