piperidine-amides-29984-covalent
     RDKit          3D

 27 30  0  0  0  0  0  0  0  0999 V2000
    6.9870   -3.3870   19.3810 C   0  0  0  0  0  0  0  0  0  0  0  0
    6.3230   -4.2650   20.3440 C   0  0  0  0  0  0  0  0  0  0  0  0
    5.3450   -4.9100   19.9880 O   0  0  0  0  0  0  0  0  0  0  0  0
    6.8300   -4.4190   21.6830 N   0  0  0  0  0  0  0  0  0  0  0  0
    7.5650   -3.3450   22.2950 C   0  0  0  0  0  0  0  0  0  0  0  0
    7.2220   -3.2530   23.7530 C   0  0  0  0  0  0  0  0  0  0  0  0
    5.8640   -3.8670   23.9600 C   0  0  0  0  0  0  0  0  0  0  0  0
    5.2540   -3.4750   25.2820 C   0  0  0  0  0  0  0  0  0  0  0  0
    4.4640   -2.5200   25.3420 O   0  0  0  0  0  0  0  0  0  0  0  0
    5.5390   -4.1500   26.5070 N   0  0  0  0  0  0  0  0  0  0  0  0
    6.9040   -4.4130   26.6820 C   0  0  0  0  0  0  0  0  0  0  0  0
    7.1300   -5.3790   27.8340 C   0  0  0  0  0  0  0  0  0  0  0  0
    6.1280   -5.4540   28.7520 C   0  0  0  0  0  0  0  0  0  0  0  0
    6.3430   -6.4380   29.7780 N   0  0  0  0  0  0  0  0  0  0  0  0
    5.2970   -6.5320   30.7270 C   0  0  0  0  0  0  0  0  0  0  0  0
    4.2260   -5.7580   30.6600 N   0  0  0  0  0  0  0  0  0  0  0  0
    4.0650   -4.8610   29.7050 C   0  0  0  0  0  0  0  0  0  0  0  0
    2.8840   -4.2620   29.9410 N   0  0  0  0  0  0  0  0  0  0  0  0
    1.8280   -5.2350   29.6630 C   0  0  0  0  0  0  0  0  0  0  0  0
    0.7320   -4.4470   29.4020 C   0  0  0  0  0  0  0  0  0  0  0  0
    0.8080   -3.2330   29.8270 O   0  0  0  0  0  0  0  0  0  0  0  0
    1.7000   -2.3880   30.5110 C   0  0  0  0  0  0  0  0  0  0  0  0
    2.7920   -3.2060   30.8130 C   0  0  0  0  0  0  0  0  0  0  0  0
    5.0080   -4.6560   28.6830 C   0  0  0  0  0  0  0  0  0  0  0  0
    4.8210   -3.7250   27.6740 C   0  0  0  0  0  0  0  0  0  0  0  0
    5.9640   -5.3460   23.7590 C   0  0  0  0  0  0  0  0  0  0  0  0
    6.5200   -5.6250   22.3910 C   0  0  0  0  0  0  0  0  0  0  0  0
  1  2  1  0
  2  3  2  0
  2  4  1  0
  4  5  1  0
  5  6  1  0
  6  7  1  0
  7  8  1  0
  8  9  2  0
  8 10  1  0
 10 11  1  0
 11 12  1  0
 12 13  1  0
 13 14  2  0
 14 15  1  0
 15 16  2  0
 16 17  1  0
 17 18  1  0
 18 19  1  0
 19 20  1  0
 20 21  1  0
 21 22  1  0
 18 23  1  0
 22 23  1  0
 13 24  1  0
 17 24  2  0
 10 25  1  0
 24 25  1  0
  7 26  1  0
  4 27  1  0
 26 27  1  0
M  END
