piperidine-amides-14392-covalent
     RDKit          3D

 23 25  0  0  0  0  0  0  0  0999 V2000
    7.0840   -3.2950   19.2540 C   0  0  0  0  0  0  0  0  0  0  0  0
    6.3830   -4.0870   20.2630 C   0  0  0  0  0  0  0  0  0  0  0  0
    5.3310   -4.6610   19.9300 O   0  0  0  0  0  0  0  0  0  0  0  0
    6.9320   -4.2320   21.5660 N   0  0  0  0  0  0  0  0  0  0  0  0
    7.6960   -3.1440   22.1330 C   0  0  0  0  0  0  0  0  0  0  0  0
    7.4580   -3.0710   23.6170 C   0  0  0  0  0  0  0  0  0  0  0  0
    6.0790   -3.6420   23.8310 C   0  0  0  0  0  0  0  0  0  0  0  0
    5.4920   -3.2970   25.1660 C   0  0  0  0  0  0  0  0  0  0  0  0
    4.2690   -3.3550   25.2250 O   0  0  0  0  0  0  0  0  0  0  0  0
    6.2950   -2.9400   26.2400 N   0  0  0  0  0  0  0  0  0  0  0  0
    5.6530   -2.6310   27.4720 C   0  0  1  0  0  0  0  0  0  0  0  0
    6.2470   -3.0200   28.6350 C   0  0  0  0  0  0  0  0  0  0  0  0
    6.6880   -1.8990   29.2150 C   0  0  2  0  0  0  0  0  0  0  0  0
    5.9680   -1.5710   30.3470 O   0  0  0  0  0  0  0  0  0  0  0  0
    5.8900   -0.5160   31.1600 C   0  0  0  0  0  0  0  0  0  0  0  0
    7.1960    0.0610   31.6360 C   0  0  0  0  0  0  0  0  0  0  0  0
    7.2230    1.2890   32.5880 C   0  0  0  0  0  0  0  0  0  0  0  0
    5.9150    1.8640   33.0030 C   0  0  0  0  0  0  0  0  0  0  0  0
    4.6460    1.2480   32.5000 C   0  0  0  0  0  0  0  0  0  0  0  0
    4.6770    0.0330   31.5590 C   0  0  0  0  0  0  0  0  0  0  0  0
    6.0910   -1.2380   27.9620 C   0  0  0  0  0  0  0  0  0  0  0  0
    6.2020   -5.1260   23.7010 C   0  0  0  0  0  0  0  0  0  0  0  0
    6.5900   -5.4370   22.2810 C   0  0  0  0  0  0  0  0  0  0  0  0
  1  2  1  0
  2  3  2  0
  2  4  1  0
  4  5  1  0
  5  6  1  0
  6  7  1  0
  7  8  1  0
  8  9  2  0
  8 10  1  0
 11 10  1  6
 11 12  1  0
 12 13  1  0
 13 14  1  1
 14 15  1  0
 15 16  2  0
 16 17  1  0
 17 18  2  0
 18 19  1  0
 15 20  1  0
 19 20  2  0
 11 21  1  0
 13 21  1  0
  7 22  1  0
  4 23  1  0
 22 23  1  0
M  END
