piperidine-amides-8688-covalent
     RDKit          3D

 23 23  0  0  0  0  0  0  0  0999 V2000
    7.1120   -3.2790   19.2020 C   0  0  0  0  0  0  0  0  0  0  0  0
    6.3960   -4.0510   20.2170 C   0  0  0  0  0  0  0  0  0  0  0  0
    5.3160   -4.5790   19.8980 O   0  0  0  0  0  0  0  0  0  0  0  0
    6.9580   -4.2330   21.5050 N   0  0  0  0  0  0  0  0  0  0  0  0
    6.4290   -5.2780   22.3170 C   0  0  0  0  0  0  0  0  0  0  0  0
    5.5140   -4.6660   23.3430 C   0  0  0  0  0  0  0  0  0  0  0  0
    6.3470   -3.7540   24.2340 C   0  0  0  0  0  0  0  0  0  0  0  0
    5.4650   -3.1470   25.2840 C   0  0  0  0  0  0  0  0  0  0  0  0
    4.2550   -3.2680   25.1180 O   0  0  0  0  0  0  0  0  0  0  0  0
    6.0600   -2.4950   26.3630 N   0  0  0  0  0  0  0  0  0  0  0  0
    6.3770   -3.1910   27.5580 C   0  0  1  0  0  0  0  0  0  0  0  0
    5.7730   -4.4440   27.7040 C   0  0  0  0  0  0  0  0  0  0  0  0
    7.7940   -3.4540   27.3980 C   0  0  0  0  0  0  0  0  0  0  0  0
    8.6250   -2.9920   28.3900 O   0  0  0  0  0  0  0  0  0  0  0  0
    8.3010   -4.1170   26.2600 N   0  0  0  0  0  0  0  0  0  0  0  0
    8.2470   -5.5190   26.3430 C   0  0  1  0  0  0  0  0  0  0  0  0
    9.5830   -6.0620   26.0720 C   0  0  0  0  0  0  0  0  0  0  0  0
    7.7710   -5.8070   27.5850 C   0  0  0  0  0  0  0  0  0  0  0  0
    6.6690   -6.4390   27.9070 O   0  0  0  0  0  0  0  0  0  0  0  0
    8.6470   -5.3540   28.5290 O   0  0  0  0  0  0  0  0  0  0  0  0
    9.8890   -5.0460   27.9440 C   0  0  0  0  0  0  0  0  0  0  0  0
    7.0730   -2.7140   23.4520 C   0  0  0  0  0  0  0  0  0  0  0  0
    7.6550   -3.1160   22.0870 C   0  0  0  0  0  0  0  0  0  0  0  0
  1  2  1  0
  2  3  2  0
  2  4  1  0
  4  5  1  0
  5  6  1  0
  6  7  1  0
  7  8  1  0
  8  9  2  0
  8 10  1  0
 10 11  1  0
 11 12  1  6
 11 13  1  0
 13 14  2  0
 13 15  1  0
 15 16  1  0
 16 17  1  1
 16 18  1  0
 18 19  2  0
 18 20  1  0
 20 21  1  0
  7 22  1  0
  4 23  1  0
 22 23  1  0
M  END
