piperidine-amides-2370-covalent
     RDKit          3D

 27 29  0  0  0  0  0  0  0  0999 V2000
    7.0080   -3.3420   19.3440 C   0  0  0  0  0  0  0  0  0  0  0  0
    6.3580   -4.1900   20.3780 C   0  0  0  0  0  0  0  0  0  0  0  0
    5.4190   -4.8900   19.9950 O   0  0  0  0  0  0  0  0  0  0  0  0
    6.8310   -4.2050   21.7040 N   0  0  0  0  0  0  0  0  0  0  0  0
    7.7280   -3.1880   22.2150 C   0  0  0  0  0  0  0  0  0  0  0  0
    7.4370   -2.9600   23.6700 C   0  0  0  0  0  0  0  0  0  0  0  0
    6.0650   -3.5500   23.9530 C   0  0  0  0  0  0  0  0  0  0  0  0
    5.5980   -3.2490   25.3350 C   0  0  0  0  0  0  0  0  0  0  0  0
    4.4090   -3.4490   25.5980 O   0  0  0  0  0  0  0  0  0  0  0  0
    6.4520   -2.7430   26.3450 N   0  0  0  0  0  0  0  0  0  0  0  0
    6.0200   -1.6060   27.1610 C   0  0  0  0  0  0  0  0  0  0  0  0
    4.8690   -2.1390   28.0050 C   0  0  0  0  0  0  0  0  0  0  0  0
    5.2180   -2.6870   29.2250 O   0  0  0  0  0  0  0  0  0  0  0  0
    3.5050   -2.0250   27.4430 N   0  0  0  0  0  0  0  0  0  0  0  0
    2.6300   -2.3380   28.5810 C   0  0  0  0  0  0  0  0  0  0  0  0
    1.3820   -2.2130   28.0690 C   0  0  0  0  0  0  0  0  0  0  0  0
    0.2380   -2.9140   28.2580 C   0  0  0  0  0  0  0  0  0  0  0  0
   -0.9980   -2.4920   27.5140 C   0  0  0  0  0  0  0  0  0  0  0  0
   -0.5620   -1.3050   26.7040 C   0  0  0  0  0  0  0  0  0  0  0  0
    1.0950   -0.9460   26.9570 S   0  0  0  0  0  0  0  0  0  0  0  0
    7.1110   -1.4970   28.2540 C   0  0  0  0  0  0  0  0  0  0  0  0
    6.8720   -0.5150   29.3380 C   0  0  0  0  0  0  0  0  0  0  0  0
    6.1180    0.5670   28.7110 C   0  0  0  0  0  0  0  0  0  0  0  0
    5.2040    0.0460   27.6300 C   0  0  0  0  0  0  0  0  0  0  0  0
    5.8460   -0.3380   26.3310 C   0  0  0  0  0  0  0  0  0  0  0  0
    6.0630   -5.0600   23.7320 C   0  0  0  0  0  0  0  0  0  0  0  0
    6.6600   -5.3980   22.5230 C   0  0  0  0  0  0  0  0  0  0  0  0
  1  2  1  0
  2  3  2  0
  2  4  1  0
  4  5  1  0
  5  6  1  0
  6  7  1  0
  7  8  1  0
  8  9  2  0
  8 10  1  0
 10 11  1  0
 11 12  1  0
 12 13  2  0
 12 14  1  0
 14 15  1  0
 15 16  1  0
 16 17  2  0
 17 18  1  0
 18 19  2  0
 16 20  1  0
 19 20  1  0
 11 21  1  0
 21 22  1  0
 22 23  1  0
 23 24  1  0
 11 25  1  0
 24 25  1  0
  7 26  1  0
  4 27  1  0
 26 27  1  0
M  END
