piperidine-amides-24200-covalent
     RDKit          3D

 23 25  0  0  0  0  0  0  0  0999 V2000
    7.0570   -3.3480   19.3550 C   0  0  0  0  0  0  0  0  0  0  0  0
    6.4030   -4.2150   20.3490 C   0  0  0  0  0  0  0  0  0  0  0  0
    5.4100   -4.8970   20.0000 O   0  0  0  0  0  0  0  0  0  0  0  0
    6.8930   -4.3330   21.6680 N   0  0  0  0  0  0  0  0  0  0  0  0
    6.6650   -5.5440   22.4140 C   0  0  0  0  0  0  0  0  0  0  0  0
    6.6590   -5.0860   23.8760 C   0  0  0  0  0  0  0  0  0  0  0  0
    6.0520   -3.7040   23.8270 C   0  0  0  0  0  0  0  0  0  0  0  0
    5.5840   -3.2090   25.1370 C   0  0  0  0  0  0  0  0  0  0  0  0
    4.5550   -2.5060   25.1420 O   0  0  0  0  0  0  0  0  0  0  0  0
    6.2290   -3.5140   26.3500 N   0  0  0  0  0  0  0  0  0  0  0  0
    5.6430   -2.9480   27.5480 C   0  0  0  0  0  0  0  0  0  0  0  0
    5.1280   -4.1210   28.3930 C   0  0  0  0  0  0  0  0  0  0  0  0
    5.7600   -5.6950   28.2270 S   0  0  0  0  0  0  0  0  0  0  0  0
    7.3210   -5.1440   27.7080 C   0  0  0  0  0  0  0  0  0  0  0  0
    7.6620   -6.1170   28.5350 C   0  0  0  0  0  0  0  0  0  0  0  0
    6.5170   -6.7710   29.0430 C   0  0  0  0  0  0  0  0  0  0  0  0
    5.2520   -6.3770   28.6520 C   0  0  0  0  0  0  0  0  0  0  0  0
    3.7330   -6.6070   28.7600 C   0  0  0  0  0  0  0  0  0  0  0  0
    3.2580   -7.6580   29.2220 O   0  0  0  0  0  0  0  0  0  0  0  0
    4.9210   -5.2500   27.7080 C   0  0  0  0  0  0  0  0  0  0  0  0
    6.2140   -4.6030   27.2310 C   0  0  0  0  0  0  0  0  0  0  0  0
    6.9670   -2.6800   23.2060 C   0  0  0  0  0  0  0  0  0  0  0  0
    7.7720   -3.3440   22.2720 C   0  0  0  0  0  0  0  0  0  0  0  0
  1  2  1  0
  2  3  2  0
  2  4  1  0
  4  5  1  0
  5  6  1  0
  6  7  1  0
  7  8  1  0
  8  9  2  0
  8 10  1  0
 10 11  1  0
 11 12  1  0
 12 13  1  0
 13 14  1  0
 14 15  2  0
 15 16  1  0
 16 17  2  0
 17 18  1  0
 18 19  1  0
 17 20  1  0
 10 21  1  0
 14 21  1  0
 20 21  2  0
  7 22  1  0
  4 23  1  0
 22 23  1  0
M  END
