piperidine-amides-25346-covalent
     RDKit          3D

 25 27  0  0  0  0  0  0  0  0999 V2000
    7.0670   -3.3500   19.3680 C   0  0  0  0  0  0  0  0  0  0  0  0
    6.3490   -4.1960   20.3490 C   0  0  0  0  0  0  0  0  0  0  0  0
    5.3300   -4.7590   19.9560 O   0  0  0  0  0  0  0  0  0  0  0  0
    6.8700   -4.3620   21.6370 N   0  0  0  0  0  0  0  0  0  0  0  0
    6.5560   -5.5080   22.4450 C   0  0  0  0  0  0  0  0  0  0  0  0
    5.8290   -5.0490   23.6800 C   0  0  0  0  0  0  0  0  0  0  0  0
    6.6100   -3.9460   24.4050 C   0  0  0  0  0  0  0  0  0  0  0  0
    5.7950   -3.5070   25.5670 C   0  0  0  0  0  0  0  0  0  0  0  0
    4.5610   -3.3530   25.4550 O   0  0  0  0  0  0  0  0  0  0  0  0
    6.3830   -3.2570   26.8200 N   0  0  0  0  0  0  0  0  0  0  0  0
    6.7890   -4.4110   27.6050 C   0  0  0  0  0  0  0  0  0  0  0  0
    5.6050   -5.2720   27.9270 C   0  0  0  0  0  0  0  0  0  0  0  0
    5.6630   -6.3630   28.7620 C   0  0  0  0  0  0  0  0  0  0  0  0
    5.4330   -6.5840   27.4230 C   0  0  0  0  0  0  0  0  0  0  0  0
    6.3050   -2.0570   27.5800 C   0  0  0  0  0  0  0  0  0  0  0  0
    5.5080   -2.1920   28.6680 N   0  0  0  0  0  0  0  0  0  0  0  0
    5.5540   -0.8870   29.3000 C   0  0  0  0  0  0  0  0  0  0  0  0
    4.8520   -0.4530   30.5560 C   0  0  0  0  0  0  0  0  0  0  0  0
    5.0620    0.9940   31.0270 C   0  0  0  0  0  0  0  0  0  0  0  0
    5.9580    1.8820   30.1940 C   0  0  0  0  0  0  0  0  0  0  0  0
    6.6170    1.3870   28.9680 C   0  0  0  0  0  0  0  0  0  0  0  0
    6.4000   -0.0240   28.5310 C   0  0  0  0  0  0  0  0  0  0  0  0
    6.8170   -0.7670   27.5330 N   0  0  0  0  0  0  0  0  0  0  0  0
    6.8470   -2.7840   23.4590 C   0  0  0  0  0  0  0  0  0  0  0  0
    7.6280   -3.3130   22.2890 C   0  0  0  0  0  0  0  0  0  0  0  0
  1  2  1  0
  2  3  2  0
  2  4  1  0
  4  5  1  0
  5  6  1  0
  6  7  1  0
  7  8  1  0
  8  9  2  0
  8 10  1  0
 10 11  1  0
 11 12  1  0
 12 13  1  0
 12 14  1  0
 10 15  1  0
 15 16  2  0
 16 17  1  0
 17 18  2  0
 18 19  1  0
 19 20  2  0
 20 21  1  0
 17 22  1  0
 21 22  2  0
 15 23  1  0
 22 23  1  0
  7 24  1  0
  4 25  1  0
 24 25  1  0
M  END
