piperidine-amides-8475-covalent
     RDKit          3D

 24 26  0  0  0  0  0  0  0  0999 V2000
    7.1690   -3.2610   19.1590 C   0  0  0  0  0  0  0  0  0  0  0  0
    6.4290   -4.0010   20.1750 C   0  0  0  0  0  0  0  0  0  0  0  0
    5.3290   -4.4970   19.8730 O   0  0  0  0  0  0  0  0  0  0  0  0
    7.0110   -4.1870   21.4470 N   0  0  0  0  0  0  0  0  0  0  0  0
    6.5770   -5.3080   22.2200 C   0  0  0  0  0  0  0  0  0  0  0  0
    5.7060   -4.7860   23.3170 C   0  0  0  0  0  0  0  0  0  0  0  0
    6.5250   -3.7750   24.0870 C   0  0  0  0  0  0  0  0  0  0  0  0
    5.7290   -3.2670   25.2340 C   0  0  0  0  0  0  0  0  0  0  0  0
    4.9320   -2.3600   25.0110 O   0  0  0  0  0  0  0  0  0  0  0  0
    5.9410   -3.8750   26.4530 N   0  0  0  0  0  0  0  0  0  0  0  0
    6.1800   -5.2770   26.5290 C   0  0  0  0  0  0  0  0  0  0  0  0
    5.0160   -6.0900   26.5290 C   0  0  0  0  0  0  0  0  0  0  0  0
    4.5550   -6.6330   25.3420 C   0  0  0  0  0  0  0  0  0  0  0  0
    3.4390   -7.4490   25.2000 C   0  0  0  0  0  0  0  0  0  0  0  0
    2.6700   -7.7670   26.4430 C   0  0  0  0  0  0  0  0  0  0  0  0
    3.1430   -7.1830   27.7870 C   0  0  0  0  0  0  0  0  0  0  0  0
    4.3500   -6.3400   27.7160 C   0  0  0  0  0  0  0  0  0  0  0  0
    4.9050   -5.7320   28.8860 N   0  0  0  0  0  0  0  0  0  0  0  0
    4.7730   -4.3040   28.9050 C   0  0  0  0  0  0  0  0  0  0  0  0
    6.1790   -3.7300   28.8710 C   0  0  0  0  0  0  0  0  0  0  0  0
    6.9860   -4.8330   28.7380 C   0  0  0  0  0  0  0  0  0  0  0  0
    6.3000   -5.9890   29.1050 C   0  0  0  0  0  0  0  0  0  0  0  0
    6.9360   -2.6150   23.2480 C   0  0  0  0  0  0  0  0  0  0  0  0
    7.7270   -3.1230   22.0890 C   0  0  0  0  0  0  0  0  0  0  0  0
  1  2  1  0
  2  3  2  0
  2  4  1  0
  4  5  1  0
  5  6  1  0
  6  7  1  0
  7  8  1  0
  8  9  2  0
  8 10  1  0
 10 11  1  0
 11 12  1  0
 12 13  2  0
 13 14  1  0
 14 15  2  0
 15 16  1  0
 12 17  1  0
 16 17  2  0
 17 18  1  0
 18 19  1  0
 19 20  1  0
 20 21  1  0
 18 22  1  0
 21 22  1  0
  7 23  1  0
  4 24  1  0
 23 24  1  0
M  END
