piperidine-amides-24919-covalent
     RDKit          3D

 23 24  0  0  0  0  0  0  0  0999 V2000
    7.1160   -3.3000   19.2520 C   0  0  0  0  0  0  0  0  0  0  0  0
    6.3440   -4.0430   20.2560 C   0  0  0  0  0  0  0  0  0  0  0  0
    5.2920   -4.6280   19.9170 O   0  0  0  0  0  0  0  0  0  0  0  0
    6.8030   -4.1510   21.5750 N   0  0  0  0  0  0  0  0  0  0  0  0
    7.6600   -3.1280   22.1380 C   0  0  0  0  0  0  0  0  0  0  0  0
    6.9000   -2.5510   23.3310 C   0  0  0  0  0  0  0  0  0  0  0  0
    6.5200   -3.7340   24.1860 C   0  0  0  0  0  0  0  0  0  0  0  0
    5.7980   -3.2970   25.4050 C   0  0  0  0  0  0  0  0  0  0  0  0
    4.5510   -3.2460   25.3430 O   0  0  0  0  0  0  0  0  0  0  0  0
    6.4930   -2.9470   26.5980 N   0  0  0  0  0  0  0  0  0  0  0  0
    6.4290   -3.8430   27.7250 C   0  0  0  0  0  0  0  0  0  0  0  0
    6.6660   -1.5360   26.8960 C   0  0  0  0  0  0  0  0  0  0  0  0
    5.7760   -1.2290   27.8910 C   0  0  0  0  0  0  0  0  0  0  0  0
    4.4790   -1.5640   27.8580 C   0  0  0  0  0  0  0  0  0  0  0  0
    3.6830   -1.2120   28.9010 C   0  0  0  0  0  0  0  0  0  0  0  0
    1.9710   -1.6310   28.9000 Cl  0  0  0  0  0  0  0  0  0  0  0  0
    4.2240   -0.5250   29.9600 C   0  0  0  0  0  0  0  0  0  0  0  0
    5.6530   -0.0260   30.2420 C   0  0  0  0  0  0  0  0  0  0  0  0
    6.3210   -0.5370   28.9540 C   0  0  0  0  0  0  0  0  0  0  0  0
    7.5180   -0.1630   29.1120 O   0  0  0  0  0  0  0  0  0  0  0  0
    8.1470   -0.9700   30.0640 C   0  0  0  0  0  0  0  0  0  0  0  0
    5.6520   -4.7040   23.4120 C   0  0  0  0  0  0  0  0  0  0  0  0
    6.4460   -5.2740   22.4060 C   0  0  0  0  0  0  0  0  0  0  0  0
  1  2  1  0
  2  3  2  0
  2  4  1  0
  4  5  1  0
  5  6  1  0
  6  7  1  0
  7  8  1  0
  8  9  2  0
  8 10  1  0
 10 11  1  0
 10 12  1  0
 12 13  1  0
 13 14  2  0
 14 15  1  0
 15 16  1  0
 15 17  2  0
 17 18  1  0
 13 19  1  0
 18 19  2  0
 19 20  1  0
 20 21  1  0
  7 22  1  0
  4 23  1  0
 22 23  1  0
M  END
