piperidine-amides-14877-covalent
     RDKit          3D

 21 22  0  0  0  0  0  0  0  0999 V2000
    7.1050   -3.2740   19.2260 C   0  0  0  0  0  0  0  0  0  0  0  0
    6.3800   -4.0430   20.2400 C   0  0  0  0  0  0  0  0  0  0  0  0
    5.3110   -4.5830   19.9020 O   0  0  0  0  0  0  0  0  0  0  0  0
    6.9120   -4.2070   21.5460 N   0  0  0  0  0  0  0  0  0  0  0  0
    6.4460   -5.3320   22.3240 C   0  0  0  0  0  0  0  0  0  0  0  0
    6.2540   -4.9990   23.7960 C   0  0  0  0  0  0  0  0  0  0  0  0
    6.1150   -3.4970   23.9720 C   0  0  0  0  0  0  0  0  0  0  0  0
    5.6590   -3.1140   25.3470 C   0  0  0  0  0  0  0  0  0  0  0  0
    4.4650   -2.8560   25.4590 O   0  0  0  0  0  0  0  0  0  0  0  0
    6.5910   -3.0530   26.3750 N   0  0  0  0  0  0  0  0  0  0  0  0
    6.3440   -3.5920   27.6790 C   0  0  0  0  0  0  0  0  0  0  0  0
    5.0520   -4.0480   27.8820 C   0  0  0  0  0  0  0  0  0  0  0  0
    4.6770   -5.3210   27.5710 C   0  0  0  0  0  0  0  0  0  0  0  0
    3.7350   -5.8990   26.7820 C   0  0  0  0  0  0  0  0  0  0  0  0
    2.9550   -4.8080   26.1140 C   0  0  0  0  0  0  0  0  0  0  0  0
    3.7270   -7.2890   26.7920 N   0  0  0  0  0  0  0  0  0  0  0  0
    4.6590   -7.6350   27.5800 O   0  0  0  0  0  0  0  0  0  0  0  0
    5.3400   -6.5250   28.1390 C   0  0  0  0  0  0  0  0  0  0  0  0
    6.4740   -6.5320   29.0930 C   0  0  0  0  0  0  0  0  0  0  0  0
    7.3590   -2.8390   23.5460 C   0  0  0  0  0  0  0  0  0  0  0  0
    7.7300   -3.1540   22.1010 C   0  0  0  0  0  0  0  0  0  0  0  0
  1  2  1  0
  2  3  2  0
  2  4  1  0
  4  5  1  0
  5  6  1  0
  6  7  1  0
  7  8  1  0
  8  9  2  0
  8 10  1  0
 10 11  1  0
 11 12  1  0
 12 13  1  0
 13 14  1  0
 14 15  1  0
 14 16  2  0
 16 17  1  0
 13 18  2  0
 17 18  1  0
 18 19  1  0
  7 20  1  0
  4 21  1  0
 20 21  1  0
M  END
