piperidine-amides-14990-covalent
     RDKit          3D

 21 22  0  0  0  0  0  0  0  0999 V2000
    7.0750   -3.2800   19.2540 C   0  0  0  0  0  0  0  0  0  0  0  0
    6.3550   -4.0560   20.2610 C   0  0  0  0  0  0  0  0  0  0  0  0
    5.3100   -4.6330   19.9180 O   0  0  0  0  0  0  0  0  0  0  0  0
    6.8780   -4.1780   21.5740 N   0  0  0  0  0  0  0  0  0  0  0  0
    7.6430   -3.1160   22.1620 C   0  0  0  0  0  0  0  0  0  0  0  0
    6.9010   -2.5570   23.3380 C   0  0  0  0  0  0  0  0  0  0  0  0
    6.5690   -3.7400   24.2070 C   0  0  0  0  0  0  0  0  0  0  0  0
    5.7090   -3.3110   25.3680 C   0  0  0  0  0  0  0  0  0  0  0  0
    4.4970   -3.4540   25.2200 O   0  0  0  0  0  0  0  0  0  0  0  0
    6.3110   -2.7770   26.5140 N   0  0  0  0  0  0  0  0  0  0  0  0
    6.7000   -1.4070   26.5810 C   0  0  0  0  0  0  0  0  0  0  0  0
    6.3290   -0.6800   27.7380 C   0  0  2  0  0  0  0  0  0  0  0  0
    5.8140    0.5880   27.5250 C   0  0  0  0  0  0  0  0  0  0  0  0
    4.5420    0.8130   28.6590 S   0  0  0  0  0  0  0  0  0  0  0  0
    4.1680    2.2520   28.9140 O   0  0  0  0  0  0  0  0  0  0  0  0
    3.3210    0.0170   28.3260 O   0  0  0  0  0  0  0  0  0  0  0  0
    5.2960    0.1040   30.0550 C   0  0  0  0  0  0  0  0  0  0  0  0
    6.6330   -0.5430   29.9560 C   0  0  0  0  0  0  0  0  0  0  0  0
    7.2260   -0.4780   28.7010 O   0  0  0  0  0  0  0  0  0  0  0  0
    5.7870   -4.8180   23.5030 C   0  0  0  0  0  0  0  0  0  0  0  0
    6.4830   -5.3840   22.3160 C   0  0  0  0  0  0  0  0  0  0  0  0
  1  2  1  0
  2  3  2  0
  2  4  1  0
  4  5  1  0
  5  6  1  0
  6  7  1  0
  7  8  1  0
  8  9  2  0
  8 10  1  0
 10 11  1  0
 12 11  1  6
 12 13  1  0
 14 13  1  0
 14 15  2  0
 14 16  2  0
 14 17  1  0
 17 18  1  0
 12 19  1  0
 18 19  1  0
  7 20  1  0
  4 21  1  0
 20 21  1  0
M  END
