piperidine-amides-12046-covalent
     RDKit          3D

 25 27  0  0  0  0  0  0  0  0999 V2000
    7.1120   -3.3430   19.3190 C   0  0  0  0  0  0  0  0  0  0  0  0
    6.3780   -4.1380   20.2940 C   0  0  0  0  0  0  0  0  0  0  0  0
    5.3580   -4.7410   19.9600 O   0  0  0  0  0  0  0  0  0  0  0  0
    6.8900   -4.2570   21.6300 N   0  0  0  0  0  0  0  0  0  0  0  0
    6.5870   -5.4250   22.4220 C   0  0  0  0  0  0  0  0  0  0  0  0
    6.0490   -5.0570   23.7900 C   0  0  0  0  0  0  0  0  0  0  0  0
    6.1940   -3.5540   24.0360 C   0  0  0  0  0  0  0  0  0  0  0  0
    5.8730   -3.2190   25.4460 C   0  0  0  0  0  0  0  0  0  0  0  0
    5.8990   -4.0640   26.3440 O   0  0  0  0  0  0  0  0  0  0  0  0
    5.4870   -1.8890   25.7560 N   0  0  0  0  0  0  0  0  0  0  0  0
    6.2180   -1.0480   26.6920 C   0  0  1  0  0  0  0  0  0  0  0  0
    6.0250    0.3450   26.0580 C   0  0  0  0  0  0  0  0  0  0  0  0
    6.0900    1.1560   27.1010 C   0  0  0  0  0  0  0  0  0  0  0  0
    6.2570    0.0940   27.9010 C   0  0  0  0  0  0  0  0  0  0  0  0
    5.5110   -1.1320   27.7820 N   0  0  0  0  0  0  0  0  0  0  0  0
    5.9840   -2.0090   28.8100 C   0  0  0  0  0  0  0  0  0  0  0  0
    5.5420   -3.3720   29.1420 C   0  0  0  0  0  0  0  0  0  0  0  0
    6.5820   -4.2490   29.2050 F   0  0  0  0  0  0  0  0  0  0  0  0
    4.7070   -3.3650   30.2400 F   0  0  0  0  0  0  0  0  0  0  0  0
    4.7520   -3.7940   28.0840 F   0  0  0  0  0  0  0  0  0  0  0  0
    6.9760   -1.3780   29.5290 C   0  0  0  0  0  0  0  0  0  0  0  0
    6.9820   -0.2260   28.8780 N   0  0  0  0  0  0  0  0  0  0  0  0
    5.9830   -1.0700   28.1420 C   0  0  0  0  0  0  0  0  0  0  0  0
    7.4510   -2.9530   23.5550 C   0  0  0  0  0  0  0  0  0  0  0  0
    7.6960   -3.2050   22.1520 C   0  0  0  0  0  0  0  0  0  0  0  0
  1  2  1  0
  2  3  2  0
  2  4  1  0
  4  5  1  0
  5  6  1  0
  6  7  1  0
  7  8  1  0
  8  9  2  0
  8 10  1  0
 11 10  1  6
 11 12  1  0
 12 13  1  0
 13 14  1  0
 14 15  2  0
 15 16  1  0
 16 17  1  0
 17 18  1  0
 17 19  1  0
 17 20  1  0
 16 21  2  0
 14 22  1  0
 21 22  1  0
 11 23  1  0
 22 23  1  0
  7 24  1  0
  4 25  1  0
 24 25  1  0
M  END
