piperidine-amides-7287-covalent
     RDKit          3D

 20 21  0  0  0  0  0  0  0  0999 V2000
    7.1340   -3.2880   19.2380 C   0  0  0  0  0  0  0  0  0  0  0  0
    6.3400   -4.0190   20.2290 C   0  0  0  0  0  0  0  0  0  0  0  0
    5.2350   -4.4760   19.8480 O   0  0  0  0  0  0  0  0  0  0  0  0
    6.8430   -4.2280   21.5040 N   0  0  0  0  0  0  0  0  0  0  0  0
    6.4850   -5.3840   22.2930 C   0  0  0  0  0  0  0  0  0  0  0  0
    5.7480   -4.8980   23.5110 C   0  0  0  0  0  0  0  0  0  0  0  0
    5.8570   -3.4010   23.6730 C   0  0  0  0  0  0  0  0  0  0  0  0
    5.5170   -2.9750   25.0360 C   0  0  0  0  0  0  0  0  0  0  0  0
    4.3240   -3.0050   25.4120 O   0  0  0  0  0  0  0  0  0  0  0  0
    6.5100   -2.5520   25.9240 N   0  0  0  0  0  0  0  0  0  0  0  0
    7.3710   -3.5600   26.4240 C   0  0  0  0  0  0  0  0  0  0  0  0
    8.8160   -3.4760   25.9490 C   0  0  0  0  0  0  0  0  0  0  0  0
    9.5590   -2.3020   24.8230 S   0  0  0  0  0  0  0  0  0  0  0  0
   11.1230   -3.0950   25.0260 C   0  0  0  0  0  0  0  0  0  0  0  0
   12.2110   -2.5880   24.3450 C   0  0  0  0  0  0  0  0  0  0  0  0
   11.0820   -4.1530   25.8640 C   0  0  0  0  0  0  0  0  0  0  0  0
    9.8030   -4.3470   26.3600 C   0  0  0  0  0  0  0  0  0  0  0  0
    9.1660   -5.6600   27.5650 Br  0  0  0  0  0  0  0  0  0  0  0  0
    7.2800   -2.9030   23.4900 C   0  0  0  0  0  0  0  0  0  0  0  0
    7.6370   -3.1350   22.0580 C   0  0  0  0  0  0  0  0  0  0  0  0
  1  2  1  0
  2  3  2  0
  2  4  1  0
  4  5  1  0
  5  6  1  0
  6  7  1  0
  7  8  1  0
  8  9  2  0
  8 10  1  0
 10 11  1  0
 11 12  1  0
 12 13  1  0
 13 14  1  0
 14 15  1  0
 14 16  2  0
 12 17  2  0
 16 17  1  0
 17 18  1  0
  7 19  1  0
  4 20  1  0
 19 20  1  0
M  END
