piperidine-amides-23960-covalent
     RDKit          3D

 24 26  0  0  0  0  0  0  0  0999 V2000
    7.0800   -3.3720   19.3810 C   0  0  0  0  0  0  0  0  0  0  0  0
    6.4420   -4.2420   20.3800 C   0  0  0  0  0  0  0  0  0  0  0  0
    5.4050   -4.8410   19.9970 O   0  0  0  0  0  0  0  0  0  0  0  0
    7.0100   -4.4470   21.6760 N   0  0  0  0  0  0  0  0  0  0  0  0
    6.5000   -5.4740   22.4930 C   0  0  0  0  0  0  0  0  0  0  0  0
    6.1190   -5.0710   23.8580 C   0  0  0  0  0  0  0  0  0  0  0  0
    6.4310   -3.6890   24.3600 C   0  0  0  0  0  0  0  0  0  0  0  0
    5.2890   -3.1780   25.2210 C   0  0  0  0  0  0  0  0  0  0  0  0
    4.1590   -3.1410   24.7130 O   0  0  0  0  0  0  0  0  0  0  0  0
    5.4000   -2.7400   26.5720 N   0  0  0  0  0  0  0  0  0  0  0  0
    4.3230   -2.4750   27.4350 C   0  0  0  0  0  0  0  0  0  0  0  0
    4.2050   -3.2970   28.6180 C   0  0  0  0  0  0  0  0  0  0  0  0
    5.0860   -4.2320   28.8470 N   0  0  0  0  0  0  0  0  0  0  0  0
    4.7290   -5.5730   29.1180 C   0  0  0  0  0  0  0  0  0  0  0  0
    5.5670   -6.6670   28.8590 C   0  0  0  0  0  0  0  0  0  0  0  0
    4.7380   -7.8610   29.3160 C   0  0  0  0  0  0  0  0  0  0  0  0
    3.5310   -7.1770   29.7690 C   0  0  0  0  0  0  0  0  0  0  0  0
    2.5140   -8.1950   30.2930 C   0  0  0  0  0  0  0  0  0  0  0  0
    3.4790   -5.8220   29.6710 O   0  0  0  0  0  0  0  0  0  0  0  0
    6.3590   -3.9760   28.3880 C   0  0  0  0  0  0  0  0  0  0  0  0
    7.3780   -4.6360   28.9470 O   0  0  0  0  0  0  0  0  0  0  0  0
    6.5740   -2.9410   27.2770 C   0  0  0  0  0  0  0  0  0  0  0  0
    6.7250   -2.6730   23.2450 C   0  0  0  0  0  0  0  0  0  0  0  0
    7.6850   -3.3060   22.3070 C   0  0  0  0  0  0  0  0  0  0  0  0
  1  2  1  0
  2  3  2  0
  2  4  1  0
  4  5  1  0
  5  6  1  0
  6  7  1  0
  7  8  1  0
  8  9  2  0
  8 10  1  0
 10 11  1  0
 11 12  1  0
 12 13  1  0
 13 14  1  0
 14 15  2  0
 15 16  1  0
 16 17  2  0
 17 18  1  0
 14 19  1  0
 17 19  1  0
 13 20  1  0
 20 21  2  0
 10 22  1  0
 20 22  1  0
  7 23  1  0
  4 24  1  0
 23 24  1  0
M  END
