piperidine-amides-30304-covalent
     RDKit          3D

 27 29  0  0  0  0  0  0  0  0999 V2000
    7.0440   -3.3710   19.3180 C   0  0  0  0  0  0  0  0  0  0  0  0
    6.3860   -4.2140   20.3120 C   0  0  0  0  0  0  0  0  0  0  0  0
    5.3940   -4.8640   19.9860 O   0  0  0  0  0  0  0  0  0  0  0  0
    6.9250   -4.3320   21.6430 N   0  0  0  0  0  0  0  0  0  0  0  0
    7.7040   -3.2440   22.2080 C   0  0  0  0  0  0  0  0  0  0  0  0
    7.4420   -3.1060   23.6810 C   0  0  0  0  0  0  0  0  0  0  0  0
    6.1060   -3.7740   23.9400 C   0  0  0  0  0  0  0  0  0  0  0  0
    5.4970   -3.4120   25.2540 C   0  0  0  0  0  0  0  0  0  0  0  0
    4.4800   -2.7060   25.3060 O   0  0  0  0  0  0  0  0  0  0  0  0
    6.0340   -3.8540   26.4850 N   0  0  0  0  0  0  0  0  0  0  0  0
    6.4620   -2.8070   27.3410 C   0  0  0  0  0  0  0  0  0  0  0  0
    6.7940   -3.4880   28.6440 C   0  0  0  0  0  0  0  0  0  0  0  0
    5.7460   -4.1100   29.2050 C   0  0  0  0  0  0  0  0  0  0  0  0
    4.8330   -3.2080   29.7920 C   0  0  0  0  0  0  0  0  0  0  0  0
    4.9020   -1.8660   29.7190 C   0  0  0  0  0  0  0  0  0  0  0  0
    3.8320   -1.2640   30.4260 N   0  0  0  0  0  0  0  0  0  0  0  0
    3.1160   -2.3020   30.9260 N   0  0  0  0  0  0  0  0  0  0  0  0
    3.7380   -3.5370   30.5360 C   0  0  0  0  0  0  0  0  0  0  0  0
    3.3590   -4.8290   30.8300 C   0  0  0  0  0  0  0  0  0  0  0  0
    4.0830   -5.8900   30.5840 O   0  0  0  0  0  0  0  0  0  0  0  0
    2.1350   -5.0550   31.4480 O   0  0  0  0  0  0  0  0  0  0  0  0
    2.0480   -4.9860   32.8540 C   0  0  0  0  0  0  0  0  0  0  0  0
    2.4890   -3.7230   33.2390 C   0  0  0  0  0  0  0  0  0  0  0  0
    4.9910   -4.8210   28.3520 C   0  0  0  0  0  0  0  0  0  0  0  0
    5.4830   -5.0240   27.0670 C   0  0  0  0  0  0  0  0  0  0  0  0
    6.2190   -5.2560   23.7540 C   0  0  0  0  0  0  0  0  0  0  0  0
    6.6680   -5.5360   22.3620 C   0  0  0  0  0  0  0  0  0  0  0  0
  1  2  1  0
  2  3  2  0
  2  4  1  0
  4  5  1  0
  5  6  1  0
  6  7  1  0
  7  8  1  0
  8  9  2  0
  8 10  1  0
 10 11  1  0
 11 12  1  0
 12 13  1  0
 13 14  1  0
 14 15  2  0
 15 16  1  0
 16 17  1  0
 14 18  1  0
 17 18  2  0
 18 19  1  0
 19 20  2  0
 19 21  1  0
 21 22  1  0
 22 23  1  0
 13 24  1  0
 10 25  1  0
 24 25  1  0
  7 26  1  0
  4 27  1  0
 26 27  1  0
M  END
