piperidine-amides-10685-covalent
     RDKit          3D

 23 24  0  0  0  0  0  0  0  0999 V2000
    7.1420   -3.2850   19.1980 C   0  0  0  0  0  0  0  0  0  0  0  0
    6.3640   -3.9950   20.2130 C   0  0  0  0  0  0  0  0  0  0  0  0
    5.2620   -4.4820   19.8540 O   0  0  0  0  0  0  0  0  0  0  0  0
    6.8800   -4.1480   21.4960 N   0  0  0  0  0  0  0  0  0  0  0  0
    7.7320   -3.1360   22.0750 C   0  0  0  0  0  0  0  0  0  0  0  0
    7.0950   -2.6760   23.3430 C   0  0  0  0  0  0  0  0  0  0  0  0
    6.6400   -3.8430   24.1660 C   0  0  0  0  0  0  0  0  0  0  0  0
    5.7870   -3.3560   25.2590 C   0  0  0  0  0  0  0  0  0  0  0  0
    4.8020   -2.6390   24.9790 O   0  0  0  0  0  0  0  0  0  0  0  0
    6.0330   -3.6780   26.5910 N   0  0  0  0  0  0  0  0  0  0  0  0
    5.6970   -4.9930   27.0600 C   0  0  0  0  0  0  0  0  0  0  0  0
    5.9130   -5.1190   28.5460 C   0  0  0  0  0  0  0  0  0  0  0  0
    5.0950   -4.4450   29.4130 C   0  0  0  0  0  0  0  0  0  0  0  0
    5.3380   -3.1070   29.6240 C   0  0  0  0  0  0  0  0  0  0  0  0
    4.5490   -2.2610   30.3830 C   0  0  0  0  0  0  0  0  0  0  0  0
    4.8360   -0.9160   30.5700 C   0  0  0  0  0  0  0  0  0  0  0  0
    5.9310   -0.2650   30.0290 C   0  0  0  0  0  0  0  0  0  0  0  0
    6.1780    1.0990   30.2490 O   0  0  0  0  0  0  0  0  0  0  0  0
    6.5850    2.2710   29.7580 C   0  0  0  0  0  0  0  0  0  0  0  0
    6.7490   -1.0480   29.2680 C   0  0  0  0  0  0  0  0  0  0  0  0
    6.4330   -2.5080   29.0670 C   0  0  0  0  0  0  0  0  0  0  0  0
    5.8360   -4.8480   23.3850 C   0  0  0  0  0  0  0  0  0  0  0  0
    6.5730   -5.3100   22.3230 C   0  0  0  0  0  0  0  0  0  0  0  0
  1  2  1  0
  2  3  2  0
  2  4  1  0
  4  5  1  0
  5  6  1  0
  6  7  1  0
  7  8  1  0
  8  9  2  0
  8 10  1  0
 10 11  1  0
 11 12  1  0
 12 13  1  0
 13 14  1  0
 14 15  2  0
 15 16  1  0
 16 17  2  0
 17 18  1  0
 18 19  1  0
 17 20  1  0
 14 21  1  0
 20 21  2  0
  7 22  1  0
  4 23  1  0
 22 23  1  0
M  END
