piperidine-amides-31386-covalent
     RDKit          3D

 27 28  0  0  0  0  0  0  0  0999 V2000
    7.1050   -3.3460   19.2530 C   0  0  0  0  0  0  0  0  0  0  0  0
    6.4010   -4.0670   20.2850 C   0  0  0  0  0  0  0  0  0  0  0  0
    5.3300   -4.6570   19.9420 O   0  0  0  0  0  0  0  0  0  0  0  0
    6.8830   -4.1980   21.6130 N   0  0  0  0  0  0  0  0  0  0  0  0
    6.5640   -5.4360   22.3330 C   0  0  0  0  0  0  0  0  0  0  0  0
    5.5210   -4.8320   23.3450 C   0  0  0  0  0  0  0  0  0  0  0  0
    6.2410   -3.7410   24.1270 C   0  0  0  0  0  0  0  0  0  0  0  0
    5.2970   -3.2860   25.3390 C   0  0  0  0  0  0  0  0  0  0  0  0
    4.1270   -3.4280   25.0210 O   0  0  0  0  0  0  0  0  0  0  0  0
    5.9770   -2.8770   26.3400 N   0  0  0  0  0  0  0  0  0  0  0  0
    6.6930   -2.1110   27.2120 C   0  0  0  0  0  0  0  0  0  0  0  0
    6.4990   -1.2320   28.2400 C   0  0  0  0  0  0  0  0  0  0  0  0
    7.3540   -1.2230   29.3600 C   0  0  0  0  0  0  0  0  0  0  0  0
    7.3480   -0.4060   30.5470 C   0  0  0  0  0  0  0  0  0  0  0  0
    6.1690    0.5140   30.3610 C   0  0  0  0  0  0  0  0  0  0  0  0
    6.0730    1.3900   31.5190 N   0  0  0  0  0  0  0  0  0  0  0  0
    6.0120    2.7660   31.1810 C   0  0  0  0  0  0  0  0  0  0  0  0
    6.5200    0.9210   32.8220 C   0  0  0  0  0  0  0  0  0  0  0  0
    5.0920    0.7920   29.3700 C   0  0  0  0  0  0  0  0  0  0  0  0
    5.3300   -0.2380   28.1730 C   0  0  0  0  0  0  0  0  0  0  0  0
    6.0670   -3.6570   27.5810 C   0  0  0  0  0  0  0  0  0  0  0  0
    5.7660   -4.9970   27.4100 C   0  0  0  0  0  0  0  0  0  0  0  0
    5.8440   -5.5610   26.1830 F   0  0  0  0  0  0  0  0  0  0  0  0
    6.4870   -5.8170   28.2560 F   0  0  0  0  0  0  0  0  0  0  0  0
    4.4640   -5.1320   27.8910 F   0  0  0  0  0  0  0  0  0  0  0  0
    6.8250   -2.6050   23.2800 C   0  0  0  0  0  0  0  0  0  0  0  0
    7.6240   -3.1760   22.3080 C   0  0  0  0  0  0  0  0  0  0  0  0
  1  2  1  0
  2  3  2  0
  2  4  1  0
  4  5  1  0
  5  6  1  0
  6  7  1  0
  7  8  1  0
  8  9  2  0
  8 10  1  0
 10 11  1  0
 11 12  1  0
 12 13  2  0
 13 14  1  0
 14 15  2  0
 15 16  1  0
 16 17  1  0
 16 18  1  0
 15 19  1  0
 12 20  1  0
 19 20  2  0
 10 21  1  0
 21 22  1  0
 22 23  1  0
 22 24  1  0
 22 25  1  0
  7 26  1  0
  4 27  1  0
 26 27  1  0
M  END
