piperidine-amides-33672-covalent
     RDKit          3D

 30 33  0  0  0  0  0  0  0  0999 V2000
    7.0420   -3.3550   19.3660 C   0  0  0  0  0  0  0  0  0  0  0  0
    6.3980   -4.2230   20.3670 C   0  0  0  0  0  0  0  0  0  0  0  0
    5.3810   -4.8530   19.9860 O   0  0  0  0  0  0  0  0  0  0  0  0
    6.9320   -4.3840   21.6790 N   0  0  0  0  0  0  0  0  0  0  0  0
    6.4970   -5.4860   22.4600 C   0  0  0  0  0  0  0  0  0  0  0  0
    5.9370   -5.1200   23.7680 C   0  0  0  0  0  0  0  0  0  0  0  0
    6.3470   -3.8140   24.3450 C   0  0  0  0  0  0  0  0  0  0  0  0
    5.2630   -3.2840   25.2700 C   0  0  0  0  0  0  0  0  0  0  0  0
    4.2120   -2.8750   24.7600 O   0  0  0  0  0  0  0  0  0  0  0  0
    5.3830   -3.2350   26.6880 N   0  0  0  0  0  0  0  0  0  0  0  0
    6.5280   -3.2820   27.4000 C   0  0  0  0  0  0  0  0  0  0  0  0
    6.6830   -4.3980   28.3420 C   0  0  0  0  0  0  0  0  0  0  0  0
    5.3760   -4.3430   29.1040 C   0  0  0  0  0  0  0  0  0  0  0  0
    5.4390   -3.1100   29.7310 O   0  0  0  0  0  0  0  0  0  0  0  0
    4.2270   -2.8030   30.3490 C   0  0  0  0  0  0  0  0  0  0  0  0
    5.1940   -5.5750   30.0120 C   0  0  0  0  0  0  0  0  0  0  0  0
    3.9240   -6.0930   30.3810 N   0  0  0  0  0  0  0  0  0  0  0  0
    4.4030   -7.1860   31.2100 C   0  0  0  0  0  0  0  0  0  0  0  0
    3.1680   -7.9290   31.7530 C   0  0  0  0  0  0  0  0  0  0  0  0
    3.1240   -8.8570   32.9450 C   0  0  0  0  0  0  0  0  0  0  0  0
    1.7810   -9.4650   33.2730 C   0  0  0  0  0  0  0  0  0  0  0  0
    0.5410   -9.1520   32.4400 C   0  0  0  0  0  0  0  0  0  0  0  0
    0.7540   -8.2180   31.3020 C   0  0  0  0  0  0  0  0  0  0  0  0
    2.0370   -7.6600   31.0170 N   0  0  0  0  0  0  0  0  0  0  0  0
    5.7250   -7.2910   31.3130 N   0  0  0  0  0  0  0  0  0  0  0  0
    6.2340   -6.2930   30.5680 O   0  0  0  0  0  0  0  0  0  0  0  0
    4.2560   -4.3870   28.3010 C   0  0  0  0  0  0  0  0  0  0  0  0
    4.2340   -3.2210   27.5420 C   0  0  0  0  0  0  0  0  0  0  0  0
    6.6860   -2.7930   23.3010 C   0  0  0  0  0  0  0  0  0  0  0  0
    7.5880   -3.3090   22.3710 C   0  0  0  0  0  0  0  0  0  0  0  0
  1  2  1  0
  2  3  2  0
  2  4  1  0
  4  5  1  0
  5  6  1  0
  6  7  1  0
  7  8  1  0
  8  9  2  0
  8 10  1  0
 10 11  1  0
 11 12  1  0
 12 13  1  0
 13 14  1  0
 14 15  1  0
 13 16  1  0
 16 17  2  0
 17 18  1  0
 18 19  1  0
 19 20  2  0
 20 21  1  0
 21 22  2  0
 22 23  1  0
 19 24  1  0
 23 24  2  0
 18 25  2  0
 16 26  1  0
 25 26  1  0
 13 27  1  0
 10 28  1  0
 27 28  1  0
  7 29  1  0
  4 30  1  0
 29 30  1  0
M  END
