piperidine-amides-3299-covalent
     RDKit          3D

 22 22  0  0  0  0  0  0  0  0999 V2000
    7.1290   -3.3030   19.2990 C   0  0  0  0  0  0  0  0  0  0  0  0
    6.3570   -4.0730   20.2650 C   0  0  0  0  0  0  0  0  0  0  0  0
    5.3150   -4.6280   19.9180 O   0  0  0  0  0  0  0  0  0  0  0  0
    6.8460   -4.2300   21.6050 N   0  0  0  0  0  0  0  0  0  0  0  0
    6.5190   -5.4310   22.3390 C   0  0  0  0  0  0  0  0  0  0  0  0
    6.2430   -5.1550   23.8080 C   0  0  0  0  0  0  0  0  0  0  0  0
    6.1280   -3.6520   24.0360 C   0  0  0  0  0  0  0  0  0  0  0  0
    5.6360   -3.2900   25.4090 C   0  0  0  0  0  0  0  0  0  0  0  0
    4.7960   -2.3810   25.5650 O   0  0  0  0  0  0  0  0  0  0  0  0
    6.0990   -3.9620   26.5730 N   0  0  0  0  0  0  0  0  0  0  0  0
    5.8230   -5.3840   26.7080 C   0  0  2  0  0  0  0  0  0  0  0  0
    4.3550   -5.6460   26.6730 C   0  0  0  0  0  0  0  0  0  0  0  0
    3.8150   -5.5030   25.4160 O   0  0  0  0  0  0  0  0  0  0  0  0
    3.4910   -6.0020   27.6910 O   0  0  0  0  0  0  0  0  0  0  0  0
    2.9070   -7.2680   27.8730 C   0  0  0  0  0  0  0  0  0  0  0  0
    1.5220   -7.1440   27.9990 C   0  0  0  0  0  0  0  0  0  0  0  0
    0.8770   -7.5040   26.8340 C   0  0  0  0  0  0  0  0  0  0  0  0
    6.2570   -5.8690   28.0740 C   0  0  0  0  0  0  0  0  0  0  0  0
    5.4910   -6.8920   28.5710 C   0  0  0  0  0  0  0  0  0  0  0  0
    6.4890   -4.8390   28.8920 C   0  0  0  0  0  0  0  0  0  0  0  0
    7.3010   -2.8790   23.5740 C   0  0  0  0  0  0  0  0  0  0  0  0
    7.6300   -3.1890   22.1900 C   0  0  0  0  0  0  0  0  0  0  0  0
  1  2  1  0
  2  3  2  0
  2  4  1  0
  4  5  1  0
  5  6  1  0
  6  7  1  0
  7  8  1  0
  8  9  2  0
  8 10  1  0
 11 10  1  1
 11 12  1  0
 12 13  2  0
 12 14  1  0
 14 15  1  0
 15 16  1  0
 16 17  1  0
 11 18  1  0
 18 19  1  0
 18 20  1  0
  7 21  1  0
  4 22  1  0
 21 22  1  0
M  END
