piperidine-amides-11985-covalent
     RDKit          3D

 26 27  0  0  0  0  0  0  0  0999 V2000
    7.1050   -3.2920   19.2800 C   0  0  0  0  0  0  0  0  0  0  0  0
    6.3730   -4.0890   20.2540 C   0  0  0  0  0  0  0  0  0  0  0  0
    5.3270   -4.6510   19.9290 O   0  0  0  0  0  0  0  0  0  0  0  0
    6.9030   -4.2700   21.5810 N   0  0  0  0  0  0  0  0  0  0  0  0
    6.5030   -5.3960   22.3580 C   0  0  0  0  0  0  0  0  0  0  0  0
    5.5850   -4.9540   23.4690 C   0  0  0  0  0  0  0  0  0  0  0  0
    6.1330   -3.7330   24.2250 C   0  0  0  0  0  0  0  0  0  0  0  0
    4.9980   -3.1620   25.0210 C   0  0  0  0  0  0  0  0  0  0  0  0
    3.8790   -2.9940   24.5160 O   0  0  0  0  0  0  0  0  0  0  0  0
    5.1410   -2.7940   26.3810 N   0  0  0  0  0  0  0  0  0  0  0  0
    5.1920   -3.8170   27.3910 C   0  0  2  0  0  0  0  0  0  0  0  0
    6.6010   -3.8510   27.5520 C   0  0  0  0  0  0  0  0  0  0  0  0
    7.3270   -3.1070   28.4420 C   0  0  0  0  0  0  0  0  0  0  0  0
    8.6900   -3.2400   28.4930 C   0  0  0  0  0  0  0  0  0  0  0  0
    9.2960   -4.1090   27.6580 C   0  0  0  0  0  0  0  0  0  0  0  0
    8.6070   -4.8730   26.7300 C   0  0  0  0  0  0  0  0  0  0  0  0
    9.1790   -5.6910   25.9030 C   0  0  0  0  0  0  0  0  0  0  0  0
    9.7430   -6.7810   26.3800 F   0  0  0  0  0  0  0  0  0  0  0  0
    8.2930   -5.9560   24.8940 F   0  0  0  0  0  0  0  0  0  0  0  0
   10.1290   -4.8440   25.3680 F   0  0  0  0  0  0  0  0  0  0  0  0
    7.3240   -4.7430   26.6960 C   0  0  0  0  0  0  0  0  0  0  0  0
    4.6980   -5.0780   27.2680 C   0  0  0  0  0  0  0  0  0  0  0  0
    3.3000   -5.2820   27.6580 C   0  0  0  0  0  0  0  0  0  0  0  0
    5.4280   -6.0890   28.1660 C   0  0  0  0  0  0  0  0  0  0  0  0
    6.6450   -2.6410   23.3020 C   0  0  0  0  0  0  0  0  0  0  0  0
    7.5260   -3.1720   22.2180 C   0  0  0  0  0  0  0  0  0  0  0  0
  1  2  1  0
  2  3  2  0
  2  4  1  0
  4  5  1  0
  5  6  1  0
  6  7  1  0
  7  8  1  0
  8  9  2  0
  8 10  1  0
 11 10  1  6
 11 12  1  0
 12 13  2  0
 13 14  1  0
 14 15  2  0
 15 16  1  0
 16 17  1  0
 17 18  1  0
 17 19  1  0
 17 20  1  0
 12 21  1  0
 16 21  2  0
 11 22  1  0
 22 23  1  0
 22 24  1  0
  7 25  1  0
  4 26  1  0
 25 26  1  0
M  END
