piperidine-amides-24420-covalent
     RDKit          3D

 23 25  0  0  0  0  0  0  0  0999 V2000
    7.1280   -3.3530   19.3440 C   0  0  0  0  0  0  0  0  0  0  0  0
    6.3470   -4.1320   20.3110 C   0  0  0  0  0  0  0  0  0  0  0  0
    5.3170   -4.7390   19.9500 O   0  0  0  0  0  0  0  0  0  0  0  0
    6.7850   -4.2410   21.6340 N   0  0  0  0  0  0  0  0  0  0  0  0
    6.6730   -5.5660   22.2510 C   0  0  0  0  0  0  0  0  0  0  0  0
    6.3180   -5.4040   23.7300 C   0  0  0  0  0  0  0  0  0  0  0  0
    6.1550   -3.9290   23.8910 C   0  0  0  0  0  0  0  0  0  0  0  0
    5.4340   -3.6050   25.1190 C   0  0  0  0  0  0  0  0  0  0  0  0
    4.2860   -3.1400   24.9730 O   0  0  0  0  0  0  0  0  0  0  0  0
    5.9370   -3.7730   26.4180 N   0  0  0  0  0  0  0  0  0  0  0  0
    4.8360   -4.1400   27.3260 C   0  0  0  0  0  0  0  0  0  0  0  0
    5.0240   -3.9970   28.8250 C   0  0  0  0  0  0  0  0  0  0  0  0
    5.7900   -2.9930   29.2200 C   0  0  0  0  0  0  0  0  0  0  0  0
    6.8870   -3.0350   28.5180 C   0  0  0  0  0  0  0  0  0  0  0  0
    6.4930   -2.7190   27.2310 C   0  0  0  0  0  0  0  0  0  0  0  0
    5.2750   -1.8880   29.9830 C   0  0  0  0  0  0  0  0  0  0  0  0
    4.1720   -2.1710   30.7790 F   0  0  0  0  0  0  0  0  0  0  0  0
    6.2490   -1.1170   30.5990 F   0  0  0  0  0  0  0  0  0  0  0  0
    5.1640   -1.8350   28.5830 C   0  0  0  0  0  0  0  0  0  0  0  0
    5.9670   -0.8020   28.1800 F   0  0  0  0  0  0  0  0  0  0  0  0
    3.8740   -1.9470   28.1360 F   0  0  0  0  0  0  0  0  0  0  0  0
    7.4180   -3.1990   23.6660 C   0  0  0  0  0  0  0  0  0  0  0  0
    7.6280   -3.1660   22.1920 C   0  0  0  0  0  0  0  0  0  0  0  0
  1  2  1  0
  2  3  2  0
  2  4  1  0
  4  5  1  0
  5  6  1  0
  6  7  1  0
  7  8  1  0
  8  9  2  0
  8 10  1  0
 10 11  1  0
 11 12  1  0
 13 12  1  0
 13 14  1  0
 10 15  1  0
 14 15  1  0
 13 16  1  0
 16 17  1  0
 16 18  1  0
 13 19  1  0
 16 19  1  0
 19 20  1  0
 19 21  1  0
  7 22  1  0
  4 23  1  0
 22 23  1  0
M  END
