piperidine-amides-24582-covalent
     RDKit          3D

 24 26  0  0  0  0  0  0  0  0999 V2000
    7.1480   -3.3380   19.3250 C   0  0  0  0  0  0  0  0  0  0  0  0
    6.4020   -4.1650   20.2760 C   0  0  0  0  0  0  0  0  0  0  0  0
    5.3300   -4.7090   19.9460 O   0  0  0  0  0  0  0  0  0  0  0  0
    6.9400   -4.4010   21.5400 N   0  0  0  0  0  0  0  0  0  0  0  0
    7.7440   -3.3880   22.1840 C   0  0  0  0  0  0  0  0  0  0  0  0
    6.8590   -2.7770   23.2570 C   0  0  0  0  0  0  0  0  0  0  0  0
    6.5510   -3.8960   24.2250 C   0  0  0  0  0  0  0  0  0  0  0  0
    5.6650   -3.3850   25.2740 C   0  0  0  0  0  0  0  0  0  0  0  0
    4.4650   -3.1690   25.0090 O   0  0  0  0  0  0  0  0  0  0  0  0
    6.2060   -3.1620   26.5410 N   0  0  0  0  0  0  0  0  0  0  0  0
    7.5840   -3.4960   26.8230 C   0  0  0  0  0  0  0  0  0  0  0  0
    7.7290   -5.0180   26.9690 C   0  0  0  0  0  0  0  0  0  0  0  0
    8.9780   -5.5840   26.9640 C   0  0  0  0  0  0  0  0  0  0  0  0
    6.0440   -2.2070   27.6220 C   0  0  2  0  0  0  0  0  0  0  0  0
    6.1680   -0.8600   27.0640 C   0  0  1  0  0  0  0  0  0  0  0  0
    5.8640    0.4850   27.2800 C   0  0  0  0  0  0  0  0  0  0  0  0
    6.3000    0.9860   28.6080 C   0  0  0  0  0  0  0  0  0  0  0  0
    7.0320    0.1880   29.1120 O   0  0  0  0  0  0  0  0  0  0  0  0
    7.2510   -0.8720   28.1830 C   0  0  1  0  0  0  0  0  0  0  0  0
    6.9480   -2.1890   28.6080 C   0  0  0  0  0  0  0  0  0  0  0  0
    7.0210   -1.2220   29.6970 C   0  0  0  0  0  0  0  0  0  0  0  0
    8.0040   -3.0810   28.4750 C   0  0  0  0  0  0  0  0  0  0  0  0
    5.7690   -5.0000   23.5160 C   0  0  0  0  0  0  0  0  0  0  0  0
    6.5020   -5.5290   22.3150 C   0  0  0  0  0  0  0  0  0  0  0  0
  1  2  1  0
  2  3  2  0
  2  4  1  0
  4  5  1  0
  5  6  1  0
  6  7  1  0
  7  8  1  0
  8  9  2  0
  8 10  1  0
 10 11  1  0
 11 12  1  0
 12 13  1  0
 14 10  1  6
 14 15  1  0
 15 16  1  1
 16 17  1  0
 17 18  1  0
 15 19  1  0
 19 18  1  1
 14 20  1  0
 19 20  1  0
 20 21  1  0
 20 22  1  0
  7 23  1  0
  4 24  1  0
 23 24  1  0
M  END
