piperidine-amides-603-covalent
     RDKit          3D

 26 28  0  0  0  0  0  0  0  0999 V2000
    7.0930   -3.3840   19.2910 C   0  0  0  0  0  0  0  0  0  0  0  0
    6.3500   -4.0960   20.3000 C   0  0  0  0  0  0  0  0  0  0  0  0
    5.2860   -4.6820   19.9330 O   0  0  0  0  0  0  0  0  0  0  0  0
    6.7850   -4.2200   21.6330 N   0  0  0  0  0  0  0  0  0  0  0  0
    7.6800   -3.1670   22.1720 C   0  0  0  0  0  0  0  0  0  0  0  0
    6.7410   -2.6110   23.2970 C   0  0  0  0  0  0  0  0  0  0  0  0
    6.7540   -3.7280   24.2920 C   0  0  0  0  0  0  0  0  0  0  0  0
    5.5930   -3.6040   25.3680 C   0  0  0  0  0  0  0  0  0  0  0  0
    4.8390   -4.5560   25.2880 O   0  0  0  0  0  0  0  0  0  0  0  0
    5.7070   -2.5420   26.0460 N   0  0  0  0  0  0  0  0  0  0  0  0
    5.6150   -1.3990   26.7800 C   0  0  2  0  0  0  0  0  0  0  0  0
    5.8220   -0.0410   26.6830 C   0  0  0  0  0  0  0  0  0  0  0  0
    6.0130    0.5590   27.9310 C   0  0  0  0  0  0  0  0  0  0  0  0
    6.2150   -0.3380   28.8660 N   0  0  0  0  0  0  0  0  0  0  0  0
    7.1880    0.0340   29.7750 C   0  0  0  0  0  0  0  0  0  0  0  0
    6.5080    0.0680   31.1570 C   0  0  0  0  0  0  0  0  0  0  0  0
    5.3520   -0.6870   30.9350 C   0  0  0  0  0  0  0  0  0  0  0  0
    4.2570   -1.0690   31.7830 C   0  0  0  0  0  0  0  0  0  0  0  0
    4.7490   -0.3630   33.0960 C   0  0  0  0  0  0  0  0  0  0  0  0
    3.8560   -0.4950   34.3710 C   0  0  0  0  0  0  0  0  0  0  0  0
    5.9920    0.4360   33.2950 C   0  0  0  0  0  0  0  0  0  0  0  0
    6.8640    0.6420   32.3100 C   0  0  0  0  0  0  0  0  0  0  0  0
    6.3720   -1.5490   28.1460 C   0  0  0  0  0  0  0  0  0  0  0  0
    7.0160   -2.6980   28.5520 O   0  0  0  0  0  0  0  0  0  0  0  0
    6.8960   -5.1140   23.7390 C   0  0  0  0  0  0  0  0  0  0  0  0
    6.2220   -5.1980   22.5180 C   0  0  0  0  0  0  0  0  0  0  0  0
  1  2  1  0
  2  3  2  0
  2  4  1  0
  4  5  1  0
  5  6  1  0
  6  7  1  0
  7  8  1  0
  8  9  2  0
  8 10  1  0
 11 10  1  6
 11 12  1  0
 12 13  1  0
 13 14  1  0
 14 15  1  0
 15 16  1  0
 16 17  2  0
 17 18  1  0
 18 19  2  0
 19 20  1  0
 19 21  1  0
 16 22  1  0
 21 22  2  0
 11 23  1  0
 14 23  1  0
 23 24  2  0
  7 25  1  0
  4 26  1  0
 25 26  1  0
M  END
