piperidine-amides-25129-covalent
     RDKit          3D

 24 25  0  0  0  0  0  0  0  0999 V2000
    7.0350   -3.3790   19.3750 C   0  0  0  0  0  0  0  0  0  0  0  0
    6.3800   -4.2950   20.3470 C   0  0  0  0  0  0  0  0  0  0  0  0
    5.3490   -4.8440   19.9760 O   0  0  0  0  0  0  0  0  0  0  0  0
    6.9620   -4.5490   21.5950 N   0  0  0  0  0  0  0  0  0  0  0  0
    6.5630   -5.6780   22.3880 C   0  0  0  0  0  0  0  0  0  0  0  0
    6.4110   -5.2250   23.8220 C   0  0  0  0  0  0  0  0  0  0  0  0
    5.8740   -3.7890   23.8710 C   0  0  0  0  0  0  0  0  0  0  0  0
    5.5430   -3.3900   25.2560 C   0  0  0  0  0  0  0  0  0  0  0  0
    4.5330   -2.6930   25.4180 O   0  0  0  0  0  0  0  0  0  0  0  0
    6.2690   -3.7570   26.4050 N   0  0  0  0  0  0  0  0  0  0  0  0
    5.4620   -3.7080   27.6090 C   0  0  0  0  0  0  0  0  0  0  0  0
    6.2380   -4.3870   28.7080 C   0  0  0  0  0  0  0  0  0  0  0  0
    7.3920   -5.0740   28.4530 C   0  0  0  0  0  0  0  0  0  0  0  0
    7.9470   -4.8600   27.2490 C   0  0  0  0  0  0  0  0  0  0  0  0
    7.6460   -3.6360   26.6980 C   0  0  2  0  0  0  0  0  0  0  0  0
    7.8700   -2.3200   27.4120 C   0  0  0  0  0  0  0  0  0  0  0  0
    8.0830   -2.3800   28.7590 O   0  0  0  0  0  0  0  0  0  0  0  0
    7.7040   -1.2750   29.5240 C   0  0  0  0  0  0  0  0  0  0  0  0
    8.3780   -3.4790   25.4020 C   0  0  0  0  0  0  0  0  0  0  0  0
    9.1740   -4.4950   24.8980 O   0  0  0  0  0  0  0  0  0  0  0  0
    8.3080   -2.2860   24.6790 O   0  0  0  0  0  0  0  0  0  0  0  0
    9.1240   -1.8990   23.6000 C   0  0  0  0  0  0  0  0  0  0  0  0
    6.6980   -2.7650   23.1470 C   0  0  0  0  0  0  0  0  0  0  0  0
    7.6800   -3.5050   22.2700 C   0  0  0  0  0  0  0  0  0  0  0  0
  1  2  1  0
  2  3  2  0
  2  4  1  0
  4  5  1  0
  5  6  1  0
  6  7  1  0
  7  8  1  0
  8  9  2  0
  8 10  1  0
 10 11  1  0
 11 12  1  0
 12 13  1  0
 13 14  1  0
 10 15  1  0
 14 15  1  0
 15 16  1  1
 16 17  1  0
 17 18  1  0
 15 19  1  0
 19 20  2  0
 19 21  1  0
 21 22  1  0
  7 23  1  0
  4 24  1  0
 23 24  1  0
M  END
