piperidine-amides-32748-covalent
     RDKit          3D

 29 31  0  0  0  0  0  0  0  0999 V2000
    7.1390   -3.2820   19.2680 C   0  0  0  0  0  0  0  0  0  0  0  0
    6.3230   -4.0470   20.2440 C   0  0  0  0  0  0  0  0  0  0  0  0
    5.2420   -4.5270   19.8750 O   0  0  0  0  0  0  0  0  0  0  0  0
    6.8200   -4.2720   21.5460 N   0  0  0  0  0  0  0  0  0  0  0  0
    6.4530   -5.4570   22.2650 C   0  0  0  0  0  0  0  0  0  0  0  0
    5.6010   -4.9660   23.4350 C   0  0  0  0  0  0  0  0  0  0  0  0
    6.4540   -4.0340   24.2270 C   0  0  0  0  0  0  0  0  0  0  0  0
    5.7150   -3.4580   25.3850 C   0  0  0  0  0  0  0  0  0  0  0  0
    4.4920   -3.3290   25.2270 O   0  0  0  0  0  0  0  0  0  0  0  0
    6.3560   -3.0760   26.5720 N   0  0  0  0  0  0  0  0  0  0  0  0
    6.7850   -1.7320   26.7730 C   0  0  0  0  0  0  0  0  0  0  0  0
    6.1820   -3.8360   27.7860 C   0  0  0  0  0  0  0  0  0  0  0  0
    5.8180   -5.2020   27.7410 C   0  0  0  0  0  0  0  0  0  0  0  0
    5.3290   -5.7770   28.8910 C   0  0  0  0  0  0  0  0  0  0  0  0
    3.8740   -6.0620   28.9950 C   0  0  0  0  0  0  0  0  0  0  0  0
    2.6410   -5.2100   28.7620 C   0  0  0  0  0  0  0  0  0  0  0  0
    1.6010   -6.2120   29.0690 C   0  0  0  0  0  0  0  0  0  0  0  0
    0.2250   -6.0790   29.0490 C   0  0  0  0  0  0  0  0  0  0  0  0
   -0.6210   -6.3840   30.2120 C   0  0  0  0  0  0  0  0  0  0  0  0
   -2.1350   -6.1490   29.9320 C   0  0  0  0  0  0  0  0  0  0  0  0
   -3.0060   -5.7260   28.8960 C   0  0  0  0  0  0  0  0  0  0  0  0
   -4.3430   -5.5620   28.7790 F   0  0  0  0  0  0  0  0  0  0  0  0
   -1.8720   -5.4950   27.8700 C   0  0  0  0  0  0  0  0  0  0  0  0
   -0.4030   -5.6600   27.9540 C   0  0  0  0  0  0  0  0  0  0  0  0
    2.1290   -7.3940   29.4060 N   0  0  0  0  0  0  0  0  0  0  0  0
    1.3030   -8.5260   29.7460 C   0  0  0  0  0  0  0  0  0  0  0  0
    3.4990   -7.3360   29.3730 N   0  0  0  0  0  0  0  0  0  0  0  0
    6.9580   -2.8290   23.4470 C   0  0  0  0  0  0  0  0  0  0  0  0
    7.4650   -3.1880   22.2060 C   0  0  0  0  0  0  0  0  0  0  0  0
  1  2  1  0
  2  3  2  0
  2  4  1  0
  4  5  1  0
  5  6  1  0
  6  7  1  0
  7  8  1  0
  8  9  2  0
  8 10  1  0
 10 11  1  0
 10 12  1  0
 12 13  1  0
 13 14  1  0
 14 15  1  0
 15 16  1  0
 16 17  2  0
 17 18  1  0
 18 19  2  0
 19 20  1  0
 20 21  2  0
 21 22  1  0
 21 23  1  0
 18 24  1  0
 23 24  2  0
 17 25  1  0
 25 26  1  0
 15 27  2  0
 25 27  1  0
  7 28  1  0
  4 29  1  0
 28 29  1  0
M  END
