piperidine-amides-26142-covalent
     RDKit          3D

 25 27  0  0  0  0  0  0  0  0999 V2000
    7.0440   -3.3500   19.3770 C   0  0  0  0  0  0  0  0  0  0  0  0
    6.3890   -4.1970   20.3760 C   0  0  0  0  0  0  0  0  0  0  0  0
    5.4140   -4.8790   20.0030 O   0  0  0  0  0  0  0  0  0  0  0  0
    6.8580   -4.3000   21.7120 N   0  0  0  0  0  0  0  0  0  0  0  0
    6.6490   -5.5120   22.4950 C   0  0  0  0  0  0  0  0  0  0  0  0
    6.0630   -5.1160   23.8420 C   0  0  0  0  0  0  0  0  0  0  0  0
    6.0190   -3.6310   24.0190 C   0  0  0  0  0  0  0  0  0  0  0  0
    5.5170   -3.1800   25.3550 C   0  0  0  0  0  0  0  0  0  0  0  0
    4.2730   -3.0110   25.4850 O   0  0  0  0  0  0  0  0  0  0  0  0
    6.2810   -2.9150   26.5250 N   0  0  0  0  0  0  0  0  0  0  0  0
    6.1640   -3.8950   27.6370 C   0  0  0  0  0  0  0  0  0  0  0  0
    4.8580   -3.7330   28.3110 C   0  0  0  0  0  0  0  0  0  0  0  0
    4.1910   -2.4280   28.3100 C   0  0  0  0  0  0  0  0  0  0  0  0
    2.8710   -2.2970   29.0000 C   0  0  0  0  0  0  0  0  0  0  0  0
    2.2600   -3.5030   29.6780 C   0  0  0  0  0  0  0  0  0  0  0  0
    3.0830   -4.7450   29.5760 C   0  0  0  0  0  0  0  0  0  0  0  0
    2.4950   -5.8360   30.2080 F   0  0  0  0  0  0  0  0  0  0  0  0
    4.3010   -4.8240   28.9280 C   0  0  0  0  0  0  0  0  0  0  0  0
    6.7250   -1.5940   26.8820 C   0  0  0  0  0  0  0  0  0  0  0  0
    5.8260   -0.3690   26.4590 C   0  0  0  0  0  0  0  0  0  0  0  0
    5.7460    0.5250   27.6730 C   0  0  0  0  0  0  0  0  0  0  0  0
    6.5140   -0.4050   28.4660 C   0  0  0  0  0  0  0  0  0  0  0  0
    7.0790   -1.4060   28.4150 C   0  0  0  0  0  0  0  0  0  0  0  0
    7.2490   -2.9440   23.6060 C   0  0  0  0  0  0  0  0  0  0  0  0
    7.6470   -3.2620   22.3290 C   0  0  0  0  0  0  0  0  0  0  0  0
  1  2  1  0
  2  3  2  0
  2  4  1  0
  4  5  1  0
  5  6  1  0
  6  7  1  0
  7  8  1  0
  8  9  2  0
  8 10  1  0
 10 11  1  0
 11 12  1  0
 12 13  2  0
 13 14  1  0
 14 15  2  0
 15 16  1  0
 16 17  1  0
 12 18  1  0
 16 18  2  0
 10 19  1  0
 19 20  1  0
 20 21  1  0
 21 22  1  0
 19 23  1  0
 22 23  1  0
  7 24  1  0
  4 25  1  0
 24 25  1  0
M  END
