piperidine-amides-4987-covalent
     RDKit          3D

 23 24  0  0  0  0  0  0  0  0999 V2000
    7.1350   -3.3010   19.2560 C   0  0  0  0  0  0  0  0  0  0  0  0
    6.3780   -4.0620   20.2760 C   0  0  0  0  0  0  0  0  0  0  0  0
    5.3090   -4.5840   19.9030 O   0  0  0  0  0  0  0  0  0  0  0  0
    6.8850   -4.2140   21.5780 N   0  0  0  0  0  0  0  0  0  0  0  0
    6.5970   -5.3860   22.3420 C   0  0  0  0  0  0  0  0  0  0  0  0
    6.0510   -5.0730   23.6580 C   0  0  0  0  0  0  0  0  0  0  0  0
    5.9950   -3.6190   23.9100 C   0  0  0  0  0  0  0  0  0  0  0  0
    5.4720   -3.3150   25.2580 C   0  0  0  0  0  0  0  0  0  0  0  0
    4.2890   -2.9470   25.3350 O   0  0  0  0  0  0  0  0  0  0  0  0
    6.2570   -3.4250   26.4180 N   0  0  0  0  0  0  0  0  0  0  0  0
    5.8870   -4.2790   27.5750 C   0  0  0  0  0  0  0  0  0  0  0  0
    5.9850   -5.7420   27.2810 C   0  0  0  0  0  0  0  0  0  0  0  0
    6.7510   -3.9420   28.6990 C   0  0  0  0  0  0  0  0  0  0  0  0
    4.5490   -3.8980   27.9550 C   0  0  0  0  0  0  0  0  0  0  0  0
    4.0320   -2.6450   27.6670 C   0  0  0  0  0  0  0  0  0  0  0  0
    2.7620   -2.2970   28.0400 C   0  0  0  0  0  0  0  0  0  0  0  0
    1.9700   -3.1840   28.7120 C   0  0  0  0  0  0  0  0  0  0  0  0
    0.3530   -2.7030   29.1770 Cl  0  0  0  0  0  0  0  0  0  0  0  0
    2.4360   -4.4220   29.0160 C   0  0  0  0  0  0  0  0  0  0  0  0
    1.3460   -5.5150   29.8910 Cl  0  0  0  0  0  0  0  0  0  0  0  0
    3.7250   -4.7620   28.6310 C   0  0  0  0  0  0  0  0  0  0  0  0
    7.2520   -2.8940   23.6160 C   0  0  0  0  0  0  0  0  0  0  0  0
    7.7250   -3.1910   22.2140 C   0  0  0  0  0  0  0  0  0  0  0  0
  1  2  1  0
  2  3  2  0
  2  4  1  0
  4  5  1  0
  5  6  1  0
  6  7  1  0
  7  8  1  0
  8  9  2  0
  8 10  1  0
 11 10  1  0
 11 12  1  0
 11 13  1  0
 11 14  1  0
 14 15  2  0
 15 16  1  0
 16 17  2  0
 17 18  1  0
 17 19  1  0
 19 20  1  0
 14 21  1  0
 19 21  2  0
  7 22  1  0
  4 23  1  0
 22 23  1  0
M  END
