piperidine-amides-12470-covalent
     RDKit          3D

 24 26  0  0  0  0  0  0  0  0999 V2000
    7.1880   -3.2880   19.1750 C   0  0  0  0  0  0  0  0  0  0  0  0
    6.4290   -4.0250   20.1720 C   0  0  0  0  0  0  0  0  0  0  0  0
    5.3320   -4.5020   19.8800 O   0  0  0  0  0  0  0  0  0  0  0  0
    6.9980   -4.2650   21.4650 N   0  0  0  0  0  0  0  0  0  0  0  0
    6.5180   -5.3770   22.2430 C   0  0  0  0  0  0  0  0  0  0  0  0
    5.7780   -4.8640   23.4470 C   0  0  0  0  0  0  0  0  0  0  0  0
    5.8300   -3.3450   23.3960 C   0  0  0  0  0  0  0  0  0  0  0  0
    5.1770   -2.7180   24.5500 C   0  0  0  0  0  0  0  0  0  0  0  0
    4.1450   -2.0550   24.4980 O   0  0  0  0  0  0  0  0  0  0  0  0
    5.7740   -2.8680   25.7680 N   0  0  0  0  0  0  0  0  0  0  0  0
    5.5520   -4.0800   26.4630 C   0  0  0  0  0  0  0  0  0  0  0  0
    6.7800   -4.0710   27.2210 C   0  0  0  0  0  0  0  0  0  0  0  0
    7.5790   -5.1650   27.2960 C   0  0  0  0  0  0  0  0  0  0  0  0
    7.3140   -6.2360   26.7360 O   0  0  0  0  0  0  0  0  0  0  0  0
    8.7340   -5.1410   28.0030 C   0  0  0  0  0  0  0  0  0  0  0  0
    9.0340   -3.9780   28.6180 C   0  0  0  0  0  0  0  0  0  0  0  0
    8.2440   -2.7630   28.5860 C   0  0  0  0  0  0  0  0  0  0  0  0
    8.4910   -1.5300   29.1990 C   0  0  0  0  0  0  0  0  0  0  0  0
    7.6920   -0.4230   29.1250 C   0  0  0  0  0  0  0  0  0  0  0  0
    6.5480   -0.5060   28.4030 C   0  0  0  0  0  0  0  0  0  0  0  0
    6.2650   -1.7730   27.7640 C   0  0  0  0  0  0  0  0  0  0  0  0
    7.1000   -2.8950   27.8480 C   0  0  0  0  0  0  0  0  0  0  0  0
    7.2410   -2.8690   23.3660 C   0  0  0  0  0  0  0  0  0  0  0  0
    7.7830   -3.2240   22.0460 C   0  0  0  0  0  0  0  0  0  0  0  0
  1  2  1  0
  2  3  2  0
  2  4  1  0
  4  5  1  0
  5  6  1  0
  6  7  1  0
  7  8  1  0
  8  9  2  0
  8 10  1  0
 10 11  1  0
 11 12  1  0
 12 13  2  0
 13 14  1  0
 13 15  1  0
 15 16  2  0
 16 17  1  0
 17 18  1  0
 18 19  2  0
 19 20  1  0
 20 21  2  0
 12 22  1  0
 17 22  2  0
 21 22  1  0
  7 23  1  0
  4 24  1  0
 23 24  1  0
M  END
