piperidine-amides-28772-covalent
     RDKit          3D

 25 27  0  0  0  0  0  0  0  0999 V2000
    7.0820   -3.3100   19.3320 C   0  0  0  0  0  0  0  0  0  0  0  0
    6.3930   -4.1460   20.3130 C   0  0  0  0  0  0  0  0  0  0  0  0
    5.3420   -4.7090   19.9480 O   0  0  0  0  0  0  0  0  0  0  0  0
    6.9460   -4.3530   21.6090 N   0  0  0  0  0  0  0  0  0  0  0  0
    6.5090   -5.4780   22.3690 C   0  0  0  0  0  0  0  0  0  0  0  0
    5.6410   -4.9900   23.4910 C   0  0  0  0  0  0  0  0  0  0  0  0
    6.3680   -3.8400   24.1720 C   0  0  0  0  0  0  0  0  0  0  0  0
    5.4590   -3.2080   25.1960 C   0  0  0  0  0  0  0  0  0  0  0  0
    4.7280   -2.3130   24.7890 O   0  0  0  0  0  0  0  0  0  0  0  0
    5.4790   -3.6650   26.5130 N   0  0  0  0  0  0  0  0  0  0  0  0
    6.3120   -3.1530   27.4830 C   0  0  0  0  0  0  0  0  0  0  0  0
    6.6590   -4.1660   28.3710 C   0  0  0  0  0  0  0  0  0  0  0  0
    5.6500   -4.5660   29.1670 C   0  0  0  0  0  0  0  0  0  0  0  0
    5.7910   -5.7740   29.8260 C   0  0  0  0  0  0  0  0  0  0  0  0
    6.8700   -6.4750   29.3310 O   0  0  0  0  0  0  0  0  0  0  0  0
    4.9520   -6.2390   30.8680 N   0  0  0  0  0  0  0  0  0  0  0  0
    3.5410   -5.8380   30.9280 C   0  0  0  0  0  0  0  0  0  0  0  0
    2.5640   -6.1810   30.0780 N   0  0  0  0  0  0  0  0  0  0  0  0
    1.3990   -5.6270   30.4570 C   0  0  0  0  0  0  0  0  0  0  0  0
    1.6220   -4.8330   31.6850 C   0  0  0  0  0  0  0  0  0  0  0  0
    3.2330   -4.8130   32.3010 S   0  0  0  0  0  0  0  0  0  0  0  0
    4.3830   -4.4320   28.6630 C   0  0  0  0  0  0  0  0  0  0  0  0
    4.2310   -3.9280   27.1940 C   0  0  0  0  0  0  0  0  0  0  0  0
    6.6900   -2.7490   23.1700 C   0  0  0  0  0  0  0  0  0  0  0  0
    7.6260   -3.3020   22.3220 C   0  0  0  0  0  0  0  0  0  0  0  0
  1  2  1  0
  2  3  2  0
  2  4  1  0
  4  5  1  0
  5  6  1  0
  6  7  1  0
  7  8  1  0
  8  9  2  0
  8 10  1  0
 10 11  1  0
 11 12  1  0
 12 13  1  0
 13 14  1  0
 14 15  2  0
 14 16  1  0
 16 17  1  0
 17 18  2  0
 18 19  1  0
 19 20  2  0
 17 21  1  0
 20 21  1  0
 13 22  1  0
 10 23  1  0
 22 23  1  0
  7 24  1  0
  4 25  1  0
 24 25  1  0
M  END
