piperidine-amides-23350-covalent
     RDKit          3D

 24 26  0  0  0  0  0  0  0  0999 V2000
    7.1350   -3.3880   19.3770 C   0  0  0  0  0  0  0  0  0  0  0  0
    6.4360   -4.2270   20.3590 C   0  0  0  0  0  0  0  0  0  0  0  0
    5.3750   -4.7710   19.9710 O   0  0  0  0  0  0  0  0  0  0  0  0
    6.9920   -4.4530   21.6490 N   0  0  0  0  0  0  0  0  0  0  0  0
    6.6200   -5.5960   22.3910 C   0  0  0  0  0  0  0  0  0  0  0  0
    6.3290   -5.2350   23.7720 C   0  0  0  0  0  0  0  0  0  0  0  0
    5.9970   -3.8050   23.9230 C   0  0  0  0  0  0  0  0  0  0  0  0
    5.7080   -3.3810   25.3370 C   0  0  0  0  0  0  0  0  0  0  0  0
    4.7840   -2.5660   25.5120 O   0  0  0  0  0  0  0  0  0  0  0  0
    6.3860   -3.8500   26.4800 N   0  0  0  0  0  0  0  0  0  0  0  0
    6.9930   -5.1020   26.6520 C   0  0  0  0  0  0  0  0  0  0  0  0
    7.1060   -5.4570   28.0510 C   0  0  0  0  0  0  0  0  0  0  0  0
    6.2550   -4.3300   28.6820 C   0  0  0  0  0  0  0  0  0  0  0  0
    5.9220   -3.3530   27.7490 C   0  0  2  0  0  0  0  0  0  0  0  0
    4.4580   -3.6800   28.0520 C   0  0  0  0  0  0  0  0  0  0  0  0
    4.0390   -3.1280   29.2630 O   0  0  0  0  0  0  0  0  0  0  0  0
    2.8160   -3.6950   29.6290 C   0  0  0  0  0  0  0  0  0  0  0  0
    1.5880   -2.8020   29.5490 C   0  0  0  0  0  0  0  0  0  0  0  0
    0.2070   -3.2530   29.9060 C   0  0  0  0  0  0  0  0  0  0  0  0
    0.0880   -4.6970   30.3660 C   0  0  0  0  0  0  0  0  0  0  0  0
    1.3420   -5.6050   30.4460 C   0  0  0  0  0  0  0  0  0  0  0  0
    2.6580   -5.0000   30.0530 C   0  0  0  0  0  0  0  0  0  0  0  0
    6.9080   -2.8380   23.2140 C   0  0  0  0  0  0  0  0  0  0  0  0
    7.7730   -3.4530   22.3260 C   0  0  0  0  0  0  0  0  0  0  0  0
  1  2  1  0
  2  3  2  0
  2  4  1  0
  4  5  1  0
  5  6  1  0
  6  7  1  0
  7  8  1  0
  8  9  2  0
  8 10  1  0
 10 11  1  0
 11 12  1  0
 12 13  1  0
 10 14  1  0
 13 14  1  0
 14 15  1  6
 15 16  1  0
 16 17  1  0
 17 18  2  0
 18 19  1  0
 19 20  2  0
 20 21  1  0
 17 22  1  0
 21 22  2  0
  7 23  1  0
  4 24  1  0
 23 24  1  0
M  END
