piperidine-amides-23963-covalent
     RDKit          3D

 24 25  0  0  0  0  0  0  0  0999 V2000
    7.1300   -3.3120   19.1990 C   0  0  0  0  0  0  0  0  0  0  0  0
    6.4190   -4.0720   20.2350 C   0  0  0  0  0  0  0  0  0  0  0  0
    5.3220   -4.5880   19.9090 O   0  0  0  0  0  0  0  0  0  0  0  0
    7.0010   -4.2620   21.5120 N   0  0  0  0  0  0  0  0  0  0  0  0
    7.5930   -3.1320   22.1250 C   0  0  0  0  0  0  0  0  0  0  0  0
    6.9130   -2.7570   23.3440 C   0  0  0  0  0  0  0  0  0  0  0  0
    6.5690   -3.8940   24.2180 C   0  0  0  0  0  0  0  0  0  0  0  0
    5.8100   -3.4170   25.4050 C   0  0  0  0  0  0  0  0  0  0  0  0
    4.5670   -3.5130   25.4170 O   0  0  0  0  0  0  0  0  0  0  0  0
    6.4620   -2.8440   26.5060 N   0  0  0  0  0  0  0  0  0  0  0  0
    6.7810   -1.4670   26.6040 C   0  0  0  0  0  0  0  0  0  0  0  0
    6.1200   -3.4320   27.7830 C   0  0  1  0  0  0  0  0  0  0  0  0
    6.9440   -4.6380   28.3030 C   0  0  0  0  0  0  0  0  0  0  0  0
    5.8780   -2.4840   28.8860 C   0  0  0  0  0  0  0  0  0  0  0  0
    7.0710   -1.6140   29.3650 C   0  0  0  0  0  0  0  0  0  0  0  0
    6.7740   -0.6440   30.4940 C   0  0  0  0  0  0  0  0  0  0  0  0
    5.3110   -0.7220   30.9450 C   0  0  0  0  0  0  0  0  0  0  0  0
    4.1680   -1.5610   30.4800 C   0  0  0  0  0  0  0  0  0  0  0  0
    2.8470   -1.5110   31.0130 N   0  0  0  0  0  0  0  0  0  0  0  0
    2.6200   -0.2150   31.4960 O   0  0  0  0  0  0  0  0  0  0  0  0
    1.9800   -2.0360   30.1270 O   0  0  0  0  0  0  0  0  0  0  0  0
    4.5990   -2.4690   29.3690 C   0  0  0  0  0  0  0  0  0  0  0  0
    5.7340   -4.9480   23.4620 C   0  0  0  0  0  0  0  0  0  0  0  0
    6.5530   -5.4170   22.3060 C   0  0  0  0  0  0  0  0  0  0  0  0
  1  2  1  0
  2  3  2  0
  2  4  1  0
  4  5  1  0
  5  6  1  0
  6  7  1  0
  7  8  1  0
  8  9  2  0
  8 10  1  0
 10 11  1  0
 10 12  1  0
 12 13  1  1
 12 14  1  0
 14 15  2  0
 15 16  1  0
 16 17  2  0
 17 18  1  0
 18 19  1  0
 19 20  2  0
 19 21  1  0
 14 22  1  0
 18 22  2  0
  7 23  1  0
  4 24  1  0
 23 24  1  0
M  CHG  2  19   1  21  -1
M  END
