piperidine-amides-19245-covalent
     RDKit          3D

 22 23  0  0  0  0  0  0  0  0999 V2000
    7.0590   -3.3400   19.2300 C   0  0  0  0  0  0  0  0  0  0  0  0
    6.3840   -4.0740   20.2750 C   0  0  0  0  0  0  0  0  0  0  0  0
    5.3250   -4.6890   19.9460 O   0  0  0  0  0  0  0  0  0  0  0  0
    6.8650   -4.1890   21.6000 N   0  0  0  0  0  0  0  0  0  0  0  0
    7.6700   -3.0970   22.1940 C   0  0  0  0  0  0  0  0  0  0  0  0
    6.6820   -2.6260   23.3240 C   0  0  0  0  0  0  0  0  0  0  0  0
    6.4080   -3.8630   24.1500 C   0  0  0  0  0  0  0  0  0  0  0  0
    5.5340   -3.5510   25.4440 C   0  0  0  0  0  0  0  0  0  0  0  0
    4.4370   -4.0700   25.3360 O   0  0  0  0  0  0  0  0  0  0  0  0
    6.1900   -2.8290   26.2570 N   0  0  0  0  0  0  0  0  0  0  0  0
    6.8660   -1.7240   26.6670 C   0  0  0  0  0  0  0  0  0  0  0  0
    6.1410   -3.5130   27.5050 C   0  0  2  0  0  0  0  0  0  0  0  0
    5.8960   -4.9210   27.4960 C   0  0  0  0  0  0  0  0  0  0  0  0
    4.9910   -2.9220   28.3340 C   0  0  0  0  0  0  0  0  0  0  0  0
    5.8380   -2.2850   29.3820 C   0  0  0  0  0  0  0  0  0  0  0  0
    4.9570   -1.6400   30.3130 C   0  0  0  0  0  0  0  0  0  0  0  0
    3.5260   -1.4260   30.5390 C   0  0  0  0  0  0  0  0  0  0  0  0
    2.8920   -2.1790   29.3280 C   0  0  0  0  0  0  0  0  0  0  0  0
    3.5810   -2.9490   28.1870 C   0  0  0  0  0  0  0  0  0  0  0  0
    2.9210   -3.5780   27.1620 C   0  0  0  0  0  0  0  0  0  0  0  0
    5.8130   -5.0480   23.3920 C   0  0  0  0  0  0  0  0  0  0  0  0
    6.6280   -5.3830   22.3650 C   0  0  0  0  0  0  0  0  0  0  0  0
  1  2  1  0
  2  3  2  0
  2  4  1  0
  4  5  1  0
  5  6  1  0
  6  7  1  0
  7  8  1  0
  8  9  2  0
  8 10  1  0
 10 11  1  0
 10 12  1  0
 12 13  1  6
 12 14  1  0
 14 15  2  0
 15 16  1  0
 16 17  2  0
 17 18  1  0
 14 19  1  0
 18 19  2  0
 19 20  1  0
  7 21  1  0
  4 22  1  0
 21 22  1  0
M  END
