piperidine-amides-6328-covalent
     RDKit          3D

 25 27  0  0  0  0  0  0  0  0999 V2000
    7.0650   -3.3150   19.3560 C   0  0  0  0  0  0  0  0  0  0  0  0
    6.3740   -4.1630   20.3430 C   0  0  0  0  0  0  0  0  0  0  0  0
    5.4070   -4.8730   19.9900 O   0  0  0  0  0  0  0  0  0  0  0  0
    6.8120   -4.2110   21.6770 N   0  0  0  0  0  0  0  0  0  0  0  0
    6.6550   -5.4500   22.4110 C   0  0  0  0  0  0  0  0  0  0  0  0
    6.0090   -5.1120   23.7630 C   0  0  0  0  0  0  0  0  0  0  0  0
    6.0740   -3.6080   23.9180 C   0  0  0  0  0  0  0  0  0  0  0  0
    5.6160   -3.1910   25.2580 C   0  0  0  0  0  0  0  0  0  0  0  0
    4.3890   -3.1550   25.4790 O   0  0  0  0  0  0  0  0  0  0  0  0
    6.5680   -2.8610   26.2440 N   0  0  0  0  0  0  0  0  0  0  0  0
    6.5050   -1.6430   26.9990 C   0  0  0  0  0  0  0  0  0  0  0  0
    7.0420   -1.5700   28.4140 C   0  0  0  0  0  0  0  0  0  0  0  0
    7.0000   -0.4030   29.1670 C   0  0  0  0  0  0  0  0  0  0  0  0
    7.5240   -0.4640   30.4300 C   0  0  0  0  0  0  0  0  0  0  0  0
    6.4510    0.7610   28.6490 C   0  0  0  0  0  0  0  0  0  0  0  0
    5.9240    0.8530   27.3830 C   0  0  0  0  0  0  0  0  0  0  0  0
    5.9630   -0.3800   26.5600 C   0  0  0  0  0  0  0  0  0  0  0  0
    5.3010    0.4370   25.4830 C   0  0  0  0  0  0  0  0  0  0  0  0
    3.8490    0.8080   25.8020 C   0  0  0  0  0  0  0  0  0  0  0  0
    3.4840    1.6100   24.5630 C   0  0  0  0  0  0  0  0  0  0  0  0
    4.2610    1.9300   23.4220 C   0  0  0  0  0  0  0  0  0  0  0  0
    5.5160    1.5200   23.3070 C   0  0  0  0  0  0  0  0  0  0  0  0
    6.0710    0.7340   24.3860 C   0  0  0  0  0  0  0  0  0  0  0  0
    7.4550   -3.0630   23.6750 C   0  0  0  0  0  0  0  0  0  0  0  0
    7.6940   -3.1740   22.1690 C   0  0  0  0  0  0  0  0  0  0  0  0
  1  2  1  0
  2  3  2  0
  2  4  1  0
  4  5  1  0
  5  6  1  0
  6  7  1  0
  7  8  1  0
  8  9  2  0
  8 10  1  0
 10 11  1  0
 11 12  2  0
 12 13  1  0
 13 14  1  0
 13 15  2  0
 15 16  1  0
 11 17  1  0
 16 17  2  0
 17 18  1  0
 18 19  2  0
 19 20  1  0
 20 21  2  0
 21 22  1  0
 18 23  1  0
 22 23  2  0
  7 24  1  0
  4 25  1  0
 24 25  1  0
M  END
