piperidine-amides-28722-covalent
     RDKit          3D

 25 26  0  0  0  0  0  0  0  0999 V2000
    6.9930   -3.3780   19.4350 C   0  0  0  0  0  0  0  0  0  0  0  0
    6.3790   -4.2700   20.4220 C   0  0  0  0  0  0  0  0  0  0  0  0
    5.4390   -4.9840   20.0170 O   0  0  0  0  0  0  0  0  0  0  0  0
    6.8600   -4.3340   21.7690 N   0  0  0  0  0  0  0  0  0  0  0  0
    6.6170   -5.5250   22.5650 C   0  0  0  0  0  0  0  0  0  0  0  0
    6.0200   -5.1610   23.9100 C   0  0  0  0  0  0  0  0  0  0  0  0
    6.0380   -3.6590   23.9270 C   0  0  0  0  0  0  0  0  0  0  0  0
    5.3930   -2.9780   25.1260 C   0  0  0  0  0  0  0  0  0  0  0  0
    4.9830   -1.8630   24.8670 O   0  0  0  0  0  0  0  0  0  0  0  0
    5.2180   -3.5390   26.4040 N   0  0  0  0  0  0  0  0  0  0  0  0
    3.9600   -3.4680   27.0200 C   0  0  0  0  0  0  0  0  0  0  0  0
    3.9500   -4.1420   28.2450 C   0  0  0  0  0  0  0  0  0  0  0  0
    4.8760   -5.1250   28.3370 C   0  0  0  0  0  0  0  0  0  0  0  0
    6.0890   -4.9430   27.7650 C   0  0  2  0  0  0  0  0  0  0  0  0
    6.7190   -5.4580   28.9600 C   0  0  0  0  0  0  0  0  0  0  0  0
    5.8630   -5.6240   29.9980 F   0  0  0  0  0  0  0  0  0  0  0  0
    7.3500   -6.6330   28.6620 F   0  0  0  0  0  0  0  0  0  0  0  0
    7.5910   -4.4470   29.0940 F   0  0  0  0  0  0  0  0  0  0  0  0
    6.2690   -3.6360   27.3080 C   0  0  2  0  0  0  0  0  0  0  0  0
    6.0970   -2.5060   28.2610 C   0  0  0  0  0  0  0  0  0  0  0  0
    6.3540   -2.6300   29.4840 O   0  0  0  0  0  0  0  0  0  0  0  0
    5.6390   -1.2900   27.8130 O   0  0  0  0  0  0  0  0  0  0  0  0
    6.3440   -0.5910   26.8110 C   0  0  0  0  0  0  0  0  0  0  0  0
    7.3390   -3.0480   23.6540 C   0  0  0  0  0  0  0  0  0  0  0  0
    7.7010   -3.2880   22.3480 C   0  0  0  0  0  0  0  0  0  0  0  0
  1  2  1  0
  2  3  2  0
  2  4  1  0
  4  5  1  0
  5  6  1  0
  6  7  1  0
  7  8  1  0
  8  9  2  0
  8 10  1  0
 10 11  1  0
 11 12  1  0
 12 13  1  0
 13 14  1  0
 14 15  1  1
 15 16  1  0
 15 17  1  0
 15 18  1  0
 10 19  1  0
 14 19  1  0
 19 20  1  1
 20 21  2  0
 20 22  1  0
 22 23  1  0
  7 24  1  0
  4 25  1  0
 24 25  1  0
M  END
