piperidine-amides-7204-covalent
     RDKit          3D

 21 22  0  0  0  0  0  0  0  0999 V2000
    7.0760   -3.2830   19.2660 C   0  0  0  0  0  0  0  0  0  0  0  0
    6.3550   -4.0520   20.2900 C   0  0  0  0  0  0  0  0  0  0  0  0
    5.2990   -4.6220   19.9110 O   0  0  0  0  0  0  0  0  0  0  0  0
    6.8490   -4.1690   21.5960 N   0  0  0  0  0  0  0  0  0  0  0  0
    6.6990   -5.3990   22.3410 C   0  0  0  0  0  0  0  0  0  0  0  0
    6.0740   -5.0690   23.6670 C   0  0  0  0  0  0  0  0  0  0  0  0
    6.0430   -3.5860   23.9110 C   0  0  0  0  0  0  0  0  0  0  0  0
    5.6290   -3.2680   25.2950 C   0  0  0  0  0  0  0  0  0  0  0  0
    4.4160   -3.0440   25.4980 O   0  0  0  0  0  0  0  0  0  0  0  0
    6.5150   -3.2010   26.3880 N   0  0  0  0  0  0  0  0  0  0  0  0
    6.2400   -3.8620   27.6430 C   0  0  0  0  0  0  0  0  0  0  0  0
    5.8960   -5.3490   27.5310 C   0  0  0  0  0  0  0  0  0  0  0  0
    5.0660   -5.9830   28.4220 C   0  0  0  0  0  0  0  0  0  0  0  0
    4.0870   -5.0600   28.8820 O   0  0  0  0  0  0  0  0  0  0  0  0
    5.7290   -6.5140   29.4890 C   0  0  0  0  0  0  0  0  0  0  0  0
    4.9140   -7.0940   30.4320 C   0  0  0  0  0  0  0  0  0  0  0  0
    3.5920   -7.2770   30.0570 O   0  0  0  0  0  0  0  0  0  0  0  0
    3.2270   -7.1490   28.7040 C   0  0  0  0  0  0  0  0  0  0  0  0
    4.3330   -7.0120   27.8670 C   0  0  0  0  0  0  0  0  0  0  0  0
    7.4140   -2.9710   23.6260 C   0  0  0  0  0  0  0  0  0  0  0  0
    7.6900   -3.1200   22.1340 C   0  0  0  0  0  0  0  0  0  0  0  0
  1  2  1  0
  2  3  2  0
  2  4  1  0
  4  5  1  0
  5  6  1  0
  6  7  1  0
  7  8  1  0
  8  9  2  0
  8 10  1  0
 10 11  1  0
 11 12  1  0
 12 13  1  0
 13 14  1  0
 13 15  1  0
 15 16  1  0
 16 17  1  0
 17 18  1  0
 13 19  1  0
 18 19  1  0
  7 20  1  0
  4 21  1  0
 20 21  1  0
M  END
