piperidine-amides-30316-covalent
     RDKit          3D

 27 30  0  0  0  0  0  0  0  0999 V2000
    7.0260   -3.3810   19.3880 C   0  0  0  0  0  0  0  0  0  0  0  0
    6.3870   -4.2720   20.3480 C   0  0  0  0  0  0  0  0  0  0  0  0
    5.3850   -4.8970   19.9970 O   0  0  0  0  0  0  0  0  0  0  0  0
    6.9420   -4.4790   21.6660 N   0  0  0  0  0  0  0  0  0  0  0  0
    7.6090   -3.4160   22.3660 C   0  0  0  0  0  0  0  0  0  0  0  0
    6.7180   -2.8570   23.4520 C   0  0  0  0  0  0  0  0  0  0  0  0
    6.1190   -3.9740   24.3210 C   0  0  0  0  0  0  0  0  0  0  0  0
    5.0370   -3.4160   25.2190 C   0  0  0  0  0  0  0  0  0  0  0  0
    4.1650   -2.6590   24.7790 O   0  0  0  0  0  0  0  0  0  0  0  0
    5.0160   -3.7500   26.6100 N   0  0  0  0  0  0  0  0  0  0  0  0
    6.2830   -4.1340   27.0010 C   0  0  0  0  0  0  0  0  0  0  0  0
    6.5690   -3.8040   28.4030 C   0  0  0  0  0  0  0  0  0  0  0  0
    5.9960   -2.6450   28.7020 C   0  0  0  0  0  0  0  0  0  0  0  0
    4.6740   -3.0040   28.8170 C   0  0  0  0  0  0  0  0  0  0  0  0
    4.0820   -3.1460   27.5590 C   0  0  0  0  0  0  0  0  0  0  0  0
    5.9280   -1.5700   27.5870 C   0  0  0  0  0  0  0  0  0  0  0  0
    7.0450   -0.7380   27.5540 C   0  0  1  0  0  0  0  0  0  0  0  0
    6.9230    0.4560   27.0240 O   0  0  0  0  0  0  0  0  0  0  0  0
    7.6840   -0.3970   28.7050 C   0  0  0  0  0  0  0  0  0  0  0  0
    8.7190    0.5810   28.8060 N   0  0  0  0  0  0  0  0  0  0  0  0
    8.9220    0.4770   30.0870 N   0  0  0  0  0  0  0  0  0  0  0  0
    9.8800    1.2550   30.6470 C   0  0  0  0  0  0  0  0  0  0  0  0
    8.1010   -0.4690   30.7890 C   0  0  0  0  0  0  0  0  0  0  0  0
    7.2980   -1.0410   29.8360 C   0  0  0  0  0  0  0  0  0  0  0  0
    6.3390   -2.0020   29.8760 O   0  0  0  0  0  0  0  0  0  0  0  0
    5.5240   -5.0910   23.4900 C   0  0  0  0  0  0  0  0  0  0  0  0
    6.4470   -5.5640   22.4150 C   0  0  0  0  0  0  0  0  0  0  0  0
  1  2  1  0
  2  3  2  0
  2  4  1  0
  4  5  1  0
  5  6  1  0
  6  7  1  0
  7  8  1  0
  8  9  2  0
  8 10  1  0
 10 11  1  0
 11 12  1  0
 12 13  1  0
 13 14  1  0
 10 15  1  0
 14 15  1  0
 13 16  1  0
 16 17  1  0
 17 18  1  1
 17 19  1  0
 19 20  2  0
 20 21  1  0
 21 22  1  0
 21 23  1  0
 19 24  1  0
 23 24  2  0
 13 25  1  0
 24 25  1  0
  7 26  1  0
  4 27  1  0
 26 27  1  0
M  END
