piperidine-amides-1691-covalent
     RDKit          3D

 20 21  0  0  0  0  0  0  0  0999 V2000
    7.1360   -3.2640   19.1910 C   0  0  0  0  0  0  0  0  0  0  0  0
    6.3580   -4.0340   20.2020 C   0  0  0  0  0  0  0  0  0  0  0  0
    5.2770   -4.5490   19.8780 O   0  0  0  0  0  0  0  0  0  0  0  0
    6.9000   -4.2060   21.4890 N   0  0  0  0  0  0  0  0  0  0  0  0
    7.7610   -3.2200   22.0920 C   0  0  0  0  0  0  0  0  0  0  0  0
    6.9830   -2.6200   23.2550 C   0  0  0  0  0  0  0  0  0  0  0  0
    6.4110   -3.7570   24.0300 C   0  0  0  0  0  0  0  0  0  0  0  0
    5.5870   -3.2700   25.1500 C   0  0  0  0  0  0  0  0  0  0  0  0
    4.3730   -3.5100   25.1100 O   0  0  0  0  0  0  0  0  0  0  0  0
    6.1900   -2.5630   26.1880 N   0  0  0  0  0  0  0  0  0  0  0  0
    6.1450   -2.8920   27.5520 C   0  0  0  0  0  0  0  0  0  0  0  0
    7.2510   -3.1950   28.2570 C   0  0  2  0  0  0  0  0  0  0  0  0
    8.0960   -2.1460   28.6360 C   0  0  0  0  0  0  0  0  0  0  0  0
    8.0180   -4.2360   27.5480 C   0  0  0  0  0  0  0  0  0  0  0  0
    8.2510   -3.8800   26.2370 N   0  0  0  0  0  0  0  0  0  0  0  0
    8.9410   -4.7380   25.4870 C   0  0  0  0  0  0  0  0  0  0  0  0
    9.3280   -5.9570   26.2560 C   0  0  0  0  0  0  0  0  0  0  0  0
    8.7360   -5.8330   27.8870 S   0  0  0  0  0  0  0  0  0  0  0  0
    5.5910   -4.7480   23.2460 C   0  0  0  0  0  0  0  0  0  0  0  0
    6.4270   -5.2900   22.2900 C   0  0  0  0  0  0  0  0  0  0  0  0
  1  2  1  0
  2  3  2  0
  2  4  1  0
  4  5  1  0
  5  6  1  0
  6  7  1  0
  7  8  1  0
  8  9  2  0
  8 10  1  0
 10 11  1  0
 11 12  1  0
 12 13  1  6
 12 14  1  0
 14 15  2  0
 15 16  1  0
 16 17  2  0
 14 18  1  0
 17 18  1  0
  7 19  1  0
  4 20  1  0
 19 20  1  0
M  END
