piperidine-amides-24314-covalent
     RDKit          3D

 24 26  0  0  0  0  0  0  0  0999 V2000
    6.9950   -3.3490   19.4680 C   0  0  0  0  0  0  0  0  0  0  0  0
    6.3550   -4.2580   20.4340 C   0  0  0  0  0  0  0  0  0  0  0  0
    5.4390   -5.0120   20.0240 O   0  0  0  0  0  0  0  0  0  0  0  0
    6.7640   -4.3220   21.7970 N   0  0  0  0  0  0  0  0  0  0  0  0
    6.4390   -5.5010   22.5960 C   0  0  0  0  0  0  0  0  0  0  0  0
    5.8890   -5.0870   24.0030 C   0  0  0  0  0  0  0  0  0  0  0  0
    5.7740   -3.5760   24.0430 C   0  0  0  0  0  0  0  0  0  0  0  0
    5.0790   -2.9780   25.2630 C   0  0  0  0  0  0  0  0  0  0  0  0
    4.3210   -2.0300   25.0250 O   0  0  0  0  0  0  0  0  0  0  0  0
    5.2150   -3.4200   26.6250 N   0  0  0  0  0  0  0  0  0  0  0  0
    4.5320   -2.8640   27.7780 C   0  0  0  0  0  0  0  0  0  0  0  0
    4.9430   -3.6250   29.0640 C   0  0  0  0  0  0  0  0  0  0  0  0
    5.5250   -4.8450   28.9080 C   0  0  0  0  0  0  0  0  0  0  0  0
    6.2910   -4.9100   27.8800 C   0  0  0  0  0  0  0  0  0  0  0  0
    6.8000   -6.2170   27.8370 N   0  0  0  0  0  0  0  0  0  0  0  0
    6.2680   -6.8500   28.9080 N   0  0  0  0  0  0  0  0  0  0  0  0
    5.4500   -5.9770   29.5890 N   0  0  0  0  0  0  0  0  0  0  0  0
    4.7670   -6.3440   30.7060 C   0  0  0  0  0  0  0  0  0  0  0  0
    5.3100   -7.2690   31.5670 C   0  0  0  0  0  0  0  0  0  0  0  0
    6.0600   -6.9000   32.6260 O   0  0  0  0  0  0  0  0  0  0  0  0
    5.9400   -7.1940   33.9490 C   0  0  0  0  0  0  0  0  0  0  0  0
    6.4300   -3.7930   27.0960 C   0  0  0  0  0  0  0  0  0  0  0  0
    7.0580   -2.9110   23.7320 C   0  0  0  0  0  0  0  0  0  0  0  0
    7.5390   -3.2810   22.4010 C   0  0  0  0  0  0  0  0  0  0  0  0
  1  2  1  0
  2  3  2  0
  2  4  1  0
  4  5  1  0
  5  6  1  0
  6  7  1  0
  7  8  1  0
  8  9  2  0
  8 10  1  0
 10 11  1  0
 11 12  1  0
 12 13  1  0
 13 14  2  0
 14 15  1  0
 15 16  2  0
 13 17  1  0
 16 17  1  0
 17 18  1  0
 18 19  1  0
 19 20  1  0
 20 21  1  0
 10 22  1  0
 14 22  1  0
  7 23  1  0
  4 24  1  0
 23 24  1  0
M  END
