piperidine-amides-23828-covalent
     RDKit          3D

 24 26  0  0  0  0  0  0  0  0999 V2000
    7.0270   -3.3840   19.3970 C   0  0  0  0  0  0  0  0  0  0  0  0
    6.3920   -4.2620   20.4010 C   0  0  0  0  0  0  0  0  0  0  0  0
    5.4130   -4.9430   20.0040 O   0  0  0  0  0  0  0  0  0  0  0  0
    6.9020   -4.3550   21.7320 N   0  0  0  0  0  0  0  0  0  0  0  0
    6.5280   -5.4680   22.5610 C   0  0  0  0  0  0  0  0  0  0  0  0
    6.0120   -5.0690   23.8730 C   0  0  0  0  0  0  0  0  0  0  0  0
    6.2660   -3.6430   24.1020 C   0  0  0  0  0  0  0  0  0  0  0  0
    5.9090   -3.0490   25.4530 C   0  0  0  0  0  0  0  0  0  0  0  0
    6.0820   -1.8370   25.5870 O   0  0  0  0  0  0  0  0  0  0  0  0
    5.3460   -3.7070   26.5730 N   0  0  0  0  0  0  0  0  0  0  0  0
    4.1390   -3.3730   27.1270 C   0  0  0  0  0  0  0  0  0  0  0  0
    3.3480   -4.4350   27.7000 C   0  0  0  0  0  0  0  0  0  0  0  0
    4.1580   -5.4340   28.5450 C   0  0  1  0  0  0  0  0  0  0  0  0
    4.0360   -6.7670   28.1920 C   0  0  0  0  0  0  0  0  0  0  0  0
    4.8720   -6.5880   26.9170 C   0  0  0  0  0  0  0  0  0  0  0  0
    4.7340   -7.7640   29.1320 C   0  0  0  0  0  0  0  0  0  0  0  0
    2.9310   -7.3600   27.4000 C   0  0  0  0  0  0  0  0  0  0  0  0
    5.5040   -4.9830   28.5030 N   0  0  0  0  0  0  0  0  0  0  0  0
    6.5350   -5.3190   29.4460 N   0  0  0  0  0  0  0  0  0  0  0  0
    7.4480   -4.5920   28.8420 C   0  0  0  0  0  0  0  0  0  0  0  0
    6.1800   -4.9390   28.7430 C   0  0  0  0  0  0  0  0  0  0  0  0
    6.2280   -4.1230   27.5790 C   0  0  0  0  0  0  0  0  0  0  0  0
    7.6720   -3.3710   23.6790 C   0  0  0  0  0  0  0  0  0  0  0  0
    7.6790   -3.2420   22.2870 C   0  0  0  0  0  0  0  0  0  0  0  0
  1  2  1  0
  2  3  2  0
  2  4  1  0
  4  5  1  0
  5  6  1  0
  6  7  1  0
  7  8  1  0
  8  9  2  0
  8 10  1  0
 10 11  1  0
 11 12  1  0
 12 13  1  0
 13 14  1  6
 14 15  1  0
 14 16  1  0
 14 17  1  0
 13 18  1  0
 18 19  1  0
 19 20  2  0
 20 21  1  0
 10 22  1  0
 18 22  1  0
 21 22  2  0
  7 23  1  0
  4 24  1  0
 23 24  1  0
M  END
