piperidine-amides-5583-covalent
     RDKit          3D

 18 19  0  0  0  0  0  0  0  0999 V2000
    7.1300   -3.2740   19.2220 C   0  0  0  0  0  0  0  0  0  0  0  0
    6.3710   -4.0340   20.2190 C   0  0  0  0  0  0  0  0  0  0  0  0
    5.2920   -4.5530   19.8880 O   0  0  0  0  0  0  0  0  0  0  0  0
    6.8570   -4.2460   21.5180 N   0  0  0  0  0  0  0  0  0  0  0  0
    6.4990   -5.4250   22.2590 C   0  0  0  0  0  0  0  0  0  0  0  0
    5.8020   -4.9060   23.4910 C   0  0  0  0  0  0  0  0  0  0  0  0
    6.5810   -3.8180   24.1820 C   0  0  0  0  0  0  0  0  0  0  0  0
    5.8580   -3.2560   25.3540 C   0  0  0  0  0  0  0  0  0  0  0  0
    4.6170   -3.0060   25.2730 O   0  0  0  0  0  0  0  0  0  0  0  0
    6.4890   -2.9690   26.5880 N   0  0  0  0  0  0  0  0  0  0  0  0
    6.1340   -3.6800   27.8480 C   0  0  0  0  0  0  0  0  0  0  0  0
    5.2050   -4.7960   27.5420 C   0  0  1  0  0  0  0  0  0  0  0  0
    5.6990   -6.1600   27.7830 C   0  0  0  0  0  0  0  0  0  0  0  0
    4.6980   -6.9660   28.5860 C   0  0  0  0  0  0  0  0  0  0  0  0
    3.7120   -6.0600   28.9490 O   0  0  0  0  0  0  0  0  0  0  0  0
    4.0160   -4.8360   28.4200 C   0  0  0  0  0  0  0  0  0  0  0  0
    6.9020   -2.7100   23.2350 C   0  0  0  0  0  0  0  0  0  0  0  0
    7.5630   -3.1620   22.1290 C   0  0  0  0  0  0  0  0  0  0  0  0
  1  2  1  0
  2  3  2  0
  2  4  1  0
  4  5  1  0
  5  6  1  0
  6  7  1  0
  7  8  1  0
  8  9  2  0
  8 10  1  0
 10 11  1  0
 12 11  1  1
 12 13  1  0
 13 14  1  0
 14 15  1  0
 12 16  1  0
 15 16  1  0
  7 17  1  0
  4 18  1  0
 17 18  1  0
M  END
