piperidine-amides-12183-covalent
     RDKit          3D

 25 26  0  0  0  0  0  0  0  0999 V2000
    7.0970   -3.3060   19.2440 C   0  0  0  0  0  0  0  0  0  0  0  0
    6.3840   -4.0920   20.2440 C   0  0  0  0  0  0  0  0  0  0  0  0
    5.3370   -4.6620   19.9350 O   0  0  0  0  0  0  0  0  0  0  0  0
    6.9270   -4.2620   21.5630 N   0  0  0  0  0  0  0  0  0  0  0  0
    6.5080   -5.3650   22.3760 C   0  0  0  0  0  0  0  0  0  0  0  0
    5.7740   -4.8570   23.5880 C   0  0  0  0  0  0  0  0  0  0  0  0
    6.5970   -3.7580   24.2630 C   0  0  0  0  0  0  0  0  0  0  0  0
    5.8290   -3.1490   25.3880 C   0  0  0  0  0  0  0  0  0  0  0  0
    4.8280   -2.4460   25.1650 O   0  0  0  0  0  0  0  0  0  0  0  0
    6.2290   -3.3400   26.7370 N   0  0  0  0  0  0  0  0  0  0  0  0
    6.0470   -4.6410   27.3560 C   0  0  0  0  0  0  0  0  0  0  0  0
    4.8190   -4.6560   28.2010 C   0  0  0  0  0  0  0  0  0  0  0  0
    3.4680   -4.4850   28.4490 O   0  0  0  0  0  0  0  0  0  0  0  0
    4.1730   -4.2440   27.0930 N   0  0  0  0  0  0  0  0  0  0  0  0
    3.6420   -5.2720   26.3970 C   0  0  0  0  0  0  0  0  0  0  0  0
    3.7940   -6.6760   26.6250 C   0  0  0  0  0  0  0  0  0  0  0  0
    4.5730   -7.0940   27.6860 C   0  0  0  0  0  0  0  0  0  0  0  0
    3.1790   -7.6260   25.8090 C   0  0  0  0  0  0  0  0  0  0  0  0
    2.3780   -7.3760   24.7200 C   0  0  0  0  0  0  0  0  0  0  0  0
    1.7430   -8.2570   23.8740 C   0  0  0  0  0  0  0  0  0  0  0  0
    2.2050   -5.9170   24.4670 C   0  0  0  0  0  0  0  0  0  0  0  0
    2.8470   -4.9470   25.3250 C   0  0  0  0  0  0  0  0  0  0  0  0
    2.6180   -3.6200   25.0100 C   0  0  0  0  0  0  0  0  0  0  0  0
    6.9420   -2.6470   23.3130 C   0  0  0  0  0  0  0  0  0  0  0  0
    7.6610   -3.1880   22.1340 C   0  0  0  0  0  0  0  0  0  0  0  0
  1  2  1  0
  2  3  2  0
  2  4  1  0
  4  5  1  0
  5  6  1  0
  6  7  1  0
  7  8  1  0
  8  9  2  0
  8 10  1  0
 10 11  1  0
 11 12  1  0
 12 13  2  0
 12 14  1  0
 14 15  1  0
 15 16  2  0
 16 17  1  0
 16 18  1  0
 18 19  2  0
 19 20  1  0
 19 21  1  0
 15 22  1  0
 21 22  2  0
 22 23  1  0
  7 24  1  0
  4 25  1  0
 24 25  1  0
M  END
