piperidine-amides-634-covalent
     RDKit          3D

 26 27  0  0  0  0  0  0  0  0999 V2000
    7.1510   -3.2880   19.3470 C   0  0  0  0  0  0  0  0  0  0  0  0
    6.4030   -4.0580   20.3190 C   0  0  0  0  0  0  0  0  0  0  0  0
    5.3720   -4.7000   19.9370 O   0  0  0  0  0  0  0  0  0  0  0  0
    6.8060   -4.1400   21.6640 N   0  0  0  0  0  0  0  0  0  0  0  0
    7.7390   -3.0580   22.1060 C   0  0  0  0  0  0  0  0  0  0  0  0
    7.6260   -3.1520   23.6660 C   0  0  0  0  0  0  0  0  0  0  0  0
    6.2480   -3.6960   23.8620 C   0  0  0  0  0  0  0  0  0  0  0  0
    5.4410   -3.0470   25.0620 C   0  0  0  0  0  0  0  0  0  0  0  0
    4.5480   -2.3500   24.6150 O   0  0  0  0  0  0  0  0  0  0  0  0
    5.9090   -3.4050   26.1830 N   0  0  0  0  0  0  0  0  0  0  0  0
    6.2610   -3.7190   27.4460 C   0  0  2  0  0  0  0  0  0  0  0  0
    6.5010   -4.7930   28.2550 C   0  0  0  0  0  0  0  0  0  0  0  0
    7.6380   -4.8190   29.0400 O   0  0  0  0  0  0  0  0  0  0  0  0
    5.6170   -5.8190   28.2810 O   0  0  0  0  0  0  0  0  0  0  0  0
    5.9130   -6.9120   29.1340 C   0  0  0  0  0  0  0  0  0  0  0  0
    5.2970   -3.4150   28.5900 C   0  0  0  0  0  0  0  0  0  0  0  0
    4.0130   -4.2770   28.6360 C   0  0  0  0  0  0  0  0  0  0  0  0
    3.2090   -3.8900   29.7270 C   0  0  0  0  0  0  0  0  0  0  0  0
    3.4710   -2.8860   30.6670 C   0  0  0  0  0  0  0  0  0  0  0  0
    2.5980   -2.6060   31.6950 O   0  0  0  0  0  0  0  0  0  0  0  0
    2.7070   -3.3100   32.9250 C   0  0  0  0  0  0  0  0  0  0  0  0
    3.0300   -4.8150   32.6360 C   0  0  0  0  0  0  0  0  0  0  0  0
    4.7290   -2.1610   30.4820 C   0  0  0  0  0  0  0  0  0  0  0  0
    5.6110   -2.4180   29.4790 C   0  0  0  0  0  0  0  0  0  0  0  0
    6.1490   -5.1880   23.6460 C   0  0  0  0  0  0  0  0  0  0  0  0
    6.6890   -5.3940   22.3930 C   0  0  0  0  0  0  0  0  0  0  0  0
  1  2  1  0
  2  3  2  0
  2  4  1  0
  4  5  1  0
  5  6  1  0
  6  7  1  0
  7  8  1  0
  8  9  2  0
  8 10  1  0
 11 10  1  6
 11 12  1  0
 12 13  2  0
 12 14  1  0
 14 15  1  0
 11 16  1  0
 16 17  2  0
 17 18  1  0
 18 19  2  0
 19 20  1  0
 20 21  1  0
 21 22  1  0
 19 23  1  0
 16 24  1  0
 23 24  2  0
  7 25  1  0
  4 26  1  0
 25 26  1  0
M  END
