piperidine-amides-7241-covalent
     RDKit          3D

 21 22  0  0  0  0  0  0  0  0999 V2000
    7.0750   -3.2740   19.2750 C   0  0  0  0  0  0  0  0  0  0  0  0
    6.3460   -4.0420   20.2940 C   0  0  0  0  0  0  0  0  0  0  0  0
    5.2930   -4.6120   19.9070 O   0  0  0  0  0  0  0  0  0  0  0  0
    6.8330   -4.1600   21.6000 N   0  0  0  0  0  0  0  0  0  0  0  0
    7.7290   -3.1760   22.1750 C   0  0  0  0  0  0  0  0  0  0  0  0
    7.3760   -3.0100   23.6230 C   0  0  0  0  0  0  0  0  0  0  0  0
    6.0360   -3.6230   23.9060 C   0  0  0  0  0  0  0  0  0  0  0  0
    5.5710   -3.3640   25.2900 C   0  0  0  0  0  0  0  0  0  0  0  0
    4.3730   -3.5990   25.5500 O   0  0  0  0  0  0  0  0  0  0  0  0
    6.3860   -2.8580   26.3180 N   0  0  0  0  0  0  0  0  0  0  0  0
    6.4960   -1.4400   26.5260 C   0  0  0  0  0  0  0  0  0  0  0  0
    6.6670   -1.0650   27.9910 C   0  0  0  0  0  0  0  0  0  0  0  0
    7.0700   -1.7680   29.0760 C   0  0  0  0  0  0  0  0  0  0  0  0
    7.0240   -0.6520   30.4370 S   0  0  0  0  0  0  0  0  0  0  0  0
    6.4480    0.7950   29.5610 C   0  0  0  0  0  0  0  0  0  0  0  0
    6.1680    2.0870   29.9820 C   0  0  0  0  0  0  0  0  0  0  0  0
    5.7060    2.0800   31.2890 C   0  0  0  0  0  0  0  0  0  0  0  0
    7.2880    2.8800   29.9570 C   0  0  0  0  0  0  0  0  0  0  0  0
    6.3210    0.3590   28.2680 N   0  0  0  0  0  0  0  0  0  0  0  0
    6.0800   -5.1360   23.6750 C   0  0  0  0  0  0  0  0  0  0  0  0
    6.6550   -5.4200   22.2870 C   0  0  0  0  0  0  0  0  0  0  0  0
  1  2  1  0
  2  3  2  0
  2  4  1  0
  4  5  1  0
  5  6  1  0
  6  7  1  0
  7  8  1  0
  8  9  2  0
  8 10  1  0
 10 11  1  0
 11 12  1  0
 12 13  2  0
 13 14  1  0
 14 15  1  0
 15 16  1  0
 16 17  1  0
 16 18  1  0
 12 19  1  0
 15 19  2  0
  7 20  1  0
  4 21  1  0
 20 21  1  0
M  END
