piperidine-amides-32235-covalent
     RDKit          3D

 27 29  0  0  0  0  0  0  0  0999 V2000
    7.0850   -3.3630   19.3370 C   0  0  0  0  0  0  0  0  0  0  0  0
    6.4180   -4.2430   20.3280 C   0  0  0  0  0  0  0  0  0  0  0  0
    5.3890   -4.8580   19.9880 O   0  0  0  0  0  0  0  0  0  0  0  0
    7.0040   -4.4080   21.6040 N   0  0  0  0  0  0  0  0  0  0  0  0
    7.7280   -3.3440   22.2410 C   0  0  0  0  0  0  0  0  0  0  0  0
    6.7510   -2.7520   23.2480 C   0  0  0  0  0  0  0  0  0  0  0  0
    6.4470   -3.7900   24.2820 C   0  0  0  0  0  0  0  0  0  0  0  0
    5.7230   -3.1440   25.4150 C   0  0  0  0  0  0  0  0  0  0  0  0
    5.2570   -2.0320   25.1770 O   0  0  0  0  0  0  0  0  0  0  0  0
    5.5390   -3.7630   26.6590 N   0  0  0  0  0  0  0  0  0  0  0  0
    4.7040   -4.8150   26.9500 C   0  0  0  0  0  0  0  0  0  0  0  0
    5.1260   -5.7650   27.8430 C   0  0  0  0  0  0  0  0  0  0  0  0
    5.3880   -5.1480   29.1330 N   0  0  0  0  0  0  0  0  0  0  0  0
    5.0580   -5.8530   30.2790 C   0  0  0  0  0  0  0  0  0  0  0  0
    3.9520   -5.4010   30.9650 C   0  0  0  0  0  0  0  0  0  0  0  0
    3.5360   -6.1010   32.2040 C   0  0  0  0  0  0  0  0  0  0  0  0
    4.3240   -7.3120   32.7170 C   0  0  0  0  0  0  0  0  0  0  0  0
    4.1290   -8.3750   34.1200 S   0  0  0  0  0  0  0  0  0  0  0  0
    5.2440   -9.6730   33.9270 N   0  0  0  0  0  0  0  0  0  0  0  0
    4.4140   -7.5720   35.3770 O   0  0  0  0  0  0  0  0  0  0  0  0
    2.7290   -8.9000   34.1610 O   0  0  0  0  0  0  0  0  0  0  0  0
    5.5120   -7.6600   31.8240 C   0  0  0  0  0  0  0  0  0  0  0  0
    5.7940   -6.9290   30.6880 C   0  0  0  0  0  0  0  0  0  0  0  0
    6.5640   -4.5650   28.5650 C   0  0  0  0  0  0  0  0  0  0  0  0
    6.3030   -3.2940   27.7560 C   0  0  0  0  0  0  0  0  0  0  0  0
    5.7290   -4.9150   23.6340 C   0  0  0  0  0  0  0  0  0  0  0  0
    6.5770   -5.4680   22.4640 C   0  0  0  0  0  0  0  0  0  0  0  0
  1  2  1  0
  2  3  2  0
  2  4  1  0
  4  5  1  0
  5  6  1  0
  6  7  1  0
  7  8  1  0
  8  9  2  0
  8 10  1  0
 10 11  1  0
 11 12  1  0
 12 13  1  0
 13 14  1  0
 14 15  2  0
 15 16  1  0
 16 17  2  0
 17 18  1  0
 18 19  1  0
 18 20  2  0
 18 21  2  0
 17 22  1  0
 14 23  1  0
 22 23  2  0
 13 24  1  0
 10 25  1  0
 24 25  1  0
  7 26  1  0
  4 27  1  0
 26 27  1  0
M  END
