piperidine-amides-31771-covalent
     RDKit          3D

 28 30  0  0  0  0  0  0  0  0999 V2000
    7.1610   -3.2990   19.3770 C   0  0  0  0  0  0  0  0  0  0  0  0
    6.4280   -4.0980   20.3290 C   0  0  0  0  0  0  0  0  0  0  0  0
    5.3680   -4.6890   19.9420 O   0  0  0  0  0  0  0  0  0  0  0  0
    6.8790   -4.2710   21.6540 N   0  0  0  0  0  0  0  0  0  0  0  0
    6.5100   -5.5010   22.3670 C   0  0  0  0  0  0  0  0  0  0  0  0
    5.4580   -4.8790   23.3580 C   0  0  0  0  0  0  0  0  0  0  0  0
    6.2040   -3.8250   24.1530 C   0  0  0  0  0  0  0  0  0  0  0  0
    5.2030   -3.2010   25.2240 C   0  0  0  0  0  0  0  0  0  0  0  0
    4.1570   -2.8750   24.6890 O   0  0  0  0  0  0  0  0  0  0  0  0
    5.7500   -3.2020   26.3670 N   0  0  0  0  0  0  0  0  0  0  0  0
    6.4270   -2.8310   27.4110 C   0  0  0  0  0  0  0  0  0  0  0  0
    6.8220   -3.5270   28.4760 C   0  0  0  0  0  0  0  0  0  0  0  0
    5.7490   -3.6740   29.2880 C   0  0  1  0  0  0  0  0  0  0  0  0
    5.2790   -2.4340   29.9290 C   0  0  0  0  0  0  0  0  0  0  0  0
    3.9350   -2.4100   30.3030 O   0  0  0  0  0  0  0  0  0  0  0  0
    5.9980   -1.2590   30.2350 N   0  0  0  0  0  0  0  0  0  0  0  0
    7.3680   -0.9450   29.8110 C   0  0  0  0  0  0  0  0  0  0  0  0
    4.9930   -0.5220   29.5490 C   0  0  0  0  0  0  0  0  0  0  0  0
    4.8890   -4.2940   28.2160 C   0  0  2  0  0  0  0  0  0  0  0  0
    5.0740   -5.5080   29.1180 C   0  0  0  0  0  0  0  0  0  0  0  0
    6.1040   -6.5760   28.8810 C   0  0  0  0  0  0  0  0  0  0  0  0
    5.9100   -7.4260   29.9040 C   0  0  0  0  0  0  0  0  0  0  0  0
    4.8500   -6.9780   30.7610 N   0  0  0  0  0  0  0  0  0  0  0  0
    4.3750   -5.7930   30.2250 N   0  0  0  0  0  0  0  0  0  0  0  0
    3.2930   -5.1090   30.8910 C   0  0  0  0  0  0  0  0  0  0  0  0
    5.2850   -4.4940   26.8950 C   0  0  0  0  0  0  0  0  0  0  0  0
    6.9850   -2.7840   23.4070 C   0  0  0  0  0  0  0  0  0  0  0  0
    7.6990   -3.3060   22.3280 C   0  0  0  0  0  0  0  0  0  0  0  0
  1  2  1  0
  2  3  2  0
  2  4  1  0
  4  5  1  0
  5  6  1  0
  6  7  1  0
  7  8  1  0
  8  9  2  0
  8 10  1  0
 10 11  1  0
 11 12  1  0
 12 13  1  0
 13 14  1  6
 14 15  2  0
 14 16  1  0
 16 17  1  0
 16 18  1  0
 13 19  1  0
 19 20  1  1
 20 21  2  0
 21 22  1  0
 22 23  2  0
 20 24  1  0
 23 24  1  0
 24 25  1  0
 10 26  1  0
 19 26  1  0
  7 27  1  0
  4 28  1  0
 27 28  1  0
M  END
