piperidine-amides-29080-covalent
     RDKit          3D

 27 29  0  0  0  0  0  0  0  0999 V2000
    7.0560   -3.3490   19.3420 C   0  0  0  0  0  0  0  0  0  0  0  0
    6.4040   -4.2130   20.3220 C   0  0  0  0  0  0  0  0  0  0  0  0
    5.3680   -4.8060   19.9740 O   0  0  0  0  0  0  0  0  0  0  0  0
    6.9830   -4.4090   21.6070 N   0  0  0  0  0  0  0  0  0  0  0  0
    7.6890   -3.3260   22.2300 C   0  0  0  0  0  0  0  0  0  0  0  0
    6.8190   -2.7380   23.2920 C   0  0  0  0  0  0  0  0  0  0  0  0
    6.5690   -3.8290   24.3080 C   0  0  0  0  0  0  0  0  0  0  0  0
    5.7750   -3.2620   25.4430 C   0  0  0  0  0  0  0  0  0  0  0  0
    4.5980   -3.0020   25.1970 O   0  0  0  0  0  0  0  0  0  0  0  0
    6.3980   -3.0730   26.6690 N   0  0  0  0  0  0  0  0  0  0  0  0
    6.5510   -4.1910   27.5490 C   0  0  0  0  0  0  0  0  0  0  0  0
    6.4740   -1.7480   27.2320 C   0  0  0  0  0  0  0  0  0  0  0  0
    7.0370   -1.6280   28.5050 C   0  0  0  0  0  0  0  0  0  0  0  0
    7.1930   -0.4300   29.2150 C   0  0  0  0  0  0  0  0  0  0  0  0
    6.6940    0.7860   28.5060 C   0  0  0  0  0  0  0  0  0  0  0  0
    6.8460    1.9430   29.2220 O   0  0  0  0  0  0  0  0  0  0  0  0
    5.7100    2.0900   30.0210 C   0  0  0  0  0  0  0  0  0  0  0  0
    5.1130    0.8130   30.5000 C   0  0  0  0  0  0  0  0  0  0  0  0
    5.2230    0.6180   31.9940 C   0  0  0  0  0  0  0  0  0  0  0  0
    4.5990   -0.7170   32.4910 C   0  0  0  0  0  0  0  0  0  0  0  0
    4.0250   -1.5830   31.5940 C   0  0  0  0  0  0  0  0  0  0  0  0
    3.9430   -1.3760   30.2450 C   0  0  0  0  0  0  0  0  0  0  0  0
    4.5140   -0.1150   29.6600 C   0  0  0  0  0  0  0  0  0  0  0  0
    6.1470    0.7060   27.2740 C   0  0  0  0  0  0  0  0  0  0  0  0
    6.0180   -0.6090   26.5760 C   0  0  0  0  0  0  0  0  0  0  0  0
    5.8220   -4.9800   23.6490 C   0  0  0  0  0  0  0  0  0  0  0  0
    6.6340   -5.5130   22.4580 C   0  0  0  0  0  0  0  0  0  0  0  0
  1  2  1  0
  2  3  2  0
  2  4  1  0
  4  5  1  0
  5  6  1  0
  6  7  1  0
  7  8  1  0
  8  9  2  0
  8 10  1  0
 10 11  1  0
 10 12  1  0
 12 13  2  0
 13 14  1  0
 14 15  2  0
 15 16  1  0
 16 17  1  0
 17 18  1  0
 18 19  2  0
 19 20  1  0
 20 21  2  0
 21 22  1  0
 18 23  1  0
 22 23  2  0
 15 24  1  0
 12 25  1  0
 24 25  2  0
  7 26  1  0
  4 27  1  0
 26 27  1  0
M  END
