piperidine-amides-14810-covalent
     RDKit          3D

 22 22  0  0  0  0  0  0  0  0999 V2000
    7.1030   -3.2450   19.1940 C   0  0  0  0  0  0  0  0  0  0  0  0
    6.3410   -3.9890   20.2010 C   0  0  0  0  0  0  0  0  0  0  0  0
    5.2640   -4.5060   19.8610 O   0  0  0  0  0  0  0  0  0  0  0  0
    6.8410   -4.1540   21.5090 N   0  0  0  0  0  0  0  0  0  0  0  0
    7.6480   -3.1080   22.0890 C   0  0  0  0  0  0  0  0  0  0  0  0
    7.5160   -3.1280   23.5790 C   0  0  0  0  0  0  0  0  0  0  0  0
    6.0970   -3.5430   23.8890 C   0  0  0  0  0  0  0  0  0  0  0  0
    5.7150   -3.1330   25.2800 C   0  0  0  0  0  0  0  0  0  0  0  0
    4.5080   -3.0930   25.5180 O   0  0  0  0  0  0  0  0  0  0  0  0
    6.7320   -2.8230   26.1860 N   0  0  0  0  0  0  0  0  0  0  0  0
    6.7080   -3.2600   27.5480 C   0  0  0  0  0  0  0  0  0  0  0  0
    5.8370   -4.3270   27.8270 C   0  0  0  0  0  0  0  0  0  0  0  0
    6.2980   -5.9350   28.0170 S   0  0  0  0  0  0  0  0  0  0  0  0
    6.8260   -6.2510   29.3940 O   0  0  0  0  0  0  0  0  0  0  0  0
    5.1320   -6.8080   27.6700 O   0  0  0  0  0  0  0  0  0  0  0  0
    7.5170   -5.9170   26.7830 C   0  0  0  0  0  0  0  0  0  0  0  0
    8.6340   -5.2120   27.0070 C   0  0  0  0  0  0  0  0  0  0  0  0
    9.8080   -5.7470   26.5620 F   0  0  0  0  0  0  0  0  0  0  0  0
    8.7260   -4.7960   28.2890 F   0  0  0  0  0  0  0  0  0  0  0  0
    8.4900   -4.0890   26.1690 F   0  0  0  0  0  0  0  0  0  0  0  0
    5.9570   -5.0260   23.6450 C   0  0  0  0  0  0  0  0  0  0  0  0
    6.5860   -5.3370   22.2740 C   0  0  0  0  0  0  0  0  0  0  0  0
  1  2  1  0
  2  3  2  0
  2  4  1  0
  4  5  1  0
  5  6  1  0
  6  7  1  0
  7  8  1  0
  8  9  2  0
  8 10  1  0
 10 11  1  0
 11 12  1  0
 13 12  1  0
 13 14  2  0
 13 15  2  0
 13 16  1  0
 16 17  1  0
 17 18  1  0
 17 19  1  0
 17 20  1  0
  7 21  1  0
  4 22  1  0
 21 22  1  0
M  END
