piperidine-amides-28118-covalent
     RDKit          3D

 24 25  0  0  0  0  0  0  0  0999 V2000
    7.0310   -3.3420   19.3500 C   0  0  0  0  0  0  0  0  0  0  0  0
    6.3580   -4.2030   20.3490 C   0  0  0  0  0  0  0  0  0  0  0  0
    5.3410   -4.8100   19.9650 O   0  0  0  0  0  0  0  0  0  0  0  0
    6.8750   -4.3670   21.6490 N   0  0  0  0  0  0  0  0  0  0  0  0
    7.5960   -3.3100   22.2640 C   0  0  0  0  0  0  0  0  0  0  0  0
    7.2690   -3.1890   23.6740 C   0  0  0  0  0  0  0  0  0  0  0  0
    5.9300   -3.6630   24.0070 C   0  0  0  0  0  0  0  0  0  0  0  0
    5.4930   -3.3130   25.3940 C   0  0  0  0  0  0  0  0  0  0  0  0
    4.2600   -3.2550   25.5610 O   0  0  0  0  0  0  0  0  0  0  0  0
    6.3280   -3.0380   26.5150 N   0  0  0  0  0  0  0  0  0  0  0  0
    6.5460   -4.1810   27.4640 C   0  0  0  0  0  0  0  0  0  0  0  0
    7.2820   -5.3530   26.8920 C   0  0  0  0  0  0  0  0  0  0  0  0
    6.1640   -1.8160   27.2650 C   0  0  1  0  0  0  0  0  0  0  0  0
    7.0170   -1.5650   28.3100 C   0  0  0  0  0  0  0  0  0  0  0  0
    6.6570   -0.5450   29.1490 C   0  0  0  0  0  0  0  0  0  0  0  0
    5.9510    0.4630   28.5630 C   0  0  1  0  0  0  0  0  0  0  0  0
    6.4030    1.9460   29.5340 S   0  0  0  0  0  0  0  0  0  0  0  0
    6.0000    3.3470   28.6740 N   0  0  0  0  0  0  0  0  0  0  0  0
    5.5740    1.9100   30.7610 O   0  0  0  0  0  0  0  0  0  0  0  0
    7.8580    1.9180   29.7880 O   0  0  0  0  0  0  0  0  0  0  0  0
    5.8930    0.4920   27.1870 C   0  0  0  0  0  0  0  0  0  0  0  0
    5.9690   -0.6970   26.4850 C   0  0  0  0  0  0  0  0  0  0  0  0
    5.8120   -5.1370   23.6880 C   0  0  0  0  0  0  0  0  0  0  0  0
    6.5940   -5.5270   22.4720 C   0  0  0  0  0  0  0  0  0  0  0  0
  1  2  1  0
  2  3  2  0
  2  4  1  0
  4  5  1  0
  5  6  1  0
  6  7  1  0
  7  8  1  0
  8  9  2  0
  8 10  1  0
 10 11  1  0
 11 12  1  0
 13 10  1  6
 13 14  1  0
 14 15  1  0
 15 16  1  0
 16 17  1  6
 17 18  1  0
 17 19  2  0
 17 20  2  0
 16 21  1  0
 13 22  1  0
 21 22  1  0
  7 23  1  0
  4 24  1  0
 23 24  1  0
M  END
