piperidine-amides-28103-covalent
     RDKit          3D

 26 29  0  0  0  0  0  0  0  0999 V2000
    7.1020   -3.3290   19.3110 C   0  0  0  0  0  0  0  0  0  0  0  0
    6.4160   -4.1780   20.3060 C   0  0  0  0  0  0  0  0  0  0  0  0
    5.3520   -4.7190   19.9480 O   0  0  0  0  0  0  0  0  0  0  0  0
    6.9910   -4.4020   21.5650 N   0  0  0  0  0  0  0  0  0  0  0  0
    6.5760   -5.5180   22.3340 C   0  0  0  0  0  0  0  0  0  0  0  0
    5.9500   -5.1470   23.6090 C   0  0  0  0  0  0  0  0  0  0  0  0
    6.4180   -3.8840   24.2370 C   0  0  0  0  0  0  0  0  0  0  0  0
    5.3860   -3.3730   25.1750 C   0  0  0  0  0  0  0  0  0  0  0  0
    4.4250   -2.7630   24.6870 O   0  0  0  0  0  0  0  0  0  0  0  0
    5.4510   -3.5550   26.5650 N   0  0  0  0  0  0  0  0  0  0  0  0
    4.2300   -3.8810   27.3300 C   0  0  0  0  0  0  0  0  0  0  0  0
    4.5230   -4.5840   28.6070 C   0  0  0  0  0  0  0  0  0  0  0  0
    5.7280   -4.1970   29.2820 C   0  0  0  0  0  0  0  0  0  0  0  0
    5.3120   -2.9490   29.8980 N   0  0  0  0  0  0  0  0  0  0  0  0
    6.1010   -1.8580   29.8250 N   0  0  0  0  0  0  0  0  0  0  0  0
    5.3450   -0.9950   30.5100 C   0  0  0  0  0  0  0  0  0  0  0  0
    4.2280   -1.5410   30.9310 C   0  0  0  0  0  0  0  0  0  0  0  0
    4.1360   -2.8190   30.5650 N   0  0  0  0  0  0  0  0  0  0  0  0
    3.2470   -0.9580   31.6490 C   0  0  0  0  0  0  0  0  0  0  0  0
    3.7760    0.1740   32.2160 C   0  0  0  0  0  0  0  0  0  0  0  0
    4.4890    0.9770   31.3470 C   0  0  0  0  0  0  0  0  0  0  0  0
    5.6030    0.3170   30.8000 C   0  0  0  0  0  0  0  0  0  0  0  0
    6.7170   -4.1280   28.4210 C   0  0  0  0  0  0  0  0  0  0  0  0
    6.4800   -3.1000   27.3370 C   0  0  0  0  0  0  0  0  0  0  0  0
    6.8400   -2.8300   23.2060 C   0  0  0  0  0  0  0  0  0  0  0  0
    7.7250   -3.3760   22.2650 C   0  0  0  0  0  0  0  0  0  0  0  0
  1  2  1  0
  2  3  2  0
  2  4  1  0
  4  5  1  0
  5  6  1  0
  6  7  1  0
  7  8  1  0
  8  9  2  0
  8 10  1  0
 10 11  1  0
 11 12  1  0
 12 13  1  0
 13 14  1  0
 14 15  1  0
 15 16  2  0
 16 17  1  0
 14 18  1  0
 17 18  2  0
 17 19  1  0
 19 20  1  0
 20 21  1  0
 16 22  1  0
 21 22  1  0
 13 23  1  0
 10 24  1  0
 23 24  1  0
  7 25  1  0
  4 26  1  0
 25 26  1  0
M  END
