piperidine-amides-2816-covalent
     RDKit          3D

 24 26  0  0  0  0  0  0  0  0999 V2000
    7.0660   -3.3300   19.2710 C   0  0  0  0  0  0  0  0  0  0  0  0
    6.2660   -4.0930   20.2220 C   0  0  0  0  0  0  0  0  0  0  0  0
    5.1910   -4.5580   19.8690 O   0  0  0  0  0  0  0  0  0  0  0  0
    6.7510   -4.3690   21.5400 N   0  0  0  0  0  0  0  0  0  0  0  0
    6.2850   -5.5320   22.2350 C   0  0  0  0  0  0  0  0  0  0  0  0
    6.1720   -5.2310   23.7090 C   0  0  0  0  0  0  0  0  0  0  0  0
    5.6040   -3.8230   23.9090 C   0  0  0  0  0  0  0  0  0  0  0  0
    5.4130   -3.4860   25.3620 C   0  0  0  0  0  0  0  0  0  0  0  0
    4.7120   -2.5170   25.7150 O   0  0  0  0  0  0  0  0  0  0  0  0
    6.0150   -4.2850   26.3810 N   0  0  0  0  0  0  0  0  0  0  0  0
    7.4300   -4.1650   26.6120 C   0  0  0  0  0  0  0  0  0  0  0  0
    7.9070   -3.5180   25.3550 C   0  0  1  0  0  0  0  0  0  0  0  0
    8.1680   -2.1830   25.3440 C   0  0  0  0  0  0  0  0  0  0  0  0
    9.2600   -1.9530   24.5860 C   0  0  0  0  0  0  0  0  0  0  0  0
    9.8810   -3.1440   24.4630 C   0  0  1  0  0  0  0  0  0  0  0  0
   11.2470   -3.0190   24.8210 C   0  0  0  0  0  0  0  0  0  0  0  0
   11.9380   -3.8420   25.6840 C   0  0  0  0  0  0  0  0  0  0  0  0
   13.2700   -3.6050   25.9510 C   0  0  0  0  0  0  0  0  0  0  0  0
   13.9410   -2.5700   25.4010 C   0  0  0  0  0  0  0  0  0  0  0  0
   13.2300   -1.7020   24.4960 C   0  0  0  0  0  0  0  0  0  0  0  0
   11.9170   -1.9580   24.2390 C   0  0  0  0  0  0  0  0  0  0  0  0
    9.1570   -4.0320   24.9880 O   0  0  0  0  0  0  0  0  0  0  0  0
    6.4090   -2.7310   23.2220 C   0  0  0  0  0  0  0  0  0  0  0  0
    7.3730   -3.3220   22.2540 C   0  0  0  0  0  0  0  0  0  0  0  0
  1  2  1  0
  2  3  2  0
  2  4  1  0
  4  5  1  0
  5  6  1  0
  6  7  1  0
  7  8  1  0
  8  9  2  0
  8 10  1  0
 10 11  1  0
 12 11  1  1
 12 13  1  0
 13 14  1  0
 14 15  1  0
 15 16  1  1
 16 17  2  0
 17 18  1  0
 18 19  2  0
 19 20  1  0
 16 21  1  0
 20 21  2  0
 12 22  1  0
 15 22  1  0
  7 23  1  0
  4 24  1  0
 23 24  1  0
M  END
