piperidine-amides-28167-covalent
     RDKit          3D

 26 28  0  0  0  0  0  0  0  0999 V2000
    7.1490   -3.3300   19.1960 C   0  0  0  0  0  0  0  0  0  0  0  0
    6.3510   -4.0320   20.2200 C   0  0  0  0  0  0  0  0  0  0  0  0
    5.2570   -4.5080   19.8660 O   0  0  0  0  0  0  0  0  0  0  0  0
    6.8620   -4.1940   21.5030 N   0  0  0  0  0  0  0  0  0  0  0  0
    6.5420   -5.3610   22.2580 C   0  0  0  0  0  0  0  0  0  0  0  0
    6.1330   -5.0860   23.6330 C   0  0  0  0  0  0  0  0  0  0  0  0
    6.7190   -3.8760   24.2530 C   0  0  0  0  0  0  0  0  0  0  0  0
    5.8960   -3.4450   25.3910 C   0  0  0  0  0  0  0  0  0  0  0  0
    4.9560   -2.6570   25.1900 O   0  0  0  0  0  0  0  0  0  0  0  0
    6.1700   -3.9210   26.6680 N   0  0  0  0  0  0  0  0  0  0  0  0
    6.9340   -5.1820   26.8390 C   0  0  0  0  0  0  0  0  0  0  0  0
    7.0180   -5.3460   28.2760 C   0  0  0  0  0  0  0  0  0  0  0  0
    6.1990   -4.3110   28.8390 C   0  0  0  0  0  0  0  0  0  0  0  0
    5.5040   -3.5370   27.9350 C   0  0  2  0  0  0  0  0  0  0  0  0
    4.1270   -3.6510   27.8110 C   0  0  0  0  0  0  0  0  0  0  0  0
    3.5390   -4.9210   27.4610 N   0  0  0  0  0  0  0  0  0  0  0  0
    2.2100   -5.1230   27.3200 C   0  0  0  0  0  0  0  0  0  0  0  0
    1.4450   -4.0100   27.5380 C   0  0  0  0  0  0  0  0  0  0  0  0
    0.0990   -3.7750   27.5010 C   0  0  0  0  0  0  0  0  0  0  0  0
   -0.5240   -3.0410   28.4560 O   0  0  0  0  0  0  0  0  0  0  0  0
   -0.6370   -4.2980   26.4680 O   0  0  0  0  0  0  0  0  0  0  0  0
   -1.2310   -3.3500   25.6610 C   0  0  0  0  0  0  0  0  0  0  0  0
    1.9470   -2.6230   27.9110 C   0  0  0  0  0  0  0  0  0  0  0  0
    3.2650   -2.5320   28.0240 N   0  0  0  0  0  0  0  0  0  0  0  0
    6.8490   -2.7180   23.3370 C   0  0  0  0  0  0  0  0  0  0  0  0
    7.6080   -3.1260   22.1310 C   0  0  0  0  0  0  0  0  0  0  0  0
  1  2  1  0
  2  3  2  0
  2  4  1  0
  4  5  1  0
  5  6  1  0
  6  7  1  0
  7  8  1  0
  8  9  2  0
  8 10  1  0
 10 11  1  0
 11 12  1  0
 12 13  1  0
 10 14  1  0
 13 14  1  0
 14 15  1  6
 15 16  2  0
 16 17  1  0
 17 18  2  0
 18 19  1  0
 19 20  2  0
 19 21  1  0
 21 22  1  0
 18 23  1  0
 15 24  1  0
 23 24  2  0
  7 25  1  0
  4 26  1  0
 25 26  1  0
M  END
