piperidine-amides-32373-covalent
     RDKit          3D

 28 29  0  0  0  0  0  0  0  0999 V2000
    7.0640   -3.3650   19.3950 C   0  0  0  0  0  0  0  0  0  0  0  0
    6.3290   -4.2180   20.3670 C   0  0  0  0  0  0  0  0  0  0  0  0
    5.3220   -4.8270   19.9720 O   0  0  0  0  0  0  0  0  0  0  0  0
    6.8160   -4.3620   21.6880 N   0  0  0  0  0  0  0  0  0  0  0  0
    6.6240   -5.6000   22.4160 C   0  0  0  0  0  0  0  0  0  0  0  0
    6.2350   -5.2850   23.8740 C   0  0  0  0  0  0  0  0  0  0  0  0
    6.0890   -3.8100   24.0360 C   0  0  0  0  0  0  0  0  0  0  0  0
    5.4730   -3.3780   25.3330 C   0  0  0  0  0  0  0  0  0  0  0  0
    4.2390   -3.4310   25.3400 O   0  0  0  0  0  0  0  0  0  0  0  0
    6.1780   -2.9440   26.4780 N   0  0  0  0  0  0  0  0  0  0  0  0
    6.2830   -3.7500   27.6500 C   0  0  0  0  0  0  0  0  0  0  0  0
    6.3760   -1.5270   26.6490 C   0  0  0  0  0  0  0  0  0  0  0  0
    6.8650   -1.0350   25.4200 C   0  0  0  0  0  0  0  0  0  0  0  0
    6.6410    0.4010   25.2600 N   0  0  0  0  0  0  0  0  0  0  0  0
    6.3150    1.0170   24.0780 C   0  0  0  0  0  0  0  0  0  0  0  0
    5.2950    0.5820   23.3530 O   0  0  0  0  0  0  0  0  0  0  0  0
    7.0300    2.0950   23.6070 O   0  0  0  0  0  0  0  0  0  0  0  0
    7.1940    2.4170   22.2160 C   0  0  0  0  0  0  0  0  0  0  0  0
    7.2440    3.9440   22.0780 C   0  0  0  0  0  0  0  0  0  0  0  0
    8.1550    1.7570   21.5210 C   0  0  0  0  0  0  0  0  0  0  0  0
    5.9350    2.1420   21.4590 C   0  0  0  0  0  0  0  0  0  0  0  0
    7.1370   -1.3970   27.7890 C   0  0  0  0  0  0  0  0  0  0  0  0
    6.1220   -0.5270   28.5060 C   0  0  0  0  0  0  0  0  0  0  0  0
    6.3280    0.8220   28.6120 C   0  0  0  0  0  0  0  0  0  0  0  0
    5.1480    0.4180   27.6940 C   0  0  0  0  0  0  0  0  0  0  0  0
    5.1900   -0.9090   26.9480 C   0  0  0  0  0  0  0  0  0  0  0  0
    7.3940   -3.1180   23.7110 C   0  0  0  0  0  0  0  0  0  0  0  0
    7.6630   -3.3140   22.2670 C   0  0  0  0  0  0  0  0  0  0  0  0
  1  2  1  0
  2  3  2  0
  2  4  1  0
  4  5  1  0
  5  6  1  0
  6  7  1  0
  7  8  1  0
  8  9  2  0
  8 10  1  0
 10 11  1  0
 12 10  1  0
 12 13  1  0
 13 14  1  0
 14 15  1  0
 15 16  2  0
 15 17  1  0
 18 17  1  0
 18 19  1  0
 18 20  1  0
 18 21  1  0
 12 22  1  0
 22 23  1  0
 23 24  1  0
 24 25  1  0
 12 26  1  0
 25 26  1  0
  7 27  1  0
  4 28  1  0
 27 28  1  0
M  END
