piperidine-amides-29072-covalent
     RDKit          3D

 26 28  0  0  0  0  0  0  0  0999 V2000
    7.0200   -3.3620   19.4110 C   0  0  0  0  0  0  0  0  0  0  0  0
    6.3890   -4.2430   20.3990 C   0  0  0  0  0  0  0  0  0  0  0  0
    5.4280   -4.9310   20.0050 O   0  0  0  0  0  0  0  0  0  0  0  0
    6.8860   -4.3200   21.7350 N   0  0  0  0  0  0  0  0  0  0  0  0
    6.6200   -5.5190   22.4960 C   0  0  0  0  0  0  0  0  0  0  0  0
    6.0750   -5.1820   23.8690 C   0  0  0  0  0  0  0  0  0  0  0  0
    5.9810   -3.6790   23.9370 C   0  0  0  0  0  0  0  0  0  0  0  0
    5.2410   -3.1250   25.1450 C   0  0  0  0  0  0  0  0  0  0  0  0
    4.3840   -2.3050   24.8650 O   0  0  0  0  0  0  0  0  0  0  0  0
    5.4970   -3.5150   26.4600 N   0  0  0  0  0  0  0  0  0  0  0  0
    4.6350   -4.2390   27.2960 C   0  0  0  0  0  0  0  0  0  0  0  0
    5.3770   -4.7570   28.3590 C   0  0  0  0  0  0  0  0  0  0  0  0
    4.7040   -4.7310   29.5680 C   0  0  0  0  0  0  0  0  0  0  0  0
    4.7220   -5.8740   30.3640 C   0  0  0  0  0  0  0  0  0  0  0  0
    6.0150   -6.2440   30.6150 O   0  0  0  0  0  0  0  0  0  0  0  0
    6.5610   -6.3870   29.3950 C   0  0  0  0  0  0  0  0  0  0  0  0
    5.7510   -6.0960   28.1460 C   0  0  0  0  0  0  0  0  0  0  0  0
    6.4410   -3.8890   28.4340 C   0  0  0  0  0  0  0  0  0  0  0  0
    6.5240   -2.9520   27.2300 C   0  0  2  0  0  0  0  0  0  0  0  0
    6.2420   -1.4800   27.6490 C   0  0  0  0  0  0  0  0  0  0  0  0
    7.0370   -0.9630   28.6570 C   0  0  0  0  0  0  0  0  0  0  0  0
    7.9000   -1.7940   29.3720 O   0  0  0  0  0  0  0  0  0  0  0  0
    7.0780    0.3490   29.0440 O   0  0  0  0  0  0  0  0  0  0  0  0
    7.1830    0.7640   30.3750 C   0  0  0  0  0  0  0  0  0  0  0  0
    7.3060   -3.0410   23.7310 C   0  0  0  0  0  0  0  0  0  0  0  0
    7.7140   -3.2690   22.3020 C   0  0  0  0  0  0  0  0  0  0  0  0
  1  2  1  0
  2  3  2  0
  2  4  1  0
  4  5  1  0
  5  6  1  0
  6  7  1  0
  7  8  1  0
  8  9  2  0
  8 10  1  0
 10 11  1  0
 12 11  1  0
 12 13  1  0
 13 14  1  0
 14 15  1  0
 15 16  1  0
 12 17  1  0
 16 17  1  0
 12 18  1  0
 10 19  1  0
 18 19  1  0
 19 20  1  1
 20 21  1  0
 21 22  2  0
 21 23  1  0
 23 24  1  0
  7 25  1  0
  4 26  1  0
 25 26  1  0
M  END
