piperidine-amides-32410-covalent
     RDKit          3D

 28 30  0  0  0  0  0  0  0  0999 V2000
    7.1030   -3.3450   19.3220 C   0  0  0  0  0  0  0  0  0  0  0  0
    6.3950   -4.2030   20.3010 C   0  0  0  0  0  0  0  0  0  0  0  0
    5.3480   -4.7750   19.9620 O   0  0  0  0  0  0  0  0  0  0  0  0
    6.9700   -4.3910   21.5700 N   0  0  0  0  0  0  0  0  0  0  0  0
    6.6080   -5.5120   22.3870 C   0  0  0  0  0  0  0  0  0  0  0  0
    5.7510   -4.9300   23.5140 C   0  0  0  0  0  0  0  0  0  0  0  0
    6.5530   -3.8600   24.1950 C   0  0  0  0  0  0  0  0  0  0  0  0
    5.8480   -3.3180   25.3790 C   0  0  0  0  0  0  0  0  0  0  0  0
    5.0640   -2.3870   25.1870 O   0  0  0  0  0  0  0  0  0  0  0  0
    6.0680   -3.8920   26.6230 N   0  0  0  0  0  0  0  0  0  0  0  0
    5.9260   -3.2330   27.8890 C   0  0  0  0  0  0  0  0  0  0  0  0
    5.3390   -3.8860   28.9300 C   0  0  0  0  0  0  0  0  0  0  0  0
    5.3940   -5.2500   29.0780 C   0  0  0  0  0  0  0  0  0  0  0  0
    4.7570   -5.9410   30.0950 C   0  0  0  0  0  0  0  0  0  0  0  0
    3.3450   -5.5990   30.3990 C   0  0  0  0  0  0  0  0  0  0  0  0
    2.5560   -6.2890   31.5020 C   0  0  0  0  0  0  0  0  0  0  0  0
    3.3570   -7.3480   32.2430 C   0  0  0  0  0  0  0  0  0  0  0  0
    4.6690   -7.6060   31.8950 C   0  0  0  0  0  0  0  0  0  0  0  0
    5.1940   -8.6000   32.6960 O   0  0  0  0  0  0  0  0  0  0  0  0
    5.5010   -8.3760   34.0520 C   0  0  0  0  0  0  0  0  0  0  0  0
    6.0310   -7.1430   34.2320 F   0  0  0  0  0  0  0  0  0  0  0  0
    6.3720   -9.3010   34.5530 F   0  0  0  0  0  0  0  0  0  0  0  0
    4.3110   -8.4190   34.7610 F   0  0  0  0  0  0  0  0  0  0  0  0
    5.3610   -6.9350   30.8540 C   0  0  0  0  0  0  0  0  0  0  0  0
    6.0830   -5.8910   28.0970 C   0  0  0  0  0  0  0  0  0  0  0  0
    5.9500   -5.3600   26.6630 C   0  0  0  0  0  0  0  0  0  0  0  0
    7.0380   -2.7570   23.3220 C   0  0  0  0  0  0  0  0  0  0  0  0
    7.8140   -3.3860   22.1760 C   0  0  0  0  0  0  0  0  0  0  0  0
  1  2  1  0
  2  3  2  0
  2  4  1  0
  4  5  1  0
  5  6  1  0
  6  7  1  0
  7  8  1  0
  8  9  2  0
  8 10  1  0
 10 11  1  0
 11 12  1  0
 12 13  2  0
 13 14  1  0
 14 15  2  0
 15 16  1  0
 16 17  2  0
 17 18  1  0
 18 19  1  0
 19 20  1  0
 20 21  1  0
 20 22  1  0
 20 23  1  0
 14 24  1  0
 18 24  2  0
 13 25  1  0
 10 26  1  0
 25 26  1  0
  7 27  1  0
  4 28  1  0
 27 28  1  0
M  END
