piperidine-amides-10564-covalent
     RDKit          3D

 23 25  0  0  0  0  0  0  0  0999 V2000
    7.0900   -3.3380   19.3030 C   0  0  0  0  0  0  0  0  0  0  0  0
    6.3540   -4.1150   20.2960 C   0  0  0  0  0  0  0  0  0  0  0  0
    5.2840   -4.6520   19.9180 O   0  0  0  0  0  0  0  0  0  0  0  0
    6.8800   -4.2740   21.5760 N   0  0  0  0  0  0  0  0  0  0  0  0
    7.6870   -3.2440   22.1840 C   0  0  0  0  0  0  0  0  0  0  0  0
    6.9410   -2.7370   23.3780 C   0  0  0  0  0  0  0  0  0  0  0  0
    6.5280   -3.8720   24.2630 C   0  0  0  0  0  0  0  0  0  0  0  0
    5.8090   -3.3650   25.4590 C   0  0  0  0  0  0  0  0  0  0  0  0
    4.5500   -3.4010   25.4910 O   0  0  0  0  0  0  0  0  0  0  0  0
    6.4960   -2.8280   26.5700 N   0  0  0  0  0  0  0  0  0  0  0  0
    6.0760   -1.6070   27.2300 C   0  0  0  0  0  0  0  0  0  0  0  0
    6.9770   -1.3890   28.4170 C   0  0  0  0  0  0  0  0  0  0  0  0
    6.6730   -0.4070   29.2950 C   0  0  0  0  0  0  0  0  0  0  0  0
    5.9360    0.6250   28.8020 N   0  0  0  0  0  0  0  0  0  0  0  0
    4.7840    1.0300   29.3800 C   0  0  0  0  0  0  0  0  0  0  0  0
    4.8530    2.3090   29.6770 N   0  0  0  0  0  0  0  0  0  0  0  0
    3.7150    2.6240   30.2310 N   0  0  0  0  0  0  0  0  0  0  0  0
    2.9090    1.4250   30.2610 C   0  0  0  0  0  0  0  0  0  0  0  0
    3.6460    0.4130   29.6980 N   0  0  0  0  0  0  0  0  0  0  0  0
    5.8250    0.7200   27.4460 C   0  0  0  0  0  0  0  0  0  0  0  0
    5.8080   -0.4130   26.6190 C   0  0  0  0  0  0  0  0  0  0  0  0
    5.6520   -4.8750   23.5030 C   0  0  0  0  0  0  0  0  0  0  0  0
    6.5030   -5.4180   22.3560 C   0  0  0  0  0  0  0  0  0  0  0  0
  1  2  1  0
  2  3  2  0
  2  4  1  0
  4  5  1  0
  5  6  1  0
  6  7  1  0
  7  8  1  0
  8  9  2  0
  8 10  1  0
 10 11  1  0
 11 12  1  0
 12 13  1  0
 13 14  1  0
 14 15  1  0
 15 16  2  0
 16 17  1  0
 17 18  2  0
 15 19  1  0
 18 19  1  0
 14 20  1  0
 11 21  1  0
 20 21  1  0
  7 22  1  0
  4 23  1  0
 22 23  1  0
M  END
