piperidine-amides-24746-covalent
     RDKit          3D

 24 25  0  0  0  0  0  0  0  0999 V2000
    7.0670   -3.2720   19.1970 C   0  0  0  0  0  0  0  0  0  0  0  0
    6.3130   -4.0470   20.1990 C   0  0  0  0  0  0  0  0  0  0  0  0
    5.2530   -4.6200   19.8910 O   0  0  0  0  0  0  0  0  0  0  0  0
    6.7960   -4.1920   21.5000 N   0  0  0  0  0  0  0  0  0  0  0  0
    7.5920   -3.1410   22.0850 C   0  0  0  0  0  0  0  0  0  0  0  0
    7.2880   -3.1470   23.5750 C   0  0  0  0  0  0  0  0  0  0  0  0
    5.8690   -3.6060   23.7280 C   0  0  0  0  0  0  0  0  0  0  0  0
    5.3810   -3.3450   25.0930 C   0  0  0  0  0  0  0  0  0  0  0  0
    4.1500   -3.2410   25.2690 O   0  0  0  0  0  0  0  0  0  0  0  0
    6.3070   -3.2240   26.1530 N   0  0  0  0  0  0  0  0  0  0  0  0
    6.6580   -4.3530   26.9800 C   0  0  0  0  0  0  0  0  0  0  0  0
    5.5000   -5.3230   27.0420 C   0  0  0  0  0  0  0  0  0  0  0  0
    5.6510   -6.1160   28.2410 N   0  0  0  0  0  0  0  0  0  0  0  0
    6.8360   -6.0790   29.0580 C   0  0  0  0  0  0  0  0  0  0  0  0
    4.8000   -7.2190   28.4050 C   0  0  0  0  0  0  0  0  0  0  0  0
    6.6030   -2.2490   27.2050 C   0  0  0  0  0  0  0  0  0  0  0  0
    5.3840   -1.6410   27.4170 C   0  0  0  0  0  0  0  0  0  0  0  0
    5.2600   -0.1220   27.4280 C   0  0  0  0  0  0  0  0  0  0  0  0
    5.2220   -0.7100   28.8200 C   0  0  0  0  0  0  0  0  0  0  0  0
    6.5360   -0.8940   29.5110 C   0  0  0  0  0  0  0  0  0  0  0  0
    5.5870   -2.0040   29.6600 C   0  0  0  0  0  0  0  0  0  0  0  0
    4.7020   -2.1120   28.5710 C   0  0  0  0  0  0  0  0  0  0  0  0
    5.8430   -5.1110   23.5000 C   0  0  0  0  0  0  0  0  0  0  0  0
    6.5860   -5.4260   22.2270 C   0  0  0  0  0  0  0  0  0  0  0  0
  1  2  1  0
  2  3  2  0
  2  4  1  0
  4  5  1  0
  5  6  1  0
  6  7  1  0
  7  8  1  0
  8  9  2  0
  8 10  1  0
 10 11  1  0
 11 12  1  0
 12 13  1  0
 13 14  1  0
 13 15  1  0
 10 16  1  0
 16 17  1  0
 17 18  1  0
 18 19  1  0
 19 20  1  0
 20 21  1  0
 17 22  1  0
 21 22  1  0
  7 23  1  0
  4 24  1  0
 23 24  1  0
M  END
