piperidine-amides-21474-covalent
     RDKit          3D

 23 24  0  0  0  0  0  0  0  0999 V2000
    7.0600   -3.3330   19.2950 C   0  0  0  0  0  0  0  0  0  0  0  0
    6.3920   -4.1480   20.3130 C   0  0  0  0  0  0  0  0  0  0  0  0
    5.3470   -4.7530   19.9560 O   0  0  0  0  0  0  0  0  0  0  0  0
    6.9440   -4.2670   21.5910 N   0  0  0  0  0  0  0  0  0  0  0  0
    7.7460   -3.2270   22.1940 C   0  0  0  0  0  0  0  0  0  0  0  0
    7.0310   -2.7160   23.4100 C   0  0  0  0  0  0  0  0  0  0  0  0
    6.5280   -3.8350   24.2840 C   0  0  0  0  0  0  0  0  0  0  0  0
    5.7910   -3.2790   25.4480 C   0  0  0  0  0  0  0  0  0  0  0  0
    4.5780   -3.0210   25.2780 O   0  0  0  0  0  0  0  0  0  0  0  0
    6.3510   -3.0150   26.7250 N   0  0  0  0  0  0  0  0  0  0  0  0
    6.1690   -3.9890   27.7810 C   0  0  0  0  0  0  0  0  0  0  0  0
    5.8910   -5.3760   27.2340 C   0  0  0  0  0  0  0  0  0  0  0  0
    5.5710   -6.5890   27.1910 O   0  0  0  0  0  0  0  0  0  0  0  0
    5.5900   -5.6440   28.5740 O   0  0  0  0  0  0  0  0  0  0  0  0
    6.2310   -6.7160   29.2220 C   0  0  0  0  0  0  0  0  0  0  0  0
    6.3780   -1.6780   27.2550 C   0  0  0  0  0  0  0  0  0  0  0  0
    6.9710   -1.5700   28.5040 C   0  0  0  0  0  0  0  0  0  0  0  0
    7.0610   -0.3650   29.1500 C   0  0  0  0  0  0  0  0  0  0  0  0
    6.5710    0.7860   28.5930 C   0  0  0  0  0  0  0  0  0  0  0  0
    5.9040    0.8200   27.2360 C   0  0  0  0  0  0  0  0  0  0  0  0
    5.8530   -0.5780   26.5950 C   0  0  0  0  0  0  0  0  0  0  0  0
    5.6530   -4.8210   23.4910 C   0  0  0  0  0  0  0  0  0  0  0  0
    6.5720   -5.3960   22.4290 C   0  0  0  0  0  0  0  0  0  0  0  0
  1  2  1  0
  2  3  2  0
  2  4  1  0
  4  5  1  0
  5  6  1  0
  6  7  1  0
  7  8  1  0
  8  9  2  0
  8 10  1  0
 10 11  1  0
 11 12  1  0
 12 13  2  0
 12 14  1  0
 14 15  1  0
 10 16  1  0
 16 17  2  0
 17 18  1  0
 18 19  2  0
 19 20  1  0
 16 21  1  0
 20 21  2  0
  7 22  1  0
  4 23  1  0
 22 23  1  0
M  END
