piperidine-amides-30377-covalent
     RDKit          3D

 27 28  0  0  0  0  0  0  0  0999 V2000
    7.1270   -3.2730   19.1980 C   0  0  0  0  0  0  0  0  0  0  0  0
    6.3720   -4.0310   20.1990 C   0  0  0  0  0  0  0  0  0  0  0  0
    5.2840   -4.5320   19.8770 O   0  0  0  0  0  0  0  0  0  0  0  0
    6.8690   -4.2600   21.4900 N   0  0  0  0  0  0  0  0  0  0  0  0
    6.4060   -5.3720   22.2710 C   0  0  0  0  0  0  0  0  0  0  0  0
    5.6180   -4.7330   23.3840 C   0  0  0  0  0  0  0  0  0  0  0  0
    6.4590   -3.7850   24.1960 C   0  0  0  0  0  0  0  0  0  0  0  0
    5.7500   -3.3140   25.4110 C   0  0  0  0  0  0  0  0  0  0  0  0
    4.4930   -3.1610   25.3950 O   0  0  0  0  0  0  0  0  0  0  0  0
    6.4130   -2.9860   26.6170 N   0  0  0  0  0  0  0  0  0  0  0  0
    6.7950   -1.5800   26.8370 C   0  0  0  0  0  0  0  0  0  0  0  0
    6.2710   -3.8290   27.8330 C   0  0  0  0  0  0  0  0  0  0  0  0
    6.2200   -5.2810   27.5630 C   0  0  0  0  0  0  0  0  0  0  0  0
    6.6070   -5.9110   28.5620 O   0  0  0  0  0  0  0  0  0  0  0  0
    5.7680   -5.7190   26.2460 N   0  0  0  0  0  0  0  0  0  0  0  0
    4.5550   -6.5320   26.5310 C   0  0  0  0  0  0  0  0  0  0  0  0
    3.8080   -7.3510   25.4710 C   0  0  0  0  0  0  0  0  0  0  0  0
    2.5870   -8.1510   25.8590 C   0  0  0  0  0  0  0  0  0  0  0  0
    1.8770   -8.8680   25.1250 O   0  0  0  0  0  0  0  0  0  0  0  0
    1.4380  -10.1340   25.5020 C   0  0  0  0  0  0  0  0  0  0  0  0
    2.1830   -8.0690   27.3270 C   0  0  0  0  0  0  0  0  0  0  0  0
    2.8720   -7.2860   28.4040 C   0  0  0  0  0  0  0  0  0  0  0  0
    2.4880   -7.2360   29.7130 O   0  0  0  0  0  0  0  0  0  0  0  0
    3.3170   -7.7830   30.7490 C   0  0  0  0  0  0  0  0  0  0  0  0
    4.0750   -6.5250   27.9360 C   0  0  0  0  0  0  0  0  0  0  0  0
    6.9500   -2.6650   23.3370 C   0  0  0  0  0  0  0  0  0  0  0  0
    7.5730   -3.1740   22.0970 C   0  0  0  0  0  0  0  0  0  0  0  0
  1  2  1  0
  2  3  2  0
  2  4  1  0
  4  5  1  0
  5  6  1  0
  6  7  1  0
  7  8  1  0
  8  9  2  0
  8 10  1  0
 10 11  1  0
 10 12  1  0
 12 13  1  0
 13 14  2  0
 13 15  1  0
 15 16  1  0
 16 17  2  0
 17 18  1  0
 18 19  1  0
 19 20  1  0
 18 21  2  0
 21 22  1  0
 22 23  1  0
 23 24  1  0
 16 25  1  0
 22 25  2  0
  7 26  1  0
  4 27  1  0
 26 27  1  0
M  END
