piperidine-amides-6721-covalent
     RDKit          3D

 23 23  0  0  0  0  0  0  0  0999 V2000
    7.1290   -3.2750   19.2080 C   0  0  0  0  0  0  0  0  0  0  0  0
    6.3800   -4.0460   20.2100 C   0  0  0  0  0  0  0  0  0  0  0  0
    5.3020   -4.6000   19.9060 O   0  0  0  0  0  0  0  0  0  0  0  0
    6.9020   -4.2230   21.4940 N   0  0  0  0  0  0  0  0  0  0  0  0
    6.5490   -5.3980   22.2440 C   0  0  0  0  0  0  0  0  0  0  0  0
    5.7190   -4.8930   23.4240 C   0  0  0  0  0  0  0  0  0  0  0  0
    6.5420   -3.8130   24.1020 C   0  0  0  0  0  0  0  0  0  0  0  0
    5.7980   -3.2510   25.2360 C   0  0  0  0  0  0  0  0  0  0  0  0
    4.7740   -2.5760   24.9970 O   0  0  0  0  0  0  0  0  0  0  0  0
    6.2500   -3.4830   26.5440 N   0  0  0  0  0  0  0  0  0  0  0  0
    5.9950   -4.7560   27.1570 C   0  0  1  0  0  0  0  0  0  0  0  0
    6.5770   -4.7020   28.5390 C   0  0  0  0  0  0  0  0  0  0  0  0
    6.4390   -5.0180   29.8890 O   0  0  0  0  0  0  0  0  0  0  0  0
    5.3280   -5.3770   28.5200 O   0  0  0  0  0  0  0  0  0  0  0  0
    5.1490   -6.6480   29.0970 C   0  0  0  0  0  0  0  0  0  0  0  0
    4.6360   -7.5050   28.1860 C   0  0  0  0  0  0  0  0  0  0  0  0
    6.2860   -7.0510   29.6910 C   0  0  0  0  0  0  0  0  0  0  0  0
    4.3450   -6.3620   30.2030 C   0  0  0  0  0  0  0  0  0  0  0  0
    4.5630   -4.9670   27.1990 C   0  0  0  0  0  0  0  0  0  0  0  0
    4.0460   -5.8200   26.0670 C   0  0  0  0  0  0  0  0  0  0  0  0
    3.9390   -3.6520   27.3320 C   0  0  0  0  0  0  0  0  0  0  0  0
    6.8820   -2.6980   23.1540 C   0  0  0  0  0  0  0  0  0  0  0  0
    7.6920   -3.2070   22.1420 C   0  0  0  0  0  0  0  0  0  0  0  0
  1  2  1  0
  2  3  2  0
  2  4  1  0
  4  5  1  0
  5  6  1  0
  6  7  1  0
  7  8  1  0
  8  9  2  0
  8 10  1  0
 11 10  1  1
 11 12  1  0
 12 13  2  0
 12 14  1  0
 15 14  1  0
 15 16  1  0
 15 17  1  0
 15 18  1  0
 11 19  1  0
 19 20  1  0
 19 21  1  0
  7 22  1  0
  4 23  1  0
 22 23  1  0
M  END
