piperidine-amides-13266-covalent
     RDKit          3D

 17 17  0  0  0  0  0  0  0  0999 V2000
    7.1280   -3.3310   19.2570 C   0  0  0  0  0  0  0  0  0  0  0  0
    6.3610   -4.0680   20.2800 C   0  0  0  0  0  0  0  0  0  0  0  0
    5.2810   -4.5600   19.9000 O   0  0  0  0  0  0  0  0  0  0  0  0
    6.8700   -4.2460   21.5820 N   0  0  0  0  0  0  0  0  0  0  0  0
    6.4580   -5.3820   22.3330 C   0  0  0  0  0  0  0  0  0  0  0  0
    5.9620   -5.0060   23.6610 C   0  0  0  0  0  0  0  0  0  0  0  0
    6.0040   -3.5460   23.9030 C   0  0  0  0  0  0  0  0  0  0  0  0
    5.5980   -3.2290   25.2990 C   0  0  0  0  0  0  0  0  0  0  0  0
    4.3910   -3.0090   25.5100 O   0  0  0  0  0  0  0  0  0  0  0  0
    6.5150   -3.1680   26.3620 N   0  0  0  0  0  0  0  0  0  0  0  0
    6.2140   -3.7030   27.7150 C   0  0  0  0  0  0  0  0  0  0  0  0
    5.8600   -5.1550   27.7240 C   0  0  1  0  0  0  0  0  0  0  0  0
    6.0570   -5.7910   26.5450 F   0  0  0  0  0  0  0  0  0  0  0  0
    6.3620   -5.9400   28.8440 C   0  0  0  0  0  0  0  0  0  0  0  0
    5.4380   -6.3080   29.6450 O   0  0  0  0  0  0  0  0  0  0  0  0
    7.2850   -2.9280   23.4970 C   0  0  0  0  0  0  0  0  0  0  0  0
    7.6010   -3.1490   22.1680 C   0  0  0  0  0  0  0  0  0  0  0  0
  1  2  1  0
  2  3  2  0
  2  4  1  0
  4  5  1  0
  5  6  1  0
  6  7  1  0
  7  8  1  0
  8  9  2  0
  8 10  1  0
 10 11  1  0
 11 12  1  0
 12 13  1  6
 12 14  1  0
 14 15  1  0
  7 16  1  0
  4 17  1  0
 16 17  1  0
M  END
