piperidine-amides-4782-covalent
     RDKit          3D

 24 26  0  0  0  0  0  0  0  0999 V2000
    7.1330   -3.2660   19.1980 C   0  0  0  0  0  0  0  0  0  0  0  0
    6.3780   -4.0300   20.2170 C   0  0  0  0  0  0  0  0  0  0  0  0
    5.2900   -4.5240   19.8680 O   0  0  0  0  0  0  0  0  0  0  0  0
    6.9080   -4.2200   21.4990 N   0  0  0  0  0  0  0  0  0  0  0  0
    6.4730   -5.3090   22.3060 C   0  0  0  0  0  0  0  0  0  0  0  0
    5.9710   -4.9070   23.6270 C   0  0  0  0  0  0  0  0  0  0  0  0
    6.6250   -3.7110   24.2140 C   0  0  0  0  0  0  0  0  0  0  0  0
    5.8330   -3.2070   25.3650 C   0  0  0  0  0  0  0  0  0  0  0  0
    4.5990   -3.1130   25.2240 O   0  0  0  0  0  0  0  0  0  0  0  0
    6.4410   -2.8400   26.5830 N   0  0  0  0  0  0  0  0  0  0  0  0
    6.2780   -3.6320   27.8260 C   0  0  0  0  0  0  0  0  0  0  0  0
    5.1310   -3.1500   28.6460 C   0  0  0  0  0  0  0  0  0  0  0  0
    3.8150   -3.7210   28.6030 C   0  0  0  0  0  0  0  0  0  0  0  0
    3.0150   -2.9660   29.5410 N   0  0  0  0  0  0  0  0  0  0  0  0
    3.8640   -2.0680   30.0350 N   0  0  0  0  0  0  0  0  0  0  0  0
    3.3530   -1.2230   30.9590 C   0  0  0  0  0  0  0  0  0  0  0  0
    4.0560   -0.7460   32.0540 C   0  0  0  0  0  0  0  0  0  0  0  0
    3.4760    0.1060   32.9500 C   0  0  0  0  0  0  0  0  0  0  0  0
    2.1820    0.5050   32.7760 C   0  0  0  0  0  0  0  0  0  0  0  0
    1.4580    0.0580   31.7120 C   0  0  0  0  0  0  0  0  0  0  0  0
    2.0550   -0.8090   30.8060 C   0  0  0  0  0  0  0  0  0  0  0  0
    5.1140   -2.1300   29.5440 C   0  0  0  0  0  0  0  0  0  0  0  0
    6.8830   -2.6140   23.2590 C   0  0  0  0  0  0  0  0  0  0  0  0
    7.6800   -3.1730   22.1250 C   0  0  0  0  0  0  0  0  0  0  0  0
  1  2  1  0
  2  3  2  0
  2  4  1  0
  4  5  1  0
  5  6  1  0
  6  7  1  0
  7  8  1  0
  8  9  2  0
  8 10  1  0
 10 11  1  0
 11 12  1  0
 12 13  1  0
 13 14  2  0
 14 15  1  0
 15 16  1  0
 16 17  2  0
 17 18  1  0
 18 19  2  0
 19 20  1  0
 16 21  1  0
 20 21  2  0
 12 22  2  0
 15 22  1  0
  7 23  1  0
  4 24  1  0
 23 24  1  0
M  END
