piperidine-amides-3690-covalent
     RDKit          3D

 20 21  0  0  0  0  0  0  0  0999 V2000
    7.1030   -3.2930   19.2220 C   0  0  0  0  0  0  0  0  0  0  0  0
    6.3850   -4.0620   20.2580 C   0  0  0  0  0  0  0  0  0  0  0  0
    5.2990   -4.5840   19.9030 O   0  0  0  0  0  0  0  0  0  0  0  0
    6.9110   -4.2590   21.5650 N   0  0  0  0  0  0  0  0  0  0  0  0
    7.6710   -3.2090   22.1610 C   0  0  0  0  0  0  0  0  0  0  0  0
    7.2670   -2.9190   23.5250 C   0  0  0  0  0  0  0  0  0  0  0  0
    6.0220   -3.6040   23.8900 C   0  0  0  0  0  0  0  0  0  0  0  0
    5.5200   -3.1800   25.2370 C   0  0  0  0  0  0  0  0  0  0  0  0
    4.4880   -2.4900   25.2940 O   0  0  0  0  0  0  0  0  0  0  0  0
    6.1590   -3.5340   26.4370 N   0  0  0  0  0  0  0  0  0  0  0  0
    5.9420   -2.9770   27.7150 C   0  0  1  0  0  0  0  0  0  0  0  0
    4.7100   -2.3220   28.0790 C   0  0  0  0  0  0  0  0  0  0  0  0
    4.6330   -3.3600   29.1480 C   0  0  2  0  0  0  0  0  0  0  0  0
    4.7910   -2.6150   30.2960 O   0  0  0  0  0  0  0  0  0  0  0  0
    5.8150   -4.0350   28.8270 C   0  0  1  0  0  0  0  0  0  0  0  0
    5.0470   -5.3030   28.4350 C   0  0  0  0  0  0  0  0  0  0  0  0
    4.8680   -5.6710   29.8740 C   0  0  0  0  0  0  0  0  0  0  0  0
    5.7810   -6.8940   30.0430 C   0  0  0  0  0  0  0  0  0  0  0  0
    6.0850   -5.1050   23.7280 C   0  0  0  0  0  0  0  0  0  0  0  0
    6.5890   -5.4540   22.3260 C   0  0  0  0  0  0  0  0  0  0  0  0
  1  2  1  0
  2  3  2  0
  2  4  1  0
  4  5  1  0
  5  6  1  0
  6  7  1  0
  7  8  1  0
  8  9  2  0
  8 10  1  0
 11 10  1  6
 11 12  1  0
 12 13  1  0
 13 14  1  1
 11 15  1  0
 13 15  1  0
 15 16  1  6
 16 17  1  0
 17 18  2  3
  7 19  1  0
  4 20  1  0
 19 20  1  0
M  END
