piperidine-amides-5466-covalent
     RDKit          3D

 20 21  0  0  0  0  0  0  0  0999 V2000
    7.0880   -3.2700   19.2280 C   0  0  0  0  0  0  0  0  0  0  0  0
    6.3240   -4.0310   20.2250 C   0  0  0  0  0  0  0  0  0  0  0  0
    5.2570   -4.5600   19.8830 O   0  0  0  0  0  0  0  0  0  0  0  0
    6.7950   -4.2200   21.5370 N   0  0  0  0  0  0  0  0  0  0  0  0
    6.6180   -5.4700   22.2440 C   0  0  0  0  0  0  0  0  0  0  0  0
    6.0130   -5.1120   23.5780 C   0  0  0  0  0  0  0  0  0  0  0  0
    6.0740   -3.6360   23.8450 C   0  0  0  0  0  0  0  0  0  0  0  0
    5.7230   -3.2470   25.2250 C   0  0  0  0  0  0  0  0  0  0  0  0
    4.5730   -3.4960   25.6900 O   0  0  0  0  0  0  0  0  0  0  0  0
    6.6240   -2.5680   26.0660 N   0  0  0  0  0  0  0  0  0  0  0  0
    7.2630   -3.2640   27.2010 C   0  0  0  0  0  0  0  0  0  0  0  0
    7.5070   -2.2000   28.1980 C   0  0  0  0  0  0  0  0  0  0  0  0
    8.5770   -1.2440   28.3100 C   0  0  0  0  0  0  0  0  0  0  0  0
    8.3390   -0.4340   29.4780 N   0  0  0  0  0  0  0  0  0  0  0  0
    9.3980    0.5900   29.7190 C   0  0  0  0  0  0  0  0  0  0  0  0
    7.2070   -0.7960   30.0890 N   0  0  0  0  0  0  0  0  0  0  0  0
    6.6830   -1.8310   29.3700 C   0  0  0  0  0  0  0  0  0  0  0  0
    5.4570   -2.6410   29.5520 C   0  0  0  0  0  0  0  0  0  0  0  0
    7.4480   -3.1300   23.4840 C   0  0  0  0  0  0  0  0  0  0  0  0
    7.6540   -3.1970   22.1080 C   0  0  0  0  0  0  0  0  0  0  0  0
  1  2  1  0
  2  3  2  0
  2  4  1  0
  4  5  1  0
  5  6  1  0
  6  7  1  0
  7  8  1  0
  8  9  2  0
  8 10  1  0
 10 11  1  0
 11 12  1  0
 12 13  2  0
 13 14  1  0
 14 15  1  0
 14 16  1  0
 12 17  1  0
 16 17  2  0
 17 18  1  0
  7 19  1  0
  4 20  1  0
 19 20  1  0
M  END
