piperidine-amides-11354-covalent
     RDKit          3D

 21 23  0  0  0  0  0  0  0  0999 V2000
    7.1410   -3.2990   19.1950 C   0  0  0  0  0  0  0  0  0  0  0  0
    6.3350   -4.0010   20.1890 C   0  0  0  0  0  0  0  0  0  0  0  0
    5.2510   -4.5090   19.8630 O   0  0  0  0  0  0  0  0  0  0  0  0
    6.8050   -4.1560   21.4880 N   0  0  0  0  0  0  0  0  0  0  0  0
    7.7370   -3.2300   22.0900 C   0  0  0  0  0  0  0  0  0  0  0  0
    7.0140   -2.6760   23.2700 C   0  0  0  0  0  0  0  0  0  0  0  0
    6.5970   -3.7820   24.1800 C   0  0  0  0  0  0  0  0  0  0  0  0
    5.9920   -3.2380   25.4060 C   0  0  0  0  0  0  0  0  0  0  0  0
    4.8260   -3.5760   25.7740 O   0  0  0  0  0  0  0  0  0  0  0  0
    6.7050   -2.3070   26.1950 N   0  0  0  0  0  0  0  0  0  0  0  0
    6.1030   -1.6550   27.3690 C   0  0  0  0  0  0  0  0  0  0  0  0
    5.7950   -0.2460   27.0030 C   0  0  2  0  0  0  0  0  0  0  0  0
    5.6700    0.1260   25.5890 C   0  0  0  0  0  0  0  0  0  0  0  0
    4.3820    0.9210   25.3940 C   0  0  0  0  0  0  0  0  0  0  0  0
    3.5840    0.9120   26.7050 C   0  0  0  0  0  0  0  0  0  0  0  0
    4.4300    0.2640   27.7280 C   0  0  2  0  0  0  0  0  0  0  0  0
    5.6310    0.6180   27.9320 C   0  0  0  0  0  0  0  0  0  0  0  0
    6.2310    0.4880   29.1500 F   0  0  0  0  0  0  0  0  0  0  0  0
    5.8160    1.9160   27.5130 F   0  0  0  0  0  0  0  0  0  0  0  0
    5.6670   -4.7580   23.4980 C   0  0  0  0  0  0  0  0  0  0  0  0
    6.3860   -5.2930   22.2810 C   0  0  0  0  0  0  0  0  0  0  0  0
  1  2  1  0
  2  3  2  0
  2  4  1  0
  4  5  1  0
  5  6  1  0
  6  7  1  0
  7  8  1  0
  8  9  2  0
  8 10  1  0
 10 11  1  0
 12 11  1  6
 12 13  1  0
 13 14  1  0
 14 15  1  0
 12 16  1  0
 16 15  1  6
 12 17  1  0
 16 17  1  0
 17 18  1  0
 17 19  1  0
  7 20  1  0
  4 21  1  0
 20 21  1  0
M  END
