piperidine-amides-21696-covalent
     RDKit          3D

 22 24  0  0  0  0  0  0  0  0999 V2000
    7.0900   -3.3460   19.3330 C   0  0  0  0  0  0  0  0  0  0  0  0
    6.4260   -4.2010   20.3190 C   0  0  0  0  0  0  0  0  0  0  0  0
    5.3490   -4.7390   19.9520 O   0  0  0  0  0  0  0  0  0  0  0  0
    7.0070   -4.4500   21.5670 N   0  0  0  0  0  0  0  0  0  0  0  0
    6.6690   -5.6200   22.3260 C   0  0  0  0  0  0  0  0  0  0  0  0
    5.8630   -5.1590   23.5010 C   0  0  0  0  0  0  0  0  0  0  0  0
    6.5160   -4.0180   24.2370 C   0  0  0  0  0  0  0  0  0  0  0  0
    5.6280   -3.5690   25.3230 C   0  0  0  0  0  0  0  0  0  0  0  0
    4.9950   -2.5080   25.1440 O   0  0  0  0  0  0  0  0  0  0  0  0
    5.4010   -4.2550   26.5350 N   0  0  0  0  0  0  0  0  0  0  0  0
    5.7650   -5.6440   26.6720 C   0  0  0  0  0  0  0  0  0  0  0  0
    6.3680   -6.0210   28.0250 C   0  0  0  0  0  0  0  0  0  0  0  0
    6.7990   -4.5760   28.9050 S   0  0  0  0  0  0  0  0  0  0  0  0
    5.6670   -3.4090   28.2760 C   0  0  0  0  0  0  0  0  0  0  0  0
    6.7470   -2.6890   28.9420 C   0  0  0  0  0  0  0  0  0  0  0  0
    7.2250   -1.3080   29.3050 C   0  0  0  0  0  0  0  0  0  0  0  0
    6.1880   -0.6550   28.7700 C   0  0  0  0  0  0  0  0  0  0  0  0
    6.0650   -1.9260   28.6000 C   0  0  0  0  0  0  0  0  0  0  0  0
    4.9470   -2.4000   27.8930 C   0  0  0  0  0  0  0  0  0  0  0  0
    4.4250   -3.7210   27.4430 C   0  0  0  0  0  0  0  0  0  0  0  0
    6.8410   -2.8360   23.3060 C   0  0  0  0  0  0  0  0  0  0  0  0
    7.7620   -3.4100   22.2580 C   0  0  0  0  0  0  0  0  0  0  0  0
  1  2  1  0
  2  3  2  0
  2  4  1  0
  4  5  1  0
  5  6  1  0
  6  7  1  0
  7  8  1  0
  8  9  2  0
  8 10  1  0
 10 11  1  0
 11 12  1  0
 12 13  1  0
 13 14  1  0
 14 15  1  0
 15 16  2  0
 16 17  1  0
 17 18  2  0
 14 19  2  0
 18 19  1  0
 10 20  1  0
 19 20  1  0
  7 21  1  0
  4 22  1  0
 21 22  1  0
M  END
