piperidine-amides-1953-covalent
     RDKit          3D

 22 23  0  0  0  0  0  0  0  0999 V2000
    7.0910   -3.2860   19.2380 C   0  0  0  0  0  0  0  0  0  0  0  0
    6.3720   -4.0680   20.2770 C   0  0  0  0  0  0  0  0  0  0  0  0
    5.3370   -4.6330   19.9250 O   0  0  0  0  0  0  0  0  0  0  0  0
    6.9030   -4.1760   21.5720 N   0  0  0  0  0  0  0  0  0  0  0  0
    7.7280   -3.1310   22.1490 C   0  0  0  0  0  0  0  0  0  0  0  0
    7.3470   -2.8690   23.5870 C   0  0  0  0  0  0  0  0  0  0  0  0
    6.0110   -3.5440   23.8890 C   0  0  0  0  0  0  0  0  0  0  0  0
    5.5860   -3.2090   25.2640 C   0  0  0  0  0  0  0  0  0  0  0  0
    4.3970   -2.9380   25.4660 O   0  0  0  0  0  0  0  0  0  0  0  0
    6.4850   -3.1820   26.3390 N   0  0  0  0  0  0  0  0  0  0  0  0
    6.1300   -3.9060   27.5430 C   0  0  0  0  0  0  0  0  0  0  0  0
    5.7010   -5.3010   27.1200 C   0  0  1  0  0  0  0  0  0  0  0  0
    6.4620   -6.1870   27.8260 O   0  0  0  0  0  0  0  0  0  0  0  0
    6.6520   -6.1620   29.1310 C   0  0  0  0  0  0  0  0  0  0  0  0
    4.3950   -5.8060   27.4380 C   0  0  0  0  0  0  0  0  0  0  0  0
    3.5680   -5.2500   28.3040 C   0  0  0  0  0  0  0  0  0  0  0  0
    3.0350   -6.2960   29.1420 C   0  0  0  0  0  0  0  0  0  0  0  0
    3.3550   -6.2810   30.5050 F   0  0  0  0  0  0  0  0  0  0  0  0
    1.6790   -6.6260   28.9960 F   0  0  0  0  0  0  0  0  0  0  0  0
    4.0260   -7.0630   28.2490 C   0  0  0  0  0  0  0  0  0  0  0  0
    6.0380   -5.0000   23.6650 C   0  0  0  0  0  0  0  0  0  0  0  0
    6.5620   -5.3520   22.3220 C   0  0  0  0  0  0  0  0  0  0  0  0
  1  2  1  0
  2  3  2  0
  2  4  1  0
  4  5  1  0
  5  6  1  0
  6  7  1  0
  7  8  1  0
  8  9  2  0
  8 10  1  0
 10 11  1  0
 12 11  1  1
 12 13  1  0
 13 14  1  0
 12 15  1  0
 15 16  1  0
 16 17  1  0
 17 18  1  0
 17 19  1  0
 15 20  1  0
 17 20  1  0
  7 21  1  0
  4 22  1  0
 21 22  1  0
M  END
