piperidine-amides-19006-covalent
     RDKit          3D

 21 23  0  0  0  0  0  0  0  0999 V2000
    7.1220   -3.3600   19.4490 C   0  0  0  0  0  0  0  0  0  0  0  0
    6.4570   -4.2240   20.3980 C   0  0  0  0  0  0  0  0  0  0  0  0
    5.4420   -4.8860   20.0000 O   0  0  0  0  0  0  0  0  0  0  0  0
    6.9370   -4.3740   21.7220 N   0  0  0  0  0  0  0  0  0  0  0  0
    6.5400   -5.5830   22.4600 C   0  0  0  0  0  0  0  0  0  0  0  0
    5.4210   -4.9500   23.3710 C   0  0  0  0  0  0  0  0  0  0  0  0
    6.0410   -3.8090   24.1660 C   0  0  0  0  0  0  0  0  0  0  0  0
    4.9510   -3.3650   25.2590 C   0  0  0  0  0  0  0  0  0  0  0  0
    3.8560   -3.2020   24.7530 O   0  0  0  0  0  0  0  0  0  0  0  0
    5.5240   -3.2920   26.3730 N   0  0  0  0  0  0  0  0  0  0  0  0
    6.4750   -3.2330   27.2290 C   0  0  0  0  0  0  0  0  0  0  0  0
    6.6190   -3.9290   28.3520 C   0  0  1  0  0  0  0  0  0  0  0  0
    5.4860   -3.3390   28.8170 C   0  0  0  0  0  0  0  0  0  0  0  0
    4.6150   -3.3170   27.6160 C   0  0  2  0  0  0  0  0  0  0  0  0
    4.0920   -4.7790   27.8650 C   0  0  0  0  0  0  0  0  0  0  0  0
    5.0380   -5.2200   28.8130 C   0  0  0  0  0  0  0  0  0  0  0  0
    6.3230   -5.2100   28.3720 C   0  0  0  0  0  0  0  0  0  0  0  0
    7.1410   -5.8830   29.2130 F   0  0  0  0  0  0  0  0  0  0  0  0
    6.3240   -5.8620   27.1700 F   0  0  0  0  0  0  0  0  0  0  0  0
    6.7660   -2.7700   23.4600 C   0  0  0  0  0  0  0  0  0  0  0  0
    7.7200   -3.4470   22.4280 C   0  0  0  0  0  0  0  0  0  0  0  0
  1  2  1  0
  2  3  2  0
  2  4  1  0
  4  5  1  0
  5  6  1  0
  6  7  1  0
  7  8  1  0
  8  9  2  0
  8 10  1  0
 10 11  1  0
 12 11  1  6
 12 13  1  0
 10 14  1  0
 13 14  1  0
 14 15  1  6
 15 16  1  0
 12 17  1  0
 16 17  1  0
 17 18  1  0
 17 19  1  0
  7 20  1  0
  4 21  1  0
 20 21  1  0
M  END
