piperidine-amides-21572-covalent
     RDKit          3D

 23 24  0  0  0  0  0  0  0  0999 V2000
    7.0640   -3.2900   19.2940 C   0  0  0  0  0  0  0  0  0  0  0  0
    6.3230   -4.0550   20.3040 C   0  0  0  0  0  0  0  0  0  0  0  0
    5.2700   -4.6220   19.9080 O   0  0  0  0  0  0  0  0  0  0  0  0
    6.8070   -4.1720   21.6140 N   0  0  0  0  0  0  0  0  0  0  0  0
    7.7670   -3.2210   22.1410 C   0  0  0  0  0  0  0  0  0  0  0  0
    7.6700   -3.2820   23.6290 C   0  0  0  0  0  0  0  0  0  0  0  0
    6.2640   -3.6100   24.0270 C   0  0  0  0  0  0  0  0  0  0  0  0
    6.0660   -3.4790   25.4930 C   0  0  0  0  0  0  0  0  0  0  0  0
    4.8940   -3.5910   25.9260 O   0  0  0  0  0  0  0  0  0  0  0  0
    7.1130   -3.2080   26.4170 N   0  0  0  0  0  0  0  0  0  0  0  0
    7.7860   -4.2900   27.1100 C   0  0  0  0  0  0  0  0  0  0  0  0
    7.4790   -1.8220   26.6290 C   0  0  0  0  0  0  0  0  0  0  0  0
    7.2210   -1.1620   25.4540 C   0  0  0  0  0  0  0  0  0  0  0  0
    8.2350   -0.7680   24.5430 C   0  0  0  0  0  0  0  0  0  0  0  0
    8.0510   -0.0940   23.3000 C   0  0  0  0  0  0  0  0  0  0  0  0
    6.8050    0.2740   22.8100 C   0  0  0  0  0  0  0  0  0  0  0  0
    6.5000    0.9290   21.6060 O   0  0  0  0  0  0  0  0  0  0  0  0
    7.3010    0.5950   20.4920 C   0  0  0  0  0  0  0  0  0  0  0  0
    6.6350    0.4980   19.1380 C   0  0  0  0  0  0  0  0  0  0  0  0
    5.7070   -0.0910   23.6960 C   0  0  0  0  0  0  0  0  0  0  0  0
    5.9910   -0.7880   24.9650 C   0  0  0  0  0  0  0  0  0  0  0  0
    5.8980   -5.0090   23.5950 C   0  0  0  0  0  0  0  0  0  0  0  0
    6.5750   -5.3680   22.4370 C   0  0  0  0  0  0  0  0  0  0  0  0
  1  2  1  0
  2  3  2  0
  2  4  1  0
  4  5  1  0
  5  6  1  0
  6  7  1  0
  7  8  1  0
  8  9  2  0
  8 10  1  0
 10 11  1  0
 10 12  1  0
 12 13  1  0
 13 14  2  0
 14 15  1  0
 15 16  2  0
 16 17  1  0
 17 18  1  0
 18 19  1  0
 16 20  1  0
 13 21  1  0
 20 21  2  0
  7 22  1  0
  4 23  1  0
 22 23  1  0
M  END
