piperidine-amides-1154-covalent
     RDKit          3D

 23 25  0  0  0  0  0  0  0  0999 V2000
    7.0440   -3.3200   19.3090 C   0  0  0  0  0  0  0  0  0  0  0  0
    6.3350   -4.1620   20.3130 C   0  0  0  0  0  0  0  0  0  0  0  0
    5.3380   -4.8100   19.9620 O   0  0  0  0  0  0  0  0  0  0  0  0
    6.8370   -4.2410   21.6270 N   0  0  0  0  0  0  0  0  0  0  0  0
    7.6580   -3.1830   22.1720 C   0  0  0  0  0  0  0  0  0  0  0  0
    7.5460   -3.2560   23.6910 C   0  0  0  0  0  0  0  0  0  0  0  0
    6.1550   -3.6910   23.9910 C   0  0  0  0  0  0  0  0  0  0  0  0
    5.6800   -3.1590   25.2880 C   0  0  0  0  0  0  0  0  0  0  0  0
    4.4580   -3.1500   25.4720 O   0  0  0  0  0  0  0  0  0  0  0  0
    6.6140   -2.7080   26.2200 N   0  0  0  0  0  0  0  0  0  0  0  0
    6.5240   -1.5700   27.0670 C   0  0  0  0  0  0  0  0  0  0  0  0
    7.0130   -1.5310   28.3640 C   0  0  0  0  0  0  0  0  0  0  0  0
    6.9280   -0.4080   29.2120 C   0  0  0  0  0  0  0  0  0  0  0  0
    6.3320    0.7570   28.7860 C   0  0  0  0  0  0  0  0  0  0  0  0
    5.7840    0.8180   27.4240 C   0  0  0  0  0  0  0  0  0  0  0  0
    5.9010   -0.4220   26.5470 C   0  0  0  0  0  0  0  0  0  0  0  0
    5.1890    1.9640   26.9810 C   0  0  0  0  0  0  0  0  0  0  0  0
    5.6360    3.1280   27.5130 N   0  0  0  0  0  0  0  0  0  0  0  0
    6.9280    3.3270   27.1930 C   0  0  0  0  0  0  0  0  0  0  0  0
    5.5460    3.0610   28.9280 C   0  0  0  0  0  0  0  0  0  0  0  0
    6.2260    1.8700   29.5760 C   0  0  0  0  0  0  0  0  0  0  0  0
    6.1150   -5.1490   23.8180 C   0  0  0  0  0  0  0  0  0  0  0  0
    6.6340   -5.4460   22.3930 C   0  0  0  0  0  0  0  0  0  0  0  0
  1  2  1  0
  2  3  2  0
  2  4  1  0
  4  5  1  0
  5  6  1  0
  6  7  1  0
  7  8  1  0
  8  9  2  0
  8 10  1  0
 10 11  1  0
 11 12  2  0
 12 13  1  0
 13 14  2  0
 14 15  1  0
 11 16  1  0
 15 16  2  0
 15 17  1  0
 17 18  1  0
 18 19  1  0
 18 20  1  0
 14 21  1  0
 20 21  1  0
  7 22  1  0
  4 23  1  0
 22 23  1  0
M  END
