piperidine-amides-25315-covalent
     RDKit          3D

 24 26  0  0  0  0  0  0  0  0999 V2000
    7.0510   -3.2940   19.2820 C   0  0  0  0  0  0  0  0  0  0  0  0
    6.3570   -4.1140   20.3140 C   0  0  0  0  0  0  0  0  0  0  0  0
    5.3470   -4.7130   19.9460 O   0  0  0  0  0  0  0  0  0  0  0  0
    6.8620   -4.2300   21.6210 N   0  0  0  0  0  0  0  0  0  0  0  0
    6.7000   -5.4430   22.3920 C   0  0  0  0  0  0  0  0  0  0  0  0
    6.0190   -5.1440   23.7040 C   0  0  0  0  0  0  0  0  0  0  0  0
    6.0010   -3.6340   23.9180 C   0  0  0  0  0  0  0  0  0  0  0  0
    5.4810   -3.3470   25.2720 C   0  0  0  0  0  0  0  0  0  0  0  0
    4.5560   -2.5370   25.3910 O   0  0  0  0  0  0  0  0  0  0  0  0
    5.9970   -3.9580   26.4270 N   0  0  0  0  0  0  0  0  0  0  0  0
    5.9990   -3.1690   27.6530 C   0  0  0  0  0  0  0  0  0  0  0  0
    5.6290   -4.4350   28.2320 C   0  0  0  0  0  0  0  0  0  0  0  0
    6.4240   -5.3650   28.8500 C   0  0  0  0  0  0  0  0  0  0  0  0
    5.1820   -4.9250   29.4920 C   0  0  0  0  0  0  0  0  0  0  0  0
    4.2350   -5.8990   29.6170 C   0  0  1  0  0  0  0  0  0  0  0  0
    4.5240   -7.3410   29.9840 C   0  0  0  0  0  0  0  0  0  0  0  0
    3.0870   -7.7060   29.7940 C   0  0  0  0  0  0  0  0  0  0  0  0
    2.3470   -6.5160   30.3550 C   0  0  0  0  0  0  0  0  0  0  0  0
    1.4430   -6.9400   31.2850 F   0  0  0  0  0  0  0  0  0  0  0  0
    1.6740   -5.7570   29.4650 F   0  0  0  0  0  0  0  0  0  0  0  0
    3.5270   -5.8200   30.9530 C   0  0  0  0  0  0  0  0  0  0  0  0
    5.5590   -5.3070   27.0350 C   0  0  0  0  0  0  0  0  0  0  0  0
    7.2540   -2.9310   23.5770 C   0  0  0  0  0  0  0  0  0  0  0  0
    7.7110   -3.1890   22.1880 C   0  0  0  0  0  0  0  0  0  0  0  0
  1  2  1  0
  2  3  2  0
  2  4  1  0
  4  5  1  0
  5  6  1  0
  6  7  1  0
  7  8  1  0
  8  9  2  0
  8 10  1  0
 10 11  1  0
 11 12  1  0
 12 13  1  0
 12 14  1  0
 15 14  1  1
 15 16  1  0
 16 17  1  0
 17 18  1  0
 18 19  1  0
 18 20  1  0
 15 21  1  0
 18 21  1  0
 10 22  1  0
 12 22  1  0
  7 23  1  0
  4 24  1  0
 23 24  1  0
M  END
