piperidine-amides-2576-covalent
     RDKit          3D

 26 27  0  0  0  0  0  0  0  0999 V2000
    7.2230   -3.8480   19.5950 C   0  0  0  0  0  0  0  0  0  0  0  0
    6.0000   -3.8890   20.3300 C   0  0  0  0  0  0  0  0  0  0  0  0
    4.9970   -4.0720   19.6610 O   0  0  0  0  0  0  0  0  0  0  0  0
    6.0960   -3.8340   21.6980 N   0  0  0  0  0  0  0  0  0  0  0  0
    5.8230   -5.0470   22.4190 C   0  0  0  0  0  0  0  0  0  0  0  0
    5.5520   -4.7210   23.8520 C   0  0  0  0  0  0  0  0  0  0  0  0
    6.6310   -3.7730   24.3850 C   0  0  0  0  0  0  0  0  0  0  0  0
    6.1190   -3.1280   25.5940 C   0  0  0  0  0  0  0  0  0  0  0  0
    4.8940   -3.0250   25.7670 O   0  0  0  0  0  0  0  0  0  0  0  0
    7.0310   -2.6150   26.5340 N   0  0  0  0  0  0  0  0  0  0  0  0
    7.7710   -3.5530   27.3420 C   0  0  0  0  0  0  0  0  0  0  0  0
    6.7400   -4.2980   28.1400 C   0  0  0  0  0  0  0  0  0  0  0  0
    5.4730   -3.7120   28.3140 C   0  0  0  0  0  0  0  0  0  0  0  0
    4.4020   -4.2260   29.0060 C   0  0  0  0  0  0  0  0  0  0  0  0
    4.4820   -5.4190   29.6220 C   0  0  0  0  0  0  0  0  0  0  0  0
    3.3740   -6.0780   30.4200 C   0  0  0  0  0  0  0  0  0  0  0  0
    2.5880   -5.3380   31.2730 O   0  0  0  0  0  0  0  0  0  0  0  0
    3.2430   -7.3920   30.1810 N   0  0  0  0  0  0  0  0  0  0  0  0
    4.0180   -7.7970   29.1520 C   0  0  0  0  0  0  0  0  0  0  0  0
    3.8060   -7.7790   31.4770 C   0  0  0  0  0  0  0  0  0  0  0  0
    3.5080   -6.8380   32.5970 C   0  0  0  0  0  0  0  0  0  0  0  0
    5.3120   -7.5860   31.3520 C   0  0  0  0  0  0  0  0  0  0  0  0
    5.7740   -6.1030   29.4880 C   0  0  0  0  0  0  0  0  0  0  0  0
    6.8750   -5.5120   28.7430 C   0  0  0  0  0  0  0  0  0  0  0  0
    6.9440   -2.6340   23.4320 C   0  0  0  0  0  0  0  0  0  0  0  0
    7.2620   -3.1320   22.2070 C   0  0  0  0  0  0  0  0  0  0  0  0
  1  2  1  0
  2  3  2  0
  2  4  1  0
  4  5  1  0
  5  6  1  0
  6  7  1  0
  7  8  1  0
  8  9  2  0
  8 10  1  0
 10 11  1  0
 11 12  1  0
 12 13  2  0
 13 14  1  0
 14 15  2  0
 15 16  1  0
 16 17  2  0
 16 18  1  0
 18 19  1  0
 18 20  1  0
 20 21  1  0
 20 22  1  0
 15 23  1  0
 12 24  1  0
 23 24  2  0
  7 25  1  0
  4 26  1  0
 25 26  1  0
M  END
