piperidine-amides-35237-covalent
     RDKit          3D

 34 38  0  0  0  0  0  0  0  0999 V2000
    7.0350   -3.3490   19.2990 C   0  0  0  0  0  0  0  0  0  0  0  0
    6.3830   -4.2000   20.3310 C   0  0  0  0  0  0  0  0  0  0  0  0
    5.3890   -4.8340   19.9770 O   0  0  0  0  0  0  0  0  0  0  0  0
    6.9250   -4.2900   21.6200 N   0  0  0  0  0  0  0  0  0  0  0  0
    6.6330   -5.4020   22.4840 C   0  0  0  0  0  0  0  0  0  0  0  0
    5.8970   -4.9090   23.7080 C   0  0  0  0  0  0  0  0  0  0  0  0
    6.5870   -3.6750   24.3220 C   0  0  0  0  0  0  0  0  0  0  0  0
    5.7070   -3.1720   25.4130 C   0  0  0  0  0  0  0  0  0  0  0  0
    4.5950   -2.7330   25.1090 O   0  0  0  0  0  0  0  0  0  0  0  0
    6.0820   -3.2020   26.7830 N   0  0  0  0  0  0  0  0  0  0  0  0
    5.4980   -2.2460   27.6560 C   0  0  0  0  0  0  0  0  0  0  0  0
    4.6670   -3.1130   28.4960 C   0  0  2  0  0  0  0  0  0  0  0  0
    4.1660   -2.6620   29.6990 C   0  0  0  0  0  0  0  0  0  0  0  0
    2.8580   -2.2930   29.6340 C   0  0  2  0  0  0  0  0  0  0  0  0
    2.8310   -0.9300   29.7410 C   0  0  0  0  0  0  0  0  0  0  0  0
    2.6660   -0.6240   31.0610 O   0  0  0  0  0  0  0  0  0  0  0  0
    1.5440   -1.0230   31.7230 C   0  0  0  0  0  0  0  0  0  0  0  0
    1.6510   -2.5060   31.9240 C   0  0  0  0  0  0  0  0  0  0  0  0
    2.0420   -2.9770   30.6050 N   0  0  0  0  0  0  0  0  0  0  0  0
    2.1210   -4.4200   30.6380 C   0  0  0  0  0  0  0  0  0  0  0  0
    2.3230   -5.1170   31.9480 C   0  0  0  0  0  0  0  0  0  0  0  0
    1.1700   -5.1930   32.8990 C   0  0  0  0  0  0  0  0  0  0  0  0
    1.3030   -5.8810   34.2380 C   0  0  0  0  0  0  0  0  0  0  0  0
    2.6020   -6.4850   34.5980 C   0  0  0  0  0  0  0  0  0  0  0  0
    3.7060   -6.3610   33.5790 C   0  0  0  0  0  0  0  0  0  0  0  0
    3.5030   -5.7130   32.3710 C   0  0  0  0  0  0  0  0  0  0  0  0
    5.4070   -4.2410   28.6620 C   0  0  0  0  0  0  0  0  0  0  0  0
    5.3230   -5.3690   29.8350 C   0  0  0  0  0  0  0  0  0  0  0  0
    6.2250   -6.6190   29.9720 C   0  0  0  0  0  0  0  0  0  0  0  0
    7.0250   -6.5410   28.9880 C   0  0  0  0  0  0  0  0  0  0  0  0
    6.4340   -5.3420   28.5000 C   0  0  0  0  0  0  0  0  0  0  0  0
    6.4120   -4.3700   27.5580 C   0  0  0  0  0  0  0  0  0  0  0  0
    6.9100   -2.6200   23.3450 C   0  0  0  0  0  0  0  0  0  0  0  0
    7.6480   -3.1590   22.1570 C   0  0  0  0  0  0  0  0  0  0  0  0
  1  2  1  0
  2  3  2  0
  2  4  1  0
  4  5  1  0
  5  6  1  0
  6  7  1  0
  7  8  1  0
  8  9  2  0
  8 10  1  0
 10 11  1  0
 11 12  1  0
 12 13  1  1
 14 13  1  1
 14 15  1  0
 15 16  1  0
 16 17  1  0
 17 18  1  0
 14 19  1  0
 18 19  1  0
 19 20  1  0
 20 21  1  0
 21 22  2  0
 22 23  1  0
 23 24  2  0
 24 25  1  0
 21 26  1  0
 25 26  2  0
 12 27  1  0
 27 28  1  0
 28 29  2  0
 29 30  1  0
 30 31  2  0
 10 32  1  0
 27 32  2  0
 31 32  1  0
  7 33  1  0
  4 34  1  0
 33 34  1  0
M  END
