piperidine-amides-5121-covalent
     RDKit          3D

 22 23  0  0  0  0  0  0  0  0999 V2000
    7.0520   -3.3400   19.3350 C   0  0  0  0  0  0  0  0  0  0  0  0
    6.3840   -4.1890   20.3480 C   0  0  0  0  0  0  0  0  0  0  0  0
    5.3700   -4.8120   19.9700 O   0  0  0  0  0  0  0  0  0  0  0  0
    6.9010   -4.3140   21.6480 N   0  0  0  0  0  0  0  0  0  0  0  0
    7.6810   -3.2680   22.2320 C   0  0  0  0  0  0  0  0  0  0  0  0
    7.2610   -2.9350   23.5830 C   0  0  0  0  0  0  0  0  0  0  0  0
    5.9920   -3.5890   23.9620 C   0  0  0  0  0  0  0  0  0  0  0  0
    5.6000   -3.2180   25.3420 C   0  0  0  0  0  0  0  0  0  0  0  0
    4.3900   -3.2220   25.6310 O   0  0  0  0  0  0  0  0  0  0  0  0
    6.5610   -2.8740   26.2990 N   0  0  0  0  0  0  0  0  0  0  0  0
    6.5060   -1.6350   27.1070 C   0  0  0  0  0  0  0  0  0  0  0  0
    7.0120   -1.6100   28.4860 C   0  0  0  0  0  0  0  0  0  0  0  0
    6.9540   -0.3850   29.2660 C   0  0  0  0  0  0  0  0  0  0  0  0
    6.4090    0.7540   28.6750 C   0  0  0  0  0  0  0  0  0  0  0  0
    5.9140    0.7870   27.3680 C   0  0  0  0  0  0  0  0  0  0  0  0
    5.2530    2.2450   26.6930 S   0  0  0  0  0  0  0  0  0  0  0  0
    3.6390    2.7730   27.1720 C   0  0  0  0  0  0  0  0  0  0  0  0
    2.8040    3.0480   26.1300 C   0  0  0  0  0  0  0  0  0  0  0  0
    2.0640    1.9620   25.7560 C   0  0  0  0  0  0  0  0  0  0  0  0
    5.9610   -0.3670   26.6090 C   0  0  0  0  0  0  0  0  0  0  0  0
    5.9260   -5.0580   23.7470 C   0  0  0  0  0  0  0  0  0  0  0  0
    6.6570   -5.4850   22.4870 C   0  0  0  0  0  0  0  0  0  0  0  0
  1  2  1  0
  2  3  2  0
  2  4  1  0
  4  5  1  0
  5  6  1  0
  6  7  1  0
  7  8  1  0
  8  9  2  0
  8 10  1  0
 10 11  1  0
 11 12  2  0
 12 13  1  0
 13 14  2  0
 14 15  1  0
 15 16  1  0
 16 17  1  0
 17 18  1  0
 18 19  1  0
 11 20  1  0
 15 20  2  0
  7 21  1  0
  4 22  1  0
 21 22  1  0
M  END
