piperidine-amides-10920-covalent
     RDKit          3D

 21 23  0  0  0  0  0  0  0  0999 V2000
    7.0730   -3.3310   19.3100 C   0  0  0  0  0  0  0  0  0  0  0  0
    6.3840   -4.1600   20.3040 C   0  0  0  0  0  0  0  0  0  0  0  0
    5.3570   -4.7690   19.9630 O   0  0  0  0  0  0  0  0  0  0  0  0
    6.8790   -4.3350   21.6100 N   0  0  0  0  0  0  0  0  0  0  0  0
    6.6090   -5.5220   22.3870 C   0  0  0  0  0  0  0  0  0  0  0  0
    5.8420   -5.0450   23.5940 C   0  0  0  0  0  0  0  0  0  0  0  0
    6.5080   -3.8830   24.2790 C   0  0  0  0  0  0  0  0  0  0  0  0
    5.7500   -3.3730   25.4560 C   0  0  0  0  0  0  0  0  0  0  0  0
    4.4790   -3.3180   25.4520 O   0  0  0  0  0  0  0  0  0  0  0  0
    6.3890   -2.9330   26.6400 N   0  0  0  0  0  0  0  0  0  0  0  0
    6.0380   -1.6520   27.3030 C   0  0  0  0  0  0  0  0  0  0  0  0
    4.7020   -1.8300   27.9200 C   0  0  0  0  0  0  0  0  0  0  0  0
    4.1790   -3.0730   27.9620 C   0  0  0  0  0  0  0  0  0  0  0  0
    4.7820   -2.5870   29.2950 C   0  0  0  0  0  0  0  0  0  0  0  0
    5.9980   -0.3940   26.6430 C   0  0  0  0  0  0  0  0  0  0  0  0
    6.0590    0.8100   27.5360 C   0  0  0  0  0  0  0  0  0  0  0  0
    6.8360    0.7140   28.6730 O   0  0  0  0  0  0  0  0  0  0  0  0
    6.7570   -0.5080   29.2950 C   0  0  0  0  0  0  0  0  0  0  0  0
    7.0980   -1.4570   28.3480 C   0  0  0  0  0  0  0  0  0  0  0  0
    6.7770   -2.7040   23.3380 C   0  0  0  0  0  0  0  0  0  0  0  0
    7.6450   -3.2660   22.2160 C   0  0  0  0  0  0  0  0  0  0  0  0
  1  2  1  0
  2  3  2  0
  2  4  1  0
  4  5  1  0
  5  6  1  0
  6  7  1  0
  7  8  1  0
  8  9  2  0
  8 10  1  0
 11 10  1  0
 11 12  1  0
 12 13  1  0
 12 14  1  0
 13 14  1  0
 11 15  1  0
 15 16  1  0
 16 17  1  0
 17 18  1  0
 11 19  1  0
 18 19  1  0
  7 20  1  0
  4 21  1  0
 20 21  1  0
M  END
