piperidine-amides-1422-covalent
     RDKit          3D

 21 22  0  0  0  0  0  0  0  0999 V2000
    7.1250   -3.2790   19.2240 C   0  0  0  0  0  0  0  0  0  0  0  0
    6.3740   -4.0810   20.2330 C   0  0  0  0  0  0  0  0  0  0  0  0
    5.2900   -4.5860   19.8990 O   0  0  0  0  0  0  0  0  0  0  0  0
    6.9270   -4.3040   21.5160 N   0  0  0  0  0  0  0  0  0  0  0  0
    6.5100   -5.4370   22.2910 C   0  0  0  0  0  0  0  0  0  0  0  0
    5.6680   -4.8570   23.4320 C   0  0  0  0  0  0  0  0  0  0  0  0
    6.4740   -3.7850   24.1000 C   0  0  0  0  0  0  0  0  0  0  0  0
    5.8040   -3.2730   25.3210 C   0  0  0  0  0  0  0  0  0  0  0  0
    4.6090   -2.9780   25.1990 O   0  0  0  0  0  0  0  0  0  0  0  0
    6.5000   -3.1390   26.5260 N   0  0  0  0  0  0  0  0  0  0  0  0
    6.2530   -3.8330   27.7420 C   0  0  0  0  0  0  0  0  0  0  0  0
    5.9680   -5.1800   27.8300 C   0  0  0  0  0  0  0  0  0  0  0  0
    5.0660   -5.6400   28.8030 C   0  0  1  0  0  0  0  0  0  0  0  0
    3.8790   -4.9470   28.8850 C   0  0  0  0  0  0  0  0  0  0  0  0
    2.7410   -5.8320   29.1690 C   0  0  0  0  0  0  0  0  0  0  0  0
    3.2600   -7.2620   29.1730 C   0  0  0  0  0  0  0  0  0  0  0  0
    4.7300   -7.0010   28.7820 C   0  0  0  0  0  0  0  0  0  0  0  0
    5.0250   -7.3950   27.5290 F   0  0  0  0  0  0  0  0  0  0  0  0
    5.5290   -7.7450   29.6360 F   0  0  0  0  0  0  0  0  0  0  0  0
    6.7400   -2.6180   23.1450 C   0  0  0  0  0  0  0  0  0  0  0  0
    7.6390   -3.2090   22.1310 C   0  0  0  0  0  0  0  0  0  0  0  0
  1  2  1  0
  2  3  2  0
  2  4  1  0
  4  5  1  0
  5  6  1  0
  6  7  1  0
  7  8  1  0
  8  9  2  0
  8 10  1  0
 10 11  1  0
 11 12  1  0
 13 12  1  6
 13 14  1  0
 14 15  1  0
 15 16  1  0
 13 17  1  0
 16 17  1  0
 17 18  1  0
 17 19  1  0
  7 20  1  0
  4 21  1  0
 20 21  1  0
M  END
