piperidine-amides-4195-covalent
     RDKit          3D

 27 30  0  0  0  0  0  0  0  0999 V2000
    7.1190   -3.3110   19.2600 C   0  0  0  0  0  0  0  0  0  0  0  0
    6.3440   -4.0620   20.2560 C   0  0  0  0  0  0  0  0  0  0  0  0
    5.2600   -4.5650   19.8840 O   0  0  0  0  0  0  0  0  0  0  0  0
    6.8370   -4.2590   21.5610 N   0  0  0  0  0  0  0  0  0  0  0  0
    7.5960   -3.1990   22.1430 C   0  0  0  0  0  0  0  0  0  0  0  0
    7.1760   -2.8010   23.4760 C   0  0  0  0  0  0  0  0  0  0  0  0
    6.5140   -3.8630   24.2450 C   0  0  0  0  0  0  0  0  0  0  0  0
    5.7450   -3.2810   25.3940 C   0  0  0  0  0  0  0  0  0  0  0  0
    4.5170   -3.0960   25.2790 O   0  0  0  0  0  0  0  0  0  0  0  0
    6.3830   -2.9410   26.6050 N   0  0  0  0  0  0  0  0  0  0  0  0
    6.3910   -1.6970   27.2900 C   0  0  0  0  0  0  0  0  0  0  0  0
    5.7410   -0.5220   26.6540 C   0  0  0  0  0  0  0  0  0  0  0  0
    5.7520    0.8150   27.4140 C   0  0  0  0  0  0  0  0  0  0  0  0
    6.3800    0.7390   28.6060 C   0  0  0  0  0  0  0  0  0  0  0  0
    6.3480    2.1050   29.3070 C   0  0  0  0  0  0  0  0  0  0  0  0
    7.1660    2.4480   30.4560 N   0  0  0  0  0  0  0  0  0  0  0  0
    6.6430    3.8050   30.5730 C   0  0  0  0  0  0  0  0  0  0  0  0
    7.2920    4.5270   31.7280 C   0  0  0  0  0  0  0  0  0  0  0  0
    6.8800    5.9610   32.0130 C   0  0  0  0  0  0  0  0  0  0  0  0
    5.8020    6.5260   31.0450 C   0  0  0  0  0  0  0  0  0  0  0  0
    5.1940    5.6870   29.8740 C   0  0  0  0  0  0  0  0  0  0  0  0
    5.7290    4.3200   29.7720 C   0  0  0  0  0  0  0  0  0  0  0  0
    5.5080    3.2190   28.9170 N   0  0  0  0  0  0  0  0  0  0  0  0
    7.0070   -0.4030   29.2080 C   0  0  0  0  0  0  0  0  0  0  0  0
    7.0070   -1.6170   28.5420 C   0  0  0  0  0  0  0  0  0  0  0  0
    5.6400   -4.7290   23.4040 C   0  0  0  0  0  0  0  0  0  0  0  0
    6.3580   -5.3350   22.3830 C   0  0  0  0  0  0  0  0  0  0  0  0
  1  2  1  0
  2  3  2  0
  2  4  1  0
  4  5  1  0
  5  6  1  0
  6  7  1  0
  7  8  1  0
  8  9  2  0
  8 10  1  0
 10 11  1  0
 11 12  2  0
 12 13  1  0
 13 14  2  0
 14 15  1  0
 15 16  2  0
 16 17  1  0
 17 18  2  0
 18 19  1  0
 19 20  2  0
 20 21  1  0
 17 22  1  0
 21 22  2  0
 15 23  1  0
 22 23  1  0
 14 24  1  0
 11 25  1  0
 24 25  2  0
  7 26  1  0
  4 27  1  0
 26 27  1  0
M  END
