piperidine-amides-13317-covalent
     RDKit          3D

 22 23  0  0  0  0  0  0  0  0999 V2000
    7.1850   -3.9130   19.6450 C   0  0  0  0  0  0  0  0  0  0  0  0
    5.9440   -3.7610   20.3080 C   0  0  0  0  0  0  0  0  0  0  0  0
    4.9640   -3.9500   19.5690 O   0  0  0  0  0  0  0  0  0  0  0  0
    5.9620   -3.5330   21.6720 N   0  0  0  0  0  0  0  0  0  0  0  0
    5.4620   -4.6070   22.4660 C   0  0  0  0  0  0  0  0  0  0  0  0
    6.2300   -4.9140   23.6770 C   0  0  0  0  0  0  0  0  0  0  0  0
    6.8830   -3.7670   24.3480 C   0  0  0  0  0  0  0  0  0  0  0  0
    6.0880   -3.3410   25.5230 C   0  0  0  0  0  0  0  0  0  0  0  0
    4.8640   -3.1290   25.3750 O   0  0  0  0  0  0  0  0  0  0  0  0
    6.7110   -3.1730   26.7760 N   0  0  0  0  0  0  0  0  0  0  0  0
    7.5190   -4.2400   27.4140 C   0  0  0  0  0  0  0  0  0  0  0  0
    6.6560   -5.3140   27.9950 C   0  0  1  0  0  0  0  0  0  0  0  0
    5.7440   -4.9070   29.0500 C   0  0  0  0  0  0  0  0  0  0  0  0
    4.5650   -5.6070   29.0640 C   0  0  2  0  0  0  0  0  0  0  0  0
    4.0870   -6.0500   30.2870 C   0  0  0  0  0  0  0  0  0  0  0  0
    4.8300   -6.9900   30.9390 C   0  0  0  0  0  0  0  0  0  0  0  0
    4.2760   -7.9860   31.7580 N   0  0  0  0  0  0  0  0  0  0  0  0
    6.1980   -6.8340   30.6730 O   0  0  0  0  0  0  0  0  0  0  0  0
    4.7040   -6.5470   28.0710 C   0  0  0  0  0  0  0  0  0  0  0  0
    5.8210   -6.1420   27.2640 O   0  0  0  0  0  0  0  0  0  0  0  0
    7.2190   -2.6180   23.4820 C   0  0  0  0  0  0  0  0  0  0  0  0
    7.2020   -2.9440   22.1370 C   0  0  0  0  0  0  0  0  0  0  0  0
  1  2  1  0
  2  3  2  0
  2  4  1  0
  4  5  1  0
  5  6  1  0
  6  7  1  0
  7  8  1  0
  8  9  2  0
  8 10  1  0
 10 11  1  0
 12 11  1  6
 12 13  1  0
 13 14  1  0
 14 15  1  1
 15 16  1  0
 16 17  1  0
 16 18  2  0
 14 19  1  0
 12 20  1  0
 19 20  1  0
  7 21  1  0
  4 22  1  0
 21 22  1  0
M  END
