piperidine-amides-31172-covalent
     RDKit          3D

 28 30  0  0  0  0  0  0  0  0999 V2000
    7.1060   -3.2540   19.1520 C   0  0  0  0  0  0  0  0  0  0  0  0
    6.3190   -3.9670   20.1610 C   0  0  0  0  0  0  0  0  0  0  0  0
    5.2370   -4.4800   19.8470 O   0  0  0  0  0  0  0  0  0  0  0  0
    6.7950   -4.1320   21.4620 N   0  0  0  0  0  0  0  0  0  0  0  0
    7.6970   -3.1730   22.0630 C   0  0  0  0  0  0  0  0  0  0  0  0
    7.0480   -2.7530   23.3360 C   0  0  0  0  0  0  0  0  0  0  0  0
    6.6640   -3.9440   24.1440 C   0  0  0  0  0  0  0  0  0  0  0  0
    6.1120   -3.5460   25.4390 C   0  0  0  0  0  0  0  0  0  0  0  0
    4.8750   -3.2920   25.5900 O   0  0  0  0  0  0  0  0  0  0  0  0
    6.9790   -3.4310   26.5370 N   0  0  0  0  0  0  0  0  0  0  0  0
    7.8370   -4.6100   26.7890 C   0  0  0  0  0  0  0  0  0  0  0  0
    7.7960   -4.9310   28.2260 C   0  0  0  0  0  0  0  0  0  0  0  0
    6.4720   -4.7370   28.8630 C   0  0  0  0  0  0  0  0  0  0  0  0
    5.9680   -3.3320   29.1190 C   0  0  0  0  0  0  0  0  0  0  0  0
    4.6180   -3.1030   29.7640 C   0  0  0  0  0  0  0  0  0  0  0  0
    3.8500   -4.3140   30.1150 C   0  0  0  0  0  0  0  0  0  0  0  0
    4.2700   -5.5990   29.9020 C   0  0  0  0  0  0  0  0  0  0  0  0
    5.5790   -5.8350   29.2760 N   0  0  0  0  0  0  0  0  0  0  0  0
    7.4510   -2.1510   26.9570 C   0  0  0  0  0  0  0  0  0  0  0  0
    6.3190   -1.1860   27.2500 C   0  0  0  0  0  0  0  0  0  0  0  0
    6.2120   -0.4550   28.5890 C   0  0  0  0  0  0  0  0  0  0  0  0
    5.0240    0.3870   28.5630 C   0  0  0  0  0  0  0  0  0  0  0  0
    4.1130    0.7450   27.9550 C   0  0  0  0  0  0  0  0  0  0  0  0
    3.1940    1.6560   28.4650 F   0  0  0  0  0  0  0  0  0  0  0  0
    4.2020    0.0430   26.6450 C   0  0  0  0  0  0  0  0  0  0  0  0
    5.2570   -0.8650   26.3380 C   0  0  0  0  0  0  0  0  0  0  0  0
    5.7630   -4.8960   23.4190 C   0  0  0  0  0  0  0  0  0  0  0  0
    6.5120   -5.3570   22.1830 C   0  0  0  0  0  0  0  0  0  0  0  0
  1  2  1  0
  2  3  2  0
  2  4  1  0
  4  5  1  0
  5  6  1  0
  6  7  1  0
  7  8  1  0
  8  9  2  0
  8 10  1  0
 10 11  1  0
 11 12  1  0
 12 13  1  0
 13 14  2  0
 14 15  1  0
 15 16  2  0
 16 17  1  0
 13 18  1  0
 17 18  2  0
 10 19  1  0
 19 20  1  0
 20 21  2  0
 21 22  1  0
 22 23  2  0
 23 24  1  0
 23 25  1  0
 20 26  1  0
 25 26  2  0
  7 27  1  0
  4 28  1  0
 27 28  1  0
M  END
