piperidine-amides-7028-covalent
     RDKit          3D

 22 23  0  0  0  0  0  0  0  0999 V2000
    7.0740   -3.2720   19.2880 C   0  0  0  0  0  0  0  0  0  0  0  0
    6.3390   -4.0810   20.2780 C   0  0  0  0  0  0  0  0  0  0  0  0
    5.3250   -4.7240   19.9390 O   0  0  0  0  0  0  0  0  0  0  0  0
    6.7770   -4.1750   21.6060 N   0  0  0  0  0  0  0  0  0  0  0  0
    7.6490   -3.1540   22.1530 C   0  0  0  0  0  0  0  0  0  0  0  0
    7.4580   -3.1370   23.6760 C   0  0  0  0  0  0  0  0  0  0  0  0
    6.0500   -3.6190   23.9270 C   0  0  0  0  0  0  0  0  0  0  0  0
    5.5890   -3.3140   25.2990 C   0  0  0  0  0  0  0  0  0  0  0  0
    4.3720   -3.1000   25.4790 O   0  0  0  0  0  0  0  0  0  0  0  0
    6.5190   -3.2650   26.3550 N   0  0  0  0  0  0  0  0  0  0  0  0
    6.1850   -3.6710   27.7030 C   0  0  0  0  0  0  0  0  0  0  0  0
    5.8950   -5.1710   27.7880 C   0  0  0  0  0  0  0  0  0  0  0  0
    4.8200   -5.5760   28.5470 C   0  0  0  0  0  0  0  0  0  0  0  0
    4.0740   -4.7630   29.1680 O   0  0  0  0  0  0  0  0  0  0  0  0
    4.5860   -6.9690   28.5940 N   0  0  0  0  0  0  0  0  0  0  0  0
    3.6880   -7.4470   29.5740 C   0  0  0  0  0  0  0  0  0  0  0  0
    3.9370   -7.8970   30.8160 N   0  0  0  0  0  0  0  0  0  0  0  0
    2.6560   -8.2450   31.3560 C   0  0  0  0  0  0  0  0  0  0  0  0
    1.7360   -7.9750   30.3800 C   0  0  0  0  0  0  0  0  0  0  0  0
    2.3780   -7.4550   29.2140 N   0  0  0  0  0  0  0  0  0  0  0  0
    6.0460   -5.1310   23.7210 C   0  0  0  0  0  0  0  0  0  0  0  0
    6.6390   -5.4010   22.3610 C   0  0  0  0  0  0  0  0  0  0  0  0
  1  2  1  0
  2  3  2  0
  2  4  1  0
  4  5  1  0
  5  6  1  0
  6  7  1  0
  7  8  1  0
  8  9  2  0
  8 10  1  0
 10 11  1  0
 11 12  1  0
 12 13  1  0
 13 14  2  0
 13 15  1  0
 15 16  1  0
 16 17  2  0
 17 18  1  0
 18 19  2  0
 16 20  1  0
 19 20  1  0
  7 21  1  0
  4 22  1  0
 21 22  1  0
M  END
