piperidine-amides-10950-covalent
     RDKit          3D

 21 21  0  0  0  0  0  0  0  0999 V2000
    7.0880   -3.2920   19.2510 C   0  0  0  0  0  0  0  0  0  0  0  0
    6.3600   -4.0640   20.2650 C   0  0  0  0  0  0  0  0  0  0  0  0
    5.3230   -4.6580   19.9270 O   0  0  0  0  0  0  0  0  0  0  0  0
    6.8220   -4.1920   21.5890 N   0  0  0  0  0  0  0  0  0  0  0  0
    6.6950   -5.4350   22.3200 C   0  0  0  0  0  0  0  0  0  0  0  0
    6.0190   -5.0870   23.6200 C   0  0  0  0  0  0  0  0  0  0  0  0
    6.0640   -3.6120   23.8930 C   0  0  0  0  0  0  0  0  0  0  0  0
    5.6240   -3.2340   25.2600 C   0  0  0  0  0  0  0  0  0  0  0  0
    4.4430   -2.8160   25.4480 O   0  0  0  0  0  0  0  0  0  0  0  0
    6.4490   -3.3090   26.3980 N   0  0  0  0  0  0  0  0  0  0  0  0
    6.0700   -4.1370   27.5730 C   0  0  0  0  0  0  0  0  0  0  0  0
    5.6900   -5.5090   27.1290 C   0  0  1  0  0  0  0  0  0  0  0  0
    5.3620   -6.4610   28.2050 C   0  0  0  0  0  0  0  0  0  0  0  0
    6.4080   -6.5130   29.2740 C   0  0  0  0  0  0  0  0  0  0  0  0
    6.6200   -7.8560   29.4570 O   0  0  0  0  0  0  0  0  0  0  0  0
    4.4530   -5.5620   26.3040 C   0  0  0  0  0  0  0  0  0  0  0  0
    3.9280   -6.9190   25.9840 C   0  0  0  0  0  0  0  0  0  0  0  0
    3.6980   -7.4230   24.7260 C   0  0  0  0  0  0  0  0  0  0  0  0
    2.5110   -6.7770   25.4740 C   0  0  0  0  0  0  0  0  0  0  0  0
    7.4460   -3.0120   23.6140 C   0  0  0  0  0  0  0  0  0  0  0  0
    7.6880   -3.1460   22.1080 C   0  0  0  0  0  0  0  0  0  0  0  0
  1  2  1  0
  2  3  2  0
  2  4  1  0
  4  5  1  0
  5  6  1  0
  6  7  1  0
  7  8  1  0
  8  9  2  0
  8 10  1  0
 10 11  1  0
 12 11  1  1
 12 13  1  0
 13 14  1  0
 14 15  1  0
 12 16  1  0
 16 17  1  0
 17 18  1  0
 17 19  1  0
  7 20  1  0
  4 21  1  0
 20 21  1  0
M  END
