piperidine-amides-27277-covalent
     RDKit          3D

 25 26  0  0  0  0  0  0  0  0999 V2000
    7.0820   -3.3120   19.2850 C   0  0  0  0  0  0  0  0  0  0  0  0
    6.3410   -4.0600   20.3080 C   0  0  0  0  0  0  0  0  0  0  0  0
    5.2950   -4.6430   19.9210 O   0  0  0  0  0  0  0  0  0  0  0  0
    6.8260   -4.1320   21.6190 N   0  0  0  0  0  0  0  0  0  0  0  0
    6.6130   -5.3180   22.4250 C   0  0  0  0  0  0  0  0  0  0  0  0
    6.0080   -4.8630   23.7250 C   0  0  0  0  0  0  0  0  0  0  0  0
    6.1460   -3.3720   23.8570 C   0  0  0  0  0  0  0  0  0  0  0  0
    5.8660   -2.9030   25.2370 C   0  0  0  0  0  0  0  0  0  0  0  0
    5.2370   -3.6700   25.9940 O   0  0  0  0  0  0  0  0  0  0  0  0
    6.2450   -1.6230   25.7210 N   0  0  0  0  0  0  0  0  0  0  0  0
    6.2480   -1.2930   27.1420 C   0  0  0  0  0  0  0  0  0  0  0  0
    7.2540   -0.3080   26.8340 C   0  0  0  0  0  0  0  0  0  0  0  0
    6.8360    1.0130   27.3570 N   0  0  0  0  0  0  0  0  0  0  0  0
    7.4130    2.0940   26.8690 C   0  0  0  0  0  0  0  0  0  0  0  0
    7.1800    3.2760   27.5370 C   0  0  0  0  0  0  0  0  0  0  0  0
    6.5240    1.2560   28.6280 C   0  0  0  0  0  0  0  0  0  0  0  0
    5.2100    1.1180   29.0230 O   0  0  0  0  0  0  0  0  0  0  0  0
    7.4600    1.6430   29.5810 O   0  0  0  0  0  0  0  0  0  0  0  0
    8.5280    0.7820   29.8200 C   0  0  0  0  0  0  0  0  0  0  0  0
    8.2520   -0.2850   30.6300 C   0  0  0  0  0  0  0  0  0  0  0  0
    8.6270   -0.6420   29.2760 C   0  0  0  0  0  0  0  0  0  0  0  0
    9.8620    1.4320   30.0570 C   0  0  0  0  0  0  0  0  0  0  0  0
    7.3160   -0.5570   25.4960 C   0  0  0  0  0  0  0  0  0  0  0  0
    7.5340   -2.9380   23.4860 C   0  0  0  0  0  0  0  0  0  0  0  0
    7.7620   -3.1250   22.1420 C   0  0  0  0  0  0  0  0  0  0  0  0
  1  2  1  0
  2  3  2  0
  2  4  1  0
  4  5  1  0
  5  6  1  0
  6  7  1  0
  7  8  1  0
  8  9  2  0
  8 10  1  0
 10 11  1  0
 11 12  1  0
 12 13  1  0
 13 14  1  0
 14 15  1  0
 13 16  1  0
 16 17  2  0
 16 18  1  0
 19 18  1  0
 19 20  1  0
 19 21  1  0
 19 22  1  0
 10 23  1  0
 12 23  1  0
  7 24  1  0
  4 25  1  0
 24 25  1  0
M  END
