piperidine-amides-31198-covalent
     RDKit          3D

 27 28  0  0  0  0  0  0  0  0999 V2000
    7.0680   -3.3470   19.3570 C   0  0  0  0  0  0  0  0  0  0  0  0
    6.3970   -4.1880   20.3470 C   0  0  0  0  0  0  0  0  0  0  0  0
    5.4140   -4.8590   19.9900 O   0  0  0  0  0  0  0  0  0  0  0  0
    6.8780   -4.2850   21.6700 N   0  0  0  0  0  0  0  0  0  0  0  0
    7.6820   -3.2190   22.2540 C   0  0  0  0  0  0  0  0  0  0  0  0
    7.4090   -3.1850   23.7430 C   0  0  0  0  0  0  0  0  0  0  0  0
    6.1280   -3.8820   24.0860 C   0  0  0  0  0  0  0  0  0  0  0  0
    5.5290   -3.5360   25.4090 C   0  0  0  0  0  0  0  0  0  0  0  0
    4.3870   -3.0020   25.4230 O   0  0  0  0  0  0  0  0  0  0  0  0
    6.1090   -3.7420   26.6850 N   0  0  0  0  0  0  0  0  0  0  0  0
    6.1260   -2.6250   27.6250 C   0  0  0  0  0  0  0  0  0  0  0  0
    5.9110   -3.2440   28.9360 C   0  0  0  0  0  0  0  0  0  0  0  0
    4.5210   -3.6590   29.1190 C   0  0  0  0  0  0  0  0  0  0  0  0
    4.0720   -4.8780   28.4680 N   0  0  0  0  0  0  0  0  0  0  0  0
    2.9030   -5.2810   29.3140 C   0  0  0  0  0  0  0  0  0  0  0  0
    2.7370   -4.7490   30.5640 O   0  0  0  0  0  0  0  0  0  0  0  0
    1.9640   -6.1680   28.9100 O   0  0  0  0  0  0  0  0  0  0  0  0
    1.7690   -7.3930   29.5950 C   0  0  0  0  0  0  0  0  0  0  0  0
    1.3680   -8.5730   28.7870 C   0  0  0  0  0  0  0  0  0  0  0  0
    3.0990   -7.8490   30.2150 C   0  0  0  0  0  0  0  0  0  0  0  0
    0.9200   -7.0380   30.6190 C   0  0  0  0  0  0  0  0  0  0  0  0
    5.0370   -5.7040   28.0470 C   0  0  2  0  0  0  0  0  0  0  0  0
    5.7700   -6.4270   29.1820 C   0  0  0  0  0  0  0  0  0  0  0  0
    5.6590   -7.7850   29.3720 O   0  0  0  0  0  0  0  0  0  0  0  0
    6.1390   -5.0920   27.2430 C   0  0  0  0  0  0  0  0  0  0  0  0
    6.2890   -5.3280   23.7890 C   0  0  0  0  0  0  0  0  0  0  0  0
    6.6110   -5.5140   22.3560 C   0  0  0  0  0  0  0  0  0  0  0  0
  1  2  1  0
  2  3  2  0
  2  4  1  0
  4  5  1  0
  5  6  1  0
  6  7  1  0
  7  8  1  0
  8  9  2  0
  8 10  1  0
 10 11  1  0
 11 12  1  0
 12 13  1  0
 13 14  1  0
 14 15  1  0
 15 16  2  0
 15 17  1  0
 18 17  1  0
 18 19  1  0
 18 20  1  0
 18 21  1  0
 14 22  1  0
 22 23  1  1
 23 24  1  0
 10 25  1  0
 22 25  1  0
  7 26  1  0
  4 27  1  0
 26 27  1  0
M  END
