piperidine-amides-1901-covalent
     RDKit          3D

 20 22  0  0  0  0  0  0  0  0999 V2000
    7.0790   -3.2680   19.2450 C   0  0  0  0  0  0  0  0  0  0  0  0
    6.3520   -4.0660   20.2710 C   0  0  0  0  0  0  0  0  0  0  0  0
    5.3110   -4.6130   19.9090 O   0  0  0  0  0  0  0  0  0  0  0  0
    6.8660   -4.2110   21.5670 N   0  0  0  0  0  0  0  0  0  0  0  0
    6.6420   -5.4020   22.3510 C   0  0  0  0  0  0  0  0  0  0  0  0
    6.0840   -5.0490   23.7090 C   0  0  0  0  0  0  0  0  0  0  0  0
    6.0620   -3.5300   23.9060 C   0  0  0  0  0  0  0  0  0  0  0  0
    5.5730   -3.2410   25.2710 C   0  0  0  0  0  0  0  0  0  0  0  0
    4.3690   -3.0150   25.4360 O   0  0  0  0  0  0  0  0  0  0  0  0
    6.4290   -3.2150   26.3860 N   0  0  0  0  0  0  0  0  0  0  0  0
    6.0580   -3.9720   27.5660 C   0  0  0  0  0  0  0  0  0  0  0  0
    5.6940   -5.3780   27.1170 C   0  0  2  0  0  0  0  0  0  0  0  0
    4.6330   -5.9820   27.3140 C   0  0  0  0  0  0  0  0  0  0  0  0
    5.3740   -6.6010   28.1100 C   0  0  1  0  0  0  0  0  0  0  0  0
    5.8770   -6.3710   29.2700 C   0  0  0  0  0  0  0  0  0  0  0  0
    4.5690   -6.3380   29.5340 C   0  0  0  0  0  0  0  0  0  0  0  0
    3.8140   -5.1590   29.5240 F   0  0  0  0  0  0  0  0  0  0  0  0
    3.8400   -7.4560   29.9630 F   0  0  0  0  0  0  0  0  0  0  0  0
    7.3740   -2.9130   23.5600 C   0  0  0  0  0  0  0  0  0  0  0  0
    7.7160   -3.1690   22.1270 C   0  0  0  0  0  0  0  0  0  0  0  0
  1  2  1  0
  2  3  2  0
  2  4  1  0
  4  5  1  0
  5  6  1  0
  6  7  1  0
  7  8  1  0
  8  9  2  0
  8 10  1  0
 10 11  1  0
 12 11  1  1
 12 13  1  0
 12 14  1  0
 14 13  1  1
 14 15  1  0
 14 16  1  0
 15 16  1  0
 16 17  1  0
 16 18  1  0
  7 19  1  0
  4 20  1  0
 19 20  1  0
M  END
