piperidine-amides-1866-covalent
     RDKit          3D

 18 19  0  0  0  0  0  0  0  0999 V2000
    7.1520   -3.2790   19.2030 C   0  0  0  0  0  0  0  0  0  0  0  0
    6.3440   -4.0240   20.1980 C   0  0  0  0  0  0  0  0  0  0  0  0
    5.2560   -4.4670   19.8450 O   0  0  0  0  0  0  0  0  0  0  0  0
    6.8700   -4.2420   21.4660 N   0  0  0  0  0  0  0  0  0  0  0  0
    6.4250   -5.3120   22.3140 C   0  0  0  0  0  0  0  0  0  0  0  0
    5.5070   -4.7730   23.3860 C   0  0  0  0  0  0  0  0  0  0  0  0
    5.8410   -3.3020   23.6970 C   0  0  0  0  0  0  0  0  0  0  0  0
    5.4180   -2.9960   25.0730 C   0  0  0  0  0  0  0  0  0  0  0  0
    4.2760   -3.2880   25.4450 O   0  0  0  0  0  0  0  0  0  0  0  0
    6.3010   -2.3680   25.9710 N   0  0  0  0  0  0  0  0  0  0  0  0
    6.1560   -2.6920   27.3610 C   0  0  0  0  0  0  0  0  0  0  0  0
    6.5420   -4.1320   27.4640 C   0  0  0  0  0  0  0  0  0  0  0  0
    6.7740   -4.8080   28.5920 C   0  0  0  0  0  0  0  0  0  0  0  0
    7.1150   -6.0210   28.3660 C   0  0  0  0  0  0  0  0  0  0  0  0
    6.8720   -6.1030   27.0510 C   0  0  0  0  0  0  0  0  0  0  0  0
    6.7000   -4.8850   26.1400 C   0  0  0  0  0  0  0  0  0  0  0  0
    7.2710   -3.0030   23.4750 C   0  0  0  0  0  0  0  0  0  0  0  0
    7.6650   -3.1970   22.0620 C   0  0  0  0  0  0  0  0  0  0  0  0
  1  2  1  0
  2  3  2  0
  2  4  1  0
  4  5  1  0
  5  6  1  0
  6  7  1  0
  7  8  1  0
  8  9  2  0
  8 10  1  0
 10 11  1  0
 11 12  1  0
 12 13  2  0
 13 14  1  0
 14 15  1  0
 12 16  1  0
 15 16  1  0
  7 17  1  0
  4 18  1  0
 17 18  1  0
M  END
