piperidine-amides-25049-covalent
     RDKit          3D

 24 26  0  0  0  0  0  0  0  0999 V2000
    6.9710   -3.3440   19.4050 C   0  0  0  0  0  0  0  0  0  0  0  0
    6.3060   -4.2320   20.4060 C   0  0  0  0  0  0  0  0  0  0  0  0
    5.3740   -4.9160   19.9840 O   0  0  0  0  0  0  0  0  0  0  0  0
    6.7280   -4.3110   21.7490 N   0  0  0  0  0  0  0  0  0  0  0  0
    6.4230   -5.4630   22.5420 C   0  0  0  0  0  0  0  0  0  0  0  0
    5.6970   -5.0320   23.8000 C   0  0  0  0  0  0  0  0  0  0  0  0
    5.5730   -3.4840   23.9180 C   0  0  0  0  0  0  0  0  0  0  0  0
    4.9970   -3.0570   25.2660 C   0  0  0  0  0  0  0  0  0  0  0  0
    4.0610   -2.2630   25.2420 O   0  0  0  0  0  0  0  0  0  0  0  0
    5.4320   -3.4990   26.5500 N   0  0  0  0  0  0  0  0  0  0  0  0
    5.2180   -2.7450   27.7570 C   0  0  0  0  0  0  0  0  0  0  0  0
    5.4270   -3.7050   28.9130 C   0  0  0  0  0  0  0  0  0  0  0  0
    6.1460   -4.8500   28.7730 C   0  0  0  0  0  0  0  0  0  0  0  0
    6.8020   -4.9740   27.6060 C   0  0  0  0  0  0  0  0  0  0  0  0
    7.8220   -5.7680   27.5290 C   0  0  0  0  0  0  0  0  0  0  0  0
    8.0580   -6.3740   28.7130 F   0  0  0  0  0  0  0  0  0  0  0  0
    8.7460   -6.1090   26.4140 C   0  0  0  0  0  0  0  0  0  0  0  0
    9.8080   -6.9560   26.4770 F   0  0  0  0  0  0  0  0  0  0  0  0
    8.3220   -5.3490   25.1830 C   0  0  0  0  0  0  0  0  0  0  0  0
    7.1890   -4.4310   25.1740 C   0  0  0  0  0  0  0  0  0  0  0  0
    6.8640   -3.7460   23.9860 F   0  0  0  0  0  0  0  0  0  0  0  0
    6.5250   -4.3420   26.4500 C   0  0  0  0  0  0  0  0  0  0  0  0
    6.7620   -2.6380   23.4850 C   0  0  0  0  0  0  0  0  0  0  0  0
    7.5650   -3.2910   22.3490 C   0  0  0  0  0  0  0  0  0  0  0  0
  1  2  1  0
  2  3  2  0
  2  4  1  0
  4  5  1  0
  5  6  1  0
  6  7  1  0
  7  8  1  0
  8  9  2  0
  8 10  1  0
 10 11  1  0
 11 12  1  0
 12 13  1  0
 13 14  1  0
 14 15  2  0
 15 16  1  0
 15 17  1  0
 17 18  1  0
 17 19  2  0
 19 20  1  0
 20 21  1  0
 10 22  1  0
 14 22  1  0
 20 22  2  0
  7 23  1  0
  4 24  1  0
 23 24  1  0
M  END
