piperidine-amides-23244-covalent
     RDKit          3D

 24 26  0  0  0  0  0  0  0  0999 V2000
    7.1120   -3.3250   19.3050 C   0  0  0  0  0  0  0  0  0  0  0  0
    6.4060   -4.1620   20.2840 C   0  0  0  0  0  0  0  0  0  0  0  0
    5.3170   -4.6650   19.9240 O   0  0  0  0  0  0  0  0  0  0  0  0
    6.9670   -4.4500   21.5510 N   0  0  0  0  0  0  0  0  0  0  0  0
    6.4040   -5.5200   22.2850 C   0  0  0  0  0  0  0  0  0  0  0  0
    5.8820   -5.1110   23.5830 C   0  0  0  0  0  0  0  0  0  0  0  0
    6.6340   -4.0100   24.2210 C   0  0  0  0  0  0  0  0  0  0  0  0
    5.9100   -3.4750   25.4140 C   0  0  0  0  0  0  0  0  0  0  0  0
    4.8480   -2.8480   25.2340 O   0  0  0  0  0  0  0  0  0  0  0  0
    6.3650   -3.6600   26.7320 N   0  0  0  0  0  0  0  0  0  0  0  0
    5.4130   -3.8560   27.7710 C   0  0  0  0  0  0  0  0  0  0  0  0
    4.2990   -3.0230   28.1110 C   0  0  0  0  0  0  0  0  0  0  0  0
    3.3090   -3.4000   29.2760 C   0  0  0  0  0  0  0  0  0  0  0  0
    3.4830   -4.6080   30.0540 C   0  0  0  0  0  0  0  0  0  0  0  0
    4.6800   -5.5700   29.7510 C   0  0  0  0  0  0  0  0  0  0  0  0
    5.4140   -4.9850   28.6550 C   0  0  0  0  0  0  0  0  0  0  0  0
    6.6600   -5.7040   28.1290 C   0  0  0  0  0  0  0  0  0  0  0  0
    7.9310   -4.9140   28.0510 C   0  0  0  0  0  0  0  0  0  0  0  0
    7.7550   -3.8480   27.0050 C   0  0  1  0  0  0  0  0  0  0  0  0
    8.6480   -4.1230   25.7800 C   0  0  0  0  0  0  0  0  0  0  0  0
    9.1680   -5.4440   25.7340 N   0  0  0  0  0  0  0  0  0  0  0  0
    8.7790   -3.0990   25.0210 O   0  0  0  0  0  0  0  0  0  0  0  0
    6.9240   -2.9170   23.2430 C   0  0  0  0  0  0  0  0  0  0  0  0
    7.7500   -3.4610   22.2690 C   0  0  0  0  0  0  0  0  0  0  0  0
  1  2  1  0
  2  3  2  0
  2  4  1  0
  4  5  1  0
  5  6  1  0
  6  7  1  0
  7  8  1  0
  8  9  2  0
  8 10  1  0
 10 11  1  0
 11 12  2  0
 12 13  1  0
 13 14  2  0
 14 15  1  0
 11 16  1  0
 15 16  2  0
 16 17  1  0
 17 18  1  0
 10 19  1  0
 18 19  1  0
 19 20  1  6
 20 21  1  0
 20 22  2  0
  7 23  1  0
  4 24  1  0
 23 24  1  0
M  END
