piperidine-amides-202-covalent
     RDKit          3D

 21 23  0  0  0  0  0  0  0  0999 V2000
    7.0580   -3.3770   19.2960 C   0  0  0  0  0  0  0  0  0  0  0  0
    6.3960   -4.1430   20.3250 C   0  0  0  0  0  0  0  0  0  0  0  0
    5.3540   -4.7790   19.9760 O   0  0  0  0  0  0  0  0  0  0  0  0
    6.8710   -4.2720   21.6520 N   0  0  0  0  0  0  0  0  0  0  0  0
    6.6050   -5.5490   22.3350 C   0  0  0  0  0  0  0  0  0  0  0  0
    5.6300   -4.9960   23.4310 C   0  0  0  0  0  0  0  0  0  0  0  0
    6.4480   -3.9760   24.1850 C   0  0  0  0  0  0  0  0  0  0  0  0
    5.8450   -3.8360   25.6570 C   0  0  0  0  0  0  0  0  0  0  0  0
    5.4840   -4.9210   26.0620 O   0  0  0  0  0  0  0  0  0  0  0  0
    5.8580   -2.6370   26.0510 N   0  0  0  0  0  0  0  0  0  0  0  0
    5.7510   -1.3620   26.5080 C   0  0  2  0  0  0  0  0  0  0  0  0
    6.2050   -0.2240   26.3850 C   0  0  0  0  0  0  0  0  0  0  0  0
    6.7790   -0.8710   27.5690 C   0  0  1  0  0  0  0  0  0  0  0  0
    6.2580   -0.5640   28.9110 C   0  0  0  0  0  0  0  0  0  0  0  0
    7.5260   -0.7480   29.7620 C   0  0  0  0  0  0  0  0  0  0  0  0
    7.1360   -0.4530   31.0910 C   0  0  0  0  0  0  0  0  0  0  0  0
    5.8400   -0.0780   31.5150 C   0  0  0  0  0  0  0  0  0  0  0  0
    4.7670    0.0630   30.7350 N   0  0  0  0  0  0  0  0  0  0  0  0
    4.9370   -0.1830   29.3470 C   0  0  0  0  0  0  0  0  0  0  0  0
    6.7490   -2.7770   23.3370 C   0  0  0  0  0  0  0  0  0  0  0  0
    7.5910   -3.2200   22.3370 C   0  0  0  0  0  0  0  0  0  0  0  0
  1  2  1  0
  2  3  2  0
  2  4  1  0
  4  5  1  0
  5  6  1  0
  6  7  1  0
  7  8  1  0
  8  9  2  0
  8 10  1  0
 11 10  1  6
 11 12  1  0
 11 13  1  0
 12 13  1  0
 13 14  1  1
 14 15  2  0
 15 16  1  0
 16 17  2  0
 17 18  1  0
 14 19  1  0
 18 19  2  0
  7 20  1  0
  4 21  1  0
 20 21  1  0
M  END
