piperidine-amides-32507-covalent
     RDKit          3D

 29 32  0  0  0  0  0  0  0  0999 V2000
    7.0730   -3.3620   19.4160 C   0  0  0  0  0  0  0  0  0  0  0  0
    6.3490   -4.2290   20.3810 C   0  0  0  0  0  0  0  0  0  0  0  0
    5.3520   -4.8540   19.9820 O   0  0  0  0  0  0  0  0  0  0  0  0
    6.8320   -4.3670   21.7040 N   0  0  0  0  0  0  0  0  0  0  0  0
    6.6850   -5.6250   22.4080 C   0  0  0  0  0  0  0  0  0  0  0  0
    6.3920   -5.3580   23.8980 C   0  0  0  0  0  0  0  0  0  0  0  0
    6.1990   -3.8910   24.0770 C   0  0  0  0  0  0  0  0  0  0  0  0
    5.6110   -3.4290   25.3730 C   0  0  0  0  0  0  0  0  0  0  0  0
    4.6140   -2.7120   25.2340 O   0  0  0  0  0  0  0  0  0  0  0  0
    6.0940   -3.7420   26.6580 N   0  0  0  0  0  0  0  0  0  0  0  0
    5.8740   -2.9530   27.7990 C   0  0  0  0  0  0  0  0  0  0  0  0
    5.4240   -3.5360   28.9490 C   0  0  0  0  0  0  0  0  0  0  0  0
    4.3920   -4.4820   28.5560 N   0  0  0  0  0  0  0  0  0  0  0  0
    3.2990   -4.8480   29.3530 C   0  0  0  0  0  0  0  0  0  0  0  0
    2.3930   -5.5970   28.6240 C   0  0  0  0  0  0  0  0  0  0  0  0
    2.6050   -6.9640   28.7820 N   0  0  0  0  0  0  0  0  0  0  0  0
    1.5720   -7.4450   27.9550 C   0  0  0  0  0  0  0  0  0  0  0  0
    1.2200   -8.9130   27.6560 C   0  0  0  0  0  0  0  0  0  0  0  0
    0.8030   -9.6870   28.8760 C   0  0  0  0  0  0  0  0  0  0  0  0
    0.4780  -11.0040   28.7060 C   0  0  0  0  0  0  0  0  0  0  0  0
    0.4790  -11.8040   27.4420 C   0  0  0  0  0  0  0  0  0  0  0  0
    0.9260  -10.8820   26.2810 C   0  0  0  0  0  0  0  0  0  0  0  0
    1.2770   -9.5400   26.3320 C   0  0  0  0  0  0  0  0  0  0  0  0
    0.8550   -6.4390   27.3920 N   0  0  0  0  0  0  0  0  0  0  0  0
    1.3860   -5.2720   27.8240 O   0  0  0  0  0  0  0  0  0  0  0  0
    4.8700   -5.5660   27.7750 C   0  0  0  0  0  0  0  0  0  0  0  0
    6.1210   -5.1630   27.0940 C   0  0  0  0  0  0  0  0  0  0  0  0
    7.4660   -3.1460   23.7410 C   0  0  0  0  0  0  0  0  0  0  0  0
    7.6740   -3.3020   22.2770 C   0  0  0  0  0  0  0  0  0  0  0  0
  1  2  1  0
  2  3  2  0
  2  4  1  0
  4  5  1  0
  5  6  1  0
  6  7  1  0
  7  8  1  0
  8  9  2  0
  8 10  1  0
 10 11  1  0
 11 12  1  0
 12 13  1  0
 13 14  1  0
 14 15  1  0
 15 16  2  0
 16 17  1  0
 17 18  1  0
 18 19  2  0
 19 20  1  0
 20 21  2  0
 21 22  1  0
 18 23  1  0
 22 23  2  0
 17 24  2  0
 15 25  1  0
 24 25  1  0
 13 26  1  0
 10 27  1  0
 26 27  1  0
  7 28  1  0
  4 29  1  0
 28 29  1  0
M  END
