piperidine-amides-33865-covalent
     RDKit          3D

 30 32  0  0  0  0  0  0  0  0999 V2000
    7.0440   -3.3770   19.3480 C   0  0  0  0  0  0  0  0  0  0  0  0
    6.4160   -4.2420   20.3620 C   0  0  0  0  0  0  0  0  0  0  0  0
    5.3890   -4.8620   19.9910 O   0  0  0  0  0  0  0  0  0  0  0  0
    6.9690   -4.4150   21.6660 N   0  0  0  0  0  0  0  0  0  0  0  0
    6.4390   -5.4600   22.4550 C   0  0  0  0  0  0  0  0  0  0  0  0
    5.7220   -5.0000   23.6540 C   0  0  0  0  0  0  0  0  0  0  0  0
    6.2270   -3.7960   24.3870 C   0  0  0  0  0  0  0  0  0  0  0  0
    5.1670   -3.2690   25.3480 C   0  0  0  0  0  0  0  0  0  0  0  0
    4.0790   -2.9240   24.8690 O   0  0  0  0  0  0  0  0  0  0  0  0
    5.3370   -3.1530   26.7630 N   0  0  0  0  0  0  0  0  0  0  0  0
    6.5300   -3.2950   27.3670 C   0  0  0  0  0  0  0  0  0  0  0  0
    6.6050   -4.4390   28.2650 C   0  0  0  0  0  0  0  0  0  0  0  0
    5.5680   -4.6340   29.0370 N   0  0  0  0  0  0  0  0  0  0  0  0
    5.1480   -5.9290   29.4980 C   0  0  0  0  0  0  0  0  0  0  0  0
    4.4140   -6.6640   28.5940 O   0  0  0  0  0  0  0  0  0  0  0  0
    5.4770   -6.2490   30.6590 O   0  0  0  0  0  0  0  0  0  0  0  0
    4.7540   -6.9820   31.4970 C   0  0  0  0  0  0  0  0  0  0  0  0
    4.1890   -6.1720   32.6640 C   0  0  0  0  0  0  0  0  0  0  0  0
    3.6380   -7.8030   30.8270 C   0  0  0  0  0  0  0  0  0  0  0  0
    5.5570   -7.7980   32.4370 C   0  0  0  0  0  0  0  0  0  0  0  0
    4.6540   -3.5840   29.0260 C   0  0  1  0  0  0  0  0  0  0  0  0
    5.1400   -2.2990   29.6960 C   0  0  0  0  0  0  0  0  0  0  0  0
    6.5420   -1.7060   29.6270 C   0  0  0  0  0  0  0  0  0  0  0  0
    6.7510   -0.4480   30.3760 C   0  0  0  0  0  0  0  0  0  0  0  0
    5.7470    0.1890   31.1130 C   0  0  0  0  0  0  0  0  0  0  0  0
    4.4000   -0.3010   31.2270 N   0  0  0  0  0  0  0  0  0  0  0  0
    4.1730   -1.5340   30.5030 C   0  0  0  0  0  0  0  0  0  0  0  0
    4.2440   -3.4320   27.6830 C   0  0  0  0  0  0  0  0  0  0  0  0
    6.7660   -2.7290   23.4580 C   0  0  0  0  0  0  0  0  0  0  0  0
    7.5900   -3.3110   22.3190 C   0  0  0  0  0  0  0  0  0  0  0  0
  1  2  1  0
  2  3  2  0
  2  4  1  0
  4  5  1  0
  5  6  1  0
  6  7  1  0
  7  8  1  0
  8  9  2  0
  8 10  1  0
 10 11  1  0
 11 12  1  0
 12 13  1  0
 13 14  1  0
 14 15  2  0
 14 16  1  0
 17 16  1  0
 17 18  1  0
 17 19  1  0
 17 20  1  0
 13 21  1  0
 21 22  1  6
 22 23  2  0
 23 24  1  0
 24 25  2  0
 25 26  1  0
 22 27  1  0
 26 27  2  0
 10 28  1  0
 21 28  1  0
  7 29  1  0
  4 30  1  0
 29 30  1  0
M  END
