piperidine-amides-1595-covalent
     RDKit          3D

 21 21  0  0  0  0  0  0  0  0999 V2000
    7.1420   -3.2560   19.1890 C   0  0  0  0  0  0  0  0  0  0  0  0
    6.3610   -4.0220   20.1960 C   0  0  0  0  0  0  0  0  0  0  0  0
    5.2740   -4.5240   19.8710 O   0  0  0  0  0  0  0  0  0  0  0  0
    6.9020   -4.2130   21.4810 N   0  0  0  0  0  0  0  0  0  0  0  0
    6.4830   -5.3110   22.3030 C   0  0  0  0  0  0  0  0  0  0  0  0
    5.5700   -4.7050   23.3730 C   0  0  0  0  0  0  0  0  0  0  0  0
    6.4250   -3.8320   24.2310 C   0  0  0  0  0  0  0  0  0  0  0  0
    5.7270   -3.3290   25.4330 C   0  0  0  0  0  0  0  0  0  0  0  0
    4.5500   -2.9900   25.2760 O   0  0  0  0  0  0  0  0  0  0  0  0
    6.3900   -3.2520   26.6650 N   0  0  0  0  0  0  0  0  0  0  0  0
    6.2320   -4.1070   27.7930 C   0  0  0  0  0  0  0  0  0  0  0  0
    6.1210   -5.4810   27.7280 C   0  0  0  0  0  0  0  0  0  0  0  0
    4.7930   -5.8250   28.2190 N   0  0  0  0  0  0  0  0  0  0  0  0
    4.2190   -7.0880   28.1160 C   0  0  0  0  0  0  0  0  0  0  0  0
    3.1650   -7.2610   28.9850 C   0  0  0  0  0  0  0  0  0  0  0  0
    1.7770   -6.9710   28.5190 C   0  0  0  0  0  0  0  0  0  0  0  0
    1.3640   -5.6550   28.4560 F   0  0  0  0  0  0  0  0  0  0  0  0
    1.6450   -7.4840   27.2390 F   0  0  0  0  0  0  0  0  0  0  0  0
    0.8430   -7.6120   29.3310 F   0  0  0  0  0  0  0  0  0  0  0  0
    7.0120   -2.7060   23.4230 C   0  0  0  0  0  0  0  0  0  0  0  0
    7.6540   -3.1920   22.1350 C   0  0  0  0  0  0  0  0  0  0  0  0
  1  2  1  0
  2  3  2  0
  2  4  1  0
  4  5  1  0
  5  6  1  0
  6  7  1  0
  7  8  1  0
  8  9  2  0
  8 10  1  0
 10 11  1  0
 11 12  1  0
 12 13  1  0
 13 14  1  0
 14 15  1  0
 15 16  1  0
 16 17  1  0
 16 18  1  0
 16 19  1  0
  7 20  1  0
  4 21  1  0
 20 21  1  0
M  END
