piperidine-amides-33126-covalent
     RDKit          3D

 28 30  0  0  0  0  0  0  0  0999 V2000
    7.1090   -3.3520   19.2660 C   0  0  0  0  0  0  0  0  0  0  0  0
    6.3760   -4.1150   20.2760 C   0  0  0  0  0  0  0  0  0  0  0  0
    5.2940   -4.6350   19.9200 O   0  0  0  0  0  0  0  0  0  0  0  0
    6.9230   -4.2880   21.5660 N   0  0  0  0  0  0  0  0  0  0  0  0
    6.4990   -5.3950   22.3460 C   0  0  0  0  0  0  0  0  0  0  0  0
    6.0850   -5.0500   23.7070 C   0  0  0  0  0  0  0  0  0  0  0  0
    6.6520   -3.7960   24.2640 C   0  0  0  0  0  0  0  0  0  0  0  0
    5.7910   -3.2580   25.3730 C   0  0  0  0  0  0  0  0  0  0  0  0
    5.0940   -2.2510   25.1600 O   0  0  0  0  0  0  0  0  0  0  0  0
    5.7020   -3.8580   26.6460 N   0  0  0  0  0  0  0  0  0  0  0  0
    4.5570   -4.4580   27.1500 C   0  0  0  0  0  0  0  0  0  0  0  0
    4.3140   -4.4110   28.5820 C   0  0  0  0  0  0  0  0  0  0  0  0
    5.6550   -4.5570   29.2890 C   0  0  0  0  0  0  0  0  0  0  0  0
    5.6450   -5.9500   29.8050 N   0  0  0  0  0  0  0  0  0  0  0  0
    5.2060   -6.9070   28.8180 C   0  0  0  0  0  0  0  0  0  0  0  0
    3.6710   -6.7710   28.8000 C   0  0  0  0  0  0  0  0  0  0  0  0
    3.5520   -7.9720   29.6600 C   0  0  0  0  0  0  0  0  0  0  0  0
    5.1300   -6.2220   31.0310 C   0  0  0  0  0  0  0  0  0  0  0  0
    5.9760   -6.9280   31.8980 O   0  0  0  0  0  0  0  0  0  0  0  0
    3.7500   -5.6910   31.3640 C   0  0  0  0  0  0  0  0  0  0  0  0
    2.8260   -6.4590   32.2600 C   0  0  0  0  0  0  0  0  0  0  0  0
    1.4940   -5.7840   32.4940 C   0  0  0  0  0  0  0  0  0  0  0  0
    1.3500   -4.4820   31.7880 C   0  0  0  0  0  0  0  0  0  0  0  0
    2.8340   -4.2100   30.9250 S   0  0  0  0  0  0  0  0  0  0  0  0
    6.7480   -4.4100   28.5060 C   0  0  0  0  0  0  0  0  0  0  0  0
    6.4580   -3.2990   27.7160 C   0  0  0  0  0  0  0  0  0  0  0  0
    6.8490   -2.7470   23.2350 C   0  0  0  0  0  0  0  0  0  0  0  0
    7.6430   -3.2210   22.2090 C   0  0  0  0  0  0  0  0  0  0  0  0
  1  2  1  0
  2  3  2  0
  2  4  1  0
  4  5  1  0
  5  6  1  0
  6  7  1  0
  7  8  1  0
  8  9  2  0
  8 10  1  0
 10 11  1  0
 11 12  1  0
 12 13  1  0
 13 14  1  0
 14 15  1  0
 15 16  1  0
 16 17  1  0
 14 18  1  0
 18 19  2  0
 18 20  1  0
 20 21  2  0
 21 22  1  0
 22 23  2  0
 20 24  1  0
 23 24  1  0
 13 25  1  0
 10 26  1  0
 25 26  1  0
  7 27  1  0
  4 28  1  0
 27 28  1  0
M  END
