piperidine-amides-1047-covalent
     RDKit          3D

 24 25  0  0  0  0  0  0  0  0999 V2000
    7.1550   -3.2750   19.1940 C   0  0  0  0  0  0  0  0  0  0  0  0
    6.3860   -4.0600   20.1970 C   0  0  0  0  0  0  0  0  0  0  0  0
    5.2890   -4.5480   19.8820 O   0  0  0  0  0  0  0  0  0  0  0  0
    6.9590   -4.2800   21.4650 N   0  0  0  0  0  0  0  0  0  0  0  0
    7.7040   -3.2490   22.1260 C   0  0  0  0  0  0  0  0  0  0  0  0
    6.7700   -2.7070   23.2010 C   0  0  0  0  0  0  0  0  0  0  0  0
    6.4350   -3.8330   24.1230 C   0  0  0  0  0  0  0  0  0  0  0  0
    5.8280   -3.2990   25.3520 C   0  0  0  0  0  0  0  0  0  0  0  0
    4.6480   -2.9330   25.2710 O   0  0  0  0  0  0  0  0  0  0  0  0
    6.5780   -3.2320   26.5180 N   0  0  0  0  0  0  0  0  0  0  0  0
    6.2020   -3.8090   27.7470 C   0  0  1  0  0  0  0  0  0  0  0  0
    6.7430   -4.9690   28.2100 C   0  0  0  0  0  0  0  0  0  0  0  0
    8.0990   -5.0960   28.1090 C   0  0  0  0  0  0  0  0  0  0  0  0
    8.9880   -4.2540   28.7060 O   0  0  0  0  0  0  0  0  0  0  0  0
    8.5700   -6.1650   27.2810 N   0  0  0  0  0  0  0  0  0  0  0  0
    9.3960   -5.9960   26.2370 C   0  0  0  0  0  0  0  0  0  0  0  0
    6.3460   -2.6850   28.7010 C   0  0  0  0  0  0  0  0  0  0  0  0
    7.6510   -1.9130   28.8670 C   0  0  0  0  0  0  0  0  0  0  0  0
    7.5910   -0.8070   29.8880 C   0  0  0  0  0  0  0  0  0  0  0  0
    6.4920   -0.4800   30.6250 C   0  0  0  0  0  0  0  0  0  0  0  0
    5.1400   -1.1070   30.6040 C   0  0  0  0  0  0  0  0  0  0  0  0
    5.1950   -2.2420   29.5630 C   0  0  0  0  0  0  0  0  0  0  0  0
    5.6100   -4.8160   23.3960 C   0  0  0  0  0  0  0  0  0  0  0  0
    6.4920   -5.3680   22.2610 C   0  0  0  0  0  0  0  0  0  0  0  0
  1  2  1  0
  2  3  2  0
  2  4  1  0
  4  5  1  0
  5  6  1  0
  6  7  1  0
  7  8  1  0
  8  9  2  0
  8 10  1  0
 10 11  1  0
 11 12  1  1
 12 13  1  0
 13 14  2  0
 13 15  1  0
 15 16  1  0
 11 17  1  0
 17 18  2  0
 18 19  1  0
 19 20  2  0
 20 21  1  0
 17 22  1  0
 21 22  2  0
  7 23  1  0
  4 24  1  0
 23 24  1  0
M  END
