piperidine-amides-15220-covalent
     RDKit          3D

 17 19  0  0  0  0  0  0  0  0999 V2000
    7.0710   -3.3380   19.3570 C   0  0  0  0  0  0  0  0  0  0  0  0
    6.3800   -4.1950   20.3290 C   0  0  0  0  0  0  0  0  0  0  0  0
    5.3800   -4.8640   19.9860 O   0  0  0  0  0  0  0  0  0  0  0  0
    6.8780   -4.2920   21.6340 N   0  0  0  0  0  0  0  0  0  0  0  0
    6.6160   -5.4620   22.4430 C   0  0  0  0  0  0  0  0  0  0  0  0
    5.7770   -5.0210   23.6600 C   0  0  0  0  0  0  0  0  0  0  0  0
    6.5400   -3.9310   24.4030 C   0  0  0  0  0  0  0  0  0  0  0  0
    5.7250   -3.4650   25.5470 C   0  0  0  0  0  0  0  0  0  0  0  0
    4.4750   -3.5320   25.4770 O   0  0  0  0  0  0  0  0  0  0  0  0
    6.3450   -2.9230   26.7000 N   0  0  0  0  0  0  0  0  0  0  0  0
    5.8830   -1.6440   27.1730 C   0  0  2  0  0  0  0  0  0  0  0  0
    6.5260   -0.7590   26.4880 C   0  0  0  0  0  0  0  0  0  0  0  0
    6.9060   -0.6330   27.8680 C   0  0  0  0  0  0  0  0  0  0  0  0
    7.2690   -1.1790   28.8470 C   0  0  0  0  0  0  0  0  0  0  0  0
    6.3270   -0.0130   28.9820 C   0  0  0  0  0  0  0  0  0  0  0  0
    6.8720   -2.7900   23.5170 C   0  0  0  0  0  0  0  0  0  0  0  0
    7.5560   -3.1790   22.2410 C   0  0  0  0  0  0  0  0  0  0  0  0
  1  2  1  0
  2  3  2  0
  2  4  1  0
  4  5  1  0
  5  6  1  0
  6  7  1  0
  7  8  1  0
  8  9  2  0
  8 10  1  0
 11 10  1  6
 11 12  1  0
 11 13  1  0
 13 12  1  0
 13 14  1  0
 13 15  1  0
 14 15  1  0
  7 16  1  0
  4 17  1  0
 16 17  1  0
M  END
