piperidine-amides-9008-covalent
     RDKit          3D

 21 23  0  0  0  0  0  0  0  0999 V2000
    7.0890   -3.3180   19.2900 C   0  0  0  0  0  0  0  0  0  0  0  0
    6.3570   -4.1200   20.2770 C   0  0  0  0  0  0  0  0  0  0  0  0
    5.3130   -4.6940   19.9320 O   0  0  0  0  0  0  0  0  0  0  0  0
    6.8330   -4.3020   21.5820 N   0  0  0  0  0  0  0  0  0  0  0  0
    6.6470   -5.5350   22.3130 C   0  0  0  0  0  0  0  0  0  0  0  0
    6.2980   -5.1350   23.7200 C   0  0  0  0  0  0  0  0  0  0  0  0
    6.0450   -3.6610   23.8460 C   0  0  0  0  0  0  0  0  0  0  0  0
    5.7600   -3.2520   25.2180 C   0  0  0  0  0  0  0  0  0  0  0  0
    4.6680   -3.5390   25.7900 O   0  0  0  0  0  0  0  0  0  0  0  0
    6.7160   -2.5030   25.9140 N   0  0  0  0  0  0  0  0  0  0  0  0
    6.3890   -1.9230   27.2080 C   0  0  0  0  0  0  0  0  0  0  0  0
    6.6800   -2.8630   28.3390 C   0  0  0  0  0  0  0  0  0  0  0  0
    6.2380   -1.8920   29.1420 N   0  0  0  0  0  0  0  0  0  0  0  0
    5.8290   -0.7720   28.6780 N   0  0  0  0  0  0  0  0  0  0  0  0
    5.8190   -0.4950   27.2060 C   0  0  0  0  0  0  0  0  0  0  0  0
    5.2800    0.7160   27.9150 C   0  0  0  0  0  0  0  0  0  0  0  0
    6.4260    1.5610   28.4030 C   0  0  0  0  0  0  0  0  0  0  0  0
    6.3450    1.1170   29.7750 C   0  0  0  0  0  0  0  0  0  0  0  0
    5.4170    0.1490   29.7070 C   0  0  0  0  0  0  0  0  0  0  0  0
    7.2170   -2.8190   23.4260 C   0  0  0  0  0  0  0  0  0  0  0  0
    7.7680   -3.3430   22.1410 C   0  0  0  0  0  0  0  0  0  0  0  0
  1  2  1  0
  2  3  2  0
  2  4  1  0
  4  5  1  0
  5  6  1  0
  6  7  1  0
  7  8  1  0
  8  9  2  0
  8 10  1  0
 10 11  1  0
 11 12  1  0
 12 13  2  0
 13 14  1  0
 11 15  2  0
 14 15  1  0
 15 16  1  0
 16 17  1  0
 17 18  1  0
 14 19  1  0
 18 19  1  0
  7 20  1  0
  4 21  1  0
 20 21  1  0
M  END
