piperidine-amides-10509-covalent
     RDKit          3D

 23 25  0  0  0  0  0  0  0  0999 V2000
    7.0280   -3.3390   19.3230 C   0  0  0  0  0  0  0  0  0  0  0  0
    6.3710   -4.1580   20.3480 C   0  0  0  0  0  0  0  0  0  0  0  0
    5.3710   -4.8250   19.9750 O   0  0  0  0  0  0  0  0  0  0  0  0
    6.8770   -4.2090   21.6520 N   0  0  0  0  0  0  0  0  0  0  0  0
    7.7340   -3.1770   22.1980 C   0  0  0  0  0  0  0  0  0  0  0  0
    7.3830   -2.9730   23.6440 C   0  0  0  0  0  0  0  0  0  0  0  0
    6.0620   -3.6170   23.9640 C   0  0  0  0  0  0  0  0  0  0  0  0
    5.6510   -3.2960   25.3540 C   0  0  0  0  0  0  0  0  0  0  0  0
    4.4280   -3.3660   25.6350 O   0  0  0  0  0  0  0  0  0  0  0  0
    6.5520   -2.9030   26.3630 N   0  0  0  0  0  0  0  0  0  0  0  0
    6.4450   -1.6360   27.0560 C   0  0  0  0  0  0  0  0  0  0  0  0
    7.0520   -1.5960   28.4470 C   0  0  0  0  0  0  0  0  0  0  0  0
    7.0000   -0.4550   29.1900 C   0  0  0  0  0  0  0  0  0  0  0  0
    6.3840    0.6510   28.6440 C   0  0  0  0  0  0  0  0  0  0  0  0
    5.8020    0.7110   27.3770 C   0  0  0  0  0  0  0  0  0  0  0  0
    5.8480   -0.4480   26.6060 C   0  0  0  0  0  0  0  0  0  0  0  0
    5.2510    1.8900   27.0300 N   0  0  0  0  0  0  0  0  0  0  0  0
    4.5030    2.6030   27.8980 C   0  0  0  0  0  0  0  0  0  0  0  0
    3.3890    3.3830   27.5610 O   0  0  0  0  0  0  0  0  0  0  0  0
    4.9550    2.4810   29.1600 N   0  0  0  0  0  0  0  0  0  0  0  0
    6.2580    1.9610   29.3550 C   0  0  0  0  0  0  0  0  0  0  0  0
    6.1100   -5.0960   23.7750 C   0  0  0  0  0  0  0  0  0  0  0  0
    6.6140   -5.4460   22.3920 C   0  0  0  0  0  0  0  0  0  0  0  0
  1  2  1  0
  2  3  2  0
  2  4  1  0
  4  5  1  0
  5  6  1  0
  6  7  1  0
  7  8  1  0
  8  9  2  0
  8 10  1  0
 10 11  1  0
 11 12  2  0
 12 13  1  0
 13 14  2  0
 14 15  1  0
 11 16  1  0
 15 16  2  0
 15 17  1  0
 17 18  1  0
 18 19  2  0
 18 20  1  0
 14 21  1  0
 20 21  1  0
  7 22  1  0
  4 23  1  0
 22 23  1  0
M  END
