piperidine-amides-8287-covalent
     RDKit          3D

 25 26  0  0  0  0  0  0  0  0999 V2000
    7.0280   -3.3280   19.3530 C   0  0  0  0  0  0  0  0  0  0  0  0
    6.3700   -4.1780   20.3470 C   0  0  0  0  0  0  0  0  0  0  0  0
    5.3840   -4.8400   19.9740 O   0  0  0  0  0  0  0  0  0  0  0  0
    6.8590   -4.2800   21.6790 N   0  0  0  0  0  0  0  0  0  0  0  0
    6.5280   -5.4630   22.4290 C   0  0  0  0  0  0  0  0  0  0  0  0
    6.3670   -5.1470   23.8960 C   0  0  0  0  0  0  0  0  0  0  0  0
    6.1580   -3.6510   24.0470 C   0  0  0  0  0  0  0  0  0  0  0  0
    5.6950   -3.2860   25.4410 C   0  0  0  0  0  0  0  0  0  0  0  0
    4.4990   -3.4830   25.6470 O   0  0  0  0  0  0  0  0  0  0  0  0
    6.5710   -2.7470   26.3950 N   0  0  0  0  0  0  0  0  0  0  0  0
    6.4200   -1.4000   26.8690 C   0  0  0  0  0  0  0  0  0  0  0  0
    5.8850   -0.4060   26.0190 C   0  0  0  0  0  0  0  0  0  0  0  0
    5.6750    0.9200   26.3330 C   0  0  0  0  0  0  0  0  0  0  0  0
    5.1350    1.7150   25.3480 O   0  0  0  0  0  0  0  0  0  0  0  0
    4.1960    1.6090   24.4010 C   0  0  0  0  0  0  0  0  0  0  0  0
    6.0740    1.3340   27.7510 C   0  0  0  0  0  0  0  0  0  0  0  0
    6.6520    0.3500   28.7250 C   0  0  0  0  0  0  0  0  0  0  0  0
    6.8030   -1.0270   28.2210 C   0  0  0  0  0  0  0  0  0  0  0  0
    7.3320   -1.8530   29.2120 N   0  0  0  0  0  0  0  0  0  0  0  0
    6.9590   -1.1620   30.4270 C   0  0  0  0  0  0  0  0  0  0  0  0
    5.8240   -1.1890   30.9700 O   0  0  0  0  0  0  0  0  0  0  0  0
    7.8630   -0.2310   31.2810 C   0  0  0  0  0  0  0  0  0  0  0  0
    7.5160    1.1000   31.2820 C   0  0  0  0  0  0  0  0  0  0  0  0
    7.4580   -3.0070   23.6930 C   0  0  0  0  0  0  0  0  0  0  0  0
    7.6470   -3.1780   22.2090 C   0  0  0  0  0  0  0  0  0  0  0  0
  1  2  1  0
  2  3  2  0
  2  4  1  0
  4  5  1  0
  5  6  1  0
  6  7  1  0
  7  8  1  0
  8  9  2  0
  8 10  1  0
 10 11  1  0
 11 12  2  0
 12 13  1  0
 13 14  1  0
 14 15  1  0
 13 16  2  0
 16 17  1  0
 11 18  1  0
 17 18  2  0
 18 19  1  0
 19 20  1  0
 20 21  2  0
 20 22  1  0
 22 23  1  0
  7 24  1  0
  4 25  1  0
 24 25  1  0
M  END
