piperidine-amides-33683-covalent
     RDKit          3D

 30 34  0  0  0  0  0  0  0  0999 V2000
    7.1440   -3.2700   19.1750 C   0  0  0  0  0  0  0  0  0  0  0  0
    6.4060   -4.0020   20.2170 C   0  0  0  0  0  0  0  0  0  0  0  0
    5.3220   -4.5450   19.8870 O   0  0  0  0  0  0  0  0  0  0  0  0
    6.9510   -4.1180   21.5140 N   0  0  0  0  0  0  0  0  0  0  0  0
    6.5460   -5.1840   22.3550 C   0  0  0  0  0  0  0  0  0  0  0  0
    6.1570   -4.8040   23.7210 C   0  0  0  0  0  0  0  0  0  0  0  0
    6.6140   -3.4940   24.2840 C   0  0  0  0  0  0  0  0  0  0  0  0
    5.4820   -2.8540   25.0120 C   0  0  0  0  0  0  0  0  0  0  0  0
    4.3420   -2.9050   24.5200 O   0  0  0  0  0  0  0  0  0  0  0  0
    5.6390   -2.2100   26.2510 N   0  0  0  0  0  0  0  0  0  0  0  0
    5.7440   -2.9720   27.4190 C   0  0  0  0  0  0  0  0  0  0  0  0
    4.8010   -4.0720   27.5900 C   0  0  0  0  0  0  0  0  0  0  0  0
    3.5990   -4.4380   26.9990 N   0  0  0  0  0  0  0  0  0  0  0  0
    3.1090   -5.6600   27.5840 O   0  0  0  0  0  0  0  0  0  0  0  0
    4.0150   -6.0270   28.5260 C   0  0  0  0  0  0  0  0  0  0  0  0
    4.9740   -5.1180   28.5300 C   0  0  0  0  0  0  0  0  0  0  0  0
    6.0060   -5.4790   29.5790 C   0  0  0  0  0  0  0  0  0  0  0  0
    6.4340   -6.6580   28.7930 C   0  0  0  0  0  0  0  0  0  0  0  0
    5.4510   -7.5440   29.5930 C   0  0  0  0  0  0  0  0  0  0  0  0
    3.9980   -7.2140   29.4000 C   0  0  0  0  0  0  0  0  0  0  0  0
    4.9230   -0.9800   26.4420 C   0  0  1  0  0  0  0  0  0  0  0  0
    3.6530   -1.0620   27.2190 C   0  0  0  0  0  0  0  0  0  0  0  0
    4.3370    0.0120   27.9330 C   0  0  2  0  0  0  0  0  0  0  0  0
    3.6350    1.2230   28.0410 C   0  0  0  0  0  0  0  0  0  0  0  0
    4.1940    2.4510   27.7250 C   0  0  0  0  0  0  0  0  0  0  0  0
    5.1030    2.4280   26.5230 C   0  0  0  0  0  0  0  0  0  0  0  0
    6.0010    1.3810   26.4870 C   0  0  0  0  0  0  0  0  0  0  0  0
    5.5500    0.0840   27.1400 C   0  0  2  0  0  0  0  0  0  0  0  0
    7.2050   -2.5430   23.3220 C   0  0  0  0  0  0  0  0  0  0  0  0
    7.7730   -3.1140   22.1020 C   0  0  0  0  0  0  0  0  0  0  0  0
  1  2  1  0
  2  3  2  0
  2  4  1  0
  4  5  1  0
  5  6  1  0
  6  7  1  0
  7  8  1  0
  8  9  2  0
  8 10  1  0
 10 11  1  0
 11 12  1  0
 12 13  2  0
 13 14  1  0
 14 15  1  0
 12 16  1  0
 15 16  2  0
 16 17  1  0
 17 18  1  0
 18 19  1  0
 15 20  1  0
 19 20  1  0
 21 10  1  1
 21 22  1  0
 23 22  1  6
 23 24  1  0
 24 25  1  0
 25 26  1  0
 26 27  1  0
 21 28  1  0
 23 28  1  0
 28 27  1  6
  7 29  1  0
  4 30  1  0
 29 30  1  0
M  END
