piperidine-amides-23415-covalent
     RDKit          3D

 24 26  0  0  0  0  0  0  0  0999 V2000
    7.0260   -3.3820   19.3780 C   0  0  0  0  0  0  0  0  0  0  0  0
    6.4120   -4.2500   20.4000 C   0  0  0  0  0  0  0  0  0  0  0  0
    5.4260   -4.9260   20.0100 O   0  0  0  0  0  0  0  0  0  0  0  0
    6.9350   -4.3520   21.7310 N   0  0  0  0  0  0  0  0  0  0  0  0
    6.5490   -5.4690   22.5380 C   0  0  0  0  0  0  0  0  0  0  0  0
    5.8880   -5.0470   23.7680 C   0  0  0  0  0  0  0  0  0  0  0  0
    5.9030   -3.5790   23.8500 C   0  0  0  0  0  0  0  0  0  0  0  0
    5.1620   -2.9380   25.0150 C   0  0  0  0  0  0  0  0  0  0  0  0
    4.4740   -1.9430   24.7660 O   0  0  0  0  0  0  0  0  0  0  0  0
    5.1690   -3.3660   26.3540 N   0  0  0  0  0  0  0  0  0  0  0  0
    6.1730   -4.1390   26.9350 C   0  0  0  0  0  0  0  0  0  0  0  0
    6.2480   -4.8670   28.2830 C   0  0  0  0  0  0  0  0  0  0  0  0
    5.9800   -5.9730   29.0860 C   0  0  0  0  0  0  0  0  0  0  0  0
    5.9290   -6.7570   30.0790 C   0  0  0  0  0  0  0  0  0  0  0  0
    5.2170   -7.7230   29.3020 C   0  0  0  0  0  0  0  0  0  0  0  0
    5.0440   -7.0880   27.8850 C   0  0  0  0  0  0  0  0  0  0  0  0
    5.5120   -5.6240   27.2550 C   0  0  0  0  0  0  0  0  0  0  0  0
    6.0620   -4.3640   27.1880 O   0  0  0  0  0  0  0  0  0  0  0  0
    5.5330   -3.4260   28.2170 C   0  0  0  0  0  0  0  0  0  0  0  0
    6.6210   -2.6010   28.8880 C   0  0  0  0  0  0  0  0  0  0  0  0
    4.4750   -3.8260   29.2190 C   0  0  0  0  0  0  0  0  0  0  0  0
    4.7950   -2.5110   27.3640 C   0  0  0  0  0  0  0  0  0  0  0  0
    7.2720   -3.0390   23.6180 C   0  0  0  0  0  0  0  0  0  0  0  0
    7.6940   -3.2440   22.3020 C   0  0  0  0  0  0  0  0  0  0  0  0
  1  2  1  0
  2  3  2  0
  2  4  1  0
  4  5  1  0
  5  6  1  0
  6  7  1  0
  7  8  1  0
  8  9  2  0
  8 10  1  0
 10 11  1  0
 11 12  1  0
 12 13  1  0
 13 14  2  0
 14 15  1  0
 15 16  2  0
 12 17  2  0
 16 17  1  0
 17 18  1  0
 18 19  1  0
 19 20  1  0
 19 21  1  0
 10 22  1  0
 19 22  1  0
  7 23  1  0
  4 24  1  0
 23 24  1  0
M  END
