piperidine-amides-19098-covalent
     RDKit          3D

 20 21  0  0  0  0  0  0  0  0999 V2000
    6.9550   -3.4550   19.3820 C   0  0  0  0  0  0  0  0  0  0  0  0
    6.3140   -4.2690   20.4060 C   0  0  0  0  0  0  0  0  0  0  0  0
    5.4030   -5.0520   20.0160 O   0  0  0  0  0  0  0  0  0  0  0  0
    6.6710   -4.2460   21.7800 N   0  0  0  0  0  0  0  0  0  0  0  0
    6.6080   -5.5400   22.5340 C   0  0  0  0  0  0  0  0  0  0  0  0
    5.9730   -5.1480   23.9540 C   0  0  0  0  0  0  0  0  0  0  0  0
    6.4150   -3.7320   24.2060 C   0  0  0  0  0  0  0  0  0  0  0  0
    6.2450   -3.0210   25.6290 C   0  0  0  0  0  0  0  0  0  0  0  0
    6.8150   -1.9680   25.5300 O   0  0  0  0  0  0  0  0  0  0  0  0
    5.5600   -3.5830   26.5560 N   0  0  0  0  0  0  0  0  0  0  0  0
    4.5280   -3.7460   27.4400 C   0  0  0  0  0  0  0  0  0  0  0  0
    3.7580   -4.7230   28.0180 C   0  0  0  0  0  0  0  0  0  0  0  0
    4.2920   -5.7440   29.2400 S   0  0  0  0  0  0  0  0  0  0  0  0
    3.8420   -5.2430   30.5500 O   0  0  0  0  0  0  0  0  0  0  0  0
    5.9640   -6.0530   29.1640 C   0  0  0  0  0  0  0  0  0  0  0  0
    6.3280   -5.6700   27.8070 C   0  0  2  0  0  0  0  0  0  0  0  0
    6.8580   -4.5580   28.7160 C   0  0  0  0  0  0  0  0  0  0  0  0
    6.1740   -4.1120   27.8030 C   0  0  0  0  0  0  0  0  0  0  0  0
    7.8000   -3.4750   23.6860 C   0  0  0  0  0  0  0  0  0  0  0  0
    7.6180   -3.2250   22.2080 C   0  0  0  0  0  0  0  0  0  0  0  0
  1  2  1  0
  2  3  2  0
  2  4  1  0
  4  5  1  0
  5  6  1  0
  6  7  1  0
  7  8  1  0
  8  9  2  0
  8 10  1  0
 10 11  1  0
 11 12  1  0
 13 12  1  6
 13 14  2  0
 13 15  1  0
 15 16  1  0
 16 17  1  1
 10 18  1  0
 16 18  1  0
  7 19  1  0
  4 20  1  0
 19 20  1  0
M  END
