piperidine-amides-6960-covalent
     RDKit          3D

 22 23  0  0  0  0  0  0  0  0999 V2000
    7.0910   -3.2010   19.2520 C   0  0  0  0  0  0  0  0  0  0  0  0
    6.3200   -3.9220   20.2800 C   0  0  0  0  0  0  0  0  0  0  0  0
    5.3610   -4.6500   19.9240 O   0  0  0  0  0  0  0  0  0  0  0  0
    6.6320   -3.8450   21.6530 N   0  0  0  0  0  0  0  0  0  0  0  0
    5.7280   -4.4880   22.5560 C   0  0  0  0  0  0  0  0  0  0  0  0
    5.0950   -3.4100   23.4310 C   0  0  0  0  0  0  0  0  0  0  0  0
    6.1990   -2.6810   24.1860 C   0  0  0  0  0  0  0  0  0  0  0  0
    5.9920   -2.8600   25.6660 C   0  0  0  0  0  0  0  0  0  0  0  0
    4.8170   -2.6780   26.0580 O   0  0  0  0  0  0  0  0  0  0  0  0
    7.0170   -3.2240   26.6230 N   0  0  0  0  0  0  0  0  0  0  0  0
    7.1230   -4.6320   26.8870 C   0  0  0  0  0  0  0  0  0  0  0  0
    6.0520   -5.0780   27.8460 C   0  0  0  0  0  0  0  0  0  0  0  0
    8.4350   -5.0180   27.4590 C   0  0  0  0  0  0  0  0  0  0  0  0
    6.9570   -5.1560   25.5810 C   0  0  0  0  0  0  0  0  0  0  0  0
    5.6680   -5.6300   25.2210 C   0  0  0  0  0  0  0  0  0  0  0  0
    5.5030   -6.1070   23.9690 C   0  0  0  0  0  0  0  0  0  0  0  0
    6.7060   -6.0710   23.1200 C   0  0  0  0  0  0  0  0  0  0  0  0
    5.8960   -6.6670   22.0610 C   0  0  0  0  0  0  0  0  0  0  0  0
    7.8870   -5.6630   23.3650 N   0  0  0  0  0  0  0  0  0  0  0  0
    8.0540   -5.1560   24.7230 C   0  0  0  0  0  0  0  0  0  0  0  0
    7.5600   -3.0510   23.6290 C   0  0  0  0  0  0  0  0  0  0  0  0
    7.5420   -2.8580   22.2190 C   0  0  0  0  0  0  0  0  0  0  0  0
  1  2  1  0
  2  3  2  0
  2  4  1  0
  4  5  1  0
  5  6  1  0
  6  7  1  0
  7  8  1  0
  8  9  2  0
  8 10  1  0
 11 10  1  0
 11 12  1  0
 11 13  1  0
 11 14  1  0
 14 15  2  0
 15 16  1  0
 16 17  2  0
 17 18  1  0
 17 19  1  0
 14 20  1  0
 19 20  2  0
  7 21  1  0
  4 22  1  0
 21 22  1  0
M  END
