piperidine-amides-31446-covalent
     RDKit          3D

 26 28  0  0  0  0  0  0  0  0999 V2000
    7.0960   -3.3470   19.3920 C   0  0  0  0  0  0  0  0  0  0  0  0
    6.3820   -4.1860   20.3290 C   0  0  0  0  0  0  0  0  0  0  0  0
    5.3480   -4.8120   19.9540 O   0  0  0  0  0  0  0  0  0  0  0  0
    6.8320   -4.3490   21.6410 N   0  0  0  0  0  0  0  0  0  0  0  0
    6.6370   -5.6730   22.2970 C   0  0  0  0  0  0  0  0  0  0  0  0
    5.8670   -5.2850   23.6300 C   0  0  0  0  0  0  0  0  0  0  0  0
    6.0270   -3.7970   23.7360 C   0  0  0  0  0  0  0  0  0  0  0  0
    5.3290   -3.0980   24.9750 C   0  0  0  0  0  0  0  0  0  0  0  0
    4.9820   -1.9710   24.6880 O   0  0  0  0  0  0  0  0  0  0  0  0
    5.2930   -3.8890   25.9490 N   0  0  0  0  0  0  0  0  0  0  0  0
    4.8330   -4.7660   26.8610 C   0  0  0  0  0  0  0  0  0  0  0  0
    5.0580   -6.0600   27.2050 C   0  0  0  0  0  0  0  0  0  0  0  0
    6.1280   -5.9420   27.9870 O   0  0  0  0  0  0  0  0  0  0  0  0
    6.1710   -4.5970   28.0640 C   0  0  1  0  0  0  0  0  0  0  0  0
    4.9230   -4.3770   28.8670 C   0  0  0  0  0  0  0  0  0  0  0  0
    4.5270   -2.9840   28.3160 C   0  0  0  0  0  0  0  0  0  0  0  0
    5.5540   -1.9170   29.2520 S   0  0  2  0  0  0  0  0  0  0  0  0
    5.2110   -1.9390   30.7030 O   0  0  0  0  0  0  0  0  0  0  0  0
    5.7390   -0.3270   28.5430 N   0  0  0  0  0  0  0  0  0  0  0  0
    4.5180    0.2140   28.0500 C   0  0  0  0  0  0  0  0  0  0  0  0
    4.0470   -0.4570   26.9110 C   0  0  0  0  0  0  0  0  0  0  0  0
    7.0530   -2.6820   28.7780 C   0  0  0  0  0  0  0  0  0  0  0  0
    7.2500   -4.2620   28.9140 C   0  0  0  0  0  0  0  0  0  0  0  0
    6.4390   -3.9540   26.8470 C   0  0  0  0  0  0  0  0  0  0  0  0
    7.4240   -3.3240   23.5210 C   0  0  0  0  0  0  0  0  0  0  0  0
    7.6710   -3.3310   22.2130 C   0  0  0  0  0  0  0  0  0  0  0  0
  1  2  1  0
  2  3  2  0
  2  4  1  0
  4  5  1  0
  5  6  1  0
  6  7  1  0
  7  8  1  0
  8  9  2  0
  8 10  1  0
 10 11  1  0
 11 12  1  0
 12 13  1  0
 14 13  1  0
 14 15  1  1
 15 16  1  0
 17 16  1  6
 17 18  2  0
 17 19  2  0
 19 20  1  0
 20 21  1  0
 17 22  1  0
 14 23  1  0
 22 23  1  0
 10 24  1  0
 14 24  1  0
  7 25  1  0
  4 26  1  0
 25 26  1  0
M  END
