piperidine-amides-14377-covalent
     RDKit          3D

 24 26  0  0  0  0  0  0  0  0999 V2000
    7.0120   -3.3380   19.3430 C   0  0  0  0  0  0  0  0  0  0  0  0
    6.3620   -4.1740   20.3580 C   0  0  0  0  0  0  0  0  0  0  0  0
    5.4040   -4.8780   19.9880 O   0  0  0  0  0  0  0  0  0  0  0  0
    6.8210   -4.2070   21.7040 N   0  0  0  0  0  0  0  0  0  0  0  0
    7.7360   -3.1910   22.1680 C   0  0  0  0  0  0  0  0  0  0  0  0
    7.5780   -3.0620   23.6410 C   0  0  0  0  0  0  0  0  0  0  0  0
    6.1800   -3.5580   23.9000 C   0  0  0  0  0  0  0  0  0  0  0  0
    5.7420   -3.2500   25.3000 C   0  0  0  0  0  0  0  0  0  0  0  0
    4.5990   -3.5940   25.5940 O   0  0  0  0  0  0  0  0  0  0  0  0
    6.6200   -2.5920   26.1590 N   0  0  0  0  0  0  0  0  0  0  0  0
    6.1440   -1.7070   27.1750 C   0  0  0  0  0  0  0  0  0  0  0  0
    7.0210   -1.4740   28.2380 C   0  0  0  0  0  0  0  0  0  0  0  0
    6.6370   -0.6170   29.2550 C   0  0  0  0  0  0  0  0  0  0  0  0
    6.0670    0.6710   28.9360 N   0  0  0  0  0  0  0  0  0  0  0  0
    5.0400    1.0310   29.8340 C   0  0  0  0  0  0  0  0  0  0  0  0
    3.7770    1.3740   29.3890 N   0  0  0  0  0  0  0  0  0  0  0  0
    2.7820    1.7220   30.3210 C   0  0  0  0  0  0  0  0  0  0  0  0
    3.0750    1.7310   31.8200 C   0  0  0  0  0  0  0  0  0  0  0  0
    4.4680    1.3470   32.1820 C   0  0  0  0  0  0  0  0  0  0  0  0
    5.3160    1.0350   31.1700 N   0  0  0  0  0  0  0  0  0  0  0  0
    5.9140    0.8250   27.5040 C   0  0  0  0  0  0  0  0  0  0  0  0
    5.8540   -0.3990   26.5750 C   0  0  0  0  0  0  0  0  0  0  0  0
    6.1270   -5.0640   23.7190 C   0  0  0  0  0  0  0  0  0  0  0  0
    6.6810   -5.4120   22.4940 C   0  0  0  0  0  0  0  0  0  0  0  0
  1  2  1  0
  2  3  2  0
  2  4  1  0
  4  5  1  0
  5  6  1  0
  6  7  1  0
  7  8  1  0
  8  9  2  0
  8 10  1  0
 10 11  1  0
 11 12  1  0
 12 13  1  0
 13 14  1  0
 14 15  1  0
 15 16  2  0
 16 17  1  0
 17 18  2  0
 18 19  1  0
 15 20  1  0
 19 20  2  0
 14 21  1  0
 11 22  1  0
 21 22  1  0
  7 23  1  0
  4 24  1  0
 23 24  1  0
M  END
