piperidine-amides-3542-covalent
     RDKit          3D

 19 19  0  0  0  0  0  0  0  0999 V2000
    7.1290   -3.2860   19.1550 C   0  0  0  0  0  0  0  0  0  0  0  0
    6.3770   -4.0250   20.1630 C   0  0  0  0  0  0  0  0  0  0  0  0
    5.2940   -4.5330   19.8780 O   0  0  0  0  0  0  0  0  0  0  0  0
    6.9270   -4.2140   21.4700 N   0  0  0  0  0  0  0  0  0  0  0  0
    7.6140   -3.1040   22.0560 C   0  0  0  0  0  0  0  0  0  0  0  0
    6.7790   -2.5940   23.1920 C   0  0  0  0  0  0  0  0  0  0  0  0
    6.4560   -3.7670   24.1030 C   0  0  0  0  0  0  0  0  0  0  0  0
    5.8770   -3.2340   25.3590 C   0  0  0  0  0  0  0  0  0  0  0  0
    4.8910   -2.4680   25.3910 O   0  0  0  0  0  0  0  0  0  0  0  0
    6.4860   -3.6490   26.5510 N   0  0  0  0  0  0  0  0  0  0  0  0
    6.7210   -5.0630   26.6330 C   0  0  2  0  0  0  0  0  0  0  0  0
    6.7210   -5.4780   28.0790 C   0  0  0  0  0  0  0  0  0  0  0  0
    5.4170   -5.5670   28.5380 O   0  0  0  0  0  0  0  0  0  0  0  0
    8.0120   -5.3920   25.9780 C   0  0  0  0  0  0  0  0  0  0  0  0
    9.0090   -6.0540   26.6560 C   0  0  0  0  0  0  0  0  0  0  0  0
    8.9570   -5.7520   27.9140 O   0  0  0  0  0  0  0  0  0  0  0  0
    9.6190   -4.6300   28.2240 C   0  0  0  0  0  0  0  0  0  0  0  0
    5.6410   -4.7210   23.3240 C   0  0  0  0  0  0  0  0  0  0  0  0
    6.3690   -5.2170   22.2700 C   0  0  0  0  0  0  0  0  0  0  0  0
  1  2  1  0
  2  3  2  0
  2  4  1  0
  4  5  1  0
  5  6  1  0
  6  7  1  0
  7  8  1  0
  8  9  2  0
  8 10  1  0
 10 11  1  0
 11 12  1  1
 12 13  1  0
 11 14  1  0
 14 15  1  0
 15 16  1  0
 16 17  1  0
  7 18  1  0
  4 19  1  0
 18 19  1  0
M  END
