piperidine-amides-5488-covalent
     RDKit          3D

 20 21  0  0  0  0  0  0  0  0999 V2000
    7.1420   -3.2970   19.2210 C   0  0  0  0  0  0  0  0  0  0  0  0
    6.3320   -4.0170   20.2010 C   0  0  0  0  0  0  0  0  0  0  0  0
    5.2390   -4.4850   19.8560 O   0  0  0  0  0  0  0  0  0  0  0  0
    6.7980   -4.2480   21.4990 N   0  0  0  0  0  0  0  0  0  0  0  0
    6.4180   -5.4080   22.2690 C   0  0  0  0  0  0  0  0  0  0  0  0
    5.7120   -4.8560   23.4780 C   0  0  0  0  0  0  0  0  0  0  0  0
    6.5330   -3.8000   24.1620 C   0  0  0  0  0  0  0  0  0  0  0  0
    5.8950   -3.2130   25.3580 C   0  0  0  0  0  0  0  0  0  0  0  0
    4.6320   -3.1870   25.4800 O   0  0  0  0  0  0  0  0  0  0  0  0
    6.6630   -2.6460   26.3960 N   0  0  0  0  0  0  0  0  0  0  0  0
    6.3170   -2.8190   27.8240 C   0  0  0  0  0  0  0  0  0  0  0  0
    5.7160   -4.1460   28.0400 C   0  0  0  0  0  0  0  0  0  0  0  0
    6.3860   -5.2280   28.7930 C   0  0  0  0  0  0  0  0  0  0  0  0
    5.7530   -6.5340   28.9990 N   0  0  0  0  0  0  0  0  0  0  0  0
    4.4490   -6.3740   28.2940 C   0  0  0  0  0  0  0  0  0  0  0  0
    3.2990   -7.3400   28.1140 C   0  0  0  0  0  0  0  0  0  0  0  0
    3.1170   -7.9010   29.4700 C   0  0  0  0  0  0  0  0  0  0  0  0
    4.2210   -4.7710   27.5480 S   0  0  0  0  0  0  0  0  0  0  0  0
    6.8940   -2.7150   23.1770 C   0  0  0  0  0  0  0  0  0  0  0  0
    7.6240   -3.2380   22.1190 C   0  0  0  0  0  0  0  0  0  0  0  0
  1  2  1  0
  2  3  2  0
  2  4  1  0
  4  5  1  0
  5  6  1  0
  6  7  1  0
  7  8  1  0
  8  9  2  0
  8 10  1  0
 10 11  1  0
 11 12  1  0
 12 13  2  0
 13 14  1  0
 14 15  2  0
 15 16  1  0
 16 17  1  0
 12 18  1  0
 15 18  1  0
  7 19  1  0
  4 20  1  0
 19 20  1  0
M  END
