piperidine-amides-35040-covalent
     RDKit          3D

 33 37  0  0  0  0  0  0  0  0999 V2000
    7.0400   -3.3870   19.4610 C   0  0  0  0  0  0  0  0  0  0  0  0
    6.3890   -4.2850   20.4470 C   0  0  0  0  0  0  0  0  0  0  0  0
    5.4460   -4.9550   20.0200 O   0  0  0  0  0  0  0  0  0  0  0  0
    6.8770   -4.3740   21.7720 N   0  0  0  0  0  0  0  0  0  0  0  0
    6.6330   -5.5650   22.5680 C   0  0  0  0  0  0  0  0  0  0  0  0
    5.9780   -5.2020   23.8890 C   0  0  0  0  0  0  0  0  0  0  0  0
    5.8710   -3.6840   23.9590 C   0  0  0  0  0  0  0  0  0  0  0  0
    5.0050   -3.2290   25.1020 C   0  0  0  0  0  0  0  0  0  0  0  0
    3.9250   -2.7320   24.7940 O   0  0  0  0  0  0  0  0  0  0  0  0
    5.2620   -3.2990   26.4960 N   0  0  0  0  0  0  0  0  0  0  0  0
    4.2680   -2.6570   27.3850 C   0  0  0  0  0  0  0  0  0  0  0  0
    4.3660   -3.2390   28.7920 C   0  0  0  0  0  0  0  0  0  0  0  0
    5.1870   -4.2530   28.9040 C   0  0  0  0  0  0  0  0  0  0  0  0
    6.2410   -4.4710   28.2260 C   0  0  0  0  0  0  0  0  0  0  0  0
    6.8080   -5.7410   28.6770 N   0  0  0  0  0  0  0  0  0  0  0  0
    5.8980   -6.2160   29.7390 C   0  0  0  0  0  0  0  0  0  0  0  0
    6.0000   -7.4920   30.5530 C   0  0  0  0  0  0  0  0  0  0  0  0
    4.9080   -7.6800   31.5860 C   0  0  0  0  0  0  0  0  0  0  0  0
    3.8080   -6.6600   31.7470 C   0  0  0  0  0  0  0  0  0  0  0  0
    2.9550   -7.0930   32.7460 O   0  0  0  0  0  0  0  0  0  0  0  0
    2.6250   -8.4570   32.8440 C   0  0  0  0  0  0  0  0  0  0  0  0
    3.7210   -5.4130   30.9200 C   0  0  0  0  0  0  0  0  0  0  0  0
    4.8150   -5.2350   29.9120 C   0  0  0  0  0  0  0  0  0  0  0  0
    6.4250   -3.3210   27.2480 C   0  0  2  0  0  0  0  0  0  0  0  0
    6.4600   -1.9040   27.7670 C   0  0  0  0  0  0  0  0  0  0  0  0
    6.3300   -0.8540   26.8540 C   0  0  0  0  0  0  0  0  0  0  0  0
    6.3430    0.5580   27.3530 C   0  0  0  0  0  0  0  0  0  0  0  0
    6.5020    0.7830   28.8280 C   0  0  0  0  0  0  0  0  0  0  0  0
    6.6400   -0.4130   29.7290 C   0  0  0  0  0  0  0  0  0  0  0  0
    6.7880   -0.2610   31.0700 F   0  0  0  0  0  0  0  0  0  0  0  0
    6.6120   -1.6700   29.1720 C   0  0  0  0  0  0  0  0  0  0  0  0
    7.1290   -2.9840   23.7380 C   0  0  0  0  0  0  0  0  0  0  0  0
    7.6640   -3.3330   22.3870 C   0  0  0  0  0  0  0  0  0  0  0  0
  1  2  1  0
  2  3  2  0
  2  4  1  0
  4  5  1  0
  5  6  1  0
  6  7  1  0
  7  8  1  0
  8  9  2  0
  8 10  1  0
 10 11  1  0
 11 12  1  0
 12 13  1  0
 13 14  2  0
 14 15  1  0
 15 16  1  0
 16 17  1  0
 17 18  2  0
 18 19  1  0
 19 20  1  0
 20 21  1  0
 19 22  2  0
 13 23  1  0
 16 23  2  0
 22 23  1  0
 10 24  1  0
 14 24  1  0
 24 25  1  1
 25 26  2  0
 26 27  1  0
 27 28  2  0
 28 29  1  0
 29 30  1  0
 25 31  1  0
 29 31  2  0
  7 32  1  0
  4 33  1  0
 32 33  1  0
M  END
