piperidine-amides-26049-covalent
     RDKit          3D

 25 27  0  0  0  0  0  0  0  0999 V2000
    7.0290   -3.3710   19.4090 C   0  0  0  0  0  0  0  0  0  0  0  0
    6.3680   -4.2400   20.3880 C   0  0  0  0  0  0  0  0  0  0  0  0
    5.4050   -4.9280   20.0030 O   0  0  0  0  0  0  0  0  0  0  0  0
    6.8140   -4.3550   21.7260 N   0  0  0  0  0  0  0  0  0  0  0  0
    6.5820   -5.5530   22.5100 C   0  0  0  0  0  0  0  0  0  0  0  0
    6.2530   -5.1470   23.9430 C   0  0  0  0  0  0  0  0  0  0  0  0
    6.2860   -3.6620   24.1760 C   0  0  0  0  0  0  0  0  0  0  0  0
    5.8750   -3.1770   25.5390 C   0  0  0  0  0  0  0  0  0  0  0  0
    5.5590   -1.9650   25.6680 O   0  0  0  0  0  0  0  0  0  0  0  0
    5.7280   -3.9450   26.7240 N   0  0  0  0  0  0  0  0  0  0  0  0
    6.4240   -3.6380   27.9640 C   0  0  0  0  0  0  0  0  0  0  0  0
    6.6320   -4.9500   28.6350 C   0  0  0  0  0  0  0  0  0  0  0  0
    5.3570   -5.3700   29.2070 C   0  0  0  0  0  0  0  0  0  0  0  0
    4.1880   -4.9540   28.3380 C   0  0  0  0  0  0  0  0  0  0  0  0
    2.7510   -5.2630   28.7210 C   0  0  0  0  0  0  0  0  0  0  0  0
    2.6310   -5.9950   29.9940 C   0  0  0  0  0  0  0  0  0  0  0  0
    3.6850   -6.3730   30.7710 C   0  0  0  0  0  0  0  0  0  0  0  0
    3.4210   -7.0040   31.8450 O   0  0  0  0  0  0  0  0  0  0  0  0
    2.7490   -8.2140   31.7630 C   0  0  0  0  0  0  0  0  0  0  0  0
    5.1470   -6.0680   30.3940 C   0  0  0  0  0  0  0  0  0  0  0  0
    6.0130   -6.4910   31.2110 O   0  0  0  0  0  0  0  0  0  0  0  0
    5.8250   -7.6670   31.9280 C   0  0  0  0  0  0  0  0  0  0  0  0
    4.3640   -4.2160   27.0390 C   0  0  0  0  0  0  0  0  0  0  0  0
    7.5890   -3.1310   23.6960 C   0  0  0  0  0  0  0  0  0  0  0  0
    7.6090   -3.2670   22.2250 C   0  0  0  0  0  0  0  0  0  0  0  0
  1  2  1  0
  2  3  2  0
  2  4  1  0
  4  5  1  0
  5  6  1  0
  6  7  1  0
  7  8  1  0
  8  9  2  0
  8 10  1  0
 10 11  1  0
 11 12  1  0
 12 13  1  0
 13 14  2  0
 14 15  1  0
 15 16  2  0
 16 17  1  0
 17 18  1  0
 18 19  1  0
 13 20  1  0
 17 20  2  0
 20 21  1  0
 21 22  1  0
 10 23  1  0
 14 23  1  0
  7 24  1  0
  4 25  1  0
 24 25  1  0
M  END
