piperidine-amides-3112-covalent
     RDKit          3D

 23 24  0  0  0  0  0  0  0  0999 V2000
    7.1400   -3.2910   19.1900 C   0  0  0  0  0  0  0  0  0  0  0  0
    6.3260   -3.9830   20.1740 C   0  0  0  0  0  0  0  0  0  0  0  0
    5.2460   -4.4740   19.8560 O   0  0  0  0  0  0  0  0  0  0  0  0
    6.8260   -4.1490   21.5040 N   0  0  0  0  0  0  0  0  0  0  0  0
    7.5830   -3.0910   22.1180 C   0  0  0  0  0  0  0  0  0  0  0  0
    6.8850   -2.6720   23.3720 C   0  0  0  0  0  0  0  0  0  0  0  0
    6.5920   -3.9450   24.1430 C   0  0  0  0  0  0  0  0  0  0  0  0
    5.8920   -3.5780   25.4020 C   0  0  0  0  0  0  0  0  0  0  0  0
    4.7340   -3.1060   25.4210 O   0  0  0  0  0  0  0  0  0  0  0  0
    6.5840   -3.7710   26.6190 N   0  0  0  0  0  0  0  0  0  0  0  0
    6.2060   -4.8360   27.5320 C   0  0  2  0  0  0  0  0  0  0  0  0
    7.4010   -5.7050   27.8270 C   0  0  0  0  0  0  0  0  0  0  0  0
    8.1080   -5.9760   26.6690 O   0  0  0  0  0  0  0  0  0  0  0  0
    9.4330   -6.2990   26.6210 C   0  0  0  0  0  0  0  0  0  0  0  0
    5.1300   -5.7380   27.0560 C   0  0  0  0  0  0  0  0  0  0  0  0
    4.2110   -6.3260   27.9210 C   0  0  0  0  0  0  0  0  0  0  0  0
    3.1890   -7.2090   27.3640 C   0  0  0  0  0  0  0  0  0  0  0  0
    3.0870   -7.4890   26.0270 C   0  0  0  0  0  0  0  0  0  0  0  0
    2.1450   -8.3000   25.5170 F   0  0  0  0  0  0  0  0  0  0  0  0
    4.0120   -6.8880   25.2250 C   0  0  0  0  0  0  0  0  0  0  0  0
    5.0010   -6.0410   25.7160 C   0  0  0  0  0  0  0  0  0  0  0  0
    5.8730   -4.9650   23.3880 C   0  0  0  0  0  0  0  0  0  0  0  0
    6.5860   -5.3410   22.2660 C   0  0  0  0  0  0  0  0  0  0  0  0
  1  2  1  0
  2  3  2  0
  2  4  1  0
  4  5  1  0
  5  6  1  0
  6  7  1  0
  7  8  1  0
  8  9  2  0
  8 10  1  0
 10 11  1  0
 11 12  1  6
 12 13  1  0
 13 14  1  0
 11 15  1  0
 15 16  2  0
 16 17  1  0
 17 18  2  0
 18 19  1  0
 18 20  1  0
 15 21  1  0
 20 21  2  0
  7 22  1  0
  4 23  1  0
 22 23  1  0
M  END
