piperidine-amides-33231-covalent
     RDKit          3D

 30 33  0  0  0  0  0  0  0  0999 V2000
    7.1020   -3.3320   19.2640 C   0  0  0  0  0  0  0  0  0  0  0  0
    6.4280   -4.1560   20.2790 C   0  0  0  0  0  0  0  0  0  0  0  0
    5.3440   -4.6910   19.9430 O   0  0  0  0  0  0  0  0  0  0  0  0
    7.0180   -4.3970   21.5440 N   0  0  0  0  0  0  0  0  0  0  0  0
    6.5430   -5.4960   22.3020 C   0  0  0  0  0  0  0  0  0  0  0  0
    5.9470   -5.1080   23.5740 C   0  0  0  0  0  0  0  0  0  0  0  0
    6.5750   -3.9680   24.2850 C   0  0  0  0  0  0  0  0  0  0  0  0
    5.6690   -3.4810   25.3750 C   0  0  0  0  0  0  0  0  0  0  0  0
    4.9110   -2.5120   25.1910 O   0  0  0  0  0  0  0  0  0  0  0  0
    5.6630   -4.1410   26.6030 N   0  0  0  0  0  0  0  0  0  0  0  0
    6.6660   -4.9100   27.1100 C   0  0  0  0  0  0  0  0  0  0  0  0
    6.5610   -6.2460   27.4450 C   0  0  0  0  0  0  0  0  0  0  0  0
    6.5240   -6.1820   28.9720 C   0  0  0  0  0  0  0  0  0  0  0  0
    5.3490   -5.3650   29.3300 N   0  0  0  0  0  0  0  0  0  0  0  0
    4.9060   -5.8160   30.6110 C   0  0  0  0  0  0  0  0  0  0  0  0
    3.6560   -5.0520   31.0560 C   0  0  0  0  0  0  0  0  0  0  0  0
    3.1630   -5.4670   32.4110 C   0  0  0  0  0  0  0  0  0  0  0  0
    3.9850   -6.5690   33.1070 C   0  0  0  0  0  0  0  0  0  0  0  0
    3.6390   -7.0950   34.4810 C   0  0  0  0  0  0  0  0  0  0  0  0
    4.8560   -7.4650   35.3130 C   0  0  0  0  0  0  0  0  0  0  0  0
    4.7030   -8.0140   36.7340 C   0  0  0  0  0  0  0  0  0  0  0  0
    3.2850   -8.1270   37.1630 C   0  0  0  0  0  0  0  0  0  0  0  0
    2.2250   -7.7660   36.3380 C   0  0  0  0  0  0  0  0  0  0  0  0
    2.3780   -7.2710   35.0570 C   0  0  0  0  0  0  0  0  0  0  0  0
    5.0780   -7.1320   32.5250 N   0  0  0  0  0  0  0  0  0  0  0  0
    5.5060   -6.7710   31.3480 N   0  0  0  0  0  0  0  0  0  0  0  0
    4.4430   -4.9680   28.3050 C   0  0  0  0  0  0  0  0  0  0  0  0
    4.8200   -3.7590   27.7050 C   0  0  0  0  0  0  0  0  0  0  0  0
    6.8710   -2.8390   23.3220 C   0  0  0  0  0  0  0  0  0  0  0  0
    7.7540   -3.3510   22.2050 C   0  0  0  0  0  0  0  0  0  0  0  0
  1  2  1  0
  2  3  2  0
  2  4  1  0
  4  5  1  0
  5  6  1  0
  6  7  1  0
  7  8  1  0
  8  9  2  0
  8 10  1  0
 10 11  1  0
 11 12  1  0
 12 13  1  0
 13 14  1  0
 14 15  1  0
 15 16  2  0
 16 17  1  0
 17 18  2  0
 18 19  1  0
 19 20  2  0
 20 21  1  0
 21 22  2  0
 22 23  1  0
 19 24  1  0
 23 24  2  0
 18 25  1  0
 15 26  1  0
 25 26  2  0
 14 27  1  0
 10 28  1  0
 27 28  1  0
  7 29  1  0
  4 30  1  0
 29 30  1  0
M  END
