piperidine-amides-24153-covalent
     RDKit          3D

 24 27  0  0  0  0  0  0  0  0999 V2000
    7.1150   -3.2930   19.2730 C   0  0  0  0  0  0  0  0  0  0  0  0
    6.3590   -4.0580   20.2730 C   0  0  0  0  0  0  0  0  0  0  0  0
    5.3140   -4.6520   19.9320 O   0  0  0  0  0  0  0  0  0  0  0  0
    6.8210   -4.1890   21.5970 N   0  0  0  0  0  0  0  0  0  0  0  0
    6.5740   -5.4520   22.2570 C   0  0  0  0  0  0  0  0  0  0  0  0
    6.3010   -5.1520   23.7360 C   0  0  0  0  0  0  0  0  0  0  0  0
    6.0580   -3.6630   23.8320 C   0  0  0  0  0  0  0  0  0  0  0  0
    5.4760   -3.3210   25.1500 C   0  0  0  0  0  0  0  0  0  0  0  0
    4.3190   -3.7340   25.3600 O   0  0  0  0  0  0  0  0  0  0  0  0
    6.1190   -2.5580   26.1580 N   0  0  0  0  0  0  0  0  0  0  0  0
    5.6220   -1.2330   26.3040 C   0  0  0  0  0  0  0  0  0  0  0  0
    5.3330   -1.6830   27.6620 C   0  0  0  0  0  0  0  0  0  0  0  0
    5.5560   -0.9000   28.7700 C   0  0  1  0  0  0  0  0  0  0  0  0
    4.5720   -0.4420   29.5990 C   0  0  0  0  0  0  0  0  0  0  0  0
    5.7690   -0.1420   30.1040 C   0  0  1  0  0  0  0  0  0  0  0  0
    6.2610    0.7500   31.0280 C   0  0  0  0  0  0  0  0  0  0  0  0
    7.1490    0.4180   31.9910 O   0  0  0  0  0  0  0  0  0  0  0  0
    5.8020    2.0480   30.9670 O   0  0  0  0  0  0  0  0  0  0  0  0
    5.3000    2.6980   32.1270 C   0  0  0  0  0  0  0  0  0  0  0  0
    6.3980   -1.4960   29.6990 C   0  0  0  0  0  0  0  0  0  0  0  0
    6.3400    0.1690   28.8800 C   0  0  0  0  0  0  0  0  0  0  0  0
    6.0470   -2.8700   27.6290 C   0  0  0  0  0  0  0  0  0  0  0  0
    7.3310   -2.9500   23.5190 C   0  0  0  0  0  0  0  0  0  0  0  0
    7.6250   -3.1570   22.1970 C   0  0  0  0  0  0  0  0  0  0  0  0
  1  2  1  0
  2  3  2  0
  2  4  1  0
  4  5  1  0
  5  6  1  0
  6  7  1  0
  7  8  1  0
  8  9  2  0
  8 10  1  0
 10 11  1  0
 11 12  1  0
 13 12  1  6
 13 14  1  0
 14 15  1  0
 15 16  1  1
 16 17  2  0
 16 18  1  0
 18 19  1  0
 13 20  1  0
 15 20  1  0
 13 21  1  0
 15 21  1  0
 10 22  1  0
 12 22  1  0
  7 23  1  0
  4 24  1  0
 23 24  1  0
M  END
