piperidine-amides-2004-covalent
     RDKit          3D

 30 32  0  0  0  0  0  0  0  0999 V2000
    7.0780   -3.3600   19.3740 C   0  0  0  0  0  0  0  0  0  0  0  0
    6.3820   -4.1950   20.3790 C   0  0  0  0  0  0  0  0  0  0  0  0
    5.4050   -4.8400   19.9890 O   0  0  0  0  0  0  0  0  0  0  0  0
    6.8860   -4.2500   21.6880 N   0  0  0  0  0  0  0  0  0  0  0  0
    7.7260   -3.1910   22.2050 C   0  0  0  0  0  0  0  0  0  0  0  0
    7.4270   -2.9600   23.6620 C   0  0  0  0  0  0  0  0  0  0  0  0
    6.0250   -3.4880   23.9540 C   0  0  0  0  0  0  0  0  0  0  0  0
    5.5690   -3.0280   25.2920 C   0  0  0  0  0  0  0  0  0  0  0  0
    4.3690   -2.7620   25.4270 O   0  0  0  0  0  0  0  0  0  0  0  0
    6.4370   -2.9070   26.3970 N   0  0  0  0  0  0  0  0  0  0  0  0
    6.6830   -1.6230   27.0600 C   0  0  1  0  0  0  0  0  0  0  0  0
    5.7690   -0.5490   26.5150 C   0  0  0  0  0  0  0  0  0  0  0  0
    5.6540    0.6880   27.1350 C   0  0  0  0  0  0  0  0  0  0  0  0
    6.2580    0.8990   28.3510 C   0  0  0  0  0  0  0  0  0  0  0  0
    6.6600   -0.2160   29.0330 C   0  0  0  0  0  0  0  0  0  0  0  0
    6.6630   -1.5810   28.4290 C   0  0  1  0  0  0  0  0  0  0  0  0
    5.4980   -2.0990   28.8450 N   0  0  0  0  0  0  0  0  0  0  0  0
    5.1530   -3.3340   28.9870 C   0  0  0  0  0  0  0  0  0  0  0  0
    3.7930   -3.4880   29.4740 C   0  0  0  0  0  0  0  0  0  0  0  0
    3.3570   -4.9000   29.6580 C   0  0  0  0  0  0  0  0  0  0  0  0
    2.3440   -5.0400   30.6180 O   0  0  0  0  0  0  0  0  0  0  0  0
    3.8430   -5.8600   29.0150 O   0  0  0  0  0  0  0  0  0  0  0  0
    4.9390   -6.6080   29.4760 C   0  0  0  0  0  0  0  0  0  0  0  0
    4.8200   -7.9980   28.9530 C   0  0  0  0  0  0  0  0  0  0  0  0
    5.0000   -6.8170   30.9850 C   0  0  0  0  0  0  0  0  0  0  0  0
    6.2910   -6.0730   28.9940 C   0  0  0  0  0  0  0  0  0  0  0  0
    3.3850   -2.1880   29.5960 N   0  0  0  0  0  0  0  0  0  0  0  0
    4.4370   -1.3720   29.2080 N   0  0  0  0  0  0  0  0  0  0  0  0
    6.0640   -4.9910   23.8520 C   0  0  0  0  0  0  0  0  0  0  0  0
    6.5550   -5.4040   22.4830 C   0  0  0  0  0  0  0  0  0  0  0  0
  1  2  1  0
  2  3  2  0
  2  4  1  0
  4  5  1  0
  5  6  1  0
  6  7  1  0
  7  8  1  0
  8  9  2  0
  8 10  1  0
 11 10  1  1
 11 12  1  0
 12 13  1  0
 13 14  1  0
 14 15  1  0
 11 16  1  0
 15 16  1  0
 16 17  1  6
 17 18  1  0
 18 19  2  0
 19 20  1  0
 20 21  2  0
 20 22  1  0
 23 22  1  0
 23 24  1  0
 23 25  1  0
 23 26  1  0
 19 27  1  0
 17 28  1  0
 27 28  2  0
  7 29  1  0
  4 30  1  0
 29 30  1  0
M  END
