piperidine-amides-24440-covalent
     RDKit          3D

 23 24  0  0  0  0  0  0  0  0999 V2000
    7.0500   -3.3530   19.3710 C   0  0  0  0  0  0  0  0  0  0  0  0
    6.3560   -4.2600   20.2980 C   0  0  0  0  0  0  0  0  0  0  0  0
    5.2990   -4.8230   19.9580 O   0  0  0  0  0  0  0  0  0  0  0  0
    6.8960   -4.5580   21.5470 N   0  0  0  0  0  0  0  0  0  0  0  0
    6.3790   -5.6930   22.2710 C   0  0  0  0  0  0  0  0  0  0  0  0
    6.2900   -5.3170   23.7650 C   0  0  0  0  0  0  0  0  0  0  0  0
    5.8190   -3.8720   23.8550 C   0  0  0  0  0  0  0  0  0  0  0  0
    5.5090   -3.4490   25.2500 C   0  0  0  0  0  0  0  0  0  0  0  0
    4.5890   -2.6160   25.3830 O   0  0  0  0  0  0  0  0  0  0  0  0
    6.1810   -3.9440   26.4030 N   0  0  0  0  0  0  0  0  0  0  0  0
    5.6830   -3.5690   27.7020 C   0  0  0  0  0  0  0  0  0  0  0  0
    5.6470   -4.8260   28.5290 C   0  0  0  0  0  0  0  0  0  0  0  0
    6.8090   -5.5200   28.6170 C   0  0  0  0  0  0  0  0  0  0  0  0
    7.8260   -5.0420   27.8430 C   0  0  0  0  0  0  0  0  0  0  0  0
    7.5360   -4.0120   26.9430 C   0  0  1  0  0  0  0  0  0  0  0  0
    8.1480   -4.0080   25.7230 C   0  0  2  0  0  0  0  0  0  0  0  0
    9.2860   -4.7110   25.5310 O   0  0  0  0  0  0  0  0  0  0  0  0
    8.4070   -2.6290   25.1810 C   0  0  0  0  0  0  0  0  0  0  0  0
    9.2030   -1.9080   25.9540 F   0  0  0  0  0  0  0  0  0  0  0  0
    9.0280   -2.6600   23.9340 F   0  0  0  0  0  0  0  0  0  0  0  0
    7.1980   -2.0280   25.0270 F   0  0  0  0  0  0  0  0  0  0  0  0
    6.6820   -2.8970   23.1280 C   0  0  0  0  0  0  0  0  0  0  0  0
    7.6750   -3.5900   22.2800 C   0  0  0  0  0  0  0  0  0  0  0  0
  1  2  1  0
  2  3  2  0
  2  4  1  0
  4  5  1  0
  5  6  1  0
  6  7  1  0
  7  8  1  0
  8  9  2  0
  8 10  1  0
 10 11  1  0
 11 12  1  0
 12 13  1  0
 13 14  1  0
 10 15  1  0
 15 14  1  6
 15 16  1  0
 16 17  1  1
 16 18  1  0
 18 19  1  0
 18 20  1  0
 18 21  1  0
  7 22  1  0
  4 23  1  0
 22 23  1  0
M  END
