piperidine-amides-19314-covalent
     RDKit          3D

 22 24  0  0  0  0  0  0  0  0999 V2000
    7.1060   -3.3840   19.5160 C   0  0  0  0  0  0  0  0  0  0  0  0
    6.4490   -4.2780   20.4380 C   0  0  0  0  0  0  0  0  0  0  0  0
    5.4390   -4.9310   20.0100 O   0  0  0  0  0  0  0  0  0  0  0  0
    6.9150   -4.4810   21.7650 N   0  0  0  0  0  0  0  0  0  0  0  0
    6.4740   -5.6830   22.4820 C   0  0  0  0  0  0  0  0  0  0  0  0
    5.4530   -5.0010   23.4720 C   0  0  0  0  0  0  0  0  0  0  0  0
    6.2100   -3.9410   24.2520 C   0  0  0  0  0  0  0  0  0  0  0  0
    5.2850   -3.3910   25.4500 C   0  0  0  0  0  0  0  0  0  0  0  0
    4.3490   -2.8050   24.9350 O   0  0  0  0  0  0  0  0  0  0  0  0
    5.6890   -3.6650   26.6490 N   0  0  0  0  0  0  0  0  0  0  0  0
    6.3660   -3.9720   27.7470 C   0  0  0  0  0  0  0  0  0  0  0  0
    6.7780   -5.0990   28.3500 C   0  0  0  0  0  0  0  0  0  0  0  0
    5.7060   -5.4820   29.1150 C   0  0  0  0  0  0  0  0  0  0  0  0
    5.4340   -6.3960   30.0330 N   0  0  0  0  0  0  0  0  0  0  0  0
    4.1090   -6.3880   30.5470 C   0  0  0  0  0  0  0  0  0  0  0  0
    2.9540   -5.3910   30.1130 C   0  0  0  0  0  0  0  0  0  0  0  0
    3.3850   -4.4830   29.1310 C   0  0  0  0  0  0  0  0  0  0  0  0
    2.6520   -3.6010   28.6320 O   0  0  0  0  0  0  0  0  0  0  0  0
    4.6760   -4.5360   28.6700 C   0  0  0  0  0  0  0  0  0  0  0  0
    4.6610   -3.3620   27.6160 C   0  0  0  0  0  0  0  0  0  0  0  0
    6.8240   -2.8960   23.3490 C   0  0  0  0  0  0  0  0  0  0  0  0
    7.6930   -3.5080   22.4750 C   0  0  0  0  0  0  0  0  0  0  0  0
  1  2  1  0
  2  3  2  0
  2  4  1  0
  4  5  1  0
  5  6  1  0
  6  7  1  0
  7  8  1  0
  8  9  2  0
  8 10  1  0
 10 11  1  0
 11 12  1  0
 12 13  1  0
 13 14  2  0
 14 15  1  0
 15 16  2  0
 16 17  1  0
 17 18  1  0
 13 19  1  0
 17 19  2  0
 10 20  1  0
 19 20  1  0
  7 21  1  0
  4 22  1  0
 21 22  1  0
M  END
