piperidine-amides-11634-covalent
     RDKit          3D

 24 26  0  0  0  0  0  0  0  0999 V2000
    7.1290   -3.2770   19.2630 C   0  0  0  0  0  0  0  0  0  0  0  0
    6.3910   -4.0710   20.2400 C   0  0  0  0  0  0  0  0  0  0  0  0
    5.3390   -4.6270   19.9200 O   0  0  0  0  0  0  0  0  0  0  0  0
    6.9170   -4.2550   21.5620 N   0  0  0  0  0  0  0  0  0  0  0  0
    6.5590   -5.4170   22.3220 C   0  0  0  0  0  0  0  0  0  0  0  0
    5.8570   -4.9910   23.5810 C   0  0  0  0  0  0  0  0  0  0  0  0
    6.5910   -3.7950   24.1810 C   0  0  0  0  0  0  0  0  0  0  0  0
    5.8080   -3.2540   25.3200 C   0  0  0  0  0  0  0  0  0  0  0  0
    4.5640   -3.1920   25.2920 O   0  0  0  0  0  0  0  0  0  0  0  0
    6.4940   -2.7930   26.4610 N   0  0  0  0  0  0  0  0  0  0  0  0
    6.1740   -3.3980   27.7360 C   0  0  0  0  0  0  0  0  0  0  0  0
    5.2690   -2.4410   28.4830 C   0  0  0  0  0  0  0  0  0  0  0  0
    3.8930   -2.5380   28.4110 C   0  0  0  0  0  0  0  0  0  0  0  0
    3.0790   -1.6080   29.1550 N   0  0  0  0  0  0  0  0  0  0  0  0
    3.7190   -0.3830   29.5370 C   0  0  0  0  0  0  0  0  0  0  0  0
    2.9560    0.7940   29.6240 O   0  0  0  0  0  0  0  0  0  0  0  0
    5.0690   -0.4170   29.8010 C   0  0  0  0  0  0  0  0  0  0  0  0
    5.7380    0.5920   30.6240 C   0  0  0  0  0  0  0  0  0  0  0  0
    7.0870    0.5230   30.8660 C   0  0  0  0  0  0  0  0  0  0  0  0
    7.8450   -0.4850   30.3440 C   0  0  0  0  0  0  0  0  0  0  0  0
    7.2550   -1.4590   29.5580 C   0  0  0  0  0  0  0  0  0  0  0  0
    5.8170   -1.4540   29.2600 C   0  0  0  0  0  0  0  0  0  0  0  0
    6.8860   -2.6830   23.1940 C   0  0  0  0  0  0  0  0  0  0  0  0
    7.6900   -3.2310   22.2090 C   0  0  0  0  0  0  0  0  0  0  0  0
  1  2  1  0
  2  3  2  0
  2  4  1  0
  4  5  1  0
  5  6  1  0
  6  7  1  0
  7  8  1  0
  8  9  2  0
  8 10  1  0
 10 11  1  0
 11 12  1  0
 12 13  2  0
 13 14  1  0
 14 15  1  0
 15 16  2  0
 15 17  1  0
 17 18  1  0
 18 19  2  0
 19 20  1  0
 20 21  2  0
 12 22  1  0
 17 22  2  0
 21 22  1  0
  7 23  1  0
  4 24  1  0
 23 24  1  0
M  END
