piperidine-amides-27573-covalent
     RDKit          3D

 25 27  0  0  0  0  0  0  0  0999 V2000
    7.0650   -3.3630   19.3930 C   0  0  0  0  0  0  0  0  0  0  0  0
    6.4540   -4.2550   20.3810 C   0  0  0  0  0  0  0  0  0  0  0  0
    5.4160   -4.8640   19.9960 O   0  0  0  0  0  0  0  0  0  0  0  0
    7.0380   -4.4500   21.6450 N   0  0  0  0  0  0  0  0  0  0  0  0
    6.6890   -5.5480   22.4960 C   0  0  0  0  0  0  0  0  0  0  0  0
    5.9040   -5.0030   23.6630 C   0  0  0  0  0  0  0  0  0  0  0  0
    6.4050   -3.6880   24.2550 C   0  0  0  0  0  0  0  0  0  0  0  0
    5.3140   -3.0980   25.0850 C   0  0  0  0  0  0  0  0  0  0  0  0
    4.2900   -2.7370   24.4820 O   0  0  0  0  0  0  0  0  0  0  0  0
    5.3080   -2.9130   26.4890 N   0  0  0  0  0  0  0  0  0  0  0  0
    6.4870   -3.1290   27.2100 C   0  0  0  0  0  0  0  0  0  0  0  0
    6.0890   -4.3560   28.0290 C   0  0  1  0  0  0  0  0  0  0  0  0
    6.0000   -5.3980   27.1270 F   0  0  0  0  0  0  0  0  0  0  0  0
    6.6480   -4.9650   29.0920 C   0  0  0  0  0  0  0  0  0  0  0  0
    6.1740   -6.2630   29.2250 C   0  0  0  0  0  0  0  0  0  0  0  0
    4.9450   -6.0780   29.6900 O   0  0  0  0  0  0  0  0  0  0  0  0
    4.2380   -5.2320   28.9820 C   0  0  0  0  0  0  0  0  0  0  0  0
    4.8280   -4.0880   28.5040 C   0  0  1  0  0  0  0  0  0  0  0  0
    4.9690   -3.0180   29.3810 C   0  0  0  0  0  0  0  0  0  0  0  0
    6.2490   -2.6190   29.5400 O   0  0  0  0  0  0  0  0  0  0  0  0
    4.0010   -2.4580   29.9550 O   0  0  0  0  0  0  0  0  0  0  0  0
    3.5510   -2.7590   31.2610 C   0  0  0  0  0  0  0  0  0  0  0  0
    4.2660   -3.4740   27.2720 C   0  0  0  0  0  0  0  0  0  0  0  0
    6.8380   -2.6590   23.1880 C   0  0  0  0  0  0  0  0  0  0  0  0
    7.8080   -3.4000   22.2940 C   0  0  0  0  0  0  0  0  0  0  0  0
  1  2  1  0
  2  3  2  0
  2  4  1  0
  4  5  1  0
  5  6  1  0
  6  7  1  0
  7  8  1  0
  8  9  2  0
  8 10  1  0
 10 11  1  0
 11 12  1  0
 12 13  1  6
 12 14  1  0
 14 15  1  0
 15 16  1  0
 16 17  1  0
 12 18  1  0
 17 18  1  0
 18 19  1  1
 19 20  2  0
 19 21  1  0
 21 22  1  0
 10 23  1  0
 18 23  1  0
  7 24  1  0
  4 25  1  0
 24 25  1  0
M  END
