piperidine-amides-12696-covalent
     RDKit          3D

 22 24  0  0  0  0  0  0  0  0999 V2000
    7.1460   -3.2940   19.1800 C   0  0  0  0  0  0  0  0  0  0  0  0
    6.3570   -3.9950   20.2130 C   0  0  0  0  0  0  0  0  0  0  0  0
    5.2590   -4.4610   19.8530 O   0  0  0  0  0  0  0  0  0  0  0  0
    6.8690   -4.1740   21.5050 N   0  0  0  0  0  0  0  0  0  0  0  0
    6.4420   -5.2590   22.3140 C   0  0  0  0  0  0  0  0  0  0  0  0
    5.8270   -4.8000   23.5580 C   0  0  0  0  0  0  0  0  0  0  0  0
    5.8790   -3.3300   23.7740 C   0  0  0  0  0  0  0  0  0  0  0  0
    5.5650   -2.9880   25.1810 C   0  0  0  0  0  0  0  0  0  0  0  0
    4.3640   -2.8700   25.4940 O   0  0  0  0  0  0  0  0  0  0  0  0
    6.5680   -2.8040   26.1520 N   0  0  0  0  0  0  0  0  0  0  0  0
    6.8020   -3.8270   27.1790 C   0  0  1  0  0  0  0  0  0  0  0  0
    5.4960   -4.1110   27.8470 C   0  0  0  0  0  0  0  0  0  0  0  0
    5.5120   -4.6500   29.1940 C   0  0  0  0  0  0  0  0  0  0  0  0
    4.6520   -3.7070   29.5810 C   0  0  0  0  0  0  0  0  0  0  0  0
    4.5760   -3.1400   28.3290 C   0  0  0  0  0  0  0  0  0  0  0  0
    7.4750   -4.9600   26.6130 C   0  0  2  0  0  0  0  0  0  0  0  0
    8.1640   -5.7610   27.4640 C   0  0  0  0  0  0  0  0  0  0  0  0
    9.3620   -6.0070   26.9250 C   0  0  0  0  0  0  0  0  0  0  0  0
    9.5300   -5.2070   25.8700 O   0  0  0  0  0  0  0  0  0  0  0  0
    8.3530   -4.4750   25.6450 C   0  0  0  0  0  0  0  0  0  0  0  0
    7.1090   -2.6100   23.3400 C   0  0  0  0  0  0  0  0  0  0  0  0
    7.7780   -3.2270   22.1400 C   0  0  0  0  0  0  0  0  0  0  0  0
  1  2  1  0
  2  3  2  0
  2  4  1  0
  4  5  1  0
  5  6  1  0
  6  7  1  0
  7  8  1  0
  8  9  2  0
  8 10  1  0
 11 10  1  6
 11 12  1  0
 12 13  1  0
 13 14  1  0
 12 15  1  0
 14 15  1  0
 11 16  1  0
 16 17  1  1
 17 18  1  0
 18 19  1  0
 16 20  1  0
 19 20  1  0
  7 21  1  0
  4 22  1  0
 21 22  1  0
M  END
