piperidine-amides-10077-covalent
     RDKit          3D

 25 25  0  0  0  0  0  0  0  0999 V2000
    7.1330   -3.2810   19.2050 C   0  0  0  0  0  0  0  0  0  0  0  0
    6.3400   -3.9780   20.2180 C   0  0  0  0  0  0  0  0  0  0  0  0
    5.2430   -4.4720   19.8490 O   0  0  0  0  0  0  0  0  0  0  0  0
    6.8400   -4.1200   21.5090 N   0  0  0  0  0  0  0  0  0  0  0  0
    7.6700   -3.1080   22.1230 C   0  0  0  0  0  0  0  0  0  0  0  0
    6.9970   -2.6400   23.3790 C   0  0  0  0  0  0  0  0  0  0  0  0
    6.6100   -3.7960   24.2600 C   0  0  0  0  0  0  0  0  0  0  0  0
    5.8830   -3.3370   25.4710 C   0  0  0  0  0  0  0  0  0  0  0  0
    4.8970   -2.5810   25.3080 O   0  0  0  0  0  0  0  0  0  0  0  0
    6.2280   -3.7140   26.7930 N   0  0  0  0  0  0  0  0  0  0  0  0
    5.8910   -5.0340   27.2920 C   0  0  0  0  0  0  0  0  0  0  0  0
    6.2320   -5.2220   28.7640 C   0  0  0  0  0  0  0  0  0  0  0  0
    5.8270   -6.3410   29.4700 C   0  0  0  0  0  0  0  0  0  0  0  0
    4.7950   -6.3150   30.3960 C   0  0  0  0  0  0  0  0  0  0  0  0
    4.1380   -5.1570   30.6370 F   0  0  0  0  0  0  0  0  0  0  0  0
    3.8570   -7.3070   30.0810 F   0  0  0  0  0  0  0  0  0  0  0  0
    5.3910   -6.6630   31.5770 F   0  0  0  0  0  0  0  0  0  0  0  0
    4.4860   -5.3260   26.9340 C   0  0  0  0  0  0  0  0  0  0  0  0
    4.3070   -6.5510   26.3040 C   0  0  0  0  0  0  0  0  0  0  0  0
    3.0460   -6.8840   25.8290 C   0  0  0  0  0  0  0  0  0  0  0  0
    2.2650   -7.3300   26.8860 F   0  0  0  0  0  0  0  0  0  0  0  0
    3.1010   -7.8840   24.9010 F   0  0  0  0  0  0  0  0  0  0  0  0
    2.5030   -5.7550   25.2480 F   0  0  0  0  0  0  0  0  0  0  0  0
    5.7240   -4.7860   23.4940 C   0  0  0  0  0  0  0  0  0  0  0  0
    6.4850   -5.2810   22.2720 C   0  0  0  0  0  0  0  0  0  0  0  0
  1  2  1  0
  2  3  2  0
  2  4  1  0
  4  5  1  0
  5  6  1  0
  6  7  1  0
  7  8  1  0
  8  9  2  0
  8 10  1  0
 10 11  1  0
 11 12  1  0
 12 13  1  0
 13 14  1  0
 14 15  1  0
 14 16  1  0
 14 17  1  0
 11 18  1  0
 18 19  1  0
 19 20  1  0
 20 21  1  0
 20 22  1  0
 20 23  1  0
  7 24  1  0
  4 25  1  0
 24 25  1  0
M  END
