piperidine-amides-21732-covalent
     RDKit          3D

 23 25  0  0  0  0  0  0  0  0999 V2000
    7.1300   -3.2830   19.2240 C   0  0  0  0  0  0  0  0  0  0  0  0
    6.3940   -4.0500   20.2320 C   0  0  0  0  0  0  0  0  0  0  0  0
    5.2850   -4.5290   19.8790 O   0  0  0  0  0  0  0  0  0  0  0  0
    6.9490   -4.2760   21.4910 N   0  0  0  0  0  0  0  0  0  0  0  0
    6.6240   -5.4370   22.2710 C   0  0  0  0  0  0  0  0  0  0  0  0
    5.9290   -4.9670   23.5140 C   0  0  0  0  0  0  0  0  0  0  0  0
    6.6070   -3.7750   24.1520 C   0  0  0  0  0  0  0  0  0  0  0  0
    5.8050   -3.3410   25.3050 C   0  0  0  0  0  0  0  0  0  0  0  0
    4.5830   -3.1480   25.1130 O   0  0  0  0  0  0  0  0  0  0  0  0
    6.3000   -3.1320   26.5970 N   0  0  0  0  0  0  0  0  0  0  0  0
    5.7460   -4.0490   27.5780 C   0  0  0  0  0  0  0  0  0  0  0  0
    6.7230   -4.7080   28.5490 C   0  0  0  0  0  0  0  0  0  0  0  0
    6.5430   -1.8040   27.0590 C   0  0  0  0  0  0  0  0  0  0  0  0
    6.3640   -1.5140   28.3880 C   0  0  0  0  0  0  0  0  0  0  0  0
    6.4870   -0.3070   28.9750 C   0  0  0  0  0  0  0  0  0  0  0  0
    6.2290   -0.4340   30.2750 C   0  0  0  0  0  0  0  0  0  0  0  0
    6.2230    0.5010   31.2880 C   0  0  0  0  0  0  0  0  0  0  0  0
    5.5560    1.6740   31.0670 C   0  0  0  0  0  0  0  0  0  0  0  0
    7.1620    1.5350   31.1470 C   0  0  0  0  0  0  0  0  0  0  0  0
    5.9310   -1.7900   30.5120 O   0  0  0  0  0  0  0  0  0  0  0  0
    6.0210   -2.4320   29.3470 N   0  0  0  0  0  0  0  0  0  0  0  0
    6.7970   -2.6170   23.1700 C   0  0  0  0  0  0  0  0  0  0  0  0
    7.7220   -3.2270   22.1480 C   0  0  0  0  0  0  0  0  0  0  0  0
  1  2  1  0
  2  3  2  0
  2  4  1  0
  4  5  1  0
  5  6  1  0
  6  7  1  0
  7  8  1  0
  8  9  2  0
  8 10  1  0
 10 11  1  0
 11 12  1  0
 10 13  1  0
 13 14  1  0
 14 15  1  0
 15 16  2  0
 16 17  1  0
 17 18  1  0
 17 19  1  0
 18 19  1  0
 16 20  1  0
 14 21  2  0
 20 21  1  0
  7 22  1  0
  4 23  1  0
 22 23  1  0
M  END
