piperidine-amides-25286-covalent
     RDKit          3D

 25 27  0  0  0  0  0  0  0  0999 V2000
    7.0500   -3.3070   19.3210 C   0  0  0  0  0  0  0  0  0  0  0  0
    6.3500   -4.1710   20.3130 C   0  0  0  0  0  0  0  0  0  0  0  0
    5.3180   -4.7170   19.9380 O   0  0  0  0  0  0  0  0  0  0  0  0
    6.8760   -4.3770   21.5920 N   0  0  0  0  0  0  0  0  0  0  0  0
    6.3720   -5.4100   22.4620 C   0  0  0  0  0  0  0  0  0  0  0  0
    5.8820   -4.8300   23.7810 C   0  0  0  0  0  0  0  0  0  0  0  0
    5.5930   -3.3190   23.6830 C   0  0  0  0  0  0  0  0  0  0  0  0
    5.2260   -2.8040   25.0480 C   0  0  0  0  0  0  0  0  0  0  0  0
    4.4650   -3.4950   25.7400 O   0  0  0  0  0  0  0  0  0  0  0  0
    5.6780   -1.5520   25.5880 N   0  0  0  0  0  0  0  0  0  0  0  0
    5.9150   -1.5190   27.0160 C   0  0  0  0  0  0  0  0  0  0  0  0
    6.4850   -0.6890   24.7880 C   0  0  0  0  0  0  0  0  0  0  0  0
    7.5720   -1.4150   24.6520 C   0  0  0  0  0  0  0  0  0  0  0  0
    7.6020   -2.5040   25.3880 N   0  0  0  0  0  0  0  0  0  0  0  0
    8.7760   -3.0640   25.0640 C   0  0  0  0  0  0  0  0  0  0  0  0
    8.9060   -4.1790   25.7460 C   0  0  0  0  0  0  0  0  0  0  0  0
    9.8390   -5.2960   25.8060 C   0  0  0  0  0  0  0  0  0  0  0  0
    9.4580   -6.2930   26.7840 C   0  0  0  0  0  0  0  0  0  0  0  0
    8.2380   -6.1300   27.6480 C   0  0  0  0  0  0  0  0  0  0  0  0
    7.4080   -4.9340   27.4680 C   0  0  0  0  0  0  0  0  0  0  0  0
    7.6540   -3.8510   26.5010 C   0  0  0  0  0  0  0  0  0  0  0  0
    9.4050   -2.2720   24.1460 N   0  0  0  0  0  0  0  0  0  0  0  0
    8.5970   -1.2290   23.9130 O   0  0  0  0  0  0  0  0  0  0  0  0
    6.6060   -2.5250   22.9520 C   0  0  0  0  0  0  0  0  0  0  0  0
    7.6210   -3.3300   22.2420 C   0  0  0  0  0  0  0  0  0  0  0  0
  1  2  1  0
  2  3  2  0
  2  4  1  0
  4  5  1  0
  5  6  1  0
  6  7  1  0
  7  8  1  0
  8  9  2  0
  8 10  1  0
 10 11  1  0
 10 12  1  0
 12 13  1  0
 13 14  2  0
 14 15  1  0
 15 16  1  0
 16 17  2  0
 17 18  1  0
 18 19  2  0
 19 20  1  0
 16 21  1  0
 20 21  2  0
 15 22  2  0
 13 23  1  0
 22 23  1  0
  7 24  1  0
  4 25  1  0
 24 25  1  0
M  END
