piperidine-amides-19787-covalent
     RDKit          3D

 22 24  0  0  0  0  0  0  0  0999 V2000
    7.0160   -3.3680   19.4220 C   0  0  0  0  0  0  0  0  0  0  0  0
    6.3860   -4.2640   20.4250 C   0  0  0  0  0  0  0  0  0  0  0  0
    5.4420   -4.9450   20.0130 O   0  0  0  0  0  0  0  0  0  0  0  0
    6.8770   -4.3470   21.7500 N   0  0  0  0  0  0  0  0  0  0  0  0
    6.6380   -5.5110   22.5850 C   0  0  0  0  0  0  0  0  0  0  0  0
    5.9270   -5.1140   23.8670 C   0  0  0  0  0  0  0  0  0  0  0  0
    5.9050   -3.5910   23.9260 C   0  0  0  0  0  0  0  0  0  0  0  0
    5.0920   -3.0420   25.0630 C   0  0  0  0  0  0  0  0  0  0  0  0
    4.2330   -2.2190   24.7700 O   0  0  0  0  0  0  0  0  0  0  0  0
    5.1960   -3.3640   26.4340 N   0  0  0  0  0  0  0  0  0  0  0  0
    5.3160   -2.2730   27.3490 C   0  0  0  0  0  0  0  0  0  0  0  0
    4.7720   -2.7630   28.6580 C   0  0  0  0  0  0  0  0  0  0  0  0
    5.5150   -3.4670   29.5230 C   0  0  0  0  0  0  0  0  0  0  0  0
    6.2860   -4.4410   29.0030 C   0  0  0  0  0  0  0  0  0  0  0  0
    5.6930   -5.2050   28.0460 C   0  0  0  0  0  0  0  0  0  0  0  0
    5.8740   -6.6570   27.7710 C   0  0  0  0  0  0  0  0  0  0  0  0
    5.5070   -7.0200   29.1710 C   0  0  0  0  0  0  0  0  0  0  0  0
    4.2930   -6.1590   29.3560 C   0  0  0  0  0  0  0  0  0  0  0  0
    4.1880   -5.3980   28.0680 C   0  0  0  0  0  0  0  0  0  0  0  0
    6.1220   -4.2870   26.9520 C   0  0  0  0  0  0  0  0  0  0  0  0
    7.2040   -2.9540   23.6600 C   0  0  0  0  0  0  0  0  0  0  0  0
    7.7200   -3.2840   22.3040 C   0  0  0  0  0  0  0  0  0  0  0  0
  1  2  1  0
  2  3  2  0
  2  4  1  0
  4  5  1  0
  5  6  1  0
  6  7  1  0
  7  8  1  0
  8  9  2  0
  8 10  1  0
 10 11  1  0
 11 12  1  0
 12 13  1  0
 13 14  1  0
 15 14  1  0
 15 16  1  0
 16 17  1  0
 17 18  1  0
 15 19  1  0
 18 19  1  0
 10 20  1  0
 15 20  1  0
  7 21  1  0
  4 22  1  0
 21 22  1  0
M  END
