piperidine-amides-13033-covalent
     RDKit          3D

 20 20  0  0  0  0  0  0  0  0999 V2000
    7.1200   -3.2470   19.1860 C   0  0  0  0  0  0  0  0  0  0  0  0
    6.3500   -3.9910   20.2100 C   0  0  0  0  0  0  0  0  0  0  0  0
    5.2660   -4.4820   19.8500 O   0  0  0  0  0  0  0  0  0  0  0  0
    6.8470   -4.1790   21.5040 N   0  0  0  0  0  0  0  0  0  0  0  0
    7.5680   -3.1170   22.1310 C   0  0  0  0  0  0  0  0  0  0  0  0
    7.1560   -2.8350   23.5100 C   0  0  0  0  0  0  0  0  0  0  0  0
    6.4910   -3.9580   24.2080 C   0  0  0  0  0  0  0  0  0  0  0  0
    5.7600   -3.4610   25.4090 C   0  0  0  0  0  0  0  0  0  0  0  0
    4.5300   -3.2770   25.3160 O   0  0  0  0  0  0  0  0  0  0  0  0
    6.4290   -3.1850   26.6250 N   0  0  0  0  0  0  0  0  0  0  0  0
    6.2600   -3.9620   27.8940 C   0  0  0  0  0  0  0  0  0  0  0  0
    5.9230   -5.4170   27.7260 C   0  0  1  0  0  0  0  0  0  0  0  0
    6.2260   -6.0890   26.7020 O   0  0  0  0  0  0  0  0  0  0  0  0
    6.2040   -6.3320   28.8270 C   0  0  0  0  0  0  0  0  0  0  0  0
    5.3450   -6.0970   29.9600 N   0  0  0  0  0  0  0  0  0  0  0  0
    4.3860   -7.0230   30.4480 C   0  0  0  0  0  0  0  0  0  0  0  0
    3.7360   -7.6160   29.4100 N   0  0  0  0  0  0  0  0  0  0  0  0
    4.1030   -7.3270   31.7430 O   0  0  0  0  0  0  0  0  0  0  0  0
    5.6260   -4.7980   23.3270 C   0  0  0  0  0  0  0  0  0  0  0  0
    6.3060   -5.2680   22.2470 C   0  0  0  0  0  0  0  0  0  0  0  0
  1  2  1  0
  2  3  2  0
  2  4  1  0
  4  5  1  0
  5  6  1  0
  6  7  1  0
  7  8  1  0
  8  9  2  0
  8 10  1  0
 10 11  1  0
 11 12  1  0
 12 13  1  6
 12 14  1  0
 14 15  1  0
 15 16  1  0
 16 17  1  0
 16 18  2  0
  7 19  1  0
  4 20  1  0
 19 20  1  0
M  END
