piperidine-amides-15219-covalent
     RDKit          3D

 19 20  0  0  0  0  0  0  0  0999 V2000
    7.0300   -3.3200   19.3650 C   0  0  0  0  0  0  0  0  0  0  0  0
    6.3470   -4.1780   20.3480 C   0  0  0  0  0  0  0  0  0  0  0  0
    5.3950   -4.9040   19.9900 O   0  0  0  0  0  0  0  0  0  0  0  0
    6.7740   -4.2170   21.6860 N   0  0  0  0  0  0  0  0  0  0  0  0
    7.6650   -3.1730   22.1600 C   0  0  0  0  0  0  0  0  0  0  0  0
    7.4740   -3.0580   23.6670 C   0  0  0  0  0  0  0  0  0  0  0  0
    6.0800   -3.5670   23.9230 C   0  0  0  0  0  0  0  0  0  0  0  0
    5.6250   -3.1350   25.2560 C   0  0  0  0  0  0  0  0  0  0  0  0
    4.3990   -3.0360   25.4660 O   0  0  0  0  0  0  0  0  0  0  0  0
    6.5820   -2.8510   26.2520 N   0  0  0  0  0  0  0  0  0  0  0  0
    6.5150   -1.6660   27.0590 C   0  0  0  0  0  0  0  0  0  0  0  0
    5.9340   -0.3710   26.5380 C   0  0  0  0  0  0  0  0  0  0  0  0
    5.8750    0.7570   27.3220 C   0  0  0  0  0  0  0  0  0  0  0  0
    6.3470    0.7510   28.6240 C   0  0  0  0  0  0  0  0  0  0  0  0
    6.2910    1.8910   29.4210 C   0  0  0  0  0  0  0  0  0  0  0  0
    6.8900   -0.3890   29.1710 C   0  0  0  0  0  0  0  0  0  0  0  0
    7.0140   -1.6880   28.4300 C   0  0  0  0  0  0  0  0  0  0  0  0
    5.9520   -5.0420   23.7060 C   0  0  0  0  0  0  0  0  0  0  0  0
    6.6790   -5.4460   22.4580 C   0  0  0  0  0  0  0  0  0  0  0  0
  1  2  1  0
  2  3  2  0
  2  4  1  0
  4  5  1  0
  5  6  1  0
  6  7  1  0
  7  8  1  0
  8  9  2  0
  8 10  1  0
 10 11  1  0
 11 12  2  0
 12 13  1  0
 13 14  2  0
 14 15  1  0
 14 16  1  0
 11 17  1  0
 16 17  2  0
  7 18  1  0
  4 19  1  0
 18 19  1  0
M  END
