piperidine-amides-33218-covalent
     RDKit          3D

 29 30  0  0  0  0  0  0  0  0999 V2000
    7.1400   -3.3300   19.2140 C   0  0  0  0  0  0  0  0  0  0  0  0
    6.3690   -4.0660   20.2260 C   0  0  0  0  0  0  0  0  0  0  0  0
    5.2670   -4.5460   19.8800 O   0  0  0  0  0  0  0  0  0  0  0  0
    6.9050   -4.2720   21.5100 N   0  0  0  0  0  0  0  0  0  0  0  0
    7.6750   -3.2230   22.0700 C   0  0  0  0  0  0  0  0  0  0  0  0
    7.4550   -2.9870   23.4790 C   0  0  0  0  0  0  0  0  0  0  0  0
    6.6070   -3.9790   24.1750 C   0  0  0  0  0  0  0  0  0  0  0  0
    5.7640   -3.2710   25.1780 C   0  0  0  0  0  0  0  0  0  0  0  0
    4.6490   -2.8120   24.8780 O   0  0  0  0  0  0  0  0  0  0  0  0
    6.2580   -3.1750   26.4660 N   0  0  0  0  0  0  0  0  0  0  0  0
    6.3870   -1.9460   27.2150 C   0  0  0  0  0  0  0  0  0  0  0  0
    7.1850   -1.7280   28.3700 C   0  0  0  0  0  0  0  0  0  0  0  0
    7.2500   -0.4380   29.0860 C   0  0  0  0  0  0  0  0  0  0  0  0
    8.1060   -0.5500   30.1500 O   0  0  0  0  0  0  0  0  0  0  0  0
    7.5440    0.0640   31.2620 C   0  0  0  0  0  0  0  0  0  0  0  0
    6.5540    0.8580   28.7990 C   0  0  0  0  0  0  0  0  0  0  0  0
    5.7260    0.5740   27.5590 C   0  0  0  0  0  0  0  0  0  0  0  0
    5.5270   -0.7220   26.6640 C   0  0  0  0  0  0  0  0  0  0  0  0
    4.6560   -0.6450   25.5520 N   0  0  0  0  0  0  0  0  0  0  0  0
    4.8080    0.3060   24.6080 O   0  0  0  0  0  0  0  0  0  0  0  0
    3.3710   -1.0790   25.7570 O   0  0  0  0  0  0  0  0  0  0  0  0
    6.8260   -4.3370   27.0630 C   0  0  2  0  0  0  0  0  0  0  0  0
    5.9640   -5.4160   27.6850 C   0  0  0  0  0  0  0  0  0  0  0  0
    7.8650   -4.0310   28.0480 C   0  0  0  0  0  0  0  0  0  0  0  0
    8.8920   -4.3230   28.8730 O   0  0  0  0  0  0  0  0  0  0  0  0
    8.1470   -5.3480   27.9580 O   0  0  0  0  0  0  0  0  0  0  0  0
    9.1470   -5.8850   27.1310 C   0  0  0  0  0  0  0  0  0  0  0  0
    5.7610   -4.8760   23.3280 C   0  0  0  0  0  0  0  0  0  0  0  0
    6.5200   -5.3950   22.3060 C   0  0  0  0  0  0  0  0  0  0  0  0
  1  2  1  0
  2  3  2  0
  2  4  1  0
  4  5  1  0
  5  6  1  0
  6  7  1  0
  7  8  1  0
  8  9  2  0
  8 10  1  0
 10 11  1  0
 11 12  2  0
 12 13  1  0
 13 14  1  0
 14 15  1  0
 13 16  2  0
 16 17  1  0
 11 18  1  0
 17 18  2  0
 18 19  1  0
 19 20  2  0
 19 21  1  0
 10 22  1  0
 22 23  1  1
 22 24  1  0
 24 25  2  0
 24 26  1  0
 26 27  1  0
  7 28  1  0
  4 29  1  0
 28 29  1  0
M  CHG  2  19   1  21  -1
M  END
