piperidine-amides-3657-covalent
     RDKit          3D

 18 18  0  0  0  0  0  0  0  0999 V2000
    7.1010   -3.3240   19.2780 C   0  0  0  0  0  0  0  0  0  0  0  0
    6.3300   -4.0470   20.2990 C   0  0  0  0  0  0  0  0  0  0  0  0
    5.2750   -4.6010   19.9100 O   0  0  0  0  0  0  0  0  0  0  0  0
    6.7890   -4.1550   21.6380 N   0  0  0  0  0  0  0  0  0  0  0  0
    6.5220   -5.3480   22.3690 C   0  0  0  0  0  0  0  0  0  0  0  0
    6.0620   -5.0840   23.7250 C   0  0  0  0  0  0  0  0  0  0  0  0
    6.0090   -3.6440   24.0320 C   0  0  0  0  0  0  0  0  0  0  0  0
    5.4660   -3.3180   25.4010 C   0  0  0  0  0  0  0  0  0  0  0  0
    4.3510   -2.7700   25.4660 O   0  0  0  0  0  0  0  0  0  0  0  0
    6.1370   -3.5870   26.6130 N   0  0  0  0  0  0  0  0  0  0  0  0
    6.2000   -4.8070   27.3480 C   0  0  0  0  0  0  0  0  0  0  0  0
    5.1250   -5.4410   28.0580 C   0  0  0  0  0  0  0  0  0  0  0  0
    5.7960   -6.0740   29.2990 C   0  0  0  0  0  0  0  0  0  0  0  0
    5.4510   -7.1770   30.0830 C   0  0  0  0  0  0  0  0  0  0  0  0
    4.1770   -7.6390   29.3440 C   0  0  0  0  0  0  0  0  0  0  0  0
    3.9800   -6.7280   28.1940 C   0  0  0  0  0  0  0  0  0  0  0  0
    7.3790   -3.0160   23.7470 C   0  0  0  0  0  0  0  0  0  0  0  0
    7.6380   -3.1470   22.2560 C   0  0  0  0  0  0  0  0  0  0  0  0
  1  2  1  0
  2  3  2  0
  2  4  1  0
  4  5  1  0
  5  6  1  0
  6  7  1  0
  7  8  1  0
  8  9  2  0
  8 10  1  0
 10 11  1  0
 11 12  1  0
 12 13  1  0
 13 14  2  0
 14 15  2  0
 15 16  1  0
  7 17  1  0
  4 18  1  0
 17 18  1  0
M  END
