piperidine-amides-6976-covalent
     RDKit          3D

 23 25  0  0  0  0  0  0  0  0999 V2000
    7.0660   -3.3280   19.3800 C   0  0  0  0  0  0  0  0  0  0  0  0
    6.3960   -4.1930   20.3630 C   0  0  0  0  0  0  0  0  0  0  0  0
    5.4300   -4.9040   20.0030 O   0  0  0  0  0  0  0  0  0  0  0  0
    6.8610   -4.2490   21.6900 N   0  0  0  0  0  0  0  0  0  0  0  0
    7.6810   -3.1570   22.1880 C   0  0  0  0  0  0  0  0  0  0  0  0
    7.4670   -3.0530   23.7060 C   0  0  0  0  0  0  0  0  0  0  0  0
    6.0680   -3.5530   23.9450 C   0  0  0  0  0  0  0  0  0  0  0  0
    5.5300   -3.1860   25.2810 C   0  0  0  0  0  0  0  0  0  0  0  0
    4.2910   -3.0750   25.3830 O   0  0  0  0  0  0  0  0  0  0  0  0
    6.3660   -2.9670   26.4070 N   0  0  0  0  0  0  0  0  0  0  0  0
    6.7570   -1.6400   26.8350 C   0  0  1  0  0  0  0  0  0  0  0  0
    5.7330   -0.6290   26.4360 C   0  0  0  0  0  0  0  0  0  0  0  0
    5.5400    0.2290   27.4610 C   0  0  0  0  0  0  0  0  0  0  0  0
    6.1220   -0.3450   28.6210 N   0  0  0  0  0  0  0  0  0  0  0  0
    6.5120    0.4810   29.6850 C   0  0  0  0  0  0  0  0  0  0  0  0
    7.3310   -0.1200   30.5980 C   0  0  0  0  0  0  0  0  0  0  0  0
    7.8150    0.5350   31.7100 C   0  0  0  0  0  0  0  0  0  0  0  0
    7.6320    1.9730   32.2440 C   0  0  0  0  0  0  0  0  0  0  0  0
    6.7100    2.5060   31.1350 C   0  0  0  0  0  0  0  0  0  0  0  0
    6.2110    1.7550   29.9460 C   0  0  0  0  0  0  0  0  0  0  0  0
    6.9970   -1.4560   28.1960 C   0  0  0  0  0  0  0  0  0  0  0  0
    6.0600   -5.0400   23.7430 C   0  0  0  0  0  0  0  0  0  0  0  0
    6.5150   -5.3750   22.5010 C   0  0  0  0  0  0  0  0  0  0  0  0
  1  2  1  0
  2  3  2  0
  2  4  1  0
  4  5  1  0
  5  6  1  0
  6  7  1  0
  7  8  1  0
  8  9  2  0
  8 10  1  0
 11 10  1  1
 11 12  1  0
 12 13  1  0
 13 14  1  0
 14 15  1  0
 15 16  2  0
 16 17  1  0
 17 18  2  0
 18 19  1  0
 15 20  1  0
 19 20  2  0
 11 21  1  0
 14 21  1  0
  7 22  1  0
  4 23  1  0
 22 23  1  0
M  END
