piperidine-amides-1935-covalent
     RDKit          3D

 22 24  0  0  0  0  0  0  0  0999 V2000
    7.0370   -3.3260   19.3200 C   0  0  0  0  0  0  0  0  0  0  0  0
    6.3610   -4.1770   20.3330 C   0  0  0  0  0  0  0  0  0  0  0  0
    5.3730   -4.8120   19.9680 O   0  0  0  0  0  0  0  0  0  0  0  0
    6.8780   -4.2590   21.6280 N   0  0  0  0  0  0  0  0  0  0  0  0
    7.7230   -3.2320   22.1830 C   0  0  0  0  0  0  0  0  0  0  0  0
    7.3010   -2.9200   23.5850 C   0  0  0  0  0  0  0  0  0  0  0  0
    5.9570   -3.5820   23.8910 C   0  0  0  0  0  0  0  0  0  0  0  0
    5.6150   -3.1330   25.2490 C   0  0  0  0  0  0  0  0  0  0  0  0
    4.4380   -3.1010   25.6270 O   0  0  0  0  0  0  0  0  0  0  0  0
    6.6620   -2.7560   26.0890 N   0  0  0  0  0  0  0  0  0  0  0  0
    6.5410   -1.6490   27.0050 C   0  0  0  0  0  0  0  0  0  0  0  0
    6.1340   -0.2970   26.4500 C   0  0  0  0  0  0  0  0  0  0  0  0
    5.9890    0.8480   27.1960 C   0  0  0  0  0  0  0  0  0  0  0  0
    5.6410    2.2050   27.0160 N   0  0  0  0  0  0  0  0  0  0  0  0
    5.6890    2.8490   28.2040 N   0  0  0  0  0  0  0  0  0  0  0  0
    6.0540    1.9900   29.1780 N   0  0  0  0  0  0  0  0  0  0  0  0
    6.2280    0.7470   28.4850 C   0  0  0  0  0  0  0  0  0  0  0  0
    6.5990   -0.3980   29.1200 C   0  0  0  0  0  0  0  0  0  0  0  0
    6.7650   -1.6830   28.3520 C   0  0  0  0  0  0  0  0  0  0  0  0
    7.1310   -2.8610   28.9860 F   0  0  0  0  0  0  0  0  0  0  0  0
    6.0100   -5.0690   23.7350 C   0  0  0  0  0  0  0  0  0  0  0  0
    6.6260   -5.4470   22.4170 C   0  0  0  0  0  0  0  0  0  0  0  0
  1  2  1  0
  2  3  2  0
  2  4  1  0
  4  5  1  0
  5  6  1  0
  6  7  1  0
  7  8  1  0
  8  9  2  0
  8 10  1  0
 10 11  1  0
 11 12  2  0
 12 13  1  0
 13 14  1  0
 14 15  1  0
 15 16  2  0
 13 17  2  0
 16 17  1  0
 17 18  1  0
 11 19  1  0
 18 19  2  0
 19 20  1  0
  7 21  1  0
  4 22  1  0
 21 22  1  0
M  END
