piperidine-amides-11749-covalent
     RDKit          3D

 28 30  0  0  0  0  0  0  0  0999 V2000
    7.1510   -3.2640   19.2030 C   0  0  0  0  0  0  0  0  0  0  0  0
    6.3660   -4.0120   20.1760 C   0  0  0  0  0  0  0  0  0  0  0  0
    5.2860   -4.5110   19.8680 O   0  0  0  0  0  0  0  0  0  0  0  0
    6.8960   -4.2180   21.4880 N   0  0  0  0  0  0  0  0  0  0  0  0
    7.7150   -3.2060   22.0970 C   0  0  0  0  0  0  0  0  0  0  0  0
    7.0550   -2.6950   23.3340 C   0  0  0  0  0  0  0  0  0  0  0  0
    6.6040   -3.9050   24.1240 C   0  0  0  0  0  0  0  0  0  0  0  0
    5.8490   -3.4130   25.2950 C   0  0  0  0  0  0  0  0  0  0  0  0
    4.6000   -3.3980   25.3350 O   0  0  0  0  0  0  0  0  0  0  0  0
    6.6090   -2.9420   26.3790 N   0  0  0  0  0  0  0  0  0  0  0  0
    5.9650   -2.6680   27.6310 C   0  0  2  0  0  0  0  0  0  0  0  0
    6.3120   -3.7900   28.5750 C   0  0  0  0  0  0  0  0  0  0  0  0
    5.7930   -5.0440   28.3930 C   0  0  0  0  0  0  0  0  0  0  0  0
    5.3670   -5.7290   29.5190 C   0  0  0  0  0  0  0  0  0  0  0  0
    4.2510   -5.3270   30.2480 C   0  0  0  0  0  0  0  0  0  0  0  0
    3.8820   -6.0990   31.4320 C   0  0  0  0  0  0  0  0  0  0  0  0
    4.5860   -7.1900   31.8500 C   0  0  0  0  0  0  0  0  0  0  0  0
    5.6640   -7.5390   31.1010 C   0  0  0  0  0  0  0  0  0  0  0  0
    6.0450   -6.8380   29.9670 C   0  0  0  0  0  0  0  0  0  0  0  0
    4.5840   -2.3760   27.5860 C   0  0  0  0  0  0  0  0  0  0  0  0
    3.6380   -3.4140   27.4670 C   0  0  0  0  0  0  0  0  0  0  0  0
    2.2590   -3.1970   27.4130 C   0  0  0  0  0  0  0  0  0  0  0  0
    1.7050   -1.8310   27.4810 C   0  0  0  0  0  0  0  0  0  0  0  0
    2.6280   -0.6410   27.6090 C   0  0  0  0  0  0  0  0  0  0  0  0
    2.2160    0.6550   27.6790 F   0  0  0  0  0  0  0  0  0  0  0  0
    4.0920   -1.0300   27.6560 C   0  0  0  0  0  0  0  0  0  0  0  0
    5.7740   -4.8980   23.3820 C   0  0  0  0  0  0  0  0  0  0  0  0
    6.4420   -5.3350   22.2500 C   0  0  0  0  0  0  0  0  0  0  0  0
  1  2  1  0
  2  3  2  0
  2  4  1  0
  4  5  1  0
  5  6  1  0
  6  7  1  0
  7  8  1  0
  8  9  2  0
  8 10  1  0
 10 11  1  0
 11 12  1  1
 12 13  1  0
 13 14  1  0
 14 15  2  0
 15 16  1  0
 16 17  2  0
 17 18  1  0
 14 19  1  0
 18 19  2  0
 11 20  1  0
 20 21  2  0
 21 22  1  0
 22 23  2  0
 23 24  1  0
 24 25  1  0
 20 26  1  0
 24 26  2  0
  7 27  1  0
  4 28  1  0
 27 28  1  0
M  END
