piperidine-amides-5369-covalent
     RDKit          3D

 21 22  0  0  0  0  0  0  0  0999 V2000
    7.2190   -4.0110   19.6640 C   0  0  0  0  0  0  0  0  0  0  0  0
    6.0410   -3.9750   20.3870 C   0  0  0  0  0  0  0  0  0  0  0  0
    5.0150   -4.1200   19.7140 O   0  0  0  0  0  0  0  0  0  0  0  0
    6.1460   -3.9220   21.7720 N   0  0  0  0  0  0  0  0  0  0  0  0
    6.0160   -5.1910   22.4690 C   0  0  0  0  0  0  0  0  0  0  0  0
    5.8560   -4.8670   23.9210 C   0  0  0  0  0  0  0  0  0  0  0  0
    5.8570   -3.3890   24.1270 C   0  0  0  0  0  0  0  0  0  0  0  0
    5.5620   -2.9980   25.5140 C   0  0  0  0  0  0  0  0  0  0  0  0
    4.7300   -2.0740   25.7440 O   0  0  0  0  0  0  0  0  0  0  0  0
    6.1440   -3.6250   26.6320 N   0  0  0  0  0  0  0  0  0  0  0  0
    5.7450   -5.0160   26.9290 C   0  0  0  0  0  0  0  0  0  0  0  0
    6.2040   -5.3950   28.2760 C   0  0  0  0  0  0  0  0  0  0  0  0
    5.1340   -5.7360   29.0300 N   0  0  0  0  0  0  0  0  0  0  0  0
    4.0910   -4.8480   29.4280 C   0  0  0  0  0  0  0  0  0  0  0  0
    4.1570   -3.6130   29.5460 O   0  0  0  0  0  0  0  0  0  0  0  0
    2.8640   -5.6910   29.6960 C   0  0  0  0  0  0  0  0  0  0  0  0
    2.6740   -6.0210   31.1530 C   0  0  0  0  0  0  0  0  0  0  0  0
    1.5410   -5.1620   31.1550 C   0  0  0  0  0  0  0  0  0  0  0  0
    1.5720   -4.7820   29.8360 C   0  0  0  0  0  0  0  0  0  0  0  0
    7.1540   -2.8000   23.6670 C   0  0  0  0  0  0  0  0  0  0  0  0
    7.3080   -3.1500   22.2080 C   0  0  0  0  0  0  0  0  0  0  0  0
  1  2  1  0
  2  3  2  0
  2  4  1  0
  4  5  1  0
  5  6  1  0
  6  7  1  0
  7  8  1  0
  8  9  2  0
  8 10  1  0
 10 11  1  0
 11 12  1  0
 12 13  1  0
 13 14  1  0
 14 15  2  0
 14 16  1  0
 16 17  1  0
 17 18  1  0
 16 19  1  0
 18 19  1  0
  7 20  1  0
  4 21  1  0
 20 21  1  0
M  END
