piperidine-amides-6340-covalent
     RDKit          3D

 25 26  0  0  0  0  0  0  0  0999 V2000
    7.1010   -3.2330   19.1920 C   0  0  0  0  0  0  0  0  0  0  0  0
    6.3300   -3.9880   20.1970 C   0  0  0  0  0  0  0  0  0  0  0  0
    5.2740   -4.5720   19.8810 O   0  0  0  0  0  0  0  0  0  0  0  0
    6.7850   -4.1030   21.5140 N   0  0  0  0  0  0  0  0  0  0  0  0
    6.5720   -5.3640   22.1860 C   0  0  0  0  0  0  0  0  0  0  0  0
    6.1830   -5.0720   23.6430 C   0  0  0  0  0  0  0  0  0  0  0  0
    6.0430   -3.5730   23.8170 C   0  0  0  0  0  0  0  0  0  0  0  0
    5.6060   -3.2330   25.1870 C   0  0  0  0  0  0  0  0  0  0  0  0
    4.4380   -2.8300   25.3680 O   0  0  0  0  0  0  0  0  0  0  0  0
    6.5330   -3.3750   26.2400 N   0  0  0  0  0  0  0  0  0  0  0  0
    6.1380   -3.5890   27.6020 C   0  0  0  0  0  0  0  0  0  0  0  0
    5.8600   -5.0630   27.9360 C   0  0  1  0  0  0  0  0  0  0  0  0
    6.6640   -5.5970   28.9070 C   0  0  0  0  0  0  0  0  0  0  0  0
    4.5130   -4.8650   28.6290 C   0  0  0  0  0  0  0  0  0  0  0  0
    3.7880   -5.9700   29.0950 C   0  0  0  0  0  0  0  0  0  0  0  0
    2.6500   -6.3580   28.5270 C   0  0  0  0  0  0  0  0  0  0  0  0
    1.7100   -7.4750   28.8340 C   0  0  0  0  0  0  0  0  0  0  0  0
    2.5030   -8.0340   30.0470 C   0  0  0  0  0  0  0  0  0  0  0  0
    3.7940   -7.7570   30.8570 C   0  0  0  0  0  0  0  0  0  0  0  0
    4.3230   -6.5920   30.1540 C   0  0  0  0  0  0  0  0  0  0  0  0
    5.7720   -5.9450   26.8770 C   0  0  1  0  0  0  0  0  0  0  0  0
    4.7070   -6.7960   26.8810 C   0  0  0  0  0  0  0  0  0  0  0  0
    5.7330   -5.3180   25.8130 O   0  0  0  0  0  0  0  0  0  0  0  0
    7.3570   -2.8820   23.5260 C   0  0  0  0  0  0  0  0  0  0  0  0
    7.6490   -3.0860   22.0660 C   0  0  0  0  0  0  0  0  0  0  0  0
  1  2  1  0
  2  3  2  0
  2  4  1  0
  4  5  1  0
  5  6  1  0
  6  7  1  0
  7  8  1  0
  8  9  2  0
  8 10  1  0
 10 11  1  0
 12 11  1  0
 12 13  1  1
 12 14  1  0
 14 15  1  0
 15 16  2  0
 16 17  1  0
 17 18  2  0
 18 19  1  0
 15 20  1  0
 19 20  2  0
 12 21  1  0
 21 22  1  1
 21 23  1  0
  7 24  1  0
  4 25  1  0
 24 25  1  0
M  END
