piperidine-amides-9850-covalent
     RDKit          3D

 27 29  0  0  0  0  0  0  0  0999 V2000
    7.1050   -3.2700   19.2050 C   0  0  0  0  0  0  0  0  0  0  0  0
    6.3570   -4.0100   20.2300 C   0  0  0  0  0  0  0  0  0  0  0  0
    5.2710   -4.5320   19.8730 O   0  0  0  0  0  0  0  0  0  0  0  0
    6.8700   -4.1560   21.5210 N   0  0  0  0  0  0  0  0  0  0  0  0
    7.7600   -3.1730   22.0870 C   0  0  0  0  0  0  0  0  0  0  0  0
    7.1200   -2.6030   23.3120 C   0  0  0  0  0  0  0  0  0  0  0  0
    6.5490   -3.6720   24.2010 C   0  0  0  0  0  0  0  0  0  0  0  0
    5.6160   -3.0310   25.1550 C   0  0  0  0  0  0  0  0  0  0  0  0
    4.3980   -3.3200   25.0880 O   0  0  0  0  0  0  0  0  0  0  0  0
    6.0290   -2.1100   26.1390 N   0  0  0  0  0  0  0  0  0  0  0  0
    6.1730   -2.5630   27.4860 C   0  0  0  0  0  0  0  0  0  0  0  0
    6.6390   -3.9830   27.4560 C   0  0  0  0  0  0  0  0  0  0  0  0
    6.0600   -4.9570   28.0010 O   0  0  0  0  0  0  0  0  0  0  0  0
    7.8660   -3.9530   26.6810 N   0  0  0  0  0  0  0  0  0  0  0  0
    8.8380   -4.4250   27.3460 C   0  0  0  0  0  0  0  0  0  0  0  0
    9.8430   -4.0090   27.9740 C   0  0  0  0  0  0  0  0  0  0  0  0
   10.9950   -4.6630   28.7870 C   0  0  0  0  0  0  0  0  0  0  0  0
   11.8420   -5.8970   29.4650 C   0  0  0  0  0  0  0  0  0  0  0  0
   13.2830   -8.0000   30.6190 N   0  0  0  0  0  0  0  0  0  0  0  0
   12.5760   -9.6710   31.0710 C   0  0  0  0  0  0  0  0  0  0  0  0
   12.9480  -10.6210   31.6840 N   0  0  0  0  0  0  0  0  0  0  0  0
   13.9240  -10.1590   31.8250 C   0  0  0  0  0  0  0  0  0  0  0  0
   14.2730   -8.7870   31.1800 N   0  0  0  0  0  0  0  0  0  0  0  0
   10.2230   -5.8630   28.3960 C   0  0  0  0  0  0  0  0  0  0  0  0
    9.1110   -5.4530   27.6230 C   0  0  0  0  0  0  0  0  0  0  0  0
    5.7820   -4.7220   23.4310 C   0  0  0  0  0  0  0  0  0  0  0  0
    6.4900   -5.2710   22.3830 C   0  0  0  0  0  0  0  0  0  0  0  0
  1  2  1  0
  2  3  2  0
  2  4  1  0
  4  5  1  0
  5  6  1  0
  6  7  1  0
  7  8  1  0
  8  9  2  0
  8 10  1  0
 10 11  1  0
 11 12  1  0
 12 13  2  0
 12 14  1  0
 14 15  1  0
 15 16  2  0
 16 17  1  0
 17 18  2  0
 18 19  1  0
 19 20  1  0
 20 21  2  0
 21 22  1  0
 19 23  1  0
 22 23  2  0
 18 24  1  0
 15 25  1  0
 24 25  2  0
  7 26  1  0
  4 27  1  0
 26 27  1  0
M  END
