piperidine-amides-526-covalent
     RDKit          3D

 27 29  0  0  0  0  0  0  0  0999 V2000
    7.1000   -3.3940   19.3300 C   0  0  0  0  0  0  0  0  0  0  0  0
    6.3740   -4.1220   20.3480 C   0  0  0  0  0  0  0  0  0  0  0  0
    5.3410   -4.7560   19.9650 O   0  0  0  0  0  0  0  0  0  0  0  0
    6.7900   -4.1990   21.7000 N   0  0  0  0  0  0  0  0  0  0  0  0
    7.8130   -3.1840   22.1260 C   0  0  0  0  0  0  0  0  0  0  0  0
    7.7060   -3.1870   23.6960 C   0  0  0  0  0  0  0  0  0  0  0  0
    6.3130   -3.6640   23.9320 C   0  0  0  0  0  0  0  0  0  0  0  0
    5.6030   -2.9410   25.1550 C   0  0  0  0  0  0  0  0  0  0  0  0
    5.0570   -1.9360   24.7380 O   0  0  0  0  0  0  0  0  0  0  0  0
    5.7300   -3.5460   26.2660 N   0  0  0  0  0  0  0  0  0  0  0  0
    5.6580   -4.0320   27.5390 C   0  0  0  0  0  0  0  0  0  0  0  0
    4.9200   -3.7880   28.6760 C   0  0  0  0  0  0  0  0  0  0  0  0
    4.6360   -4.7570   29.7020 C   0  0  0  0  0  0  0  0  0  0  0  0
    3.5380   -4.5930   30.6970 C   0  0  0  0  0  0  0  0  0  0  0  0
    3.3990   -5.7430   31.7180 C   0  0  0  0  0  0  0  0  0  0  0  0
    4.2640   -6.8390   31.6720 C   0  0  0  0  0  0  0  0  0  0  0  0
    3.8520   -7.9770   32.9650 Cl  0  0  0  0  0  0  0  0  0  0  0  0
    5.3350   -7.2020   30.8530 C   0  0  0  0  0  0  0  0  0  0  0  0
    5.4050   -6.0300   29.8840 C   0  0  0  0  0  0  0  0  0  0  0  0
    6.6860   -6.2480   28.7340 Cl  0  0  0  0  0  0  0  0  0  0  0  0
    3.4430   -3.7940   28.3290 C   0  0  0  0  0  0  0  0  0  0  0  0
    2.8570   -2.5670   28.5310 C   0  0  0  0  0  0  0  0  0  0  0  0
    3.2070   -1.9320   29.5570 O   0  0  0  0  0  0  0  0  0  0  0  0
    4.4740   -2.1060   30.1460 C   0  0  0  0  0  0  0  0  0  0  0  0
    5.4510   -2.5240   29.2950 C   0  0  0  0  0  0  0  0  0  0  0  0
    6.0870   -5.1070   23.7090 C   0  0  0  0  0  0  0  0  0  0  0  0
    6.6130   -5.4260   22.4530 C   0  0  0  0  0  0  0  0  0  0  0  0
  1  2  1  0
  2  3  2  0
  2  4  1  0
  4  5  1  0
  5  6  1  0
  6  7  1  0
  7  8  1  0
  8  9  2  0
  8 10  1  0
 10 11  1  0
 12 11  1  0
 12 13  1  0
 13 14  2  0
 14 15  1  0
 15 16  2  0
 16 17  1  0
 16 18  1  0
 13 19  1  0
 18 19  2  0
 19 20  1  0
 12 21  1  0
 21 22  1  0
 22 23  1  0
 23 24  1  0
 12 25  1  0
 24 25  1  0
  7 26  1  0
  4 27  1  0
 26 27  1  0
M  END
