piperidine-amides-3497-covalent
     RDKit          3D

 21 22  0  0  0  0  0  0  0  0999 V2000
    7.1100   -4.0420   19.7530 C   0  0  0  0  0  0  0  0  0  0  0  0
    5.8250   -3.8660   20.2620 C   0  0  0  0  0  0  0  0  0  0  0  0
    4.9000   -3.8760   19.4770 O   0  0  0  0  0  0  0  0  0  0  0  0
    5.6920   -3.7920   21.6610 N   0  0  0  0  0  0  0  0  0  0  0  0
    5.6640   -5.0730   22.3350 C   0  0  0  0  0  0  0  0  0  0  0  0
    5.3340   -4.9050   23.7830 C   0  0  0  0  0  0  0  0  0  0  0  0
    6.3850   -4.0120   24.4180 C   0  0  0  0  0  0  0  0  0  0  0  0
    5.7590   -3.3220   25.5770 C   0  0  0  0  0  0  0  0  0  0  0  0
    4.5910   -2.8880   25.5360 O   0  0  0  0  0  0  0  0  0  0  0  0
    6.5110   -3.1650   26.7660 N   0  0  0  0  0  0  0  0  0  0  0  0
    7.4700   -4.1750   27.1360 C   0  0  1  0  0  0  0  0  0  0  0  0
    6.8230   -5.5340   27.0570 C   0  0  0  0  0  0  0  0  0  0  0  0
    8.6340   -4.0880   26.2180 C   0  0  0  0  0  0  0  0  0  0  0  0
    9.7910   -4.6830   26.7000 C   0  0  0  0  0  0  0  0  0  0  0  0
   10.9720   -4.4330   26.0540 C   0  0  0  0  0  0  0  0  0  0  0  0
   11.1460   -3.3010   25.2070 N   0  0  0  0  0  0  0  0  0  0  0  0
   12.4730   -2.8360   24.8980 C   0  0  0  0  0  0  0  0  0  0  0  0
    9.9380   -2.7910   24.6390 C   0  0  0  0  0  0  0  0  0  0  0  0
    8.8640   -2.9130   25.5010 C   0  0  0  0  0  0  0  0  0  0  0  0
    7.0820   -3.0640   23.5050 C   0  0  0  0  0  0  0  0  0  0  0  0
    6.4420   -2.7500   22.2420 C   0  0  0  0  0  0  0  0  0  0  0  0
  1  2  1  0
  2  3  2  0
  2  4  1  0
  4  5  1  0
  5  6  1  0
  6  7  1  0
  7  8  1  0
  8  9  2  0
  8 10  1  0
 10 11  1  0
 11 12  1  6
 11 13  1  0
 13 14  1  0
 14 15  1  0
 15 16  1  0
 16 17  1  0
 16 18  1  0
 13 19  1  0
 18 19  1  0
  7 20  1  0
  4 21  1  0
 20 21  1  0
M  END
