piperidine-amides-8903-covalent
     RDKit          3D

 22 23  0  0  0  0  0  0  0  0999 V2000
    7.0270   -3.3680   19.3750 C   0  0  0  0  0  0  0  0  0  0  0  0
    6.3880   -4.2570   20.3430 C   0  0  0  0  0  0  0  0  0  0  0  0
    5.3680   -4.8700   19.9800 O   0  0  0  0  0  0  0  0  0  0  0  0
    6.9560   -4.4390   21.6330 N   0  0  0  0  0  0  0  0  0  0  0  0
    7.6440   -3.3420   22.2470 C   0  0  0  0  0  0  0  0  0  0  0  0
    6.7400   -2.7570   23.2760 C   0  0  0  0  0  0  0  0  0  0  0  0
    6.4470   -3.8980   24.2110 C   0  0  0  0  0  0  0  0  0  0  0  0
    5.4770   -3.4810   25.2910 C   0  0  0  0  0  0  0  0  0  0  0  0
    4.2890   -3.6600   25.0410 O   0  0  0  0  0  0  0  0  0  0  0  0
    5.9480   -2.9210   26.4800 N   0  0  0  0  0  0  0  0  0  0  0  0
    6.3350   -1.5550   26.5030 C   0  0  0  0  0  0  0  0  0  0  0  0
    7.0910   -1.1840   25.3840 C   0  0  0  0  0  0  0  0  0  0  0  0
    8.1820   -1.6580   25.0120 O   0  0  0  0  0  0  0  0  0  0  0  0
    6.3690   -0.1260   24.6380 N   0  0  0  0  0  0  0  0  0  0  0  0
    6.7480    1.2020   24.3460 C   0  0  0  0  0  0  0  0  0  0  0  0
    5.2140   -0.4570   23.8950 C   0  0  0  0  0  0  0  0  0  0  0  0
    5.2050   -0.6030   26.6680 C   0  0  0  0  0  0  0  0  0  0  0  0
    5.3500    0.2900   27.9030 C   0  0  0  0  0  0  0  0  0  0  0  0
    6.4130   -0.2840   28.7500 C   0  0  0  0  0  0  0  0  0  0  0  0
    7.0570   -1.3050   27.8470 C   0  0  0  0  0  0  0  0  0  0  0  0
    5.8780   -5.0880   23.5600 C   0  0  0  0  0  0  0  0  0  0  0  0
    6.6050   -5.5600   22.4780 C   0  0  0  0  0  0  0  0  0  0  0  0
  1  2  1  0
  2  3  2  0
  2  4  1  0
  4  5  1  0
  5  6  1  0
  6  7  1  0
  7  8  1  0
  8  9  2  0
  8 10  1  0
 10 11  1  0
 11 12  1  0
 12 13  2  0
 12 14  1  0
 14 15  1  0
 14 16  1  0
 11 17  1  0
 17 18  1  0
 18 19  1  0
 11 20  1  0
 19 20  1  0
  7 21  1  0
  4 22  1  0
 21 22  1  0
M  END
