piperidine-amides-3195-covalent
     RDKit          3D

 22 23  0  0  0  0  0  0  0  0999 V2000
    7.1000   -3.2820   19.2480 C   0  0  0  0  0  0  0  0  0  0  0  0
    6.3350   -4.0730   20.2070 C   0  0  0  0  0  0  0  0  0  0  0  0
    5.2610   -4.5690   19.8840 O   0  0  0  0  0  0  0  0  0  0  0  0
    6.8670   -4.3230   21.5090 N   0  0  0  0  0  0  0  0  0  0  0  0
    7.5840   -3.2540   22.1630 C   0  0  0  0  0  0  0  0  0  0  0  0
    7.1670   -3.1360   23.5990 C   0  0  0  0  0  0  0  0  0  0  0  0
    5.7320   -3.5630   23.7390 C   0  0  0  0  0  0  0  0  0  0  0  0
    5.1770   -3.1040   25.0440 C   0  0  0  0  0  0  0  0  0  0  0  0
    4.6260   -2.0010   25.1740 O   0  0  0  0  0  0  0  0  0  0  0  0
    5.2680   -3.9280   26.1810 N   0  0  0  0  0  0  0  0  0  0  0  0
    6.5250   -3.9690   26.8420 C   0  0  0  0  0  0  0  0  0  0  0  0
    6.6530   -5.3190   27.4880 C   0  0  2  0  0  0  0  0  0  0  0  0
    7.0850   -6.1900   26.5140 O   0  0  0  0  0  0  0  0  0  0  0  0
    8.1970   -6.0000   25.7360 C   0  0  0  0  0  0  0  0  0  0  0  0
    9.3870   -6.2860   26.4420 C   0  0  0  0  0  0  0  0  0  0  0  0
    5.1650   -5.6090   27.9210 C   0  0  2  0  0  0  0  0  0  0  0  0
    5.3490   -6.4020   29.1000 C   0  0  0  0  0  0  0  0  0  0  0  0
    4.6490   -7.5530   29.0220 C   0  0  0  0  0  0  0  0  0  0  0  0
    4.0550   -7.5320   27.7580 O   0  0  0  0  0  0  0  0  0  0  0  0
    4.4540   -6.3740   27.0080 C   0  0  0  0  0  0  0  0  0  0  0  0
    5.5360   -4.9950   23.4240 C   0  0  0  0  0  0  0  0  0  0  0  0
    6.3180   -5.4020   22.2590 C   0  0  0  0  0  0  0  0  0  0  0  0
  1  2  1  0
  2  3  2  0
  2  4  1  0
  4  5  1  0
  5  6  1  0
  6  7  1  0
  7  8  1  0
  8  9  2  0
  8 10  1  0
 10 11  1  0
 12 11  1  6
 12 13  1  0
 13 14  1  0
 14 15  1  0
 12 16  1  0
 16 17  1  1
 17 18  1  0
 18 19  1  0
 16 20  1  0
 19 20  1  0
  7 21  1  0
  4 22  1  0
 21 22  1  0
M  END
