piperidine-amides-4575-covalent
     RDKit          3D

 24 25  0  0  0  0  0  0  0  0999 V2000
    7.0320   -3.3470   19.2940 C   0  0  0  0  0  0  0  0  0  0  0  0
    6.3820   -4.1770   20.3350 C   0  0  0  0  0  0  0  0  0  0  0  0
    5.3660   -4.8080   19.9720 O   0  0  0  0  0  0  0  0  0  0  0  0
    6.9160   -4.2820   21.6360 N   0  0  0  0  0  0  0  0  0  0  0  0
    7.6740   -3.2140   22.2070 C   0  0  0  0  0  0  0  0  0  0  0  0
    7.2720   -2.9240   23.5730 C   0  0  0  0  0  0  0  0  0  0  0  0
    6.0400   -3.6320   23.9500 C   0  0  0  0  0  0  0  0  0  0  0  0
    5.6360   -3.2260   25.3170 C   0  0  0  0  0  0  0  0  0  0  0  0
    4.4240   -3.2130   25.5930 O   0  0  0  0  0  0  0  0  0  0  0  0
    6.5940   -2.8520   26.2680 N   0  0  0  0  0  0  0  0  0  0  0  0
    6.5000   -1.6080   27.0650 C   0  0  0  0  0  0  0  0  0  0  0  0
    5.8980   -0.3880   26.4940 C   0  0  0  0  0  0  0  0  0  0  0  0
    5.7870    0.8440   27.2440 C   0  0  0  0  0  0  0  0  0  0  0  0
    6.2550    0.9000   28.5400 C   0  0  0  0  0  0  0  0  0  0  0  0
    6.1740    1.9490   29.2120 O   0  0  0  0  0  0  0  0  0  0  0  0
    5.0180    2.1090   29.8000 C   0  0  0  0  0  0  0  0  0  0  0  0
    4.8590    1.2730   30.8580 F   0  0  0  0  0  0  0  0  0  0  0  0
    4.0050    1.9030   28.8830 F   0  0  0  0  0  0  0  0  0  0  0  0
    4.8750    3.4180   30.2490 F   0  0  0  0  0  0  0  0  0  0  0  0
    6.8730   -0.3260   29.1410 C   0  0  0  0  0  0  0  0  0  0  0  0
    7.4700   -0.2440   30.8030 Cl  0  0  0  0  0  0  0  0  0  0  0  0
    6.9930   -1.5100   28.4530 C   0  0  0  0  0  0  0  0  0  0  0  0
    6.0500   -5.1000   23.7140 C   0  0  0  0  0  0  0  0  0  0  0  0
    6.6170   -5.4320   22.4650 C   0  0  0  0  0  0  0  0  0  0  0  0
  1  2  1  0
  2  3  2  0
  2  4  1  0
  4  5  1  0
  5  6  1  0
  6  7  1  0
  7  8  1  0
  8  9  2  0
  8 10  1  0
 10 11  1  0
 11 12  2  0
 12 13  1  0
 13 14  2  0
 14 15  1  0
 15 16  1  0
 16 17  1  0
 16 18  1  0
 16 19  1  0
 14 20  1  0
 20 21  1  0
 11 22  1  0
 20 22  2  0
  7 23  1  0
  4 24  1  0
 23 24  1  0
M  END
