piperidine-amides-2167-covalent
     RDKit          3D

 32 35  0  0  0  0  0  0  0  0999 V2000
    7.0300   -3.3280   19.3710 C   0  0  0  0  0  0  0  0  0  0  0  0
    6.3740   -4.1880   20.3920 C   0  0  0  0  0  0  0  0  0  0  0  0
    5.4350   -4.8870   19.9970 O   0  0  0  0  0  0  0  0  0  0  0  0
    6.8400   -4.2070   21.7180 N   0  0  0  0  0  0  0  0  0  0  0  0
    7.7260   -3.1760   22.2160 C   0  0  0  0  0  0  0  0  0  0  0  0
    7.4290   -2.9200   23.6600 C   0  0  0  0  0  0  0  0  0  0  0  0
    6.0770   -3.5430   23.9690 C   0  0  0  0  0  0  0  0  0  0  0  0
    5.6380   -3.1020   25.3170 C   0  0  0  0  0  0  0  0  0  0  0  0
    4.4330   -2.9020   25.5200 O   0  0  0  0  0  0  0  0  0  0  0  0
    6.5570   -2.9030   26.3680 N   0  0  0  0  0  0  0  0  0  0  0  0
    6.4940   -1.7170   27.2050 C   0  0  0  0  0  0  0  0  0  0  0  0
    5.8740   -0.4840   26.6160 C   0  0  0  0  0  0  0  0  0  0  0  0
    5.7250    0.7160   27.2400 C   0  0  0  0  0  0  0  0  0  0  0  0
    6.1930    0.7710   28.5200 C   0  0  0  0  0  0  0  0  0  0  0  0
    6.0670    1.9630   29.2010 O   0  0  0  0  0  0  0  0  0  0  0  0
    4.7520    2.3230   29.3860 C   0  0  0  0  0  0  0  0  0  0  0  0
    6.8090   -0.3770   29.1730 C   0  0  0  0  0  0  0  0  0  0  0  0
    7.2670   -0.2790   30.4780 O   0  0  0  0  0  0  0  0  0  0  0  0
    6.8310    0.7290   31.3830 C   0  0  0  0  0  0  0  0  0  0  0  0
    6.7510    0.2040   32.7940 C   0  0  0  0  0  0  0  0  0  0  0  0
    8.0970    0.1290   33.4090 C   0  0  0  0  0  0  0  0  0  0  0  0
    8.1160   -0.3890   34.7850 C   0  0  0  0  0  0  0  0  0  0  0  0
    6.8040   -0.7810   35.4220 C   0  0  0  0  0  0  0  0  0  0  0  0
    6.7060   -1.3240   36.8160 C   0  0  0  0  0  0  0  0  0  0  0  0
    5.3690   -1.7070   37.4190 C   0  0  0  0  0  0  0  0  0  0  0  0
    4.2150   -1.5580   36.6830 C   0  0  0  0  0  0  0  0  0  0  0  0
    4.3190   -1.0150   35.2910 C   0  0  0  0  0  0  0  0  0  0  0  0
    5.6490   -0.6230   34.6610 C   0  0  0  0  0  0  0  0  0  0  0  0
    5.6460   -0.1410   33.3820 N   0  0  0  0  0  0  0  0  0  0  0  0
    6.9520   -1.5920   28.5180 C   0  0  0  0  0  0  0  0  0  0  0  0
    5.9610   -5.0380   23.7820 C   0  0  0  0  0  0  0  0  0  0  0  0
    6.6620   -5.4400   22.4650 C   0  0  0  0  0  0  0  0  0  0  0  0
  1  2  1  0
  2  3  2  0
  2  4  1  0
  4  5  1  0
  5  6  1  0
  6  7  1  0
  7  8  1  0
  8  9  2  0
  8 10  1  0
 10 11  1  0
 11 12  2  0
 12 13  1  0
 13 14  2  0
 14 15  1  0
 15 16  1  0
 14 17  1  0
 17 18  1  0
 18 19  1  0
 19 20  1  0
 20 21  2  0
 21 22  1  0
 22 23  2  0
 23 24  1  0
 24 25  2  0
 25 26  1  0
 26 27  2  0
 23 28  1  0
 27 28  1  0
 20 29  1  0
 28 29  2  0
 11 30  1  0
 17 30  2  0
  7 31  1  0
  4 32  1  0
 31 32  1  0
M  END
