piperidine-amides-24350-covalent
     RDKit          3D

 24 26  0  0  0  0  0  0  0  0999 V2000
    7.0170   -3.3540   19.4410 C   0  0  0  0  0  0  0  0  0  0  0  0
    6.3840   -4.2730   20.4030 C   0  0  0  0  0  0  0  0  0  0  0  0
    5.4250   -4.9780   20.0140 O   0  0  0  0  0  0  0  0  0  0  0  0
    6.8580   -4.4020   21.7350 N   0  0  0  0  0  0  0  0  0  0  0  0
    6.5240   -5.6110   22.4710 C   0  0  0  0  0  0  0  0  0  0  0  0
    6.1010   -5.2280   23.9160 C   0  0  0  0  0  0  0  0  0  0  0  0
    5.9060   -3.7290   23.9290 C   0  0  0  0  0  0  0  0  0  0  0  0
    5.2200   -3.1550   25.1380 C   0  0  0  0  0  0  0  0  0  0  0  0
    4.4210   -2.2360   24.8950 O   0  0  0  0  0  0  0  0  0  0  0  0
    5.3820   -3.5460   26.4980 N   0  0  0  0  0  0  0  0  0  0  0  0
    4.3020   -3.2370   27.4050 C   0  0  0  0  0  0  0  0  0  0  0  0
    4.6860   -3.3810   28.8830 C   0  0  0  0  0  0  0  0  0  0  0  0
    5.8420   -3.9810   29.2480 C   0  0  0  0  0  0  0  0  0  0  0  0
    6.5580   -4.4010   28.2140 C   0  0  1  0  0  0  0  0  0  0  0  0
    6.1440   -5.7460   27.9290 N   0  0  0  0  0  0  0  0  0  0  0  0
    5.1130   -6.0720   27.1010 C   0  0  0  0  0  0  0  0  0  0  0  0
    4.0650   -6.0570   28.0080 C   0  0  0  0  0  0  0  0  0  0  0  0
    3.3870   -7.2720   28.6530 C   0  0  0  0  0  0  0  0  0  0  0  0
    4.8740   -7.5830   28.8620 C   0  0  0  0  0  0  0  0  0  0  0  0
    5.9110   -6.5360   29.1160 C   0  0  0  0  0  0  0  0  0  0  0  0
    6.5370   -6.3310   30.2350 O   0  0  0  0  0  0  0  0  0  0  0  0
    6.5170   -3.3710   27.2790 C   0  0  0  0  0  0  0  0  0  0  0  0
    7.2260   -3.0790   23.6370 C   0  0  0  0  0  0  0  0  0  0  0  0
    7.5920   -3.3280   22.3440 C   0  0  0  0  0  0  0  0  0  0  0  0
  1  2  1  0
  2  3  2  0
  2  4  1  0
  4  5  1  0
  5  6  1  0
  6  7  1  0
  7  8  1  0
  8  9  2  0
  8 10  1  0
 10 11  1  0
 11 12  1  0
 12 13  1  0
 13 14  1  0
 14 15  1  6
 15 16  1  0
 16 17  1  0
 17 18  1  0
 18 19  1  0
 15 20  1  0
 19 20  1  0
 20 21  2  0
 10 22  1  0
 14 22  1  0
  7 23  1  0
  4 24  1  0
 23 24  1  0
M  END
