piperidine-amides-14274-covalent
     RDKit          3D

 24 25  0  0  0  0  0  0  0  0999 V2000
    7.1050   -3.2600   19.2410 C   0  0  0  0  0  0  0  0  0  0  0  0
    6.3340   -4.0410   20.2490 C   0  0  0  0  0  0  0  0  0  0  0  0
    5.2860   -4.6050   19.9020 O   0  0  0  0  0  0  0  0  0  0  0  0
    6.8370   -4.1630   21.5640 N   0  0  0  0  0  0  0  0  0  0  0  0
    7.6870   -3.1340   22.1280 C   0  0  0  0  0  0  0  0  0  0  0  0
    7.5830   -3.2330   23.6480 C   0  0  0  0  0  0  0  0  0  0  0  0
    6.2000   -3.6940   23.9390 C   0  0  0  0  0  0  0  0  0  0  0  0
    5.7060   -3.2040   25.2380 C   0  0  0  0  0  0  0  0  0  0  0  0
    4.4780   -3.1170   25.3630 O   0  0  0  0  0  0  0  0  0  0  0  0
    6.6050   -2.8600   26.2440 N   0  0  0  0  0  0  0  0  0  0  0  0
    6.3680   -2.8980   27.6360 C   0  0  0  0  0  0  0  0  0  0  0  0
    6.2840   -4.0350   28.4040 C   0  0  0  0  0  0  0  0  0  0  0  0
    5.2670   -4.1070   29.3620 C   0  0  0  0  0  0  0  0  0  0  0  0
    4.6300   -2.9790   29.8240 C   0  0  0  0  0  0  0  0  0  0  0  0
    3.5410   -2.9760   30.8380 C   0  0  0  0  0  0  0  0  0  0  0  0
    2.8130   -1.4550   31.3450 Cl  0  0  0  0  0  0  0  0  0  0  0  0
    3.0480   -4.2950   31.4520 C   0  0  0  0  0  0  0  0  0  0  0  0
    3.8460   -5.4510   30.8430 C   0  0  0  0  0  0  0  0  0  0  0  0
    4.8360   -5.2830   29.9020 C   0  0  0  0  0  0  0  0  0  0  0  0
    5.4490   -6.4250   29.4630 O   0  0  0  0  0  0  0  0  0  0  0  0
    4.8220   -7.2090   28.4900 C   0  0  0  0  0  0  0  0  0  0  0  0
    5.0110   -6.6860   27.0740 C   0  0  0  0  0  0  0  0  0  0  0  0
    6.1920   -5.1500   23.7440 C   0  0  0  0  0  0  0  0  0  0  0  0
    6.6310   -5.3950   22.2840 C   0  0  0  0  0  0  0  0  0  0  0  0
  1  2  1  0
  2  3  2  0
  2  4  1  0
  4  5  1  0
  5  6  1  0
  6  7  1  0
  7  8  1  0
  8  9  2  0
  8 10  1  0
 10 11  1  0
 11 12  1  0
 12 13  1  0
 13 14  2  0
 14 15  1  0
 15 16  1  0
 15 17  2  0
 17 18  1  0
 13 19  1  0
 18 19  2  0
 19 20  1  0
 20 21  1  0
 21 22  1  0
  7 23  1  0
  4 24  1  0
 23 24  1  0
M  END
