piperidine-amides-33753-covalent
     RDKit          3D

 30 32  0  0  0  0  0  0  0  0999 V2000
    7.1000   -3.3270   19.2460 C   0  0  0  0  0  0  0  0  0  0  0  0
    6.4080   -4.1380   20.2590 C   0  0  0  0  0  0  0  0  0  0  0  0
    5.3180   -4.6540   19.9240 O   0  0  0  0  0  0  0  0  0  0  0  0
    6.9830   -4.3780   21.5290 N   0  0  0  0  0  0  0  0  0  0  0  0
    7.6310   -3.2770   22.1390 C   0  0  0  0  0  0  0  0  0  0  0  0
    7.4500   -3.1500   23.5820 C   0  0  0  0  0  0  0  0  0  0  0  0
    6.4210   -3.9920   24.2500 C   0  0  0  0  0  0  0  0  0  0  0  0
    5.5710   -3.1530   25.1340 C   0  0  0  0  0  0  0  0  0  0  0  0
    4.6620   -2.4720   24.6280 O   0  0  0  0  0  0  0  0  0  0  0  0
    5.7450   -3.1050   26.5190 N   0  0  0  0  0  0  0  0  0  0  0  0
    6.0360   -1.8740   27.1600 C   0  0  0  0  0  0  0  0  0  0  0  0
    5.5070   -0.5480   26.8300 C   0  0  0  0  0  0  0  0  0  0  0  0
    5.7710    0.8220   27.5000 C   0  0  0  0  0  0  0  0  0  0  0  0
    6.6370    0.8550   28.5830 C   0  0  0  0  0  0  0  0  0  0  0  0
    7.2400   -0.4880   28.9860 C   0  0  0  0  0  0  0  0  0  0  0  0
    8.1150   -0.4340   30.0640 O   0  0  0  0  0  0  0  0  0  0  0  0
    7.4640    0.0820   31.1820 C   0  0  0  0  0  0  0  0  0  0  0  0
    7.0020   -1.8550   28.3460 C   0  0  0  0  0  0  0  0  0  0  0  0
    5.0450   -4.0050   27.3890 C   0  0  1  0  0  0  0  0  0  0  0  0
    5.4660   -5.4500   27.2000 C   0  0  0  0  0  0  0  0  0  0  0  0
    5.5240   -6.2780   28.4780 C   0  0  1  0  0  0  0  0  0  0  0  0
    6.8690   -6.0750   29.0450 C   0  0  0  0  0  0  0  0  0  0  0  0
    4.5210   -6.0110   29.3790 C   0  0  0  0  0  0  0  0  0  0  0  0
    4.0220   -4.7340   29.4950 C   0  0  0  0  0  0  0  0  0  0  0  0
    4.8170   -3.6920   28.7280 C   0  0  2  0  0  0  0  0  0  0  0  0
    4.3510   -2.4170   29.0350 C   0  0  0  0  0  0  0  0  0  0  0  0
    5.0340   -1.7450   30.2120 C   0  0  0  0  0  0  0  0  0  0  0  0
    3.0010   -2.3160   29.2810 C   0  0  0  0  0  0  0  0  0  0  0  0
    5.4750   -4.6900   23.2710 C   0  0  0  0  0  0  0  0  0  0  0  0
    6.4010   -5.4310   22.3110 C   0  0  0  0  0  0  0  0  0  0  0  0
  1  2  1  0
  2  3  2  0
  2  4  1  0
  4  5  1  0
  5  6  1  0
  6  7  1  0
  7  8  1  0
  8  9  2  0
  8 10  1  0
 10 11  1  0
 11 12  2  0
 12 13  1  0
 13 14  2  0
 14 15  1  0
 15 16  1  0
 16 17  1  0
 11 18  1  0
 15 18  2  0
 19 10  1  1
 19 20  1  0
 20 21  1  0
 21 22  1  1
 21 23  1  0
 23 24  1  0
 19 25  1  0
 24 25  1  0
 25 26  1  6
 26 27  1  0
 26 28  1  0
  7 29  1  0
  4 30  1  0
 29 30  1  0
M  END
