piperidine-amides-33012-covalent
     RDKit          3D

 27 29  0  0  0  0  0  0  0  0999 V2000
    7.0780   -3.3210   19.3080 C   0  0  0  0  0  0  0  0  0  0  0  0
    6.3820   -4.1800   20.3040 C   0  0  0  0  0  0  0  0  0  0  0  0
    5.3590   -4.7960   19.9630 O   0  0  0  0  0  0  0  0  0  0  0  0
    6.9290   -4.3100   21.5960 N   0  0  0  0  0  0  0  0  0  0  0  0
    7.7340   -3.2700   22.1860 C   0  0  0  0  0  0  0  0  0  0  0  0
    6.9450   -2.7280   23.3700 C   0  0  0  0  0  0  0  0  0  0  0  0
    6.5890   -3.8830   24.2470 C   0  0  0  0  0  0  0  0  0  0  0  0
    5.9210   -3.4090   25.4800 C   0  0  0  0  0  0  0  0  0  0  0  0
    4.6880   -3.2900   25.4180 O   0  0  0  0  0  0  0  0  0  0  0  0
    6.6650   -3.1110   26.6300 N   0  0  0  0  0  0  0  0  0  0  0  0
    7.4330   -4.0680   27.3480 C   0  0  0  0  0  0  0  0  0  0  0  0
    8.1320   -5.0720   26.7240 C   0  0  0  0  0  0  0  0  0  0  0  0
    9.1520   -5.8780   27.2200 C   0  0  0  0  0  0  0  0  0  0  0  0
    6.5700   -1.8800   27.3000 C   0  0  0  0  0  0  0  0  0  0  0  0
    5.9890   -0.7590   26.8180 N   0  0  0  0  0  0  0  0  0  0  0  0
    5.9460    0.3700   27.5410 C   0  0  0  0  0  0  0  0  0  0  0  0
    5.3350    1.7250   27.1490 C   0  0  0  0  0  0  0  0  0  0  0  0
    4.4820    1.6650   25.9210 C   0  0  0  0  0  0  0  0  0  0  0  0
    3.8820    2.8270   25.4720 C   0  0  0  0  0  0  0  0  0  0  0  0
    4.0000    4.1990   26.1110 C   0  0  0  0  0  0  0  0  0  0  0  0
    3.2240    5.6440   25.5070 Cl  0  0  0  0  0  0  0  0  0  0  0  0
    4.9110    4.0830   27.3610 C   0  0  0  0  0  0  0  0  0  0  0  0
    5.5320    2.9650   27.8550 C   0  0  0  0  0  0  0  0  0  0  0  0
    6.5730    0.2480   28.8550 C   0  0  0  0  0  0  0  0  0  0  0  0
    7.1280   -1.3730   28.9130 S   0  0  0  0  0  0  0  0  0  0  0  0
    5.7600   -4.9430   23.5770 C   0  0  0  0  0  0  0  0  0  0  0  0
    6.6190   -5.4540   22.4170 C   0  0  0  0  0  0  0  0  0  0  0  0
  1  2  1  0
  2  3  2  0
  2  4  1  0
  4  5  1  0
  5  6  1  0
  6  7  1  0
  7  8  1  0
  8  9  2  0
  8 10  1  0
 10 11  1  0
 11 12  1  0
 12 13  2  3
 10 14  1  0
 14 15  2  0
 15 16  1  0
 16 17  1  0
 17 18  2  0
 18 19  1  0
 19 20  2  0
 20 21  1  0
 20 22  1  0
 17 23  1  0
 22 23  2  0
 16 24  2  0
 14 25  1  0
 24 25  1  0
  7 26  1  0
  4 27  1  0
 26 27  1  0
M  END
