piperidine-amides-14399-covalent
     RDKit          3D

 23 25  0  0  0  0  0  0  0  0999 V2000
    7.0650   -3.3470   19.2960 C   0  0  0  0  0  0  0  0  0  0  0  0
    6.4160   -4.1960   20.2920 C   0  0  0  0  0  0  0  0  0  0  0  0
    5.3690   -4.7810   19.9680 O   0  0  0  0  0  0  0  0  0  0  0  0
    7.0150   -4.3790   21.5650 N   0  0  0  0  0  0  0  0  0  0  0  0
    7.6550   -3.2560   22.1770 C   0  0  0  0  0  0  0  0  0  0  0  0
    6.7420   -2.7130   23.2280 C   0  0  0  0  0  0  0  0  0  0  0  0
    6.5960   -3.7980   24.2700 C   0  0  0  0  0  0  0  0  0  0  0  0
    5.7670   -3.2860   25.4070 C   0  0  0  0  0  0  0  0  0  0  0  0
    4.5560   -3.2160   25.2040 O   0  0  0  0  0  0  0  0  0  0  0  0
    6.3980   -2.9330   26.5900 N   0  0  0  0  0  0  0  0  0  0  0  0
    6.6570   -1.5740   26.9470 C   0  0  0  0  0  0  0  0  0  0  0  0
    5.5730   -0.6710   26.8770 C   0  0  0  0  0  0  0  0  0  0  0  0
    5.7120    0.5750   27.4460 C   0  0  0  0  0  0  0  0  0  0  0  0
    5.8700    0.6580   28.8060 C   0  0  0  0  0  0  0  0  0  0  0  0
    6.4640    2.0330   28.8580 C   0  0  0  0  0  0  0  0  0  0  0  0
    6.7370    2.5880   30.2790 C   0  0  0  0  0  0  0  0  0  0  0  0
    6.0120    1.8970   31.0460 O   0  0  0  0  0  0  0  0  0  0  0  0
    4.7720    1.5960   30.5480 C   0  0  0  0  0  0  0  0  0  0  0  0
    4.6650    0.4920   29.5340 C   0  0  0  0  0  0  0  0  0  0  0  0
    6.6710   -0.3930   29.2430 C   0  0  0  0  0  0  0  0  0  0  0  0
    6.6790   -1.5370   28.4670 C   0  0  0  0  0  0  0  0  0  0  0  0
    5.8860   -4.9560   23.6320 C   0  0  0  0  0  0  0  0  0  0  0  0
    6.4900   -5.4650   22.3520 C   0  0  0  0  0  0  0  0  0  0  0  0
  1  2  1  0
  2  3  2  0
  2  4  1  0
  4  5  1  0
  5  6  1  0
  6  7  1  0
  7  8  1  0
  8  9  2  0
  8 10  1  0
 10 11  1  0
 11 12  1  0
 12 13  1  0
 14 13  1  0
 14 15  1  0
 15 16  1  0
 16 17  1  0
 17 18  1  0
 14 19  1  0
 18 19  1  0
 14 20  1  0
 11 21  1  0
 20 21  1  0
  7 22  1  0
  4 23  1  0
 22 23  1  0
M  END
