piperidine-amides-29008-covalent
     RDKit          3D

 25 26  0  0  0  0  0  0  0  0999 V2000
    7.1120   -3.2890   19.2310 C   0  0  0  0  0  0  0  0  0  0  0  0
    6.3990   -4.0730   20.2380 C   0  0  0  0  0  0  0  0  0  0  0  0
    5.3220   -4.5940   19.9080 O   0  0  0  0  0  0  0  0  0  0  0  0
    6.9620   -4.2800   21.5280 N   0  0  0  0  0  0  0  0  0  0  0  0
    6.4500   -5.3640   22.2990 C   0  0  0  0  0  0  0  0  0  0  0  0
    5.5680   -4.7790   23.3600 C   0  0  0  0  0  0  0  0  0  0  0  0
    6.4370   -3.8920   24.2330 C   0  0  0  0  0  0  0  0  0  0  0  0
    5.5960   -3.3600   25.3580 C   0  0  0  0  0  0  0  0  0  0  0  0
    4.4900   -2.9460   25.0300 O   0  0  0  0  0  0  0  0  0  0  0  0
    6.0870   -3.3680   26.6690 N   0  0  0  0  0  0  0  0  0  0  0  0
    6.1320   -4.5530   27.4750 C   0  0  0  0  0  0  0  0  0  0  0  0
    5.0760   -4.8200   28.3240 C   0  0  0  0  0  0  0  0  0  0  0  0
    4.7330   -6.2310   28.0380 N   0  0  0  0  0  0  0  0  0  0  0  0
    3.7860   -6.7350   27.1170 C   0  0  0  0  0  0  0  0  0  0  0  0
    3.9650   -6.9830   25.7660 C   0  0  0  0  0  0  0  0  0  0  0  0
    2.5350   -7.0080   27.6180 O   0  0  0  0  0  0  0  0  0  0  0  0
    6.5790   -2.0080   27.2180 C   0  0  0  0  0  0  0  0  0  0  0  0
    5.2920   -1.1650   27.3320 C   0  0  0  0  0  0  0  0  0  0  0  0
    4.6340   -0.7470   26.1110 C   0  0  0  0  0  0  0  0  0  0  0  0
    3.4250    0.0500   26.4450 C   0  0  0  0  0  0  0  0  0  0  0  0
    3.2040    0.2170   27.9970 C   0  0  0  0  0  0  0  0  0  0  0  0
    2.1390    0.9240   28.5020 C   0  0  0  0  0  0  0  0  0  0  0  0
    4.5670   -0.6700   28.8210 S   0  0  0  0  0  0  0  0  0  0  0  0
    6.9060   -2.7330   23.4010 C   0  0  0  0  0  0  0  0  0  0  0  0
    7.6210   -3.1510   22.1450 C   0  0  0  0  0  0  0  0  0  0  0  0
  1  2  1  0
  2  3  2  0
  2  4  1  0
  4  5  1  0
  5  6  1  0
  6  7  1  0
  7  8  1  0
  8  9  2  0
  8 10  1  0
 10 11  1  0
 11 12  1  0
 12 13  1  0
 13 14  1  0
 14 15  1  0
 14 16  2  0
 10 17  1  0
 17 18  1  0
 18 19  2  0
 19 20  1  0
 20 21  2  0
 21 22  1  0
 18 23  1  0
 21 23  1  0
  7 24  1  0
  4 25  1  0
 24 25  1  0
M  END
