piperidine-amides-25918-covalent
     RDKit          3D

 25 28  0  0  0  0  0  0  0  0999 V2000
    7.0600   -3.3520   19.3650 C   0  0  0  0  0  0  0  0  0  0  0  0
    6.3920   -4.2260   20.3280 C   0  0  0  0  0  0  0  0  0  0  0  0
    5.3500   -4.8020   19.9720 O   0  0  0  0  0  0  0  0  0  0  0  0
    6.9150   -4.5010   21.6090 N   0  0  0  0  0  0  0  0  0  0  0  0
    6.6200   -5.7140   22.3050 C   0  0  0  0  0  0  0  0  0  0  0  0
    5.8500   -5.2610   23.5110 C   0  0  0  0  0  0  0  0  0  0  0  0
    6.4680   -4.0690   24.1930 C   0  0  0  0  0  0  0  0  0  0  0  0
    5.5850   -3.5970   25.2980 C   0  0  0  0  0  0  0  0  0  0  0  0
    4.7680   -2.6460   25.1220 O   0  0  0  0  0  0  0  0  0  0  0  0
    5.6140   -4.1870   26.5780 N   0  0  0  0  0  0  0  0  0  0  0  0
    6.9320   -4.4510   27.0420 C   0  0  0  0  0  0  0  0  0  0  0  0
    6.9650   -5.4960   28.0470 C   0  0  0  0  0  0  0  0  0  0  0  0
    6.1560   -5.0960   29.1850 C   0  0  0  0  0  0  0  0  0  0  0  0
    4.7470   -4.7840   28.7490 C   0  0  1  0  0  0  0  0  0  0  0  0
    3.8920   -4.3190   29.9140 C   0  0  0  0  0  0  0  0  0  0  0  0
    2.9420   -5.2530   30.5410 N   0  0  0  0  0  0  0  0  0  0  0  0
    2.3800   -4.5190   31.5060 N   0  0  0  0  0  0  0  0  0  0  0  0
    2.9090   -3.2920   31.4810 C   0  0  0  0  0  0  0  0  0  0  0  0
    2.4270   -2.4210   32.4230 C   0  0  0  0  0  0  0  0  0  0  0  0
    2.6400   -1.1330   32.3490 C   0  0  0  0  0  0  0  0  0  0  0  0
    3.3870   -1.4950   33.4780 C   0  0  0  0  0  0  0  0  0  0  0  0
    3.8260   -3.1480   30.5250 N   0  0  0  0  0  0  0  0  0  0  0  0
    4.7840   -3.6970   27.6840 C   0  0  0  0  0  0  0  0  0  0  0  0
    6.7740   -2.9690   23.1490 C   0  0  0  0  0  0  0  0  0  0  0  0
    7.5650   -3.4170   22.3500 C   0  0  0  0  0  0  0  0  0  0  0  0
  1  2  1  0
  2  3  2  0
  2  4  1  0
  4  5  1  0
  5  6  1  0
  6  7  1  0
  7  8  1  0
  8  9  2  0
  8 10  1  0
 10 11  1  0
 11 12  1  0
 12 13  1  0
 13 14  1  0
 14 15  1  1
 15 16  2  0
 16 17  1  0
 17 18  1  0
 18 19  1  0
 19 20  1  0
 19 21  1  0
 20 21  1  0
 15 22  1  0
 18 22  2  0
 10 23  1  0
 14 23  1  0
  7 24  1  0
  4 25  1  0
 24 25  1  0
M  END
