piperidine-amides-35062-covalent
     RDKit          3D

 32 35  0  0  0  0  0  0  0  0999 V2000
    7.0400   -3.3760   19.4250 C   0  0  0  0  0  0  0  0  0  0  0  0
    6.3570   -4.2280   20.4320 C   0  0  0  0  0  0  0  0  0  0  0  0
    5.4180   -4.9060   20.0060 O   0  0  0  0  0  0  0  0  0  0  0  0
    6.8000   -4.2790   21.7750 N   0  0  0  0  0  0  0  0  0  0  0  0
    6.7500   -5.5270   22.5050 C   0  0  0  0  0  0  0  0  0  0  0  0
    6.3450   -5.2940   23.9360 C   0  0  0  0  0  0  0  0  0  0  0  0
    6.2040   -3.7980   24.1990 C   0  0  0  0  0  0  0  0  0  0  0  0
    5.4500   -3.5650   25.4870 C   0  0  0  0  0  0  0  0  0  0  0  0
    4.2310   -3.6760   25.3370 O   0  0  0  0  0  0  0  0  0  0  0  0
    5.8840   -3.1870   26.8250 N   0  0  0  0  0  0  0  0  0  0  0  0
    6.5680   -4.0500   27.7760 C   0  0  0  0  0  0  0  0  0  0  0  0
    6.8820   -5.1300   28.8260 C   0  0  0  0  0  0  0  0  0  0  0  0
    6.2230   -6.0860   29.5020 C   0  0  0  0  0  0  0  0  0  0  0  0
    5.1310   -5.6400   28.8340 N   0  0  0  0  0  0  0  0  0  0  0  0
    5.3470   -4.6570   28.0200 N   0  0  0  0  0  0  0  0  0  0  0  0
    4.1650   -4.3540   27.4940 C   0  0  1  0  0  0  0  0  0  0  0  0
    2.9780   -4.1580   28.1850 C   0  0  0  0  0  0  0  0  0  0  0  0
    2.3470   -3.0350   27.6560 F   0  0  0  0  0  0  0  0  0  0  0  0
    3.1860   -3.9840   29.5450 F   0  0  0  0  0  0  0  0  0  0  0  0
    2.1790   -5.2640   28.0310 F   0  0  0  0  0  0  0  0  0  0  0  0
    4.0380   -3.0560   28.0740 C   0  0  0  0  0  0  0  0  0  0  0  0
    5.1120   -2.2080   27.4920 C   0  0  1  0  0  0  0  0  0  0  0  0
    5.4550   -1.5040   28.7860 C   0  0  0  0  0  0  0  0  0  0  0  0
    6.9320   -1.4900   28.9480 C   0  0  0  0  0  0  0  0  0  0  0  0
    7.4040   -0.8310   30.1750 C   0  0  0  0  0  0  0  0  0  0  0  0
    6.3730   -0.2520   31.1170 C   0  0  0  0  0  0  0  0  0  0  0  0
    6.7350    0.3860   32.2980 O   0  0  0  0  0  0  0  0  0  0  0  0
    8.0460    0.2920   32.6680 C   0  0  0  0  0  0  0  0  0  0  0  0
    4.9940   -0.3180   30.8700 C   0  0  0  0  0  0  0  0  0  0  0  0
    4.5650   -0.9480   29.7000 C   0  0  0  0  0  0  0  0  0  0  0  0
    7.4830   -3.1040   23.8520 C   0  0  0  0  0  0  0  0  0  0  0  0
    7.6840   -3.2110   22.3210 C   0  0  0  0  0  0  0  0  0  0  0  0
  1  2  1  0
  2  3  2  0
  2  4  1  0
  4  5  1  0
  5  6  1  0
  6  7  1  0
  7  8  1  0
  8  9  2  0
  8 10  1  0
 10 11  1  0
 11 12  2  0
 12 13  1  0
 13 14  2  0
 11 15  1  0
 14 15  1  0
 15 16  1  0
 16 17  1  1
 17 18  1  0
 17 19  1  0
 17 20  1  0
 16 21  1  0
 10 22  1  0
 21 22  1  0
 22 23  1  1
 23 24  2  0
 24 25  1  0
 25 26  2  0
 26 27  1  0
 27 28  1  0
 26 29  1  0
 23 30  1  0
 29 30  2  0
  7 31  1  0
  4 32  1  0
 31 32  1  0
M  END
