piperidine-amides-3645-covalent
     RDKit          3D

 18 18  0  0  0  0  0  0  0  0999 V2000
    7.1330   -3.2790   19.1970 C   0  0  0  0  0  0  0  0  0  0  0  0
    6.3950   -4.0250   20.2300 C   0  0  0  0  0  0  0  0  0  0  0  0
    5.2970   -4.5240   19.8800 O   0  0  0  0  0  0  0  0  0  0  0  0
    6.9200   -4.2310   21.5320 N   0  0  0  0  0  0  0  0  0  0  0  0
    6.4250   -5.3350   22.2620 C   0  0  0  0  0  0  0  0  0  0  0  0
    6.0000   -4.9970   23.6220 C   0  0  0  0  0  0  0  0  0  0  0  0
    6.6570   -3.8130   24.2200 C   0  0  0  0  0  0  0  0  0  0  0  0
    5.8950   -3.3280   25.4120 C   0  0  0  0  0  0  0  0  0  0  0  0
    4.7920   -2.7680   25.2500 O   0  0  0  0  0  0  0  0  0  0  0  0
    6.4040   -3.5000   26.7120 N   0  0  0  0  0  0  0  0  0  0  0  0
    6.6820   -4.7230   27.3650 C   0  0  0  0  0  0  0  0  0  0  0  0
    5.7310   -5.8230   27.3770 C   0  0  2  0  0  0  0  0  0  0  0  0
    4.6250   -5.6640   26.7750 O   0  0  0  0  0  0  0  0  0  0  0  0
    5.3830   -6.1350   28.8380 C   0  0  0  0  0  0  0  0  0  0  0  0
    6.1600   -6.9810   29.5840 C   0  0  0  0  0  0  0  0  0  0  0  0
    4.8710   -7.5760   28.9780 C   0  0  0  0  0  0  0  0  0  0  0  0
    6.8700   -2.6650   23.2970 C   0  0  0  0  0  0  0  0  0  0  0  0
    7.7180   -3.1780   22.1360 C   0  0  0  0  0  0  0  0  0  0  0  0
  1  2  1  0
  2  3  2  0
  2  4  1  0
  4  5  1  0
  5  6  1  0
  6  7  1  0
  7  8  1  0
  8  9  2  0
  8 10  1  0
 10 11  1  0
 11 12  1  0
 12 13  1  6
 12 14  1  0
 14 15  1  0
 14 16  1  0
  7 17  1  0
  4 18  1  0
 17 18  1  0
M  END
