piperidine-amides-12568-covalent
     RDKit          3D

 23 25  0  0  0  0  0  0  0  0999 V2000
    7.1910   -3.2810   19.1920 C   0  0  0  0  0  0  0  0  0  0  0  0
    6.4450   -4.0480   20.2120 C   0  0  0  0  0  0  0  0  0  0  0  0
    5.3350   -4.5140   19.8790 O   0  0  0  0  0  0  0  0  0  0  0  0
    7.0240   -4.2830   21.4620 N   0  0  0  0  0  0  0  0  0  0  0  0
    7.8360   -3.2680   22.0460 C   0  0  0  0  0  0  0  0  0  0  0  0
    7.2750   -2.7680   23.2620 C   0  0  0  0  0  0  0  0  0  0  0  0
    5.9890   -3.4000   23.5780 C   0  0  0  0  0  0  0  0  0  0  0  0
    5.6070   -2.8270   24.8510 C   0  0  0  0  0  0  0  0  0  0  0  0
    4.4210   -2.8900   25.2340 O   0  0  0  0  0  0  0  0  0  0  0  0
    6.6000   -2.2060   25.5950 N   0  0  0  0  0  0  0  0  0  0  0  0
    6.3910   -1.9700   26.9990 C   0  0  0  0  0  0  0  0  0  0  0  0
    6.0400   -3.2130   27.6860 C   0  0  0  0  0  0  0  0  0  0  0  0
    5.4440   -4.3530   26.9660 C   0  0  0  0  0  0  0  0  0  0  0  0
    5.1240   -5.5030   27.6230 C   0  0  0  0  0  0  0  0  0  0  0  0
    5.5380   -5.6510   28.8610 C   0  0  0  0  0  0  0  0  0  0  0  0
    6.2870   -4.6390   29.4770 N   0  0  0  0  0  0  0  0  0  0  0  0
    6.2380   -3.3890   28.9970 C   0  0  0  0  0  0  0  0  0  0  0  0
    6.3720   -2.2380   29.7980 O   0  0  0  0  0  0  0  0  0  0  0  0
    5.0860   -6.9530   29.4320 C   0  0  0  0  0  0  0  0  0  0  0  0
    4.3810   -7.4440   28.3360 C   0  0  0  0  0  0  0  0  0  0  0  0
    4.4200   -6.5640   27.2310 C   0  0  0  0  0  0  0  0  0  0  0  0
    5.9620   -4.8850   23.5620 C   0  0  0  0  0  0  0  0  0  0  0  0
    6.6460   -5.4100   22.3190 C   0  0  0  0  0  0  0  0  0  0  0  0
  1  2  1  0
  2  3  2  0
  2  4  1  0
  4  5  1  0
  5  6  1  0
  6  7  1  0
  7  8  1  0
  8  9  2  0
  8 10  1  0
 10 11  1  0
 11 12  1  0
 12 13  2  0
 13 14  1  0
 14 15  2  0
 15 16  1  0
 12 17  1  0
 16 17  1  0
 17 18  2  0
 15 19  1  0
 19 20  1  0
 14 21  1  0
 20 21  1  0
  7 22  1  0
  4 23  1  0
 22 23  1  0
M  END
