piperidine-amides-23266-covalent
     RDKit          3D

 24 26  0  0  0  0  0  0  0  0999 V2000
    7.0160   -3.3710   19.3500 C   0  0  0  0  0  0  0  0  0  0  0  0
    6.3810   -4.2120   20.3860 C   0  0  0  0  0  0  0  0  0  0  0  0
    5.4130   -4.9120   19.9980 O   0  0  0  0  0  0  0  0  0  0  0  0
    6.8590   -4.2550   21.7300 N   0  0  0  0  0  0  0  0  0  0  0  0
    7.5680   -3.1440   22.2500 C   0  0  0  0  0  0  0  0  0  0  0  0
    7.3700   -2.8960   23.6790 C   0  0  0  0  0  0  0  0  0  0  0  0
    6.4550   -3.8150   24.4120 C   0  0  0  0  0  0  0  0  0  0  0  0
    5.3900   -3.0180   25.1440 C   0  0  0  0  0  0  0  0  0  0  0  0
    4.4100   -2.6180   24.4980 O   0  0  0  0  0  0  0  0  0  0  0  0
    5.4150   -2.6990   26.5300 N   0  0  0  0  0  0  0  0  0  0  0  0
    5.2120   -3.6580   27.5760 C   0  0  0  0  0  0  0  0  0  0  0  0
    4.3500   -3.4140   28.7380 C   0  0  0  0  0  0  0  0  0  0  0  0
    4.0350   -4.3250   29.9320 C   0  0  0  0  0  0  0  0  0  0  0  0
    4.8250   -5.5010   29.5990 N   0  0  0  0  0  0  0  0  0  0  0  0
    5.6690   -5.7700   28.4810 C   0  0  0  0  0  0  0  0  0  0  0  0
    6.0390   -4.9330   27.2530 C   0  0  0  0  0  0  0  0  0  0  0  0
    5.7930   -1.3530   27.0210 C   0  0  0  0  0  0  0  0  0  0  0  0
    5.8560   -1.2960   28.5490 C   0  0  0  0  0  0  0  0  0  0  0  0
    6.5870   -0.0990   29.0610 C   0  0  0  0  0  0  0  0  0  0  0  0
    5.8550    1.0980   28.4770 C   0  0  0  0  0  0  0  0  0  0  0  0
    5.4290    1.0280   26.9800 C   0  0  0  0  0  0  0  0  0  0  0  0
    5.0080   -0.3490   26.5480 C   0  0  0  0  0  0  0  0  0  0  0  0
    5.7710   -4.8650   23.5620 C   0  0  0  0  0  0  0  0  0  0  0  0
    6.6260   -5.3750   22.5940 C   0  0  0  0  0  0  0  0  0  0  0  0
  1  2  1  0
  2  3  2  0
  2  4  1  0
  4  5  1  0
  5  6  1  0
  6  7  1  0
  7  8  1  0
  8  9  2  0
  8 10  1  0
 10 11  1  0
 11 12  2  0
 12 13  1  0
 13 14  2  0
 14 15  1  0
 11 16  1  0
 15 16  2  0
 10 17  1  0
 17 18  1  0
 18 19  1  0
 19 20  1  0
 20 21  1  0
 17 22  1  0
 21 22  1  0
  7 23  1  0
  4 24  1  0
 23 24  1  0
M  END
