piperidine-amides-3772-covalent
     RDKit          3D

 21 22  0  0  0  0  0  0  0  0999 V2000
    7.1340   -3.2740   19.1760 C   0  0  0  0  0  0  0  0  0  0  0  0
    6.3740   -4.0160   20.1980 C   0  0  0  0  0  0  0  0  0  0  0  0
    5.2630   -4.4820   19.8560 O   0  0  0  0  0  0  0  0  0  0  0  0
    6.9060   -4.2550   21.4860 N   0  0  0  0  0  0  0  0  0  0  0  0
    7.6220   -3.1980   22.1170 C   0  0  0  0  0  0  0  0  0  0  0  0
    7.1690   -2.8380   23.4530 C   0  0  0  0  0  0  0  0  0  0  0  0
    6.4730   -3.8970   24.2090 C   0  0  0  0  0  0  0  0  0  0  0  0
    5.7420   -3.2920   25.3650 C   0  0  0  0  0  0  0  0  0  0  0  0
    4.4970   -3.2460   25.3430 O   0  0  0  0  0  0  0  0  0  0  0  0
    6.4340   -2.7700   26.4730 N   0  0  0  0  0  0  0  0  0  0  0  0
    6.5270   -1.4280   26.9040 C   0  0  0  0  0  0  0  0  0  0  0  0
    5.6330   -0.8790   27.9200 C   0  0  2  0  0  0  0  0  0  0  0  0
    5.9230   -0.1160   28.9490 N   0  0  0  0  0  0  0  0  0  0  0  0
    5.4890   -0.6580   30.1810 C   0  0  0  0  0  0  0  0  0  0  0  0
    5.9400   -0.0770   31.3470 O   0  0  0  0  0  0  0  0  0  0  0  0
    4.6320   -1.7400   30.1350 C   0  0  0  0  0  0  0  0  0  0  0  0
    5.2190   -2.1740   28.7470 C   0  0  0  0  0  0  0  0  0  0  0  0
    3.9120   -2.7940   28.3830 C   0  0  0  0  0  0  0  0  0  0  0  0
    6.2590   -3.3080   28.9040 C   0  0  0  0  0  0  0  0  0  0  0  0
    5.5900   -4.7920   23.3800 C   0  0  0  0  0  0  0  0  0  0  0  0
    6.4400   -5.3730   22.2720 C   0  0  0  0  0  0  0  0  0  0  0  0
  1  2  1  0
  2  3  2  0
  2  4  1  0
  4  5  1  0
  5  6  1  0
  6  7  1  0
  7  8  1  0
  8  9  2  0
  8 10  1  0
 10 11  1  0
 12 11  1  6
 12 13  1  0
 13 14  1  0
 14 15  2  0
 14 16  1  0
 12 17  1  0
 16 17  1  0
 17 18  1  0
 17 19  1  0
  7 20  1  0
  4 21  1  0
 20 21  1  0
M  END
