piperidine-amides-5440-covalent
     RDKit          3D

 20 20  0  0  0  0  0  0  0  0999 V2000
    7.0890   -3.2760   19.1950 C   0  0  0  0  0  0  0  0  0  0  0  0
    6.3400   -4.0220   20.2110 C   0  0  0  0  0  0  0  0  0  0  0  0
    5.2860   -4.5940   19.8950 O   0  0  0  0  0  0  0  0  0  0  0  0
    6.8220   -4.1470   21.5240 N   0  0  0  0  0  0  0  0  0  0  0  0
    7.7000   -3.1700   22.1200 C   0  0  0  0  0  0  0  0  0  0  0  0
    7.0020   -2.6930   23.3590 C   0  0  0  0  0  0  0  0  0  0  0  0
    6.5320   -3.8430   24.1970 C   0  0  0  0  0  0  0  0  0  0  0  0
    5.8500   -3.3920   25.4310 C   0  0  0  0  0  0  0  0  0  0  0  0
    4.5830   -3.3850   25.5010 O   0  0  0  0  0  0  0  0  0  0  0  0
    6.5690   -2.9410   26.5570 N   0  0  0  0  0  0  0  0  0  0  0  0
    6.1060   -3.1780   27.9420 C   0  0  0  0  0  0  0  0  0  0  0  0
    6.3320   -4.5840   28.3480 C   0  0  0  0  0  0  0  0  0  0  0  0
    5.4560   -5.1700   29.3760 C   0  0  0  0  0  0  0  0  0  0  0  0
    4.4590   -6.1490   28.8210 C   0  0  0  0  0  0  0  0  0  0  0  0
    4.9700   -7.1020   27.7600 C   0  0  0  0  0  0  0  0  0  0  0  0
    3.1470   -5.4470   28.4550 C   0  0  0  0  0  0  0  0  0  0  0  0
    4.2010   -7.3120   29.7640 C   0  0  0  0  0  0  0  0  0  0  0  0
    3.1380   -7.4920   30.6560 C   0  0  0  0  0  0  0  0  0  0  0  0
    5.6100   -4.8050   23.4370 C   0  0  0  0  0  0  0  0  0  0  0  0
    6.4550   -5.3260   22.2690 C   0  0  0  0  0  0  0  0  0  0  0  0
  1  2  1  0
  2  3  2  0
  2  4  1  0
  4  5  1  0
  5  6  1  0
  6  7  1  0
  7  8  1  0
  8  9  2  0
  8 10  1  0
 10 11  1  0
 11 12  1  0
 12 13  1  0
 13 14  1  0
 14 15  1  0
 14 16  1  0
 14 17  1  0
 17 18  2  3
  7 19  1  0
  4 20  1  0
 19 20  1  0
M  END
