piperidine-amides-14840-covalent
     RDKit          3D

 22 22  0  0  0  0  0  0  0  0999 V2000
    7.0940   -3.3080   19.3220 C   0  0  0  0  0  0  0  0  0  0  0  0
    6.3400   -4.0840   20.3040 C   0  0  0  0  0  0  0  0  0  0  0  0
    5.2930   -4.6360   19.9190 O   0  0  0  0  0  0  0  0  0  0  0  0
    6.8190   -4.2430   21.6330 N   0  0  0  0  0  0  0  0  0  0  0  0
    7.6540   -3.2440   22.2390 C   0  0  0  0  0  0  0  0  0  0  0  0
    6.9380   -2.6160   23.4010 C   0  0  0  0  0  0  0  0  0  0  0  0
    6.3120   -3.7260   24.2240 C   0  0  0  0  0  0  0  0  0  0  0  0
    5.2380   -3.1240   25.1000 C   0  0  0  0  0  0  0  0  0  0  0  0
    4.5360   -2.2760   24.5690 O   0  0  0  0  0  0  0  0  0  0  0  0
    5.0800   -3.5380   26.4250 N   0  0  0  0  0  0  0  0  0  0  0  0
    5.9920   -4.4180   27.0270 C   0  0  0  0  0  0  0  0  0  0  0  0
    5.5510   -5.2830   28.0240 C   0  0  0  0  0  0  0  0  0  0  0  0
    4.3410   -5.0760   28.6300 C   0  0  0  0  0  0  0  0  0  0  0  0
    4.2540   -5.2000   30.0020 C   0  0  0  0  0  0  0  0  0  0  0  0
    3.2250   -4.4810   30.5890 O   0  0  0  0  0  0  0  0  0  0  0  0
    5.0350   -5.9000   30.6840 O   0  0  0  0  0  0  0  0  0  0  0  0
    4.4580   -6.8960   31.5020 C   0  0  0  0  0  0  0  0  0  0  0  0
    3.8130   -6.2120   32.7270 C   0  0  0  0  0  0  0  0  0  0  0  0
    3.7120   -7.7680   30.7390 C   0  0  0  0  0  0  0  0  0  0  0  0
    5.5860   -7.6340   32.1080 C   0  0  0  0  0  0  0  0  0  0  0  0
    5.6890   -4.8500   23.4970 C   0  0  0  0  0  0  0  0  0  0  0  0
    6.4460   -5.3600   22.4600 C   0  0  0  0  0  0  0  0  0  0  0  0
  1  2  1  0
  2  3  2  0
  2  4  1  0
  4  5  1  0
  5  6  1  0
  6  7  1  0
  7  8  1  0
  8  9  2  0
  8 10  1  0
 10 11  1  0
 11 12  1  0
 12 13  1  0
 13 14  1  0
 14 15  2  0
 14 16  1  0
 17 16  1  0
 17 18  1  0
 17 19  1  0
 17 20  1  0
  7 21  1  0
  4 22  1  0
 21 22  1  0
M  END
