piperidine-amides-23408-covalent
     RDKit          3D

 24 26  0  0  0  0  0  0  0  0999 V2000
    7.1070   -3.3080   19.2910 C   0  0  0  0  0  0  0  0  0  0  0  0
    6.3950   -4.1320   20.2760 C   0  0  0  0  0  0  0  0  0  0  0  0
    5.2980   -4.6190   19.9100 O   0  0  0  0  0  0  0  0  0  0  0  0
    6.9480   -4.4340   21.5450 N   0  0  0  0  0  0  0  0  0  0  0  0
    6.5040   -5.6220   22.1710 C   0  0  0  0  0  0  0  0  0  0  0  0
    5.7810   -5.3700   23.4020 C   0  0  0  0  0  0  0  0  0  0  0  0
    6.2570   -4.1960   24.1460 C   0  0  0  0  0  0  0  0  0  0  0  0
    5.2460   -3.8430   25.2060 C   0  0  0  0  0  0  0  0  0  0  0  0
    4.3470   -3.0200   24.9630 O   0  0  0  0  0  0  0  0  0  0  0  0
    5.3260   -4.4380   26.4840 N   0  0  0  0  0  0  0  0  0  0  0  0
    4.4760   -4.2390   27.5700 C   0  0  0  0  0  0  0  0  0  0  0  0
    5.0020   -4.4910   28.9190 C   0  0  0  0  0  0  0  0  0  0  0  0
    6.2210   -4.8730   29.0620 O   0  0  0  0  0  0  0  0  0  0  0  0
    6.8820   -5.2940   27.9340 C   0  0  0  0  0  0  0  0  0  0  0  0
    6.6040   -4.3830   26.9400 C   0  0  1  0  0  0  0  0  0  0  0  0
    7.5660   -5.0630   25.9500 C   0  0  0  0  0  0  0  0  0  0  0  0
    6.6290   -2.8970   27.3670 C   0  0  0  0  0  0  0  0  0  0  0  0
    6.4750   -1.9520   26.1970 C   0  0  0  0  0  0  0  0  0  0  0  0
    6.4350   -0.4730   26.3600 C   0  0  0  0  0  0  0  0  0  0  0  0
    6.5660    0.0350   27.7900 C   0  0  0  0  0  0  0  0  0  0  0  0
    6.7280   -0.9510   28.9750 C   0  0  0  0  0  0  0  0  0  0  0  0
    6.7430   -2.4080   28.6420 C   0  0  0  0  0  0  0  0  0  0  0  0
    6.6440   -3.0360   23.2720 C   0  0  0  0  0  0  0  0  0  0  0  0
    7.5900   -3.4130   22.3340 C   0  0  0  0  0  0  0  0  0  0  0  0
  1  2  1  0
  2  3  2  0
  2  4  1  0
  4  5  1  0
  5  6  1  0
  6  7  1  0
  7  8  1  0
  8  9  2  0
  8 10  1  0
 10 11  1  0
 11 12  1  0
 12 13  1  0
 13 14  1  0
 10 15  1  0
 14 15  1  0
 15 16  1  6
 15 17  1  0
 17 18  2  0
 18 19  1  0
 19 20  2  0
 20 21  1  0
 17 22  1  0
 21 22  2  0
  7 23  1  0
  4 24  1  0
 23 24  1  0
M  END
