piperidine-amides-4888-covalent
     RDKit          3D

 23 24  0  0  0  0  0  0  0  0999 V2000
    7.1000   -3.2690   19.1420 C   0  0  0  0  0  0  0  0  0  0  0  0
    6.3380   -3.9980   20.1890 C   0  0  0  0  0  0  0  0  0  0  0  0
    5.2480   -4.4880   19.8440 O   0  0  0  0  0  0  0  0  0  0  0  0
    6.8360   -4.1730   21.4820 N   0  0  0  0  0  0  0  0  0  0  0  0
    7.6650   -3.1680   22.0680 C   0  0  0  0  0  0  0  0  0  0  0  0
    7.5770   -3.0150   23.5170 C   0  0  0  0  0  0  0  0  0  0  0  0
    6.8420   -4.0470   24.2840 C   0  0  0  0  0  0  0  0  0  0  0  0
    6.1230   -3.3660   25.3760 C   0  0  0  0  0  0  0  0  0  0  0  0
    4.8730   -3.3390   25.3590 O   0  0  0  0  0  0  0  0  0  0  0  0
    6.8630   -2.7490   26.3930 N   0  0  0  0  0  0  0  0  0  0  0  0
    7.0760   -3.3600   27.7190 C   0  0  0  0  0  0  0  0  0  0  0  0
    6.7280   -2.3650   28.7740 C   0  0  0  0  0  0  0  0  0  0  0  0
    7.6660   -1.4700   29.3900 C   0  0  0  0  0  0  0  0  0  0  0  0
    7.3030   -0.5810   30.3460 C   0  0  0  0  0  0  0  0  0  0  0  0
    5.9880   -0.5150   30.7550 C   0  0  0  0  0  0  0  0  0  0  0  0
    5.0390   -1.3450   30.2030 C   0  0  0  0  0  0  0  0  0  0  0  0
    5.2760   -2.2960   29.2220 C   0  0  0  0  0  0  0  0  0  0  0  0
    4.3050   -3.1020   28.6920 C   0  0  0  0  0  0  0  0  0  0  0  0
    4.1320   -4.2430   29.4830 C   0  0  0  0  0  0  0  0  0  0  0  0
    3.5710   -3.9560   30.8200 C   0  0  0  0  0  0  0  0  0  0  0  0
    5.2780   -5.0220   29.5430 C   0  0  0  0  0  0  0  0  0  0  0  0
    5.9150   -4.9010   23.4110 C   0  0  0  0  0  0  0  0  0  0  0  0
    6.5530   -5.3610   22.2480 C   0  0  0  0  0  0  0  0  0  0  0  0
  1  2  1  0
  2  3  2  0
  2  4  1  0
  4  5  1  0
  5  6  1  0
  6  7  1  0
  7  8  1  0
  8  9  2  0
  8 10  1  0
 10 11  1  0
 11 12  1  0
 12 13  2  0
 13 14  1  0
 14 15  2  0
 15 16  1  0
 12 17  1  0
 16 17  2  0
 17 18  1  0
 18 19  1  0
 19 20  1  0
 19 21  1  0
  7 22  1  0
  4 23  1  0
 22 23  1  0
M  END
