piperidine-amides-2862-covalent
     RDKit          3D

 24 25  0  0  0  0  0  0  0  0999 V2000
    7.0250   -3.3540   19.3160 C   0  0  0  0  0  0  0  0  0  0  0  0
    6.3540   -4.1770   20.3220 C   0  0  0  0  0  0  0  0  0  0  0  0
    5.3770   -4.8460   19.9850 O   0  0  0  0  0  0  0  0  0  0  0  0
    6.8440   -4.2490   21.6770 N   0  0  0  0  0  0  0  0  0  0  0  0
    7.7160   -3.2100   22.1900 C   0  0  0  0  0  0  0  0  0  0  0  0
    7.4220   -2.9430   23.6340 C   0  0  0  0  0  0  0  0  0  0  0  0
    6.1060   -3.6250   23.9350 C   0  0  0  0  0  0  0  0  0  0  0  0
    5.6280   -3.2320   25.2930 C   0  0  0  0  0  0  0  0  0  0  0  0
    4.4190   -3.2300   25.5890 O   0  0  0  0  0  0  0  0  0  0  0  0
    6.5720   -2.8490   26.2740 N   0  0  0  0  0  0  0  0  0  0  0  0
    6.4360   -1.5820   26.9600 C   0  0  0  0  0  0  0  0  0  0  0  0
    7.0190   -1.6140   28.3390 C   0  0  0  0  0  0  0  0  0  0  0  0
    6.9820   -0.4950   29.1480 C   0  0  0  0  0  0  0  0  0  0  0  0
    6.3900    0.6990   28.6860 C   0  0  0  0  0  0  0  0  0  0  0  0
    5.8280    0.7970   27.4190 C   0  0  0  0  0  0  0  0  0  0  0  0
    5.2270    2.0040   26.9540 N   0  0  0  0  0  0  0  0  0  0  0  0
    4.2450    2.6910   27.7310 C   0  0  0  0  0  0  0  0  0  0  0  0
    4.4140    3.0880   28.9320 O   0  0  0  0  0  0  0  0  0  0  0  0
    3.0910    2.8890   27.0590 N   0  0  0  0  0  0  0  0  0  0  0  0
    2.1790    3.6140   27.7310 C   0  0  0  0  0  0  0  0  0  0  0  0
    2.5470    4.6880   28.5150 C   0  0  0  0  0  0  0  0  0  0  0  0
    5.8830   -0.4230   26.5650 C   0  0  0  0  0  0  0  0  0  0  0  0
    6.0810   -5.0630   23.7170 C   0  0  0  0  0  0  0  0  0  0  0  0
    6.6460   -5.4250   22.4970 C   0  0  0  0  0  0  0  0  0  0  0  0
  1  2  1  0
  2  3  2  0
  2  4  1  0
  4  5  1  0
  5  6  1  0
  6  7  1  0
  7  8  1  0
  8  9  2  0
  8 10  1  0
 10 11  1  0
 11 12  2  0
 12 13  1  0
 13 14  2  0
 14 15  1  0
 15 16  1  0
 16 17  1  0
 17 18  2  0
 17 19  1  0
 19 20  1  0
 20 21  1  0
 11 22  1  0
 15 22  2  0
  7 23  1  0
  4 24  1  0
 23 24  1  0
M  END
