piperidine-amides-13420-covalent
     RDKit          3D

 22 24  0  0  0  0  0  0  0  0999 V2000
    7.0610   -3.3290   19.2950 C   0  0  0  0  0  0  0  0  0  0  0  0
    6.3740   -4.1750   20.3100 C   0  0  0  0  0  0  0  0  0  0  0  0
    5.3620   -4.8120   19.9700 O   0  0  0  0  0  0  0  0  0  0  0  0
    6.9100   -4.2720   21.6120 N   0  0  0  0  0  0  0  0  0  0  0  0
    7.7310   -3.2340   22.1890 C   0  0  0  0  0  0  0  0  0  0  0  0
    6.9370   -2.6350   23.3420 C   0  0  0  0  0  0  0  0  0  0  0  0
    6.5380   -3.7710   24.2140 C   0  0  0  0  0  0  0  0  0  0  0  0
    5.7110   -3.3270   25.3610 C   0  0  0  0  0  0  0  0  0  0  0  0
    4.4870   -3.3520   25.1980 O   0  0  0  0  0  0  0  0  0  0  0  0
    6.3140   -2.8960   26.5570 N   0  0  0  0  0  0  0  0  0  0  0  0
    6.5950   -1.5510   26.9410 C   0  0  1  0  0  0  0  0  0  0  0  0
    5.6710   -0.5600   26.7400 C   0  0  0  0  0  0  0  0  0  0  0  0
    5.8440    0.6910   27.3580 C   0  0  0  0  0  0  0  0  0  0  0  0
    6.1270    0.7580   28.7110 C   0  0  1  0  0  0  0  0  0  0  0  0
    5.1730    1.6000   29.4900 C   0  0  0  0  0  0  0  0  0  0  0  0
    4.1840    0.8790   29.9630 O   0  0  0  0  0  0  0  0  0  0  0  0
    4.2170   -0.4360   30.1680 C   0  0  0  0  0  0  0  0  0  0  0  0
    5.6830   -0.8660   30.2370 C   0  0  0  0  0  0  0  0  0  0  0  0
    6.5920   -0.4180   29.2750 C   0  0  1  0  0  0  0  0  0  0  0  0
    7.1000   -1.4100   28.3060 C   0  0  0  0  0  0  0  0  0  0  0  0
    5.8360   -4.9090   23.5150 C   0  0  0  0  0  0  0  0  0  0  0  0
    6.5810   -5.3780   22.4650 C   0  0  0  0  0  0  0  0  0  0  0  0
  1  2  1  0
  2  3  2  0
  2  4  1  0
  4  5  1  0
  5  6  1  0
  6  7  1  0
  7  8  1  0
  8  9  2  0
  8 10  1  0
 11 10  1  1
 11 12  1  0
 12 13  1  0
 14 13  1  6
 14 15  1  0
 15 16  1  0
 16 17  1  0
 17 18  1  0
 14 19  1  0
 19 18  1  6
 11 20  1  0
 19 20  1  0
  7 21  1  0
  4 22  1  0
 21 22  1  0
M  END
