piperidine-amides-34125-covalent
     RDKit          3D

 31 34  0  0  0  0  0  0  0  0999 V2000
    7.0910   -3.2860   19.3100 C   0  0  0  0  0  0  0  0  0  0  0  0
    6.3760   -4.1490   20.2590 C   0  0  0  0  0  0  0  0  0  0  0  0
    5.2990   -4.6840   19.9300 O   0  0  0  0  0  0  0  0  0  0  0  0
    6.9100   -4.4540   21.5130 N   0  0  0  0  0  0  0  0  0  0  0  0
    7.6140   -3.4410   22.2760 C   0  0  0  0  0  0  0  0  0  0  0  0
    6.7680   -3.0910   23.5100 C   0  0  0  0  0  0  0  0  0  0  0  0
    6.5050   -4.3800   24.2770 C   0  0  0  0  0  0  0  0  0  0  0  0
    5.7760   -4.1410   25.5460 C   0  0  0  0  0  0  0  0  0  0  0  0
    4.6010   -4.5490   25.6070 O   0  0  0  0  0  0  0  0  0  0  0  0
    6.3460   -3.4300   26.6310 N   0  0  0  0  0  0  0  0  0  0  0  0
    6.3910   -3.9310   27.9900 C   0  0  0  0  0  0  0  0  0  0  0  0
    5.5150   -5.1260   28.2300 C   0  0  0  0  0  0  0  0  0  0  0  0
    4.1460   -5.2570   27.9950 C   0  0  0  0  0  0  0  0  0  0  0  0
    3.4410   -6.4200   28.2810 C   0  0  0  0  0  0  0  0  0  0  0  0
    4.0550   -7.5310   28.8230 C   0  0  0  0  0  0  0  0  0  0  0  0
    5.3760   -7.5170   29.0850 C   0  0  0  0  0  0  0  0  0  0  0  0
    6.2270   -6.3280   28.8170 C   0  0  0  0  0  0  0  0  0  0  0  0
    5.8320   -2.1380   26.8090 C   0  0  2  0  0  0  0  0  0  0  0  0
    5.8880   -1.4140   25.4980 C   0  0  0  0  0  0  0  0  0  0  0  0
    6.5300   -0.5040   26.4890 C   0  0  0  0  0  0  0  0  0  0  0  0
    5.9460    0.0380   27.5110 O   0  0  0  0  0  0  0  0  0  0  0  0
    6.7530   -0.2900   28.6010 C   0  0  0  0  0  0  0  0  0  0  0  0
    6.6170    1.0260   28.7440 C   0  0  0  0  0  0  0  0  0  0  0  0
    5.7970    1.5850   27.7010 C   0  0  0  0  0  0  0  0  0  0  0  0
    5.2630    0.6440   26.6890 C   0  0  0  0  0  0  0  0  0  0  0  0
    4.5040    0.8580   25.6390 O   0  0  0  0  0  0  0  0  0  0  0  0
    3.3610    0.1010   25.3540 C   0  0  0  0  0  0  0  0  0  0  0  0
    5.6410   -0.6940   26.8990 C   0  0  0  0  0  0  0  0  0  0  0  0
    6.4340   -1.3980   27.8580 C   0  0  0  0  0  0  0  0  0  0  0  0
    5.7450   -5.3370   23.3980 C   0  0  0  0  0  0  0  0  0  0  0  0
    6.4720   -5.6370   22.1600 C   0  0  0  0  0  0  0  0  0  0  0  0
  1  2  1  0
  2  3  2  0
  2  4  1  0
  4  5  1  0
  5  6  1  0
  6  7  1  0
  7  8  1  0
  8  9  2  0
  8 10  1  0
 10 11  1  0
 11 12  1  0
 12 13  2  0
 13 14  1  0
 14 15  2  0
 15 16  1  0
 12 17  1  0
 16 17  2  0
 18 10  1  6
 18 19  1  0
 19 20  1  0
 20 21  1  0
 21 22  1  0
 22 23  2  0
 23 24  1  0
 24 25  2  0
 25 26  1  0
 26 27  1  0
 25 28  1  0
 18 29  1  0
 22 29  1  0
 28 29  2  0
  7 30  1  0
  4 31  1  0
 30 31  1  0
M  END
