piperidine-amides-6282-covalent
     RDKit          3D

 26 27  0  0  0  0  0  0  0  0999 V2000
    7.0260   -3.3330   19.3350 C   0  0  0  0  0  0  0  0  0  0  0  0
    6.3690   -4.1790   20.3470 C   0  0  0  0  0  0  0  0  0  0  0  0
    5.4200   -4.9170   20.0030 O   0  0  0  0  0  0  0  0  0  0  0  0
    6.8130   -4.2020   21.6870 N   0  0  0  0  0  0  0  0  0  0  0  0
    7.6750   -3.1400   22.1880 C   0  0  0  0  0  0  0  0  0  0  0  0
    7.5340   -3.0910   23.7140 C   0  0  0  0  0  0  0  0  0  0  0  0
    6.1130   -3.4930   23.9990 C   0  0  0  0  0  0  0  0  0  0  0  0
    5.6560   -3.1450   25.3650 C   0  0  0  0  0  0  0  0  0  0  0  0
    4.4250   -3.1210   25.5710 O   0  0  0  0  0  0  0  0  0  0  0  0
    6.5810   -2.8530   26.4060 N   0  0  0  0  0  0  0  0  0  0  0  0
    6.5960   -1.5720   27.0780 C   0  0  0  0  0  0  0  0  0  0  0  0
    5.7660   -0.5200   26.3990 C   0  0  0  0  0  0  0  0  0  0  0  0
    5.6860    0.7400   26.9240 C   0  0  0  0  0  0  0  0  0  0  0  0
    6.3670    1.0530   28.0750 C   0  0  0  0  0  0  0  0  0  0  0  0
    6.2830    2.3300   28.6040 O   0  0  0  0  0  0  0  0  0  0  0  0
    5.1740    2.6100   29.4310 C   0  0  0  0  0  0  0  0  0  0  0  0
    7.1440    0.1450   28.7420 C   0  0  0  0  0  0  0  0  0  0  0  0
    7.7730    0.5970   29.8720 O   0  0  0  0  0  0  0  0  0  0  0  0
    8.0600   -0.2400   30.9670 C   0  0  0  0  0  0  0  0  0  0  0  0
    7.6240    0.3460   32.2860 C   0  0  0  0  0  0  0  0  0  0  0  0
    8.5440    1.4540   32.6160 N   0  0  0  0  0  0  0  0  0  0  0  0
    7.7290    2.6640   32.7840 C   0  0  0  0  0  0  0  0  0  0  0  0
    9.3660    1.1670   33.7710 C   0  0  0  0  0  0  0  0  0  0  0  0
    7.2450   -1.1750   28.2260 C   0  0  0  0  0  0  0  0  0  0  0  0
    6.0370   -5.0110   23.8360 C   0  0  0  0  0  0  0  0  0  0  0  0
    6.6200   -5.3900   22.4930 C   0  0  0  0  0  0  0  0  0  0  0  0
  1  2  1  0
  2  3  2  0
  2  4  1  0
  4  5  1  0
  5  6  1  0
  6  7  1  0
  7  8  1  0
  8  9  2  0
  8 10  1  0
 10 11  1  0
 11 12  2  0
 12 13  1  0
 13 14  2  0
 14 15  1  0
 15 16  1  0
 14 17  1  0
 17 18  1  0
 18 19  1  0
 19 20  1  0
 20 21  1  0
 21 22  1  0
 21 23  1  0
 11 24  1  0
 17 24  2  0
  7 25  1  0
  4 26  1  0
 25 26  1  0
M  END
