piperidine-amides-923-covalent
     RDKit          3D

 24 25  0  0  0  0  0  0  0  0999 V2000
    7.1570   -3.2620   19.1890 C   0  0  0  0  0  0  0  0  0  0  0  0
    6.3890   -4.0410   20.1970 C   0  0  0  0  0  0  0  0  0  0  0  0
    5.2970   -4.5420   19.8780 O   0  0  0  0  0  0  0  0  0  0  0  0
    6.9520   -4.2380   21.4680 N   0  0  0  0  0  0  0  0  0  0  0  0
    7.7720   -3.2430   22.1180 C   0  0  0  0  0  0  0  0  0  0  0  0
    6.9090   -2.6360   23.2110 C   0  0  0  0  0  0  0  0  0  0  0  0
    6.5100   -3.7750   24.0730 C   0  0  0  0  0  0  0  0  0  0  0  0
    5.8020   -3.3200   25.2780 C   0  0  0  0  0  0  0  0  0  0  0  0
    4.5670   -3.2570   25.2200 O   0  0  0  0  0  0  0  0  0  0  0  0
    6.5500   -2.9770   26.3950 N   0  0  0  0  0  0  0  0  0  0  0  0
    6.1520   -3.0810   27.7400 C   0  0  0  0  0  0  0  0  0  0  0  0
    6.4540   -4.1030   28.5940 C   0  0  0  0  0  0  0  0  0  0  0  0
    5.5950   -5.1770   28.8130 C   0  0  0  0  0  0  0  0  0  0  0  0
    6.0530   -6.4630   28.7700 C   0  0  0  0  0  0  0  0  0  0  0  0
    5.1760   -7.6180   29.0000 C   0  0  0  0  0  0  0  0  0  0  0  0
    3.6950   -7.4410   29.3010 C   0  0  0  0  0  0  0  0  0  0  0  0
    3.2850   -5.9630   29.3270 C   0  0  0  0  0  0  0  0  0  0  0  0
    1.6070   -5.5050   29.6620 S   0  0  0  0  0  0  0  0  0  0  0  0
    0.6670   -5.6630   28.2370 N   0  0  0  0  0  0  0  0  0  0  0  0
    1.5490   -4.0950   30.2170 O   0  0  0  0  0  0  0  0  0  0  0  0
    1.0810   -6.4740   30.6730 O   0  0  0  0  0  0  0  0  0  0  0  0
    4.2510   -4.9860   29.0860 C   0  0  0  0  0  0  0  0  0  0  0  0
    5.7090   -4.8290   23.3940 C   0  0  0  0  0  0  0  0  0  0  0  0
    6.5160   -5.3800   22.2370 C   0  0  0  0  0  0  0  0  0  0  0  0
  1  2  1  0
  2  3  2  0
  2  4  1  0
  4  5  1  0
  5  6  1  0
  6  7  1  0
  7  8  1  0
  8  9  2  0
  8 10  1  0
 10 11  1  0
 11 12  1  0
 12 13  1  0
 13 14  2  0
 14 15  1  0
 15 16  2  0
 16 17  1  0
 17 18  1  0
 18 19  1  0
 18 20  2  0
 18 21  2  0
 13 22  1  0
 17 22  2  0
  7 23  1  0
  4 24  1  0
 23 24  1  0
M  END
