piperidine-amides-9910-covalent
     RDKit          3D

 27 29  0  0  0  0  0  0  0  0999 V2000
    7.0450   -3.3430   19.3220 C   0  0  0  0  0  0  0  0  0  0  0  0
    6.3900   -4.1700   20.3400 C   0  0  0  0  0  0  0  0  0  0  0  0
    5.3670   -4.8060   19.9700 O   0  0  0  0  0  0  0  0  0  0  0  0
    6.9190   -4.2650   21.6310 N   0  0  0  0  0  0  0  0  0  0  0  0
    7.7660   -3.2180   22.1700 C   0  0  0  0  0  0  0  0  0  0  0  0
    7.3820   -2.9880   23.5930 C   0  0  0  0  0  0  0  0  0  0  0  0
    6.0250   -3.5600   23.8650 C   0  0  0  0  0  0  0  0  0  0  0  0
    5.5680   -3.1440   25.1980 C   0  0  0  0  0  0  0  0  0  0  0  0
    4.3360   -3.1040   25.4090 O   0  0  0  0  0  0  0  0  0  0  0  0
    6.4580   -2.7860   26.2180 N   0  0  0  0  0  0  0  0  0  0  0  0
    6.3610   -1.5420   26.9330 C   0  0  0  0  0  0  0  0  0  0  0  0
    6.2240   -0.2490   26.1500 C   0  0  0  0  0  0  0  0  0  0  0  0
    6.1370    0.9720   26.7890 C   0  0  0  0  0  0  0  0  0  0  0  0
    6.1780    1.0450   28.1670 C   0  0  0  0  0  0  0  0  0  0  0  0
    6.0810    2.5450   29.0560 Cl  0  0  0  0  0  0  0  0  0  0  0  0
    6.2970   -0.1450   28.8520 C   0  0  0  0  0  0  0  0  0  0  0  0
    6.3800   -1.3990   28.3040 C   0  0  0  0  0  0  0  0  0  0  0  0
    6.4690   -2.4600   29.1300 C   0  0  1  0  0  0  0  0  0  0  0  0
    6.0150   -2.0680   30.3850 O   0  0  0  0  0  0  0  0  0  0  0  0
    5.9130   -3.7850   28.6590 C   0  0  0  0  0  0  0  0  0  0  0  0
    4.6630   -3.5540   27.8650 C   0  0  0  0  0  0  0  0  0  0  0  0
    3.9270   -4.7210   27.2910 C   0  0  0  0  0  0  0  0  0  0  0  0
    4.4930   -6.1110   27.5460 C   0  0  0  0  0  0  0  0  0  0  0  0
    5.6580   -6.3340   28.2900 C   0  0  0  0  0  0  0  0  0  0  0  0
    6.3650   -5.0900   28.8500 C   0  0  0  0  0  0  0  0  0  0  0  0
    6.0620   -5.0570   23.7540 C   0  0  0  0  0  0  0  0  0  0  0  0
    6.6670   -5.4690   22.4070 C   0  0  0  0  0  0  0  0  0  0  0  0
  1  2  1  0
  2  3  2  0
  2  4  1  0
  4  5  1  0
  5  6  1  0
  6  7  1  0
  7  8  1  0
  8  9  2  0
  8 10  1  0
 10 11  1  0
 11 12  2  0
 12 13  1  0
 13 14  2  0
 14 15  1  0
 14 16  1  0
 11 17  1  0
 16 17  2  0
 17 18  1  0
 18 19  1  1
 18 20  1  0
 20 21  2  0
 21 22  1  0
 22 23  2  0
 23 24  1  0
 20 25  1  0
 24 25  2  0
  7 26  1  0
  4 27  1  0
 26 27  1  0
M  END
