piperidine-amides-1567-covalent
     RDKit          3D

 21 22  0  0  0  0  0  0  0  0999 V2000
    7.0710   -3.3150   19.3330 C   0  0  0  0  0  0  0  0  0  0  0  0
    6.3690   -4.1860   20.3130 C   0  0  0  0  0  0  0  0  0  0  0  0
    5.3440   -4.7860   19.9640 O   0  0  0  0  0  0  0  0  0  0  0  0
    6.9150   -4.3500   21.6040 N   0  0  0  0  0  0  0  0  0  0  0  0
    6.6160   -5.5100   22.3950 C   0  0  0  0  0  0  0  0  0  0  0  0
    5.7740   -5.0180   23.5740 C   0  0  0  0  0  0  0  0  0  0  0  0
    6.5010   -3.8630   24.1920 C   0  0  0  0  0  0  0  0  0  0  0  0
    5.7230   -3.2480   25.2840 C   0  0  0  0  0  0  0  0  0  0  0  0
    4.5100   -3.1130   25.0840 O   0  0  0  0  0  0  0  0  0  0  0  0
    6.3470   -2.8520   26.4660 N   0  0  0  0  0  0  0  0  0  0  0  0
    6.6250   -1.5270   26.8940 C   0  0  1  0  0  0  0  0  0  0  0  0
    5.9540   -0.3810   26.5280 C   0  0  0  0  0  0  0  0  0  0  0  0
    5.8850    0.4940   27.6020 C   0  0  0  0  0  0  0  0  0  0  0  0
    6.3360   -0.1950   28.6900 C   0  0  0  0  0  0  0  0  0  0  0  0
    6.6040   -1.6320   28.3940 C   0  0  1  0  0  0  0  0  0  0  0  0
    5.5550   -2.6120   28.9510 C   0  0  0  0  0  0  0  0  0  0  0  0
    6.2750   -3.9650   28.8960 C   0  0  0  0  0  0  0  0  0  0  0  0
    4.9230   -2.2300   30.1420 C   0  0  0  0  0  0  0  0  0  0  0  0
    4.4290   -2.7890   27.9540 C   0  0  0  0  0  0  0  0  0  0  0  0
    6.9230   -2.7670   23.2690 C   0  0  0  0  0  0  0  0  0  0  0  0
    7.6550   -3.3060   22.2560 C   0  0  0  0  0  0  0  0  0  0  0  0
  1  2  1  0
  2  3  2  0
  2  4  1  0
  4  5  1  0
  5  6  1  0
  6  7  1  0
  7  8  1  0
  8  9  2  0
  8 10  1  0
 11 10  1  6
 11 12  1  0
 12 13  1  0
 13 14  1  0
 11 15  1  0
 14 15  1  0
 15 16  1  6
 16 17  1  0
 16 18  1  0
 16 19  1  0
  7 20  1  0
  4 21  1  0
 20 21  1  0
M  END
