piperidine-amides-30271-covalent
     RDKit          3D

 26 28  0  0  0  0  0  0  0  0999 V2000
    7.0640   -3.3690   19.3410 C   0  0  0  0  0  0  0  0  0  0  0  0
    6.4160   -4.2150   20.3370 C   0  0  0  0  0  0  0  0  0  0  0  0
    5.4250   -4.8690   20.0020 O   0  0  0  0  0  0  0  0  0  0  0  0
    6.9600   -4.3300   21.6770 N   0  0  0  0  0  0  0  0  0  0  0  0
    7.7420   -3.2830   22.2590 C   0  0  0  0  0  0  0  0  0  0  0  0
    7.0060   -2.6410   23.4020 C   0  0  0  0  0  0  0  0  0  0  0  0
    6.3700   -3.6800   24.3350 C   0  0  0  0  0  0  0  0  0  0  0  0
    5.2800   -2.9840   25.0950 C   0  0  0  0  0  0  0  0  0  0  0  0
    4.2830   -2.5410   24.5080 O   0  0  0  0  0  0  0  0  0  0  0  0
    5.3340   -2.8090   26.4980 N   0  0  0  0  0  0  0  0  0  0  0  0
    5.4710   -3.9850   27.3340 C   0  0  0  0  0  0  0  0  0  0  0  0
    4.6600   -4.1990   28.5700 C   0  0  0  0  0  0  0  0  0  0  0  0
    4.8740   -5.3680   29.3020 C   0  0  0  0  0  0  0  0  0  0  0  0
    5.8350   -6.3280   28.8870 C   0  0  0  0  0  0  0  0  0  0  0  0
    6.6260   -6.1770   27.7270 N   0  0  0  0  0  0  0  0  0  0  0  0
    6.4350   -5.0320   26.9830 C   0  0  0  0  0  0  0  0  0  0  0  0
    5.6140   -1.5570   27.2430 C   0  0  0  0  0  0  0  0  0  0  0  0
    5.7140   -0.4120   26.4800 C   0  0  0  0  0  0  0  0  0  0  0  0
    5.9920    0.8090   27.0510 C   0  0  0  0  0  0  0  0  0  0  0  0
    6.1900    0.9600   28.4150 C   0  0  0  0  0  0  0  0  0  0  0  0
    6.4660    2.1530   28.9930 F   0  0  0  0  0  0  0  0  0  0  0  0
    6.0800   -0.2580   29.2080 C   0  0  0  0  0  0  0  0  0  0  0  0
    6.3320   -0.0790   30.9440 Cl  0  0  0  0  0  0  0  0  0  0  0  0
    5.7940   -1.4770   28.6280 C   0  0  0  0  0  0  0  0  0  0  0  0
    5.7020   -4.8470   23.6200 C   0  0  0  0  0  0  0  0  0  0  0  0
    6.5280   -5.3890   22.4960 C   0  0  0  0  0  0  0  0  0  0  0  0
  1  2  1  0
  2  3  2  0
  2  4  1  0
  4  5  1  0
  5  6  1  0
  6  7  1  0
  7  8  1  0
  8  9  2  0
  8 10  1  0
 10 11  1  0
 11 12  2  0
 12 13  1  0
 13 14  2  0
 14 15  1  0
 11 16  1  0
 15 16  2  0
 10 17  1  0
 17 18  2  0
 18 19  1  0
 19 20  2  0
 20 21  1  0
 20 22  1  0
 22 23  1  0
 17 24  1  0
 22 24  2  0
  7 25  1  0
  4 26  1  0
 25 26  1  0
M  END
