piperidine-amides-6751-covalent
     RDKit          3D

 23 24  0  0  0  0  0  0  0  0999 V2000
    7.0820   -3.2630   19.2480 C   0  0  0  0  0  0  0  0  0  0  0  0
    6.3450   -4.0630   20.2450 C   0  0  0  0  0  0  0  0  0  0  0  0
    5.3110   -4.6800   19.9220 O   0  0  0  0  0  0  0  0  0  0  0  0
    6.8100   -4.1780   21.5590 N   0  0  0  0  0  0  0  0  0  0  0  0
    7.6680   -3.1480   22.1070 C   0  0  0  0  0  0  0  0  0  0  0  0
    7.2250   -2.9810   23.5490 C   0  0  0  0  0  0  0  0  0  0  0  0
    5.8400   -3.5760   23.5750 C   0  0  0  0  0  0  0  0  0  0  0  0
    5.1120   -3.1940   24.7920 C   0  0  0  0  0  0  0  0  0  0  0  0
    3.9440   -2.7730   24.6980 O   0  0  0  0  0  0  0  0  0  0  0  0
    5.7350   -3.3040   26.0320 N   0  0  0  0  0  0  0  0  0  0  0  0
    5.3920   -4.3770   26.8990 C   0  0  0  0  0  0  0  0  0  0  0  0
    6.2080   -4.0820   28.0990 C   0  0  1  0  0  0  0  0  0  0  0  0
    6.0680   -2.9000   28.7650 C   0  0  0  0  0  0  0  0  0  0  0  0
    5.9710   -5.0680   29.0880 O   0  0  0  0  0  0  0  0  0  0  0  0
    7.5660   -4.1350   27.5100 C   0  0  0  0  0  0  0  0  0  0  0  0
    8.4960   -4.8720   28.1040 C   0  0  0  0  0  0  0  0  0  0  0  0
    9.7450   -4.9330   27.6060 C   0  0  0  0  0  0  0  0  0  0  0  0
   10.4950   -4.3230   26.4000 C   0  0  0  0  0  0  0  0  0  0  0  0
   11.7570   -4.4150   25.9770 F   0  0  0  0  0  0  0  0  0  0  0  0
    9.3140   -3.5490   25.8410 C   0  0  0  0  0  0  0  0  0  0  0  0
    7.9520   -3.4920   26.4050 C   0  0  0  0  0  0  0  0  0  0  0  0
    5.9130   -5.0790   23.4610 C   0  0  0  0  0  0  0  0  0  0  0  0
    6.6270   -5.4130   22.2940 C   0  0  0  0  0  0  0  0  0  0  0  0
  1  2  1  0
  2  3  2  0
  2  4  1  0
  4  5  1  0
  5  6  1  0
  6  7  1  0
  7  8  1  0
  8  9  2  0
  8 10  1  0
 10 11  1  0
 11 12  1  0
 12 13  1  1
 12 14  1  0
 12 15  1  0
 15 16  2  0
 16 17  1  0
 17 18  2  0
 18 19  1  0
 18 20  1  0
 15 21  1  0
 20 21  2  0
  7 22  1  0
  4 23  1  0
 22 23  1  0
M  END
