piperidine-amides-27393-covalent
     RDKit          3D

 25 26  0  0  0  0  0  0  0  0999 V2000
    6.9930   -3.3710   19.4400 C   0  0  0  0  0  0  0  0  0  0  0  0
    6.3710   -4.2460   20.4440 C   0  0  0  0  0  0  0  0  0  0  0  0
    5.4260   -4.9640   20.0100 O   0  0  0  0  0  0  0  0  0  0  0  0
    6.8230   -4.2960   21.7830 N   0  0  0  0  0  0  0  0  0  0  0  0
    6.6880   -5.5010   22.5750 C   0  0  0  0  0  0  0  0  0  0  0  0
    6.0810   -5.1190   23.9040 C   0  0  0  0  0  0  0  0  0  0  0  0
    5.9550   -3.6250   24.0130 C   0  0  0  0  0  0  0  0  0  0  0  0
    5.0890   -3.1780   25.1720 C   0  0  0  0  0  0  0  0  0  0  0  0
    3.8800   -3.1250   24.9000 O   0  0  0  0  0  0  0  0  0  0  0  0
    5.4000   -2.8260   26.5260 N   0  0  0  0  0  0  0  0  0  0  0  0
    4.3940   -3.0320   27.5160 C   0  0  0  0  0  0  0  0  0  0  0  0
    4.9400   -4.2560   28.1990 C   0  0  2  0  0  0  0  0  0  0  0  0
    4.5820   -4.1700   29.6320 N   0  0  0  0  0  0  0  0  0  0  0  0
    3.6880   -5.0210   30.1240 C   0  0  0  0  0  0  0  0  0  0  0  0
    2.3370   -5.2130   29.7300 O   0  0  0  0  0  0  0  0  0  0  0  0
    3.9870   -5.8630   31.1390 N   0  0  0  0  0  0  0  0  0  0  0  0
    4.3570   -7.1510   30.9470 C   0  0  0  0  0  0  0  0  0  0  0  0
    3.2140   -7.8870   31.2290 C   0  0  0  0  0  0  0  0  0  0  0  0
    5.4440   -7.5500   31.9230 C   0  0  0  0  0  0  0  0  0  0  0  0
    6.2360   -4.5400   27.8630 C   0  0  2  0  0  0  0  0  0  0  0  0
    6.9300   -4.9000   28.9470 O   0  0  0  0  0  0  0  0  0  0  0  0
    6.6890   -6.2420   29.1260 C   0  0  0  0  0  0  0  0  0  0  0  0
    6.5020   -3.3600   27.1560 C   0  0  0  0  0  0  0  0  0  0  0  0
    7.3250   -2.9660   23.8080 C   0  0  0  0  0  0  0  0  0  0  0  0
    7.6720   -3.2170   22.3300 C   0  0  0  0  0  0  0  0  0  0  0  0
  1  2  1  0
  2  3  2  0
  2  4  1  0
  4  5  1  0
  5  6  1  0
  6  7  1  0
  7  8  1  0
  8  9  2  0
  8 10  1  0
 10 11  1  0
 11 12  1  0
 12 13  1  1
 13 14  1  0
 14 15  2  0
 14 16  1  0
 16 17  1  0
 17 18  1  0
 17 19  1  0
 12 20  1  0
 20 21  1  1
 21 22  1  0
 10 23  1  0
 20 23  1  0
  7 24  1  0
  4 25  1  0
 24 25  1  0
M  END
