piperidine-amides-5534-covalent
     RDKit          3D

 19 20  0  0  0  0  0  0  0  0999 V2000
    7.0950   -3.2480   19.1490 C   0  0  0  0  0  0  0  0  0  0  0  0
    6.3720   -3.9940   20.1770 C   0  0  0  0  0  0  0  0  0  0  0  0
    5.3090   -4.5680   19.8860 O   0  0  0  0  0  0  0  0  0  0  0  0
    6.8870   -4.1190   21.4700 N   0  0  0  0  0  0  0  0  0  0  0  0
    7.7020   -3.1030   22.0960 C   0  0  0  0  0  0  0  0  0  0  0  0
    6.8500   -2.5490   23.2050 C   0  0  0  0  0  0  0  0  0  0  0  0
    6.3950   -3.6440   24.1160 C   0  0  0  0  0  0  0  0  0  0  0  0
    5.5730   -3.1690   25.2520 C   0  0  0  0  0  0  0  0  0  0  0  0
    4.7760   -2.1960   25.1430 O   0  0  0  0  0  0  0  0  0  0  0  0
    5.6520   -3.8120   26.4980 N   0  0  0  0  0  0  0  0  0  0  0  0
    6.2150   -5.1680   26.4700 C   0  0  2  0  0  0  0  0  0  0  0  0
    7.1520   -5.3870   27.5340 C   0  0  0  0  0  0  0  0  0  0  0  0
    8.1880   -5.4310   26.5440 C   0  0  2  0  0  0  0  0  0  0  0  0
    9.2580   -4.4210   26.7640 C   0  0  0  0  0  0  0  0  0  0  0  0
   10.4240   -4.9020   25.9420 C   0  0  0  0  0  0  0  0  0  0  0  0
    9.5460   -4.7300   28.2200 C   0  0  0  0  0  0  0  0  0  0  0  0
    7.3900   -5.2270   25.4090 C   0  0  0  0  0  0  0  0  0  0  0  0
    5.6410   -4.7260   23.3720 C   0  0  0  0  0  0  0  0  0  0  0  0
    6.5280   -5.2650   22.2720 C   0  0  0  0  0  0  0  0  0  0  0  0
  1  2  1  0
  2  3  2  0
  2  4  1  0
  4  5  1  0
  5  6  1  0
  6  7  1  0
  7  8  1  0
  8  9  2  0
  8 10  1  0
 11 10  1  1
 11 12  1  0
 12 13  1  0
 13 14  1  1
 14 15  1  0
 14 16  1  0
 11 17  1  0
 13 17  1  0
  7 18  1  0
  4 19  1  0
 18 19  1  0
M  END
