piperidine-amides-12035-covalent
     RDKit          3D

 26 27  0  0  0  0  0  0  0  0999 V2000
    7.1040   -3.3520   19.3670 C   0  0  0  0  0  0  0  0  0  0  0  0
    6.3670   -4.1580   20.3260 C   0  0  0  0  0  0  0  0  0  0  0  0
    5.3690   -4.7870   19.9700 O   0  0  0  0  0  0  0  0  0  0  0  0
    6.8480   -4.2460   21.6730 N   0  0  0  0  0  0  0  0  0  0  0  0
    7.6970   -3.1990   22.1930 C   0  0  0  0  0  0  0  0  0  0  0  0
    7.4520   -3.0130   23.6580 C   0  0  0  0  0  0  0  0  0  0  0  0
    6.0750   -3.5730   23.9540 C   0  0  0  0  0  0  0  0  0  0  0  0
    5.6160   -3.1940   25.3190 C   0  0  0  0  0  0  0  0  0  0  0  0
    4.4130   -3.2110   25.6450 O   0  0  0  0  0  0  0  0  0  0  0  0
    6.5840   -2.8070   26.2730 N   0  0  0  0  0  0  0  0  0  0  0  0
    6.4740   -1.5520   26.9900 C   0  0  0  0  0  0  0  0  0  0  0  0
    6.9940   -1.6380   28.3960 C   0  0  0  0  0  0  0  0  0  0  0  0
    6.9690   -0.5390   29.2290 C   0  0  0  0  0  0  0  0  0  0  0  0
    6.4470    0.6800   28.7540 C   0  0  0  0  0  0  0  0  0  0  0  0
    6.4040    1.8030   29.5530 C   0  0  0  0  0  0  0  0  0  0  0  0
    5.9870    0.6970   27.4590 C   0  0  0  0  0  0  0  0  0  0  0  0
    5.9700   -0.3360   26.5570 C   0  0  0  0  0  0  0  0  0  0  0  0
    5.5110   -0.2300   25.3380 O   0  0  0  0  0  0  0  0  0  0  0  0
    5.2820    0.6440   24.2410 C   0  0  0  0  0  0  0  0  0  0  0  0
    5.2520    1.9690   24.6820 C   0  0  0  0  0  0  0  0  0  0  0  0
    6.3650    2.7690   24.4890 O   0  0  0  0  0  0  0  0  0  0  0  0
    4.0970    2.3360   25.2570 N   0  0  0  0  0  0  0  0  0  0  0  0
    4.2720    3.2260   26.2660 C   0  0  0  0  0  0  0  0  0  0  0  0
    3.4140    1.2120   25.7850 C   0  0  0  0  0  0  0  0  0  0  0  0
    6.0610   -5.0710   23.7850 C   0  0  0  0  0  0  0  0  0  0  0  0
    6.5670   -5.4220   22.4220 C   0  0  0  0  0  0  0  0  0  0  0  0
  1  2  1  0
  2  3  2  0
  2  4  1  0
  4  5  1  0
  5  6  1  0
  6  7  1  0
  7  8  1  0
  8  9  2  0
  8 10  1  0
 10 11  1  0
 11 12  2  0
 12 13  1  0
 13 14  2  0
 14 15  1  0
 14 16  1  0
 11 17  1  0
 16 17  2  0
 17 18  1  0
 18 19  1  0
 19 20  1  0
 20 21  2  0
 20 22  1  0
 22 23  1  0
 22 24  1  0
  7 25  1  0
  4 26  1  0
 25 26  1  0
M  END
