piperidine-amides-19475-covalent
     RDKit          3D

 22 24  0  0  0  0  0  0  0  0999 V2000
    7.1080   -3.3030   19.4150 C   0  0  0  0  0  0  0  0  0  0  0  0
    6.3860   -4.1090   20.3770 C   0  0  0  0  0  0  0  0  0  0  0  0
    5.3960   -4.7970   19.9650 O   0  0  0  0  0  0  0  0  0  0  0  0
    6.7540   -4.1820   21.7370 N   0  0  0  0  0  0  0  0  0  0  0  0
    6.6330   -5.5200   22.3730 C   0  0  0  0  0  0  0  0  0  0  0  0
    6.0550   -5.1560   23.8050 C   0  0  0  0  0  0  0  0  0  0  0  0
    5.9500   -3.6530   23.8330 C   0  0  0  0  0  0  0  0  0  0  0  0
    4.8490   -3.0940   24.8580 C   0  0  0  0  0  0  0  0  0  0  0  0
    3.8520   -2.7900   24.2450 O   0  0  0  0  0  0  0  0  0  0  0  0
    5.2350   -3.0980   26.0650 N   0  0  0  0  0  0  0  0  0  0  0  0
    5.2870   -3.2330   27.3790 C   0  0  0  0  0  0  0  0  0  0  0  0
    6.4070   -2.7950   27.7630 C   0  0  0  0  0  0  0  0  0  0  0  0
    6.3950   -1.5730   28.5800 N   0  0  0  0  0  0  0  0  0  0  0  0
    6.9280   -1.5060   29.7910 N   0  0  0  0  0  0  0  0  0  0  0  0
    6.7330   -0.2290   30.2200 C   0  0  0  0  0  0  0  0  0  0  0  0
    7.1090    0.4430   31.4820 C   0  0  0  0  0  0  0  0  0  0  0  0
    6.0040    0.5640   29.1660 C   0  0  0  0  0  0  0  0  0  0  0  0
    5.8230   -0.3570   28.1510 C   0  0  0  0  0  0  0  0  0  0  0  0
    5.1950   -0.1500   26.9130 C   0  0  0  0  0  0  0  0  0  0  0  0
    6.5750   -2.4330   26.2730 C   0  0  0  0  0  0  0  0  0  0  0  0
    7.2740   -3.0000   23.6270 C   0  0  0  0  0  0  0  0  0  0  0  0
    7.6120   -3.1710   22.3070 C   0  0  0  0  0  0  0  0  0  0  0  0
  1  2  1  0
  2  3  2  0
  2  4  1  0
  4  5  1  0
  5  6  1  0
  6  7  1  0
  7  8  1  0
  8  9  2  0
  8 10  1  0
 10 11  1  0
 11 12  1  0
 12 13  1  0
 13 14  1  0
 14 15  2  0
 15 16  1  0
 15 17  1  0
 13 18  1  0
 17 18  2  0
 18 19  1  0
 10 20  1  0
 12 20  1  0
  7 21  1  0
  4 22  1  0
 21 22  1  0
M  END
