piperidine-amides-12965-covalent
     RDKit          3D

 21 23  0  0  0  0  0  0  0  0999 V2000
    7.1240   -3.3020   19.2010 C   0  0  0  0  0  0  0  0  0  0  0  0
    6.3540   -4.0200   20.2390 C   0  0  0  0  0  0  0  0  0  0  0  0
    5.2720   -4.5190   19.8790 O   0  0  0  0  0  0  0  0  0  0  0  0
    6.8610   -4.1710   21.5370 N   0  0  0  0  0  0  0  0  0  0  0  0
    7.7250   -3.1830   22.0980 C   0  0  0  0  0  0  0  0  0  0  0  0
    7.4050   -2.8670   23.4800 C   0  0  0  0  0  0  0  0  0  0  0  0
    6.1350   -3.4640   23.9320 C   0  0  0  0  0  0  0  0  0  0  0  0
    5.8920   -3.1350   25.3540 C   0  0  0  0  0  0  0  0  0  0  0  0
    4.8200   -3.5210   25.8580 O   0  0  0  0  0  0  0  0  0  0  0  0
    6.8350   -2.3970   26.1080 N   0  0  0  0  0  0  0  0  0  0  0  0
    7.0740   -2.6150   27.5520 C   0  0  0  0  0  0  0  0  0  0  0  0
    6.5580   -1.5090   28.4160 C   0  0  2  0  0  0  0  0  0  0  0  0
    7.4840   -1.0100   29.4420 C   0  0  0  0  0  0  0  0  0  0  0  0
    6.2580   -1.6790   29.8460 C   0  0  0  0  0  0  0  0  0  0  0  0
    5.5160   -0.6040   30.0260 C   0  0  2  0  0  0  0  0  0  0  0  0
    4.1950   -0.7510   29.7240 C   0  0  0  0  0  0  0  0  0  0  0  0
    4.1670   -0.8810   28.3600 C   0  0  0  0  0  0  0  0  0  0  0  0
    5.4470   -0.6630   27.9360 C   0  0  1  0  0  0  0  0  0  0  0  0
    6.0370    0.0560   28.9670 C   0  0  0  0  0  0  0  0  0  0  0  0
    5.9640   -4.9170   23.6530 C   0  0  0  0  0  0  0  0  0  0  0  0
    6.6060   -5.3540   22.3530 C   0  0  0  0  0  0  0  0  0  0  0  0
  1  2  1  0
  2  3  2  0
  2  4  1  0
  4  5  1  0
  5  6  1  0
  6  7  1  0
  7  8  1  0
  8  9  2  0
  8 10  1  0
 10 11  1  0
 12 11  1  0
 12 13  1  1
 12 14  1  0
 15 14  1  6
 15 16  1  0
 16 17  1  0
 12 18  1  0
 18 17  1  1
 15 19  1  0
 18 19  1  0
  7 20  1  0
  4 21  1  0
 20 21  1  0
M  END
