piperidine-amides-645-covalent
     RDKit          3D

 26 27  0  0  0  0  0  0  0  0999 V2000
    7.0230   -3.3810   19.2990 C   0  0  0  0  0  0  0  0  0  0  0  0
    6.3560   -4.1350   20.3400 C   0  0  0  0  0  0  0  0  0  0  0  0
    5.3640   -4.8400   19.9820 O   0  0  0  0  0  0  0  0  0  0  0  0
    6.7690   -4.1670   21.6930 N   0  0  0  0  0  0  0  0  0  0  0  0
    7.6630   -3.0790   22.1750 C   0  0  0  0  0  0  0  0  0  0  0  0
    7.6270   -3.2830   23.7410 C   0  0  0  0  0  0  0  0  0  0  0  0
    6.2310   -3.7650   24.0410 C   0  0  0  0  0  0  0  0  0  0  0  0
    5.7950   -3.6470   25.5670 C   0  0  0  0  0  0  0  0  0  0  0  0
    5.3070   -4.6930   25.9480 O   0  0  0  0  0  0  0  0  0  0  0  0
    6.0390   -2.4830   25.9940 N   0  0  0  0  0  0  0  0  0  0  0  0
    6.1550   -1.1900   26.4050 C   0  0  0  0  0  0  0  0  0  0  0  0
    6.0910    0.0460   25.8790 C   0  0  0  0  0  0  0  0  0  0  0  0
    6.2460    1.2420   26.6080 C   0  0  0  0  0  0  0  0  0  0  0  0
    6.5120    1.4350   28.0420 C   0  0  0  0  0  0  0  0  0  0  0  0
    6.6010    0.0680   28.7150 C   0  0  0  0  0  0  0  0  0  0  0  0
    6.4190   -1.0510   27.8930 C   0  0  0  0  0  0  0  0  0  0  0  0
    6.4920   -2.1780   28.6640 C   0  0  0  0  0  0  0  0  0  0  0  0
    6.6130   -3.3620   28.0090 O   0  0  0  0  0  0  0  0  0  0  0  0
    6.4020   -2.0380   29.9690 N   0  0  0  0  0  0  0  0  0  0  0  0
    6.5260   -0.7250   30.5920 C   0  0  0  0  0  0  0  0  0  0  0  0
    5.0760   -0.3080   31.0080 C   0  0  0  0  0  0  0  0  0  0  0  0
    4.6650   -0.6200   32.2770 C   0  0  0  0  0  0  0  0  0  0  0  0
    4.7270    0.3740   33.2580 N   0  0  0  0  0  0  0  0  0  0  0  0
    4.2120   -1.8680   32.6110 O   0  0  0  0  0  0  0  0  0  0  0  0
    5.8980   -5.1390   23.4830 C   0  0  0  0  0  0  0  0  0  0  0  0
    6.6920   -5.4100   22.4210 C   0  0  0  0  0  0  0  0  0  0  0  0
  1  2  1  0
  2  3  2  0
  2  4  1  0
  4  5  1  0
  5  6  1  0
  6  7  1  0
  7  8  1  0
  8  9  2  0
  8 10  1  0
 10 11  1  0
 11 12  2  0
 12 13  1  0
 13 14  2  0
 14 15  1  0
 11 16  1  0
 15 16  2  0
 16 17  1  0
 17 18  2  0
 17 19  1  0
 19 20  1  0
 20 21  1  0
 21 22  1  0
 22 23  1  0
 22 24  2  0
  7 25  1  0
  4 26  1  0
 25 26  1  0
M  END
