piperidine-amides-14995-covalent
     RDKit          3D

 21 22  0  0  0  0  0  0  0  0999 V2000
    7.1430   -3.9300   19.6410 C   0  0  0  0  0  0  0  0  0  0  0  0
    5.8880   -3.8530   20.2560 C   0  0  0  0  0  0  0  0  0  0  0  0
    4.9140   -3.9710   19.5210 O   0  0  0  0  0  0  0  0  0  0  0  0
    5.8710   -3.7350   21.6320 N   0  0  0  0  0  0  0  0  0  0  0  0
    6.8000   -2.7440   22.0730 C   0  0  0  0  0  0  0  0  0  0  0  0
    7.0400   -2.8870   23.5270 C   0  0  0  0  0  0  0  0  0  0  0  0
    5.7640   -3.3860   24.1480 C   0  0  0  0  0  0  0  0  0  0  0  0
    6.0520   -3.5640   25.5760 C   0  0  0  0  0  0  0  0  0  0  0  0
    5.0890   -3.6570   26.3340 O   0  0  0  0  0  0  0  0  0  0  0  0
    7.4050   -3.5860   25.8880 N   0  0  0  0  0  0  0  0  0  0  0  0
    8.1280   -2.3690   25.7870 C   0  0  0  0  0  0  0  0  0  0  0  0
    9.2220   -2.2400   24.8780 C   0  0  0  0  0  0  0  0  0  0  0  0
    9.6950   -2.7570   23.6990 C   0  0  0  0  0  0  0  0  0  0  0  0
   10.8930   -2.0220   23.5030 N   0  0  0  0  0  0  0  0  0  0  0  0
   11.8270   -2.1260   22.4810 C   0  0  0  0  0  0  0  0  0  0  0  0
   12.8130   -0.9990   22.5510 C   0  0  0  0  0  0  0  0  0  0  0  0
   11.0160   -2.1380   21.4400 C   0  0  0  0  0  0  0  0  0  0  0  0
   11.1950   -1.1450   24.3740 N   0  0  0  0  0  0  0  0  0  0  0  0
   10.2030   -1.2630   25.2370 N   0  0  0  0  0  0  0  0  0  0  0  0
    5.3180   -4.7090   23.6710 C   0  0  0  0  0  0  0  0  0  0  0  0
    5.7650   -4.9990   22.2940 C   0  0  0  0  0  0  0  0  0  0  0  0
  1  2  1  0
  2  3  2  0
  2  4  1  0
  4  5  1  0
  5  6  1  0
  6  7  1  0
  7  8  1  0
  8  9  2  0
  8 10  1  0
 10 11  1  0
 11 12  1  0
 12 13  2  0
 13 14  1  0
 14 15  1  0
 15 16  1  0
 15 17  1  0
 14 18  1  0
 12 19  1  0
 18 19  2  0
  7 20  1  0
  4 21  1  0
 20 21  1  0
M  END
