piperidine-amides-18983-covalent
     RDKit          3D

 20 21  0  0  0  0  0  0  0  0999 V2000
    7.1290   -3.3760   19.4250 C   0  0  0  0  0  0  0  0  0  0  0  0
    6.4420   -4.2350   20.3630 C   0  0  0  0  0  0  0  0  0  0  0  0
    5.4050   -4.8620   19.9830 O   0  0  0  0  0  0  0  0  0  0  0  0
    6.9330   -4.4110   21.6690 N   0  0  0  0  0  0  0  0  0  0  0  0
    6.5940   -5.6480   22.4110 C   0  0  0  0  0  0  0  0  0  0  0  0
    5.7920   -5.0560   23.6420 C   0  0  0  0  0  0  0  0  0  0  0  0
    6.6050   -3.8950   24.2060 C   0  0  0  0  0  0  0  0  0  0  0  0
    5.8420   -3.1730   25.3990 C   0  0  0  0  0  0  0  0  0  0  0  0
    5.0870   -2.3540   24.8970 O   0  0  0  0  0  0  0  0  0  0  0  0
    6.1400   -3.5620   26.5890 N   0  0  0  0  0  0  0  0  0  0  0  0
    5.8630   -3.7960   27.9120 C   0  0  0  0  0  0  0  0  0  0  0  0
    6.0250   -4.8480   28.7390 C   0  0  0  0  0  0  0  0  0  0  0  0
    7.1140   -5.9670   28.1940 S   0  0  0  0  0  0  0  0  0  0  0  0
    7.9770   -5.2080   26.9310 C   0  0  0  0  0  0  0  0  0  0  0  0
    7.6330   -3.7390   26.9050 C   0  0  1  0  0  0  0  0  0  0  0  0
    8.5170   -3.5190   25.6670 C   0  0  0  0  0  0  0  0  0  0  0  0
    9.2500   -4.7290   25.3330 N   0  0  0  0  0  0  0  0  0  0  0  0
    8.6320   -2.3010   24.9740 O   0  0  0  0  0  0  0  0  0  0  0  0
    7.0490   -2.8330   23.2190 C   0  0  0  0  0  0  0  0  0  0  0  0
    7.8160   -3.4410   22.2530 C   0  0  0  0  0  0  0  0  0  0  0  0
  1  2  1  0
  2  3  2  0
  2  4  1  0
  4  5  1  0
  5  6  1  0
  6  7  1  0
  7  8  1  0
  8  9  2  0
  8 10  1  0
 10 11  1  0
 11 12  1  0
 12 13  1  0
 13 14  1  0
 10 15  1  0
 14 15  1  0
 15 16  1  6
 16 17  1  0
 16 18  2  0
  7 19  1  0
  4 20  1  0
 19 20  1  0
M  END
