piperidine-amides-30307-covalent
     RDKit          3D

 27 29  0  0  0  0  0  0  0  0999 V2000
    7.0910   -3.3450   19.3410 C   0  0  0  0  0  0  0  0  0  0  0  0
    6.4130   -4.2080   20.2980 C   0  0  0  0  0  0  0  0  0  0  0  0
    5.3850   -4.8030   19.9730 O   0  0  0  0  0  0  0  0  0  0  0  0
    6.9820   -4.4090   21.6000 N   0  0  0  0  0  0  0  0  0  0  0  0
    7.7560   -3.3650   22.2130 C   0  0  0  0  0  0  0  0  0  0  0  0
    7.1510   -2.9500   23.5200 C   0  0  0  0  0  0  0  0  0  0  0  0
    6.4460   -4.1220   24.1900 C   0  0  0  0  0  0  0  0  0  0  0  0
    5.4710   -3.5560   25.1540 C   0  0  0  0  0  0  0  0  0  0  0  0
    4.5560   -2.8100   24.7750 O   0  0  0  0  0  0  0  0  0  0  0  0
    5.5500   -3.8340   26.5250 N   0  0  0  0  0  0  0  0  0  0  0  0
    6.3850   -2.9640   27.2580 C   0  0  0  0  0  0  0  0  0  0  0  0
    6.7640   -3.7530   28.4680 C   0  0  0  0  0  0  0  0  0  0  0  0
    5.7470   -4.0190   29.2720 C   0  0  0  0  0  0  0  0  0  0  0  0
    5.3620   -2.7690   29.8660 N   0  0  0  0  0  0  0  0  0  0  0  0
    4.0900   -2.5530   30.4390 C   0  0  0  0  0  0  0  0  0  0  0  0
    4.0280   -1.2900   30.9040 C   0  0  0  0  0  0  0  0  0  0  0  0
    2.8440   -0.7470   31.5510 C   0  0  0  0  0  0  0  0  0  0  0  0
    2.2840   -1.7040   32.3200 N   0  0  0  0  0  0  0  0  0  0  0  0
    1.2200   -1.2640   33.0170 C   0  0  0  0  0  0  0  0  0  0  0  0
    1.2630   -0.2970   34.0030 C   0  0  0  0  0  0  0  0  0  0  0  0
    0.1940   -1.9340   32.5590 O   0  0  0  0  0  0  0  0  0  0  0  0
    5.2070   -0.6990   30.6540 N   0  0  0  0  0  0  0  0  0  0  0  0
    5.9950   -1.6050   30.0250 N   0  0  0  0  0  0  0  0  0  0  0  0
    4.7830   -4.6530   28.5880 C   0  0  0  0  0  0  0  0  0  0  0  0
    4.3690   -3.9790   27.3540 C   0  0  0  0  0  0  0  0  0  0  0  0
    5.7130   -5.0810   23.2640 C   0  0  0  0  0  0  0  0  0  0  0  0
    6.6580   -5.5580   22.3720 C   0  0  0  0  0  0  0  0  0  0  0  0
  1  2  1  0
  2  3  2  0
  2  4  1  0
  4  5  1  0
  5  6  1  0
  6  7  1  0
  7  8  1  0
  8  9  2  0
  8 10  1  0
 10 11  1  0
 11 12  1  0
 12 13  1  0
 13 14  1  0
 14 15  1  0
 15 16  2  0
 16 17  1  0
 17 18  1  0
 18 19  1  0
 19 20  1  0
 19 21  2  0
 16 22  1  0
 14 23  1  0
 22 23  2  0
 13 24  1  0
 10 25  1  0
 24 25  1  0
  7 26  1  0
  4 27  1  0
 26 27  1  0
M  END
