piperidine-amides-14525-covalent
     RDKit          3D

 23 24  0  0  0  0  0  0  0  0999 V2000
    7.0610   -3.3390   19.3270 C   0  0  0  0  0  0  0  0  0  0  0  0
    6.3920   -4.1750   20.3220 C   0  0  0  0  0  0  0  0  0  0  0  0
    5.3780   -4.8070   19.9730 O   0  0  0  0  0  0  0  0  0  0  0  0
    6.9310   -4.2910   21.6320 N   0  0  0  0  0  0  0  0  0  0  0  0
    7.7290   -3.2250   22.1670 C   0  0  0  0  0  0  0  0  0  0  0  0
    7.0250   -2.6390   23.3440 C   0  0  0  0  0  0  0  0  0  0  0  0
    6.6260   -3.8080   24.2030 C   0  0  0  0  0  0  0  0  0  0  0  0
    5.8300   -3.2990   25.3690 C   0  0  0  0  0  0  0  0  0  0  0  0
    4.6180   -3.1730   25.1930 O   0  0  0  0  0  0  0  0  0  0  0  0
    6.5030   -3.0050   26.5490 N   0  0  0  0  0  0  0  0  0  0  0  0
    6.4220   -1.7150   27.1540 C   0  0  0  0  0  0  0  0  0  0  0  0
    6.1340   -0.5020   26.5360 C   0  0  0  0  0  0  0  0  0  0  0  0
    6.0770    0.6880   27.2420 C   0  0  0  0  0  0  0  0  0  0  0  0
    6.2890    0.8390   28.6240 C   0  0  0  0  0  0  0  0  0  0  0  0
    6.6050   -0.4350   29.3650 C   0  0  0  0  0  0  0  0  0  0  0  0
    6.8030   -0.3710   30.7070 N   0  0  0  0  0  0  0  0  0  0  0  0
    5.7310   -0.2550   31.4920 C   0  0  0  0  0  0  0  0  0  0  0  0
    7.9240    0.3600   31.2170 C   0  0  0  0  0  0  0  0  0  0  0  0
    8.0120    0.3980   32.7190 C   0  0  0  0  0  0  0  0  0  0  0  0
    8.7940    0.9440   30.5410 O   0  0  0  0  0  0  0  0  0  0  0  0
    6.6580   -1.6230   28.5940 C   0  0  0  0  0  0  0  0  0  0  0  0
    5.7200   -4.7480   23.4290 C   0  0  0  0  0  0  0  0  0  0  0  0
    6.5450   -5.3650   22.5050 C   0  0  0  0  0  0  0  0  0  0  0  0
  1  2  1  0
  2  3  2  0
  2  4  1  0
  4  5  1  0
  5  6  1  0
  6  7  1  0
  7  8  1  0
  8  9  2  0
  8 10  1  0
 10 11  1  0
 11 12  2  0
 12 13  1  0
 13 14  2  0
 14 15  1  0
 15 16  1  0
 16 17  1  0
 16 18  1  0
 18 19  1  0
 18 20  2  0
 11 21  1  0
 15 21  2  0
  7 22  1  0
  4 23  1  0
 22 23  1  0
M  END
