piperidine-amides-30071-covalent
     RDKit          3D

 26 27  0  0  0  0  0  0  0  0999 V2000
    7.0810   -3.3560   19.2950 C   0  0  0  0  0  0  0  0  0  0  0  0
    6.4120   -4.1900   20.2860 C   0  0  0  0  0  0  0  0  0  0  0  0
    5.3820   -4.7900   19.9770 O   0  0  0  0  0  0  0  0  0  0  0  0
    6.9850   -4.3750   21.5960 N   0  0  0  0  0  0  0  0  0  0  0  0
    6.6210   -5.5210   22.3680 C   0  0  0  0  0  0  0  0  0  0  0  0
    5.9560   -5.0640   23.6360 C   0  0  0  0  0  0  0  0  0  0  0  0
    6.6740   -3.8300   24.1840 C   0  0  0  0  0  0  0  0  0  0  0  0
    5.8160   -3.2080   25.2260 C   0  0  0  0  0  0  0  0  0  0  0  0
    4.8960   -2.4210   24.9420 O   0  0  0  0  0  0  0  0  0  0  0  0
    6.0270   -3.5380   26.5690 N   0  0  0  0  0  0  0  0  0  0  0  0
    6.0420   -4.9610   26.7760 C   0  0  0  0  0  0  0  0  0  0  0  0
    5.6760   -5.0790   28.1830 C   0  0  1  0  0  0  0  0  0  0  0  0
    6.5380   -5.6310   29.0390 C   0  0  0  0  0  0  0  0  0  0  0  0
    6.1700   -6.4550   29.9110 O   0  0  0  0  0  0  0  0  0  0  0  0
    7.8380   -5.2880   28.9890 O   0  0  0  0  0  0  0  0  0  0  0  0
    8.5100   -4.6960   27.9310 C   0  0  0  0  0  0  0  0  0  0  0  0
    8.5850   -3.3400   28.1690 C   0  0  0  0  0  0  0  0  0  0  0  0
    9.5930   -5.4520   27.9830 C   0  0  0  0  0  0  0  0  0  0  0  0
    8.0710   -5.0770   26.7080 C   0  0  0  0  0  0  0  0  0  0  0  0
    5.4250   -3.8120   28.7810 C   0  0  2  0  0  0  0  0  0  0  0  0
    4.1750   -3.3370   28.3570 C   0  0  0  0  0  0  0  0  0  0  0  0
    3.1400   -4.2130   28.3650 F   0  0  0  0  0  0  0  0  0  0  0  0
    3.6850   -2.3030   29.0830 F   0  0  0  0  0  0  0  0  0  0  0  0
    5.4230   -2.7940   27.7070 C   0  0  0  0  0  0  0  0  0  0  0  0
    7.0010   -2.7720   23.1480 C   0  0  0  0  0  0  0  0  0  0  0  0
    7.8190   -3.3830   22.2190 C   0  0  0  0  0  0  0  0  0  0  0  0
  1  2  1  0
  2  3  2  0
  2  4  1  0
  4  5  1  0
  5  6  1  0
  6  7  1  0
  7  8  1  0
  8  9  2  0
  8 10  1  0
 10 11  1  0
 11 12  1  0
 12 13  1  1
 13 14  2  0
 13 15  1  0
 16 15  1  0
 16 17  1  0
 16 18  1  0
 16 19  1  0
 12 20  1  0
 20 21  1  6
 21 22  1  0
 21 23  1  0
 10 24  1  0
 20 24  1  0
  7 25  1  0
  4 26  1  0
 25 26  1  0
M  END
