piperidine-amides-5095-covalent
     RDKit          3D

 22 24  0  0  0  0  0  0  0  0999 V2000
    7.1650   -3.2760   19.1910 C   0  0  0  0  0  0  0  0  0  0  0  0
    6.3610   -3.9870   20.2070 C   0  0  0  0  0  0  0  0  0  0  0  0
    5.2670   -4.4690   19.8480 O   0  0  0  0  0  0  0  0  0  0  0  0
    6.8680   -4.1420   21.4980 N   0  0  0  0  0  0  0  0  0  0  0  0
    6.4950   -5.2490   22.3060 C   0  0  0  0  0  0  0  0  0  0  0  0
    6.0670   -4.8900   23.6590 C   0  0  0  0  0  0  0  0  0  0  0  0
    6.6680   -3.6520   24.2170 C   0  0  0  0  0  0  0  0  0  0  0  0
    5.8610   -3.1430   25.3470 C   0  0  0  0  0  0  0  0  0  0  0  0
    4.6260   -3.0840   25.2060 O   0  0  0  0  0  0  0  0  0  0  0  0
    6.4700   -2.7200   26.5400 N   0  0  0  0  0  0  0  0  0  0  0  0
    6.2130   -3.3310   27.8680 C   0  0  0  0  0  0  0  0  0  0  0  0
    5.0850   -4.3190   27.9020 C   0  0  0  0  0  0  0  0  0  0  0  0
    3.8080   -3.8930   27.2960 C   0  0  0  0  0  0  0  0  0  0  0  0
    2.7450   -4.8620   27.3480 N   0  0  0  0  0  0  0  0  0  0  0  0
    2.8990   -6.1210   27.9320 C   0  0  0  0  0  0  0  0  0  0  0  0
    4.1340   -6.3830   28.4590 C   0  0  0  0  0  0  0  0  0  0  0  0
    5.1880   -5.5760   28.4660 C   0  0  0  0  0  0  0  0  0  0  0  0
    6.2790   -6.0840   29.0490 C   0  0  0  0  0  0  0  0  0  0  0  0
    5.8030   -7.2220   29.6760 C   0  0  0  0  0  0  0  0  0  0  0  0
    4.5370   -7.5350   29.0890 C   0  0  0  0  0  0  0  0  0  0  0  0
    6.9390   -2.5640   23.2620 C   0  0  0  0  0  0  0  0  0  0  0  0
    7.7140   -3.1350   22.1210 C   0  0  0  0  0  0  0  0  0  0  0  0
  1  2  1  0
  2  3  2  0
  2  4  1  0
  4  5  1  0
  5  6  1  0
  6  7  1  0
  7  8  1  0
  8  9  2  0
  8 10  1  0
 10 11  1  0
 11 12  1  0
 12 13  2  0
 13 14  1  0
 14 15  2  0
 15 16  1  0
 12 17  1  0
 16 17  2  0
 17 18  1  0
 18 19  1  0
 16 20  1  0
 19 20  1  0
  7 21  1  0
  4 22  1  0
 21 22  1  0
M  END
