piperidine-amides-13865-covalent
     RDKit          3D

 26 27  0  0  0  0  0  0  0  0999 V2000
    7.2060   -3.9540   19.6460 C   0  0  0  0  0  0  0  0  0  0  0  0
    5.9460   -3.8460   20.2730 C   0  0  0  0  0  0  0  0  0  0  0  0
    4.9560   -3.9260   19.5450 O   0  0  0  0  0  0  0  0  0  0  0  0
    5.9990   -3.7720   21.6520 N   0  0  0  0  0  0  0  0  0  0  0  0
    5.7310   -4.9660   22.3950 C   0  0  0  0  0  0  0  0  0  0  0  0
    5.2260   -4.4880   23.7430 C   0  0  0  0  0  0  0  0  0  0  0  0
    6.3060   -3.6950   24.4100 C   0  0  0  0  0  0  0  0  0  0  0  0
    5.7920   -3.0180   25.6050 C   0  0  0  0  0  0  0  0  0  0  0  0
    4.5590   -2.9100   25.6790 O   0  0  0  0  0  0  0  0  0  0  0  0
    6.6740   -2.5340   26.5740 N   0  0  0  0  0  0  0  0  0  0  0  0
    6.7800   -3.0030   27.9010 C   0  0  0  0  0  0  0  0  0  0  0  0
    6.0490   -4.0580   28.3790 C   0  0  0  0  0  0  0  0  0  0  0  0
    4.7010   -4.0040   28.7760 C   0  0  0  0  0  0  0  0  0  0  0  0
    4.0530   -5.1330   29.2430 C   0  0  0  0  0  0  0  0  0  0  0  0
    4.7890   -6.4260   29.3310 C   0  0  0  0  0  0  0  0  0  0  0  0
    4.1920   -7.7430   29.8270 C   0  0  0  0  0  0  0  0  0  0  0  0
    6.0770   -6.4050   28.9360 C   0  0  0  0  0  0  0  0  0  0  0  0
    6.6620   -5.2620   28.4820 C   0  0  0  0  0  0  0  0  0  0  0  0
    7.9610   -5.4490   28.1240 O   0  0  0  0  0  0  0  0  0  0  0  0
    8.2410   -6.0090   26.8740 C   0  0  0  0  0  0  0  0  0  0  0  0
    9.2540   -5.3090   26.0110 C   0  0  0  0  0  0  0  0  0  0  0  0
   10.1180   -4.5840   26.7340 C   0  0  0  0  0  0  0  0  0  0  0  0
    9.1670   -3.8440   25.7780 C   0  0  0  0  0  0  0  0  0  0  0  0
    9.9010   -4.6080   28.0920 C   0  0  0  0  0  0  0  0  0  0  0  0
    6.9030   -2.5850   23.5590 C   0  0  0  0  0  0  0  0  0  0  0  0
    7.1140   -2.9840   22.1570 C   0  0  0  0  0  0  0  0  0  0  0  0
  1  2  1  0
  2  3  2  0
  2  4  1  0
  4  5  1  0
  5  6  1  0
  6  7  1  0
  7  8  1  0
  8  9  2  0
  8 10  1  0
 10 11  1  0
 11 12  1  0
 12 13  2  0
 13 14  1  0
 14 15  2  0
 15 16  1  0
 15 17  1  0
 12 18  1  0
 17 18  2  0
 18 19  1  0
 19 20  1  0
 20 21  1  0
 21 22  1  0
 22 23  1  0
 22 24  1  0
  7 25  1  0
  4 26  1  0
 25 26  1  0
M  END
