piperidine-amides-10527-covalent
     RDKit          3D

 24 25  0  0  0  0  0  0  0  0999 V2000
    7.0960   -3.2620   19.1780 C   0  0  0  0  0  0  0  0  0  0  0  0
    6.3500   -3.9820   20.2140 C   0  0  0  0  0  0  0  0  0  0  0  0
    5.2710   -4.5260   19.8690 O   0  0  0  0  0  0  0  0  0  0  0  0
    6.8610   -4.0790   21.5080 N   0  0  0  0  0  0  0  0  0  0  0  0
    6.6140   -5.2530   22.3110 C   0  0  0  0  0  0  0  0  0  0  0  0
    5.8390   -4.8180   23.5260 C   0  0  0  0  0  0  0  0  0  0  0  0
    5.9680   -3.3340   23.7770 C   0  0  0  0  0  0  0  0  0  0  0  0
    5.5700   -2.9740   25.1540 C   0  0  0  0  0  0  0  0  0  0  0  0
    4.4300   -2.5080   25.3460 O   0  0  0  0  0  0  0  0  0  0  0  0
    6.4200   -3.1660   26.2480 N   0  0  0  0  0  0  0  0  0  0  0  0
    6.7630   -4.5200   26.5260 C   0  0  1  0  0  0  0  0  0  0  0  0
    8.1960   -4.7830   26.1150 C   0  0  0  0  0  0  0  0  0  0  0  0
    8.9670   -5.6760   26.7620 C   0  0  0  0  0  0  0  0  0  0  0  0
    8.9880   -5.6460   28.1110 C   0  0  0  0  0  0  0  0  0  0  0  0
    6.2750   -4.9270   27.8760 C   0  0  0  0  0  0  0  0  0  0  0  0
    5.6720   -6.1670   27.7960 C   0  0  0  0  0  0  0  0  0  0  0  0
    5.0440   -6.6870   28.9050 C   0  0  0  0  0  0  0  0  0  0  0  0
    3.5900   -7.1280   28.7930 C   0  0  0  0  0  0  0  0  0  0  0  0
    3.0320   -7.6810   30.1020 C   0  0  0  0  0  0  0  0  0  0  0  0
    3.8740   -7.7580   31.3380 C   0  0  0  0  0  0  0  0  0  0  0  0
    5.3030   -7.2890   31.3100 C   0  0  0  0  0  0  0  0  0  0  0  0
    5.7510   -6.7990   30.1000 C   0  0  0  0  0  0  0  0  0  0  0  0
    7.4100   -2.9180   23.5560 C   0  0  0  0  0  0  0  0  0  0  0  0
    7.7180   -3.0550   22.0770 C   0  0  0  0  0  0  0  0  0  0  0  0
  1  2  1  0
  2  3  2  0
  2  4  1  0
  4  5  1  0
  5  6  1  0
  6  7  1  0
  7  8  1  0
  8  9  2  0
  8 10  1  0
 10 11  1  0
 11 12  1  1
 12 13  1  0
 13 14  1  0
 11 15  1  0
 15 16  1  0
 16 17  1  0
 17 18  2  0
 18 19  1  0
 19 20  2  0
 20 21  1  0
 17 22  1  0
 21 22  2  0
  7 23  1  0
  4 24  1  0
 23 24  1  0
M  END
