piperidine-amides-12723-covalent
     RDKit          3D

 22 23  0  0  0  0  0  0  0  0999 V2000
    7.1420   -3.2990   19.2230 C   0  0  0  0  0  0  0  0  0  0  0  0
    6.3790   -4.0120   20.2680 C   0  0  0  0  0  0  0  0  0  0  0  0
    5.3170   -4.5570   19.9030 O   0  0  0  0  0  0  0  0  0  0  0  0
    6.8780   -4.1030   21.5830 N   0  0  0  0  0  0  0  0  0  0  0  0
    6.6080   -5.2690   22.3530 C   0  0  0  0  0  0  0  0  0  0  0  0
    6.0630   -4.9290   23.6640 C   0  0  0  0  0  0  0  0  0  0  0  0
    6.1370   -3.4790   23.9330 C   0  0  0  0  0  0  0  0  0  0  0  0
    5.6700   -3.1040   25.2930 C   0  0  0  0  0  0  0  0  0  0  0  0
    4.4970   -2.6980   25.3950 O   0  0  0  0  0  0  0  0  0  0  0  0
    6.4770   -3.1840   26.4380 N   0  0  0  0  0  0  0  0  0  0  0  0
    6.0850   -4.0150   27.6030 C   0  0  0  0  0  0  0  0  0  0  0  0
    5.1700   -5.1170   27.1760 C   0  0  0  0  0  0  0  0  0  0  0  0
    4.7640   -5.3410   25.8370 N   0  0  0  0  0  0  0  0  0  0  0  0
    3.8730   -6.4270   25.5890 C   0  0  0  0  0  0  0  0  0  0  0  0
    3.4500   -6.6950   24.3040 C   0  0  0  0  0  0  0  0  0  0  0  0
    3.3570   -7.3210   26.7140 C   0  0  0  0  0  0  0  0  0  0  0  0
    2.4950   -8.3320   26.4270 C   0  0  0  0  0  0  0  0  0  0  0  0
    3.7690   -7.1060   28.0750 N   0  0  0  0  0  0  0  0  0  0  0  0
    4.7030   -5.9890   28.3330 C   0  0  0  0  0  0  0  0  0  0  0  0
    5.0640   -5.8460   29.6420 C   0  0  0  0  0  0  0  0  0  0  0  0
    7.5170   -2.9750   23.6260 C   0  0  0  0  0  0  0  0  0  0  0  0
    7.7510   -3.0800   22.1580 C   0  0  0  0  0  0  0  0  0  0  0  0
  1  2  1  0
  2  3  2  0
  2  4  1  0
  4  5  1  0
  5  6  1  0
  6  7  1  0
  7  8  1  0
  8  9  2  0
  8 10  1  0
 10 11  1  0
 11 12  1  0
 12 13  2  0
 13 14  1  0
 14 15  1  0
 14 16  2  0
 16 17  1  0
 16 18  1  0
 12 19  1  0
 18 19  2  0
 19 20  1  0
  7 21  1  0
  4 22  1  0
 21 22  1  0
M  END
