piperidine-amides-34365-covalent
     RDKit          3D

 30 31  0  0  0  0  0  0  0  0999 V2000
    7.0500   -3.3490   19.3100 C   0  0  0  0  0  0  0  0  0  0  0  0
    6.3100   -4.1460   20.3070 C   0  0  0  0  0  0  0  0  0  0  0  0
    5.3320   -4.8380   19.9660 O   0  0  0  0  0  0  0  0  0  0  0  0
    6.7190   -4.1620   21.6390 N   0  0  0  0  0  0  0  0  0  0  0  0
    6.6580   -5.4260   22.3470 C   0  0  0  0  0  0  0  0  0  0  0  0
    6.2170   -5.1580   23.7980 C   0  0  0  0  0  0  0  0  0  0  0  0
    6.1950   -3.6570   24.0210 C   0  0  0  0  0  0  0  0  0  0  0  0
    5.9630   -3.2800   25.4350 C   0  0  0  0  0  0  0  0  0  0  0  0
    5.2100   -2.3000   25.6090 O   0  0  0  0  0  0  0  0  0  0  0  0
    6.4920   -3.9770   26.5720 N   0  0  0  0  0  0  0  0  0  0  0  0
    5.4700   -4.5480   27.4220 C   0  0  0  0  0  0  0  0  0  0  0  0
    5.0620   -5.8340   26.7260 C   0  0  0  0  0  0  0  0  0  0  0  0
    4.3210   -3.6050   27.4000 C   0  0  0  0  0  0  0  0  0  0  0  0
    5.8310   -4.7720   28.7980 C   0  0  0  0  0  0  0  0  0  0  0  0
    7.1040   -5.2290   28.9180 O   0  0  0  0  0  0  0  0  0  0  0  0
    7.6510   -5.7390   27.7310 C   0  0  0  0  0  0  0  0  0  0  0  0
    7.7880   -4.7750   26.7490 C   0  0  1  0  0  0  0  0  0  0  0  0
    8.6040   -5.0790   25.5260 C   0  0  0  0  0  0  0  0  0  0  0  0
    8.7730   -4.0060   24.7240 O   0  0  0  0  0  0  0  0  0  0  0  0
    9.0940   -4.0520   26.5370 C   0  0  0  0  0  0  0  0  0  0  0  0
   10.1200   -4.5190   25.5610 N   0  0  0  0  0  0  0  0  0  0  0  0
   11.1410   -3.4740   25.2910 C   0  0  0  0  0  0  0  0  0  0  0  0
   12.2750   -3.6550   25.7420 O   0  0  0  0  0  0  0  0  0  0  0  0
   10.9040   -2.3220   24.5380 O   0  0  0  0  0  0  0  0  0  0  0  0
   11.9170   -1.6360   23.8290 C   0  0  0  0  0  0  0  0  0  0  0  0
   13.1940   -1.5690   24.4010 C   0  0  0  0  0  0  0  0  0  0  0  0
   12.9900   -2.3540   23.1020 C   0  0  0  0  0  0  0  0  0  0  0  0
   11.5520   -0.2850   23.1660 C   0  0  0  0  0  0  0  0  0  0  0  0
    7.4060   -2.8930   23.5520 C   0  0  0  0  0  0  0  0  0  0  0  0
    7.6150   -3.1140   22.0660 C   0  0  0  0  0  0  0  0  0  0  0  0
  1  2  1  0
  2  3  2  0
  2  4  1  0
  4  5  1  0
  5  6  1  0
  6  7  1  0
  7  8  1  0
  8  9  2  0
  8 10  1  0
 10 11  1  0
 11 12  1  0
 11 13  1  0
 11 14  1  0
 14 15  1  0
 15 16  1  0
 10 17  1  0
 16 17  1  0
 17 18  1  6
 18 19  1  0
 17 20  1  0
 20 21  1  0
 21 22  1  0
 22 23  2  0
 22 24  1  0
 25 24  1  0
 25 26  1  0
 25 27  1  0
 25 28  1  0
  7 29  1  0
  4 30  1  0
 29 30  1  0
M  END
