piperidine-amides-8117-covalent
     RDKit          3D

 25 27  0  0  0  0  0  0  0  0999 V2000
    7.0340   -3.3470   19.3870 C   0  0  0  0  0  0  0  0  0  0  0  0
    6.3950   -4.2200   20.3720 C   0  0  0  0  0  0  0  0  0  0  0  0
    5.3950   -4.8590   19.9920 O   0  0  0  0  0  0  0  0  0  0  0  0
    6.9260   -4.3690   21.6880 N   0  0  0  0  0  0  0  0  0  0  0  0
    6.5150   -5.5170   22.4520 C   0  0  0  0  0  0  0  0  0  0  0  0
    6.1400   -5.1310   23.8670 C   0  0  0  0  0  0  0  0  0  0  0  0
    6.0190   -3.6230   23.9530 C   0  0  0  0  0  0  0  0  0  0  0  0
    5.4140   -3.1770   25.2660 C   0  0  0  0  0  0  0  0  0  0  0  0
    4.1880   -3.1490   25.2730 O   0  0  0  0  0  0  0  0  0  0  0  0
    6.1860   -2.8490   26.3830 N   0  0  0  0  0  0  0  0  0  0  0  0
    6.8510   -1.5980   26.6090 C   0  0  2  0  0  0  0  0  0  0  0  0
    7.1660   -1.3890   28.0000 C   0  0  0  0  0  0  0  0  0  0  0  0
    6.3030   -0.8600   28.9390 C   0  0  0  0  0  0  0  0  0  0  0  0
    5.9930    0.4830   28.9930 C   0  0  0  0  0  0  0  0  0  0  0  0
    5.6230    0.6080   27.5800 C   0  0  0  0  0  0  0  0  0  0  0  0
    4.8140    1.6560   26.9000 C   0  0  0  0  0  0  0  0  0  0  0  0
    4.7830    1.2850   25.5480 N   0  0  0  0  0  0  0  0  0  0  0  0
    5.4860    0.1270   25.3130 N   0  0  0  0  0  0  0  0  0  0  0  0
    5.6230   -0.4500   24.0230 C   0  0  0  0  0  0  0  0  0  0  0  0
    6.1190    0.4630   22.9250 C   0  0  0  0  0  0  0  0  0  0  0  0
    6.1370   -0.0260   21.7620 O   0  0  0  0  0  0  0  0  0  0  0  0
    5.3000   -0.9660   21.1830 C   0  0  0  0  0  0  0  0  0  0  0  0
    6.0100   -0.3310   26.5200 C   0  0  0  0  0  0  0  0  0  0  0  0
    7.3900   -3.0930   23.7010 C   0  0  0  0  0  0  0  0  0  0  0  0
    7.7080   -3.2790   22.2480 C   0  0  0  0  0  0  0  0  0  0  0  0
  1  2  1  0
  2  3  2  0
  2  4  1  0
  4  5  1  0
  5  6  1  0
  6  7  1  0
  7  8  1  0
  8  9  2  0
  8 10  1  0
 11 10  1  1
 11 12  1  0
 12 13  1  0
 13 14  1  0
 14 15  1  0
 15 16  1  0
 16 17  2  0
 17 18  1  0
 18 19  1  0
 19 20  1  0
 20 21  1  0
 21 22  1  0
 11 23  1  0
 15 23  2  0
 18 23  1  0
  7 24  1  0
  4 25  1  0
 24 25  1  0
M  END
