piperidine-amides-10202-covalent
     RDKit          3D

 25 27  0  0  0  0  0  0  0  0999 V2000
    7.0170   -3.3470   19.3690 C   0  0  0  0  0  0  0  0  0  0  0  0
    6.3730   -4.1890   20.3840 C   0  0  0  0  0  0  0  0  0  0  0  0
    5.3900   -4.8710   19.9900 O   0  0  0  0  0  0  0  0  0  0  0  0
    6.8670   -4.2470   21.7010 N   0  0  0  0  0  0  0  0  0  0  0  0
    6.7180   -5.4600   22.4760 C   0  0  0  0  0  0  0  0  0  0  0  0
    6.0380   -5.0890   23.7630 C   0  0  0  0  0  0  0  0  0  0  0  0
    6.0590   -3.5990   23.9380 C   0  0  0  0  0  0  0  0  0  0  0  0
    5.6600   -3.2110   25.3190 C   0  0  0  0  0  0  0  0  0  0  0  0
    4.4460   -3.3240   25.5970 O   0  0  0  0  0  0  0  0  0  0  0  0
    6.5290   -2.7280   26.3220 N   0  0  0  0  0  0  0  0  0  0  0  0
    6.4190   -1.3720   26.8360 C   0  0  0  0  0  0  0  0  0  0  0  0
    6.1680   -0.2710   25.8320 C   0  0  0  0  0  0  0  0  0  0  0  0
    6.0510    1.0360   26.2400 C   0  0  0  0  0  0  0  0  0  0  0  0
    6.1690    1.3230   27.5720 C   0  0  0  0  0  0  0  0  0  0  0  0
    6.3910    0.3890   28.5360 C   0  0  0  0  0  0  0  0  0  0  0  0
    6.5070   -0.9310   28.1640 C   0  0  0  0  0  0  0  0  0  0  0  0
    6.6940   -1.7050   29.1880 N   0  0  0  0  0  0  0  0  0  0  0  0
    5.8470   -2.7690   29.2630 C   0  0  0  0  0  0  0  0  0  0  0  0
    4.5740   -2.3460   30.0020 C   0  0  0  0  0  0  0  0  0  0  0  0
    4.5430   -1.0580   30.6350 N   0  0  0  0  0  0  0  0  0  0  0  0
    5.7320   -0.6510   31.1010 C   0  0  0  0  0  0  0  0  0  0  0  0
    5.8130   -0.0270   32.1790 O   0  0  0  0  0  0  0  0  0  0  0  0
    7.0120   -0.9280   30.3660 C   0  0  0  0  0  0  0  0  0  0  0  0
    7.4190   -3.0550   23.6090 C   0  0  0  0  0  0  0  0  0  0  0  0
    7.7230   -3.1810   22.2630 C   0  0  0  0  0  0  0  0  0  0  0  0
  1  2  1  0
  2  3  2  0
  2  4  1  0
  4  5  1  0
  5  6  1  0
  6  7  1  0
  7  8  1  0
  8  9  2  0
  8 10  1  0
 10 11  1  0
 11 12  2  0
 12 13  1  0
 13 14  2  0
 14 15  1  0
 11 16  1  0
 15 16  2  0
 16 17  1  0
 17 18  1  0
 18 19  1  0
 19 20  1  0
 20 21  1  0
 21 22  2  0
 17 23  1  0
 21 23  1  0
  7 24  1  0
  4 25  1  0
 24 25  1  0
M  END
