piperidine-amides-14562-covalent
     RDKit          3D

 23 24  0  0  0  0  0  0  0  0999 V2000
    7.0520   -3.3440   19.3400 C   0  0  0  0  0  0  0  0  0  0  0  0
    6.4000   -4.1940   20.3350 C   0  0  0  0  0  0  0  0  0  0  0  0
    5.3920   -4.8330   19.9820 O   0  0  0  0  0  0  0  0  0  0  0  0
    6.9440   -4.3120   21.6430 N   0  0  0  0  0  0  0  0  0  0  0  0
    7.7000   -3.2280   22.2020 C   0  0  0  0  0  0  0  0  0  0  0  0
    6.9410   -2.6470   23.3480 C   0  0  0  0  0  0  0  0  0  0  0  0
    6.5830   -3.8120   24.2360 C   0  0  0  0  0  0  0  0  0  0  0  0
    5.7420   -3.3330   25.3890 C   0  0  0  0  0  0  0  0  0  0  0  0
    4.5270   -3.3330   25.2030 O   0  0  0  0  0  0  0  0  0  0  0  0
    6.3650   -2.9190   26.5730 N   0  0  0  0  0  0  0  0  0  0  0  0
    6.6760   -1.5440   26.8260 C   0  0  1  0  0  0  0  0  0  0  0  0
    5.6810   -0.6220   26.4620 C   0  0  0  0  0  0  0  0  0  0  0  0
    5.7290    0.6500   27.0010 C   0  0  0  0  0  0  0  0  0  0  0  0
    6.1500    0.9190   28.2980 C   0  0  0  0  0  0  0  0  0  0  0  0
    6.1440   -0.4170   28.9600 C   0  0  2  0  0  0  0  0  0  0  0  0
    6.3910   -0.3180   30.4810 C   0  0  0  0  0  0  0  0  0  0  0  0
    5.7250   -1.2010   31.0740 O   0  0  0  0  0  0  0  0  0  0  0  0
    7.2050    0.6340   31.1290 N   0  0  0  0  0  0  0  0  0  0  0  0
    8.5710    0.2610   31.2870 C   0  0  0  0  0  0  0  0  0  0  0  0
    7.0230    1.9940   30.6810 C   0  0  0  0  0  0  0  0  0  0  0  0
    6.9440   -1.3750   28.2790 C   0  0  0  0  0  0  0  0  0  0  0  0
    5.7440   -4.8160   23.4620 C   0  0  0  0  0  0  0  0  0  0  0  0
    6.5630   -5.3950   22.5110 C   0  0  0  0  0  0  0  0  0  0  0  0
  1  2  1  0
  2  3  2  0
  2  4  1  0
  4  5  1  0
  5  6  1  0
  6  7  1  0
  7  8  1  0
  8  9  2  0
  8 10  1  0
 11 10  1  1
 11 12  1  0
 12 13  1  0
 13 14  1  0
 14 15  1  0
 15 16  1  1
 16 17  2  0
 16 18  1  0
 18 19  1  0
 18 20  1  0
 11 21  1  0
 15 21  1  0
  7 22  1  0
  4 23  1  0
 22 23  1  0
M  END
