piperidine-amides-27543-covalent
     RDKit          3D

 26 29  0  0  0  0  0  0  0  0999 V2000
    7.1040   -3.3250   19.2500 C   0  0  0  0  0  0  0  0  0  0  0  0
    6.4340   -4.1240   20.2770 C   0  0  0  0  0  0  0  0  0  0  0  0
    5.3720   -4.7150   19.9460 O   0  0  0  0  0  0  0  0  0  0  0  0
    7.0090   -4.2400   21.5410 N   0  0  0  0  0  0  0  0  0  0  0  0
    6.7030   -5.3450   22.4040 C   0  0  0  0  0  0  0  0  0  0  0  0
    6.1070   -4.7840   23.6690 C   0  0  0  0  0  0  0  0  0  0  0  0
    6.8520   -3.5730   24.2110 C   0  0  0  0  0  0  0  0  0  0  0  0
    6.1230   -3.0170   25.3710 C   0  0  0  0  0  0  0  0  0  0  0  0
    5.3810   -2.0250   25.2360 O   0  0  0  0  0  0  0  0  0  0  0  0
    6.2270   -3.6470   26.5950 N   0  0  0  0  0  0  0  0  0  0  0  0
    6.0390   -3.0960   27.8840 C   0  0  0  0  0  0  0  0  0  0  0  0
    5.5310   -4.3240   28.6380 C   0  0  2  0  0  0  0  0  0  0  0  0
    6.3570   -5.1990   29.3130 C   0  0  0  0  0  0  0  0  0  0  0  0
    6.2360   -6.5020   28.8870 C   0  0  0  0  0  0  0  0  0  0  0  0
    5.1640   -6.4200   28.1210 N   0  0  0  0  0  0  0  0  0  0  0  0
    4.0930   -7.1990   28.2320 C   0  0  0  0  0  0  0  0  0  0  0  0
    3.5330   -7.4990   26.9930 C   0  0  0  0  0  0  0  0  0  0  0  0
    4.1420   -7.1380   25.7800 C   0  0  0  0  0  0  0  0  0  0  0  0
    3.7060   -7.3720   24.3430 C   0  0  0  0  0  0  0  0  0  0  0  0
    2.3990   -8.1170   24.2630 C   0  0  0  0  0  0  0  0  0  0  0  0
    1.6590   -8.5510   25.4790 C   0  0  0  0  0  0  0  0  0  0  0  0
    2.2090   -8.2510   26.8550 C   0  0  0  0  0  0  0  0  0  0  0  0
    4.9050   -5.0890   27.8510 C   0  0  2  0  0  0  0  0  0  0  0  0
    5.6090   -4.8890   26.5420 C   0  0  0  0  0  0  0  0  0  0  0  0
    7.0210   -2.5140   23.1870 C   0  0  0  0  0  0  0  0  0  0  0  0
    7.8060   -3.1410   22.0500 C   0  0  0  0  0  0  0  0  0  0  0  0
  1  2  1  0
  2  3  2  0
  2  4  1  0
  4  5  1  0
  5  6  1  0
  6  7  1  0
  7  8  1  0
  8  9  2  0
  8 10  1  0
 10 11  1  0
 12 11  1  6
 12 13  1  0
 13 14  1  0
 14 15  1  0
 15 16  1  0
 16 17  1  0
 17 18  2  0
 18 19  1  0
 19 20  2  0
 20 21  1  0
 17 22  1  0
 21 22  2  0
 12 23  1  0
 15 23  1  0
 10 24  1  0
 23 24  1  6
  7 25  1  0
  4 26  1  0
 25 26  1  0
M  END
