piperidine-amides-12484-covalent
     RDKit          3D

 24 25  0  0  0  0  0  0  0  0999 V2000
    7.0350   -3.3510   19.3110 C   0  0  0  0  0  0  0  0  0  0  0  0
    6.3600   -4.1650   20.3140 C   0  0  0  0  0  0  0  0  0  0  0  0
    5.3760   -4.8280   19.9850 O   0  0  0  0  0  0  0  0  0  0  0  0
    6.8640   -4.2390   21.6610 N   0  0  0  0  0  0  0  0  0  0  0  0
    7.6750   -3.1650   22.1950 C   0  0  0  0  0  0  0  0  0  0  0  0
    7.4390   -2.9970   23.6690 C   0  0  0  0  0  0  0  0  0  0  0  0
    6.0720   -3.5750   23.9730 C   0  0  0  0  0  0  0  0  0  0  0  0
    5.5860   -3.2100   25.3360 C   0  0  0  0  0  0  0  0  0  0  0  0
    4.3720   -3.1840   25.6100 O   0  0  0  0  0  0  0  0  0  0  0  0
    6.5160   -2.8850   26.3490 N   0  0  0  0  0  0  0  0  0  0  0  0
    6.4010   -1.6240   27.0590 C   0  0  0  0  0  0  0  0  0  0  0  0
    7.0070   -1.6260   28.4200 C   0  0  0  0  0  0  0  0  0  0  0  0
    6.9590   -0.4880   29.1800 C   0  0  0  0  0  0  0  0  0  0  0  0
    6.3340    0.6640   28.6660 C   0  0  0  0  0  0  0  0  0  0  0  0
    5.7480    0.7180   27.3980 C   0  0  0  0  0  0  0  0  0  0  0  0
    5.2260    1.7950   27.0610 O   0  0  0  0  0  0  0  0  0  0  0  0
    4.4860    2.6830   27.8130 C   0  0  0  0  0  0  0  0  0  0  0  0
    3.5090    3.2360   27.0210 C   0  0  0  0  0  0  0  0  0  0  0  0
    2.4650    3.9500   27.5700 C   0  0  0  0  0  0  0  0  0  0  0  0
    1.1180    3.6050   27.4430 C   0  0  0  0  0  0  0  0  0  0  0  0
    1.7490    3.5930   28.8010 C   0  0  0  0  0  0  0  0  0  0  0  0
    5.8000   -0.4370   26.6250 C   0  0  0  0  0  0  0  0  0  0  0  0
    6.0890   -5.0670   23.7940 C   0  0  0  0  0  0  0  0  0  0  0  0
    6.5800   -5.4090   22.4240 C   0  0  0  0  0  0  0  0  0  0  0  0
  1  2  1  0
  2  3  2  0
  2  4  1  0
  4  5  1  0
  5  6  1  0
  6  7  1  0
  7  8  1  0
  8  9  2  0
  8 10  1  0
 10 11  1  0
 11 12  2  0
 12 13  1  0
 13 14  2  0
 14 15  1  0
 15 16  1  0
 16 17  1  0
 17 18  1  0
 18 19  1  0
 19 20  1  0
 19 21  1  0
 11 22  1  0
 15 22  2  0
  7 23  1  0
  4 24  1  0
 23 24  1  0
M  END
