piperidine-amides-1665-covalent
     RDKit          3D

 20 21  0  0  0  0  0  0  0  0999 V2000
    7.0570   -3.3250   19.3270 C   0  0  0  0  0  0  0  0  0  0  0  0
    6.3650   -4.1660   20.3400 C   0  0  0  0  0  0  0  0  0  0  0  0
    5.3850   -4.8460   19.9830 O   0  0  0  0  0  0  0  0  0  0  0  0
    6.8580   -4.2050   21.6650 N   0  0  0  0  0  0  0  0  0  0  0  0
    7.7440   -3.1630   22.1490 C   0  0  0  0  0  0  0  0  0  0  0  0
    7.6590   -3.1830   23.6690 C   0  0  0  0  0  0  0  0  0  0  0  0
    6.2870   -3.6490   23.9670 C   0  0  0  0  0  0  0  0  0  0  0  0
    5.7980   -3.2810   25.3150 C   0  0  0  0  0  0  0  0  0  0  0  0
    4.6820   -3.7170   25.6160 O   0  0  0  0  0  0  0  0  0  0  0  0
    6.5480   -2.4620   26.1730 N   0  0  0  0  0  0  0  0  0  0  0  0
    5.9750   -1.4330   26.9700 C   0  0  2  0  0  0  0  0  0  0  0  0
    5.8130   -0.1160   26.6040 C   0  0  0  0  0  0  0  0  0  0  0  0
    6.0040    0.7290   27.6940 C   0  0  0  0  0  0  0  0  0  0  0  0
    6.4320   -0.0500   28.7340 C   0  0  0  0  0  0  0  0  0  0  0  0
    6.6770   -1.4450   28.2900 C   0  0  1  0  0  0  0  0  0  0  0  0
    5.8630   -2.6010   29.3650 S   0  0  0  0  0  0  0  0  0  0  0  0
    4.6400   -1.8690   30.3930 C   0  0  0  0  0  0  0  0  0  0  0  0
    3.5250   -1.2920   29.5210 C   0  0  0  0  0  0  0  0  0  0  0  0
    6.1950   -5.1650   23.7600 C   0  0  0  0  0  0  0  0  0  0  0  0
    6.6440   -5.4540   22.3670 C   0  0  0  0  0  0  0  0  0  0  0  0
  1  2  1  0
  2  3  2  0
  2  4  1  0
  4  5  1  0
  5  6  1  0
  6  7  1  0
  7  8  1  0
  8  9  2  0
  8 10  1  0
 11 10  1  6
 11 12  1  0
 12 13  1  0
 13 14  1  0
 11 15  1  0
 14 15  1  0
 15 16  1  1
 16 17  1  0
 17 18  1  0
  7 19  1  0
  4 20  1  0
 19 20  1  0
M  END
