piperidine-amides-3070-covalent
     RDKit          3D

 23 24  0  0  0  0  0  0  0  0999 V2000
    7.0900   -3.2800   19.2120 C   0  0  0  0  0  0  0  0  0  0  0  0
    6.3270   -4.0170   20.2190 C   0  0  0  0  0  0  0  0  0  0  0  0
    5.2860   -4.5840   19.8980 O   0  0  0  0  0  0  0  0  0  0  0  0
    6.8060   -4.1300   21.5690 N   0  0  0  0  0  0  0  0  0  0  0  0
    7.7270   -3.1400   22.0780 C   0  0  0  0  0  0  0  0  0  0  0  0
    7.5440   -2.9720   23.5520 C   0  0  0  0  0  0  0  0  0  0  0  0
    6.2020   -3.5790   23.8970 C   0  0  0  0  0  0  0  0  0  0  0  0
    5.9160   -3.2880   25.3220 C   0  0  0  0  0  0  0  0  0  0  0  0
    4.7540   -3.2930   25.7800 O   0  0  0  0  0  0  0  0  0  0  0  0
    7.0130   -2.9890   26.1690 N   0  0  0  0  0  0  0  0  0  0  0  0
    7.0520   -3.5820   27.4820 C   0  0  0  0  0  0  0  0  0  0  0  0
    6.8430   -2.4660   28.4790 C   0  0  0  0  0  0  0  0  0  0  0  0
    7.9200   -1.7900   29.0390 C   0  0  0  0  0  0  0  0  0  0  0  0
    7.7540   -0.7510   29.9770 C   0  0  0  0  0  0  0  0  0  0  0  0
    6.4760   -0.3370   30.3920 N   0  0  0  0  0  0  0  0  0  0  0  0
    5.3660   -0.9730   29.8610 C   0  0  0  0  0  0  0  0  0  0  0  0
    4.1440   -0.4110   30.4010 N   0  0  0  0  0  0  0  0  0  0  0  0
    3.2530   -1.4730   30.6340 C   0  0  0  0  0  0  0  0  0  0  0  0
    4.4020    0.3340   31.5000 C   0  0  0  0  0  0  0  0  0  0  0  0
    4.9620   -0.2790   32.6030 C   0  0  0  0  0  0  0  0  0  0  0  0
    5.5830   -2.0670   28.8800 C   0  0  0  0  0  0  0  0  0  0  0  0
    6.0310   -4.9850   23.5660 C   0  0  0  0  0  0  0  0  0  0  0  0
    6.5930   -5.3290   22.3430 C   0  0  0  0  0  0  0  0  0  0  0  0
  1  2  1  0
  2  3  2  0
  2  4  1  0
  4  5  1  0
  5  6  1  0
  6  7  1  0
  7  8  1  0
  8  9  2  0
  8 10  1  0
 10 11  1  0
 11 12  1  0
 12 13  2  0
 13 14  1  0
 14 15  2  0
 15 16  1  0
 16 17  1  0
 17 18  1  0
 17 19  1  0
 19 20  1  0
 12 21  1  0
 16 21  2  0
  7 22  1  0
  4 23  1  0
 22 23  1  0
M  END
