piperidine-amides-23568-covalent
     RDKit          3D

 23 24  0  0  0  0  0  0  0  0999 V2000
    7.0560   -3.3280   19.3390 C   0  0  0  0  0  0  0  0  0  0  0  0
    6.3580   -4.1680   20.3290 C   0  0  0  0  0  0  0  0  0  0  0  0
    5.3120   -4.7400   19.9430 O   0  0  0  0  0  0  0  0  0  0  0  0
    6.8620   -4.3710   21.6380 N   0  0  0  0  0  0  0  0  0  0  0  0
    7.5580   -3.3070   22.2540 C   0  0  0  0  0  0  0  0  0  0  0  0
    7.2700   -3.2280   23.6720 C   0  0  0  0  0  0  0  0  0  0  0  0
    5.9380   -3.7010   24.0390 C   0  0  0  0  0  0  0  0  0  0  0  0
    5.4680   -3.2490   25.4120 C   0  0  0  0  0  0  0  0  0  0  0  0
    4.2470   -3.0420   25.5300 O   0  0  0  0  0  0  0  0  0  0  0  0
    6.2650   -3.0350   26.5800 N   0  0  0  0  0  0  0  0  0  0  0  0
    6.5100   -4.0780   27.5280 C   0  0  0  0  0  0  0  0  0  0  0  0
    7.0750   -5.3700   27.1450 C   0  0  0  0  0  0  0  0  0  0  0  0
    5.9890   -6.2620   27.1560 F   0  0  0  0  0  0  0  0  0  0  0  0
    7.6060   -5.3890   25.8760 F   0  0  0  0  0  0  0  0  0  0  0  0
    6.0860   -1.7150   27.2230 C   0  0  0  0  0  0  0  0  0  0  0  0
    7.0920   -1.4910   28.1510 C   0  0  0  0  0  0  0  0  0  0  0  0
    6.1900   -0.6640   29.0870 C   0  0  0  0  0  0  0  0  0  0  0  0
    6.0000    0.6640   28.5700 N   0  0  0  0  0  0  0  0  0  0  0  0
    6.7170    1.6200   29.4300 C   0  0  0  0  0  0  0  0  0  0  0  0
    5.8660    0.7980   27.2500 C   0  0  0  0  0  0  0  0  0  0  0  0
    5.8950   -0.4630   26.4300 C   0  0  0  0  0  0  0  0  0  0  0  0
    5.8040   -5.1830   23.7480 C   0  0  0  0  0  0  0  0  0  0  0  0
    6.4420   -5.5370   22.3760 C   0  0  0  0  0  0  0  0  0  0  0  0
  1  2  1  0
  2  3  2  0
  2  4  1  0
  4  5  1  0
  5  6  1  0
  6  7  1  0
  7  8  1  0
  8  9  2  0
  8 10  1  0
 10 11  1  0
 11 12  1  0
 12 13  1  0
 12 14  1  0
 10 15  1  0
 15 16  1  0
 16 17  1  0
 17 18  1  0
 18 19  1  0
 18 20  1  0
 15 21  1  0
 20 21  1  0
  7 22  1  0
  4 23  1  0
 22 23  1  0
M  END
