piperidine-amides-34905-covalent
     RDKit          3D

 30 33  0  0  0  0  0  0  0  0999 V2000
    7.0330   -3.3260   19.3500 C   0  0  0  0  0  0  0  0  0  0  0  0
    6.3750   -4.1900   20.3670 C   0  0  0  0  0  0  0  0  0  0  0  0
    5.4130   -4.8550   19.9860 O   0  0  0  0  0  0  0  0  0  0  0  0
    6.8700   -4.2530   21.6760 N   0  0  0  0  0  0  0  0  0  0  0  0
    7.7630   -3.2380   22.2130 C   0  0  0  0  0  0  0  0  0  0  0  0
    7.4690   -3.0050   23.6640 C   0  0  0  0  0  0  0  0  0  0  0  0
    6.0990   -3.5990   23.9300 C   0  0  0  0  0  0  0  0  0  0  0  0
    5.5160   -3.0230   25.1610 C   0  0  0  0  0  0  0  0  0  0  0  0
    4.4300   -2.4430   25.0500 O   0  0  0  0  0  0  0  0  0  0  0  0
    6.0760   -3.1010   26.4520 N   0  0  0  0  0  0  0  0  0  0  0  0
    6.2180   -1.7850   27.0660 C   0  0  0  0  0  0  0  0  0  0  0  0
    6.8970   -1.7830   28.4160 C   0  0  0  0  0  0  0  0  0  0  0  0
    7.1050   -0.6480   29.1610 C   0  0  0  0  0  0  0  0  0  0  0  0
    6.6720    0.5470   28.6540 C   0  0  0  0  0  0  0  0  0  0  0  0
    6.0510    0.6440   27.4390 C   0  0  0  0  0  0  0  0  0  0  0  0
    5.5110    2.1870   26.7990 Cl  0  0  0  0  0  0  0  0  0  0  0  0
    5.8010   -0.5710   26.5780 C   0  0  0  0  0  0  0  0  0  0  0  0
    5.3700   -4.0460   27.2450 C   0  0  0  0  0  0  0  0  0  0  0  0
    6.1910   -4.7950   28.2150 N   0  0  0  0  0  0  0  0  0  0  0  0
    5.3190   -5.7020   28.9310 C   0  0  0  0  0  0  0  0  0  0  0  0
    5.7770   -6.6240   29.9930 C   0  0  0  0  0  0  0  0  0  0  0  0
    4.7210   -7.4560   30.6000 C   0  0  0  0  0  0  0  0  0  0  0  0
    3.2870   -7.3410   30.1340 C   0  0  0  0  0  0  0  0  0  0  0  0
    2.2730   -8.1160   30.6940 O   0  0  0  0  0  0  0  0  0  0  0  0
    2.4450   -8.4710   32.0030 C   0  0  0  0  0  0  0  0  0  0  0  0
    2.9150   -6.4530   29.1210 C   0  0  0  0  0  0  0  0  0  0  0  0
    3.9830   -5.7150   28.6180 C   0  0  0  0  0  0  0  0  0  0  0  0
    3.7340   -4.5300   27.3380 S   0  0  0  0  0  0  0  0  0  0  0  0
    6.1620   -5.0880   23.8250 C   0  0  0  0  0  0  0  0  0  0  0  0
    6.7170   -5.4990   22.4530 C   0  0  0  0  0  0  0  0  0  0  0  0
  1  2  1  0
  2  3  2  0
  2  4  1  0
  4  5  1  0
  5  6  1  0
  6  7  1  0
  7  8  1  0
  8  9  2  0
  8 10  1  0
 10 11  1  0
 11 12  2  0
 12 13  1  0
 13 14  2  0
 14 15  1  0
 15 16  1  0
 11 17  1  0
 15 17  2  0
 10 18  1  0
 18 19  2  0
 19 20  1  0
 20 21  2  0
 21 22  1  0
 22 23  2  0
 23 24  1  0
 24 25  1  0
 23 26  1  0
 20 27  1  0
 26 27  2  0
 18 28  1  0
 27 28  1  0
  7 29  1  0
  4 30  1  0
 29 30  1  0
M  END
