piperidine-amides-15100-covalent
     RDKit          3D

 21 22  0  0  0  0  0  0  0  0999 V2000
    7.1110   -3.3350   19.2880 C   0  0  0  0  0  0  0  0  0  0  0  0
    6.3470   -4.1250   20.2480 C   0  0  0  0  0  0  0  0  0  0  0  0
    5.2640   -4.6120   19.8970 O   0  0  0  0  0  0  0  0  0  0  0  0
    6.8800   -4.3710   21.5270 N   0  0  0  0  0  0  0  0  0  0  0  0
    6.2140   -5.3440   22.3350 C   0  0  0  0  0  0  0  0  0  0  0  0
    5.4550   -4.6040   23.4030 C   0  0  0  0  0  0  0  0  0  0  0  0
    6.4970   -4.0560   24.3500 C   0  0  0  0  0  0  0  0  0  0  0  0
    5.9050   -3.2550   25.4590 C   0  0  0  0  0  0  0  0  0  0  0  0
    4.7120   -3.3920   25.7260 O   0  0  0  0  0  0  0  0  0  0  0  0
    6.8250   -2.4110   26.0570 N   0  0  0  0  0  0  0  0  0  0  0  0
    6.5870   -1.4820   27.1010 C   0  0  0  0  0  0  0  0  0  0  0  0
    6.9240   -1.8700   28.3930 C   0  0  0  0  0  0  0  0  0  0  0  0
    6.4620   -0.4960   28.8820 N   0  0  0  0  0  0  0  0  0  0  0  0
    5.9450    0.8770   28.9910 C   0  0  0  0  0  0  0  0  0  0  0  0
    6.3350    0.3460   30.2130 C   0  0  0  0  0  0  0  0  0  0  0  0
    5.7270    0.8440   27.4520 C   0  0  0  0  0  0  0  0  0  0  0  0
    4.9880    2.4380   26.6820 Br  0  0  0  0  0  0  0  0  0  0  0  0
    6.0470   -0.3070   26.5630 C   0  0  0  0  0  0  0  0  0  0  0  0
    5.7600   -0.1040   25.1200 C   0  0  0  0  0  0  0  0  0  0  0  0
    7.5240   -3.2350   23.6520 C   0  0  0  0  0  0  0  0  0  0  0  0
    7.6180   -3.3000   22.1270 C   0  0  0  0  0  0  0  0  0  0  0  0
  1  2  1  0
  2  3  2  0
  2  4  1  0
  4  5  1  0
  5  6  1  0
  6  7  1  0
  7  8  1  0
  8  9  2  0
  8 10  1  0
 10 11  1  0
 11 12  2  0
 12 13  1  0
 13 14  2  0
 14 15  1  0
 14 16  1  0
 16 17  1  0
 11 18  1  0
 16 18  2  0
 18 19  1  0
  7 20  1  0
  4 21  1  0
 20 21  1  0
M  END
