piperidine-amides-19373-covalent
     RDKit          3D

 21 22  0  0  0  0  0  0  0  0999 V2000
    7.1430   -3.3640   19.4590 C   0  0  0  0  0  0  0  0  0  0  0  0
    6.4780   -4.2290   20.4020 C   0  0  0  0  0  0  0  0  0  0  0  0
    5.4490   -4.8700   20.0030 O   0  0  0  0  0  0  0  0  0  0  0  0
    6.9750   -4.4180   21.7170 N   0  0  0  0  0  0  0  0  0  0  0  0
    6.6160   -5.6240   22.4740 C   0  0  0  0  0  0  0  0  0  0  0  0
    5.4630   -5.0020   23.3420 C   0  0  0  0  0  0  0  0  0  0  0  0
    6.0460   -3.8750   24.1860 C   0  0  0  0  0  0  0  0  0  0  0  0
    4.8510   -3.2820   25.0890 C   0  0  0  0  0  0  0  0  0  0  0  0
    3.8500   -3.1940   24.4100 O   0  0  0  0  0  0  0  0  0  0  0  0
    5.1920   -3.0400   26.2900 N   0  0  0  0  0  0  0  0  0  0  0  0
    5.2990   -2.6010   27.5690 C   0  0  0  0  0  0  0  0  0  0  0  0
    5.4430   -3.1110   28.8320 C   0  0  2  0  0  0  0  0  0  0  0  0
    5.8870   -2.0510   29.6650 C   0  0  0  0  0  0  0  0  0  0  0  0
    5.4190   -0.8440   29.1200 O   0  0  0  0  0  0  0  0  0  0  0  0
    6.5030   -4.2470   28.8490 C   0  0  0  0  0  0  0  0  0  0  0  0
    5.9160   -4.7560   27.5420 C   0  0  0  0  0  0  0  0  0  0  0  0
    6.3900   -5.9960   27.1180 F   0  0  0  0  0  0  0  0  0  0  0  0
    4.5230   -4.8570   27.6450 F   0  0  0  0  0  0  0  0  0  0  0  0
    6.3470   -3.5970   26.8540 C   0  0  0  0  0  0  0  0  0  0  0  0
    6.7390   -2.7640   23.3950 C   0  0  0  0  0  0  0  0  0  0  0  0
    7.7300   -3.3850   22.4050 C   0  0  0  0  0  0  0  0  0  0  0  0
  1  2  1  0
  2  3  2  0
  2  4  1  0
  4  5  1  0
  5  6  1  0
  6  7  1  0
  7  8  1  0
  8  9  2  0
  8 10  1  0
 10 11  1  0
 11 12  1  0
 12 13  1  1
 13 14  1  0
 12 15  1  0
 15 16  1  0
 16 17  1  0
 16 18  1  0
 10 19  1  0
 16 19  1  0
  7 20  1  0
  4 21  1  0
 20 21  1  0
M  END
