piperidine-amides-8710-covalent
     RDKit          3D

 23 25  0  0  0  0  0  0  0  0999 V2000
    7.0000   -3.3350   19.3480 C   0  0  0  0  0  0  0  0  0  0  0  0
    6.3380   -4.1710   20.3570 C   0  0  0  0  0  0  0  0  0  0  0  0
    5.3930   -4.8870   19.9860 O   0  0  0  0  0  0  0  0  0  0  0  0
    6.7830   -4.1900   21.7100 N   0  0  0  0  0  0  0  0  0  0  0  0
    7.6860   -3.1720   22.1710 C   0  0  0  0  0  0  0  0  0  0  0  0
    7.4760   -2.9910   23.6340 C   0  0  0  0  0  0  0  0  0  0  0  0
    6.0930   -3.5300   23.8630 C   0  0  0  0  0  0  0  0  0  0  0  0
    5.6200   -3.1940   25.2460 C   0  0  0  0  0  0  0  0  0  0  0  0
    4.4090   -3.2590   25.4410 O   0  0  0  0  0  0  0  0  0  0  0  0
    6.5720   -2.8350   26.1950 N   0  0  0  0  0  0  0  0  0  0  0  0
    6.4870   -1.6370   26.9670 C   0  0  0  0  0  0  0  0  0  0  0  0
    5.9600   -0.3950   26.5430 C   0  0  0  0  0  0  0  0  0  0  0  0
    5.9090    0.7370   27.3600 C   0  0  0  0  0  0  0  0  0  0  0  0
    6.3830    0.7210   28.6750 C   0  0  0  0  0  0  0  0  0  0  0  0
    6.1900    2.0750   29.2810 C   0  0  0  0  0  0  0  0  0  0  0  0
    5.5970    3.3550   28.6880 C   0  0  0  0  0  0  0  0  0  0  0  0
    5.6330    4.3610   29.6550 N   0  0  0  0  0  0  0  0  0  0  0  0
    6.2360    3.5950   30.7200 C   0  0  0  0  0  0  0  0  0  0  0  0
    6.5530    2.3710   30.5730 O   0  0  0  0  0  0  0  0  0  0  0  0
    6.9320   -0.4410   29.2250 C   0  0  0  0  0  0  0  0  0  0  0  0
    6.9970   -1.6880   28.3540 C   0  0  0  0  0  0  0  0  0  0  0  0
    6.0970   -5.0410   23.7240 C   0  0  0  0  0  0  0  0  0  0  0  0
    6.6560   -5.4000   22.4990 C   0  0  0  0  0  0  0  0  0  0  0  0
  1  2  1  0
  2  3  2  0
  2  4  1  0
  4  5  1  0
  5  6  1  0
  6  7  1  0
  7  8  1  0
  8  9  2  0
  8 10  1  0
 10 11  1  0
 11 12  2  0
 12 13  1  0
 13 14  2  0
 14 15  1  0
 15 16  2  0
 16 17  1  0
 17 18  2  0
 15 19  1  0
 18 19  1  0
 14 20  1  0
 11 21  1  0
 20 21  2  0
  7 22  1  0
  4 23  1  0
 22 23  1  0
M  END
