piperidine-amides-23929-covalent
     RDKit          3D

 23 26  0  0  0  0  0  0  0  0999 V2000
    7.0470   -3.4000   19.4700 C   0  0  0  0  0  0  0  0  0  0  0  0
    6.3940   -4.2810   20.4520 C   0  0  0  0  0  0  0  0  0  0  0  0
    5.4190   -4.9460   20.0130 O   0  0  0  0  0  0  0  0  0  0  0  0
    6.8630   -4.4150   21.8010 N   0  0  0  0  0  0  0  0  0  0  0  0
    6.3940   -5.4880   22.5910 C   0  0  0  0  0  0  0  0  0  0  0  0
    5.8980   -5.1150   23.9340 C   0  0  0  0  0  0  0  0  0  0  0  0
    6.2400   -3.7720   24.4970 C   0  0  0  0  0  0  0  0  0  0  0  0
    5.1260   -3.2810   25.4520 C   0  0  0  0  0  0  0  0  0  0  0  0
    4.0870   -2.8740   24.9170 O   0  0  0  0  0  0  0  0  0  0  0  0
    5.1800   -3.2620   26.9050 N   0  0  0  0  0  0  0  0  0  0  0  0
    4.1440   -3.0260   27.8900 C   0  0  0  0  0  0  0  0  0  0  0  0
    4.3060   -3.3800   29.3390 C   0  0  0  0  0  0  0  0  0  0  0  0
    5.0130   -4.6920   29.2370 C   0  0  0  0  0  0  0  0  0  0  0  0
    4.6750   -6.0710   30.1070 S   0  0  0  0  0  0  0  0  0  0  0  0
    5.8840   -7.0400   29.3000 C   0  0  0  0  0  0  0  0  0  0  0  0
    6.6300   -6.1820   28.2390 C   0  0  0  0  0  0  0  0  0  0  0  0
    6.0380   -4.7540   28.2920 C   0  0  0  0  0  0  0  0  0  0  0  0
    6.4240   -3.4850   27.4560 C   0  0  2  0  0  0  0  0  0  0  0  0
    6.7870   -2.2060   28.2080 C   0  0  0  0  0  0  0  0  0  0  0  0
    5.7510   -1.3450   28.4970 C   0  0  0  0  0  0  0  0  0  0  0  0
    6.8040   -0.7870   27.4830 C   0  0  0  0  0  0  0  0  0  0  0  0
    6.5600   -2.7770   23.4030 C   0  0  0  0  0  0  0  0  0  0  0  0
    7.5080   -3.3450   22.5300 C   0  0  0  0  0  0  0  0  0  0  0  0
  1  2  1  0
  2  3  2  0
  2  4  1  0
  4  5  1  0
  5  6  1  0
  6  7  1  0
  7  8  1  0
  8  9  2  0
  8 10  1  0
 10 11  1  0
 11 12  1  0
 12 13  1  0
 13 14  1  0
 14 15  1  0
 15 16  2  0
 13 17  2  0
 16 17  1  0
 10 18  1  0
 17 18  1  0
 18 19  1  1
 19 20  1  0
 19 21  1  0
 20 21  1  0
  7 22  1  0
  4 23  1  0
 22 23  1  0
M  END
