piperidine-amides-35064-covalent
     RDKit          3D

 31 34  0  0  0  0  0  0  0  0999 V2000
    6.9680   -3.3810   19.4330 C   0  0  0  0  0  0  0  0  0  0  0  0
    6.3390   -4.2800   20.4440 C   0  0  0  0  0  0  0  0  0  0  0  0
    5.4340   -4.9990   20.0150 O   0  0  0  0  0  0  0  0  0  0  0  0
    6.7840   -4.3100   21.7860 N   0  0  0  0  0  0  0  0  0  0  0  0
    7.6790   -3.2930   22.3100 C   0  0  0  0  0  0  0  0  0  0  0  0
    7.3580   -3.0300   23.7530 C   0  0  0  0  0  0  0  0  0  0  0  0
    6.0180   -3.6910   24.0540 C   0  0  0  0  0  0  0  0  0  0  0  0
    5.4950   -3.2570   25.4010 C   0  0  0  0  0  0  0  0  0  0  0  0
    5.0750   -2.1030   25.4760 O   0  0  0  0  0  0  0  0  0  0  0  0
    5.4010   -4.0400   26.5930 N   0  0  0  0  0  0  0  0  0  0  0  0
    4.8880   -3.4070   27.7930 C   0  0  0  0  0  0  0  0  0  0  0  0
    4.8390   -4.4510   28.9270 C   0  0  0  0  0  0  0  0  0  0  0  0
    4.3020   -5.7280   28.3860 N   0  0  0  0  0  0  0  0  0  0  0  0
    3.7280   -6.8780   29.5480 S   0  0  0  0  0  0  0  0  0  0  0  0
    4.7500   -7.9730   29.5210 O   0  0  0  0  0  0  0  0  0  0  0  0
    2.4330   -7.4400   29.0320 O   0  0  0  0  0  0  0  0  0  0  0  0
    3.5300   -6.1770   31.2350 C   0  0  0  0  0  0  0  0  0  0  0  0
    2.6540   -5.1860   31.1960 C   0  0  0  0  0  0  0  0  0  0  0  0
    2.4160   -4.5970   32.3420 C   0  0  0  0  0  0  0  0  0  0  0  0
    2.9490   -4.8270   33.7050 C   0  0  0  0  0  0  0  0  0  0  0  0
    3.9530   -6.0010   33.6140 C   0  0  0  0  0  0  0  0  0  0  0  0
    4.3550   -6.8150   32.3380 C   0  0  0  0  0  0  0  0  0  0  0  0
    4.4360   -6.2040   34.8610 N   0  0  0  0  0  0  0  0  0  0  0  0
    4.4580   -5.0730   35.7370 C   0  0  0  0  0  0  0  0  0  0  0  0
    5.4990   -4.9240   36.6380 O   0  0  0  0  0  0  0  0  0  0  0  0
    3.4900   -3.9620   35.8350 C   0  0  0  0  0  0  0  0  0  0  0  0
    2.5840   -4.0970   34.8190 O   0  0  0  0  0  0  0  0  0  0  0  0
    5.6250   -6.0560   28.0730 C   0  0  0  0  0  0  0  0  0  0  0  0
    6.1470   -5.0760   27.1500 C   0  0  0  0  0  0  0  0  0  0  0  0
    6.1190   -5.1950   23.8500 C   0  0  0  0  0  0  0  0  0  0  0  0
    6.6330   -5.5310   22.5890 C   0  0  0  0  0  0  0  0  0  0  0  0
  1  2  1  0
  2  3  2  0
  2  4  1  0
  4  5  1  0
  5  6  1  0
  6  7  1  0
  7  8  1  0
  8  9  2  0
  8 10  1  0
 10 11  1  0
 11 12  1  0
 12 13  1  0
 13 14  1  0
 14 15  2  0
 14 16  2  0
 14 17  1  0
 17 18  2  0
 18 19  1  0
 19 20  2  0
 20 21  1  0
 17 22  1  0
 21 22  2  0
 21 23  1  0
 23 24  1  0
 24 25  2  0
 24 26  1  0
 20 27  1  0
 26 27  1  0
 13 28  1  0
 10 29  1  0
 28 29  1  0
  7 30  1  0
  4 31  1  0
 30 31  1  0
M  END
