piperidine-amides-24052-covalent
     RDKit          3D

 24 26  0  0  0  0  0  0  0  0999 V2000
    7.1280   -3.2720   19.2190 C   0  0  0  0  0  0  0  0  0  0  0  0
    6.3850   -4.0380   20.2340 C   0  0  0  0  0  0  0  0  0  0  0  0
    5.2880   -4.5320   19.8800 O   0  0  0  0  0  0  0  0  0  0  0  0
    6.9180   -4.2630   21.5290 N   0  0  0  0  0  0  0  0  0  0  0  0
    6.3870   -5.3520   22.2600 C   0  0  0  0  0  0  0  0  0  0  0  0
    5.9170   -5.0190   23.6090 C   0  0  0  0  0  0  0  0  0  0  0  0
    6.5060   -3.8120   24.2600 C   0  0  0  0  0  0  0  0  0  0  0  0
    5.7130   -3.4410   25.4770 C   0  0  0  0  0  0  0  0  0  0  0  0
    4.8490   -2.5470   25.3760 O   0  0  0  0  0  0  0  0  0  0  0  0
    5.9050   -4.0770   26.7260 N   0  0  0  0  0  0  0  0  0  0  0  0
    5.5580   -5.3510   27.1070 C   0  0  0  0  0  0  0  0  0  0  0  0
    5.5350   -4.9950   28.4660 C   0  0  0  0  0  0  0  0  0  0  0  0
    4.4990   -5.1550   29.3150 N   0  0  0  0  0  0  0  0  0  0  0  0
    3.6530   -6.3000   29.6890 C   0  0  0  0  0  0  0  0  0  0  0  0
    2.7550   -5.8450   30.6140 N   0  0  0  0  0  0  0  0  0  0  0  0
    3.0130   -4.5360   30.8040 C   0  0  0  0  0  0  0  0  0  0  0  0
    2.4300   -3.4120   31.6650 C   0  0  0  0  0  0  0  0  0  0  0  0
    2.2070   -2.1810   31.0520 O   0  0  0  0  0  0  0  0  0  0  0  0
    2.1350   -3.5910   32.9920 O   0  0  0  0  0  0  0  0  0  0  0  0
    3.2530   -3.6590   33.6460 C   0  0  0  0  0  0  0  0  0  0  0  0
    4.1250   -4.0640   29.9920 C   0  0  0  0  0  0  0  0  0  0  0  0
    5.9120   -3.5420   28.0940 C   0  0  0  0  0  0  0  0  0  0  0  0
    6.6980   -2.6640   23.2960 C   0  0  0  0  0  0  0  0  0  0  0  0
    7.5950   -3.1820   22.1720 C   0  0  0  0  0  0  0  0  0  0  0  0
  1  2  1  0
  2  3  2  0
  2  4  1  0
  4  5  1  0
  5  6  1  0
  6  7  1  0
  7  8  1  0
  8  9  2  0
  8 10  1  0
 10 11  1  0
 11 12  1  0
 12 13  1  0
 13 14  1  0
 14 15  2  0
 15 16  1  0
 16 17  1  0
 17 18  2  0
 17 19  1  0
 19 20  1  0
 13 21  1  0
 16 21  2  0
 10 22  1  0
 12 22  1  0
  7 23  1  0
  4 24  1  0
 23 24  1  0
M  END
