piperidine-amides-14286-covalent
     RDKit          3D

 24 26  0  0  0  0  0  0  0  0999 V2000
    7.0250   -3.3420   19.3410 C   0  0  0  0  0  0  0  0  0  0  0  0
    6.3700   -4.1770   20.3520 C   0  0  0  0  0  0  0  0  0  0  0  0
    5.3980   -4.8630   19.9860 O   0  0  0  0  0  0  0  0  0  0  0  0
    6.8540   -4.2290   21.6880 N   0  0  0  0  0  0  0  0  0  0  0  0
    7.7440   -3.1950   22.1690 C   0  0  0  0  0  0  0  0  0  0  0  0
    7.5350   -2.9570   23.6310 C   0  0  0  0  0  0  0  0  0  0  0  0
    6.2040   -3.5780   23.9410 C   0  0  0  0  0  0  0  0  0  0  0  0
    5.8000   -3.3050   25.3590 C   0  0  0  0  0  0  0  0  0  0  0  0
    4.7230   -3.7840   25.7060 O   0  0  0  0  0  0  0  0  0  0  0  0
    6.6320   -2.5320   26.1700 N   0  0  0  0  0  0  0  0  0  0  0  0
    6.0760   -1.5800   27.0800 C   0  0  1  0  0  0  0  0  0  0  0  0
    6.9170   -1.1990   28.2130 C   0  0  0  0  0  0  0  0  0  0  0  0
    6.7470    0.0390   28.8720 C   0  0  2  0  0  0  0  0  0  0  0  0
    5.5410    0.2460   29.6200 C   0  0  0  0  0  0  0  0  0  0  0  0
    4.5990    0.6980   28.5230 C   0  0  0  0  0  0  0  0  0  0  0  0
    5.6020    0.5970   27.4290 C   0  0  2  0  0  0  0  0  0  0  0  0
    5.6240   -0.3950   26.3900 C   0  0  0  0  0  0  0  0  0  0  0  0
    6.7950    1.0060   27.8380 N   0  0  0  0  0  0  0  0  0  0  0  0
    6.6360    2.6450   28.4030 S   0  0  0  0  0  0  0  0  0  0  0  0
    7.7620    3.6720   27.4610 C   0  0  0  0  0  0  0  0  0  0  0  0
    6.9040    2.7070   29.8900 O   0  0  0  0  0  0  0  0  0  0  0  0
    5.2670    3.2000   28.1620 O   0  0  0  0  0  0  0  0  0  0  0  0
    6.1020   -5.0220   23.6960 C   0  0  0  0  0  0  0  0  0  0  0  0
    6.6880   -5.4160   22.5100 C   0  0  0  0  0  0  0  0  0  0  0  0
  1  2  1  0
  2  3  2  0
  2  4  1  0
  4  5  1  0
  5  6  1  0
  6  7  1  0
  7  8  1  0
  8  9  2  0
  8 10  1  0
 11 10  1  6
 11 12  1  0
 13 12  1  6
 13 14  1  0
 14 15  1  0
 16 15  1  1
 11 17  1  0
 16 17  1  0
 13 18  1  0
 16 18  1  0
 18 19  1  0
 19 20  1  0
 19 21  2  0
 19 22  2  0
  7 23  1  0
  4 24  1  0
 23 24  1  0
M  END
