piperidine-amides-33499-covalent
     RDKit          3D

 29 30  0  0  0  0  0  0  0  0999 V2000
    7.1050   -3.3840   19.3190 C   0  0  0  0  0  0  0  0  0  0  0  0
    6.4330   -4.2080   20.3250 C   0  0  0  0  0  0  0  0  0  0  0  0
    5.3640   -4.7670   19.9700 O   0  0  0  0  0  0  0  0  0  0  0  0
    7.0170   -4.4180   21.6030 N   0  0  0  0  0  0  0  0  0  0  0  0
    6.6840   -5.6060   22.3170 C   0  0  0  0  0  0  0  0  0  0  0  0
    6.2640   -5.3470   23.6870 C   0  0  0  0  0  0  0  0  0  0  0  0
    6.0890   -3.9130   23.9420 C   0  0  0  0  0  0  0  0  0  0  0  0
    5.3830   -3.6080   25.2200 C   0  0  0  0  0  0  0  0  0  0  0  0
    4.2830   -3.0360   25.1480 O   0  0  0  0  0  0  0  0  0  0  0  0
    5.8770   -3.8950   26.4950 N   0  0  0  0  0  0  0  0  0  0  0  0
    6.0520   -2.9550   27.4870 C   0  0  0  0  0  0  0  0  0  0  0  0
    6.2970   -3.4010   28.8190 C   0  0  0  0  0  0  0  0  0  0  0  0
    5.6350   -2.3300   29.6470 C   0  0  0  0  0  0  0  0  0  0  0  0
    6.5190   -1.4660   30.2580 O   0  0  0  0  0  0  0  0  0  0  0  0
    4.1600   -2.4220   29.5820 N   0  0  0  0  0  0  0  0  0  0  0  0
    3.7310   -3.7980   29.5150 C   0  0  0  0  0  0  0  0  0  0  0  0
    3.3030   -3.9640   28.0530 C   0  0  0  0  0  0  0  0  0  0  0  0
    3.7550   -5.2020   27.4830 N   0  0  0  0  0  0  0  0  0  0  0  0
    2.9130   -6.2290   27.2130 C   0  0  0  0  0  0  0  0  0  0  0  0
    1.5930   -6.3200   27.6730 O   0  0  0  0  0  0  0  0  0  0  0  0
    3.3020   -7.2140   26.5020 O   0  0  0  0  0  0  0  0  0  0  0  0
    2.6590   -7.4620   25.3210 C   0  0  0  0  0  0  0  0  0  0  0  0
    3.5690   -7.3350   24.1260 C   0  0  0  0  0  0  0  0  0  0  0  0
    2.0250   -8.8420   25.3520 C   0  0  0  0  0  0  0  0  0  0  0  0
    1.6400   -6.4060   25.2030 C   0  0  0  0  0  0  0  0  0  0  0  0
    5.0620   -5.7530   27.8620 C   0  0  0  0  0  0  0  0  0  0  0  0
    6.0680   -5.1930   27.1230 C   0  0  0  0  0  0  0  0  0  0  0  0
    7.3070   -3.1200   23.6580 C   0  0  0  0  0  0  0  0  0  0  0  0
    7.7480   -3.3310   22.2330 C   0  0  0  0  0  0  0  0  0  0  0  0
  1  2  1  0
  2  3  2  0
  2  4  1  0
  4  5  1  0
  5  6  1  0
  6  7  1  0
  7  8  1  0
  8  9  2  0
  8 10  1  0
 10 11  1  0
 11 12  1  0
 12 13  1  0
 13 14  2  0
 13 15  1  0
 15 16  1  0
 16 17  1  0
 17 18  1  0
 18 19  1  0
 19 20  2  0
 19 21  1  0
 22 21  1  0
 22 23  1  0
 22 24  1  0
 22 25  1  0
 18 26  1  0
 10 27  1  0
 26 27  1  0
  7 28  1  0
  4 29  1  0
 28 29  1  0
M  END
