piperidine-amides-3066-covalent
     RDKit          3D

 23 25  0  0  0  0  0  0  0  0999 V2000
    7.0650   -3.2580   19.1040 C   0  0  0  0  0  0  0  0  0  0  0  0
    6.2920   -4.0090   20.0910 C   0  0  0  0  0  0  0  0  0  0  0  0
    5.1880   -4.4530   19.8160 O   0  0  0  0  0  0  0  0  0  0  0  0
    6.8390   -4.2960   21.3760 N   0  0  0  0  0  0  0  0  0  0  0  0
    7.5930   -3.2530   22.0220 C   0  0  0  0  0  0  0  0  0  0  0  0
    6.6900   -2.5920   23.0020 C   0  0  0  0  0  0  0  0  0  0  0  0
    6.1480   -3.7440   23.7970 C   0  0  0  0  0  0  0  0  0  0  0  0
    5.5340   -3.2320   25.0310 C   0  0  0  0  0  0  0  0  0  0  0  0
    4.3520   -2.8660   25.1780 O   0  0  0  0  0  0  0  0  0  0  0  0
    6.4520   -3.2080   26.0640 N   0  0  0  0  0  0  0  0  0  0  0  0
    7.5040   -4.1270   25.7730 C   0  0  0  0  0  0  0  0  0  0  0  0
    8.6620   -3.3520   25.1410 C   0  0  0  0  0  0  0  0  0  0  0  0
    8.7910   -2.0480   24.7180 N   0  0  0  0  0  0  0  0  0  0  0  0
   10.0340   -1.7390   24.2300 C   0  0  0  0  0  0  0  0  0  0  0  0
   10.4960   -0.4960   23.7330 C   0  0  0  0  0  0  0  0  0  0  0  0
   11.8340   -0.4100   23.3100 C   0  0  0  0  0  0  0  0  0  0  0  0
   12.5720    0.7150   22.7870 C   0  0  0  0  0  0  0  0  0  0  0  0
   12.6720   -1.4750   23.3550 C   0  0  0  0  0  0  0  0  0  0  0  0
   12.2380   -2.6620   23.8140 C   0  0  0  0  0  0  0  0  0  0  0  0
   10.9290   -2.7250   24.2270 C   0  0  0  0  0  0  0  0  0  0  0  0
   10.1960   -4.2060   24.8510 S   0  0  0  0  0  0  0  0  0  0  0  0
    5.3750   -4.7220   23.0680 C   0  0  0  0  0  0  0  0  0  0  0  0
    6.2490   -5.3390   22.1840 C   0  0  0  0  0  0  0  0  0  0  0  0
  1  2  1  0
  2  3  2  0
  2  4  1  0
  4  5  1  0
  5  6  1  0
  6  7  1  0
  7  8  1  0
  8  9  2  0
  8 10  1  0
 10 11  1  0
 11 12  1  0
 12 13  2  0
 13 14  1  0
 14 15  2  0
 15 16  1  0
 16 17  1  0
 16 18  2  0
 18 19  1  0
 14 20  1  0
 19 20  2  0
 12 21  1  0
 20 21  1  0
  7 22  1  0
  4 23  1  0
 22 23  1  0
M  END
