piperidine-amides-2129-covalent
     RDKit          3D

 25 27  0  0  0  0  0  0  0  0999 V2000
    7.0470   -3.3240   19.3630 C   0  0  0  0  0  0  0  0  0  0  0  0
    6.3750   -4.1900   20.3690 C   0  0  0  0  0  0  0  0  0  0  0  0
    5.3910   -4.8220   19.9820 O   0  0  0  0  0  0  0  0  0  0  0  0
    6.8850   -4.2940   21.6760 N   0  0  0  0  0  0  0  0  0  0  0  0
    6.6790   -5.4830   22.4760 C   0  0  0  0  0  0  0  0  0  0  0  0
    6.0220   -5.1230   23.7880 C   0  0  0  0  0  0  0  0  0  0  0  0
    6.0690   -3.6090   23.9820 C   0  0  0  0  0  0  0  0  0  0  0  0
    5.5800   -3.2790   25.3380 C   0  0  0  0  0  0  0  0  0  0  0  0
    4.3580   -3.2330   25.5280 O   0  0  0  0  0  0  0  0  0  0  0  0
    6.4460   -3.0190   26.4170 N   0  0  0  0  0  0  0  0  0  0  0  0
    6.4230   -1.6950   27.0100 C   0  0  0  0  0  0  0  0  0  0  0  0
    6.9810   -1.4260   28.3830 C   0  0  0  0  0  0  0  0  0  0  0  0
    6.7690    0.0050   28.6280 N   0  0  0  0  0  0  0  0  0  0  0  0
    6.1790    0.6250   27.6230 N   0  0  0  0  0  0  0  0  0  0  0  0
    5.9430    1.9460   27.7460 C   0  0  0  0  0  0  0  0  0  0  0  0
    5.4640    2.1670   28.9990 C   0  0  0  0  0  0  0  0  0  0  0  0
    4.3830    1.3570   29.3480 F   0  0  0  0  0  0  0  0  0  0  0  0
    4.9770    3.4790   29.1420 F   0  0  0  0  0  0  0  0  0  0  0  0
    6.4350    1.9730   29.9580 F   0  0  0  0  0  0  0  0  0  0  0  0
    5.9210   -0.3510   26.5610 C   0  0  0  0  0  0  0  0  0  0  0  0
    5.3060   -0.3980   25.1720 C   0  0  0  0  0  0  0  0  0  0  0  0
    6.0940    0.7430   24.7660 C   0  0  0  0  0  0  0  0  0  0  0  0
    4.7010    0.9440   24.4890 C   0  0  0  0  0  0  0  0  0  0  0  0
    7.3470   -2.9800   23.6330 C   0  0  0  0  0  0  0  0  0  0  0  0
    7.6940   -3.2160   22.2070 C   0  0  0  0  0  0  0  0  0  0  0  0
  1  2  1  0
  2  3  2  0
  2  4  1  0
  4  5  1  0
  5  6  1  0
  6  7  1  0
  7  8  1  0
  8  9  2  0
  8 10  1  0
 10 11  1  0
 11 12  1  0
 12 13  2  0
 13 14  1  0
 14 15  1  0
 15 16  1  0
 16 17  1  0
 16 18  1  0
 16 19  1  0
 11 20  2  0
 14 20  1  0
 20 21  1  0
 21 22  1  0
 21 23  1  0
 22 23  1  0
  7 24  1  0
  4 25  1  0
 24 25  1  0
M  END
