piperidine-amides-31750-covalent
     RDKit          3D

 27 28  0  0  0  0  0  0  0  0999 V2000
    7.0490   -3.4590   19.4120 C   0  0  0  0  0  0  0  0  0  0  0  0
    6.3820   -4.2510   20.4180 C   0  0  0  0  0  0  0  0  0  0  0  0
    5.4120   -4.9730   20.0180 O   0  0  0  0  0  0  0  0  0  0  0  0
    6.7960   -4.2930   21.7750 N   0  0  0  0  0  0  0  0  0  0  0  0
    7.7650   -3.2320   22.2130 C   0  0  0  0  0  0  0  0  0  0  0  0
    7.4990   -3.1010   23.7660 C   0  0  0  0  0  0  0  0  0  0  0  0
    6.1000   -3.6080   23.9210 C   0  0  0  0  0  0  0  0  0  0  0  0
    5.1510   -2.8080   24.9430 C   0  0  0  0  0  0  0  0  0  0  0  0
    4.6410   -1.8990   24.3310 O   0  0  0  0  0  0  0  0  0  0  0  0
    5.0980   -3.2470   26.1370 N   0  0  0  0  0  0  0  0  0  0  0  0
    4.5750   -3.6050   27.3540 C   0  0  0  0  0  0  0  0  0  0  0  0
    4.8300   -4.6330   28.1580 C   0  0  1  0  0  0  0  0  0  0  0  0
    4.0400   -5.8120   27.7790 N   0  0  0  0  0  0  0  0  0  0  0  0
    2.7430   -5.9920   28.1000 C   0  0  0  0  0  0  0  0  0  0  0  0
    1.9390   -5.1570   28.8900 O   0  0  0  0  0  0  0  0  0  0  0  0
    2.2200   -7.1550   27.5410 O   0  0  0  0  0  0  0  0  0  0  0  0
    1.2470   -7.9260   28.1570 C   0  0  0  0  0  0  0  0  0  0  0  0
    1.5640   -8.8050   29.3820 C   0  0  0  0  0  0  0  0  0  0  0  0
    0.6730   -7.4190   29.4950 C   0  0  0  0  0  0  0  0  0  0  0  0
    0.2640   -8.5830   27.2260 C   0  0  0  0  0  0  0  0  0  0  0  0
    6.1870   -4.7800   27.6500 C   0  0  2  0  0  0  0  0  0  0  0  0
    6.5790   -4.6800   29.1140 C   0  0  0  0  0  0  0  0  0  0  0  0
    5.9660   -5.6830   29.8780 F   0  0  0  0  0  0  0  0  0  0  0  0
    6.1730   -3.4990   29.6390 F   0  0  0  0  0  0  0  0  0  0  0  0
    6.3340   -3.4980   26.8610 C   0  0  0  0  0  0  0  0  0  0  0  0
    5.9830   -5.1070   23.7640 C   0  0  0  0  0  0  0  0  0  0  0  0
    6.5520   -5.4800   22.5800 C   0  0  0  0  0  0  0  0  0  0  0  0
  1  2  1  0
  2  3  2  0
  2  4  1  0
  4  5  1  0
  5  6  1  0
  6  7  1  0
  7  8  1  0
  8  9  2  0
  8 10  1  0
 10 11  1  0
 11 12  1  0
 12 13  1  6
 13 14  1  0
 14 15  2  0
 14 16  1  0
 17 16  1  0
 17 18  1  0
 17 19  1  0
 17 20  1  0
 12 21  1  0
 21 22  1  1
 22 23  1  0
 22 24  1  0
 10 25  1  0
 21 25  1  0
  7 26  1  0
  4 27  1  0
 26 27  1  0
M  END
