piperidine-amides-610-covalent
     RDKit          3D

 26 28  0  0  0  0  0  0  0  0999 V2000
    7.1550   -3.3020   19.3380 C   0  0  0  0  0  0  0  0  0  0  0  0
    6.3640   -4.1240   20.2270 C   0  0  0  0  0  0  0  0  0  0  0  0
    5.2290   -4.5300   19.8560 O   0  0  0  0  0  0  0  0  0  0  0  0
    6.8570   -4.5200   21.4710 N   0  0  0  0  0  0  0  0  0  0  0  0
    6.2930   -5.7670   22.0590 C   0  0  0  0  0  0  0  0  0  0  0  0
    5.2780   -5.1860   23.1210 C   0  0  0  0  0  0  0  0  0  0  0  0
    6.1530   -4.3100   23.9570 C   0  0  0  0  0  0  0  0  0  0  0  0
    5.6490   -3.9920   25.4110 C   0  0  0  0  0  0  0  0  0  0  0  0
    4.5410   -4.4190   25.7060 O   0  0  0  0  0  0  0  0  0  0  0  0
    6.6330   -3.3420   25.7900 N   0  0  0  0  0  0  0  0  0  0  0  0
    7.7230   -2.5900   25.8680 C   0  0  1  0  0  0  0  0  0  0  0  0
    8.2310   -1.7670   24.8660 C   0  0  0  0  0  0  0  0  0  0  0  0
    7.3070   -0.7920   24.4200 C   0  0  0  0  0  0  0  0  0  0  0  0
    7.5170    0.2450   23.3520 C   0  0  0  0  0  0  0  0  0  0  0  0
    6.2540    1.3950   22.9220 Cl  0  0  0  0  0  0  0  0  0  0  0  0
    8.9470    0.1650   22.7070 C   0  0  0  0  0  0  0  0  0  0  0  0
    9.7060   -0.8660   23.2820 C   0  0  0  0  0  0  0  0  0  0  0  0
    9.4160   -1.7790   24.2780 C   0  0  0  0  0  0  0  0  0  0  0  0
   10.6660   -2.9070   24.6830 Cl  0  0  0  0  0  0  0  0  0  0  0  0
    7.5860   -1.7510   27.0880 C   0  0  2  0  0  0  0  0  0  0  0  0
    6.9220   -2.9010   27.9230 C   0  0  0  0  0  0  0  0  0  0  0  0
    5.7250   -2.4120   28.4770 C   0  0  0  0  0  0  0  0  0  0  0  0
    5.4960   -1.2020   28.1170 O   0  0  0  0  0  0  0  0  0  0  0  0
    6.5530   -0.7880   27.3140 C   0  0  0  0  0  0  0  0  0  0  0  0
    6.6700   -3.1080   23.1980 C   0  0  0  0  0  0  0  0  0  0  0  0
    7.5490   -3.5650   22.2800 C   0  0  0  0  0  0  0  0  0  0  0  0
  1  2  1  0
  2  3  2  0
  2  4  1  0
  4  5  1  0
  5  6  1  0
  6  7  1  0
  7  8  1  0
  8  9  2  0
  8 10  1  0
 11 10  1  6
 11 12  1  0
 12 13  2  0
 13 14  1  0
 14 15  1  0
 14 16  2  0
 16 17  1  0
 12 18  1  0
 17 18  2  0
 18 19  1  0
 11 20  1  0
 20 21  1  1
 21 22  1  0
 22 23  1  0
 20 24  1  0
 23 24  1  0
  7 25  1  0
  4 26  1  0
 25 26  1  0
M  END
