piperidine-amides-1981-covalent
     RDKit          3D

 22 22  0  0  0  0  0  0  0  0999 V2000
    7.1500   -3.2430   19.1280 C   0  0  0  0  0  0  0  0  0  0  0  0
    6.3630   -3.9830   20.1490 C   0  0  0  0  0  0  0  0  0  0  0  0
    5.2610   -4.4110   19.8210 O   0  0  0  0  0  0  0  0  0  0  0  0
    6.9020   -4.2230   21.4050 N   0  0  0  0  0  0  0  0  0  0  0  0
    6.4710   -5.3660   22.1630 C   0  0  0  0  0  0  0  0  0  0  0  0
    5.6990   -4.8670   23.3430 C   0  0  0  0  0  0  0  0  0  0  0  0
    6.5790   -3.8670   24.0920 C   0  0  0  0  0  0  0  0  0  0  0  0
    5.8100   -3.3660   25.2310 C   0  0  0  0  0  0  0  0  0  0  0  0
    4.6230   -3.0340   25.0910 O   0  0  0  0  0  0  0  0  0  0  0  0
    6.4310   -3.2630   26.4730 N   0  0  0  0  0  0  0  0  0  0  0  0
    6.1100   -4.2360   27.4770 C   0  0  1  0  0  0  0  0  0  0  0  0
    6.5520   -3.5770   28.7390 C   0  0  0  0  0  0  0  0  0  0  0  0
    6.3390   -2.2440   29.0340 C   0  0  0  0  0  0  0  0  0  0  0  0
    7.4450   -1.4700   29.1690 C   0  0  0  0  0  0  0  0  0  0  0  0
    5.5280   -1.6500   27.8870 C   0  0  0  0  0  0  0  0  0  0  0  0
    4.8470   -4.7330   27.5290 C   0  0  0  0  0  0  0  0  0  0  0  0
    4.8350   -6.3630   28.2430 S   0  0  0  0  0  0  0  0  0  0  0  0
    6.4070   -6.6490   29.0930 C   0  0  0  0  0  0  0  0  0  0  0  0
    4.7200   -7.3860   27.1720 O   0  0  0  0  0  0  0  0  0  0  0  0
    3.7890   -6.5580   29.3040 O   0  0  0  0  0  0  0  0  0  0  0  0
    7.0560   -2.7310   23.3020 C   0  0  0  0  0  0  0  0  0  0  0  0
    7.6440   -3.1500   22.0130 C   0  0  0  0  0  0  0  0  0  0  0  0
  1  2  1  0
  2  3  2  0
  2  4  1  0
  4  5  1  0
  5  6  1  0
  6  7  1  0
  7  8  1  0
  8  9  2  0
  8 10  1  0
 10 11  1  0
 11 12  1  1
 12 13  1  0
 13 14  1  0
 13 15  1  0
 11 16  1  0
 17 16  1  0
 17 18  1  0
 17 19  2  0
 17 20  2  0
  7 21  1  0
  4 22  1  0
 21 22  1  0
M  END
