piperidine-amides-25375-covalent
     RDKit          3D

 25 27  0  0  0  0  0  0  0  0999 V2000
    7.0510   -3.3440   19.3780 C   0  0  0  0  0  0  0  0  0  0  0  0
    6.3870   -4.2300   20.3730 C   0  0  0  0  0  0  0  0  0  0  0  0
    5.3960   -4.8480   19.9850 O   0  0  0  0  0  0  0  0  0  0  0  0
    6.9080   -4.3780   21.6690 N   0  0  0  0  0  0  0  0  0  0  0  0
    6.6730   -5.5860   22.4190 C   0  0  0  0  0  0  0  0  0  0  0  0
    6.2170   -5.2570   23.8260 C   0  0  0  0  0  0  0  0  0  0  0  0
    6.0560   -3.7400   23.9890 C   0  0  0  0  0  0  0  0  0  0  0  0
    5.5280   -3.3830   25.3350 C   0  0  0  0  0  0  0  0  0  0  0  0
    4.5340   -2.6540   25.3770 O   0  0  0  0  0  0  0  0  0  0  0  0
    6.0760   -3.8050   26.5610 N   0  0  0  0  0  0  0  0  0  0  0  0
    6.4200   -2.7720   27.4900 C   0  0  0  0  0  0  0  0  0  0  0  0
    6.6140   -3.6470   28.6840 C   0  0  0  0  0  0  0  0  0  0  0  0
    6.0600   -4.8470   28.5200 C   0  0  0  0  0  0  0  0  0  0  0  0
    5.5060   -4.9260   27.2730 C   0  0  1  0  0  0  0  0  0  0  0  0
    4.1420   -5.0040   27.2760 C   0  0  0  0  0  0  0  0  0  0  0  0
    3.3600   -5.8160   28.2990 C   0  0  0  0  0  0  0  0  0  0  0  0
    2.0420   -5.2380   27.8860 C   0  0  0  0  0  0  0  0  0  0  0  0
    1.5800   -4.6260   29.1830 C   0  0  0  0  0  0  0  0  0  0  0  0
    1.8400   -3.1600   29.2820 C   0  0  0  0  0  0  0  0  0  0  0  0
    1.3990   -2.5130   30.5450 C   0  0  0  0  0  0  0  0  0  0  0  0
    0.7330   -3.3420   31.6250 C   0  0  0  0  0  0  0  0  0  0  0  0
    0.5220   -4.8060   31.4220 C   0  0  0  0  0  0  0  0  0  0  0  0
    0.9840   -5.4360   30.1220 C   0  0  0  0  0  0  0  0  0  0  0  0
    7.3680   -3.0810   23.6750 C   0  0  0  0  0  0  0  0  0  0  0  0
    7.6730   -3.2820   22.2190 C   0  0  0  0  0  0  0  0  0  0  0  0
  1  2  1  0
  2  3  2  0
  2  4  1  0
  4  5  1  0
  5  6  1  0
  6  7  1  0
  7  8  1  0
  8  9  2  0
  8 10  1  0
 10 11  1  0
 11 12  1  0
 12 13  1  0
 10 14  1  0
 13 14  1  0
 14 15  1  1
 15 16  1  0
 16 17  1  0
 17 18  1  0
 18 19  2  0
 19 20  1  0
 20 21  2  0
 21 22  1  0
 18 23  1  0
 22 23  2  0
  7 24  1  0
  4 25  1  0
 24 25  1  0
M  END
