piperidine-amides-32195-covalent
     RDKit          3D

 27 29  0  0  0  0  0  0  0  0999 V2000
    7.1570   -3.2700   19.1950 C   0  0  0  0  0  0  0  0  0  0  0  0
    6.3930   -4.0570   20.1990 C   0  0  0  0  0  0  0  0  0  0  0  0
    5.2940   -4.5420   19.8830 O   0  0  0  0  0  0  0  0  0  0  0  0
    6.9680   -4.2840   21.4630 N   0  0  0  0  0  0  0  0  0  0  0  0
    7.7510   -3.2690   22.1180 C   0  0  0  0  0  0  0  0  0  0  0  0
    6.8590   -2.7090   23.2160 C   0  0  0  0  0  0  0  0  0  0  0  0
    6.4850   -3.8480   24.1000 C   0  0  0  0  0  0  0  0  0  0  0  0
    5.6910   -3.3780   25.2370 C   0  0  0  0  0  0  0  0  0  0  0  0
    4.4620   -3.4800   25.1320 O   0  0  0  0  0  0  0  0  0  0  0  0
    6.3130   -2.8470   26.3540 N   0  0  0  0  0  0  0  0  0  0  0  0
    6.1120   -3.4480   27.6130 C   0  0  0  0  0  0  0  0  0  0  0  0
    6.6580   -3.0260   28.7840 C   0  0  0  0  0  0  0  0  0  0  0  0
    7.0910   -1.6980   28.9740 C   0  0  0  0  0  0  0  0  0  0  0  0
    6.3170   -1.0810   30.0440 N   0  0  0  0  0  0  0  0  0  0  0  0
    6.7810   -0.1960   30.9650 C   0  0  0  0  0  0  0  0  0  0  0  0
    5.9130    0.1960   32.0980 C   0  0  0  0  0  0  0  0  0  0  0  0
    4.6710   -0.2510   31.9690 O   0  0  0  0  0  0  0  0  0  0  0  0
    4.0370   -0.8140   30.9180 C   0  0  0  0  0  0  0  0  0  0  0  0
    4.9520   -0.8660   29.6880 C   0  0  0  0  0  0  0  0  0  0  0  0
    6.7300   -1.4950   26.1880 C   0  0  0  0  0  0  0  0  0  0  0  0
    5.7140   -0.5540   25.6480 C   0  0  0  0  0  0  0  0  0  0  0  0
    4.2930   -0.8900   25.9310 C   0  0  0  0  0  0  0  0  0  0  0  0
    3.2180   -0.1310   25.5060 C   0  0  0  0  0  0  0  0  0  0  0  0
    4.1510    0.9410   24.7810 C   0  0  0  0  0  0  0  0  0  0  0  0
    5.8760    0.8350   24.7640 S   0  0  0  0  0  0  0  0  0  0  0  0
    5.7790   -4.9890   23.4380 C   0  0  0  0  0  0  0  0  0  0  0  0
    6.6020   -5.4400   22.2380 C   0  0  0  0  0  0  0  0  0  0  0  0
  1  2  1  0
  2  3  2  0
  2  4  1  0
  4  5  1  0
  5  6  1  0
  6  7  1  0
  7  8  1  0
  8  9  2  0
  8 10  1  0
 10 11  1  0
 11 12  1  0
 12 13  1  0
 13 14  1  0
 14 15  1  0
 15 16  1  0
 16 17  1  0
 17 18  1  0
 14 19  1  0
 18 19  1  0
 10 20  1  0
 20 21  1  0
 21 22  2  0
 22 23  1  0
 23 24  2  0
 21 25  1  0
 24 25  1  0
  7 26  1  0
  4 27  1  0
 26 27  1  0
M  END
