piperidine-amides-10054-covalent
     RDKit          3D

 26 28  0  0  0  0  0  0  0  0999 V2000
    7.0180   -3.2580   19.2070 C   0  0  0  0  0  0  0  0  0  0  0  0
    6.3000   -4.0300   20.2340 C   0  0  0  0  0  0  0  0  0  0  0  0
    5.2320   -4.5780   19.8710 O   0  0  0  0  0  0  0  0  0  0  0  0
    6.8010   -4.1730   21.5270 N   0  0  0  0  0  0  0  0  0  0  0  0
    7.7550   -3.2260   22.0650 C   0  0  0  0  0  0  0  0  0  0  0  0
    7.2840   -2.8030   23.4220 C   0  0  0  0  0  0  0  0  0  0  0  0
    6.9220   -4.0000   24.2550 C   0  0  0  0  0  0  0  0  0  0  0  0
    6.2970   -3.5520   25.5170 C   0  0  0  0  0  0  0  0  0  0  0  0
    5.0880   -3.2080   25.5150 O   0  0  0  0  0  0  0  0  0  0  0  0
    7.0470   -3.5000   26.7150 N   0  0  0  0  0  0  0  0  0  0  0  0
    8.3470   -2.8620   26.7540 C   0  0  0  0  0  0  0  0  0  0  0  0
    9.5300   -3.8220   26.9110 C   0  0  0  0  0  0  0  0  0  0  0  0
    9.5160   -4.7520   27.7480 O   0  0  0  0  0  0  0  0  0  0  0  0
   10.6080   -3.4200   25.9190 N   0  0  0  0  0  0  0  0  0  0  0  0
   11.9870   -3.7450   25.9770 C   0  0  0  0  0  0  0  0  0  0  0  0
   12.7520   -3.7350   25.1190 C   0  0  0  0  0  0  0  0  0  0  0  0
   13.8510   -4.1670   25.4220 C   0  0  0  0  0  0  0  0  0  0  0  0
   14.4400   -4.7160   26.5210 C   0  0  0  0  0  0  0  0  0  0  0  0
   13.9970   -4.6130   27.3160 C   0  0  0  0  0  0  0  0  0  0  0  0
   12.9300   -4.1990   27.0210 C   0  0  0  0  0  0  0  0  0  0  0  0
   14.3910   -4.9550   28.6270 O   0  0  0  0  0  0  0  0  0  0  0  0
   15.0810   -6.1720   28.9060 C   0  0  0  0  0  0  0  0  0  0  0  0
   15.8010   -6.4500   27.6570 C   0  0  0  0  0  0  0  0  0  0  0  0
   15.4760   -5.3920   26.7660 O   0  0  0  0  0  0  0  0  0  0  0  0
    5.9830   -4.9130   23.5150 C   0  0  0  0  0  0  0  0  0  0  0  0
    6.5280   -5.3680   22.3320 C   0  0  0  0  0  0  0  0  0  0  0  0
  1  2  1  0
  2  3  2  0
  2  4  1  0
  4  5  1  0
  5  6  1  0
  6  7  1  0
  7  8  1  0
  8  9  2  0
  8 10  1  0
 10 11  1  0
 11 12  1  0
 12 13  2  0
 12 14  1  0
 14 15  1  0
 15 16  2  0
 16 17  1  0
 17 18  2  0
 18 19  1  0
 15 20  1  0
 19 20  2  0
 19 21  1  0
 21 22  1  0
 22 23  1  0
 18 24  1  0
 23 24  1  0
  7 25  1  0
  4 26  1  0
 25 26  1  0
M  END
