piperidine-amides-32361-covalent
     RDKit          3D

 29 32  0  0  0  0  0  0  0  0999 V2000
    7.0910   -3.3430   19.3870 C   0  0  0  0  0  0  0  0  0  0  0  0
    6.3500   -4.1800   20.3680 C   0  0  0  0  0  0  0  0  0  0  0  0
    5.3550   -4.8120   19.9750 O   0  0  0  0  0  0  0  0  0  0  0  0
    6.8150   -4.2820   21.7030 N   0  0  0  0  0  0  0  0  0  0  0  0
    6.6210   -5.5030   22.4570 C   0  0  0  0  0  0  0  0  0  0  0  0
    6.2240   -5.1720   23.9150 C   0  0  0  0  0  0  0  0  0  0  0  0
    6.2350   -3.6920   24.1370 C   0  0  0  0  0  0  0  0  0  0  0  0
    5.5940   -3.2680   25.4210 C   0  0  0  0  0  0  0  0  0  0  0  0
    4.3660   -3.1470   25.3460 O   0  0  0  0  0  0  0  0  0  0  0  0
    6.2740   -3.0330   26.6390 N   0  0  0  0  0  0  0  0  0  0  0  0
    6.3200   -4.0330   27.6680 C   0  0  0  0  0  0  0  0  0  0  0  0
    6.0610   -5.3810   27.5210 C   0  0  0  0  0  0  0  0  0  0  0  0
    6.4720   -6.2490   28.5450 C   0  0  0  0  0  0  0  0  0  0  0  0
    6.2060   -1.8020   27.3420 C   0  0  1  0  0  0  0  0  0  0  0  0
    7.1800   -1.3930   28.3960 C   0  0  0  0  0  0  0  0  0  0  0  0
    6.7590   -0.2940   29.3940 C   0  0  0  0  0  0  0  0  0  0  0  0
    6.2990    0.9070   28.5480 C   0  0  0  0  0  0  0  0  0  0  0  0
    5.9560    0.6080   27.2550 C   0  0  0  0  0  0  0  0  0  0  0  0
    5.8930   -0.6800   26.6070 C   0  0  0  0  0  0  0  0  0  0  0  0
    5.4870   -0.5020   25.2370 N   0  0  0  0  0  0  0  0  0  0  0  0
    5.2860    0.9050   25.0020 C   0  0  0  0  0  0  0  0  0  0  0  0
    4.8850    1.4010   23.7580 C   0  0  0  0  0  0  0  0  0  0  0  0
    4.8490    2.9400   24.1550 C   0  0  0  0  0  0  0  0  0  0  0  0
    5.1500    3.6740   25.4630 C   0  0  0  0  0  0  0  0  0  0  0  0
    5.0420    5.1940   25.6050 C   0  0  0  0  0  0  0  0  0  0  0  0
    5.5200    2.9160   26.5050 C   0  0  0  0  0  0  0  0  0  0  0  0
    5.5600    1.6090   26.2030 C   0  0  0  0  0  0  0  0  0  0  0  0
    7.5040   -3.0330   23.7010 C   0  0  0  0  0  0  0  0  0  0  0  0
    7.6260   -3.2210   22.2180 C   0  0  0  0  0  0  0  0  0  0  0  0
  1  2  1  0
  2  3  2  0
  2  4  1  0
  4  5  1  0
  5  6  1  0
  6  7  1  0
  7  8  1  0
  8  9  2  0
  8 10  1  0
 10 11  1  0
 11 12  1  0
 12 13  1  0
 14 10  1  6
 14 15  1  0
 15 16  1  0
 16 17  1  0
 17 18  1  0
 14 19  1  0
 18 19  2  0
 19 20  1  0
 20 21  1  0
 21 22  1  0
 22 23  2  0
 23 24  1  0
 24 25  1  0
 24 26  2  0
 18 27  1  0
 21 27  2  0
 26 27  1  0
  7 28  1  0
  4 29  1  0
 28 29  1  0
M  END
