piperidine-amides-9916-covalent
     RDKit          3D

 27 29  0  0  0  0  0  0  0  0999 V2000
    7.0300   -3.3590   19.3520 C   0  0  0  0  0  0  0  0  0  0  0  0
    6.3850   -4.2080   20.3560 C   0  0  0  0  0  0  0  0  0  0  0  0
    5.3680   -4.8480   19.9790 O   0  0  0  0  0  0  0  0  0  0  0  0
    6.9250   -4.3230   21.6410 N   0  0  0  0  0  0  0  0  0  0  0  0
    7.7210   -3.2420   22.1900 C   0  0  0  0  0  0  0  0  0  0  0  0
    7.4680   -3.1580   23.6660 C   0  0  0  0  0  0  0  0  0  0  0  0
    6.1140   -3.7210   24.0030 C   0  0  0  0  0  0  0  0  0  0  0  0
    5.6830   -3.3040   25.3570 C   0  0  0  0  0  0  0  0  0  0  0  0
    4.4660   -3.3800   25.6290 O   0  0  0  0  0  0  0  0  0  0  0  0
    6.5630   -2.8290   26.3430 N   0  0  0  0  0  0  0  0  0  0  0  0
    6.4320   -1.5210   26.9460 C   0  0  0  0  0  0  0  0  0  0  0  0
    6.9940   -1.5140   28.3490 C   0  0  0  0  0  0  0  0  0  0  0  0
    6.9960   -0.4080   29.1430 C   0  0  0  0  0  0  0  0  0  0  0  0
    7.5110   -0.3930   30.4210 C   0  0  0  0  0  0  0  0  0  0  0  0
    6.4510    0.7440   28.6180 C   0  0  0  0  0  0  0  0  0  0  0  0
    5.9280    0.7520   27.3220 C   0  0  0  0  0  0  0  0  0  0  0  0
    5.9060   -0.3470   26.4780 C   0  0  0  0  0  0  0  0  0  0  0  0
    5.3590   -0.2640   25.1810 O   0  0  0  0  0  0  0  0  0  0  0  0
    5.0020   -0.9360   24.0760 C   0  0  0  0  0  0  0  0  0  0  0  0
    4.8020   -0.2340   22.7240 C   0  0  0  0  0  0  0  0  0  0  0  0
    5.0960   -1.0000   21.4510 C   0  0  0  0  0  0  0  0  0  0  0  0
    4.9360   -0.4320   20.0550 C   0  0  0  0  0  0  0  0  0  0  0  0
    4.5010    0.8540   19.8700 C   0  0  0  0  0  0  0  0  0  0  0  0
    4.1840    1.6970   21.0960 C   0  0  0  0  0  0  0  0  0  0  0  0
    4.3690    1.0560   22.4820 C   0  0  0  0  0  0  0  0  0  0  0  0
    6.0960   -5.1880   23.7520 C   0  0  0  0  0  0  0  0  0  0  0  0
    6.6370   -5.5040   22.4100 C   0  0  0  0  0  0  0  0  0  0  0  0
  1  2  1  0
  2  3  2  0
  2  4  1  0
  4  5  1  0
  5  6  1  0
  6  7  1  0
  7  8  1  0
  8  9  2  0
  8 10  1  0
 10 11  1  0
 11 12  2  0
 12 13  1  0
 13 14  1  0
 13 15  2  0
 15 16  1  0
 11 17  1  0
 16 17  2  0
 17 18  1  0
 18 19  1  0
 19 20  1  0
 20 21  2  0
 21 22  1  0
 22 23  2  0
 23 24  1  0
 20 25  1  0
 24 25  2  0
  7 26  1  0
  4 27  1  0
 26 27  1  0
M  END
