piperidine-amides-407-covalent
     RDKit          3D

 30 32  0  0  0  0  0  0  0  0999 V2000
    7.0520   -3.3830   19.3400 C   0  0  0  0  0  0  0  0  0  0  0  0
    6.3840   -4.1490   20.3680 C   0  0  0  0  0  0  0  0  0  0  0  0
    5.4010   -4.8600   19.9950 O   0  0  0  0  0  0  0  0  0  0  0  0
    6.8010   -4.1720   21.7190 N   0  0  0  0  0  0  0  0  0  0  0  0
    7.5670   -3.0010   22.2200 C   0  0  0  0  0  0  0  0  0  0  0  0
    7.6640   -3.3110   23.7690 C   0  0  0  0  0  0  0  0  0  0  0  0
    6.2690   -3.7010   24.1970 C   0  0  0  0  0  0  0  0  0  0  0  0
    6.0090   -3.6860   25.7780 C   0  0  0  0  0  0  0  0  0  0  0  0
    5.6630   -4.7900   26.1320 O   0  0  0  0  0  0  0  0  0  0  0  0
    6.1860   -2.5220   26.2730 N   0  0  0  0  0  0  0  0  0  0  0  0
    6.1370   -1.2460   26.7570 C   0  0  0  0  0  0  0  0  0  0  0  0
    5.6380   -0.0750   26.2830 C   0  0  0  0  0  0  0  0  0  0  0  0
    5.6850    1.1550   26.9710 C   0  0  0  0  0  0  0  0  0  0  0  0
    6.2620    1.4330   28.2980 C   0  0  0  0  0  0  0  0  0  0  0  0
    6.8080    0.0960   28.7840 C   0  0  0  0  0  0  0  0  0  0  0  0
    7.3780    0.4050   30.0930 N   0  0  0  0  0  0  0  0  0  0  0  0
    7.1820    1.7500   30.5480 C   0  0  0  0  0  0  0  0  0  0  0  0
    8.1660    2.6230   30.0370 C   0  0  0  0  0  0  0  0  0  0  0  0
    9.4360    2.6720   30.7170 N   0  0  0  0  0  0  0  0  0  0  0  0
    7.8170    3.3620   28.9470 O   0  0  0  0  0  0  0  0  0  0  0  0
    6.9560   -0.6070   30.9980 C   0  0  0  0  0  0  0  0  0  0  0  0
    6.6350    0.0260   32.3970 C   0  0  0  0  0  0  0  0  0  0  0  0
    7.6410    0.2850   33.3070 C   0  0  0  0  0  0  0  0  0  0  0  0
    7.4480    0.8290   34.5470 C   0  0  0  0  0  0  0  0  0  0  0  0
    6.2040    1.1510   34.9470 C   0  0  0  0  0  0  0  0  0  0  0  0
    5.1560    0.9220   34.0990 C   0  0  0  0  0  0  0  0  0  0  0  0
    5.3630    0.3640   32.8340 C   0  0  0  0  0  0  0  0  0  0  0  0
    6.7540   -1.1130   28.0980 C   0  0  0  0  0  0  0  0  0  0  0  0
    5.7100   -5.0050   23.6340 C   0  0  0  0  0  0  0  0  0  0  0  0
    6.6260   -5.3810   22.4740 C   0  0  0  0  0  0  0  0  0  0  0  0
  1  2  1  0
  2  3  2  0
  2  4  1  0
  4  5  1  0
  5  6  1  0
  6  7  1  0
  7  8  1  0
  8  9  2  0
  8 10  1  0
 10 11  1  0
 11 12  2  0
 12 13  1  0
 13 14  2  0
 14 15  1  0
 15 16  1  0
 16 17  1  0
 17 18  1  0
 18 19  1  0
 18 20  2  0
 16 21  1  0
 21 22  1  0
 22 23  2  0
 23 24  1  0
 24 25  2  0
 25 26  1  0
 22 27  1  0
 26 27  2  0
 11 28  1  0
 15 28  2  0
  7 29  1  0
  4 30  1  0
 29 30  1  0
M  END
