piperidine-amides-19432-covalent
     RDKit          3D

 22 23  0  0  0  0  0  0  0  0999 V2000
    7.0510   -3.3220   19.2440 C   0  0  0  0  0  0  0  0  0  0  0  0
    6.3160   -4.0150   20.2900 C   0  0  0  0  0  0  0  0  0  0  0  0
    5.2860   -4.6550   19.9230 O   0  0  0  0  0  0  0  0  0  0  0  0
    6.6980   -4.0640   21.6560 N   0  0  0  0  0  0  0  0  0  0  0  0
    7.7010   -3.0550   22.1080 C   0  0  0  0  0  0  0  0  0  0  0  0
    7.4590   -2.9950   23.6660 C   0  0  0  0  0  0  0  0  0  0  0  0
    6.1060   -3.6230   23.8370 C   0  0  0  0  0  0  0  0  0  0  0  0
    5.3200   -3.2720   25.1850 C   0  0  0  0  0  0  0  0  0  0  0  0
    4.1390   -3.5580   25.0590 O   0  0  0  0  0  0  0  0  0  0  0  0
    6.0900   -2.7700   26.0620 N   0  0  0  0  0  0  0  0  0  0  0  0
    6.8540   -1.8170   26.6540 C   0  0  0  0  0  0  0  0  0  0  0  0
    6.0580   -3.7240   27.1120 C   0  0  0  0  0  0  0  0  0  0  0  0
    5.7390   -5.0600   26.7440 C   0  0  0  0  0  0  0  0  0  0  0  0
    6.4370   -6.0180   27.4820 O   0  0  0  0  0  0  0  0  0  0  0  0
    5.5710   -6.5820   28.3900 C   0  0  0  0  0  0  0  0  0  0  0  0
    4.2710   -7.1770   27.9450 C   0  0  0  0  0  0  0  0  0  0  0  0
    3.5790   -7.6760   29.1040 C   0  0  0  0  0  0  0  0  0  0  0  0
    3.7310   -7.7890   30.5600 C   0  0  0  0  0  0  0  0  0  0  0  0
    5.1240   -7.1220   30.7670 C   0  0  0  0  0  0  0  0  0  0  0  0
    6.0480   -6.5190   29.7080 C   0  0  0  0  0  0  0  0  0  0  0  0
    6.1840   -5.1390   23.5940 C   0  0  0  0  0  0  0  0  0  0  0  0
    6.6660   -5.3540   22.3280 C   0  0  0  0  0  0  0  0  0  0  0  0
  1  2  1  0
  2  3  2  0
  2  4  1  0
  4  5  1  0
  5  6  1  0
  6  7  1  0
  7  8  1  0
  8  9  2  0
  8 10  1  0
 10 11  1  0
 10 12  1  0
 12 13  1  0
 13 14  1  0
 14 15  1  0
 15 16  2  0
 16 17  1  0
 17 18  2  0
 18 19  1  0
 15 20  1  0
 19 20  2  0
  7 21  1  0
  4 22  1  0
 21 22  1  0
M  END
