piperidine-amides-30793-covalent
     RDKit          3D

 28 31  0  0  0  0  0  0  0  0999 V2000
    7.0640   -3.3510   19.3140 C   0  0  0  0  0  0  0  0  0  0  0  0
    6.2910   -4.1430   20.2700 C   0  0  0  0  0  0  0  0  0  0  0  0
    5.2400   -4.6830   19.9120 O   0  0  0  0  0  0  0  0  0  0  0  0
    6.7530   -4.3390   21.5670 N   0  0  0  0  0  0  0  0  0  0  0  0
    6.4890   -5.5410   22.3230 C   0  0  0  0  0  0  0  0  0  0  0  0
    5.6030   -5.1160   23.4720 C   0  0  0  0  0  0  0  0  0  0  0  0
    6.1460   -3.9230   24.2150 C   0  0  0  0  0  0  0  0  0  0  0  0
    5.2420   -3.4370   25.2940 C   0  0  0  0  0  0  0  0  0  0  0  0
    4.0070   -3.3070   25.0630 O   0  0  0  0  0  0  0  0  0  0  0  0
    5.6510   -3.0910   26.6100 N   0  0  0  0  0  0  0  0  0  0  0  0
    4.6680   -3.1280   27.7080 C   0  0  0  0  0  0  0  0  0  0  0  0
    4.9500   -4.2980   28.5650 C   0  0  0  0  0  0  0  0  0  0  0  0
    6.3180   -4.3490   29.0440 C   0  0  0  0  0  0  0  0  0  0  0  0
    7.2970   -4.1630   27.9390 C   0  0  0  0  0  0  0  0  0  0  0  0
    6.9930   -2.9380   27.0480 C   0  0  1  0  0  0  0  0  0  0  0  0
    7.9010   -2.8870   25.8720 C   0  0  0  0  0  0  0  0  0  0  0  0
    9.0600   -2.1300   25.6190 N   0  0  0  0  0  0  0  0  0  0  0  0
    9.5060   -2.5360   24.3990 C   0  0  0  0  0  0  0  0  0  0  0  0
   10.6230   -2.1620   23.6530 C   0  0  0  0  0  0  0  0  0  0  0  0
   10.6830   -2.3540   22.1490 C   0  0  0  0  0  0  0  0  0  0  0  0
   11.9720   -1.9160   21.5570 C   0  0  0  0  0  0  0  0  0  0  0  0
   12.8030   -1.4070   22.6410 C   0  0  0  0  0  0  0  0  0  0  0  0
   13.0380   -1.1410   23.7590 C   0  0  0  0  0  0  0  0  0  0  0  0
   11.7180   -1.6050   24.3520 C   0  0  0  0  0  0  0  0  0  0  0  0
    8.6410   -3.4990   23.9060 C   0  0  0  0  0  0  0  0  0  0  0  0
    7.6760   -3.6740   24.8520 N   0  0  0  0  0  0  0  0  0  0  0  0
    6.4930   -2.7700   23.2910 C   0  0  0  0  0  0  0  0  0  0  0  0
    7.4530   -3.2760   22.2290 C   0  0  0  0  0  0  0  0  0  0  0  0
  1  2  1  0
  2  3  2  0
  2  4  1  0
  4  5  1  0
  5  6  1  0
  6  7  1  0
  7  8  1  0
  8  9  2  0
  8 10  1  0
 10 11  1  0
 11 12  1  0
 12 13  1  0
 13 14  1  0
 10 15  1  0
 14 15  1  0
 15 16  1  6
 16 17  2  0
 17 18  1  0
 18 19  1  0
 19 20  2  0
 20 21  1  0
 21 22  2  0
 22 23  1  0
 19 24  1  0
 23 24  2  0
 18 25  2  0
 16 26  1  0
 25 26  1  0
  7 27  1  0
  4 28  1  0
 27 28  1  0
M  END
