piperidine-amides-33761-covalent
     RDKit          3D

 27 28  0  0  0  0  0  0  0  0999 V2000
    7.1100   -3.2850   19.2440 C   0  0  0  0  0  0  0  0  0  0  0  0
    6.3990   -4.0610   20.2760 C   0  0  0  0  0  0  0  0  0  0  0  0
    5.3390   -4.6350   19.9210 O   0  0  0  0  0  0  0  0  0  0  0  0
    6.9160   -4.1930   21.5890 N   0  0  0  0  0  0  0  0  0  0  0  0
    6.6150   -5.3800   22.3170 C   0  0  0  0  0  0  0  0  0  0  0  0
    6.0330   -5.0660   23.6000 C   0  0  0  0  0  0  0  0  0  0  0  0
    6.1100   -3.6240   23.8420 C   0  0  0  0  0  0  0  0  0  0  0  0
    5.5550   -3.2410   25.1820 C   0  0  0  0  0  0  0  0  0  0  0  0
    4.3270   -3.0520   25.2740 O   0  0  0  0  0  0  0  0  0  0  0  0
    6.3380   -3.0660   26.3370 N   0  0  0  0  0  0  0  0  0  0  0  0
    6.7240   -1.7880   26.8130 C   0  0  0  0  0  0  0  0  0  0  0  0
    6.0430   -4.0110   27.4090 C   0  0  2  0  0  0  0  0  0  0  0  0
    6.8330   -3.8720   28.7030 C   0  0  0  0  0  0  0  0  0  0  0  0
    6.0180   -5.4530   27.1620 C   0  0  0  0  0  0  0  0  0  0  0  0
    5.3140   -5.9360   26.0810 O   0  0  0  0  0  0  0  0  0  0  0  0
    6.6060   -6.2610   27.8840 O   0  0  0  0  0  0  0  0  0  0  0  0
    6.0260   -6.7020   29.0970 C   0  0  0  0  0  0  0  0  0  0  0  0
    4.7080   -3.8880   28.0440 C   0  0  0  0  0  0  0  0  0  0  0  0
    4.4780   -2.6550   28.8930 C   0  0  0  0  0  0  0  0  0  0  0  0
    3.2100   -2.3520   29.6130 C   0  0  0  0  0  0  0  0  0  0  0  0
    2.0930   -3.3690   29.4640 C   0  0  0  0  0  0  0  0  0  0  0  0
    0.5410   -3.1230   30.2690 Cl  0  0  0  0  0  0  0  0  0  0  0  0
    2.3090   -4.6420   28.5970 C   0  0  0  0  0  0  0  0  0  0  0  0
    1.0910   -5.8790   28.3580 Cl  0  0  0  0  0  0  0  0  0  0  0  0
    3.6590   -4.7840   27.9400 C   0  0  0  0  0  0  0  0  0  0  0  0
    7.4760   -3.0810   23.5710 C   0  0  0  0  0  0  0  0  0  0  0  0
    7.6510   -3.0880   22.1900 C   0  0  0  0  0  0  0  0  0  0  0  0
  1  2  1  0
  2  3  2  0
  2  4  1  0
  4  5  1  0
  5  6  1  0
  6  7  1  0
  7  8  1  0
  8  9  2  0
  8 10  1  0
 10 11  1  0
 10 12  1  0
 12 13  1  1
 12 14  1  0
 14 15  2  0
 14 16  1  0
 16 17  1  0
 12 18  1  0
 18 19  2  0
 19 20  1  0
 20 21  2  0
 21 22  1  0
 21 23  1  0
 23 24  1  0
 18 25  1  0
 23 25  2  0
  7 26  1  0
  4 27  1  0
 26 27  1  0
M  END
