piperidine-amides-6951-covalent
     RDKit          3D

 22 23  0  0  0  0  0  0  0  0999 V2000
    7.0870   -3.2570   19.2260 C   0  0  0  0  0  0  0  0  0  0  0  0
    6.3620   -4.0460   20.2390 C   0  0  0  0  0  0  0  0  0  0  0  0
    5.3350   -4.6860   19.9290 O   0  0  0  0  0  0  0  0  0  0  0  0
    6.8340   -4.1240   21.5530 N   0  0  0  0  0  0  0  0  0  0  0  0
    6.6660   -5.3620   22.2830 C   0  0  0  0  0  0  0  0  0  0  0  0
    5.9780   -5.0370   23.6180 C   0  0  0  0  0  0  0  0  0  0  0  0
    6.1590   -3.5550   23.8770 C   0  0  0  0  0  0  0  0  0  0  0  0
    5.9440   -3.2770   25.3020 C   0  0  0  0  0  0  0  0  0  0  0  0
    4.7700   -3.2630   25.7340 O   0  0  0  0  0  0  0  0  0  0  0  0
    7.0720   -3.0320   26.1250 N   0  0  0  0  0  0  0  0  0  0  0  0
    7.1810   -3.6790   27.3980 C   0  0  0  0  0  0  0  0  0  0  0  0
    7.0370   -2.6040   28.4610 C   0  0  0  0  0  0  0  0  0  0  0  0
    7.9710   -1.7320   28.9710 C   0  0  0  0  0  0  0  0  0  0  0  0
    7.6590   -0.8150   29.9520 C   0  0  0  0  0  0  0  0  0  0  0  0
    6.3780   -0.7230   30.4700 C   0  0  0  0  0  0  0  0  0  0  0  0
    6.2100    0.2110   31.4190 N   0  0  0  0  0  0  0  0  0  0  0  0
    5.3010   -1.4800   30.1110 C   0  0  0  0  0  0  0  0  0  0  0  0
    4.0510   -1.3830   30.6240 O   0  0  0  0  0  0  0  0  0  0  0  0
    3.4560   -0.4210   31.3810 C   0  0  0  0  0  0  0  0  0  0  0  0
    5.5840   -2.4880   29.0610 C   0  0  0  0  0  0  0  0  0  0  0  0
    7.4770   -3.0190   23.5100 C   0  0  0  0  0  0  0  0  0  0  0  0
    7.6870   -3.1100   22.0790 C   0  0  0  0  0  0  0  0  0  0  0  0
  1  2  1  0
  2  3  2  0
  2  4  1  0
  4  5  1  0
  5  6  1  0
  6  7  1  0
  7  8  1  0
  8  9  2  0
  8 10  1  0
 10 11  1  0
 11 12  1  0
 12 13  2  0
 13 14  1  0
 14 15  2  0
 15 16  1  0
 15 17  1  0
 17 18  1  0
 18 19  1  0
 12 20  1  0
 17 20  2  0
  7 21  1  0
  4 22  1  0
 21 22  1  0
M  END
