piperidine-amides-28854-covalent
     RDKit          3D

 25 27  0  0  0  0  0  0  0  0999 V2000
    7.0220   -3.3610   19.4050 C   0  0  0  0  0  0  0  0  0  0  0  0
    6.4050   -4.2550   20.3810 C   0  0  0  0  0  0  0  0  0  0  0  0
    5.4170   -4.9130   20.0000 O   0  0  0  0  0  0  0  0  0  0  0  0
    6.9420   -4.3970   21.6970 N   0  0  0  0  0  0  0  0  0  0  0  0
    6.5010   -5.4950   22.4900 C   0  0  0  0  0  0  0  0  0  0  0  0
    5.5410   -4.9740   23.5270 C   0  0  0  0  0  0  0  0  0  0  0  0
    6.2540   -3.9370   24.3840 C   0  0  0  0  0  0  0  0  0  0  0  0
    5.2560   -3.2700   25.3240 C   0  0  0  0  0  0  0  0  0  0  0  0
    4.3790   -2.6430   24.7490 O   0  0  0  0  0  0  0  0  0  0  0  0
    5.3280   -3.3630   26.7320 N   0  0  0  0  0  0  0  0  0  0  0  0
    6.4690   -3.2340   27.4660 C   0  0  0  0  0  0  0  0  0  0  0  0
    6.6620   -4.3390   28.3370 C   0  0  0  0  0  0  0  0  0  0  0  0
    5.6900   -4.5350   29.2770 C   0  0  0  0  0  0  0  0  0  0  0  0
    5.8500   -5.6510   30.0690 O   0  0  0  0  0  0  0  0  0  0  0  0
    5.0950   -6.2990   30.9650 C   0  0  0  0  0  0  0  0  0  0  0  0
    3.7660   -5.7000   31.2640 C   0  0  0  0  0  0  0  0  0  0  0  0
    2.8260   -6.3660   32.2930 C   0  0  0  0  0  0  0  0  0  0  0  0
    3.2600   -7.6130   32.9870 C   0  0  0  0  0  0  0  0  0  0  0  0
    2.2200   -8.3930   34.1580 Cl  0  0  0  0  0  0  0  0  0  0  0  0
    4.6200   -8.1720   32.6400 C   0  0  0  0  0  0  0  0  0  0  0  0
    5.5120   -7.4570   31.5970 C   0  0  0  0  0  0  0  0  0  0  0  0
    4.7210   -4.9470   28.1940 C   0  0  0  0  0  0  0  0  0  0  0  0
    4.2490   -3.8460   27.5080 C   0  0  0  0  0  0  0  0  0  0  0  0
    6.9400   -2.8630   23.5850 C   0  0  0  0  0  0  0  0  0  0  0  0
    7.6680   -3.3440   22.3510 C   0  0  0  0  0  0  0  0  0  0  0  0
  1  2  1  0
  2  3  2  0
  2  4  1  0
  4  5  1  0
  5  6  1  0
  6  7  1  0
  7  8  1  0
  8  9  2  0
  8 10  1  0
 10 11  1  0
 11 12  1  0
 12 13  1  0
 13 14  1  0
 14 15  1  0
 15 16  2  0
 16 17  1  0
 17 18  2  0
 18 19  1  0
 18 20  1  0
 15 21  1  0
 20 21  2  0
 13 22  1  0
 10 23  1  0
 22 23  1  0
  7 24  1  0
  4 25  1  0
 24 25  1  0
M  END
