piperidine-amides-24614-covalent
     RDKit          3D

 23 24  0  0  0  0  0  0  0  0999 V2000
    7.1060   -3.3500   19.2790 C   0  0  0  0  0  0  0  0  0  0  0  0
    6.3870   -4.1580   20.2720 C   0  0  0  0  0  0  0  0  0  0  0  0
    5.3370   -4.7530   19.9570 O   0  0  0  0  0  0  0  0  0  0  0  0
    6.9070   -4.3140   21.5610 N   0  0  0  0  0  0  0  0  0  0  0  0
    7.7220   -3.2510   22.1060 C   0  0  0  0  0  0  0  0  0  0  0  0
    6.9260   -2.6910   23.2770 C   0  0  0  0  0  0  0  0  0  0  0  0
    6.7180   -3.8460   24.2200 C   0  0  0  0  0  0  0  0  0  0  0  0
    6.0510   -3.3140   25.4110 C   0  0  0  0  0  0  0  0  0  0  0  0
    4.7990   -3.3650   25.4900 O   0  0  0  0  0  0  0  0  0  0  0  0
    6.8660   -2.7430   26.4120 N   0  0  0  0  0  0  0  0  0  0  0  0
    7.4410   -3.5370   27.4650 C   0  0  0  0  0  0  0  0  0  0  0  0
    8.1030   -4.7400   26.8480 C   0  0  0  0  0  0  0  0  0  0  0  0
    7.3390   -5.6690   26.2470 C   0  0  0  0  0  0  0  0  0  0  0  0
    8.7720   -5.4500   27.9950 C   0  0  0  0  0  0  0  0  0  0  0  0
    6.7630   -1.6200   27.3260 C   0  0  0  0  0  0  0  0  0  0  0  0
    6.0690   -0.6780   26.7060 C   0  0  0  0  0  0  0  0  0  0  0  0
    5.6580    0.6850   27.1640 C   0  0  0  0  0  0  0  0  0  0  0  0
    6.3140    0.6060   28.5840 C   0  0  0  0  0  0  0  0  0  0  0  0
    6.0170    2.1170   29.4580 Cl  0  0  0  0  0  0  0  0  0  0  0  0
    7.1380   -0.3810   29.4540 C   0  0  0  0  0  0  0  0  0  0  0  0
    7.2620   -1.5250   28.5580 C   0  0  0  0  0  0  0  0  0  0  0  0
    5.8630   -4.8970   23.5680 C   0  0  0  0  0  0  0  0  0  0  0  0
    6.3850   -5.3460   22.3870 C   0  0  0  0  0  0  0  0  0  0  0  0
  1  2  1  0
  2  3  2  0
  2  4  1  0
  4  5  1  0
  5  6  1  0
  6  7  1  0
  7  8  1  0
  8  9  2  0
  8 10  1  0
 10 11  1  0
 11 12  1  0
 12 13  1  0
 12 14  1  0
 10 15  1  0
 15 16  2  0
 16 17  1  0
 17 18  2  0
 18 19  1  0
 18 20  1  0
 15 21  1  0
 20 21  2  0
  7 22  1  0
  4 23  1  0
 22 23  1  0
M  END
