piperidine-amides-17027-covalent
     RDKit          3D

 20 21  0  0  0  0  0  0  0  0999 V2000
    7.1220   -3.2820   19.1840 C   0  0  0  0  0  0  0  0  0  0  0  0
    6.4020   -4.0270   20.2300 C   0  0  0  0  0  0  0  0  0  0  0  0
    5.3090   -4.5470   19.8930 O   0  0  0  0  0  0  0  0  0  0  0  0
    6.9470   -4.2000   21.5300 N   0  0  0  0  0  0  0  0  0  0  0  0
    6.4700   -5.2770   22.3190 C   0  0  0  0  0  0  0  0  0  0  0  0
    5.8140   -4.8280   23.5410 C   0  0  0  0  0  0  0  0  0  0  0  0
    5.9230   -3.3700   23.7640 C   0  0  0  0  0  0  0  0  0  0  0  0
    5.2830   -2.9520   25.0600 C   0  0  0  0  0  0  0  0  0  0  0  0
    4.0580   -3.1130   25.2010 O   0  0  0  0  0  0  0  0  0  0  0  0
    6.0080   -2.3880   26.1300 N   0  0  0  0  0  0  0  0  0  0  0  0
    6.9880   -1.3860   26.0870 C   0  0  0  0  0  0  0  0  0  0  0  0
    6.1580   -3.2270   27.2700 C   0  0  0  0  0  0  0  0  0  0  0  0
    7.3980   -4.0760   27.2120 C   0  0  1  0  0  0  0  0  0  0  0  0
    8.1490   -4.1810   28.3310 C   0  0  0  0  0  0  0  0  0  0  0  0
    8.9740   -5.3880   27.7630 C   0  0  0  0  0  0  0  0  0  0  0  0
    7.7800   -6.1650   27.3700 C   0  0  0  0  0  0  0  0  0  0  0  0
    6.9440   -5.3520   26.8630 N   0  0  0  0  0  0  0  0  0  0  0  0
    5.6280   -5.5850   26.9570 C   0  0  0  0  0  0  0  0  0  0  0  0
    7.3220   -2.8430   23.5870 C   0  0  0  0  0  0  0  0  0  0  0  0
    7.7250   -3.1330   22.1490 C   0  0  0  0  0  0  0  0  0  0  0  0
  1  2  1  0
  2  3  2  0
  2  4  1  0
  4  5  1  0
  5  6  1  0
  6  7  1  0
  7  8  1  0
  8  9  2  0
  8 10  1  0
 10 11  1  0
 10 12  1  0
 13 12  1  1
 13 14  1  0
 14 15  1  0
 15 16  1  0
 13 17  1  0
 16 17  1  0
 17 18  1  0
  7 19  1  0
  4 20  1  0
 19 20  1  0
M  END
