piperidine-amides-31280-covalent
     RDKit          3D

 27 29  0  0  0  0  0  0  0  0999 V2000
    6.9790   -3.4230   19.4050 C   0  0  0  0  0  0  0  0  0  0  0  0
    6.3450   -4.2380   20.4300 C   0  0  0  0  0  0  0  0  0  0  0  0
    5.4130   -4.9950   20.0220 O   0  0  0  0  0  0  0  0  0  0  0  0
    6.7270   -4.2640   21.8050 N   0  0  0  0  0  0  0  0  0  0  0  0
    7.5930   -3.1360   22.2780 C   0  0  0  0  0  0  0  0  0  0  0  0
    7.5460   -3.2320   23.8580 C   0  0  0  0  0  0  0  0  0  0  0  0
    6.2180   -3.8650   24.1890 C   0  0  0  0  0  0  0  0  0  0  0  0
    5.4750   -3.3210   25.5170 C   0  0  0  0  0  0  0  0  0  0  0  0
    4.7030   -2.4380   25.1820 O   0  0  0  0  0  0  0  0  0  0  0  0
    5.8270   -3.9200   26.6130 N   0  0  0  0  0  0  0  0  0  0  0  0
    6.2400   -4.8320   27.5200 C   0  0  0  0  0  0  0  0  0  0  0  0
    5.8170   -5.4720   28.6040 C   0  0  0  0  0  0  0  0  0  0  0  0
    5.3350   -4.5040   29.4680 O   0  0  0  0  0  0  0  0  0  0  0  0
    4.9010   -3.3700   28.8120 C   0  0  1  0  0  0  0  0  0  0  0  0
    4.9380   -2.3120   29.8430 C   0  0  0  0  0  0  0  0  0  0  0  0
    6.1100   -1.3350   29.7450 C   0  0  0  0  0  0  0  0  0  0  0  0
    5.9150   -0.4340   30.8310 C   0  0  0  0  0  0  0  0  0  0  0  0
    4.8510   -0.4590   31.7890 C   0  0  0  0  0  0  0  0  0  0  0  0
    5.3730    0.7670   32.5450 C   0  0  0  0  0  0  0  0  0  0  0  0
    4.7130    1.1570   33.6500 F   0  0  0  0  0  0  0  0  0  0  0  0
    6.6880    0.5300   33.0250 F   0  0  0  0  0  0  0  0  0  0  0  0
    5.3570    1.8190   31.6550 F   0  0  0  0  0  0  0  0  0  0  0  0
    3.7190   -1.5090   31.7770 C   0  0  0  0  0  0  0  0  0  0  0  0
    3.7670   -2.4370   30.7970 C   0  0  0  0  0  0  0  0  0  0  0  0
    5.6420   -2.8860   27.6460 C   0  0  0  0  0  0  0  0  0  0  0  0
    6.1960   -5.3340   23.8410 C   0  0  0  0  0  0  0  0  0  0  0  0
    6.6780   -5.5150   22.5560 C   0  0  0  0  0  0  0  0  0  0  0  0
  1  2  1  0
  2  3  2  0
  2  4  1  0
  4  5  1  0
  5  6  1  0
  6  7  1  0
  7  8  1  0
  8  9  2  0
  8 10  1  0
 10 11  1  0
 11 12  1  0
 12 13  1  0
 13 14  1  0
 14 15  1  1
 15 16  2  0
 16 17  1  0
 17 18  2  0
 18 19  1  0
 19 20  1  0
 19 21  1  0
 19 22  1  0
 18 23  1  0
 15 24  1  0
 23 24  2  0
 10 25  1  0
 14 25  1  0
  7 26  1  0
  4 27  1  0
 26 27  1  0
M  END
