piperidine-amides-24905-covalent
     RDKit          3D

 23 25  0  0  0  0  0  0  0  0999 V2000
    6.9760   -3.3460   19.4300 C   0  0  0  0  0  0  0  0  0  0  0  0
    6.3270   -4.2340   20.4190 C   0  0  0  0  0  0  0  0  0  0  0  0
    5.4040   -4.9860   20.0210 O   0  0  0  0  0  0  0  0  0  0  0  0
    6.7340   -4.2880   21.7810 N   0  0  0  0  0  0  0  0  0  0  0  0
    6.7160   -5.5880   22.4280 C   0  0  0  0  0  0  0  0  0  0  0  0
    6.2000   -5.4120   23.8640 C   0  0  0  0  0  0  0  0  0  0  0  0
    6.1240   -3.9330   24.1080 C   0  0  0  0  0  0  0  0  0  0  0  0
    5.5730   -3.6010   25.4730 C   0  0  0  0  0  0  0  0  0  0  0  0
    4.4340   -3.0950   25.4800 O   0  0  0  0  0  0  0  0  0  0  0  0
    6.2530   -3.8140   26.7230 N   0  0  0  0  0  0  0  0  0  0  0  0
    6.4660   -2.7350   27.6220 C   0  0  0  0  0  0  0  0  0  0  0  0
    5.1950   -2.5250   28.3310 C   0  0  0  0  0  0  0  0  0  0  0  0
    4.6200   -3.5510   28.9610 C   0  0  0  0  0  0  0  0  0  0  0  0
    3.5300   -3.3480   29.7240 C   0  0  0  0  0  0  0  0  0  0  0  0
    3.0200   -4.4390   30.3140 C   0  0  0  0  0  0  0  0  0  0  0  0
    1.8970   -4.3320   31.1130 F   0  0  0  0  0  0  0  0  0  0  0  0
    3.5860   -5.6560   30.1470 C   0  0  0  0  0  0  0  0  0  0  0  0
    4.7980   -6.1810   29.3670 C   0  0  0  0  0  0  0  0  0  0  0  0
    5.4580   -7.7550   29.2170 Cl  0  0  0  0  0  0  0  0  0  0  0  0
    5.1880   -4.7890   28.7850 C   0  0  0  0  0  0  0  0  0  0  0  0
    6.3710   -4.7290   27.8820 C   0  0  0  0  0  0  0  0  0  0  0  0
    7.4620   -3.3060   23.7860 C   0  0  0  0  0  0  0  0  0  0  0  0
    7.5300   -3.2080   22.3700 C   0  0  0  0  0  0  0  0  0  0  0  0
  1  2  1  0
  2  3  2  0
  2  4  1  0
  4  5  1  0
  5  6  1  0
  6  7  1  0
  7  8  1  0
  8  9  2  0
  8 10  1  0
 10 11  1  0
 11 12  1  0
 12 13  1  0
 13 14  2  0
 14 15  1  0
 15 16  1  0
 15 17  2  0
 17 18  1  0
 18 19  1  0
 13 20  1  0
 18 20  2  0
 10 21  1  0
 20 21  1  0
  7 22  1  0
  4 23  1  0
 22 23  1  0
M  END
