piperidine-amides-16154-covalent
     RDKit          3D

 19 20  0  0  0  0  0  0  0  0999 V2000
    7.0650   -3.3540   19.3010 C   0  0  0  0  0  0  0  0  0  0  0  0
    6.3420   -4.1690   20.3080 C   0  0  0  0  0  0  0  0  0  0  0  0
    5.3080   -4.7170   19.9410 O   0  0  0  0  0  0  0  0  0  0  0  0
    6.8680   -4.3310   21.5890 N   0  0  0  0  0  0  0  0  0  0  0  0
    6.6790   -5.5510   22.3400 C   0  0  0  0  0  0  0  0  0  0  0  0
    6.1070   -5.2480   23.7000 C   0  0  0  0  0  0  0  0  0  0  0  0
    6.1070   -3.7380   23.9480 C   0  0  0  0  0  0  0  0  0  0  0  0
    5.6200   -3.4840   25.3140 C   0  0  0  0  0  0  0  0  0  0  0  0
    4.5760   -2.8360   25.4550 O   0  0  0  0  0  0  0  0  0  0  0  0
    6.2820   -3.9580   26.4580 N   0  0  0  0  0  0  0  0  0  0  0  0
    5.5080   -4.1520   27.6360 C   0  0  2  0  0  0  0  0  0  0  0  0
    4.7800   -2.8550   27.9110 C   0  0  0  0  0  0  0  0  0  0  0  0
    6.4210   -4.3890   28.7930 C   0  0  0  0  0  0  0  0  0  0  0  0
    7.5640   -4.5220   28.0260 C   0  0  0  0  0  0  0  0  0  0  0  0
    7.5910   -3.8090   26.8590 C   0  0  2  0  0  0  0  0  0  0  0  0
    8.0080   -2.3630   26.7450 C   0  0  0  0  0  0  0  0  0  0  0  0
    8.7860   -2.0630   25.6600 O   0  0  0  0  0  0  0  0  0  0  0  0
    7.4200   -3.1200   23.6180 C   0  0  0  0  0  0  0  0  0  0  0  0
    7.6970   -3.2750   22.1620 C   0  0  0  0  0  0  0  0  0  0  0  0
  1  2  1  0
  2  3  2  0
  2  4  1  0
  4  5  1  0
  5  6  1  0
  6  7  1  0
  7  8  1  0
  8  9  2  0
  8 10  1  0
 10 11  1  0
 11 12  1  1
 11 13  1  0
 13 14  1  0
 10 15  1  0
 14 15  1  0
 15 16  1  1
 16 17  1  0
  7 18  1  0
  4 19  1  0
 18 19  1  0
M  END
