piperidine-amides-5160-covalent
     RDKit          3D

 22 23  0  0  0  0  0  0  0  0999 V2000
    7.1470   -3.2950   19.2760 C   0  0  0  0  0  0  0  0  0  0  0  0
    6.3770   -4.0440   20.2920 C   0  0  0  0  0  0  0  0  0  0  0  0
    5.3120   -4.5700   19.9000 O   0  0  0  0  0  0  0  0  0  0  0  0
    6.8620   -4.1900   21.6020 N   0  0  0  0  0  0  0  0  0  0  0  0
    7.6730   -3.1680   22.1840 C   0  0  0  0  0  0  0  0  0  0  0  0
    7.3250   -2.8960   23.5740 C   0  0  0  0  0  0  0  0  0  0  0  0
    6.0370   -3.4990   23.9720 C   0  0  0  0  0  0  0  0  0  0  0  0
    5.6400   -3.1520   25.3630 C   0  0  0  0  0  0  0  0  0  0  0  0
    4.4920   -2.7090   25.5320 O   0  0  0  0  0  0  0  0  0  0  0  0
    6.5040   -3.2880   26.4650 N   0  0  0  0  0  0  0  0  0  0  0  0
    6.1670   -4.0600   27.6960 C   0  0  0  0  0  0  0  0  0  0  0  0
    5.6690   -5.4490   27.4310 C   0  0  0  0  0  0  0  0  0  0  0  0
    4.6000   -5.5950   26.5000 N   0  0  0  0  0  0  0  0  0  0  0  0
    4.6230   -6.4640   25.5340 N   0  0  0  0  0  0  0  0  0  0  0  0
    3.4590   -6.4460   24.7060 C   0  0  0  0  0  0  0  0  0  0  0  0
    3.1500   -7.2070   23.6080 C   0  0  0  0  0  0  0  0  0  0  0  0
    2.4930   -5.3730   25.2230 C   0  0  0  0  0  0  0  0  0  0  0  0
    1.2840   -5.0870   24.6640 C   0  0  0  0  0  0  0  0  0  0  0  0
    3.3440   -4.9130   26.3690 C   0  0  0  0  0  0  0  0  0  0  0  0
    2.9090   -3.9150   27.1940 C   0  0  0  0  0  0  0  0  0  0  0  0
    6.0270   -4.9900   23.7140 C   0  0  0  0  0  0  0  0  0  0  0  0
    6.6260   -5.3710   22.4070 C   0  0  0  0  0  0  0  0  0  0  0  0
  1  2  1  0
  2  3  2  0
  2  4  1  0
  4  5  1  0
  5  6  1  0
  6  7  1  0
  7  8  1  0
  8  9  2  0
  8 10  1  0
 10 11  1  0
 11 12  1  0
 12 13  1  0
 13 14  1  0
 14 15  2  0
 15 16  1  0
 15 17  1  0
 17 18  1  0
 13 19  1  0
 17 19  2  0
 19 20  1  0
  7 21  1  0
  4 22  1  0
 21 22  1  0
M  END
