piperidine-amides-3873-covalent
     RDKit          3D

 23 25  0  0  0  0  0  0  0  0999 V2000
    7.0510   -3.3320   19.3120 C   0  0  0  0  0  0  0  0  0  0  0  0
    6.3810   -4.1440   20.3440 C   0  0  0  0  0  0  0  0  0  0  0  0
    5.3670   -4.7830   19.9710 O   0  0  0  0  0  0  0  0  0  0  0  0
    6.8740   -4.2500   21.6790 N   0  0  0  0  0  0  0  0  0  0  0  0
    7.6760   -3.2100   22.2430 C   0  0  0  0  0  0  0  0  0  0  0  0
    7.4250   -2.9940   23.6630 C   0  0  0  0  0  0  0  0  0  0  0  0
    6.2070   -3.6760   24.1280 C   0  0  0  0  0  0  0  0  0  0  0  0
    5.7950   -3.3690   25.5520 C   0  0  0  0  0  0  0  0  0  0  0  0
    4.7770   -3.9290   25.9910 O   0  0  0  0  0  0  0  0  0  0  0  0
    6.4750   -2.4560   26.4070 N   0  0  0  0  0  0  0  0  0  0  0  0
    5.9380   -1.2260   26.9080 C   0  0  1  0  0  0  0  0  0  0  0  0
    6.4860   -0.6300   28.1330 C   0  0  0  0  0  0  0  0  0  0  0  0
    7.4620   -1.4540   28.8600 C   0  0  0  0  0  0  0  0  0  0  0  0
    8.0770   -1.0390   29.9790 C   0  0  0  0  0  0  0  0  0  0  0  0
    7.7630    0.3300   30.5840 C   0  0  0  0  0  0  0  0  0  0  0  0
    6.7460    1.1920   29.8620 C   0  0  0  0  0  0  0  0  0  0  0  0
    6.0860    0.6770   28.5720 C   0  0  0  0  0  0  0  0  0  0  0  0
    5.1670    1.3500   27.8160 O   0  0  0  0  0  0  0  0  0  0  0  0
    5.3180    1.2160   26.4230 C   0  0  0  0  0  0  0  0  0  0  0  0
    5.7810   -0.1800   26.0160 C   0  0  2  0  0  0  0  0  0  0  0  0
    5.0300   -0.6980   25.0110 O   0  0  0  0  0  0  0  0  0  0  0  0
    6.3140   -5.1920   23.8840 C   0  0  0  0  0  0  0  0  0  0  0  0
    6.5220   -5.4750   22.4240 C   0  0  0  0  0  0  0  0  0  0  0  0
  1  2  1  0
  2  3  2  0
  2  4  1  0
  4  5  1  0
  5  6  1  0
  6  7  1  0
  7  8  1  0
  8  9  2  0
  8 10  1  0
 11 10  1  6
 11 12  1  0
 12 13  2  0
 13 14  1  0
 14 15  2  0
 15 16  1  0
 12 17  1  0
 16 17  2  0
 17 18  1  0
 18 19  1  0
 11 20  1  0
 19 20  1  0
 20 21  1  6
  7 22  1  0
  4 23  1  0
 22 23  1  0
M  END
