piperidine-amides-19495-covalent
     RDKit          3D

 22 23  0  0  0  0  0  0  0  0999 V2000
    7.1040   -3.3530   19.4730 C   0  0  0  0  0  0  0  0  0  0  0  0
    6.4240   -4.2060   20.4280 C   0  0  0  0  0  0  0  0  0  0  0  0
    5.4570   -4.9240   20.0040 O   0  0  0  0  0  0  0  0  0  0  0  0
    6.8100   -4.2880   21.7910 N   0  0  0  0  0  0  0  0  0  0  0  0
    6.5120   -5.5310   22.5390 C   0  0  0  0  0  0  0  0  0  0  0  0
    6.6230   -5.0000   24.0290 C   0  0  0  0  0  0  0  0  0  0  0  0
    6.0470   -3.6080   23.9680 C   0  0  0  0  0  0  0  0  0  0  0  0
    5.4070   -3.0110   25.3090 C   0  0  0  0  0  0  0  0  0  0  0  0
    4.3670   -2.4390   25.0300 O   0  0  0  0  0  0  0  0  0  0  0  0
    6.1050   -3.2860   26.3390 N   0  0  0  0  0  0  0  0  0  0  0  0
    6.6840   -4.1160   27.2550 C   0  0  0  0  0  0  0  0  0  0  0  0
    6.2620   -2.0250   27.0250 C   0  0  0  0  0  0  0  0  0  0  0  0
    6.8900   -1.9340   28.2820 C   0  0  0  0  0  0  0  0  0  0  0  0
    7.1100   -0.7030   29.1110 C   0  0  0  0  0  0  0  0  0  0  0  0
    6.5470    0.6160   28.4500 C   0  0  0  0  0  0  0  0  0  0  0  0
    5.9450    0.3950   27.1950 C   0  0  0  0  0  0  0  0  0  0  0  0
    5.8550   -0.8490   26.6050 C   0  0  0  0  0  0  0  0  0  0  0  0
    5.1520   -0.0500   25.4910 C   0  0  0  0  0  0  0  0  0  0  0  0
    5.9910    1.0380   24.7260 C   0  0  0  0  0  0  0  0  0  0  0  0
    5.4190    2.0670   24.2860 O   0  0  0  0  0  0  0  0  0  0  0  0
    7.0010   -2.6240   23.2860 C   0  0  0  0  0  0  0  0  0  0  0  0
    7.7490   -3.3410   22.3900 C   0  0  0  0  0  0  0  0  0  0  0  0
  1  2  1  0
  2  3  2  0
  2  4  1  0
  4  5  1  0
  5  6  1  0
  6  7  1  0
  7  8  1  0
  8  9  2  0
  8 10  1  0
 10 11  1  0
 10 12  1  0
 12 13  2  0
 13 14  1  0
 14 15  2  0
 15 16  1  0
 12 17  1  0
 16 17  2  0
 17 18  1  0
 18 19  1  0
 19 20  1  0
  7 21  1  0
  4 22  1  0
 21 22  1  0
M  END
