piperidine-amides-6567-covalent
     RDKit          3D

 24 26  0  0  0  0  0  0  0  0999 V2000
    7.1190   -3.3480   19.3310 C   0  0  0  0  0  0  0  0  0  0  0  0
    6.3830   -4.1720   20.2940 C   0  0  0  0  0  0  0  0  0  0  0  0
    5.3340   -4.7620   19.9570 O   0  0  0  0  0  0  0  0  0  0  0  0
    6.8950   -4.3520   21.5810 N   0  0  0  0  0  0  0  0  0  0  0  0
    7.7220   -3.3110   22.1610 C   0  0  0  0  0  0  0  0  0  0  0  0
    6.8750   -2.6530   23.2400 C   0  0  0  0  0  0  0  0  0  0  0  0
    6.6280   -3.7480   24.2380 C   0  0  0  0  0  0  0  0  0  0  0  0
    5.9160   -3.1670   25.3900 C   0  0  0  0  0  0  0  0  0  0  0  0
    4.6960   -3.3960   25.5380 O   0  0  0  0  0  0  0  0  0  0  0  0
    6.6700   -2.3540   26.2730 N   0  0  0  0  0  0  0  0  0  0  0  0
    6.0590   -1.6340   27.3580 C   0  0  1  0  0  0  0  0  0  0  0  0
    7.0010   -1.7010   28.5210 C   0  0  0  0  0  0  0  0  0  0  0  0
    6.8860   -0.7610   29.4560 C   0  0  0  0  0  0  0  0  0  0  0  0
    6.8780    0.3900   28.9840 O   0  0  0  0  0  0  0  0  0  0  0  0
    5.8520    0.6690   28.1040 C   0  0  2  0  0  0  0  0  0  0  0  0
    6.0820    2.0150   27.7370 C   0  0  0  0  0  0  0  0  0  0  0  0
    5.1830    2.9010   28.3100 C   0  0  0  0  0  0  0  0  0  0  0  0
    3.9040    1.9150   28.9630 S   0  0  0  0  0  0  0  0  0  0  0  0
    2.6060    2.0430   28.2160 O   0  0  0  0  0  0  0  0  0  0  0  0
    3.7000    2.1310   30.4300 O   0  0  0  0  0  0  0  0  0  0  0  0
    4.5780    0.3280   28.6100 C   0  0  0  0  0  0  0  0  0  0  0  0
    5.9050   -0.1880   26.9980 C   0  0  0  0  0  0  0  0  0  0  0  0
    5.8780   -4.9040   23.7060 C   0  0  0  0  0  0  0  0  0  0  0  0
    6.3890   -5.3790   22.4210 C   0  0  0  0  0  0  0  0  0  0  0  0
  1  2  1  0
  2  3  2  0
  2  4  1  0
  4  5  1  0
  5  6  1  0
  6  7  1  0
  7  8  1  0
  8  9  2  0
  8 10  1  0
 11 10  1  6
 11 12  1  0
 12 13  1  0
 13 14  1  0
 15 14  1  0
 15 16  1  6
 16 17  1  0
 18 17  1  0
 18 19  2  0
 18 20  2  0
 15 21  1  0
 18 21  1  0
 11 22  1  0
 15 22  1  0
  7 23  1  0
  4 24  1  0
 23 24  1  0
M  END
