piperidine-amides-23259-covalent
     RDKit          3D

 22 24  0  0  0  0  0  0  0  0999 V2000
    7.1570   -3.3490   19.2510 C   0  0  0  0  0  0  0  0  0  0  0  0
    6.4190   -4.1140   20.2560 C   0  0  0  0  0  0  0  0  0  0  0  0
    5.3150   -4.5990   19.9120 O   0  0  0  0  0  0  0  0  0  0  0  0
    6.9950   -4.3520   21.5230 N   0  0  0  0  0  0  0  0  0  0  0  0
    6.5330   -5.4440   22.2830 C   0  0  0  0  0  0  0  0  0  0  0  0
    6.0190   -5.0680   23.5980 C   0  0  0  0  0  0  0  0  0  0  0  0
    6.6500   -3.8900   24.2470 C   0  0  0  0  0  0  0  0  0  0  0  0
    5.7930   -3.3680   25.3490 C   0  0  0  0  0  0  0  0  0  0  0  0
    4.8950   -2.5430   25.1010 O   0  0  0  0  0  0  0  0  0  0  0  0
    5.9820   -3.8050   26.6570 N   0  0  0  0  0  0  0  0  0  0  0  0
    6.9650   -4.7140   27.0560 C   0  0  0  0  0  0  0  0  0  0  0  0
    6.6190   -6.0640   27.3190 C   0  0  0  0  0  0  0  0  0  0  0  0
    4.8460   -6.1790   27.0550 S   0  0  0  0  0  0  0  0  0  0  0  0
    4.4820   -5.9330   25.6210 O   0  0  0  0  0  0  0  0  0  0  0  0
    4.2780   -7.4680   27.5210 O   0  0  0  0  0  0  0  0  0  0  0  0
    4.3560   -4.9750   27.8860 N   0  0  0  0  0  0  0  0  0  0  0  0
    4.7480   -5.4730   29.1270 C   0  0  0  0  0  0  0  0  0  0  0  0
    6.0710   -5.0610   29.0880 C   0  0  0  0  0  0  0  0  0  0  0  0
    5.6760   -3.5370   28.9990 C   0  0  0  0  0  0  0  0  0  0  0  0
    4.9840   -3.6900   27.6740 C   0  0  1  0  0  0  0  0  0  0  0  0
    6.9190   -2.7690   23.2530 C   0  0  0  0  0  0  0  0  0  0  0  0
    7.8000   -3.3630   22.2000 C   0  0  0  0  0  0  0  0  0  0  0  0
  1  2  1  0
  2  3  2  0
  2  4  1  0
  4  5  1  0
  5  6  1  0
  6  7  1  0
  7  8  1  0
  8  9  2  0
  8 10  1  0
 10 11  1  0
 11 12  1  0
 13 12  1  0
 13 14  2  0
 13 15  2  0
 13 16  1  0
 16 17  1  0
 17 18  1  0
 18 19  1  0
 10 20  1  0
 16 20  1  0
 20 19  1  1
  7 21  1  0
  4 22  1  0
 21 22  1  0
M  END
