piperidine-amides-35095-covalent
     RDKit          3D

 31 33  0  0  0  0  0  0  0  0999 V2000
    7.0260   -3.3560   19.3930 C   0  0  0  0  0  0  0  0  0  0  0  0
    6.3870   -4.2490   20.3960 C   0  0  0  0  0  0  0  0  0  0  0  0
    5.4270   -4.9160   20.0030 O   0  0  0  0  0  0  0  0  0  0  0  0
    6.9000   -4.3320   21.7040 N   0  0  0  0  0  0  0  0  0  0  0  0
    7.7020   -3.2540   22.2520 C   0  0  0  0  0  0  0  0  0  0  0  0
    7.4340   -3.1100   23.7240 C   0  0  0  0  0  0  0  0  0  0  0  0
    6.0590   -3.6920   24.0330 C   0  0  0  0  0  0  0  0  0  0  0  0
    5.5740   -3.2170   25.3650 C   0  0  0  0  0  0  0  0  0  0  0  0
    4.9880   -2.1320   25.3890 O   0  0  0  0  0  0  0  0  0  0  0  0
    5.6930   -3.9000   26.6020 N   0  0  0  0  0  0  0  0  0  0  0  0
    4.4470   -4.4160   27.1500 C   0  0  0  0  0  0  0  0  0  0  0  0
    4.3960   -4.3570   28.6880 C   0  0  0  0  0  0  0  0  0  0  0  0
    5.5850   -5.0110   29.2160 N   0  0  0  0  0  0  0  0  0  0  0  0
    5.3990   -6.7090   29.0590 S   0  0  0  0  0  0  0  0  0  0  0  0
    4.8480   -6.9310   27.6910 O   0  0  0  0  0  0  0  0  0  0  0  0
    6.7660   -7.2990   29.1160 O   0  0  0  0  0  0  0  0  0  0  0  0
    4.3020   -7.3790   30.3680 C   0  0  0  0  0  0  0  0  0  0  0  0
    3.0150   -7.7620   30.0830 C   0  0  0  0  0  0  0  0  0  0  0  0
    2.2960   -8.2510   31.1420 C   0  0  0  0  0  0  0  0  0  0  0  0
    2.7660   -8.4080   32.5580 C   0  0  0  0  0  0  0  0  0  0  0  0
    1.5860   -8.9840   33.2780 C   0  0  0  0  0  0  0  0  0  0  0  0
    0.3270   -8.7110   32.8280 O   0  0  0  0  0  0  0  0  0  0  0  0
    1.7190   -9.8020   34.4030 O   0  0  0  0  0  0  0  0  0  0  0  0
    1.1840  -11.1230   34.3960 C   0  0  0  0  0  0  0  0  0  0  0  0
    1.9290  -12.0170   35.3270 C   0  0  0  0  0  0  0  0  0  0  0  0
    4.1180   -8.0230   32.9430 C   0  0  0  0  0  0  0  0  0  0  0  0
    4.9010   -7.4840   31.7570 C   0  0  0  0  0  0  0  0  0  0  0  0
    6.7420   -4.6780   28.4990 C   0  0  0  0  0  0  0  0  0  0  0  0
    6.3960   -3.4260   27.7430 C   0  0  0  0  0  0  0  0  0  0  0  0
    6.1510   -5.1890   23.8710 C   0  0  0  0  0  0  0  0  0  0  0  0
    6.6100   -5.5220   22.4650 C   0  0  0  0  0  0  0  0  0  0  0  0
  1  2  1  0
  2  3  2  0
  2  4  1  0
  4  5  1  0
  5  6  1  0
  6  7  1  0
  7  8  1  0
  8  9  2  0
  8 10  1  0
 10 11  1  0
 11 12  1  0
 12 13  1  0
 13 14  1  0
 14 15  2  0
 14 16  2  0
 14 17  1  0
 17 18  2  0
 18 19  1  0
 19 20  2  0
 20 21  1  0
 21 22  2  0
 21 23  1  0
 23 24  1  0
 24 25  1  0
 20 26  1  0
 17 27  1  0
 26 27  2  0
 13 28  1  0
 10 29  1  0
 28 29  1  0
  7 30  1  0
  4 31  1  0
 30 31  1  0
M  END
