piperidine-amides-17200-covalent
     RDKit          3D

 20 21  0  0  0  0  0  0  0  0999 V2000
    7.0280   -3.3850   19.3950 C   0  0  0  0  0  0  0  0  0  0  0  0
    6.3960   -4.2580   20.3970 C   0  0  0  0  0  0  0  0  0  0  0  0
    5.3960   -4.9070   20.0000 O   0  0  0  0  0  0  0  0  0  0  0  0
    6.9190   -4.4130   21.7190 N   0  0  0  0  0  0  0  0  0  0  0  0
    6.4030   -5.4510   22.5380 C   0  0  0  0  0  0  0  0  0  0  0  0
    5.7680   -5.0020   23.7910 C   0  0  0  0  0  0  0  0  0  0  0  0
    6.2460   -3.7310   24.4110 C   0  0  0  0  0  0  0  0  0  0  0  0
    5.1900   -3.1550   25.3560 C   0  0  0  0  0  0  0  0  0  0  0  0
    4.3980   -2.3160   24.9190 O   0  0  0  0  0  0  0  0  0  0  0  0
    5.0750   -3.5490   26.7200 N   0  0  0  0  0  0  0  0  0  0  0  0
    4.6110   -2.8700   27.8290 C   0  0  0  0  0  0  0  0  0  0  0  0
    5.0960   -3.4710   29.0590 C   0  0  0  0  0  0  0  0  0  0  0  0
    6.0790   -4.5910   28.6010 C   0  0  2  0  0  0  0  0  0  0  0  0
    6.2130   -5.8770   29.1310 C   0  0  0  0  0  0  0  0  0  0  0  0
    5.2520   -5.7850   28.0490 C   0  0  0  0  0  0  0  0  0  0  0  0
    4.6280   -5.0340   29.1910 C   0  0  0  0  0  0  0  0  0  0  0  0
    3.9850   -5.9620   30.0230 O   0  0  0  0  0  0  0  0  0  0  0  0
    6.1810   -4.2220   27.1610 C   0  0  0  0  0  0  0  0  0  0  0  0
    6.7480   -2.6900   23.4240 C   0  0  0  0  0  0  0  0  0  0  0  0
    7.6420   -3.3520   22.3850 C   0  0  0  0  0  0  0  0  0  0  0  0
  1  2  1  0
  2  3  2  0
  2  4  1  0
  4  5  1  0
  5  6  1  0
  6  7  1  0
  7  8  1  0
  8  9  2  0
  8 10  1  0
 10 11  1  0
 11 12  1  0
 12 13  1  0
 13 14  1  1
 13 15  1  0
 15 16  1  0
 16 17  1  0
 10 18  1  0
 13 18  1  0
  7 19  1  0
  4 20  1  0
 19 20  1  0
M  END
