piperidine-amides-33101-covalent
     RDKit          3D

 30 33  0  0  0  0  0  0  0  0999 V2000
    7.0290   -3.3790   19.3590 C   0  0  0  0  0  0  0  0  0  0  0  0
    6.4080   -4.2410   20.3770 C   0  0  0  0  0  0  0  0  0  0  0  0
    5.4040   -4.8970   20.0010 O   0  0  0  0  0  0  0  0  0  0  0  0
    6.9510   -4.3640   21.6910 N   0  0  0  0  0  0  0  0  0  0  0  0
    6.6130   -5.5210   22.4630 C   0  0  0  0  0  0  0  0  0  0  0  0
    6.2120   -5.2490   23.8550 C   0  0  0  0  0  0  0  0  0  0  0  0
    6.0830   -3.8150   24.1690 C   0  0  0  0  0  0  0  0  0  0  0  0
    5.5250   -3.4860   25.5420 C   0  0  0  0  0  0  0  0  0  0  0  0
    4.5410   -2.7290   25.5560 O   0  0  0  0  0  0  0  0  0  0  0  0
    5.9940   -3.9590   26.8030 N   0  0  0  0  0  0  0  0  0  0  0  0
    6.1190   -5.3000   27.2030 C   0  0  0  0  0  0  0  0  0  0  0  0
    5.2040   -5.9190   28.0690 C   0  0  0  0  0  0  0  0  0  0  0  0
    5.6070   -5.3930   29.4450 C   0  0  0  0  0  0  0  0  0  0  0  0
    6.4400   -6.2340   30.1440 O   0  0  0  0  0  0  0  0  0  0  0  0
    4.9790   -4.0970   29.6830 N   0  0  0  0  0  0  0  0  0  0  0  0
    3.5480   -4.2110   29.7680 C   0  0  0  0  0  0  0  0  0  0  0  0
    3.4260   -5.4450   30.6690 C   0  0  0  0  0  0  0  0  0  0  0  0
    3.1180   -6.5720   29.7300 C   0  0  0  0  0  0  0  0  0  0  0  0
    2.9900   -7.8490   30.6080 C   0  0  0  0  0  0  0  0  0  0  0  0
    3.1280   -8.0260   32.1160 C   0  0  0  0  0  0  0  0  0  0  0  0
    3.4380   -6.7720   32.8970 C   0  0  0  0  0  0  0  0  0  0  0  0
    3.5880   -5.4590   32.1570 C   0  0  0  0  0  0  0  0  0  0  0  0
    5.4940   -3.0110   29.1130 C   0  0  0  0  0  0  0  0  0  0  0  0
    5.6000   -1.8130   29.8440 C   0  0  0  0  0  0  0  0  0  0  0  0
    6.1070   -0.6110   29.3970 C   0  0  0  0  0  0  0  0  0  0  0  0
    6.6110   -0.4990   27.9960 C   0  0  0  0  0  0  0  0  0  0  0  0
    6.5430   -1.6210   27.2140 C   0  0  0  0  0  0  0  0  0  0  0  0
    5.9720   -2.9070   27.7820 C   0  0  0  0  0  0  0  0  0  0  0  0
    7.2970   -3.0800   23.7750 C   0  0  0  0  0  0  0  0  0  0  0  0
    7.6680   -3.3020   22.3590 C   0  0  0  0  0  0  0  0  0  0  0  0
  1  2  1  0
  2  3  2  0
  2  4  1  0
  4  5  1  0
  5  6  1  0
  6  7  1  0
  7  8  1  0
  8  9  2  0
  8 10  1  0
 10 11  1  0
 11 12  1  0
 12 13  1  0
 13 14  2  0
 13 15  1  0
 15 16  1  0
 16 17  1  0
 17 18  2  0
 18 19  1  0
 19 20  2  0
 20 21  1  0
 17 22  1  0
 21 22  2  0
 15 23  1  0
 23 24  1  0
 24 25  2  0
 25 26  1  0
 26 27  2  0
 10 28  1  0
 23 28  2  0
 27 28  1  0
  7 29  1  0
  4 30  1  0
 29 30  1  0
M  END
