piperidine-amides-1453-covalent
     RDKit          3D

 21 22  0  0  0  0  0  0  0  0999 V2000
    7.0460   -3.3340   19.3670 C   0  0  0  0  0  0  0  0  0  0  0  0
    6.3590   -4.2200   20.3530 C   0  0  0  0  0  0  0  0  0  0  0  0
    5.3540   -4.8430   19.9770 O   0  0  0  0  0  0  0  0  0  0  0  0
    6.8670   -4.3830   21.6680 N   0  0  0  0  0  0  0  0  0  0  0  0
    6.6700   -5.6190   22.3880 C   0  0  0  0  0  0  0  0  0  0  0  0
    6.6210   -5.2320   23.8660 C   0  0  0  0  0  0  0  0  0  0  0  0
    6.0830   -3.8480   23.9120 C   0  0  0  0  0  0  0  0  0  0  0  0
    5.7190   -3.3970   25.2770 C   0  0  0  0  0  0  0  0  0  0  0  0
    4.6200   -3.7760   25.6900 O   0  0  0  0  0  0  0  0  0  0  0  0
    6.5540   -2.5670   26.0300 N   0  0  0  0  0  0  0  0  0  0  0  0
    6.3270   -1.1800   26.1990 C   0  0  0  0  0  0  0  0  0  0  0  0
    6.3620   -0.4630   27.3530 C   0  0  0  0  0  0  0  0  0  0  0  0
    5.8950    0.8580   27.4030 C   0  0  0  0  0  0  0  0  0  0  0  0
    5.9660    1.8130   29.0480 Br  0  0  0  0  0  0  0  0  0  0  0  0
    5.3850    1.4620   26.2690 C   0  0  0  0  0  0  0  0  0  0  0  0
    4.5680    2.5030   26.1780 O   0  0  0  0  0  0  0  0  0  0  0  0
    5.7420    0.9520   25.0610 N   0  0  0  0  0  0  0  0  0  0  0  0
    5.3630    1.5300   23.9110 C   0  0  0  0  0  0  0  0  0  0  0  0
    6.0120   -0.4590   25.0450 C   0  0  0  0  0  0  0  0  0  0  0  0
    6.9090   -2.7820   23.2390 C   0  0  0  0  0  0  0  0  0  0  0  0
    7.7070   -3.3840   22.2830 C   0  0  0  0  0  0  0  0  0  0  0  0
  1  2  1  0
  2  3  2  0
  2  4  1  0
  4  5  1  0
  5  6  1  0
  6  7  1  0
  7  8  1  0
  8  9  2  0
  8 10  1  0
 10 11  1  0
 11 12  1  0
 12 13  2  0
 13 14  1  0
 13 15  1  0
 15 16  2  0
 15 17  1  0
 17 18  1  0
 11 19  2  0
 17 19  1  0
  7 20  1  0
  4 21  1  0
 20 21  1  0
M  END
