piperidine-amides-13361-covalent
     RDKit          3D

 27 29  0  0  0  0  0  0  0  0999 V2000
    7.0830   -3.2860   19.2420 C   0  0  0  0  0  0  0  0  0  0  0  0
    6.3560   -4.0780   20.2570 C   0  0  0  0  0  0  0  0  0  0  0  0
    5.2910   -4.6140   19.8990 O   0  0  0  0  0  0  0  0  0  0  0  0
    6.8770   -4.2570   21.5400 N   0  0  0  0  0  0  0  0  0  0  0  0
    7.6100   -3.1910   22.1590 C   0  0  0  0  0  0  0  0  0  0  0  0
    7.0970   -2.7650   23.4580 C   0  0  0  0  0  0  0  0  0  0  0  0
    6.4870   -3.8460   24.2490 C   0  0  0  0  0  0  0  0  0  0  0  0
    5.7080   -3.2870   25.3830 C   0  0  0  0  0  0  0  0  0  0  0  0
    4.4840   -3.1500   25.2140 O   0  0  0  0  0  0  0  0  0  0  0  0
    6.3060   -2.9180   26.6100 N   0  0  0  0  0  0  0  0  0  0  0  0
    6.5160   -1.4970   26.9980 C   0  0  2  0  0  0  0  0  0  0  0  0
    7.1590   -1.3670   28.3160 C   0  0  0  0  0  0  0  0  0  0  0  0
    6.4650   -0.3680   29.0950 C   0  0  0  0  0  0  0  0  0  0  0  0
    5.4840    0.1660   28.1450 N   0  0  0  0  0  0  0  0  0  0  0  0
    4.3270    0.9510   28.3830 C   0  0  0  0  0  0  0  0  0  0  0  0
    3.6840    0.7860   29.5940 C   0  0  0  0  0  0  0  0  0  0  0  0
    5.3300   -0.6790   27.0760 C   0  0  2  0  0  0  0  0  0  0  0  0
    4.1640   -1.3250   27.4000 C   0  0  0  0  0  0  0  0  0  0  0  0
    4.1350   -2.1250   28.4900 C   0  0  0  0  0  0  0  0  0  0  0  0
    3.0390   -2.8300   28.9440 C   0  0  0  0  0  0  0  0  0  0  0  0
    1.7310   -2.7790   28.2530 C   0  0  0  0  0  0  0  0  0  0  0  0
    0.3210   -3.6530   28.7910 Cl  0  0  0  0  0  0  0  0  0  0  0  0
    1.6950   -1.8920   27.0070 C   0  0  0  0  0  0  0  0  0  0  0  0
    0.5680   -1.7530   26.2830 F   0  0  0  0  0  0  0  0  0  0  0  0
    2.9980   -1.1910   26.6570 C   0  0  0  0  0  0  0  0  0  0  0  0
    5.7340   -4.8510   23.4910 C   0  0  0  0  0  0  0  0  0  0  0  0
    6.5220   -5.4110   22.3340 C   0  0  0  0  0  0  0  0  0  0  0  0
  1  2  1  0
  2  3  2  0
  2  4  1  0
  4  5  1  0
  5  6  1  0
  6  7  1  0
  7  8  1  0
  8  9  2  0
  8 10  1  0
 11 10  1  1
 11 12  1  0
 12 13  1  0
 13 14  1  0
 14 15  1  0
 15 16  1  0
 11 17  1  0
 14 17  1  0
 17 18  1  1
 18 19  2  0
 19 20  1  0
 20 21  2  0
 21 22  1  0
 21 23  1  0
 23 24  1  0
 18 25  1  0
 23 25  2  0
  7 26  1  0
  4 27  1  0
 26 27  1  0
M  END
