piperidine-amides-32773-covalent
     RDKit          3D

 29 31  0  0  0  0  0  0  0  0999 V2000
    7.1340   -3.3330   19.3350 C   0  0  0  0  0  0  0  0  0  0  0  0
    6.3630   -4.1540   20.3010 C   0  0  0  0  0  0  0  0  0  0  0  0
    5.2970   -4.6720   19.9290 O   0  0  0  0  0  0  0  0  0  0  0  0
    6.8840   -4.3760   21.5890 N   0  0  0  0  0  0  0  0  0  0  0  0
    6.5120   -5.5440   22.3360 C   0  0  0  0  0  0  0  0  0  0  0  0
    5.6640   -5.0260   23.5000 C   0  0  0  0  0  0  0  0  0  0  0  0
    6.5250   -4.0550   24.2380 C   0  0  0  0  0  0  0  0  0  0  0  0
    5.8210   -3.3630   25.3540 C   0  0  0  0  0  0  0  0  0  0  0  0
    5.2830   -2.2950   25.0600 O   0  0  0  0  0  0  0  0  0  0  0  0
    5.7150   -3.8850   26.6560 N   0  0  0  0  0  0  0  0  0  0  0  0
    4.5770   -3.6800   27.4580 C   0  0  0  0  0  0  0  0  0  0  0  0
    4.0970   -4.5590   28.4110 C   0  0  0  0  0  0  0  0  0  0  0  0
    5.1440   -5.4090   28.9400 N   0  0  0  0  0  0  0  0  0  0  0  0
    5.1380   -5.8390   30.2510 C   0  0  0  0  0  0  0  0  0  0  0  0
    4.6380   -7.1020   30.3820 C   0  0  0  0  0  0  0  0  0  0  0  0
    4.8920   -8.1830   29.6860 O   0  0  0  0  0  0  0  0  0  0  0  0
    3.7190   -7.1230   31.4650 N   0  0  0  0  0  0  0  0  0  0  0  0
    2.6730   -8.0730   31.3190 C   0  0  0  0  0  0  0  0  0  0  0  0
    1.9990   -9.0000   32.2990 C   0  0  0  0  0  0  0  0  0  0  0  0
    2.6070   -8.8370   33.6920 C   0  0  0  0  0  0  0  0  0  0  0  0
    0.9490   -9.8850   31.9210 C   0  0  0  0  0  0  0  0  0  0  0  0
    0.4030   -9.9860   30.4960 C   0  0  0  0  0  0  0  0  0  0  0  0
    1.1920   -8.9860   29.6320 C   0  0  0  0  0  0  0  0  0  0  0  0
    2.1770   -8.1870   30.0950 C   0  0  0  0  0  0  0  0  0  0  0  0
    2.2620   -7.6840   28.6330 C   0  0  0  0  0  0  0  0  0  0  0  0
    6.4980   -5.1120   28.5320 C   0  0  0  0  0  0  0  0  0  0  0  0
    6.3350   -3.7210   27.9280 C   0  0  0  0  0  0  0  0  0  0  0  0
    7.0350   -2.9090   23.3910 C   0  0  0  0  0  0  0  0  0  0  0  0
    7.6060   -3.3030   22.1990 C   0  0  0  0  0  0  0  0  0  0  0  0
  1  2  1  0
  2  3  2  0
  2  4  1  0
  4  5  1  0
  5  6  1  0
  6  7  1  0
  7  8  1  0
  8  9  2  0
  8 10  1  0
 10 11  1  0
 11 12  1  0
 12 13  1  0
 13 14  1  0
 14 15  1  0
 15 16  2  0
 15 17  1  0
 17 18  1  0
 18 19  2  0
 19 20  1  0
 19 21  1  0
 21 22  2  0
 22 23  1  0
 18 24  1  0
 23 24  2  0
 24 25  1  0
 13 26  1  0
 10 27  1  0
 26 27  1  0
  7 28  1  0
  4 29  1  0
 28 29  1  0
M  END
