piperidine-amides-23353-covalent
     RDKit          3D

 24 27  0  0  0  0  0  0  0  0999 V2000
    7.1070   -3.3000   19.2390 C   0  0  0  0  0  0  0  0  0  0  0  0
    6.3350   -4.0130   20.2690 C   0  0  0  0  0  0  0  0  0  0  0  0
    5.2740   -4.5670   19.8950 O   0  0  0  0  0  0  0  0  0  0  0  0
    6.7990   -4.1190   21.6060 N   0  0  0  0  0  0  0  0  0  0  0  0
    6.4260   -5.2430   22.3820 C   0  0  0  0  0  0  0  0  0  0  0  0
    6.2260   -4.9520   23.8070 C   0  0  0  0  0  0  0  0  0  0  0  0
    6.5610   -3.5770   24.2750 C   0  0  0  0  0  0  0  0  0  0  0  0
    5.5140   -3.0710   25.2350 C   0  0  0  0  0  0  0  0  0  0  0  0
    4.3820   -3.5900   25.2110 O   0  0  0  0  0  0  0  0  0  0  0  0
    5.7490   -2.0230   26.1620 N   0  0  0  0  0  0  0  0  0  0  0  0
    6.5810   -2.0340   27.2680 C   0  0  0  0  0  0  0  0  0  0  0  0
    5.5540   -1.4280   27.9920 C   0  0  0  0  0  0  0  0  0  0  0  0
    6.0420   -0.1110   28.5730 C   0  0  0  0  0  0  0  0  0  0  0  0
    6.4320   -0.3740   29.8690 C   0  0  0  0  0  0  0  0  0  0  0  0
    5.0140   -0.9050   30.1910 C   0  0  0  0  0  0  0  0  0  0  0  0
    5.1730   -2.0770   29.2610 C   0  0  0  0  0  0  0  0  0  0  0  0
    4.5990   -1.3650   26.8450 C   0  0  1  0  0  0  0  0  0  0  0  0
    4.2790   -0.0280   26.2200 C   0  0  0  0  0  0  0  0  0  0  0  0
    5.3780    0.7610   25.5480 C   0  0  0  0  0  0  0  0  0  0  0  0
    4.7250    2.0170   25.0440 C   0  0  0  0  0  0  0  0  0  0  0  0
    3.3310    1.7960   25.4910 C   0  0  0  0  0  0  0  0  0  0  0  0
    3.0560    0.7140   26.1220 O   0  0  0  0  0  0  0  0  0  0  0  0
    6.7940   -2.5780   23.1870 C   0  0  0  0  0  0  0  0  0  0  0  0
    7.6050   -3.0960   22.2010 C   0  0  0  0  0  0  0  0  0  0  0  0
  1  2  1  0
  2  3  2  0
  2  4  1  0
  4  5  1  0
  5  6  1  0
  6  7  1  0
  7  8  1  0
  8  9  2  0
  8 10  1  0
 10 11  1  0
 12 11  1  0
 12 13  1  0
 13 14  1  0
 14 15  1  0
 12 16  1  0
 15 16  1  0
 10 17  1  0
 12 17  1  0
 17 18  1  6
 18 19  2  0
 19 20  1  0
 20 21  2  0
 18 22  1  0
 21 22  1  0
  7 23  1  0
  4 24  1  0
 23 24  1  0
M  END
