piperidine-amides-2899-covalent
     RDKit          3D

 24 26  0  0  0  0  0  0  0  0999 V2000
    7.0340   -3.3430   19.3200 C   0  0  0  0  0  0  0  0  0  0  0  0
    6.3370   -4.1540   20.3170 C   0  0  0  0  0  0  0  0  0  0  0  0
    5.3630   -4.8240   19.9770 O   0  0  0  0  0  0  0  0  0  0  0  0
    6.8040   -4.2150   21.6770 N   0  0  0  0  0  0  0  0  0  0  0  0
    7.7180   -3.2050   22.1550 C   0  0  0  0  0  0  0  0  0  0  0  0
    7.3880   -2.8580   23.5650 C   0  0  0  0  0  0  0  0  0  0  0  0
    6.1100   -3.5940   23.9100 C   0  0  0  0  0  0  0  0  0  0  0  0
    5.6660   -3.2370   25.2860 C   0  0  0  0  0  0  0  0  0  0  0  0
    4.4660   -3.2430   25.6190 O   0  0  0  0  0  0  0  0  0  0  0  0
    6.6510   -2.8920   26.2340 N   0  0  0  0  0  0  0  0  0  0  0  0
    6.5410   -1.6820   27.0300 C   0  0  0  0  0  0  0  0  0  0  0  0
    7.1090   -1.5910   28.4190 C   0  0  0  0  0  0  0  0  0  0  0  0
    6.9910   -0.4280   29.1610 C   0  0  0  0  0  0  0  0  0  0  0  0
    7.5240   -0.4170   30.4050 F   0  0  0  0  0  0  0  0  0  0  0  0
    6.3400    0.6970   28.6300 C   0  0  0  0  0  0  0  0  0  0  0  0
    5.7780    0.7400   27.3710 C   0  0  0  0  0  0  0  0  0  0  0  0
    5.8490   -0.4330   26.5200 C   0  0  0  0  0  0  0  0  0  0  0  0
    5.3210   -0.3740   25.3640 O   0  0  0  0  0  0  0  0  0  0  0  0
    3.9410   -0.6450   25.3500 C   0  0  0  0  0  0  0  0  0  0  0  0
    3.5090   -0.6730   26.6650 C   0  0  0  0  0  0  0  0  0  0  0  0
    2.7940    0.2870   27.2130 C   0  0  0  0  0  0  0  0  0  0  0  0
    1.9410   -0.7550   27.0870 C   0  0  0  0  0  0  0  0  0  0  0  0
    6.1920   -5.1020   23.7220 C   0  0  0  0  0  0  0  0  0  0  0  0
    6.6410   -5.4280   22.4370 C   0  0  0  0  0  0  0  0  0  0  0  0
  1  2  1  0
  2  3  2  0
  2  4  1  0
  4  5  1  0
  5  6  1  0
  6  7  1  0
  7  8  1  0
  8  9  2  0
  8 10  1  0
 10 11  1  0
 11 12  2  0
 12 13  1  0
 13 14  1  0
 13 15  2  0
 15 16  1  0
 11 17  1  0
 16 17  2  0
 17 18  1  0
 18 19  1  0
 19 20  1  0
 20 21  1  0
 20 22  1  0
 21 22  1  0
  7 23  1  0
  4 24  1  0
 23 24  1  0
M  END
