piperidine-amides-35591-covalent
     RDKit          3D

 30 32  0  0  0  0  0  0  0  0999 V2000
    7.1060   -3.2650   19.1830 C   0  0  0  0  0  0  0  0  0  0  0  0
    6.3540   -4.0240   20.2150 C   0  0  0  0  0  0  0  0  0  0  0  0
    5.2880   -4.5360   19.8800 O   0  0  0  0  0  0  0  0  0  0  0  0
    6.8920   -4.1700   21.4890 N   0  0  0  0  0  0  0  0  0  0  0  0
    7.6340   -3.1220   22.1330 C   0  0  0  0  0  0  0  0  0  0  0  0
    6.8080   -2.5890   23.2600 C   0  0  0  0  0  0  0  0  0  0  0  0
    6.5410   -3.7320   24.2320 C   0  0  0  0  0  0  0  0  0  0  0  0
    5.7970   -3.1630   25.3760 C   0  0  0  0  0  0  0  0  0  0  0  0
    4.6430   -2.7410   25.1900 O   0  0  0  0  0  0  0  0  0  0  0  0
    6.3690   -3.0680   26.6640 N   0  0  0  0  0  0  0  0  0  0  0  0
    6.7550   -1.7320   27.0370 C   0  0  0  0  0  0  0  0  0  0  0  0
    6.1000   -4.0480   27.6980 C   0  0  0  0  0  0  0  0  0  0  0  0
    5.2660   -5.0810   27.3190 C   0  0  0  0  0  0  0  0  0  0  0  0
    4.7440   -4.9650   26.1030 C   0  0  0  0  0  0  0  0  0  0  0  0
    3.9240   -5.8640   25.5910 C   0  0  0  0  0  0  0  0  0  0  0  0
    3.4650   -7.1020   26.2590 C   0  0  0  0  0  0  0  0  0  0  0  0
    2.2680   -8.3730   25.4920 Br  0  0  0  0  0  0  0  0  0  0  0  0
    4.0950   -7.1790   27.6390 C   0  0  0  0  0  0  0  0  0  0  0  0
    5.0650   -6.1930   28.3380 C   0  0  0  0  0  0  0  0  0  0  0  0
    5.5180   -6.4690   29.6170 O   0  0  0  0  0  0  0  0  0  0  0  0
    4.6920   -7.0990   30.5710 C   0  0  0  0  0  0  0  0  0  0  0  0
    3.2560   -7.3560   30.2980 C   0  0  0  0  0  0  0  0  0  0  0  0
    2.4120   -8.0360   31.3450 C   0  0  0  0  0  0  0  0  0  0  0  0
    3.0500   -8.4300   32.6290 C   0  0  0  0  0  0  0  0  0  0  0  0
    2.1600   -9.2280   33.9220 Cl  0  0  0  0  0  0  0  0  0  0  0  0
    4.5280   -8.1120   32.7920 C   0  0  0  0  0  0  0  0  0  0  0  0
    5.2910   -8.5760   34.3110 Cl  0  0  0  0  0  0  0  0  0  0  0  0
    5.2390   -7.4820   31.7760 C   0  0  0  0  0  0  0  0  0  0  0  0
    5.8490   -4.8670   23.5320 C   0  0  0  0  0  0  0  0  0  0  0  0
    6.5930   -5.3580   22.2860 C   0  0  0  0  0  0  0  0  0  0  0  0
  1  2  1  0
  2  3  2  0
  2  4  1  0
  4  5  1  0
  5  6  1  0
  6  7  1  0
  7  8  1  0
  8  9  2  0
  8 10  1  0
 10 11  1  0
 10 12  1  0
 12 13  1  0
 13 14  2  0
 14 15  1  0
 15 16  2  0
 16 17  1  0
 16 18  1  0
 13 19  1  0
 18 19  2  0
 19 20  1  0
 20 21  1  0
 21 22  2  0
 22 23  1  0
 23 24  2  0
 24 25  1  0
 24 26  1  0
 26 27  1  0
 21 28  1  0
 26 28  2  0
  7 29  1  0
  4 30  1  0
 29 30  1  0
M  END
