piperidine-amides-35534-covalent
     RDKit          3D

 30 32  0  0  0  0  0  0  0  0999 V2000
    7.1490   -3.2850   19.1940 C   0  0  0  0  0  0  0  0  0  0  0  0
    6.3690   -4.0250   20.2130 C   0  0  0  0  0  0  0  0  0  0  0  0
    5.2920   -4.5030   19.8670 O   0  0  0  0  0  0  0  0  0  0  0  0
    6.9030   -4.2010   21.4840 N   0  0  0  0  0  0  0  0  0  0  0  0
    7.7580   -3.2250   22.1000 C   0  0  0  0  0  0  0  0  0  0  0  0
    7.0860   -2.7140   23.3300 C   0  0  0  0  0  0  0  0  0  0  0  0
    6.7080   -3.8650   24.2630 C   0  0  0  0  0  0  0  0  0  0  0  0
    5.8680   -3.2370   25.2810 C   0  0  0  0  0  0  0  0  0  0  0  0
    4.6370   -3.2330   25.1190 O   0  0  0  0  0  0  0  0  0  0  0  0
    6.4050   -2.6260   26.4190 N   0  0  0  0  0  0  0  0  0  0  0  0
    7.7690   -2.1740   26.3910 C   0  0  0  0  0  0  0  0  0  0  0  0
    5.4320   -2.0110   27.2350 C   0  0  0  0  0  0  0  0  0  0  0  0
    5.8540   -0.9300   27.9550 C   0  0  0  0  0  0  0  0  0  0  0  0
    5.8950    0.2300   27.3020 C   0  0  0  0  0  0  0  0  0  0  0  0
    6.2760    1.3450   27.9130 C   0  0  0  0  0  0  0  0  0  0  0  0
    6.6910    1.4570   29.3450 C   0  0  0  0  0  0  0  0  0  0  0  0
    7.2320    3.0630   30.2200 Br  0  0  0  0  0  0  0  0  0  0  0  0
    6.6170    0.0870   30.0000 C   0  0  0  0  0  0  0  0  0  0  0  0
    6.1880   -1.2550   29.3720 C   0  0  0  0  0  0  0  0  0  0  0  0
    6.1600   -2.4230   30.0740 O   0  0  0  0  0  0  0  0  0  0  0  0
    5.9460   -3.5950   29.3340 C   0  0  0  0  0  0  0  0  0  0  0  0
    4.6210   -4.2650   29.3660 C   0  0  0  0  0  0  0  0  0  0  0  0
    4.4230   -5.5120   28.5580 C   0  0  0  0  0  0  0  0  0  0  0  0
    5.5830   -5.9910   27.7780 C   0  0  0  0  0  0  0  0  0  0  0  0
    5.3020   -7.1070   27.0880 F   0  0  0  0  0  0  0  0  0  0  0  0
    6.9070   -5.2470   27.8070 C   0  0  0  0  0  0  0  0  0  0  0  0
    8.3430   -5.7340   26.9220 Cl  0  0  0  0  0  0  0  0  0  0  0  0
    6.9890   -4.1030   28.5820 C   0  0  0  0  0  0  0  0  0  0  0  0
    5.9770   -4.9670   23.5430 C   0  0  0  0  0  0  0  0  0  0  0  0
    6.6410   -5.4180   22.2410 C   0  0  0  0  0  0  0  0  0  0  0  0
  1  2  1  0
  2  3  2  0
  2  4  1  0
  4  5  1  0
  5  6  1  0
  6  7  1  0
  7  8  1  0
  8  9  2  0
  8 10  1  0
 10 11  1  0
 10 12  1  0
 12 13  1  0
 13 14  2  0
 14 15  1  0
 15 16  2  0
 16 17  1  0
 16 18  1  0
 13 19  1  0
 18 19  2  0
 19 20  1  0
 20 21  1  0
 21 22  2  0
 22 23  1  0
 23 24  2  0
 24 25  1  0
 24 26  1  0
 26 27  1  0
 21 28  1  0
 26 28  2  0
  7 29  1  0
  4 30  1  0
 29 30  1  0
M  END
