piperidine-amides-29991-covalent
     RDKit          3D

 27 29  0  0  0  0  0  0  0  0999 V2000
    7.5110   -2.8440   18.3570 C   0  0  0  0  0  0  0  0  0  0  0  0
    6.3160   -2.5030   19.0660 C   0  0  0  0  0  0  0  0  0  0  0  0
    5.3490   -3.3020   19.0270 O   0  0  0  0  0  0  0  0  0  0  0  0
    6.2800   -1.2160   19.7260 N   0  0  0  0  0  0  0  0  0  0  0  0
    7.4030   -0.8340   20.5140 C   0  0  0  0  0  0  0  0  0  0  0  0
    7.3690   -1.6170   21.7850 C   0  0  0  0  0  0  0  0  0  0  0  0
    5.9350   -2.1210   21.9720 C   0  0  0  0  0  0  0  0  0  0  0  0
    5.5770   -3.2920   21.0650 C   0  0  0  0  0  0  0  0  0  0  0  0
    5.5390   -4.4460   20.5420 O   0  0  0  0  0  0  0  0  0  0  0  0
    6.5380   -3.9610   21.8480 N   0  0  0  0  0  0  0  0  0  0  0  0
    7.6030   -3.1480   22.4000 C   0  0  0  0  0  0  0  0  0  0  0  0
    7.5430   -3.2390   23.8900 C   0  0  0  0  0  0  0  0  0  0  0  0
    6.6370   -4.0960   24.4610 C   0  0  0  0  0  0  0  0  0  0  0  0
    5.8450   -3.5030   25.4600 C   0  0  0  0  0  0  0  0  0  0  0  0
    4.5110   -3.2100   25.1750 O   0  0  0  0  0  0  0  0  0  0  0  0
    6.3670   -3.1960   26.7300 N   0  0  0  0  0  0  0  0  0  0  0  0
    6.4140   -1.9170   27.3220 C   0  0  0  0  0  0  0  0  0  0  0  0
    5.8640   -0.7330   26.6850 C   0  0  0  0  0  0  0  0  0  0  0  0
    5.8740    0.5280   27.2220 C   0  0  0  0  0  0  0  0  0  0  0  0
    6.4330    0.7750   28.4550 C   0  0  0  0  0  0  0  0  0  0  0  0
    6.5190    1.8640   29.0750 O   0  0  0  0  0  0  0  0  0  0  0  0
    6.9900   -0.3140   29.1370 C   0  0  0  0  0  0  0  0  0  0  0  0
    6.9800   -1.6680   28.5630 C   0  0  0  0  0  0  0  0  0  0  0  0
    5.7760   -4.8230   23.6910 C   0  0  0  0  0  0  0  0  0  0  0  0
    6.3330   -5.2340   22.4980 C   0  0  0  0  0  0  0  0  0  0  0  0
    5.0270   -0.9460   21.6590 C   0  0  0  0  0  0  0  0  0  0  0  0
    5.0660   -0.6250   20.1590 C   0  0  0  0  0  0  0  0  0  0  0  0
  1  2  1  0
  2  3  2  0
  2  4  1  0
  4  5  1  0
  5  6  1  0
  6  7  1  0
  7  8  1  0
  8  9  2  0
  8 10  1  0
 10 11  1  0
 11 12  1  0
 12 13  1  0
 13 14  1  0
 14 15  2  0
 14 16  1  0
 16 17  1  0
 17 18  2  0
 18 19  1  0
 19 20  2  0
 20 21  1  0
 20 22  1  0
 17 23  1  0
 22 23  2  0
 13 24  1  0
 10 25  1  0
 24 25  1  0
  7 26  1  0
  4 27  1  0
 26 27  1  0
M  END
