piperidine-amides-12090-covalent
     RDKit          3D

 25 27  0  0  0  0  0  0  0  0999 V2000
    7.1100   -3.2830   19.2490 C   0  0  0  0  0  0  0  0  0  0  0  0
    6.3660   -4.0600   20.2410 C   0  0  0  0  0  0  0  0  0  0  0  0
    5.3290   -4.6420   19.9220 O   0  0  0  0  0  0  0  0  0  0  0  0
    6.8760   -4.1870   21.5760 N   0  0  0  0  0  0  0  0  0  0  0  0
    7.7400   -3.1590   22.1050 C   0  0  0  0  0  0  0  0  0  0  0  0
    7.5450   -3.0190   23.5820 C   0  0  0  0  0  0  0  0  0  0  0  0
    6.1490   -3.5120   23.9020 C   0  0  0  0  0  0  0  0  0  0  0  0
    5.7760   -3.1360   25.2850 C   0  0  0  0  0  0  0  0  0  0  0  0
    4.7360   -3.5410   25.8410 O   0  0  0  0  0  0  0  0  0  0  0  0
    6.6480   -2.2650   25.9760 N   0  0  0  0  0  0  0  0  0  0  0  0
    6.1320   -0.9970   26.4430 C   0  0  0  0  0  0  0  0  0  0  0  0
    6.1230   -0.0100   25.2840 C   0  0  0  0  0  0  0  0  0  0  0  0
    5.5090   -0.2220   24.0480 C   0  0  0  0  0  0  0  0  0  0  0  0
    5.6310    0.7280   23.2320 O   0  0  0  0  0  0  0  0  0  0  0  0
    6.3740    1.6650   23.9270 C   0  0  0  0  0  0  0  0  0  0  0  0
    6.8170    2.9100   23.5010 C   0  0  0  0  0  0  0  0  0  0  0  0
    7.9390    3.5470   24.2120 C   0  0  0  0  0  0  0  0  0  0  0  0
    8.4130    4.7760   23.8170 C   0  0  0  0  0  0  0  0  0  0  0  0
    7.7530    5.2980   22.7480 C   0  0  0  0  0  0  0  0  0  0  0  0
    7.6430    6.3710   21.8510 C   0  0  0  0  0  0  0  0  0  0  0  0
    6.6410    4.7180   22.0090 C   0  0  0  0  0  0  0  0  0  0  0  0
    6.1490    3.4690   22.4000 C   0  0  0  0  0  0  0  0  0  0  0  0
    6.6870    1.2240   25.2210 N   0  0  0  0  0  0  0  0  0  0  0  0
    6.0660   -5.0010   23.7070 C   0  0  0  0  0  0  0  0  0  0  0  0
    6.5290   -5.3420   22.3290 C   0  0  0  0  0  0  0  0  0  0  0  0
  1  2  1  0
  2  3  2  0
  2  4  1  0
  4  5  1  0
  5  6  1  0
  6  7  1  0
  7  8  1  0
  8  9  2  0
  8 10  1  0
 10 11  1  0
 11 12  1  0
 12 13  2  0
 13 14  1  0
 14 15  1  0
 15 16  1  0
 16 17  2  0
 17 18  1  0
 18 19  2  0
 19 20  1  0
 19 21  1  0
 16 22  1  0
 21 22  2  0
 12 23  1  0
 15 23  2  0
  7 24  1  0
  4 25  1  0
 24 25  1  0
M  END
