piperidine-amides-3301-covalent
     RDKit          3D

 22 23  0  0  0  0  0  0  0  0999 V2000
    7.0670   -3.2990   19.2280 C   0  0  0  0  0  0  0  0  0  0  0  0
    6.3200   -4.0580   20.2240 C   0  0  0  0  0  0  0  0  0  0  0  0
    5.2750   -4.6180   19.9060 O   0  0  0  0  0  0  0  0  0  0  0  0
    6.8300   -4.2030   21.5570 N   0  0  0  0  0  0  0  0  0  0  0  0
    7.5880   -3.1360   22.1560 C   0  0  0  0  0  0  0  0  0  0  0  0
    6.8920   -2.6860   23.3990 C   0  0  0  0  0  0  0  0  0  0  0  0
    6.6080   -3.9270   24.2260 C   0  0  0  0  0  0  0  0  0  0  0  0
    5.8480   -3.5030   25.4300 C   0  0  0  0  0  0  0  0  0  0  0  0
    4.6900   -3.0440   25.3580 O   0  0  0  0  0  0  0  0  0  0  0  0
    6.4600   -3.6220   26.7040 N   0  0  0  0  0  0  0  0  0  0  0  0
    6.9290   -4.9220   27.1360 C   0  0  0  0  0  0  0  0  0  0  0  0
    5.7490   -5.7330   27.5610 C   0  0  0  0  0  0  0  0  0  0  0  0
    5.5680   -5.5790   28.9250 O   0  0  0  0  0  0  0  0  0  0  0  0
    4.4910   -5.0120   29.5430 C   0  0  0  0  0  0  0  0  0  0  0  0
    3.7820   -5.8550   30.3980 C   0  0  0  0  0  0  0  0  0  0  0  0
    4.3520   -7.0010   30.9550 C   0  0  0  0  0  0  0  0  0  0  0  0
    3.5420   -7.8330   31.8400 C   0  0  0  0  0  0  0  0  0  0  0  0
    2.2410   -7.5390   32.1530 C   0  0  0  0  0  0  0  0  0  0  0  0
    1.7350   -6.4090   31.5840 C   0  0  0  0  0  0  0  0  0  0  0  0
    2.4610   -5.5860   30.7370 C   0  0  0  0  0  0  0  0  0  0  0  0
    5.9170   -4.9960   23.5120 C   0  0  0  0  0  0  0  0  0  0  0  0
    6.5790   -5.3760   22.3540 C   0  0  0  0  0  0  0  0  0  0  0  0
  1  2  1  0
  2  3  2  0
  2  4  1  0
  4  5  1  0
  5  6  1  0
  6  7  1  0
  7  8  1  0
  8  9  2  0
  8 10  1  0
 10 11  1  0
 11 12  1  0
 12 13  1  0
 13 14  1  0
 14 15  1  0
 15 16  2  0
 16 17  1  0
 17 18  2  0
 18 19  1  0
 15 20  1  0
 19 20  2  0
  7 21  1  0
  4 22  1  0
 21 22  1  0
M  END
