piperidine-amides-29738-covalent
     RDKit          3D

 26 26  0  0  0  0  0  0  0  0999 V2000
    7.1440   -3.2650   19.2300 C   0  0  0  0  0  0  0  0  0  0  0  0
    6.3720   -4.0200   20.2110 C   0  0  0  0  0  0  0  0  0  0  0  0
    5.3120   -4.5560   19.8920 O   0  0  0  0  0  0  0  0  0  0  0  0
    6.8840   -4.1820   21.5430 N   0  0  0  0  0  0  0  0  0  0  0  0
    7.7210   -3.1650   22.1240 C   0  0  0  0  0  0  0  0  0  0  0  0
    7.0960   -2.6250   23.3740 C   0  0  0  0  0  0  0  0  0  0  0  0
    6.5540   -3.7880   24.1850 C   0  0  0  0  0  0  0  0  0  0  0  0
    5.7750   -3.2420   25.3330 C   0  0  0  0  0  0  0  0  0  0  0  0
    4.5600   -2.9900   25.2540 O   0  0  0  0  0  0  0  0  0  0  0  0
    6.4420   -2.9570   26.5470 N   0  0  0  0  0  0  0  0  0  0  0  0
    6.8410   -1.5820   26.6900 C   0  0  0  0  0  0  0  0  0  0  0  0
    6.1620   -3.7490   27.7340 C   0  0  0  0  0  0  0  0  0  0  0  0
    5.7140   -5.0670   27.7050 C   0  0  1  0  0  0  0  0  0  0  0  0
    4.9730   -5.4270   28.6460 O   0  0  0  0  0  0  0  0  0  0  0  0
    5.3670   -5.7610   26.5350 C   0  0  0  0  0  0  0  0  0  0  0  0
    3.9950   -5.8350   26.1800 N   0  0  0  0  0  0  0  0  0  0  0  0
    3.2890   -4.9210   25.3870 C   0  0  0  0  0  0  0  0  0  0  0  0
    3.6890   -7.2340   26.1700 C   0  0  0  0  0  0  0  0  0  0  0  0
    3.7330   -7.7770   27.4320 O   0  0  0  0  0  0  0  0  0  0  0  0
    3.3750   -7.9430   25.1070 O   0  0  0  0  0  0  0  0  0  0  0  0
    2.0460   -8.2240   24.7470 C   0  0  0  0  0  0  0  0  0  0  0  0
    1.7760   -9.4920   25.2280 C   0  0  0  0  0  0  0  0  0  0  0  0
    1.7840   -8.0530   23.2610 C   0  0  0  0  0  0  0  0  0  0  0  0
    1.1550   -7.2480   25.4520 C   0  0  0  0  0  0  0  0  0  0  0  0
    5.7200   -4.7690   23.3700 C   0  0  0  0  0  0  0  0  0  0  0  0
    6.4930   -5.2960   22.3450 C   0  0  0  0  0  0  0  0  0  0  0  0
  1  2  1  0
  2  3  2  0
  2  4  1  0
  4  5  1  0
  5  6  1  0
  6  7  1  0
  7  8  1  0
  8  9  2  0
  8 10  1  0
 10 11  1  0
 10 12  1  0
 12 13  1  0
 13 14  1  1
 13 15  1  0
 15 16  1  0
 16 17  1  0
 16 18  1  0
 18 19  2  0
 18 20  1  0
 21 20  1  0
 21 22  1  0
 21 23  1  0
 21 24  1  0
  7 25  1  0
  4 26  1  0
 25 26  1  0
M  END
