piperidine-amides-2730-covalent
     RDKit          3D

 25 27  0  0  0  0  0  0  0  0999 V2000
    7.1650   -3.2990   19.2680 C   0  0  0  0  0  0  0  0  0  0  0  0
    6.3610   -4.0550   20.2190 C   0  0  0  0  0  0  0  0  0  0  0  0
    5.2790   -4.5310   19.8790 O   0  0  0  0  0  0  0  0  0  0  0  0
    6.8790   -4.2970   21.5320 N   0  0  0  0  0  0  0  0  0  0  0  0
    7.7090   -3.3050   22.1570 C   0  0  0  0  0  0  0  0  0  0  0  0
    7.0020   -2.7200   23.3360 C   0  0  0  0  0  0  0  0  0  0  0  0
    6.5070   -3.8510   24.2210 C   0  0  0  0  0  0  0  0  0  0  0  0
    5.7740   -3.2880   25.3840 C   0  0  0  0  0  0  0  0  0  0  0  0
    4.5280   -3.2680   25.4510 O   0  0  0  0  0  0  0  0  0  0  0  0
    6.5370   -2.7610   26.4480 N   0  0  0  0  0  0  0  0  0  0  0  0
    6.2500   -1.4540   26.9910 C   0  0  0  0  0  0  0  0  0  0  0  0
    5.9600   -0.4760   25.8730 C   0  0  0  0  0  0  0  0  0  0  0  0
    6.6470   -0.3180   24.7290 C   0  0  0  0  0  0  0  0  0  0  0  0
    6.0250    0.7170   23.9840 N   0  0  0  0  0  0  0  0  0  0  0  0
    4.9760    1.1520   24.7070 N   0  0  0  0  0  0  0  0  0  0  0  0
    4.0560    2.2020   24.3390 C   0  0  0  0  0  0  0  0  0  0  0  0
    4.5440    3.4930   24.3580 C   0  0  0  0  0  0  0  0  0  0  0  0
    3.9380    4.5890   25.0930 C   0  0  0  0  0  0  0  0  0  0  0  0
    4.4110    5.8690   25.1220 C   0  0  0  0  0  0  0  0  0  0  0  0
    5.5410    6.2030   24.4220 C   0  0  0  0  0  0  0  0  0  0  0  0
    6.2010    5.2210   23.6790 C   0  0  0  0  0  0  0  0  0  0  0  0
    5.6920    3.8290   23.6440 C   0  0  0  0  0  0  0  0  0  0  0  0
    4.9240    0.4220   25.8730 C   0  0  0  0  0  0  0  0  0  0  0  0
    5.6040   -4.8010   23.4790 C   0  0  0  0  0  0  0  0  0  0  0  0
    6.3070   -5.3450   22.2880 C   0  0  0  0  0  0  0  0  0  0  0  0
  1  2  1  0
  2  3  2  0
  2  4  1  0
  4  5  1  0
  5  6  1  0
  6  7  1  0
  7  8  1  0
  8  9  2  0
  8 10  1  0
 10 11  1  0
 11 12  1  0
 12 13  1  0
 13 14  2  0
 14 15  1  0
 15 16  1  0
 16 17  1  0
 17 18  2  0
 18 19  1  0
 19 20  2  0
 20 21  1  0
 17 22  1  0
 21 22  2  0
 12 23  2  0
 15 23  1  0
  7 24  1  0
  4 25  1  0
 24 25  1  0
M  END
