piperidine-amides-6869-covalent
     RDKit          3D

 23 24  0  0  0  0  0  0  0  0999 V2000
    7.1120   -3.3270   19.2970 C   0  0  0  0  0  0  0  0  0  0  0  0
    6.4090   -4.1710   20.2730 C   0  0  0  0  0  0  0  0  0  0  0  0
    5.3450   -4.7430   19.9540 O   0  0  0  0  0  0  0  0  0  0  0  0
    6.9510   -4.3920   21.5450 N   0  0  0  0  0  0  0  0  0  0  0  0
    7.7130   -3.3420   22.1750 C   0  0  0  0  0  0  0  0  0  0  0  0
    6.6690   -2.5050   22.8930 C   0  0  0  0  0  0  0  0  0  0  0  0
    6.1310   -3.4020   23.9830 C   0  0  0  0  0  0  0  0  0  0  0  0
    5.1730   -2.6390   24.8130 C   0  0  0  0  0  0  0  0  0  0  0  0
    4.3010   -3.2640   25.4510 O   0  0  0  0  0  0  0  0  0  0  0  0
    5.2700   -1.2090   24.8580 N   0  0  0  0  0  0  0  0  0  0  0  0
    6.4870   -0.6190   25.3270 C   0  0  0  0  0  0  0  0  0  0  0  0
    7.1500   -1.8500   25.6860 C   0  0  0  0  0  0  0  0  0  0  0  0
    6.6560   -2.4750   26.7630 C   0  0  0  0  0  0  0  0  0  0  0  0
    7.1750   -3.6310   27.1360 C   0  0  0  0  0  0  0  0  0  0  0  0
    8.2100   -4.2140   26.4480 C   0  0  0  0  0  0  0  0  0  0  0  0
    8.6150   -5.3500   26.9080 C   0  0  0  0  0  0  0  0  0  0  0  0
    7.7450   -6.0540   27.9050 C   0  0  0  0  0  0  0  0  0  0  0  0
    8.9420   -5.4610   28.3010 C   0  0  0  0  0  0  0  0  0  0  0  0
    9.3980   -6.1520   26.1710 C   0  0  0  0  0  0  0  0  0  0  0  0
    8.7230   -3.5680   25.3580 C   0  0  0  0  0  0  0  0  0  0  0  0
    8.1910   -2.3700   24.9740 C   0  0  0  0  0  0  0  0  0  0  0  0
    5.3800   -4.5610   23.3180 C   0  0  0  0  0  0  0  0  0  0  0  0
    6.3180   -5.3460   22.4210 C   0  0  0  0  0  0  0  0  0  0  0  0
  1  2  1  0
  2  3  2  0
  2  4  1  0
  4  5  1  0
  5  6  1  0
  6  7  1  0
  7  8  1  0
  8  9  2  0
  8 10  1  0
 10 11  1  0
 11 12  1  0
 12 13  2  0
 13 14  1  0
 14 15  2  0
 15 16  1  0
 16 17  1  0
 16 18  1  0
 16 19  1  0
 15 20  1  0
 12 21  1  0
 20 21  2  0
  7 22  1  0
  4 23  1  0
 22 23  1  0
M  END
