piperidine-amides-1153-covalent
     RDKit          3D

 23 25  0  0  0  0  0  0  0  0999 V2000
    7.0570   -3.3280   19.3140 C   0  0  0  0  0  0  0  0  0  0  0  0
    6.3660   -4.1830   20.3180 C   0  0  0  0  0  0  0  0  0  0  0  0
    5.3600   -4.8270   19.9710 O   0  0  0  0  0  0  0  0  0  0  0  0
    6.8910   -4.2780   21.6230 N   0  0  0  0  0  0  0  0  0  0  0  0
    7.7220   -3.2390   22.1910 C   0  0  0  0  0  0  0  0  0  0  0  0
    6.9440   -2.6560   23.3630 C   0  0  0  0  0  0  0  0  0  0  0  0
    6.5330   -3.8190   24.1900 C   0  0  0  0  0  0  0  0  0  0  0  0
    5.7900   -3.4100   25.4070 C   0  0  0  0  0  0  0  0  0  0  0  0
    4.5480   -3.4670   25.3920 O   0  0  0  0  0  0  0  0  0  0  0  0
    6.5090   -2.9720   26.5210 N   0  0  0  0  0  0  0  0  0  0  0  0
    6.6160   -1.6600   27.0580 C   0  0  1  0  0  0  0  0  0  0  0  0
    5.9510   -0.6210   26.5780 C   0  0  0  0  0  0  0  0  0  0  0  0
    5.3850   -0.3780   27.8890 O   0  0  0  0  0  0  0  0  0  0  0  0
    6.0660    0.5000   28.7140 C   0  0  0  0  0  0  0  0  0  0  0  0
    5.1630    1.1960   27.9430 C   0  0  0  0  0  0  0  0  0  0  0  0
    5.7410    2.2950   28.7450 C   0  0  0  0  0  0  0  0  0  0  0  0
    5.2770    3.5810   28.5270 F   0  0  0  0  0  0  0  0  0  0  0  0
    6.8250    2.0510   29.8000 C   0  0  0  0  0  0  0  0  0  0  0  0
    7.3080    0.6080   30.0010 C   0  0  0  0  0  0  0  0  0  0  0  0
    6.8680   -0.5130   29.3200 C   0  0  0  0  0  0  0  0  0  0  0  0
    6.2400   -1.5600   28.4640 C   0  0  0  0  0  0  0  0  0  0  0  0
    5.7660   -4.8800   23.4560 C   0  0  0  0  0  0  0  0  0  0  0  0
    6.5640   -5.3920   22.4640 C   0  0  0  0  0  0  0  0  0  0  0  0
  1  2  1  0
  2  3  2  0
  2  4  1  0
  4  5  1  0
  5  6  1  0
  6  7  1  0
  7  8  1  0
  8  9  2  0
  8 10  1  0
 11 10  1  6
 11 12  1  0
 12 13  1  0
 13 14  1  0
 14 15  2  0
 15 16  1  0
 16 17  1  0
 16 18  2  0
 18 19  1  0
 14 20  1  0
 19 20  2  0
 11 21  1  0
 20 21  1  0
  7 22  1  0
  4 23  1  0
 22 23  1  0
M  END
