piperidine-amides-11656-covalent
     RDKit          3D

 30 32  0  0  0  0  0  0  0  0999 V2000
    7.1530   -3.2480   19.2010 C   0  0  0  0  0  0  0  0  0  0  0  0
    6.3770   -3.9880   20.1880 C   0  0  0  0  0  0  0  0  0  0  0  0
    5.3050   -4.5110   19.8740 O   0  0  0  0  0  0  0  0  0  0  0  0
    6.8890   -4.1660   21.5160 N   0  0  0  0  0  0  0  0  0  0  0  0
    6.5420   -5.3420   22.2590 C   0  0  0  0  0  0  0  0  0  0  0  0
    5.7610   -4.9580   23.4810 C   0  0  0  0  0  0  0  0  0  0  0  0
    5.7640   -3.4390   23.5770 C   0  0  0  0  0  0  0  0  0  0  0  0
    4.9780   -2.9620   24.7500 C   0  0  0  0  0  0  0  0  0  0  0  0
    3.7850   -2.6460   24.6570 O   0  0  0  0  0  0  0  0  0  0  0  0
    5.5740   -2.8580   26.0120 N   0  0  0  0  0  0  0  0  0  0  0  0
    5.3630   -3.9460   26.9190 C   0  0  2  0  0  0  0  0  0  0  0  0
    6.7630   -4.3110   27.0730 C   0  0  0  0  0  0  0  0  0  0  0  0
    7.4380   -3.7660   28.1430 C   0  0  0  0  0  0  0  0  0  0  0  0
    8.7580   -4.0500   28.3330 C   0  0  0  0  0  0  0  0  0  0  0  0
    9.3610   -4.8620   27.4640 C   0  0  0  0  0  0  0  0  0  0  0  0
   10.6100   -5.0190   27.8030 F   0  0  0  0  0  0  0  0  0  0  0  0
    8.6680   -5.4210   26.3680 C   0  0  0  0  0  0  0  0  0  0  0  0
    7.3700   -5.1520   26.1630 C   0  0  0  0  0  0  0  0  0  0  0  0
    4.4650   -4.9700   26.7150 C   0  0  0  0  0  0  0  0  0  0  0  0
    3.2660   -5.1100   27.4350 C   0  0  0  0  0  0  0  0  0  0  0  0
    2.3130   -6.2020   27.1920 C   0  0  0  0  0  0  0  0  0  0  0  0
    2.5020   -7.1820   26.2460 C   0  0  0  0  0  0  0  0  0  0  0  0
    1.5490   -8.1810   26.0610 C   0  0  0  0  0  0  0  0  0  0  0  0
    1.0440   -8.6370   27.2560 F   0  0  0  0  0  0  0  0  0  0  0  0
    0.4790   -7.8480   25.2440 F   0  0  0  0  0  0  0  0  0  0  0  0
    2.1630   -9.2190   25.3300 F   0  0  0  0  0  0  0  0  0  0  0  0
    3.6500   -7.0890   25.5330 C   0  0  0  0  0  0  0  0  0  0  0  0
    4.6660   -5.9650   25.7600 C   0  0  0  0  0  0  0  0  0  0  0  0
    7.1490   -2.8960   23.4790 C   0  0  0  0  0  0  0  0  0  0  0  0
    7.7290   -3.1560   22.1320 C   0  0  0  0  0  0  0  0  0  0  0  0
  1  2  1  0
  2  3  2  0
  2  4  1  0
  4  5  1  0
  5  6  1  0
  6  7  1  0
  7  8  1  0
  8  9  2  0
  8 10  1  0
 11 10  1  6
 11 12  1  0
 12 13  2  0
 13 14  1  0
 14 15  2  0
 15 16  1  0
 15 17  1  0
 12 18  1  0
 17 18  2  0
 11 19  1  0
 19 20  2  0
 20 21  1  0
 21 22  2  0
 22 23  1  0
 23 24  1  0
 23 25  1  0
 23 26  1  0
 22 27  1  0
 19 28  1  0
 27 28  2  0
  7 29  1  0
  4 30  1  0
 29 30  1  0
M  END
